QQF.pdb
     RDKit          3D

 30 30  0  0  1  0  0  0  0  0999 V2000
   30.4189  -20.9945  -20.4611 N   0  0  0  0  0  0  0  0  0  0  0  0
   30.0882  -22.0919  -19.6376 C   0  0  0  0  0  0  0  0  0  0  0  0
   29.7156  -23.1654  -20.1570 O   0  0  0  0  0  0  0  0  0  0  0  0
   30.1881  -21.9442  -18.1718 C   0  0  0  0  0  0  0  0  0  0  0  0
   28.9732  -21.2508  -17.6403 C   0  0  0  0  0  0  0  0  0  0  0  0
   28.2410  -22.0860  -16.6237 C   0  0  2  0  0  0  0  0  0  0  0  0
   27.4859  -23.1076  -17.3670 N   0  0  0  0  0  0  0  0  0  0  0  0
   27.3386  -21.2334  -15.8323 C   0  0  0  0  0  0  0  0  0  0  0  0
   26.9129  -20.1684  -16.3798 O   0  0  0  0  0  0  0  0  0  0  0  0
   23.8247  -22.0581  -16.8010 N   0  0  0  0  0  0  0  0  0  0  0  0
   23.5229  -22.6915  -15.5881 C   0  0  0  0  0  0  0  0  0  0  0  0
   22.8579  -23.7420  -15.5692 O   0  0  0  0  0  0  0  0  0  0  0  0
   23.9970  -22.1125  -14.3080 C   0  0  0  0  0  0  0  0  0  0  0  0
   24.7270  -20.8073  -14.5424 C   0  0  0  0  0  0  0  0  0  0  0  0
   26.0268  -20.7123  -13.8234 C   0  0  2  0  0  0  0  0  0  0  0  0
   26.9634  -21.5760  -14.5229 N   0  0  0  0  0  0  0  0  0  0  0  0
   25.9651  -21.0668  -12.3687 C   0  0  0  0  0  0  0  0  0  0  0  0
   25.9932  -22.2954  -12.0477 O   0  0  0  0  0  0  0  0  0  0  0  0
   25.8771  -20.1144  -11.3608 N   0  0  0  0  0  0  0  0  0  0  0  0
   25.7048  -20.3169   -9.9505 C   0  0  1  0  0  0  0  0  0  0  0  0
   26.1622  -19.1397   -9.0929 C   0  0  0  0  0  0  0  0  0  0  0  0
   27.4236  -19.5380   -8.4162 C   0  0  0  0  0  0  0  0  0  0  0  0
   27.8209  -19.0780   -7.1822 C   0  0  0  0  0  0  0  0  0  0  0  0
   28.9828  -19.4840   -6.5768 C   0  0  0  0  0  0  0  0  0  0  0  0
   29.8229  -20.3942   -7.2031 C   0  0  0  0  0  0  0  0  0  0  0  0
   29.4212  -20.8593   -8.4640 C   0  0  0  0  0  0  0  0  0  0  0  0
   28.2711  -20.4581   -9.0535 C   0  0  0  0  0  0  0  0  0  0  0  0
   24.4206  -20.8971   -9.5880 C   0  0  0  0  0  0  0  0  0  0  0  0
   24.1739  -21.6585   -8.4881 O   0  0  0  0  0  0  0  0  0  0  0  0
   23.4284  -20.6623  -10.3997 O   0  0  0  0  0  0  0  0  0  0  0  0
  1  2  1  0
  2  4  1  0
  2  3  2  0
  4  5  1  0
  6  7  1  6
  6  5  1  0
  8  6  1  0
  9  8  2  0
 10 11  1  0
 11 12  2  0
 13 11  1  0
 13 14  1  0
 15 14  1  6
 15 16  1  0
 16  8  1  0
 17 19  1  0
 17 15  1  0
 18 17  2  0
 20 28  1  0
 20 19  1  0
 20 21  1  1
 22 21  1  0
 22 23  2  0
 24 23  1  0
 25 24  2  0
 26 27  2  0
 26 25  1  0
 27 22  1  0
 28 29  1  0
 30 28  2  0
M  END
$$$$
