QQF.pdb
     RDKit          3D

 30 30  0  0  1  0  0  0  0  0999 V2000
   42.1608  -13.3434   -9.8042 N   0  0  0  0  0  0  0  0  0  0  0  0
   43.4296  -12.9833  -10.3065 C   0  0  0  0  0  0  0  0  0  0  0  0
   43.8272  -13.4665  -11.3879 O   0  0  0  0  0  0  0  0  0  0  0  0
   44.2644  -12.0400   -9.5360 C   0  0  0  0  0  0  0  0  0  0  0  0
   43.5135  -11.5472   -8.3391 C   0  0  0  0  0  0  0  0  0  0  0  0
   44.3074  -10.5461   -7.5424 C   0  0  2  0  0  0  0  0  0  0  0  0
   45.2469  -11.3086   -6.7044 N   0  0  0  0  0  0  0  0  0  0  0  0
   43.4007   -9.7335   -6.7146 C   0  0  0  0  0  0  0  0  0  0  0  0
   43.2208  -10.1024   -5.5118 O   0  0  0  0  0  0  0  0  0  0  0  0
   43.9591   -4.9994   -4.1610 N   0  0  0  0  0  0  0  0  0  0  0  0
   44.1045   -4.9528   -5.5539 C   0  0  0  0  0  0  0  0  0  0  0  0
   44.7829   -4.0601   -6.0915 O   0  0  0  0  0  0  0  0  0  0  0  0
   43.4478   -5.9738   -6.4054 C   0  0  0  0  0  0  0  0  0  0  0  0
   42.6136   -6.9201   -5.5687 C   0  0  0  0  0  0  0  0  0  0  0  0
   41.8186   -7.8871   -6.3741 C   0  0  2  0  0  0  0  0  0  0  0  0
   42.7544   -8.5978   -7.2295 N   0  0  0  0  0  0  0  0  0  0  0  0
   40.7209   -7.2712   -7.1873 C   0  0  0  0  0  0  0  0  0  0  0  0
   40.9552   -7.0003   -8.4059 O   0  0  0  0  0  0  0  0  0  0  0  0
   39.4646   -6.9836   -6.6681 N   0  0  0  0  0  0  0  0  0  0  0  0
   38.3356   -6.3953   -7.3305 C   0  0  1  0  0  0  0  0  0  0  0  0
   37.0122   -7.1032   -7.0506 C   0  0  0  0  0  0  0  0  0  0  0  0
   37.2107   -8.5516   -7.3161 C   0  0  0  0  0  0  0  0  0  0  0  0
   37.3256   -9.5113   -6.3373 C   0  0  0  0  0  0  0  0  0  0  0  0
   37.4866  -10.8440   -6.6190 C   0  0  0  0  0  0  0  0  0  0  0  0
   37.5437  -11.2845   -7.9339 C   0  0  0  0  0  0  0  0  0  0  0  0
   37.4323  -10.3056   -8.9325 C   0  0  0  0  0  0  0  0  0  0  0  0
   37.2690   -8.9929   -8.6476 C   0  0  0  0  0  0  0  0  0  0  0  0
   38.2984   -4.9424   -7.2599 C   0  0  0  0  0  0  0  0  0  0  0  0
   39.0892   -4.1638   -6.4731 O   0  0  0  0  0  0  0  0  0  0  0  0
   37.4226   -4.3472   -8.0196 O   0  0  0  0  0  0  0  0  0  0  0  0
  1  2  1  0
  2  4  1  0
  2  3  2  0
  4  5  1  0
  6  7  1  1
  6  5  1  0
  8  6  1  0
  9  8  2  0
 10 11  1  0
 11 12  2  0
 13 11  1  0
 13 14  1  0
 15 14  1  6
 15 16  1  0
 16  8  1  0
 17 19  1  0
 17 15  1  0
 18 17  2  0
 20 28  1  0
 20 19  1  0
 20 21  1  1
 22 21  1  0
 22 23  2  0
 24 23  1  0
 25 24  2  0
 26 27  2  0
 26 25  1  0
 27 22  1  0
 28 29  1  0
 30 28  2  0
M  END
$$$$
