QQF.pdb
     RDKit          3D

 30 30  0  0  1  0  0  0  0  0999 V2000
   27.3123  -28.0121  -18.4610 N   0  0  0  0  0  0  0  0  0  0  0  0
   26.2011  -28.1606  -17.6036 C   0  0  0  0  0  0  0  0  0  0  0  0
   26.2416  -28.9980  -16.6772 O   0  0  0  0  0  0  0  0  0  0  0  0
   25.0077  -27.3196  -17.8244 C   0  0  0  0  0  0  0  0  0  0  0  0
   24.7453  -26.4719  -16.6195 C   0  0  0  0  0  0  0  0  0  0  0  0
   25.0569  -25.0197  -16.8671 C   0  0  2  0  0  0  0  0  0  0  0  0
   26.4945  -24.8365  -16.6097 N   0  0  0  0  0  0  0  0  0  0  0  0
   24.2481  -24.1750  -15.9729 C   0  0  0  0  0  0  0  0  0  0  0  0
   24.7612  -23.8479  -14.8572 O   0  0  0  0  0  0  0  0  0  0  0  0
   20.9627  -20.3054  -13.9696 N   0  0  0  0  0  0  0  0  0  0  0  0
   22.1917  -19.8067  -14.4219 C   0  0  0  0  0  0  0  0  0  0  0  0
   22.7260  -18.8332  -13.8623 O   0  0  0  0  0  0  0  0  0  0  0  0
   22.8713  -20.4389  -15.5782 C   0  0  0  0  0  0  0  0  0  0  0  0
   22.0432  -21.5766  -16.1361 C   0  0  0  0  0  0  0  0  0  0  0  0
   22.2441  -22.8675  -15.4226 C   0  0  2  0  0  0  0  0  0  0  0  0
   22.9588  -23.7483  -16.3314 N   0  0  0  0  0  0  0  0  0  0  0  0
   20.9841  -23.5173  -14.9372 C   0  0  0  0  0  0  0  0  0  0  0  0
   20.2904  -24.1801  -15.7695 O   0  0  0  0  0  0  0  0  0  0  0  0
   20.5430  -23.4252  -13.6228 N   0  0  0  0  0  0  0  0  0  0  0  0
   19.3458  -23.9613  -13.0408 C   0  0  1  0  0  0  0  0  0  0  0  0
   19.5011  -24.3911  -11.5841 C   0  0  0  0  0  0  0  0  0  0  0  0
   18.2160  -25.0006  -11.1543 C   0  0  0  0  0  0  0  0  0  0  0  0
   17.1537  -24.2920  -10.6429 C   0  0  0  0  0  0  0  0  0  0  0  0
   15.9727  -24.8852  -10.2759 C   0  0  0  0  0  0  0  0  0  0  0  0
   15.8022  -26.2564  -10.4075 C   0  0  0  0  0  0  0  0  0  0  0  0
   16.8871  -26.9804  -10.9235 C   0  0  0  0  0  0  0  0  0  0  0  0
   18.0480  -26.3880  -11.2880 C   0  0  0  0  0  0  0  0  0  0  0  0
   18.1454  -23.1977  -13.3462 C   0  0  0  0  0  0  0  0  0  0  0  0
   17.9242  -21.8971  -13.0145 O   0  0  0  0  0  0  0  0  0  0  0  0
   17.2052  -23.8289  -13.9913 O   0  0  0  0  0  0  0  0  0  0  0  0
  1  2  1  0
  2  4  1  0
  2  3  2  0
  4  5  1  0
  6  7  1  1
  6  5  1  0
  8  6  1  0
  9  8  2  0
 10 11  1  0
 11 12  2  0
 13 11  1  0
 13 14  1  0
 15 14  1  6
 15 16  1  0
 16  8  1  0
 17 19  1  0
 17 15  1  0
 18 17  2  0
 20 28  1  0
 20 19  1  0
 20 21  1  1
 22 21  1  0
 22 23  2  0
 24 23  1  0
 25 24  2  0
 26 27  2  0
 26 25  1  0
 27 22  1  0
 28 29  1  0
 30 28  2  0
M  END
$$$$
