QQF.pdb
     RDKit          3D

 30 30  0  0  1  0  0  0  0  0999 V2000
   28.4910  -23.2688  -16.8648 N   0  0  0  0  0  0  0  0  0  0  0  0
   29.6334  -22.9377  -17.6244 C   0  0  0  0  0  0  0  0  0  0  0  0
   30.5931  -23.7359  -17.6789 O   0  0  0  0  0  0  0  0  0  0  0  0
   29.6696  -21.6463  -18.3394 C   0  0  0  0  0  0  0  0  0  0  0  0
   28.4167  -20.8736  -18.0704 C   0  0  0  0  0  0  0  0  0  0  0  0
   27.3645  -21.1131  -19.1204 C   0  0  2  0  0  0  0  0  0  0  0  0
   27.7507  -20.3300  -20.3053 N   0  0  0  0  0  0  0  0  0  0  0  0
   26.0478  -20.6914  -18.6145 C   0  0  0  0  0  0  0  0  0  0  0  0
   25.8904  -19.4572  -18.3550 O   0  0  0  0  0  0  0  0  0  0  0  0
   21.7048  -18.5916  -19.9587 N   0  0  0  0  0  0  0  0  0  0  0  0
   21.4101  -19.8559  -19.4314 C   0  0  0  0  0  0  0  0  0  0  0  0
   20.3848  -20.0363  -18.7512 O   0  0  0  0  0  0  0  0  0  0  0  0
   22.3224  -20.9977  -19.6813 C   0  0  0  0  0  0  0  0  0  0  0  0
   22.6432  -21.7254  -18.3933 C   0  0  0  0  0  0  0  0  0  0  0  0
   23.8310  -21.1816  -17.6798 C   0  0  2  0  0  0  0  0  0  0  0  0
   25.0052  -21.6122  -18.4203 N   0  0  0  0  0  0  0  0  0  0  0  0
   23.9357  -21.5849  -16.2404 C   0  0  0  0  0  0  0  0  0  0  0  0
   24.4786  -22.7001  -15.9666 O   0  0  0  0  0  0  0  0  0  0  0  0
   23.4654  -20.7964  -15.1974 N   0  0  0  0  0  0  0  0  0  0  0  0
   23.6233  -20.9936  -13.7847 C   0  0  1  0  0  0  0  0  0  0  0  0
   24.5642  -19.9928  -13.1186 C   0  0  0  0  0  0  0  0  0  0  0  0
   24.7211  -20.3981  -11.6978 C   0  0  0  0  0  0  0  0  0  0  0  0
   23.7935  -20.1493  -10.7129 C   0  0  0  0  0  0  0  0  0  0  0  0
   23.9613  -20.5573   -9.4142 C   0  0  0  0  0  0  0  0  0  0  0  0
   25.1022  -21.2510   -9.0353 C   0  0  0  0  0  0  0  0  0  0  0  0
   26.0511  -21.5000  -10.0379 C   0  0  0  0  0  0  0  0  0  0  0  0
   25.8770  -21.0986  -11.3184 C   0  0  0  0  0  0  0  0  0  0  0  0
   22.3765  -21.2495  -13.0795 C   0  0  0  0  0  0  0  0  0  0  0  0
   22.1109  -22.3334  -12.3014 O   0  0  0  0  0  0  0  0  0  0  0  0
   21.4383  -20.3557  -13.2173 O   0  0  0  0  0  0  0  0  0  0  0  0
  1  2  1  0
  2  4  1  0
  2  3  2  0
  4  5  1  0
  6  7  1  6
  6  5  1  0
  8  6  1  0
  9  8  2  0
 10 11  1  0
 11 12  2  0
 13 11  1  0
 13 14  1  0
 15 14  1  6
 15 16  1  0
 16  8  1  0
 17 19  1  0
 17 15  1  0
 18 17  2  0
 20 28  1  0
 20 19  1  0
 20 21  1  1
 22 21  1  0
 22 23  2  0
 24 23  1  0
 25 24  2  0
 26 27  2  0
 26 25  1  0
 27 22  1  0
 28 29  1  0
 30 28  2  0
M  END
$$$$
