QQF.pdb
     RDKit          3D

 30 30  0  0  1  0  0  0  0  0999 V2000
   13.3261  -12.7878  -15.9088 N   0  0  0  0  0  0  0  0  0  0  0  0
   13.8308  -13.0211  -14.6117 C   0  0  0  0  0  0  0  0  0  0  0  0
   13.0388  -13.2070  -13.6635 O   0  0  0  0  0  0  0  0  0  0  0  0
   15.2925  -13.0372  -14.4032 C   0  0  0  0  0  0  0  0  0  0  0  0
   15.9950  -12.5937  -15.6479 C   0  0  0  0  0  0  0  0  0  0  0  0
   17.0204  -13.5950  -16.1096 C   0  0  2  0  0  0  0  0  0  0  0  0
   17.0853  -14.6501  -15.0855 N   0  0  0  0  0  0  0  0  0  0  0  0
   18.3264  -12.9350  -16.2718 C   0  0  0  0  0  0  0  0  0  0  0  0
   19.0421  -12.7941  -15.2311 O   0  0  0  0  0  0  0  0  0  0  0  0
   21.3953  -12.2837  -21.6201 N   0  0  0  0  0  0  0  0  0  0  0  0
   22.2525  -11.5971  -20.7499 C   0  0  0  0  0  0  0  0  0  0  0  0
   23.3324  -11.1345  -21.1573 O   0  0  0  0  0  0  0  0  0  0  0  0
   21.8779  -11.4138  -19.3271 C   0  0  0  0  0  0  0  0  0  0  0  0
   20.5303  -12.0398  -19.0379 C   0  0  0  0  0  0  0  0  0  0  0  0
   20.0996  -11.9020  -17.6197 C   0  0  2  0  0  0  0  0  0  0  0  0
   18.7668  -12.4735  -17.5231 N   0  0  0  0  0  0  0  0  0  0  0  0
   20.1131  -10.4986  -17.0947 C   0  0  0  0  0  0  0  0  0  0  0  0
   19.0735   -9.7867  -17.2554 O   0  0  0  0  0  0  0  0  0  0  0  0
   21.2088   -9.9444  -16.4442 N   0  0  0  0  0  0  0  0  0  0  0  0
   21.3608   -8.6177  -15.9186 C   0  0  1  0  0  0  0  0  0  0  0  0
   22.5435   -8.4580  -14.9665 C   0  0  0  0  0  0  0  0  0  0  0  0
   22.5465   -7.0530  -14.4829 C   0  0  0  0  0  0  0  0  0  0  0  0
   23.1525   -6.0074  -15.1400 C   0  0  0  0  0  0  0  0  0  0  0  0
   23.1170   -4.7175  -14.6751 C   0  0  0  0  0  0  0  0  0  0  0  0
   22.4546   -4.4119  -13.4943 C   0  0  0  0  0  0  0  0  0  0  0  0
   21.8413   -5.4786  -12.8209 C   0  0  0  0  0  0  0  0  0  0  0  0
   21.8762   -6.7483  -13.2876 C   0  0  0  0  0  0  0  0  0  0  0  0
   21.2072   -7.5658  -16.9121 C   0  0  0  0  0  0  0  0  0  0  0  0
   20.4223   -6.4618  -16.7866 O   0  0  0  0  0  0  0  0  0  0  0  0
   21.8835   -7.7083  -18.0169 O   0  0  0  0  0  0  0  0  0  0  0  0
  1  2  1  0
  2  4  1  0
  2  3  2  0
  4  5  1  0
  6  7  1  1
  6  5  1  0
  8  6  1  0
  9  8  2  0
 10 11  1  0
 11 12  2  0
 13 11  1  0
 13 14  1  0
 15 14  1  6
 15 16  1  0
 16  8  1  0
 17 19  1  0
 17 15  1  0
 18 17  2  0
 20 28  1  0
 20 19  1  0
 20 21  1  6
 22 21  1  0
 22 23  2  0
 24 23  1  0
 25 24  2  0
 26 27  2  0
 26 25  1  0
 27 22  1  0
 28 29  1  0
 30 28  2  0
M  END
$$$$
