QQF.pdb
     RDKit          3D

 30 30  0  0  1  0  0  0  0  0999 V2000
   28.7722  -22.7209  -15.6924 N   0  0  0  0  0  0  0  0  0  0  0  0
   28.7090  -21.7234  -16.6887 C   0  0  0  0  0  0  0  0  0  0  0  0
   29.3321  -21.8788  -17.7605 O   0  0  0  0  0  0  0  0  0  0  0  0
   27.9051  -20.5103  -16.4390 C   0  0  0  0  0  0  0  0  0  0  0  0
   26.5369  -20.8879  -15.9648 C   0  0  0  0  0  0  0  0  0  0  0  0
   25.7529  -21.6237  -17.0189 C   0  0  2  0  0  0  0  0  0  0  0  0
   25.4485  -20.6558  -18.0851 N   0  0  0  0  0  0  0  0  0  0  0  0
   24.5178  -22.1704  -16.4331 C   0  0  0  0  0  0  0  0  0  0  0  0
   23.4473  -21.5072  -16.6048 O   0  0  0  0  0  0  0  0  0  0  0  0
   22.4720  -27.3260  -16.5866 N   0  0  0  0  0  0  0  0  0  0  0  0
   21.6997  -27.0438  -15.4520 C   0  0  0  0  0  0  0  0  0  0  0  0
   20.6393  -27.6569  -15.2378 O   0  0  0  0  0  0  0  0  0  0  0  0
   22.1423  -26.0062  -14.4897 C   0  0  0  0  0  0  0  0  0  0  0  0
   23.4065  -25.3268  -14.9707 C   0  0  0  0  0  0  0  0  0  0  0  0
   23.2554  -23.8603  -15.1765 C   0  0  2  0  0  0  0  0  0  0  0  0
   24.5173  -23.3738  -15.7089 N   0  0  0  0  0  0  0  0  0  0  0  0
   22.8674  -23.0925  -13.9496 C   0  0  0  0  0  0  0  0  0  0  0  0
   23.2587  -23.5248  -12.8212 O   0  0  0  0  0  0  0  0  0  0  0  0
   22.1004  -21.9347  -13.9925 N   0  0  0  0  0  0  0  0  0  0  0  0
   21.5660  -21.1740  -12.8992 C   0  0  1  0  0  0  0  0  0  0  0  0
   22.4495  -20.0081  -12.4625 C   0  0  0  0  0  0  0  0  0  0  0  0
   23.5188  -20.5554  -11.5879 C   0  0  0  0  0  0  0  0  0  0  0  0
   23.3468  -20.8797  -10.2622 C   0  0  0  0  0  0  0  0  0  0  0  0
   24.3514  -21.4038   -9.4893 C   0  0  0  0  0  0  0  0  0  0  0  0
   25.6104  -21.6296  -10.0282 C   0  0  0  0  0  0  0  0  0  0  0  0
   25.7880  -21.2939  -11.3785 C   0  0  0  0  0  0  0  0  0  0  0  0
   24.7911  -20.7814  -12.1367 C   0  0  0  0  0  0  0  0  0  0  0  0
   20.1472  -20.8756  -13.0228 C   0  0  0  0  0  0  0  0  0  0  0  0
   19.3342  -20.4474  -12.0197 O   0  0  0  0  0  0  0  0  0  0  0  0
   19.6205  -21.0413  -14.2032 O   0  0  0  0  0  0  0  0  0  0  0  0
  1  2  1  0
  2  4  1  0
  2  3  2  0
  4  5  1  0
  6  7  1  6
  6  5  1  0
  8  6  1  0
  9  8  2  0
 10 11  1  0
 11 12  2  0
 13 11  1  0
 13 14  1  0
 15 14  1  1
 15 16  1  0
 16  8  1  0
 17 19  1  0
 17 15  1  0
 18 17  2  0
 20 28  1  0
 20 19  1  0
 20 21  1  6
 22 21  1  0
 22 23  2  0
 24 23  1  0
 25 24  2  0
 26 27  2  0
 26 25  1  0
 27 22  1  0
 28 29  1  0
 30 28  2  0
M  END
$$$$
