QQF.pdb
     RDKit          3D

 30 30  0  0  1  0  0  0  0  0999 V2000
   32.2815  -30.1457  -22.2400 N   0  0  0  0  0  0  0  0  0  0  0  0
   31.8047  -29.7054  -20.9869 C   0  0  0  0  0  0  0  0  0  0  0  0
   31.1383  -28.6510  -20.9139 O   0  0  0  0  0  0  0  0  0  0  0  0
   32.1086  -30.5043  -19.7829 C   0  0  0  0  0  0  0  0  0  0  0  0
   32.3159  -29.6035  -18.6061 C   0  0  0  0  0  0  0  0  0  0  0  0
   33.6854  -28.9776  -18.6034 C   0  0  2  0  0  0  0  0  0  0  0  0
   34.6178  -29.9812  -18.0652 N   0  0  0  0  0  0  0  0  0  0  0  0
   33.6786  -27.7628  -17.7718 C   0  0  0  0  0  0  0  0  0  0  0  0
   34.0300  -27.8857  -16.5566 O   0  0  0  0  0  0  0  0  0  0  0  0
   36.3150  -22.8952  -19.5315 N   0  0  0  0  0  0  0  0  0  0  0  0
   35.9293  -22.4680  -18.2539 C   0  0  0  0  0  0  0  0  0  0  0  0
   36.4317  -21.4497  -17.7469 O   0  0  0  0  0  0  0  0  0  0  0  0
   34.9120  -23.2297  -17.4900 C   0  0  0  0  0  0  0  0  0  0  0  0
   34.5165  -24.4919  -18.2259 C   0  0  0  0  0  0  0  0  0  0  0  0
   33.5296  -25.3284  -17.4897 C   0  0  2  0  0  0  0  0  0  0  0  0
   33.2959  -26.5163  -18.2938 N   0  0  0  0  0  0  0  0  0  0  0  0
   32.2366  -24.6397  -17.1745 C   0  0  0  0  0  0  0  0  0  0  0  0
   31.4888  -24.2936  -18.1411 O   0  0  0  0  0  0  0  0  0  0  0  0
   31.8230  -24.3632  -15.8771 N   0  0  0  0  0  0  0  0  0  0  0  0
   31.0456  -23.2542  -15.4027 C   0  0  1  0  0  0  0  0  0  0  0  0
   31.8802  -22.0621  -14.9411 C   0  0  0  0  0  0  0  0  0  0  0  0
   32.1201  -22.2172  -13.4829 C   0  0  0  0  0  0  0  0  0  0  0  0
   33.2033  -22.8680  -12.9396 C   0  0  0  0  0  0  0  0  0  0  0  0
   33.4047  -22.9737  -11.5869 C   0  0  0  0  0  0  0  0  0  0  0  0
   32.4996  -22.4167  -10.6941 C   0  0  0  0  0  0  0  0  0  0  0  0
   31.3918  -21.7579  -11.2475 C   0  0  0  0  0  0  0  0  0  0  0  0
   31.2017  -21.6533  -12.5832 C   0  0  0  0  0  0  0  0  0  0  0  0
   29.8999  -22.9326  -16.2401 C   0  0  0  0  0  0  0  0  0  0  0  0
   28.5941  -23.0187  -15.8685 O   0  0  0  0  0  0  0  0  0  0  0  0
   30.1618  -22.5321  -17.4522 O   0  0  0  0  0  0  0  0  0  0  0  0
  1  2  1  0
  2  4  1  0
  2  3  2  0
  4  5  1  0
  6  7  1  1
  6  5  1  0
  8  6  1  0
  9  8  2  0
 10 11  1  0
 11 12  2  0
 13 11  1  0
 13 14  1  0
 15 14  1  6
 15 16  1  0
 16  8  1  0
 17 19  1  0
 17 15  1  0
 18 17  2  0
 20 28  1  0
 20 19  1  0
 20 21  1  6
 22 21  1  0
 22 23  2  0
 24 23  1  0
 25 24  2  0
 26 27  2  0
 26 25  1  0
 27 22  1  0
 28 29  1  0
 30 28  2  0
M  END
$$$$
