QQF.pdb
     RDKit          3D

 30 30  0  0  1  0  0  0  0  0999 V2000
   28.7190  -21.6888  -16.6666 N   0  0  0  0  0  0  0  0  0  0  0  0
   28.9906  -20.3041  -16.6910 C   0  0  0  0  0  0  0  0  0  0  0  0
   29.5342  -19.7975  -17.6954 O   0  0  0  0  0  0  0  0  0  0  0  0
   28.6263  -19.4812  -15.5203 C   0  0  0  0  0  0  0  0  0  0  0  0
   28.1285  -20.3547  -14.4119 C   0  0  0  0  0  0  0  0  0  0  0  0
   26.6276  -20.3254  -14.2953 C   0  0  2  0  0  0  0  0  0  0  0  0
   26.1340  -19.3793  -15.3090 N   0  0  0  0  0  0  0  0  0  0  0  0
   26.2393  -19.8987  -12.9408 C   0  0  0  0  0  0  0  0  0  0  0  0
   26.8064  -18.8633  -12.4702 O   0  0  0  0  0  0  0  0  0  0  0  0
   20.8809  -20.6279  -10.2228 N   0  0  0  0  0  0  0  0  0  0  0  0
   21.2858  -20.1784  -11.4867 C   0  0  0  0  0  0  0  0  0  0  0  0
   20.4477  -19.9406  -12.3740 O   0  0  0  0  0  0  0  0  0  0  0  0
   22.7257  -19.9799  -11.7800 C   0  0  0  0  0  0  0  0  0  0  0  0
   23.5760  -20.3364  -10.5795 C   0  0  0  0  0  0  0  0  0  0  0  0
   25.0382  -20.1956  -10.8201 C   0  0  2  0  0  0  0  0  0  0  0  0
   25.2844  -20.6063  -12.1924 N   0  0  0  0  0  0  0  0  0  0  0  0
   25.9058  -20.9672   -9.8729 C   0  0  0  0  0  0  0  0  0  0  0  0
   26.1864  -22.1722  -10.1606 O   0  0  0  0  0  0  0  0  0  0  0  0
   26.4130  -20.4249   -8.6984 N   0  0  0  0  0  0  0  0  0  0  0  0
   26.9951  -21.1051   -7.5767 C   0  0  1  0  0  0  0  0  0  0  0  0
   28.4853  -20.8318   -7.3889 C   0  0  0  0  0  0  0  0  0  0  0  0
   28.6515  -20.1006   -6.1062 C   0  0  0  0  0  0  0  0  0  0  0  0
   28.9977  -20.6935   -4.9142 C   0  0  0  0  0  0  0  0  0  0  0  0
   29.1638  -19.9839   -3.7522 C   0  0  0  0  0  0  0  0  0  0  0  0
   28.9818  -18.6081   -3.7346 C   0  0  0  0  0  0  0  0  0  0  0  0
   28.6232  -18.0036   -4.9485 C   0  0  0  0  0  0  0  0  0  0  0  0
   28.4654  -18.7091   -6.0924 C   0  0  0  0  0  0  0  0  0  0  0  0
   26.1886  -21.0499   -6.3668 C   0  0  0  0  0  0  0  0  0  0  0  0
   25.1862  -20.1643   -6.1189 O   0  0  0  0  0  0  0  0  0  0  0  0
   26.4642  -21.9295   -5.4456 O   0  0  0  0  0  0  0  0  0  0  0  0
  1  2  1  0
  2  4  1  0
  2  3  2  0
  4  5  1  0
  6  7  1  6
  6  5  1  0
  8  6  1  0
  9  8  2  0
 10 11  1  0
 11 12  2  0
 13 11  1  0
 13 14  1  0
 15 14  1  1
 15 16  1  0
 16  8  1  0
 17 19  1  0
 17 15  1  0
 18 17  2  0
 20 28  1  0
 20 19  1  0
 20 21  1  1
 22 21  1  0
 22 23  2  0
 24 23  1  0
 25 24  2  0
 26 27  2  0
 26 25  1  0
 27 22  1  0
 28 29  1  0
 30 28  2  0
M  END
$$$$
