QQF.pdb
     RDKit          3D

 30 30  0  0  1  0  0  0  0  0999 V2000
   25.4803  -19.6491  -19.7829 N   0  0  0  0  0  0  0  0  0  0  0  0
   24.9331  -18.6914  -18.9025 C   0  0  0  0  0  0  0  0  0  0  0  0
   25.6776  -17.8361  -18.3780 O   0  0  0  0  0  0  0  0  0  0  0  0
   23.4847  -18.7243  -18.6176 C   0  0  0  0  0  0  0  0  0  0  0  0
   23.2525  -18.9357  -17.1545 C   0  0  0  0  0  0  0  0  0  0  0  0
   24.4792  -19.4565  -16.4536 C   0  0  2  0  0  0  0  0  0  0  0  0
   24.9735  -20.5985  -17.2395 N   0  0  0  0  0  0  0  0  0  0  0  0
   24.1352  -19.8679  -15.0825 C   0  0  0  0  0  0  0  0  0  0  0  0
   23.4685  -19.0475  -14.3771 O   0  0  0  0  0  0  0  0  0  0  0  0
   24.2700  -25.3416  -14.3708 N   0  0  0  0  0  0  0  0  0  0  0  0
   23.4007  -24.5789  -15.1620 C   0  0  0  0  0  0  0  0  0  0  0  0
   22.9829  -25.0165  -16.2484 O   0  0  0  0  0  0  0  0  0  0  0  0
   22.9673  -23.2353  -14.7087 C   0  0  0  0  0  0  0  0  0  0  0  0
   23.5638  -22.9020  -13.3580 C   0  0  0  0  0  0  0  0  0  0  0  0
   24.0526  -21.5002  -13.2502 C   0  0  2  0  0  0  0  0  0  0  0  0
   24.5291  -21.1140  -14.5679 N   0  0  0  0  0  0  0  0  0  0  0  0
   25.1179  -21.2860  -12.2184 C   0  0  0  0  0  0  0  0  0  0  0  0
   26.3225  -21.1889  -12.6094 O   0  0  0  0  0  0  0  0  0  0  0  0
   24.8466  -21.1912  -10.8589 N   0  0  0  0  0  0  0  0  0  0  0  0
   25.7590  -20.9430   -9.7793 C   0  0  1  0  0  0  0  0  0  0  0  0
   26.6783  -19.7453  -10.0051 C   0  0  0  0  0  0  0  0  0  0  0  0
   27.4946  -19.5655   -8.7767 C   0  0  0  0  0  0  0  0  0  0  0  0
   28.6881  -20.2063   -8.5374 C   0  0  0  0  0  0  0  0  0  0  0  0
   29.4271  -20.0000   -7.4004 C   0  0  0  0  0  0  0  0  0  0  0  0
   28.9863  -19.1176   -6.4239 C   0  0  0  0  0  0  0  0  0  0  0  0
   27.7666  -18.4681   -6.6648 C   0  0  0  0  0  0  0  0  0  0  0  0
   27.0448  -18.6728   -7.7909 C   0  0  0  0  0  0  0  0  0  0  0  0
   25.1525  -21.0298   -8.4595 C   0  0  0  0  0  0  0  0  0  0  0  0
   23.9167  -20.5731   -8.1205 O   0  0  0  0  0  0  0  0  0  0  0  0
   25.8689  -21.5934   -7.5281 O   0  0  0  0  0  0  0  0  0  0  0  0
  1  2  1  0
  2  4  1  0
  2  3  2  0
  4  5  1  0
  6  7  1  6
  6  5  1  0
  8  6  1  0
  9  8  2  0
 10 11  1  0
 11 12  2  0
 13 11  1  0
 13 14  1  0
 15 14  1  6
 15 16  1  0
 16  8  1  0
 17 19  1  0
 17 15  1  0
 18 17  2  0
 20 28  1  0
 20 19  1  0
 20 21  1  6
 22 21  1  0
 22 23  2  0
 24 23  1  0
 25 24  2  0
 26 27  2  0
 26 25  1  0
 27 22  1  0
 28 29  1  0
 30 28  2  0
M  END
$$$$
