QQF.pdb
     RDKit          3D

 30 30  0  0  1  0  0  0  0  0999 V2000
   21.7043  -23.1219  -13.2056 N   0  0  0  0  0  0  0  0  0  0  0  0
   20.3071  -23.1455  -13.0087 C   0  0  0  0  0  0  0  0  0  0  0  0
   19.7696  -24.1561  -12.5077 O   0  0  0  0  0  0  0  0  0  0  0  0
   19.5071  -21.9692  -13.4043 C   0  0  0  0  0  0  0  0  0  0  0  0
   20.4087  -20.8518  -13.8261 C   0  0  0  0  0  0  0  0  0  0  0  0
   20.1439  -20.4108  -15.2412 C   0  0  2  0  0  0  0  0  0  0  0  0
   19.4618  -21.5244  -15.9201 N   0  0  0  0  0  0  0  0  0  0  0  0
   21.4144  -20.0833  -15.9091 C   0  0  0  0  0  0  0  0  0  0  0  0
   21.9096  -20.9610  -16.6834 O   0  0  0  0  0  0  0  0  0  0  0  0
   22.1902  -15.6369  -14.9879 N   0  0  0  0  0  0  0  0  0  0  0  0
   21.2726  -15.8759  -16.0196 C   0  0  0  0  0  0  0  0  0  0  0  0
   20.1474  -15.3467  -16.0031 O   0  0  0  0  0  0  0  0  0  0  0  0
   21.6365  -16.7665  -17.1479 C   0  0  0  0  0  0  0  0  0  0  0  0
   23.0827  -17.2021  -17.0480 C   0  0  0  0  0  0  0  0  0  0  0  0
   23.2585  -18.5617  -16.4680 C   0  0  2  0  0  0  0  0  0  0  0  0
   22.0600  -18.8537  -15.6993 N   0  0  0  0  0  0  0  0  0  0  0  0
   24.4837  -18.7277  -15.6215 C   0  0  0  0  0  0  0  0  0  0  0  0
   25.0015  -17.6901  -15.1033 O   0  0  0  0  0  0  0  0  0  0  0  0
   25.0762  -19.9615  -15.3814 N   0  0  0  0  0  0  0  0  0  0  0  0
   26.2453  -20.2567  -14.6033 C   0  0  1  0  0  0  0  0  0  0  0  0
   26.1373  -19.8436  -13.1376 C   0  0  0  0  0  0  0  0  0  0  0  0
   27.3627  -20.3180  -12.4439 C   0  0  0  0  0  0  0  0  0  0  0  0
   28.6360  -19.8879  -12.7368 C   0  0  0  0  0  0  0  0  0  0  0  0
   29.7439  -20.3315  -12.0607 C   0  0  0  0  0  0  0  0  0  0  0  0
   29.6189  -21.2554  -11.0326 C   0  0  0  0  0  0  0  0  0  0  0  0
   28.3213  -21.6987  -10.7371 C   0  0  0  0  0  0  0  0  0  0  0  0
   27.2320  -21.2534  -11.4051 C   0  0  0  0  0  0  0  0  0  0  0  0
   26.7980  -21.5811  -14.8439 C   0  0  0  0  0  0  0  0  0  0  0  0
   28.1061  -21.8650  -15.0865 O   0  0  0  0  0  0  0  0  0  0  0  0
   25.9537  -22.5736  -14.8269 O   0  0  0  0  0  0  0  0  0  0  0  0
  1  2  1  0
  2  4  1  0
  2  3  2  0
  4  5  1  0
  6  7  1  6
  6  5  1  0
  8  6  1  0
  9  8  2  0
 10 11  1  0
 11 12  2  0
 13 11  1  0
 13 14  1  0
 15 14  1  1
 15 16  1  0
 16  8  1  0
 17 19  1  0
 17 15  1  0
 18 17  2  0
 20 28  1  0
 20 19  1  0
 20 21  1  1
 22 21  1  0
 22 23  2  0
 24 23  1  0
 25 24  2  0
 26 27  2  0
 26 25  1  0
 27 22  1  0
 28 29  1  0
 30 28  2  0
M  END
$$$$
