RPP.pdb
     RDKit          3D

 26 27  0  0  1  0  0  0  0  0999 V2000
   19.8127  -20.8863  -15.4404 N   0  0  0  0  0  0  0  0  0  0  0  0
   19.9170  -19.5524  -14.9763 C   0  0  0  0  0  0  0  0  0  0  0  0
   19.8477  -19.2415  -13.7267 N   0  0  0  0  0  0  0  0  0  0  0  0
   20.1094  -18.4848  -15.9331 N   0  0  0  0  0  0  0  0  0  0  0  0
   20.0534  -18.7667  -17.3438 C   0  0  0  0  0  0  0  0  0  0  0  0
   21.2969  -18.2412  -18.0018 C   0  0  0  0  0  0  0  0  0  0  0  0
   22.4069  -18.0422  -17.0376 C   0  0  0  0  0  0  0  0  0  0  0  0
   23.7454  -18.3292  -17.6368 C   0  0  2  0  0  0  0  0  0  0  0  0
   23.5670  -19.1695  -18.8125 N   0  0  0  0  0  0  0  0  0  0  0  0
   24.6094  -18.9845  -16.6309 C   0  0  0  0  0  0  0  0  0  0  0  0
   24.6934  -20.2495  -16.6412 O   0  0  0  0  0  0  0  0  0  0  0  0
   19.9405  -18.2516  -13.4422 N   0  0  0  0  0  0  0  0  0  0  0  0
   25.3226  -18.2013  -15.6981 C   0  0  0  0  0  0  0  0  0  0  0  0
   25.3552  -16.7330  -15.6123 C   0  0  0  0  0  0  0  0  0  0  0  0
   26.8778  -16.5815  -15.4167 C   0  0  0  0  0  0  0  0  0  0  0  0
   27.1357  -17.5882  -14.3372 C   0  0  2  0  0  0  0  0  0  0  0  0
   26.1970  -18.7324  -14.6888 C   0  0  0  0  0  0  0  0  0  0  0  0
   25.5821  -19.3275  -13.5284 O   0  0  0  0  0  0  0  0  0  0  0  0
   24.3061  -19.0293  -13.4297 N   0  0  0  0  0  0  0  0  0  0  0  0
   26.0782  -20.1486  -12.5115 C   0  0  0  0  0  0  0  0  0  0  0  0
   27.5067  -20.4603  -12.3130 C   0  0  0  0  0  0  0  0  0  0  0  0
   27.4878  -21.9581  -12.0340 C   0  0  0  0  0  0  0  0  0  0  0  0
   26.2782  -22.0895  -11.1420 C   0  0  1  0  0  0  0  0  0  0  0  0
   25.4343  -20.8395  -11.4281 C   0  0  0  0  0  0  0  0  0  0  0  0
   25.4795  -20.0410  -10.1649 O   0  0  0  0  0  0  0  0  0  0  0  0
   26.3557  -18.9953   -9.9871 O   0  0  0  0  0  0  0  0  0  0  0  0
  2  1  1  0
  3  2  2  0
  4  2  1  0
  5  4  1  0
  6  5  1  0
  6  7  1  0
  7  8  1  0
  8  9  1  6
 10  8  1  0
 11 10  2  0
 12 16  1  0
 12 10  1  0
 13 14  1  0
 13 12  1  0
 14 15  1  0
 15 16  1  0
 17 19  1  0
 16 17  1  1
 18 17  2  0
 19 20  1  0
 20 21  1  0
 22 21  1  0
 23 19  1  0
 23 22  1  0
 24 25  1  0
 23 24  1  1
 26 24  2  0
M  END
$$$$
