RPP.pdb
     RDKit          3D

 26 27  0  0  1  0  0  0  0  0999 V2000
   21.3550  -20.5843   -9.2968 N   0  0  0  0  0  0  0  0  0  0  0  0
   21.2623  -20.9298  -10.6670 C   0  0  0  0  0  0  0  0  0  0  0  0
   20.1484  -21.2531  -11.2308 N   0  0  0  0  0  0  0  0  0  0  0  0
   22.4592  -20.9238  -11.4793 N   0  0  0  0  0  0  0  0  0  0  0  0
   23.4203  -19.8620  -11.3333 C   0  0  0  0  0  0  0  0  0  0  0  0
   24.5089  -20.0382  -12.3528 C   0  0  0  0  0  0  0  0  0  0  0  0
   25.8634  -19.9894  -11.7492 C   0  0  0  0  0  0  0  0  0  0  0  0
   26.4933  -21.3403  -11.6439 C   0  0  2  0  0  0  0  0  0  0  0  0
   25.5235  -22.3475  -12.0506 N   0  0  0  0  0  0  0  0  0  0  0  0
   26.9562  -21.5656  -10.2572 C   0  0  0  0  0  0  0  0  0  0  0  0
   26.1298  -22.0267   -9.4136 O   0  0  0  0  0  0  0  0  0  0  0  0
   20.1410  -21.5146  -12.2313 N   0  0  0  0  0  0  0  0  0  0  0  0
   28.2924  -21.2774   -9.9055 C   0  0  0  0  0  0  0  0  0  0  0  0
   29.3579  -20.7859  -10.7929 C   0  0  0  0  0  0  0  0  0  0  0  0
   30.4724  -21.7347  -10.3058 C   0  0  0  0  0  0  0  0  0  0  0  0
   30.3510  -21.5897   -8.8193 C   0  0  1  0  0  0  0  0  0  0  0  0
   28.8506  -21.4759   -8.5963 C   0  0  0  0  0  0  0  0  0  0  0  0
   28.5083  -20.5132   -7.5790 O   0  0  0  0  0  0  0  0  0  0  0  0
   27.8710  -19.4732   -8.0683 N   0  0  0  0  0  0  0  0  0  0  0  0
   28.7197  -20.4814   -6.1975 C   0  0  0  0  0  0  0  0  0  0  0  0
   29.4994  -21.4861   -5.4493 C   0  0  0  0  0  0  0  0  0  0  0  0
   28.6322  -21.7382   -4.2221 C   0  0  0  0  0  0  0  0  0  0  0  0
   28.1669  -20.3437   -3.8827 C   0  0  1  0  0  0  0  0  0  0  0  0
   28.3276  -19.5426   -5.1822 C   0  0  0  0  0  0  0  0  0  0  0  0
   29.4142  -18.5553   -4.8998 O   0  0  0  0  0  0  0  0  0  0  0  0
   29.2414  -17.4993   -4.0351 O   0  0  0  0  0  0  0  0  0  0  0  0
  2  1  1  0
  3  2  2  0
  4  2  1  0
  5  4  1  0
  6  5  1  0
  6  7  1  0
  7  8  1  0
  8  9  1  1
 10  8  1  0
 11 10  2  0
 12 16  1  0
 12 10  1  0
 13 14  1  0
 13 12  1  0
 14 15  1  0
 15 16  1  0
 17 19  1  0
 16 17  1  6
 18 17  2  0
 19 20  1  0
 20 21  1  0
 22 21  1  0
 23 19  1  0
 23 22  1  0
 24 25  1  0
 23 24  1  6
 26 24  2  0
M  END
$$$$
