RPP.pdb
     RDKit          3D

 26 27  0  0  1  0  0  0  0  0999 V2000
   20.0307  -19.7022  -11.0382 N   0  0  0  0  0  0  0  0  0  0  0  0
   20.3584  -19.7814  -12.4137 C   0  0  0  0  0  0  0  0  0  0  0  0
   19.4659  -19.7780  -13.3445 N   0  0  0  0  0  0  0  0  0  0  0  0
   21.7483  -19.8702  -12.8045 N   0  0  0  0  0  0  0  0  0  0  0  0
   22.7705  -19.9910  -11.7978 C   0  0  0  0  0  0  0  0  0  0  0  0
   24.1170  -20.0155  -12.4624 C   0  0  0  0  0  0  0  0  0  0  0  0
   25.2307  -20.0695  -11.4836 C   0  0  0  0  0  0  0  0  0  0  0  0
   26.0188  -21.3352  -11.5808 C   0  0  2  0  0  0  0  0  0  0  0  0
   25.1251  -22.4213  -11.9577 N   0  0  0  0  0  0  0  0  0  0  0  0
   26.6832  -21.6070  -10.2875 C   0  0  0  0  0  0  0  0  0  0  0  0
   26.0468  -22.2640   -9.4096 O   0  0  0  0  0  0  0  0  0  0  0  0
   19.7621  -19.8211  -14.3344 N   0  0  0  0  0  0  0  0  0  0  0  0
   27.9979  -21.1460  -10.0608 C   0  0  0  0  0  0  0  0  0  0  0  0
   28.8931  -20.5018  -11.0342 C   0  0  0  0  0  0  0  0  0  0  0  0
   30.1674  -21.2984  -10.6863 C   0  0  0  0  0  0  0  0  0  0  0  0
   30.1790  -21.1934   -9.1916 C   0  0  2  0  0  0  0  0  0  0  0  0
   28.7071  -21.2869   -8.8189 C   0  0  0  0  0  0  0  0  0  0  0  0
   28.3446  -20.3946   -7.7460 O   0  0  0  0  0  0  0  0  0  0  0  0
   27.5381  -19.4360   -8.1431 N   0  0  0  0  0  0  0  0  0  0  0  0
   28.6804  -20.3612   -6.3893 C   0  0  0  0  0  0  0  0  0  0  0  0
   29.6593  -21.2610   -5.7497 C   0  0  0  0  0  0  0  0  0  0  0  0
   28.9565  -21.6573   -4.4572 C   0  0  0  0  0  0  0  0  0  0  0  0
   28.3374  -20.3494   -4.0304 C   0  0  1  0  0  0  0  0  0  0  0  0
   28.2610  -19.5076   -5.3117 C   0  0  0  0  0  0  0  0  0  0  0  0
   29.2226  -18.3830   -5.0974 O   0  0  0  0  0  0  0  0  0  0  0  0
   28.9488  -17.3326   -4.2522 O   0  0  0  0  0  0  0  0  0  0  0  0
  2  1  1  0
  3  2  2  0
  4  2  1  0
  5  4  1  0
  6  5  1  0
  6  7  1  0
  7  8  1  0
  8  9  1  1
 10  8  1  0
 11 10  2  0
 12 16  1  0
 12 10  1  0
 13 14  1  0
 13 12  1  0
 14 15  1  0
 15 16  1  0
 17 19  1  0
 16 17  1  6
 18 17  2  0
 19 20  1  0
 20 21  1  0
 22 21  1  0
 23 19  1  0
 23 22  1  0
 24 25  1  0
 23 24  1  6
 26 24  2  0
M  END
$$$$
