RPP.pdb
     RDKit          3D

 26 27  0  0  1  0  0  0  0  0999 V2000
   18.2541  -22.0747  -13.2876 N   0  0  0  0  0  0  0  0  0  0  0  0
   18.3711  -22.6477  -14.5775 C   0  0  0  0  0  0  0  0  0  0  0  0
   17.3872  -23.2304  -15.1735 N   0  0  0  0  0  0  0  0  0  0  0  0
   19.6417  -22.5837  -15.2660 N   0  0  0  0  0  0  0  0  0  0  0  0
   20.7730  -21.9625  -14.6281 C   0  0  0  0  0  0  0  0  0  0  0  0
   21.9421  -21.9804  -15.5705 C   0  0  0  0  0  0  0  0  0  0  0  0
   23.2007  -22.3960  -14.9039 C   0  0  0  0  0  0  0  0  0  0  0  0
   24.3820  -22.3303  -15.8166 C   0  0  2  0  0  0  0  0  0  0  0  0
   24.4513  -23.5620  -16.5902 N   0  0  0  0  0  0  0  0  0  0  0  0
   25.6122  -22.1219  -15.0222 C   0  0  0  0  0  0  0  0  0  0  0  0
   26.2970  -23.1372  -14.6945 O   0  0  0  0  0  0  0  0  0  0  0  0
   17.5303  -23.6383  -16.1129 N   0  0  0  0  0  0  0  0  0  0  0  0
   26.0017  -20.8152  -14.6574 C   0  0  0  0  0  0  0  0  0  0  0  0
   25.4275  -19.5500  -15.1408 C   0  0  0  0  0  0  0  0  0  0  0  0
   26.7593  -18.8144  -15.3953 C   0  0  0  0  0  0  0  0  0  0  0  0
   27.4905  -19.0818  -14.1150 C   0  0  2  0  0  0  0  0  0  0  0  0
   27.0890  -20.5078  -13.7695 C   0  0  0  0  0  0  0  0  0  0  0  0
   26.8638  -20.6985  -12.3582 O   0  0  0  0  0  0  0  0  0  0  0  0
   25.5974  -20.9093  -12.0774 N   0  0  0  0  0  0  0  0  0  0  0  0
   27.7233  -20.7049  -11.2557 C   0  0  0  0  0  0  0  0  0  0  0  0
   29.1289  -20.2575  -11.2908 C   0  0  0  0  0  0  0  0  0  0  0  0
   29.8454  -21.3387  -10.4913 C   0  0  0  0  0  0  0  0  0  0  0  0
   28.8758  -21.5785   -9.3606 C   0  0  1  0  0  0  0  0  0  0  0  0
   27.5247  -21.0664   -9.8788 C   0  0  0  0  0  0  0  0  0  0  0  0
   27.2123  -19.8705   -9.0378 O   0  0  0  0  0  0  0  0  0  0  0  0
   26.6101  -19.9754   -7.8053 O   0  0  0  0  0  0  0  0  0  0  0  0
  2  1  1  0
  3  2  2  0
  4  2  1  0
  5  4  1  0
  6  5  1  0
  6  7  1  0
  7  8  1  0
  8  9  1  1
 10  8  1  0
 11 10  2  0
 12 16  1  0
 12 10  1  0
 13 14  1  0
 13 12  1  0
 14 15  1  0
 15 16  1  0
 17 19  1  0
 16 17  1  1
 18 17  2  0
 19 20  1  0
 20 21  1  0
 22 21  1  0
 23 19  1  0
 23 22  1  0
 24 25  1  0
 23 24  1  1
 26 24  2  0
M  END
$$$$
