RPP.pdb
     RDKit          3D

 26 27  0  0  1  0  0  0  0  0999 V2000
   18.2657  -19.8186  -19.3618 N   0  0  0  0  0  0  0  0  0  0  0  0
   19.0393  -20.7767  -18.6623 C   0  0  0  0  0  0  0  0  0  0  0  0
   19.6095  -21.7743  -19.2476 N   0  0  0  0  0  0  0  0  0  0  0  0
   19.2046  -20.6423  -17.2315 N   0  0  0  0  0  0  0  0  0  0  0  0
   20.4707  -20.9570  -16.6227 C   0  0  0  0  0  0  0  0  0  0  0  0
   21.2778  -19.6982  -16.4839 C   0  0  0  0  0  0  0  0  0  0  0  0
   22.5751  -19.9296  -15.8020 C   0  0  0  0  0  0  0  0  0  0  0  0
   23.7201  -20.0077  -16.7589 C   0  0  2  0  0  0  0  0  0  0  0  0
   23.4520  -21.0564  -17.7328 N   0  0  0  0  0  0  0  0  0  0  0  0
   24.9717  -20.2688  -16.0152 C   0  0  0  0  0  0  0  0  0  0  0  0
   25.4739  -21.4316  -16.0704 O   0  0  0  0  0  0  0  0  0  0  0  0
   20.1183  -22.4742  -18.6812 N   0  0  0  0  0  0  0  0  0  0  0  0
   25.5812  -19.2318  -15.2768 C   0  0  0  0  0  0  0  0  0  0  0  0
   25.2625  -17.7967  -15.3320 C   0  0  0  0  0  0  0  0  0  0  0  0
   26.7133  -17.2751  -15.3836 C   0  0  0  0  0  0  0  0  0  0  0  0
   27.3433  -18.0519  -14.2677 C   0  0  2  0  0  0  0  0  0  0  0  0
   26.6781  -19.4163  -14.3669 C   0  0  0  0  0  0  0  0  0  0  0  0
   26.3781  -19.9868  -13.0772 O   0  0  0  0  0  0  0  0  0  0  0  0
   25.0856  -20.1042  -12.8703 N   0  0  0  0  0  0  0  0  0  0  0  0
   27.1881  -20.4327  -12.0287 C   0  0  0  0  0  0  0  0  0  0  0  0
   28.6209  -20.1107  -11.8861 C   0  0  0  0  0  0  0  0  0  0  0  0
   29.2285  -21.4509  -11.4909 C   0  0  0  0  0  0  0  0  0  0  0  0
   28.1983  -21.9830  -10.5257 C   0  0  1  0  0  0  0  0  0  0  0  0
   26.9078  -21.2222  -10.8608 C   0  0  0  0  0  0  0  0  0  0  0  0
   26.6419  -20.3611   -9.6680 O   0  0  0  0  0  0  0  0  0  0  0  0
   25.9401  -20.8150   -8.5752 O   0  0  0  0  0  0  0  0  0  0  0  0
  2  1  1  0
  3  2  2  0
  4  2  1  0
  5  4  1  0
  6  5  1  0
  6  7  1  0
  7  8  1  0
  8  9  1  6
 10  8  1  0
 11 10  2  0
 12 16  1  0
 12 10  1  0
 13 14  1  0
 13 12  1  0
 14 15  1  0
 15 16  1  0
 17 19  1  0
 16 17  1  1
 18 17  2  0
 19 20  1  0
 20 21  1  0
 22 21  1  0
 23 19  1  0
 23 22  1  0
 24 25  1  0
 23 24  1  1
 26 24  2  0
M  END
$$$$
