RPP.pdb
     RDKit          3D

 26 27  0  0  1  0  0  0  0  0999 V2000
   27.1157  -19.7235  -11.6276 N   0  0  0  0  0  0  0  0  0  0  0  0
   26.5517  -21.0141  -11.7750 C   0  0  0  0  0  0  0  0  0  0  0  0
   25.5790  -21.4379  -11.0421 N   0  0  0  0  0  0  0  0  0  0  0  0
   27.0795  -21.9041  -12.7859 N   0  0  0  0  0  0  0  0  0  0  0  0
   27.5467  -21.3704  -14.0387 C   0  0  0  0  0  0  0  0  0  0  0  0
   26.6231  -21.8109  -15.1378 C   0  0  0  0  0  0  0  0  0  0  0  0
   25.9093  -20.6730  -15.7679 C   0  0  0  0  0  0  0  0  0  0  0  0
   24.8974  -20.0561  -14.8579 C   0  0  2  0  0  0  0  0  0  0  0  0
   23.8227  -21.0115  -14.6284 N   0  0  0  0  0  0  0  0  0  0  0  0
   24.3876  -18.8041  -15.4583 C   0  0  0  0  0  0  0  0  0  0  0  0
   23.2120  -18.7986  -15.9329 O   0  0  0  0  0  0  0  0  0  0  0  0
   25.2299  -22.4033  -11.1673 N   0  0  0  0  0  0  0  0  0  0  0  0
   25.2028  -17.6521  -15.4826 C   0  0  0  0  0  0  0  0  0  0  0  0
   26.5364  -17.4953  -14.8818 C   0  0  0  0  0  0  0  0  0  0  0  0
   26.3018  -16.1117  -14.2414 C   0  0  0  0  0  0  0  0  0  0  0  0
   25.6965  -15.3582  -15.3864 C   0  0  1  0  0  0  0  0  0  0  0  0
   24.8220  -16.3976  -16.0712 C   0  0  0  0  0  0  0  0  0  0  0  0
   24.8633  -16.3028  -17.5093 O   0  0  0  0  0  0  0  0  0  0  0  0
   25.6647  -17.1948  -18.0469 N   0  0  0  0  0  0  0  0  0  0  0  0
   24.2206  -15.4594  -18.4203 C   0  0  0  0  0  0  0  0  0  0  0  0
   23.4604  -14.2514  -18.0461 C   0  0  0  0  0  0  0  0  0  0  0  0
   22.2133  -14.3569  -18.9152 C   0  0  0  0  0  0  0  0  0  0  0  0
   22.7901  -14.8387  -20.2234 C   0  0  1  0  0  0  0  0  0  0  0  0
   24.1396  -15.4709  -19.8552 C   0  0  0  0  0  0  0  0  0  0  0  0
   25.1692  -14.5777  -20.4695 O   0  0  0  0  0  0  0  0  0  0  0  0
   25.4906  -14.6365  -21.8059 O   0  0  0  0  0  0  0  0  0  0  0  0
  2  1  1  0
  3  2  2  0
  4  2  1  0
  5  4  1  0
  6  5  1  0
  6  7  1  0
  7  8  1  0
  8  9  1  6
 10  8  1  0
 11 10  2  0
 12 16  1  0
 12 10  1  0
 13 14  1  0
 13 12  1  0
 14 15  1  0
 15 16  1  0
 17 19  1  0
 16 17  1  6
 18 17  2  0
 19 20  1  0
 20 21  1  0
 22 21  1  0
 23 19  1  0
 23 22  1  0
 24 25  1  0
 23 24  1  6
 26 24  2  0
M  END
$$$$
