RPP.pdb
     RDKit          3D

 26 27  0  0  1  0  0  0  0  0999 V2000
   19.3615  -20.9810  -10.8246 N   0  0  0  0  0  0  0  0  0  0  0  0
   20.2247  -20.3189  -11.7312 C   0  0  0  0  0  0  0  0  0  0  0  0
   19.8395  -19.3323  -12.4668 N   0  0  0  0  0  0  0  0  0  0  0  0
   21.5982  -20.7578  -11.8468 N   0  0  0  0  0  0  0  0  0  0  0  0
   21.8885  -22.1358  -12.1458 C   0  0  0  0  0  0  0  0  0  0  0  0
   23.3754  -22.3447  -12.1149 C   0  0  0  0  0  0  0  0  0  0  0  0
   24.1123  -21.2778  -12.8360 C   0  0  0  0  0  0  0  0  0  0  0  0
   25.5310  -21.6517  -13.1196 C   0  0  2  0  0  0  0  0  0  0  0  0
   25.5634  -22.9968  -13.6764 N   0  0  0  0  0  0  0  0  0  0  0  0
   26.3259  -21.5632  -11.8753 C   0  0  0  0  0  0  0  0  0  0  0  0
   26.5979  -22.6357  -11.2565 O   0  0  0  0  0  0  0  0  0  0  0  0
   20.5057  -18.9003  -13.1293 N   0  0  0  0  0  0  0  0  0  0  0  0
   26.7698  -20.3062  -11.4115 C   0  0  0  0  0  0  0  0  0  0  0  0
   26.4120  -18.9844  -11.9492 C   0  0  0  0  0  0  0  0  0  0  0  0
   27.8321  -18.3819  -11.9505 C   0  0  0  0  0  0  0  0  0  0  0  0
   28.3014  -18.7361  -10.5722 C   0  0  2  0  0  0  0  0  0  0  0  0
   27.7112  -20.1191  -10.3420 C   0  0  0  0  0  0  0  0  0  0  0  0
   27.2277  -20.3034   -8.9963 O   0  0  0  0  0  0  0  0  0  0  0  0
   25.9338  -20.5297   -8.9559 N   0  0  0  0  0  0  0  0  0  0  0  0
   27.8652  -20.2905   -7.7522 C   0  0  0  0  0  0  0  0  0  0  0  0
   29.2892  -19.9624   -7.5476 C   0  0  0  0  0  0  0  0  0  0  0  0
   29.7411  -21.0302   -6.5590 C   0  0  0  0  0  0  0  0  0  0  0  0
   28.5618  -21.0992   -5.6206 C   0  0  1  0  0  0  0  0  0  0  0  0
   27.3835  -20.5230   -6.4181 C   0  0  0  0  0  0  0  0  0  0  0  0
   27.0361  -19.2420   -5.7299 O   0  0  0  0  0  0  0  0  0  0  0  0
   26.2889  -19.2069   -4.5753 O   0  0  0  0  0  0  0  0  0  0  0  0
  2  1  1  0
  3  2  2  0
  4  2  1  0
  5  4  1  0
  6  5  1  0
  6  7  1  0
  7  8  1  0
  8  9  1  1
 10  8  1  0
 11 10  2  0
 12 16  1  0
 12 10  1  0
 13 14  1  0
 13 12  1  0
 14 15  1  0
 15 16  1  0
 17 19  1  0
 16 17  1  1
 18 17  2  0
 19 20  1  0
 20 21  1  0
 22 21  1  0
 23 19  1  0
 23 22  1  0
 24 25  1  0
 23 24  1  1
 26 24  2  0
M  END
$$$$
