RPP.pdb
     RDKit          3D

 26 27  0  0  1  0  0  0  0  0999 V2000
   18.9205  -24.2294  -16.3254 N   0  0  0  0  0  0  0  0  0  0  0  0
   18.5041  -22.8992  -16.0748 C   0  0  0  0  0  0  0  0  0  0  0  0
   17.3336  -22.6093  -15.6179 N   0  0  0  0  0  0  0  0  0  0  0  0
   19.4202  -21.8111  -16.3382 N   0  0  0  0  0  0  0  0  0  0  0  0
   20.4611  -21.5045  -15.3921 C   0  0  0  0  0  0  0  0  0  0  0  0
   20.9880  -22.7831  -14.8066 C   0  0  0  0  0  0  0  0  0  0  0  0
   22.2582  -22.5856  -14.0657 C   0  0  0  0  0  0  0  0  0  0  0  0
   22.1315  -21.5795  -12.9682 C   0  0  2  0  0  0  0  0  0  0  0  0
   20.7893  -21.0157  -12.9958 N   0  0  0  0  0  0  0  0  0  0  0  0
   23.1612  -20.5307  -13.1348 C   0  0  0  0  0  0  0  0  0  0  0  0
   22.7859  -19.3642  -13.4599 O   0  0  0  0  0  0  0  0  0  0  0  0
   17.0206  -21.6238  -15.6075 N   0  0  0  0  0  0  0  0  0  0  0  0
   24.5218  -20.8399  -12.9221 C   0  0  0  0  0  0  0  0  0  0  0  0
   25.0709  -22.0696  -12.3301 C   0  0  0  0  0  0  0  0  0  0  0  0
   26.0972  -21.3964  -11.3957 C   0  0  0  0  0  0  0  0  0  0  0  0
   26.7585  -20.4327  -12.3334 C   0  0  2  0  0  0  0  0  0  0  0  0
   25.6135  -19.9513  -13.2115 C   0  0  0  0  0  0  0  0  0  0  0  0
   25.9945  -19.8008  -14.5939 O   0  0  0  0  0  0  0  0  0  0  0  0
   25.4941  -20.7466  -15.3568 N   0  0  0  0  0  0  0  0  0  0  0  0
   26.7774  -18.8544  -15.2615 C   0  0  0  0  0  0  0  0  0  0  0  0
   27.6395  -17.8621  -14.5913 C   0  0  0  0  0  0  0  0  0  0  0  0
   27.3519  -16.5857  -15.3720 C   0  0  0  0  0  0  0  0  0  0  0  0
   27.2933  -17.0989  -16.7895 C   0  0  1  0  0  0  0  0  0  0  0  0
   27.0035  -18.6006  -16.6580 C   0  0  0  0  0  0  0  0  0  0  0  0
   28.2424  -19.2810  -17.1452 O   0  0  0  0  0  0  0  0  0  0  0  0
   28.5582  -19.3647  -18.4816 O   0  0  0  0  0  0  0  0  0  0  0  0
  2  1  1  0
  3  2  2  0
  4  2  1  0
  5  4  1  0
  6  5  1  0
  6  7  1  0
  7  8  1  0
  8  9  1  6
 10  8  1  0
 11 10  2  0
 12 16  1  0
 12 10  1  0
 13 14  1  0
 13 12  1  0
 14 15  1  0
 15 16  1  0
 17 19  1  0
 16 17  1  6
 18 17  2  0
 19 20  1  0
 20 21  1  0
 22 21  1  0
 23 19  1  0
 23 22  1  0
 24 25  1  0
 23 24  1  1
 26 24  2  0
M  END
$$$$
