RPP.pdb
     RDKit          3D

 26 27  0  0  1  0  0  0  0  0999 V2000
   20.6168  -20.0685   -9.9385 N   0  0  0  0  0  0  0  0  0  0  0  0
   20.7983  -19.4773  -11.2125 C   0  0  0  0  0  0  0  0  0  0  0  0
   20.2441  -18.3627  -11.5494 N   0  0  0  0  0  0  0  0  0  0  0  0
   21.6377  -20.1411  -12.1858 N   0  0  0  0  0  0  0  0  0  0  0  0
   22.9602  -19.6394  -12.4539 C   0  0  0  0  0  0  0  0  0  0  0  0
   23.9422  -20.7733  -12.3815 C   0  0  0  0  0  0  0  0  0  0  0  0
   25.1260  -20.4451  -11.5496 C   0  0  0  0  0  0  0  0  0  0  0  0
   26.1711  -21.5122  -11.5929 C   0  0  2  0  0  0  0  0  0  0  0  0
   25.5783  -22.7339  -12.1187 N   0  0  0  0  0  0  0  0  0  0  0  0
   26.7240  -21.7208  -10.2369 C   0  0  0  0  0  0  0  0  0  0  0  0
   26.0029  -22.3093   -9.3761 O   0  0  0  0  0  0  0  0  0  0  0  0
   20.4748  -17.9346  -12.4620 N   0  0  0  0  0  0  0  0  0  0  0  0
   28.0290  -21.2770   -9.9328 C   0  0  0  0  0  0  0  0  0  0  0  0
   28.9996  -20.6729  -10.8586 C   0  0  0  0  0  0  0  0  0  0  0  0
   30.2324  -21.4823  -10.4063 C   0  0  0  0  0  0  0  0  0  0  0  0
   30.1455  -21.3401   -8.9172 C   0  0  2  0  0  0  0  0  0  0  0  0
   28.6504  -21.3988   -8.6428 C   0  0  0  0  0  0  0  0  0  0  0  0
   28.2335  -20.4738   -7.6185 O   0  0  0  0  0  0  0  0  0  0  0  0
   27.3840  -19.5779   -8.0688 N   0  0  0  0  0  0  0  0  0  0  0  0
   28.5541  -20.3564   -6.2629 C   0  0  0  0  0  0  0  0  0  0  0  0
   29.5442  -21.1978   -5.5636 C   0  0  0  0  0  0  0  0  0  0  0  0
   28.8359  -21.5345   -4.2573 C   0  0  0  0  0  0  0  0  0  0  0  0
   28.1859  -20.2176   -3.9117 C   0  0  1  0  0  0  0  0  0  0  0  0
   28.1061  -19.4518   -5.2398 C   0  0  0  0  0  0  0  0  0  0  0  0
   29.0424  -18.2970   -5.0808 O   0  0  0  0  0  0  0  0  0  0  0  0
   28.7395  -17.2073   -4.2977 O   0  0  0  0  0  0  0  0  0  0  0  0
  2  1  1  0
  3  2  2  0
  4  2  1  0
  5  4  1  0
  6  5  1  0
  6  7  1  0
  7  8  1  0
  8  9  1  1
 10  8  1  0
 11 10  2  0
 12 16  1  0
 12 10  1  0
 13 14  1  0
 13 12  1  0
 14 15  1  0
 15 16  1  0
 17 19  1  0
 16 17  1  6
 18 17  2  0
 19 20  1  0
 20 21  1  0
 22 21  1  0
 23 19  1  0
 23 22  1  0
 24 25  1  0
 23 24  1  6
 26 24  2  0
M  END
$$$$
