RPP.pdb
     RDKit          3D

 26 27  0  0  1  0  0  0  0  0999 V2000
   20.2189  -20.2797  -12.7173 N   0  0  0  0  0  0  0  0  0  0  0  0
   20.9305  -19.0553  -12.7173 C   0  0  0  0  0  0  0  0  0  0  0  0
   20.3676  -17.9216  -12.4710 N   0  0  0  0  0  0  0  0  0  0  0  0
   22.3484  -19.0627  -13.0040 N   0  0  0  0  0  0  0  0  0  0  0  0
   23.0709  -20.3078  -13.0195 C   0  0  0  0  0  0  0  0  0  0  0  0
   24.0281  -20.3372  -11.8626 C   0  0  0  0  0  0  0  0  0  0  0  0
   25.4445  -20.3918  -12.3007 C   0  0  0  0  0  0  0  0  0  0  0  0
   26.0636  -21.7328  -12.0745 C   0  0  2  0  0  0  0  0  0  0  0  0
   25.0781  -22.7642  -12.3667 N   0  0  0  0  0  0  0  0  0  0  0  0
   26.5468  -21.8276  -10.6797 C   0  0  0  0  0  0  0  0  0  0  0  0
   25.7672  -22.3089   -9.8034 O   0  0  0  0  0  0  0  0  0  0  0  0
   20.9298  -17.0545  -12.5104 N   0  0  0  0  0  0  0  0  0  0  0  0
   27.8513  -21.3966  -10.3557 C   0  0  0  0  0  0  0  0  0  0  0  0
   28.8393  -20.7958  -11.2651 C   0  0  0  0  0  0  0  0  0  0  0  0
   30.0591  -21.6182  -10.8008 C   0  0  0  0  0  0  0  0  0  0  0  0
   29.9533  -21.4834   -9.3122 C   0  0  2  0  0  0  0  0  0  0  0  0
   28.4543  -21.5308   -9.0582 C   0  0  0  0  0  0  0  0  0  0  0  0
   28.0315  -20.6078   -8.0344 O   0  0  0  0  0  0  0  0  0  0  0  0
   27.1580  -19.7326   -8.4793 N   0  0  0  0  0  0  0  0  0  0  0  0
   28.3671  -20.4748   -6.6839 C   0  0  0  0  0  0  0  0  0  0  0  0
   29.3787  -21.2953   -5.9907 C   0  0  0  0  0  0  0  0  0  0  0  0
   28.6919  -21.6326   -4.6731 C   0  0  0  0  0  0  0  0  0  0  0  0
   28.0259  -20.3232   -4.3295 C   0  0  1  0  0  0  0  0  0  0  0  0
   27.9179  -19.5692   -5.6622 C   0  0  0  0  0  0  0  0  0  0  0  0
   28.8380  -18.3990   -5.5239 O   0  0  0  0  0  0  0  0  0  0  0  0
   28.4808  -17.2596   -4.8405 O   0  0  0  0  0  0  0  0  0  0  0  0
  2  1  1  0
  3  2  2  0
  4  2  1  0
  5  4  1  0
  6  5  1  0
  6  7  1  0
  7  8  1  0
  8  9  1  1
 10  8  1  0
 11 10  2  0
 12 16  1  0
 12 10  1  0
 13 14  1  0
 13 12  1  0
 14 15  1  0
 15 16  1  0
 17 19  1  0
 16 17  1  6
 18 17  2  0
 19 20  1  0
 20 21  1  0
 22 21  1  0
 23 19  1  0
 23 22  1  0
 24 25  1  0
 23 24  1  6
 26 24  2  0
M  END
$$$$
