RPP.pdb
     RDKit          3D

 26 27  0  0  1  0  0  0  0  0999 V2000
   22.0560  -21.7296  -14.6491 N   0  0  0  0  0  0  0  0  0  0  0  0
   21.4260  -20.4896  -14.3820 C   0  0  0  0  0  0  0  0  0  0  0  0
   20.1956  -20.2526  -14.6868 N   0  0  0  0  0  0  0  0  0  0  0  0
   22.1830  -19.4366  -13.7412 N   0  0  0  0  0  0  0  0  0  0  0  0
   23.5798  -19.6310  -13.4518 C   0  0  0  0  0  0  0  0  0  0  0  0
   23.7184  -20.2931  -12.1110 C   0  0  0  0  0  0  0  0  0  0  0  0
   25.0626  -20.0915  -11.5161 C   0  0  0  0  0  0  0  0  0  0  0  0
   25.9139  -21.3171  -11.5937 C   0  0  2  0  0  0  0  0  0  0  0  0
   25.0885  -22.4405  -12.0146 N   0  0  0  0  0  0  0  0  0  0  0  0
   26.5404  -21.5706  -10.2780 C   0  0  0  0  0  0  0  0  0  0  0  0
   25.8582  -22.1658   -9.3905 O   0  0  0  0  0  0  0  0  0  0  0  0
   19.7620  -19.3597  -14.3970 N   0  0  0  0  0  0  0  0  0  0  0  0
   27.8701  -21.1609  -10.0408 C   0  0  0  0  0  0  0  0  0  0  0  0
   28.7968  -20.5504  -11.0066 C   0  0  0  0  0  0  0  0  0  0  0  0
   30.0369  -21.3959  -10.6504 C   0  0  0  0  0  0  0  0  0  0  0  0
   30.0412  -21.2933   -9.1554 C   0  0  2  0  0  0  0  0  0  0  0  0
   28.5641  -21.3305   -8.7939 C   0  0  0  0  0  0  0  0  0  0  0  0
   28.2281  -20.4263   -7.7224 O   0  0  0  0  0  0  0  0  0  0  0  0
   27.3857  -19.4917   -8.1017 N   0  0  0  0  0  0  0  0  0  0  0  0
   28.6197  -20.3613   -6.3819 C   0  0  0  0  0  0  0  0  0  0  0  0
   29.6373  -21.2348   -5.7666 C   0  0  0  0  0  0  0  0  0  0  0  0
   28.9947  -21.6146   -4.4383 C   0  0  0  0  0  0  0  0  0  0  0  0
   28.3752  -20.3070   -4.0113 C   0  0  1  0  0  0  0  0  0  0  0  0
   28.2334  -19.4920   -5.3044 C   0  0  0  0  0  0  0  0  0  0  0  0
   29.1868  -18.3505   -5.1525 O   0  0  0  0  0  0  0  0  0  0  0  0
   28.9301  -17.2836   -4.3226 O   0  0  0  0  0  0  0  0  0  0  0  0
  2  1  1  0
  3  2  2  0
  4  2  1  0
  5  4  1  0
  6  5  1  0
  6  7  1  0
  7  8  1  0
  8  9  1  1
 10  8  1  0
 11 10  2  0
 12 16  1  0
 12 10  1  0
 13 14  1  0
 13 12  1  0
 14 15  1  0
 15 16  1  0
 17 19  1  0
 16 17  1  6
 18 17  2  0
 19 20  1  0
 20 21  1  0
 22 21  1  0
 23 19  1  0
 23 22  1  0
 24 25  1  0
 23 24  1  6
 26 24  2  0
M  END
$$$$
