WDT.pdb
     RDKit          3D

 30 31  0  0  1  0  0  0  0  0999 V2000
    7.7548  -16.4529   23.9970 N   0  0  0  0  0  0  0  0  0  0  0  0
    8.7614  -15.5316   24.5699 C   0  0  1  0  0  0  0  0  0  0  0  0
    8.1388  -15.0595   25.8604 C   0  0  0  0  0  0  0  0  0  0  0  0
    6.9118  -14.2634   25.6913 C   0  0  0  0  0  0  0  0  0  0  0  0
    5.6277  -14.8054   25.5803 C   0  0  0  0  0  0  0  0  0  0  0  0
    4.7264  -13.8168   25.4728 N   0  0  0  0  0  0  0  0  0  0  0  0
    5.3805  -12.6472   25.5093 C   0  0  0  0  0  0  0  0  0  0  0  0
    4.9577  -11.3424   25.4327 C   0  0  0  0  0  0  0  0  0  0  0  0
    5.8512  -10.2876   25.4856 C   0  0  0  0  0  0  0  0  0  0  0  0
    7.1754  -10.5654   25.6164 C   0  0  0  0  0  0  0  0  0  0  0  0
    7.6240  -11.8457   25.6949 C   0  0  0  0  0  0  0  0  0  0  0  0
    6.7435  -12.9046   25.6445 C   0  0  0  0  0  0  0  0  0  0  0  0
   10.0366  -16.2203   24.7405 C   0  0  0  0  0  0  0  0  0  0  0  0
   10.7884  -15.8842   25.7088 O   0  0  0  0  0  0  0  0  0  0  0  0
   10.4620  -17.2728   23.8453 N   0  0  0  0  0  0  0  0  0  0  0  0
   11.8639  -17.5286   23.7404 C   0  0  1  0  0  0  0  0  0  0  0  0
   12.5325  -16.4737   22.8299 C   0  0  0  0  0  0  0  0  0  0  0  0
   12.8172  -17.0586   21.5047 C   0  0  0  0  0  0  0  0  0  0  0  0
   12.4338  -18.2376   21.2720 O   0  0  0  0  0  0  0  0  0  0  0  0
   12.6008  -17.4642   25.0093 C   0  0  0  0  0  0  0  0  0  0  0  0
   13.8244  -17.3158   25.0872 O   0  0  0  0  0  0  0  0  0  0  0  0
   13.4803  -16.3576   20.5367 O   0  0  0  0  0  0  0  0  0  0  0  0
   11.9126  -15.0539   27.9529 C   0  0  0  0  0  0  0  0  0  0  0  0
   11.8437  -16.4799   28.4525 C   0  0  1  0  0  0  0  0  0  0  0  0
   10.4852  -16.8226   28.4757 O   0  0  0  0  0  0  0  0  0  0  0  0
   12.5012  -17.4521   27.5210 C   0  0  2  0  0  0  0  0  0  0  0  0
   11.8912  -17.5757   26.2342 N   0  0  0  0  0  0  0  0  0  0  0  0
   12.4582  -18.7883   28.1786 C   0  0  0  0  0  0  0  0  0  0  0  0
   13.0758  -19.0228   29.4170 O   0  0  0  0  0  0  0  0  0  0  0  0
   11.8705  -19.7774   27.6665 O   0  0  0  0  0  0  0  0  0  0  0  0
  2  1  1  1
  2 13  1  0
  2  3  1  0
  3  4  1  0
  4  5  2  0
  5  6  1  0
  7  6  1  0
  8  7  2  0
  9  8  1  0
 10 11  1  0
 10  9  2  0
 11 12  2  0
 12  4  1  0
 12  7  1  0
 13 14  2  0
 15 13  1  0
 15 16  1  0
 16 17  1  6
 17 18  1  0
 18 22  1  0
 19 18  2  0
 20 21  2  0
 20 16  1  0
 24 23  1  6
 24 26  1  0
 25 24  1  0
 26 27  1  6
 27 20  1  0
 28 26  1  0
 28 29  1  0
 30 28  2  0
M  END
$$$$
