WDT.pdb
     RDKit          3D

 30 31  0  0  1  0  0  0  0  0999 V2000
    9.7096  -14.8470   21.4640 N   0  0  0  0  0  0  0  0  0  0  0  0
    9.4201  -15.0943   22.8943 C   0  0  1  0  0  0  0  0  0  0  0  0
    7.9507  -15.4346   22.9210 C   0  0  0  0  0  0  0  0  0  0  0  0
    7.2224  -14.9065   24.0866 C   0  0  0  0  0  0  0  0  0  0  0  0
    6.4102  -15.6757   24.9254 C   0  0  0  0  0  0  0  0  0  0  0  0
    5.9206  -14.9076   25.9110 N   0  0  0  0  0  0  0  0  0  0  0  0
    6.3862  -13.6618   25.7425 C   0  0  0  0  0  0  0  0  0  0  0  0
    6.1992  -12.4961   26.4448 C   0  0  0  0  0  0  0  0  0  0  0  0
    6.7961  -11.3112   26.0528 C   0  0  0  0  0  0  0  0  0  0  0  0
    7.5829  -11.3170   24.9444 C   0  0  0  0  0  0  0  0  0  0  0  0
    7.7870  -12.4543   24.2292 C   0  0  0  0  0  0  0  0  0  0  0  0
    7.1989  -13.6408   24.6104 C   0  0  0  0  0  0  0  0  0  0  0  0
   10.2858  -16.1502   23.4091 C   0  0  0  0  0  0  0  0  0  0  0  0
   11.0319  -16.7804   22.5953 O   0  0  0  0  0  0  0  0  0  0  0  0
   10.3212  -16.4923   24.8133 N   0  0  0  0  0  0  0  0  0  0  0  0
   11.3357  -17.3988   25.2502 C   0  0  1  0  0  0  0  0  0  0  0  0
   11.3489  -17.4818   26.7935 C   0  0  0  0  0  0  0  0  0  0  0  0
   12.4733  -18.3258   27.2439 C   0  0  0  0  0  0  0  0  0  0  0  0
   13.2092  -18.8637   26.3719 O   0  0  0  0  0  0  0  0  0  0  0  0
   11.1664  -18.7838   24.7917 C   0  0  0  0  0  0  0  0  0  0  0  0
   10.1833  -19.4816   25.0599 O   0  0  0  0  0  0  0  0  0  0  0  0
   12.7298  -18.5342   28.5700 O   0  0  0  0  0  0  0  0  0  0  0  0
   11.2436  -19.9925   21.1076 C   0  0  0  0  0  0  0  0  0  0  0  0
   12.3082  -20.7098   21.9076 C   0  0  1  0  0  0  0  0  0  0  0  0
   13.4986  -19.9997   21.7024 O   0  0  0  0  0  0  0  0  0  0  0  0
   12.0495  -20.6690   23.3830 C   0  0  2  0  0  0  0  0  0  0  0  0
   12.1755  -19.3818   23.9915 N   0  0  0  0  0  0  0  0  0  0  0  0
   13.0376  -21.5791   24.0275 C   0  0  0  0  0  0  0  0  0  0  0  0
   13.0301  -22.9630   23.7933 O   0  0  0  0  0  0  0  0  0  0  0  0
   13.9296  -21.1639   24.8135 O   0  0  0  0  0  0  0  0  0  0  0  0
  2  1  1  6
  2 13  1  0
  2  3  1  0
  3  4  1  0
  4  5  2  0
  5  6  1  0
  7  6  1  0
  8  7  2  0
  9  8  1  0
 10 11  1  0
 10  9  2  0
 11 12  2  0
 12  4  1  0
 12  7  1  0
 13 14  2  0
 15 13  1  0
 15 16  1  0
 16 17  1  1
 17 18  1  0
 18 22  1  0
 19 18  2  0
 20 21  2  0
 20 16  1  0
 24 23  1  6
 24 26  1  0
 25 24  1  0
 26 27  1  1
 27 20  1  0
 28 26  1  0
 28 29  1  0
 30 28  2  0
M  END
$$$$
