WDT.pdb
     RDKit          3D

 30 31  0  0  1  0  0  0  0  0999 V2000
    7.0000  -17.2750   24.1351 N   0  0  0  0  0  0  0  0  0  0  0  0
    8.1392  -16.3326   24.0680 C   0  0  1  0  0  0  0  0  0  0  0  0
    8.1649  -15.6855   25.4305 C   0  0  0  0  0  0  0  0  0  0  0  0
    7.0553  -14.7515   25.6841 C   0  0  0  0  0  0  0  0  0  0  0  0
    5.7625  -15.1410   26.0475 C   0  0  0  0  0  0  0  0  0  0  0  0
    4.9988  -14.0541   26.2388 N   0  0  0  0  0  0  0  0  0  0  0  0
    5.7508  -12.9678   26.0115 C   0  0  0  0  0  0  0  0  0  0  0  0
    5.4780  -11.6222   26.0547 C   0  0  0  0  0  0  0  0  0  0  0  0
    6.4454  -10.6777   25.7614 C   0  0  0  0  0  0  0  0  0  0  0  0
    7.6900  -11.1074   25.4239 C   0  0  0  0  0  0  0  0  0  0  0  0
    7.9902  -12.4317   25.3728 C   0  0  0  0  0  0  0  0  0  0  0  0
    7.0354  -13.3819   25.6640 C   0  0  0  0  0  0  0  0  0  0  0  0
    9.3648  -17.0461   23.7240 C   0  0  0  0  0  0  0  0  0  0  0  0
    9.4538  -18.2816   24.0098 O   0  0  0  0  0  0  0  0  0  0  0  0
   10.4717  -16.3897   23.0652 N   0  0  0  0  0  0  0  0  0  0  0  0
   11.7909  -16.8458   23.3709 C   0  0  1  0  0  0  0  0  0  0  0  0
   12.8140  -16.2069   22.4046 C   0  0  0  0  0  0  0  0  0  0  0  0
   14.1071  -16.9128   22.4997 C   0  0  0  0  0  0  0  0  0  0  0  0
   15.1683  -16.2483   22.3464 O   0  0  0  0  0  0  0  0  0  0  0  0
   12.2671  -16.5030   24.7173 C   0  0  0  0  0  0  0  0  0  0  0  0
   13.3086  -15.8774   24.9398 O   0  0  0  0  0  0  0  0  0  0  0  0
   14.1771  -18.2552   22.7466 O   0  0  0  0  0  0  0  0  0  0  0  0
   11.0146  -14.2356   27.2708 C   0  0  0  0  0  0  0  0  0  0  0  0
   10.9694  -15.6136   27.8927 C   0  0  1  0  0  0  0  0  0  0  0  0
    9.6627  -16.0849   27.7083 O   0  0  0  0  0  0  0  0  0  0  0  0
   11.8657  -16.5924   27.1971 C   0  0  2  0  0  0  0  0  0  0  0  0
   11.5063  -16.9006   25.8484 N   0  0  0  0  0  0  0  0  0  0  0  0
   11.8271  -17.8582   27.9821 C   0  0  0  0  0  0  0  0  0  0  0  0
   12.2390  -17.9091   29.3229 O   0  0  0  0  0  0  0  0  0  0  0  0
   11.4262  -18.9473   27.4931 O   0  0  0  0  0  0  0  0  0  0  0  0
  2  1  1  1
  2 13  1  0
  2  3  1  0
  3  4  1  0
  4  5  2  0
  5  6  1  0
  7  6  1  0
  8  7  2  0
  9  8  1  0
 10 11  1  0
 10  9  2  0
 11 12  2  0
 12  4  1  0
 12  7  1  0
 13 14  2  0
 15 13  1  0
 15 16  1  0
 16 17  1  6
 17 18  1  0
 18 22  1  0
 19 18  2  0
 20 21  2  0
 20 16  1  0
 24 23  1  6
 24 26  1  0
 25 24  1  0
 26 27  1  6
 27 20  1  0
 28 26  1  0
 28 29  1  0
 30 28  2  0
M  END
$$$$
