WDT.pdb
     RDKit          3D

 30 31  0  0  1  0  0  0  0  0999 V2000
    7.1472  -17.3459   23.9168 N   0  0  0  0  0  0  0  0  0  0  0  0
    8.2519  -16.3643   23.9976 C   0  0  1  0  0  0  0  0  0  0  0  0
    8.1181  -15.7695   25.3775 C   0  0  0  0  0  0  0  0  0  0  0  0
    6.9926  -14.8330   25.5325 C   0  0  0  0  0  0  0  0  0  0  0  0
    5.6979  -15.2088   25.9034 C   0  0  0  0  0  0  0  0  0  0  0  0
    4.9175  -14.1203   25.9899 N   0  0  0  0  0  0  0  0  0  0  0  0
    5.6605  -13.0464   25.6870 C   0  0  0  0  0  0  0  0  0  0  0  0
    5.3706  -11.7056   25.6134 C   0  0  0  0  0  0  0  0  0  0  0  0
    6.3319  -10.7755   25.2602 C   0  0  0  0  0  0  0  0  0  0  0  0
    7.5879  -11.2146   24.9823 C   0  0  0  0  0  0  0  0  0  0  0  0
    7.9051  -12.5344   25.0467 C   0  0  0  0  0  0  0  0  0  0  0  0
    6.9565  -13.4701   25.3984 C   0  0  0  0  0  0  0  0  0  0  0  0
    9.5310  -17.0230   23.7540 C   0  0  0  0  0  0  0  0  0  0  0  0
    9.6533  -18.2519   24.0555 O   0  0  0  0  0  0  0  0  0  0  0  0
   10.6546  -16.3199   23.1767 N   0  0  0  0  0  0  0  0  0  0  0  0
   11.9589  -16.8618   23.3933 C   0  0  1  0  0  0  0  0  0  0  0  0
   13.0141  -16.0396   22.6190 C   0  0  0  0  0  0  0  0  0  0  0  0
   13.1502  -16.5601   21.2442 C   0  0  0  0  0  0  0  0  0  0  0  0
   13.0127  -17.7994   21.0534 O   0  0  0  0  0  0  0  0  0  0  0  0
   12.4100  -16.8479   24.7909 C   0  0  0  0  0  0  0  0  0  0  0  0
   13.4906  -17.3110   25.1694 O   0  0  0  0  0  0  0  0  0  0  0  0
   13.4194  -15.7369   20.1870 O   0  0  0  0  0  0  0  0  0  0  0  0
    9.7652  -15.1756   27.9240 C   0  0  0  0  0  0  0  0  0  0  0  0
   11.2756  -15.0987   27.9436 C   0  0  1  0  0  0  0  0  0  0  0  0
   11.6606  -15.2780   29.2789 O   0  0  0  0  0  0  0  0  0  0  0  0
   11.9219  -16.2090   27.1725 C   0  0  2  0  0  0  0  0  0  0  0  0
   11.5762  -16.2747   25.7872 N   0  0  0  0  0  0  0  0  0  0  0  0
   11.5029  -17.4887   27.8104 C   0  0  0  0  0  0  0  0  0  0  0  0
   11.8447  -17.8005   29.1356 O   0  0  0  0  0  0  0  0  0  0  0  0
   10.8236  -18.3582   27.2035 O   0  0  0  0  0  0  0  0  0  0  0  0
  2  1  1  1
  2 13  1  0
  2  3  1  0
  3  4  1  0
  4  5  2  0
  5  6  1  0
  7  6  1  0
  8  7  2  0
  9  8  1  0
 10 11  1  0
 10  9  2  0
 11 12  2  0
 12  4  1  0
 12  7  1  0
 13 14  2  0
 15 13  1  0
 15 16  1  0
 16 17  1  6
 17 18  1  0
 18 22  1  0
 19 18  2  0
 20 21  2  0
 20 16  1  0
 24 23  1  1
 24 26  1  0
 25 24  1  0
 26 27  1  6
 27 20  1  0
 28 26  1  0
 28 29  1  0
 30 28  2  0
M  END
$$$$
