WDT.pdb
     RDKit          3D

 30 31  0  0  1  0  0  0  0  0999 V2000
    7.9203  -16.9750   23.5920 N   0  0  0  0  0  0  0  0  0  0  0  0
    8.9587  -15.9208   23.5672 C   0  0  1  0  0  0  0  0  0  0  0  0
    9.0344  -15.4421   24.9959 C   0  0  0  0  0  0  0  0  0  0  0  0
    7.8179  -14.7683   25.4795 C   0  0  0  0  0  0  0  0  0  0  0  0
    6.6729  -15.4327   25.9297 C   0  0  0  0  0  0  0  0  0  0  0  0
    5.7586  -14.5369   26.3334 N   0  0  0  0  0  0  0  0  0  0  0  0
    6.2692  -13.3095   26.1606 C   0  0  0  0  0  0  0  0  0  0  0  0
    5.7686  -12.0523   26.3968 C   0  0  0  0  0  0  0  0  0  0  0  0
    6.5061  -10.9154   26.1184 C   0  0  0  0  0  0  0  0  0  0  0  0
    7.7535  -11.0627   25.5990 C   0  0  0  0  0  0  0  0  0  0  0  0
    8.2761  -12.2930   25.3547 C   0  0  0  0  0  0  0  0  0  0  0  0
    7.5516  -13.4328   25.6289 C   0  0  0  0  0  0  0  0  0  0  0  0
   10.2130  -16.4600   23.0522 C   0  0  0  0  0  0  0  0  0  0  0  0
   11.2049  -15.6768   22.9148 O   0  0  0  0  0  0  0  0  0  0  0  0
   10.3580  -17.8551   22.7015 N   0  0  0  0  0  0  0  0  0  0  0  0
   11.5639  -18.2529   22.0462 C   0  0  1  0  0  0  0  0  0  0  0  0
   11.9502  -19.6896   22.4649 C   0  0  0  0  0  0  0  0  0  0  0  0
   12.1993  -19.7419   23.9191 C   0  0  0  0  0  0  0  0  0  0  0  0
   11.6240  -20.6370   24.5965 O   0  0  0  0  0  0  0  0  0  0  0  0
   11.4886  -18.2864   20.5798 C   0  0  0  0  0  0  0  0  0  0  0  0
   12.4039  -18.6862   19.8533 O   0  0  0  0  0  0  0  0  0  0  0  0
   13.0298  -18.8508   24.5389 O   0  0  0  0  0  0  0  0  0  0  0  0
    7.9235  -19.1193   18.5892 C   0  0  0  0  0  0  0  0  0  0  0  0
    8.6773  -17.9146   18.0711 C   0  0  1  0  0  0  0  0  0  0  0  0
    8.0706  -16.7926   18.6513 O   0  0  0  0  0  0  0  0  0  0  0  0
   10.1074  -17.8906   18.5173 C   0  0  2  0  0  0  0  0  0  0  0  0
   10.3068  -17.8396   19.9318 N   0  0  0  0  0  0  0  0  0  0  0  0
   10.7329  -16.6762   17.9224 C   0  0  0  0  0  0  0  0  0  0  0  0
   10.8419  -16.5061   16.5334 O   0  0  0  0  0  0  0  0  0  0  0  0
   11.1966  -15.7393   18.6245 O   0  0  0  0  0  0  0  0  0  0  0  0
  2  1  1  1
  2 13  1  0
  2  3  1  0
  3  4  1  0
  4  5  2  0
  5  6  1  0
  7  6  1  0
  8  7  2  0
  9  8  1  0
 10 11  1  0
 10  9  2  0
 11 12  2  0
 12  4  1  0
 12  7  1  0
 13 14  2  0
 15 13  1  0
 15 16  1  0
 16 17  1  1
 17 18  1  0
 18 22  1  0
 19 18  2  0
 20 21  2  0
 20 16  1  0
 24 23  1  1
 24 26  1  0
 25 24  1  0
 26 27  1  1
 27 20  1  0
 28 26  1  0
 28 29  1  0
 30 28  2  0
M  END
$$$$
