WDT.pdb
     RDKit          3D

 30 31  0  0  1  0  0  0  0  0999 V2000
    6.4356  -17.7945   23.9534 N   0  0  0  0  0  0  0  0  0  0  0  0
    7.4745  -16.7838   23.6544 C   0  0  1  0  0  0  0  0  0  0  0  0
    7.8761  -16.2540   25.0086 C   0  0  0  0  0  0  0  0  0  0  0  0
    7.0450  -15.1428   25.5008 C   0  0  0  0  0  0  0  0  0  0  0  0
    5.7437  -15.2870   25.9917 C   0  0  0  0  0  0  0  0  0  0  0  0
    5.2758  -14.0946   26.3920 N   0  0  0  0  0  0  0  0  0  0  0  0
    6.2290  -13.1766   26.1777 C   0  0  0  0  0  0  0  0  0  0  0  0
    6.2795  -11.8207   26.3929 C   0  0  0  0  0  0  0  0  0  0  0  0
    7.4013  -11.0780   26.0705 C   0  0  0  0  0  0  0  0  0  0  0  0
    8.4701  -11.7196   25.5286 C   0  0  0  0  0  0  0  0  0  0  0  0
    8.4501  -13.0597   25.3043 C   0  0  0  0  0  0  0  0  0  0  0  0
    7.3390  -13.8103   25.6223 C   0  0  0  0  0  0  0  0  0  0  0  0
    8.5685  -17.3915   22.9038 C   0  0  0  0  0  0  0  0  0  0  0  0
    8.9103  -18.5845   23.1790 O   0  0  0  0  0  0  0  0  0  0  0  0
    9.2658  -16.6781   21.8573 N   0  0  0  0  0  0  0  0  0  0  0  0
   10.5897  -17.1056   21.5313 C   0  0  1  0  0  0  0  0  0  0  0  0
   11.1369  -16.2869   20.3400 C   0  0  0  0  0  0  0  0  0  0  0  0
   10.9156  -17.0213   19.0787 C   0  0  0  0  0  0  0  0  0  0  0  0
   11.1693  -16.4375   17.9897 O   0  0  0  0  0  0  0  0  0  0  0  0
   11.5775  -16.9314   22.6041 C   0  0  0  0  0  0  0  0  0  0  0  0
   12.3319  -15.9574   22.6928 O   0  0  0  0  0  0  0  0  0  0  0  0
   10.4465  -18.3050   19.0668 O   0  0  0  0  0  0  0  0  0  0  0  0
   11.4034  -17.1798   26.6815 C   0  0  0  0  0  0  0  0  0  0  0  0
   12.1929  -18.2813   26.0098 C   0  0  1  0  0  0  0  0  0  0  0  0
   11.2990  -19.3429   25.8162 O   0  0  0  0  0  0  0  0  0  0  0  0
   12.6807  -17.8955   24.6466 C   0  0  2  0  0  0  0  0  0  0  0  0
   11.6945  -17.9243   23.6124 N   0  0  0  0  0  0  0  0  0  0  0  0
   13.7592  -18.8551   24.2781 C   0  0  0  0  0  0  0  0  0  0  0  0
   14.9629  -18.9256   24.9965 O   0  0  0  0  0  0  0  0  0  0  0  0
   13.6552  -19.6524   23.3088 O   0  0  0  0  0  0  0  0  0  0  0  0
  2  1  1  1
  2 13  1  0
  2  3  1  0
  3  4  1  0
  4  5  2  0
  5  6  1  0
  7  6  1  0
  8  7  2  0
  9  8  1  0
 10 11  1  0
 10  9  2  0
 11 12  2  0
 12  4  1  0
 12  7  1  0
 13 14  2  0
 15 13  1  0
 15 16  1  0
 16 17  1  6
 17 18  1  0
 18 22  1  0
 19 18  2  0
 20 21  2  0
 20 16  1  0
 24 23  1  6
 24 26  1  0
 25 24  1  0
 26 27  1  6
 27 20  1  0
 28 26  1  0
 28 29  1  0
 30 28  2  0
M  END
$$$$
