WDT.pdb
     RDKit          3D

 30 31  0  0  1  0  0  0  0  0999 V2000
    6.4073  -17.5361   23.8415 N   0  0  0  0  0  0  0  0  0  0  0  0
    7.5172  -16.6286   23.4741 C   0  0  1  0  0  0  0  0  0  0  0  0
    8.0422  -16.1311   24.7980 C   0  0  0  0  0  0  0  0  0  0  0  0
    7.2268  -15.0748   25.4203 C   0  0  0  0  0  0  0  0  0  0  0  0
    6.0052  -15.2958   26.0636 C   0  0  0  0  0  0  0  0  0  0  0  0
    5.5345  -14.1378   26.5523 N   0  0  0  0  0  0  0  0  0  0  0  0
    6.4087  -13.1681   26.2482 C   0  0  0  0  0  0  0  0  0  0  0  0
    6.4210  -11.8165   26.4938 C   0  0  0  0  0  0  0  0  0  0  0  0
    7.4571  -11.0108   26.0567 C   0  0  0  0  0  0  0  0  0  0  0  0
    8.4795  -11.5850   25.3692 C   0  0  0  0  0  0  0  0  0  0  0  0
    8.4956  -12.9191   25.1111 C   0  0  0  0  0  0  0  0  0  0  0  0
    7.4698  -13.7321   25.5423 C   0  0  0  0  0  0  0  0  0  0  0  0
    8.5058  -17.3402   22.6705 C   0  0  0  0  0  0  0  0  0  0  0  0
    8.7075  -18.5741   22.9006 O   0  0  0  0  0  0  0  0  0  0  0  0
    9.2533  -16.6837   21.6215 N   0  0  0  0  0  0  0  0  0  0  0  0
   10.4941  -17.2703   21.2239 C   0  0  1  0  0  0  0  0  0  0  0  0
   11.0815  -16.5084   20.0142 C   0  0  0  0  0  0  0  0  0  0  0  0
   12.2928  -17.1958   19.5246 C   0  0  0  0  0  0  0  0  0  0  0  0
   13.3118  -16.5022   19.2568 O   0  0  0  0  0  0  0  0  0  0  0  0
   11.5480  -17.2401   22.2464 C   0  0  0  0  0  0  0  0  0  0  0  0
   12.4248  -16.3722   22.3048 O   0  0  0  0  0  0  0  0  0  0  0  0
   12.3320  -18.5516   19.3569 O   0  0  0  0  0  0  0  0  0  0  0  0
   11.4956  -17.2460   26.2428 C   0  0  0  0  0  0  0  0  0  0  0  0
   12.0604  -18.5191   25.6531 C   0  0  1  0  0  0  0  0  0  0  0  0
   10.9866  -19.4131   25.5476 O   0  0  0  0  0  0  0  0  0  0  0  0
   12.5821  -18.3308   24.2611 C   0  0  2  0  0  0  0  0  0  0  0  0
   11.5860  -18.2549   23.2388 N   0  0  0  0  0  0  0  0  0  0  0  0
   13.4601  -19.4962   23.9596 C   0  0  0  0  0  0  0  0  0  0  0  0
   14.6439  -19.7343   24.6751 O   0  0  0  0  0  0  0  0  0  0  0  0
   13.1940  -20.3289   23.0531 O   0  0  0  0  0  0  0  0  0  0  0  0
  2  1  1  1
  2 13  1  0
  2  3  1  0
  3  4  1  0
  4  5  2  0
  5  6  1  0
  7  6  1  0
  8  7  2  0
  9  8  1  0
 10 11  1  0
 10  9  2  0
 11 12  2  0
 12  4  1  0
 12  7  1  0
 13 14  2  0
 15 13  1  0
 15 16  1  0
 16 17  1  6
 17 18  1  0
 18 22  1  0
 19 18  2  0
 20 21  2  0
 20 16  1  0
 24 23  1  6
 24 26  1  0
 25 24  1  0
 26 27  1  6
 27 20  1  0
 28 26  1  0
 28 29  1  0
 30 28  2  0
M  END
$$$$
