WDT.pdb
     RDKit          3D

 30 31  0  0  1  0  0  0  0  0999 V2000
    7.0188  -17.2337   24.1313 N   0  0  0  0  0  0  0  0  0  0  0  0
    8.1506  -16.2801   24.1257 C   0  0  1  0  0  0  0  0  0  0  0  0
    8.1137  -15.6539   25.4977 C   0  0  0  0  0  0  0  0  0  0  0  0
    7.0013  -14.7129   25.7099 C   0  0  0  0  0  0  0  0  0  0  0  0
    5.6773  -15.0954   25.9459 C   0  0  0  0  0  0  0  0  0  0  0  0
    4.9171  -14.0052   26.1324 N   0  0  0  0  0  0  0  0  0  0  0  0
    5.7016  -12.9235   26.0249 C   0  0  0  0  0  0  0  0  0  0  0  0
    5.4467  -11.5768   26.1174 C   0  0  0  0  0  0  0  0  0  0  0  0
    6.4491  -10.6374   25.9541 C   0  0  0  0  0  0  0  0  0  0  0  0
    7.7105  -11.0733   25.6963 C   0  0  0  0  0  0  0  0  0  0  0  0
    7.9937  -12.3988   25.5993 C   0  0  0  0  0  0  0  0  0  0  0  0
    7.0040  -13.3439   25.7612 C   0  0  0  0  0  0  0  0  0  0  0  0
    9.3962  -16.9771   23.8221 C   0  0  0  0  0  0  0  0  0  0  0  0
    9.5104  -18.1985   24.1554 O   0  0  0  0  0  0  0  0  0  0  0  0
   10.4952  -16.3200   23.1508 N   0  0  0  0  0  0  0  0  0  0  0  0
   11.8177  -16.7796   23.4368 C   0  0  1  0  0  0  0  0  0  0  0  0
   12.8410  -16.0594   22.5297 C   0  0  0  0  0  0  0  0  0  0  0  0
   13.6627  -17.0516   21.8088 C   0  0  0  0  0  0  0  0  0  0  0  0
   13.5271  -18.2713   22.1003 O   0  0  0  0  0  0  0  0  0  0  0  0
   12.2762  -16.5285   24.8093 C   0  0  0  0  0  0  0  0  0  0  0  0
   13.4229  -16.1705   25.0965 O   0  0  0  0  0  0  0  0  0  0  0  0
   14.5569  -16.6802   20.8443 O   0  0  0  0  0  0  0  0  0  0  0  0
   11.2773  -13.9780   27.2289 C   0  0  0  0  0  0  0  0  0  0  0  0
   10.9804  -15.3030   27.8951 C   0  0  1  0  0  0  0  0  0  0  0  0
    9.6154  -15.5468   27.6930 O   0  0  0  0  0  0  0  0  0  0  0  0
   11.7057  -16.4478   27.2560 C   0  0  2  0  0  0  0  0  0  0  0  0
   11.3703  -16.6989   25.8894 N   0  0  0  0  0  0  0  0  0  0  0  0
   11.3752  -17.6704   28.0408 C   0  0  0  0  0  0  0  0  0  0  0  0
   11.6532  -17.7650   29.4134 O   0  0  0  0  0  0  0  0  0  0  0  0
   10.8318  -18.6818   27.5235 O   0  0  0  0  0  0  0  0  0  0  0  0
  2  1  1  1
  2 13  1  0
  2  3  1  0
  3  4  1  0
  4  5  2  0
  5  6  1  0
  7  6  1  0
  8  7  2  0
  9  8  1  0
 10 11  1  0
 10  9  2  0
 11 12  2  0
 12  4  1  0
 12  7  1  0
 13 14  2  0
 15 13  1  0
 15 16  1  0
 16 17  1  6
 17 18  1  0
 18 22  1  0
 19 18  2  0
 20 21  2  0
 20 16  1  0
 24 23  1  6
 24 26  1  0
 25 24  1  0
 26 27  1  6
 27 20  1  0
 28 26  1  0
 28 29  1  0
 30 28  2  0
M  END
$$$$
