WDT.pdb
     RDKit          3D

 30 31  0  0  1  0  0  0  0  0999 V2000
    6.3285  -17.2585   23.1778 N   0  0  0  0  0  0  0  0  0  0  0  0
    7.5246  -16.4202   22.9391 C   0  0  1  0  0  0  0  0  0  0  0  0
    8.0738  -16.1572   24.3193 C   0  0  0  0  0  0  0  0  0  0  0  0
    7.2776  -15.2160   25.1244 C   0  0  0  0  0  0  0  0  0  0  0  0
    6.2550  -15.5943   25.9997 C   0  0  0  0  0  0  0  0  0  0  0  0
    5.7522  -14.5074   26.6056 N   0  0  0  0  0  0  0  0  0  0  0  0
    6.4128  -13.4320   26.1537 C   0  0  0  0  0  0  0  0  0  0  0  0
    6.3031  -12.0903   26.4274 C   0  0  0  0  0  0  0  0  0  0  0  0
    7.1140  -11.1564   25.8075 C   0  0  0  0  0  0  0  0  0  0  0  0
    8.0358  -11.5927   24.9089 C   0  0  0  0  0  0  0  0  0  0  0  0
    8.1682  -12.9134   24.6176 C   0  0  0  0  0  0  0  0  0  0  0  0
    7.3670  -13.8530   25.2294 C   0  0  0  0  0  0  0  0  0  0  0  0
    8.4539  -17.1087   22.0492 C   0  0  0  0  0  0  0  0  0  0  0  0
    8.6691  -18.3484   22.2303 O   0  0  0  0  0  0  0  0  0  0  0  0
    9.1278  -16.4229   20.9696 N   0  0  0  0  0  0  0  0  0  0  0  0
   10.3887  -16.9397   20.5396 C   0  0  1  0  0  0  0  0  0  0  0  0
   10.8398  -16.2346   19.2403 C   0  0  0  0  0  0  0  0  0  0  0  0
    9.9760  -16.6468   18.1164 C   0  0  0  0  0  0  0  0  0  0  0  0
    9.1376  -15.8186   17.6663 O   0  0  0  0  0  0  0  0  0  0  0  0
   11.4932  -16.7432   21.4876 C   0  0  0  0  0  0  0  0  0  0  0  0
   12.2131  -15.7397   21.5061 O   0  0  0  0  0  0  0  0  0  0  0  0
   10.0645  -17.8922   17.5606 O   0  0  0  0  0  0  0  0  0  0  0  0
   11.5756  -17.0907   25.5237 C   0  0  0  0  0  0  0  0  0  0  0  0
   12.4525  -18.0919   24.8051 C   0  0  1  0  0  0  0  0  0  0  0  0
   11.6807  -19.2516   24.6528 O   0  0  0  0  0  0  0  0  0  0  0  0
   12.8186  -17.6521   23.4203 C   0  0  2  0  0  0  0  0  0  0  0  0
   11.7729  -17.7484   22.4506 N   0  0  0  0  0  0  0  0  0  0  0  0
   13.9442  -18.5171   22.9678 C   0  0  0  0  0  0  0  0  0  0  0  0
   15.2145  -18.4471   23.5607 O   0  0  0  0  0  0  0  0  0  0  0  0
   13.8232  -19.3544   22.0350 O   0  0  0  0  0  0  0  0  0  0  0  0
  2  1  1  1
  2 13  1  0
  2  3  1  0
  3  4  1  0
  4  5  2  0
  5  6  1  0
  7  6  1  0
  8  7  2  0
  9  8  1  0
 10 11  1  0
 10  9  2  0
 11 12  2  0
 12  4  1  0
 12  7  1  0
 13 14  2  0
 15 13  1  0
 15 16  1  0
 16 17  1  6
 17 18  1  0
 18 22  1  0
 19 18  2  0
 20 21  2  0
 20 16  1  0
 24 23  1  6
 24 26  1  0
 25 24  1  0
 26 27  1  6
 27 20  1  0
 28 26  1  0
 28 29  1  0
 30 28  2  0
M  END
$$$$
