WDT.pdb
     RDKit          3D

 30 31  0  0  1  0  0  0  0  0999 V2000
    8.6494  -18.2561   21.6321 N   0  0  0  0  0  0  0  0  0  0  0  0
    9.3837  -17.0383   22.0421 C   0  0  1  0  0  0  0  0  0  0  0  0
    8.3455  -16.1991   22.7447 C   0  0  0  0  0  0  0  0  0  0  0  0
    7.4765  -15.4226   21.8448 C   0  0  0  0  0  0  0  0  0  0  0  0
    6.0986  -15.6199   21.7129 C   0  0  0  0  0  0  0  0  0  0  0  0
    5.5949  -14.7311   20.8425 N   0  0  0  0  0  0  0  0  0  0  0  0
    6.5994  -13.9605   20.4015 C   0  0  0  0  0  0  0  0  0  0  0  0
    6.6485  -12.9172   19.5092 C   0  0  0  0  0  0  0  0  0  0  0  0
    7.8375  -12.2774   19.2084 C   0  0  0  0  0  0  0  0  0  0  0  0
    8.9753  -12.7029   19.8183 C   0  0  0  0  0  0  0  0  0  0  0  0
    8.9585  -13.7319   20.7056 C   0  0  0  0  0  0  0  0  0  0  0  0
    7.7801  -14.3764   21.0142 C   0  0  0  0  0  0  0  0  0  0  0  0
   10.5261  -17.3951   22.8770 C   0  0  0  0  0  0  0  0  0  0  0  0
   10.3801  -18.2976   23.7602 O   0  0  0  0  0  0  0  0  0  0  0  0
   11.8141  -16.7565   22.7227 N   0  0  0  0  0  0  0  0  0  0  0  0
   12.7572  -16.8993   23.7866 C   0  0  1  0  0  0  0  0  0  0  0  0
   14.1305  -16.3307   23.3626 C   0  0  0  0  0  0  0  0  0  0  0  0
   15.1742  -16.7750   24.3074 C   0  0  0  0  0  0  0  0  0  0  0  0
   14.8762  -17.6500   25.1658 O   0  0  0  0  0  0  0  0  0  0  0  0
   12.4093  -16.1842   25.0214 C   0  0  0  0  0  0  0  0  0  0  0  0
   12.6636  -14.9921   25.2207 O   0  0  0  0  0  0  0  0  0  0  0  0
   16.4411  -16.2634   24.2720 O   0  0  0  0  0  0  0  0  0  0  0  0
   10.0493  -14.3530   26.4786 C   0  0  0  0  0  0  0  0  0  0  0  0
   10.0811  -15.5801   27.3623 C   0  0  1  0  0  0  0  0  0  0  0  0
    9.1438  -16.4737   26.8271 O   0  0  0  0  0  0  0  0  0  0  0  0
   11.4007  -16.2889   27.3214 C   0  0  2  0  0  0  0  0  0  0  0  0
   11.7407  -16.8781   26.0644 N   0  0  0  0  0  0  0  0  0  0  0  0
   11.3465  -17.3770   28.3377 C   0  0  0  0  0  0  0  0  0  0  0  0
   11.5122  -18.7257   27.9860 O   0  0  0  0  0  0  0  0  0  0  0  0
   11.1505  -17.1528   29.5613 O   0  0  0  0  0  0  0  0  0  0  0  0
  2  1  1  1
  2 13  1  0
  2  3  1  0
  3  4  1  0
  4  5  2  0
  5  6  1  0
  7  6  1  0
  8  7  2  0
  9  8  1  0
 10 11  1  0
 10  9  2  0
 11 12  2  0
 12  4  1  0
 12  7  1  0
 13 14  2  0
 15 13  1  0
 15 16  1  0
 16 17  1  6
 17 18  1  0
 18 22  1  0
 19 18  2  0
 20 21  2  0
 20 16  1  0
 24 23  1  6
 24 26  1  0
 25 24  1  0
 26 27  1  6
 27 20  1  0
 28 26  1  0
 28 29  1  0
 30 28  2  0
M  END
$$$$
