WDT.pdb
     RDKit          3D

 30 31  0  0  1  0  0  0  0  0999 V2000
    6.3182  -18.0758   20.5494 N   0  0  0  0  0  0  0  0  0  0  0  0
    6.9990  -17.1560   21.4880 C   0  0  1  0  0  0  0  0  0  0  0  0
    6.2596  -17.3417   22.7898 C   0  0  0  0  0  0  0  0  0  0  0  0
    6.3224  -16.1848   23.6984 C   0  0  0  0  0  0  0  0  0  0  0  0
    5.8321  -16.1813   25.0078 C   0  0  0  0  0  0  0  0  0  0  0  0
    6.0736  -14.9910   25.5788 N   0  0  0  0  0  0  0  0  0  0  0  0
    6.7050  -14.2172   24.6846 C   0  0  0  0  0  0  0  0  0  0  0  0
    7.1710  -12.9260   24.7367 C   0  0  0  0  0  0  0  0  0  0  0  0
    7.7935  -12.3367   23.6509 C   0  0  0  0  0  0  0  0  0  0  0  0
    7.9396  -13.0656   22.5129 C   0  0  0  0  0  0  0  0  0  0  0  0
    7.4893  -14.3451   22.4310 C   0  0  0  0  0  0  0  0  0  0  0  0
    6.8687  -14.9432   23.5062 C   0  0  0  0  0  0  0  0  0  0  0  0
    8.4219  -17.4714   21.5606 C   0  0  0  0  0  0  0  0  0  0  0  0
    8.7758  -18.5939   22.0410 O   0  0  0  0  0  0  0  0  0  0  0  0
    9.4336  -16.5482   21.0977 N   0  0  0  0  0  0  0  0  0  0  0  0
   10.7978  -16.8576   21.3893 C   0  0  1  0  0  0  0  0  0  0  0  0
   11.7379  -15.8922   20.6324 C   0  0  0  0  0  0  0  0  0  0  0  0
   13.1172  -16.4181   20.6441 C   0  0  0  0  0  0  0  0  0  0  0  0
   13.3372  -17.5181   21.2209 O   0  0  0  0  0  0  0  0  0  0  0  0
   11.1722  -16.7294   22.8037 C   0  0  0  0  0  0  0  0  0  0  0  0
   11.3427  -15.6475   23.3745 O   0  0  0  0  0  0  0  0  0  0  0  0
   14.1483  -15.7454   20.0505 O   0  0  0  0  0  0  0  0  0  0  0  0
    9.1995  -18.3770   25.6446 C   0  0  0  0  0  0  0  0  0  0  0  0
   10.3945  -17.4674   25.8244 C   0  0  1  0  0  0  0  0  0  0  0  0
   10.7913  -17.6003   27.1617 O   0  0  0  0  0  0  0  0  0  0  0  0
   11.5718  -17.8880   24.9983 C   0  0  2  0  0  0  0  0  0  0  0  0
   11.3554  -17.9005   23.5855 N   0  0  0  0  0  0  0  0  0  0  0  0
   11.9319  -19.2712   25.4189 C   0  0  0  0  0  0  0  0  0  0  0  0
   12.3891  -19.5539   26.7155 O   0  0  0  0  0  0  0  0  0  0  0  0
   11.8482  -20.2593   24.6427 O   0  0  0  0  0  0  0  0  0  0  0  0
  2  1  1  6
  2 13  1  0
  2  3  1  0
  3  4  1  0
  4  5  2  0
  5  6  1  0
  7  6  1  0
  8  7  2  0
  9  8  1  0
 10 11  1  0
 10  9  2  0
 11 12  2  0
 12  4  1  0
 12  7  1  0
 13 14  2  0
 15 13  1  0
 15 16  1  0
 16 17  1  6
 17 18  1  0
 18 22  1  0
 19 18  2  0
 20 21  2  0
 20 16  1  0
 24 23  1  1
 24 26  1  0
 25 24  1  0
 26 27  1  6
 27 20  1  0
 28 26  1  0
 28 29  1  0
 30 28  2  0
M  END
$$$$
