WDT.pdb
     RDKit          3D

 30 31  0  0  1  0  0  0  0  0999 V2000
   10.1900  -15.1572   21.7682 N   0  0  0  0  0  0  0  0  0  0  0  0
    9.8845  -15.2212   23.2149 C   0  0  1  0  0  0  0  0  0  0  0  0
    8.3950  -15.4540   23.2687 C   0  0  0  0  0  0  0  0  0  0  0  0
    7.6022  -14.2609   23.6092 C   0  0  0  0  0  0  0  0  0  0  0  0
    6.8544  -13.5203   22.6887 C   0  0  0  0  0  0  0  0  0  0  0  0
    6.2219  -12.5190   23.3200 N   0  0  0  0  0  0  0  0  0  0  0  0
    6.5330  -12.5815   24.6225 C   0  0  0  0  0  0  0  0  0  0  0  0
    6.1758  -11.8107   25.7020 C   0  0  0  0  0  0  0  0  0  0  0  0
    6.6499  -12.0813   26.9732 C   0  0  0  0  0  0  0  0  0  0  0  0
    7.4881  -13.1380   27.1414 C   0  0  0  0  0  0  0  0  0  0  0  0
    7.8592  -13.9190   26.0931 C   0  0  0  0  0  0  0  0  0  0  0  0
    7.3926  -13.6601   24.8225 C   0  0  0  0  0  0  0  0  0  0  0  0
   10.6749  -16.2696   23.8516 C   0  0  0  0  0  0  0  0  0  0  0  0
   11.7477  -16.6542   23.2883 O   0  0  0  0  0  0  0  0  0  0  0  0
   10.2750  -16.8749   25.1022 N   0  0  0  0  0  0  0  0  0  0  0  0
   11.2022  -17.7556   25.7397 C   0  0  1  0  0  0  0  0  0  0  0  0
   10.8345  -17.9297   27.2307 C   0  0  0  0  0  0  0  0  0  0  0  0
   11.9135  -18.6491   27.9361 C   0  0  0  0  0  0  0  0  0  0  0  0
   13.0602  -18.6792   27.4111 O   0  0  0  0  0  0  0  0  0  0  0  0
   11.2390  -19.1174   25.1908 C   0  0  0  0  0  0  0  0  0  0  0  0
   11.7533  -20.0789   25.7709 O   0  0  0  0  0  0  0  0  0  0  0  0
   11.6982  -19.2760   29.1312 O   0  0  0  0  0  0  0  0  0  0  0  0
    8.2248  -20.6096   22.4887 C   0  0  0  0  0  0  0  0  0  0  0  0
    9.6850  -20.7825   22.1342 C   0  0  1  0  0  0  0  0  0  0  0  0
   10.0150  -19.7097   21.2953 O   0  0  0  0  0  0  0  0  0  0  0  0
   10.5871  -20.6709   23.3253 C   0  0  2  0  0  0  0  0  0  0  0  0
   10.6570  -19.3735   23.9212 N   0  0  0  0  0  0  0  0  0  0  0  0
   11.9577  -21.0425   22.8747 C   0  0  0  0  0  0  0  0  0  0  0  0
   12.2302  -22.2874   22.2865 O   0  0  0  0  0  0  0  0  0  0  0  0
   12.9439  -20.2684   22.9941 O   0  0  0  0  0  0  0  0  0  0  0  0
  2  1  1  6
  2 13  1  0
  2  3  1  0
  3  4  1  0
  4  5  2  0
  5  6  1  0
  7  6  1  0
  8  7  2  0
  9  8  1  0
 10 11  1  0
 10  9  2  0
 11 12  2  0
 12  4  1  0
 12  7  1  0
 13 14  2  0
 15 13  1  0
 15 16  1  0
 16 17  1  1
 17 18  1  0
 18 22  1  0
 19 18  2  0
 20 21  2  0
 20 16  1  0
 24 23  1  1
 24 26  1  0
 25 24  1  0
 26 27  1  6
 27 20  1  0
 28 26  1  0
 28 29  1  0
 30 28  2  0
M  END
$$$$
