PRM.pdb
     RDKit          3D

 27 27  0  0  1  0  0  0  0  0999 V2000
    8.7927  -15.0674   18.3641 N   0  0  0  0  0  0  0  0  0  0  0  0
    9.0188  -14.2254   17.1864 C   0  0  0  0  0  0  0  0  0  0  0  0
    7.9004  -13.1941   17.3769 C   0  0  0  0  0  0  0  0  0  0  0  0
    7.7178  -13.0923   18.8784 C   0  0  0  0  0  0  0  0  0  0  0  0
    8.7373  -14.0804   19.4072 C   0  0  1  0  0  0  0  0  0  0  0  0
    8.3140  -14.6540   20.7077 C   0  0  0  0  0  0  0  0  0  0  0  0
    8.1176  -13.9271   21.7400 O   0  0  0  0  0  0  0  0  0  0  0  0
    6.0905  -22.9173   23.5139 N   0  0  0  0  0  0  0  0  0  0  0  0
    5.0794  -21.9282   23.4111 C   0  0  0  0  0  0  0  0  0  0  0  0
    3.8172  -22.1989   23.3420 N   0  0  0  0  0  0  0  0  0  0  0  0
    5.4819  -20.5453   23.3831 N   0  0  0  0  0  0  0  0  0  0  0  0
    6.8775  -20.1665   23.3508 C   0  0  0  0  0  0  0  0  0  0  0  0
    6.9518  -18.6568   23.4172 C   0  0  0  0  0  0  0  0  0  0  0  0
    7.5037  -18.1101   22.0937 C   0  0  0  0  0  0  0  0  0  0  0  0
    7.6198  -16.6100   22.1342 C   0  0  2  0  0  0  0  0  0  0  0  0
    8.0959  -16.0396   20.9054 N   0  0  0  0  0  0  0  0  0  0  0  0
    8.3297  -16.1347   23.3319 C   0  0  0  0  0  0  0  0  0  0  0  0
    9.5451  -16.3666   23.4520 O   0  0  0  0  0  0  0  0  0  0  0  0
    3.1699  -21.3806   23.2621 C   0  0  0  0  0  0  0  0  0  0  0  0
    6.0539  -10.9131   26.2927 S   0  0  0  0  0  0  0  0  0  0  0  0
    7.2120  -11.4318   27.5588 C   0  0  0  0  0  0  0  0  0  0  0  0
    8.1913  -12.8717   27.0696 C   0  0  0  0  0  0  0  0  0  0  0  0
    7.5309  -13.6182   25.9304 C   0  0  2  0  0  0  0  0  0  0  0  0
    8.3734  -14.7718   25.4523 N   0  0  0  0  0  0  0  0  0  0  0  0
    7.6629  -15.4216   24.3464 C   0  0  0  0  0  0  0  0  0  0  0  0
    8.6613  -15.7125   26.5434 O   0  0  0  0  0  0  0  0  0  0  0  0
    9.5533  -15.5871   27.4011 O   0  0  0  0  0  0  0  0  0  0  0  0
  1  5  1  0
  1  2  1  0
  2  3  1  0
  4  3  1  0
  5  4  1  0
  6 16  1  0
  5  6  1  1
  7  6  2  0
  9  8  1  0
  9 10  2  0
 11  9  1  0
 12 11  1  0
 13 12  1  0
 14 13  1  0
 15 14  1  6
 15 16  1  0
 17 24  1  0
 17 15  1  0
 18 17  2  0
 20 19  1  0
 20 21  1  0
 21 22  1  0
 23 22  1  6
 23 24  1  0
 23 25  1  0
 25 27  1  0
 26 25  2  0
M  END
$$$$
