PRM.pdb
     RDKit          3D

 27 27  0  0  1  0  0  0  0  0999 V2000
    5.9785  -18.4328   21.0434 N   0  0  0  0  0  0  0  0  0  0  0  0
    5.0332  -19.4489   20.5735 C   0  0  0  0  0  0  0  0  0  0  0  0
    6.0114  -20.5619   20.1797 C   0  0  0  0  0  0  0  0  0  0  0  0
    7.1881  -20.3954   21.1210 C   0  0  0  0  0  0  0  0  0  0  0  0
    6.7815  -19.1988   21.9565 C   0  0  1  0  0  0  0  0  0  0  0  0
    7.9648  -18.4460   22.4389 C   0  0  0  0  0  0  0  0  0  0  0  0
    8.6252  -18.8059   23.4717 O   0  0  0  0  0  0  0  0  0  0  0  0
    9.0866  -14.9078   16.5103 N   0  0  0  0  0  0  0  0  0  0  0  0
    8.5825  -13.7252   17.1090 C   0  0  0  0  0  0  0  0  0  0  0  0
    7.8456  -12.8651   16.4857 N   0  0  0  0  0  0  0  0  0  0  0  0
    8.9095  -13.4692   18.4884 N   0  0  0  0  0  0  0  0  0  0  0  0
    9.9310  -14.2290   19.1749 C   0  0  0  0  0  0  0  0  0  0  0  0
    9.2833  -14.9203   20.3546 C   0  0  0  0  0  0  0  0  0  0  0  0
   10.3001  -15.8535   21.0258 C   0  0  0  0  0  0  0  0  0  0  0  0
    9.6696  -16.6131   22.1621 C   0  0  2  0  0  0  0  0  0  0  0  0
    8.4513  -17.2801   21.7981 N   0  0  0  0  0  0  0  0  0  0  0  0
    9.5699  -15.8068   23.3886 C   0  0  0  0  0  0  0  0  0  0  0  0
    9.5161  -14.5679   23.3006 O   0  0  0  0  0  0  0  0  0  0  0  0
    7.5960  -11.9972   17.0143 C   0  0  0  0  0  0  0  0  0  0  0  0
    6.8404  -12.1912   25.0441 S   0  0  0  0  0  0  0  0  0  0  0  0
    7.1035  -12.4916   26.7916 C   0  0  0  0  0  0  0  0  0  0  0  0
    7.8570  -14.1020   27.1234 C   0  0  0  0  0  0  0  0  0  0  0  0
    8.1252  -14.8535   25.8370 C   0  0  1  0  0  0  0  0  0  0  0  0
    9.4152  -15.6288   25.8985 N   0  0  0  0  0  0  0  0  0  0  0  0
    9.5333  -16.4072   24.6615 C   0  0  0  0  0  0  0  0  0  0  0  0
    9.4677  -16.4866   27.0900 O   0  0  0  0  0  0  0  0  0  0  0  0
    9.3980  -17.7284   27.1010 O   0  0  0  0  0  0  0  0  0  0  0  0
  1  5  1  0
  1  2  1  0
  2  3  1  0
  4  3  1  0
  5  4  1  0
  6 16  1  0
  5  6  1  6
  7  6  2  0
  9  8  1  0
  9 10  2  0
 11  9  1  0
 12 11  1  0
 13 12  1  0
 14 13  1  0
 15 14  1  6
 15 16  1  0
 17 24  1  0
 17 15  1  0
 18 17  2  0
 20 19  1  0
 20 21  1  0
 21 22  1  0
 23 22  1  6
 23 24  1  0
 23 25  1  0
 25 27  1  0
 26 25  2  0
M  END
$$$$
