PRM.pdb
     RDKit          3D

 27 27  0  0  1  0  0  0  0  0999 V2000
    8.4798  -15.3363   17.8836 N   0  0  0  0  0  0  0  0  0  0  0  0
    8.7406  -14.6447   16.6184 C   0  0  0  0  0  0  0  0  0  0  0  0
    7.8144  -13.4337   16.7803 C   0  0  0  0  0  0  0  0  0  0  0  0
    7.7684  -13.1770   18.2737 C   0  0  0  0  0  0  0  0  0  0  0  0
    8.6605  -14.2686   18.8285 C   0  0  1  0  0  0  0  0  0  0  0  0
    8.2568  -14.6540   20.2025 C   0  0  0  0  0  0  0  0  0  0  0  0
    8.3346  -13.8432   21.1869 O   0  0  0  0  0  0  0  0  0  0  0  0
    7.4025  -21.4196   22.9648 N   0  0  0  0  0  0  0  0  0  0  0  0
    6.9241  -21.1301   24.2681 C   0  0  0  0  0  0  0  0  0  0  0  0
    7.3208  -21.7502   25.3307 N   0  0  0  0  0  0  0  0  0  0  0  0
    5.9422  -20.0863   24.4152 N   0  0  0  0  0  0  0  0  0  0  0  0
    5.4507  -19.3467   23.2735 C   0  0  0  0  0  0  0  0  0  0  0  0
    6.1144  -17.9871   23.2785 C   0  0  0  0  0  0  0  0  0  0  0  0
    6.6788  -17.6850   21.8838 C   0  0  0  0  0  0  0  0  0  0  0  0
    7.2988  -16.3143   21.8360 C   0  0  2  0  0  0  0  0  0  0  0  0
    7.7576  -15.9391   20.5282 N   0  0  0  0  0  0  0  0  0  0  0  0
    8.2916  -16.1105   22.9024 C   0  0  0  0  0  0  0  0  0  0  0  0
    8.8139  -17.0992   23.4457 O   0  0  0  0  0  0  0  0  0  0  0  0
    6.8750  -21.4604   26.2319 C   0  0  0  0  0  0  0  0  0  0  0  0
    6.0673  -11.7497   28.6898 S   0  0  0  0  0  0  0  0  0  0  0  0
    6.0761  -12.3130   26.9881 C   0  0  0  0  0  0  0  0  0  0  0  0
    7.5627  -13.2524   26.5652 C   0  0  0  0  0  0  0  0  0  0  0  0
    7.5814  -13.6098   25.0944 C   0  0  1  0  0  0  0  0  0  0  0  0
    8.7787  -14.4509   24.7365 N   0  0  0  0  0  0  0  0  0  0  0  0
    8.6646  -14.8193   23.3218 C   0  0  0  0  0  0  0  0  0  0  0  0
    8.8796  -15.6338   25.6019 O   0  0  0  0  0  0  0  0  0  0  0  0
    9.8336  -15.9143   26.3490 O   0  0  0  0  0  0  0  0  0  0  0  0
  1  5  1  0
  1  2  1  0
  2  3  1  0
  4  3  1  0
  5  4  1  0
  6 16  1  0
  5  6  1  1
  7  6  2  0
  9  8  1  0
  9 10  2  0
 11  9  1  0
 12 11  1  0
 13 12  1  0
 14 13  1  0
 15 14  1  6
 15 16  1  0
 17 24  1  0
 17 15  1  0
 18 17  2  0
 20 19  1  0
 20 21  1  0
 21 22  1  0
 23 22  1  6
 23 24  1  0
 23 25  1  0
 25 27  1  0
 26 25  2  0
M  END
$$$$
