PRM.pdb
     RDKit          3D

 27 27  0  0  1  0  0  0  0  0999 V2000
    8.9496  -14.6566   18.8870 N   0  0  0  0  0  0  0  0  0  0  0  0
    8.7654  -13.7396   17.7592 C   0  0  0  0  0  0  0  0  0  0  0  0
    7.4337  -13.0920   18.1564 C   0  0  0  0  0  0  0  0  0  0  0  0
    7.4311  -13.1080   19.6723 C   0  0  0  0  0  0  0  0  0  0  0  0
    8.7524  -13.7718   20.0022 C   0  0  1  0  0  0  0  0  0  0  0  0
    8.6888  -14.4956   21.2951 C   0  0  0  0  0  0  0  0  0  0  0  0
    8.2455  -13.9472   22.3605 O   0  0  0  0  0  0  0  0  0  0  0  0
    8.8024  -20.7190   17.2913 N   0  0  0  0  0  0  0  0  0  0  0  0
    9.3508  -20.1215   18.4548 C   0  0  0  0  0  0  0  0  0  0  0  0
   10.2749  -19.2179   18.4281 N   0  0  0  0  0  0  0  0  0  0  0  0
    8.8490  -20.5449   19.7370 N   0  0  0  0  0  0  0  0  0  0  0  0
    9.3890  -20.0162   20.9703 C   0  0  0  0  0  0  0  0  0  0  0  0
    8.8696  -18.6052   21.1388 C   0  0  0  0  0  0  0  0  0  0  0  0
    9.3120  -18.0533   22.5008 C   0  0  0  0  0  0  0  0  0  0  0  0
    8.9273  -16.6057   22.6490 C   0  0  2  0  0  0  0  0  0  0  0  0
    9.1101  -15.8393   21.4486 N   0  0  0  0  0  0  0  0  0  0  0  0
    9.5131  -15.9901   23.8500 C   0  0  0  0  0  0  0  0  0  0  0  0
   10.7311  -15.7422   23.8752 O   0  0  0  0  0  0  0  0  0  0  0  0
   10.6591  -18.9183   19.3541 C   0  0  0  0  0  0  0  0  0  0  0  0
    5.7038  -10.9530   25.5063 S   0  0  0  0  0  0  0  0  0  0  0  0
    6.3401  -12.2268   26.5953 C   0  0  0  0  0  0  0  0  0  0  0  0
    7.7304  -13.1352   25.8790 C   0  0  0  0  0  0  0  0  0  0  0  0
    8.2140  -14.2200   26.8174 C   0  0  2  0  0  0  0  0  0  0  0  0
    9.2843  -15.0718   26.1866 N   0  0  0  0  0  0  0  0  0  0  0  0
    8.7244  -15.6742   24.9726 C   0  0  0  0  0  0  0  0  0  0  0  0
    9.7787  -16.0902   27.1229 O   0  0  0  0  0  0  0  0  0  0  0  0
   10.5845  -15.9007   28.0513 O   0  0  0  0  0  0  0  0  0  0  0  0
  1  5  1  0
  1  2  1  0
  2  3  1  0
  4  3  1  0
  5  4  1  0
  6 16  1  0
  5  6  1  1
  7  6  2  0
  9  8  1  0
  9 10  2  0
 11  9  1  0
 12 11  1  0
 13 12  1  0
 14 13  1  0
 15 14  1  6
 15 16  1  0
 17 24  1  0
 17 15  1  0
 18 17  2  0
 20 19  1  0
 20 21  1  0
 21 22  1  0
 23 22  1  6
 23 24  1  0
 23 25  1  0
 25 27  1  0
 26 25  2  0
M  END
$$$$
