PRM.pdb
     RDKit          3D

 27 27  0  0  1  0  0  0  0  0999 V2000
    8.4864  -14.7772   18.4447 N   0  0  0  0  0  0  0  0  0  0  0  0
    8.6432  -13.9410   17.2517 C   0  0  0  0  0  0  0  0  0  0  0  0
    7.5472  -12.9002   17.5092 C   0  0  0  0  0  0  0  0  0  0  0  0
    7.4617  -12.7919   19.0189 C   0  0  0  0  0  0  0  0  0  0  0  0
    8.5053  -13.7862   19.4854 C   0  0  1  0  0  0  0  0  0  0  0  0
    8.1616  -14.3520   20.8125 C   0  0  0  0  0  0  0  0  0  0  0  0
    8.0616  -13.6234   21.8573 O   0  0  0  0  0  0  0  0  0  0  0  0
    7.7093  -22.8085   20.9368 N   0  0  0  0  0  0  0  0  0  0  0  0
    9.0024  -22.2374   21.0505 C   0  0  0  0  0  0  0  0  0  0  0  0
   10.0971  -22.9041   20.8824 N   0  0  0  0  0  0  0  0  0  0  0  0
    9.1007  -20.8361   21.3703 N   0  0  0  0  0  0  0  0  0  0  0  0
    7.9321  -20.0583   21.7190 C   0  0  0  0  0  0  0  0  0  0  0  0
    8.3518  -18.6085   21.8230 C   0  0  0  0  0  0  0  0  0  0  0  0
    7.1381  -17.7471   22.1974 C   0  0  0  0  0  0  0  0  0  0  0  0
    7.5128  -16.2917   22.2819 C   0  0  2  0  0  0  0  0  0  0  0  0
    7.9190  -15.7316   21.0237 N   0  0  0  0  0  0  0  0  0  0  0  0
    8.4398  -16.0148   23.3902 C   0  0  0  0  0  0  0  0  0  0  0  0
    9.6628  -16.1438   23.2081 O   0  0  0  0  0  0  0  0  0  0  0  0
   10.9876  -22.3576   20.9386 C   0  0  0  0  0  0  0  0  0  0  0  0
    6.9546  -10.1770   25.9802 S   0  0  0  0  0  0  0  0  0  0  0  0
    7.1222  -11.7543   26.8152 C   0  0  0  0  0  0  0  0  0  0  0  0
    8.1318  -12.9364   25.8907 C   0  0  0  0  0  0  0  0  0  0  0  0
    8.2356  -14.2558   26.6253 C   0  0  2  0  0  0  0  0  0  0  0  0
    8.8743  -15.3227   25.7750 N   0  0  0  0  0  0  0  0  0  0  0  0
    7.9728  -15.6060   24.6538 C   0  0  0  0  0  0  0  0  0  0  0  0
    9.1645  -16.5301   26.5601 O   0  0  0  0  0  0  0  0  0  0  0  0
    8.5824  -17.6247   26.4608 O   0  0  0  0  0  0  0  0  0  0  0  0
  1  5  1  0
  1  2  1  0
  2  3  1  0
  4  3  1  0
  5  4  1  0
  6 16  1  0
  5  6  1  1
  7  6  2  0
  9  8  1  0
  9 10  2  0
 11  9  1  0
 12 11  1  0
 13 12  1  0
 14 13  1  0
 15 14  1  6
 15 16  1  0
 17 24  1  0
 17 15  1  0
 18 17  2  0
 20 19  1  0
 20 21  1  0
 21 22  1  0
 23 22  1  6
 23 24  1  0
 23 25  1  0
 25 27  1  0
 26 25  2  0
M  END
$$$$
