PRM.pdb
     RDKit          3D

 27 27  0  0  1  0  0  0  0  0999 V2000
    7.1933  -18.8054   21.3494 N   0  0  0  0  0  0  0  0  0  0  0  0
    6.7008  -19.9667   20.6038 C   0  0  0  0  0  0  0  0  0  0  0  0
    6.7848  -19.4208   19.1735 C   0  0  0  0  0  0  0  0  0  0  0  0
    7.9436  -18.4437   19.1984 C   0  0  0  0  0  0  0  0  0  0  0  0
    8.4074  -18.5112   20.6390 C   0  0  1  0  0  0  0  0  0  0  0  0
    9.0215  -17.2327   21.0724 C   0  0  0  0  0  0  0  0  0  0  0  0
   10.2559  -17.1444   21.3902 O   0  0  0  0  0  0  0  0  0  0  0  0
    7.4227  -15.2274   17.1449 N   0  0  0  0  0  0  0  0  0  0  0  0
    8.0103  -14.2083   16.3529 C   0  0  0  0  0  0  0  0  0  0  0  0
    8.2929  -14.3490   15.0993 N   0  0  0  0  0  0  0  0  0  0  0  0
    8.3078  -12.9462   16.9806 N   0  0  0  0  0  0  0  0  0  0  0  0
    8.0128  -12.7103   18.3769 C   0  0  0  0  0  0  0  0  0  0  0  0
    8.6349  -13.8314   19.1801 C   0  0  0  0  0  0  0  0  0  0  0  0
    8.3546  -13.6118   20.6728 C   0  0  0  0  0  0  0  0  0  0  0  0
    8.8852  -14.7540   21.4970 C   0  0  2  0  0  0  0  0  0  0  0  0
    8.2946  -16.0205   21.1666 N   0  0  0  0  0  0  0  0  0  0  0  0
    8.8914  -14.4513   22.9367 C   0  0  0  0  0  0  0  0  0  0  0  0
    8.7980  -13.2695   23.3112 O   0  0  0  0  0  0  0  0  0  0  0  0
    8.7257  -13.5229   14.6247 C   0  0  0  0  0  0  0  0  0  0  0  0
    7.5160  -11.5057   26.9992 S   0  0  0  0  0  0  0  0  0  0  0  0
    6.3267  -12.8275   27.2265 C   0  0  0  0  0  0  0  0  0  0  0  0
    7.0379  -14.4684   26.9567 C   0  0  0  0  0  0  0  0  0  0  0  0
    7.3894  -14.6770   25.4992 C   0  0  1  0  0  0  0  0  0  0  0  0
    8.7797  -15.2320   25.3311 N   0  0  0  0  0  0  0  0  0  0  0  0
    9.0003  -15.4709   23.9013 C   0  0  0  0  0  0  0  0  0  0  0  0
    8.9671  -16.4546   26.1238 O   0  0  0  0  0  0  0  0  0  0  0  0
    9.0853  -17.6078   25.6731 O   0  0  0  0  0  0  0  0  0  0  0  0
  1  5  1  0
  1  2  1  0
  2  3  1  0
  4  3  1  0
  5  4  1  0
  6 16  1  0
  5  6  1  1
  7  6  2  0
  9  8  1  0
  9 10  2  0
 11  9  1  0
 12 11  1  0
 13 12  1  0
 14 13  1  0
 15 14  1  6
 15 16  1  0
 17 24  1  0
 17 15  1  0
 18 17  2  0
 20 19  1  0
 20 21  1  0
 21 22  1  0
 23 22  1  6
 23 24  1  0
 23 25  1  0
 25 27  1  0
 26 25  2  0
M  END
$$$$
