PRM.pdb
     RDKit          3D

 27 27  0  0  1  0  0  0  0  0999 V2000
    7.9315  -20.8000   23.5872 N   0  0  0  0  0  0  0  0  0  0  0  0
    7.7757  -22.2567   23.5667 C   0  0  0  0  0  0  0  0  0  0  0  0
    7.8352  -22.5103   22.0558 C   0  0  0  0  0  0  0  0  0  0  0  0
    8.7325  -21.4153   21.5135 C   0  0  0  0  0  0  0  0  0  0  0  0
    9.0934  -20.6312   22.7585 C   0  0  1  0  0  0  0  0  0  0  0  0
    9.3629  -19.2070   22.4443 C   0  0  0  0  0  0  0  0  0  0  0  0
   10.5271  -18.7899   22.1232 O   0  0  0  0  0  0  0  0  0  0  0  0
    8.9449  -14.0543   17.6574 N   0  0  0  0  0  0  0  0  0  0  0  0
    8.3751  -12.9137   18.2783 C   0  0  0  0  0  0  0  0  0  0  0  0
    8.7862  -11.7056   18.0718 N   0  0  0  0  0  0  0  0  0  0  0  0
    7.2767  -13.1131   19.1888 N   0  0  0  0  0  0  0  0  0  0  0  0
    6.8912  -14.4365   19.6274 C   0  0  0  0  0  0  0  0  0  0  0  0
    7.9625  -14.9462   20.5664 C   0  0  0  0  0  0  0  0  0  0  0  0
    7.5703  -16.3349   21.0888 C   0  0  0  0  0  0  0  0  0  0  0  0
    8.5761  -16.8414   22.0874 C   0  0  2  0  0  0  0  0  0  0  0  0
    8.3600  -18.2070   22.4748 N   0  0  0  0  0  0  0  0  0  0  0  0
    8.7577  -15.9177   23.2181 C   0  0  0  0  0  0  0  0  0  0  0  0
    8.1461  -14.8354   23.2249 O   0  0  0  0  0  0  0  0  0  0  0  0
    8.2969  -10.9503   18.6057 C   0  0  0  0  0  0  0  0  0  0  0  0
    7.1293  -11.5770   27.2985 S   0  0  0  0  0  0  0  0  0  0  0  0
    6.9534  -13.3397   27.5723 C   0  0  0  0  0  0  0  0  0  0  0  0
    8.4909  -14.2517   27.2967 C   0  0  0  0  0  0  0  0  0  0  0  0
    8.4131  -15.0817   26.0332 C   0  0  1  0  0  0  0  0  0  0  0  0
    9.7771  -15.3490   25.4525 N   0  0  0  0  0  0  0  0  0  0  0  0
    9.6092  -16.2323   24.2942 C   0  0  0  0  0  0  0  0  0  0  0  0
   10.6809  -15.9295   26.4548 O   0  0  0  0  0  0  0  0  0  0  0  0
   10.9710  -15.4285   27.5556 O   0  0  0  0  0  0  0  0  0  0  0  0
  1  5  1  0
  1  2  1  0
  2  3  1  0
  4  3  1  0
  5  4  1  0
  6 16  1  0
  5  6  1  6
  7  6  2  0
  9  8  1  0
  9 10  2  0
 11  9  1  0
 12 11  1  0
 13 12  1  0
 14 13  1  0
 15 14  1  1
 15 16  1  0
 17 24  1  0
 17 15  1  0
 18 17  2  0
 20 19  1  0
 20 21  1  0
 21 22  1  0
 23 22  1  6
 23 24  1  0
 23 25  1  0
 25 27  1  0
 26 25  2  0
M  END
$$$$
