PRM.pdb
     RDKit          3D

 27 27  0  0  1  0  0  0  0  0999 V2000
    8.5981  -15.1394   18.2537 N   0  0  0  0  0  0  0  0  0  0  0  0
    8.9463  -14.3186   17.0909 C   0  0  0  0  0  0  0  0  0  0  0  0
    7.9856  -13.1417   17.2975 C   0  0  0  0  0  0  0  0  0  0  0  0
    7.8137  -13.0402   18.8003 C   0  0  0  0  0  0  0  0  0  0  0  0
    8.6800  -14.1722   19.3135 C   0  0  1  0  0  0  0  0  0  0  0  0
    8.1743  -14.7013   20.6034 C   0  0  0  0  0  0  0  0  0  0  0  0
    8.0766  -13.9706   21.6468 O   0  0  0  0  0  0  0  0  0  0  0  0
    8.2979  -20.4289   26.5648 N   0  0  0  0  0  0  0  0  0  0  0  0
    7.9064  -21.0675   25.3606 C   0  0  0  0  0  0  0  0  0  0  0  0
    8.5758  -22.0252   24.8074 N   0  0  0  0  0  0  0  0  0  0  0  0
    6.6950  -20.6244   24.7192 N   0  0  0  0  0  0  0  0  0  0  0  0
    6.6984  -20.1313   23.3594 C   0  0  0  0  0  0  0  0  0  0  0  0
    6.8278  -18.6247   23.4107 C   0  0  0  0  0  0  0  0  0  0  0  0
    7.2070  -18.0933   22.0219 C   0  0  0  0  0  0  0  0  0  0  0  0
    7.3140  -16.5920   22.0275 C   0  0  2  0  0  0  0  0  0  0  0  0
    7.7634  -16.0458   20.7779 N   0  0  0  0  0  0  0  0  0  0  0  0
    8.0429  -16.0862   23.2011 C   0  0  0  0  0  0  0  0  0  0  0  0
    9.2783  -16.2153   23.2533 O   0  0  0  0  0  0  0  0  0  0  0  0
    8.2498  -22.3348   23.8626 C   0  0  0  0  0  0  0  0  0  0  0  0
    6.3167  -10.5598   26.6852 S   0  0  0  0  0  0  0  0  0  0  0  0
    6.7319  -11.8425   27.8665 C   0  0  0  0  0  0  0  0  0  0  0  0
    7.8256  -13.1073   27.1768 C   0  0  0  0  0  0  0  0  0  0  0  0
    7.1592  -13.8378   26.0307 C   0  0  2  0  0  0  0  0  0  0  0  0
    8.0819  -14.8444   25.3946 N   0  0  0  0  0  0  0  0  0  0  0  0
    7.3723  -15.4580   24.2677 C   0  0  0  0  0  0  0  0  0  0  0  0
    8.5313  -15.8485   26.3683 O   0  0  0  0  0  0  0  0  0  0  0  0
    8.0021  -16.9549   26.5753 O   0  0  0  0  0  0  0  0  0  0  0  0
  1  5  1  0
  1  2  1  0
  2  3  1  0
  4  3  1  0
  5  4  1  0
  6 16  1  0
  5  6  1  1
  7  6  2  0
  9  8  1  0
  9 10  2  0
 11  9  1  0
 12 11  1  0
 13 12  1  0
 14 13  1  0
 15 14  1  6
 15 16  1  0
 17 24  1  0
 17 15  1  0
 18 17  2  0
 20 19  1  0
 20 21  1  0
 21 22  1  0
 23 22  1  6
 23 24  1  0
 23 25  1  0
 25 27  1  0
 26 25  2  0
M  END
$$$$
