PRM.pdb
     RDKit          3D

 27 27  0  0  1  0  0  0  0  0999 V2000
    8.9920  -14.6014   18.0264 N   0  0  0  0  0  0  0  0  0  0  0  0
    8.8892  -13.6330   16.9316 C   0  0  0  0  0  0  0  0  0  0  0  0
    7.4907  -13.0675   17.2059 C   0  0  0  0  0  0  0  0  0  0  0  0
    7.3199  -13.1665   18.7090 C   0  0  0  0  0  0  0  0  0  0  0  0
    8.6276  -13.7885   19.1541 C   0  0  1  0  0  0  0  0  0  0  0  0
    8.4564  -14.5841   20.3940 C   0  0  0  0  0  0  0  0  0  0  0  0
    7.9592  -14.0843   21.4595 O   0  0  0  0  0  0  0  0  0  0  0  0
   12.1936  -21.4046   19.1842 N   0  0  0  0  0  0  0  0  0  0  0  0
   11.8106  -21.3450   20.5484 C   0  0  0  0  0  0  0  0  0  0  0  0
   12.3702  -22.0444   21.4805 N   0  0  0  0  0  0  0  0  0  0  0  0
   10.7391  -20.4547   20.9151 N   0  0  0  0  0  0  0  0  0  0  0  0
    9.9640  -19.7549   19.9143 C   0  0  0  0  0  0  0  0  0  0  0  0
    8.8970  -18.9539   20.6278 C   0  0  0  0  0  0  0  0  0  0  0  0
    9.5559  -18.0009   21.6343 C   0  0  0  0  0  0  0  0  0  0  0  0
    8.8064  -16.6983   21.7169 C   0  0  2  0  0  0  0  0  0  0  0  0
    8.8269  -15.9478   20.4930 N   0  0  0  0  0  0  0  0  0  0  0  0
    9.1719  -15.9157   22.9079 C   0  0  0  0  0  0  0  0  0  0  0  0
   10.2556  -15.3069   22.9278 O   0  0  0  0  0  0  0  0  0  0  0  0
   11.9979  -21.9105   22.4492 C   0  0  0  0  0  0  0  0  0  0  0  0
    6.9327  -10.3662   27.2089 S   0  0  0  0  0  0  0  0  0  0  0  0
    6.3498  -12.0242   26.8561 C   0  0  0  0  0  0  0  0  0  0  0  0
    7.6957  -13.2157   26.6558 C   0  0  0  0  0  0  0  0  0  0  0  0
    7.5056  -14.0474   25.4055 C   0  0  1  0  0  0  0  0  0  0  0  0
    8.6348  -15.0238   25.2038 N   0  0  0  0  0  0  0  0  0  0  0  0
    8.3208  -15.8399   24.0268 C   0  0  0  0  0  0  0  0  0  0  0  0
    8.8475  -15.8501   26.3997 O   0  0  0  0  0  0  0  0  0  0  0  0
    9.1898  -15.4380   27.5222 O   0  0  0  0  0  0  0  0  0  0  0  0
  1  5  1  0
  1  2  1  0
  2  3  1  0
  4  3  1  0
  5  4  1  0
  6 16  1  0
  5  6  1  1
  7  6  2  0
  9  8  1  0
  9 10  2  0
 11  9  1  0
 12 11  1  0
 13 12  1  0
 14 13  1  0
 15 14  1  6
 15 16  1  0
 17 24  1  0
 17 15  1  0
 18 17  2  0
 20 19  1  0
 20 21  1  0
 21 22  1  0
 23 22  1  6
 23 24  1  0
 23 25  1  0
 25 27  1  0
 26 25  2  0
M  END
$$$$
