PRM.pdb
     RDKit          3D

 27 27  0  0  1  0  0  0  0  0999 V2000
    9.1504  -14.4964   18.6725 N   0  0  0  0  0  0  0  0  0  0  0  0
    8.8935  -13.5378   17.5946 C   0  0  0  0  0  0  0  0  0  0  0  0
    7.4014  -13.2708   17.8247 C   0  0  0  0  0  0  0  0  0  0  0  0
    7.2018  -13.4440   19.3175 C   0  0  0  0  0  0  0  0  0  0  0  0
    8.5914  -13.8046   19.8013 C   0  0  1  0  0  0  0  0  0  0  0  0
    8.5403  -14.6527   21.0168 C   0  0  0  0  0  0  0  0  0  0  0  0
    7.7771  -14.3804   22.0046 O   0  0  0  0  0  0  0  0  0  0  0  0
   11.2766  -19.1258   18.2732 N   0  0  0  0  0  0  0  0  0  0  0  0
   10.5644  -20.3340   18.4833 C   0  0  0  0  0  0  0  0  0  0  0  0
   10.1863  -21.1179   17.5274 N   0  0  0  0  0  0  0  0  0  0  0  0
   10.2455  -20.7082   19.8374 N   0  0  0  0  0  0  0  0  0  0  0  0
   10.6883  -19.9154   20.9632 C   0  0  0  0  0  0  0  0  0  0  0  0
    9.8024  -18.6919   21.0482 C   0  0  0  0  0  0  0  0  0  0  0  0
   10.2120  -17.8433   22.2595 C   0  0  0  0  0  0  0  0  0  0  0  0
    9.3528  -16.6127   22.3737 C   0  0  2  0  0  0  0  0  0  0  0  0
    9.3260  -15.8206   21.1763 N   0  0  0  0  0  0  0  0  0  0  0  0
    9.6338  -15.8442   23.5963 C   0  0  0  0  0  0  0  0  0  0  0  0
   10.7090  -15.2280   23.6951 O   0  0  0  0  0  0  0  0  0  0  0  0
    9.6133  -21.9479   17.8059 C   0  0  0  0  0  0  0  0  0  0  0  0
    6.4470  -11.0414   26.2285 S   0  0  0  0  0  0  0  0  0  0  0  0
    6.5988  -12.1569   27.6234 C   0  0  0  0  0  0  0  0  0  0  0  0
    7.9412  -13.3528   27.4254 C   0  0  0  0  0  0  0  0  0  0  0  0
    7.8042  -14.1155   26.1252 C   0  0  1  0  0  0  0  0  0  0  0  0
    8.9698  -15.0406   25.8917 N   0  0  0  0  0  0  0  0  0  0  0  0
    8.7110  -15.7901   24.6582 C   0  0  0  0  0  0  0  0  0  0  0  0
    9.1820  -15.9339   27.0386 O   0  0  0  0  0  0  0  0  0  0  0  0
    8.9455  -17.1546   27.0686 O   0  0  0  0  0  0  0  0  0  0  0  0
  1  5  1  0
  1  2  1  0
  2  3  1  0
  4  3  1  0
  5  4  1  0
  6 16  1  0
  5  6  1  1
  7  6  2  0
  9  8  1  0
  9 10  2  0
 11  9  1  0
 12 11  1  0
 13 12  1  0
 14 13  1  0
 15 14  1  6
 15 16  1  0
 17 24  1  0
 17 15  1  0
 18 17  2  0
 20 19  1  0
 20 21  1  0
 21 22  1  0
 23 22  1  6
 23 24  1  0
 23 25  1  0
 25 27  1  0
 26 25  2  0
M  END
$$$$
