PRM.pdb
     RDKit          3D

 27 27  0  0  1  0  0  0  0  0999 V2000
    8.9816  -14.6270   18.5007 N   0  0  0  0  0  0  0  0  0  0  0  0
    9.1086  -13.6963   17.3762 C   0  0  0  0  0  0  0  0  0  0  0  0
    7.8098  -12.8986   17.5419 C   0  0  0  0  0  0  0  0  0  0  0  0
    7.5334  -12.9121   19.0324 C   0  0  0  0  0  0  0  0  0  0  0  0
    8.6896  -13.7238   19.5798 C   0  0  1  0  0  0  0  0  0  0  0  0
    8.3129  -14.4336   20.8263 C   0  0  0  0  0  0  0  0  0  0  0  0
    7.8082  -13.8247   21.8297 O   0  0  0  0  0  0  0  0  0  0  0  0
    7.8303  -22.7406   19.7994 N   0  0  0  0  0  0  0  0  0  0  0  0
    6.9869  -21.8367   19.1045 C   0  0  0  0  0  0  0  0  0  0  0  0
    6.2705  -22.1686   18.0809 N   0  0  0  0  0  0  0  0  0  0  0  0
    6.9250  -20.4735   19.5661 N   0  0  0  0  0  0  0  0  0  0  0  0
    7.6868  -20.0301   20.7129 C   0  0  0  0  0  0  0  0  0  0  0  0
    7.4887  -18.5368   20.8543 C   0  0  0  0  0  0  0  0  0  0  0  0
    8.2620  -18.0290   22.0788 C   0  0  0  0  0  0  0  0  0  0  0  0
    8.1506  -16.5335   22.2073 C   0  0  2  0  0  0  0  0  0  0  0  0
    8.4811  -15.8294   21.0002 N   0  0  0  0  0  0  0  0  0  0  0  0
    8.8312  -16.0215   23.4069 C   0  0  0  0  0  0  0  0  0  0  0  0
   10.0406  -15.7399   23.3479 O   0  0  0  0  0  0  0  0  0  0  0  0
    5.6900  -21.4098   17.6540 C   0  0  0  0  0  0  0  0  0  0  0  0
    6.1825  -10.9109   27.0925 S   0  0  0  0  0  0  0  0  0  0  0  0
    5.8007  -12.6061   26.6524 C   0  0  0  0  0  0  0  0  0  0  0  0
    7.1476  -13.4229   25.7635 C   0  0  0  0  0  0  0  0  0  0  0  0
    7.7598  -14.5277   26.5976 C   0  0  2  0  0  0  0  0  0  0  0  0
    8.7898  -15.3094   25.8248 N   0  0  0  0  0  0  0  0  0  0  0  0
    8.1428  -15.8424   24.6219 C   0  0  0  0  0  0  0  0  0  0  0  0
    9.3787  -16.3760   26.6458 O   0  0  0  0  0  0  0  0  0  0  0  0
    9.1869  -17.5969   26.5061 O   0  0  0  0  0  0  0  0  0  0  0  0
  1  5  1  0
  1  2  1  0
  2  3  1  0
  4  3  1  0
  5  4  1  0
  6 16  1  0
  5  6  1  1
  7  6  2  0
  9  8  1  0
  9 10  2  0
 11  9  1  0
 12 11  1  0
 13 12  1  0
 14 13  1  0
 15 14  1  6
 15 16  1  0
 17 24  1  0
 17 15  1  0
 18 17  2  0
 20 19  1  0
 20 21  1  0
 21 22  1  0
 23 22  1  6
 23 24  1  0
 23 25  1  0
 25 27  1  0
 26 25  2  0
M  END
$$$$
