PRM.pdb
     RDKit          3D

 27 27  0  0  1  0  0  0  0  0999 V2000
    7.7712  -14.8991   17.8096 N   0  0  0  0  0  0  0  0  0  0  0  0
    7.9549  -14.0260   16.6474 C   0  0  0  0  0  0  0  0  0  0  0  0
    7.6829  -12.6619   17.2925 C   0  0  0  0  0  0  0  0  0  0  0  0
    8.1347  -12.8161   18.7314 C   0  0  0  0  0  0  0  0  0  0  0  0
    8.6114  -14.2533   18.7803 C   0  0  1  0  0  0  0  0  0  0  0  0
    8.4564  -14.8311   20.1374 C   0  0  0  0  0  0  0  0  0  0  0  0
    9.1336  -14.4120   21.1364 O   0  0  0  0  0  0  0  0  0  0  0  0
    7.6489  -21.1732   25.2004 N   0  0  0  0  0  0  0  0  0  0  0  0
    8.2300  -21.0524   23.9125 C   0  0  0  0  0  0  0  0  0  0  0  0
    9.4605  -21.3503   23.6511 N   0  0  0  0  0  0  0  0  0  0  0  0
    7.4022  -20.5716   22.8359 N   0  0  0  0  0  0  0  0  0  0  0  0
    6.1927  -19.8209   23.0919 C   0  0  0  0  0  0  0  0  0  0  0  0
    6.5564  -18.3529   23.1357 C   0  0  0  0  0  0  0  0  0  0  0  0
    6.9805  -17.8859   21.7367 C   0  0  0  0  0  0  0  0  0  0  0  0
    7.3542  -16.4279   21.7430 C   0  0  2  0  0  0  0  0  0  0  0  0
    7.5534  -15.8827   20.4296 N   0  0  0  0  0  0  0  0  0  0  0  0
    8.4424  -16.1321   22.6878 C   0  0  0  0  0  0  0  0  0  0  0  0
    9.4335  -15.4926   22.2948 O   0  0  0  0  0  0  0  0  0  0  0  0
    9.7563  -21.2684   22.6508 C   0  0  0  0  0  0  0  0  0  0  0  0
    6.7049  -11.1370   27.6025 S   0  0  0  0  0  0  0  0  0  0  0  0
    6.5285  -12.3182   26.2658 C   0  0  0  0  0  0  0  0  0  0  0  0
    7.8550  -13.5473   26.2329 C   0  0  0  0  0  0  0  0  0  0  0  0
    7.6560  -14.5336   25.1021 C   0  0  1  0  0  0  0  0  0  0  0  0
    8.6586  -15.6567   25.1541 N   0  0  0  0  0  0  0  0  0  0  0  0
    8.3866  -16.5568   24.0289 C   0  0  0  0  0  0  0  0  0  0  0  0
    8.6058  -16.3619   26.4419 O   0  0  0  0  0  0  0  0  0  0  0  0
    7.7896  -17.2450   26.7594 O   0  0  0  0  0  0  0  0  0  0  0  0
  1  5  1  0
  1  2  1  0
  2  3  1  0
  4  3  1  0
  5  4  1  0
  6 16  1  0
  5  6  1  1
  7  6  2  0
  9  8  1  0
  9 10  2  0
 11  9  1  0
 12 11  1  0
 13 12  1  0
 14 13  1  0
 15 14  1  6
 15 16  1  0
 17 24  1  0
 17 15  1  0
 18 17  2  0
 20 19  1  0
 20 21  1  0
 21 22  1  0
 23 22  1  6
 23 24  1  0
 23 25  1  0
 25 27  1  0
 26 25  2  0
M  END
$$$$
