PRM.pdb
     RDKit          3D

 27 27  0  0  1  0  0  0  0  0999 V2000
    6.1341  -18.8115   21.6588 N   0  0  0  0  0  0  0  0  0  0  0  0
    5.1061  -19.8042   21.3354 C   0  0  0  0  0  0  0  0  0  0  0  0
    5.9670  -20.8612   20.6337 C   0  0  0  0  0  0  0  0  0  0  0  0
    7.3297  -20.7490   21.2886 C   0  0  0  0  0  0  0  0  0  0  0  0
    7.1272  -19.6336   22.2936 C   0  0  1  0  0  0  0  0  0  0  0  0
    8.3896  -18.8994   22.5518 C   0  0  0  0  0  0  0  0  0  0  0  0
    9.3402  -19.4025   23.2413 O   0  0  0  0  0  0  0  0  0  0  0  0
    7.9153  -14.7792   17.5971 N   0  0  0  0  0  0  0  0  0  0  0  0
    8.2135  -13.4799   18.0808 C   0  0  0  0  0  0  0  0  0  0  0  0
    7.5154  -12.4307   17.7923 N   0  0  0  0  0  0  0  0  0  0  0  0
    9.3574  -13.3213   18.9419 N   0  0  0  0  0  0  0  0  0  0  0  0
   10.1754  -14.4509   19.3251 C   0  0  0  0  0  0  0  0  0  0  0  0
    9.5492  -15.0860   20.5472 C   0  0  0  0  0  0  0  0  0  0  0  0
   10.4224  -16.2544   21.0243 C   0  0  0  0  0  0  0  0  0  0  0  0
    9.8608  -16.8739   22.2759 C   0  0  2  0  0  0  0  0  0  0  0  0
    8.6382  -17.5950   22.0584 N   0  0  0  0  0  0  0  0  0  0  0  0
    9.8059  -15.9224   23.3966 C   0  0  0  0  0  0  0  0  0  0  0  0
    9.7712  -14.7026   23.1591 O   0  0  0  0  0  0  0  0  0  0  0  0
    7.8500  -11.5246   18.1948 C   0  0  0  0  0  0  0  0  0  0  0  0
    7.4129  -12.2488   27.4849 S   0  0  0  0  0  0  0  0  0  0  0  0
    6.6277  -13.1593   26.1554 C   0  0  0  0  0  0  0  0  0  0  0  0
    6.7123  -14.9516   26.3839 C   0  0  0  0  0  0  0  0  0  0  0  0
    7.5943  -15.5936   25.3346 C   0  0  1  0  0  0  0  0  0  0  0  0
    9.0302  -15.6763   25.7826 N   0  0  0  0  0  0  0  0  0  0  0  0
    9.7913  -16.3626   24.7338 C   0  0  0  0  0  0  0  0  0  0  0  0
    9.1480  -16.3595   27.0779 O   0  0  0  0  0  0  0  0  0  0  0  0
    9.2764  -15.8094   28.1860 O   0  0  0  0  0  0  0  0  0  0  0  0
  1  5  1  0
  1  2  1  0
  2  3  1  0
  4  3  1  0
  5  4  1  0
  6 16  1  0
  5  6  1  6
  7  6  2  0
  9  8  1  0
  9 10  2  0
 11  9  1  0
 12 11  1  0
 13 12  1  0
 14 13  1  0
 15 14  1  6
 15 16  1  0
 17 24  1  0
 17 15  1  0
 18 17  2  0
 20 19  1  0
 20 21  1  0
 21 22  1  0
 23 22  1  6
 23 24  1  0
 23 25  1  0
 25 27  1  0
 26 25  2  0
M  END
$$$$
