PRM.pdb
     RDKit          3D

 27 27  0  0  1  0  0  0  0  0999 V2000
    8.8686  -14.8122   17.9677 N   0  0  0  0  0  0  0  0  0  0  0  0
    8.8815  -13.9076   16.8152 C   0  0  0  0  0  0  0  0  0  0  0  0
    7.5623  -13.1613   17.0468 C   0  0  0  0  0  0  0  0  0  0  0  0
    7.3840  -13.1464   18.5522 C   0  0  0  0  0  0  0  0  0  0  0  0
    8.6077  -13.8935   19.0416 C   0  0  1  0  0  0  0  0  0  0  0  0
    8.3441  -14.5848   20.3269 C   0  0  0  0  0  0  0  0  0  0  0  0
    8.0100  -13.9504   21.3844 O   0  0  0  0  0  0  0  0  0  0  0  0
    8.9601  -22.7743   21.8172 N   0  0  0  0  0  0  0  0  0  0  0  0
    8.7829  -22.4912   23.1955 C   0  0  0  0  0  0  0  0  0  0  0  0
    8.7100  -23.4020   24.1101 N   0  0  0  0  0  0  0  0  0  0  0  0
    8.6794  -21.1119   23.5981 N   0  0  0  0  0  0  0  0  0  0  0  0
    7.9446  -20.1487   22.8079 C   0  0  0  0  0  0  0  0  0  0  0  0
    8.5470  -18.7837   23.0593 C   0  0  0  0  0  0  0  0  0  0  0  0
    8.8094  -18.0826   21.7196 C   0  0  0  0  0  0  0  0  0  0  0  0
    8.2845  -16.6720   21.7350 C   0  0  2  0  0  0  0  0  0  0  0  0
    8.4407  -15.9897   20.4813 N   0  0  0  0  0  0  0  0  0  0  0  0
    8.7625  -15.9085   22.8983 C   0  0  0  0  0  0  0  0  0  0  0  0
    9.9787  -15.6813   23.0199 O   0  0  0  0  0  0  0  0  0  0  0  0
    8.6201  -23.0643   25.0964 C   0  0  0  0  0  0  0  0  0  0  0  0
    6.6516  -10.5144   28.2780 S   0  0  0  0  0  0  0  0  0  0  0  0
    6.2478  -11.6148   26.9219 C   0  0  0  0  0  0  0  0  0  0  0  0
    7.5740  -12.7863   26.5472 C   0  0  0  0  0  0  0  0  0  0  0  0
    7.2266  -13.6358   25.3435 C   0  0  1  0  0  0  0  0  0  0  0  0
    8.3161  -14.6250   25.0216 N   0  0  0  0  0  0  0  0  0  0  0  0
    7.8726  -15.4283   23.8778 C   0  0  0  0  0  0  0  0  0  0  0  0
    8.6386  -15.4630   26.1844 O   0  0  0  0  0  0  0  0  0  0  0  0
    8.2115  -16.6111   26.3998 O   0  0  0  0  0  0  0  0  0  0  0  0
  1  5  1  0
  1  2  1  0
  2  3  1  0
  4  3  1  0
  5  4  1  0
  6 16  1  0
  5  6  1  1
  7  6  2  0
  9  8  1  0
  9 10  2  0
 11  9  1  0
 12 11  1  0
 13 12  1  0
 14 13  1  0
 15 14  1  6
 15 16  1  0
 17 24  1  0
 17 15  1  0
 18 17  2  0
 20 19  1  0
 20 21  1  0
 21 22  1  0
 23 22  1  6
 23 24  1  0
 23 25  1  0
 25 27  1  0
 26 25  2  0
M  END
$$$$
