PRM.pdb
     RDKit          3D

 27 27  0  0  1  0  0  0  0  0999 V2000
    6.8723  -19.5760   23.4448 N   0  0  0  0  0  0  0  0  0  0  0  0
    5.9296  -20.6966   23.3949 C   0  0  0  0  0  0  0  0  0  0  0  0
    4.9852  -20.2022   22.2929 C   0  0  0  0  0  0  0  0  0  0  0  0
    5.8567  -19.3566   21.3853 C   0  0  0  0  0  0  0  0  0  0  0  0
    7.2130  -19.4350   22.0558 C   0  0  1  0  0  0  0  0  0  0  0  0
    8.0207  -18.2196   21.7913 C   0  0  0  0  0  0  0  0  0  0  0  0
    9.2821  -18.2707   21.5947 O   0  0  0  0  0  0  0  0  0  0  0  0
   10.4410  -13.6588   17.7800 N   0  0  0  0  0  0  0  0  0  0  0  0
    9.1979  -13.9543   17.1648 C   0  0  0  0  0  0  0  0  0  0  0  0
    9.0851  -14.6144   16.0590 N   0  0  0  0  0  0  0  0  0  0  0  0
    7.9944  -13.4937   17.8088 N   0  0  0  0  0  0  0  0  0  0  0  0
    8.0367  -12.7898   19.0717 C   0  0  0  0  0  0  0  0  0  0  0  0
    8.6611  -13.7105   20.0972 C   0  0  0  0  0  0  0  0  0  0  0  0
    7.6824  -14.8432   20.4351 C   0  0  0  0  0  0  0  0  0  0  0  0
    8.2298  -15.7239   21.5261 C   0  0  2  0  0  0  0  0  0  0  0  0
    7.4621  -16.9190   21.7359 N   0  0  0  0  0  0  0  0  0  0  0  0
    8.5232  -14.9743   22.7576 C   0  0  0  0  0  0  0  0  0  0  0  0
    8.3278  -13.7469   22.7849 O   0  0  0  0  0  0  0  0  0  0  0  0
    8.1108  -14.8207   15.7379 C   0  0  0  0  0  0  0  0  0  0  0  0
    6.8341  -11.2831   28.5275 S   0  0  0  0  0  0  0  0  0  0  0  0
    6.6489  -12.3664   27.1114 C   0  0  0  0  0  0  0  0  0  0  0  0
    8.1208  -13.3688   26.7947 C   0  0  0  0  0  0  0  0  0  0  0  0
    7.9981  -14.1185   25.4854 C   0  0  1  0  0  0  0  0  0  0  0  0
    9.2413  -14.9098   25.1732 N   0  0  0  0  0  0  0  0  0  0  0  0
    9.0204  -15.6165   23.9076 C   0  0  0  0  0  0  0  0  0  0  0  0
    9.5741  -15.8358   26.2642 O   0  0  0  0  0  0  0  0  0  0  0  0
    9.2450  -17.0332   26.3334 O   0  0  0  0  0  0  0  0  0  0  0  0
  1  5  1  0
  1  2  1  0
  2  3  1  0
  4  3  1  0
  5  4  1  0
  6 16  1  0
  5  6  1  1
  7  6  2  0
  9  8  1  0
  9 10  2  0
 11  9  1  0
 12 11  1  0
 13 12  1  0
 14 13  1  0
 15 14  1  6
 15 16  1  0
 17 24  1  0
 17 15  1  0
 18 17  2  0
 20 19  1  0
 20 21  1  0
 21 22  1  0
 23 22  1  6
 23 24  1  0
 23 25  1  0
 25 27  1  0
 26 25  2  0
M  END
$$$$
