SST.pdb
     RDKit          3D

 20 19  0  0  1  0  0  0  0  0999 V2000
   14.0240  -10.7843   -8.9551 O   0  0  0  0  0  0  0  0  0  0  0  0
   14.3510   -9.6947   -9.7269 C   0  0  0  0  0  0  0  0  0  0  0  0
   14.3315   -8.4298   -8.8756 C   0  0  2  0  0  0  0  0  0  0  0  0
   12.9478   -8.1120   -8.5883 N   0  0  0  0  0  0  0  0  0  0  0  0
   15.0112   -7.3220   -9.5927 C   0  0  0  0  0  0  0  0  0  0  0  0
   14.4494   -6.8980  -10.6391 O   0  0  0  0  0  0  0  0  0  0  0  0
   15.4325   -3.9873   -9.0569 O   0  0  0  0  0  0  0  0  0  0  0  0
   16.7349   -4.4443   -8.9910 C   0  0  0  0  0  0  0  0  0  0  0  0
   16.8727   -5.7214   -9.8108 C   0  0  2  0  0  0  0  0  0  0  0  0
   16.2177   -6.8057   -9.0913 N   0  0  0  0  0  0  0  0  0  0  0  0
   18.3040   -6.0297  -10.0278 C   0  0  0  0  0  0  0  0  0  0  0  0
   19.0078   -6.3502   -9.0045 O   0  0  0  0  0  0  0  0  0  0  0  0
   19.6995   -7.6389  -13.4841 C   0  0  0  0  0  0  0  0  0  0  0  0
   20.4871   -7.6345  -12.2049 C   0  0  1  0  0  0  0  0  0  0  0  0
   21.8367   -7.9215  -12.4215 O   0  0  0  0  0  0  0  0  0  0  0  0
   20.3245   -6.3243  -11.4459 C   0  0  2  0  0  0  0  0  0  0  0  0
   18.9117   -5.9846  -11.3067 N   0  0  0  0  0  0  0  0  0  0  0  0
   20.9715   -5.2762  -12.2646 C   0  0  0  0  0  0  0  0  0  0  0  0
   20.1783   -4.3228  -12.8700 O   0  0  0  0  0  0  0  0  0  0  0  0
   22.2192   -5.2156  -12.4340 O   0  0  0  0  0  0  0  0  0  0  0  0
  2  1  1  0
  2  3  1  0
  3  5  1  0
  3  4  1  6
  5  6  2  0
  7  8  1  0
  9  8  1  1
 10  9  1  0
 10  5  1  0
 11 17  1  0
 11  9  1  0
 12 11  2  0
 14 13  1  6
 14 15  1  0
 14 16  1  0
 16 17  1  6
 18 16  1  0
 18 19  1  0
 20 18  2  0
M  END
$$$$
