SST.pdb
     RDKit          3D

 20 19  0  0  1  0  0  0  0  0999 V2000
   19.2037  -13.5827  -15.2778 O   0  0  0  0  0  0  0  0  0  0  0  0
   19.6474  -12.3083  -15.5403 C   0  0  0  0  0  0  0  0  0  0  0  0
   18.5968  -11.5464  -16.3408 C   0  0  2  0  0  0  0  0  0  0  0  0
   18.6582  -12.0161  -17.7097 N   0  0  0  0  0  0  0  0  0  0  0  0
   18.8467  -10.0861  -16.2503 C   0  0  0  0  0  0  0  0  0  0  0  0
   19.6779   -9.6038  -17.0667 O   0  0  0  0  0  0  0  0  0  0  0  0
   16.0078   -7.4456  -15.5404 O   0  0  0  0  0  0  0  0  0  0  0  0
   17.0805   -7.2437  -14.6930 C   0  0  0  0  0  0  0  0  0  0  0  0
   18.3322   -7.8750  -15.2903 C   0  0  2  0  0  0  0  0  0  0  0  0
   18.1668   -9.3225  -15.2868 N   0  0  0  0  0  0  0  0  0  0  0  0
   19.5208   -7.4843  -14.4997 C   0  0  0  0  0  0  0  0  0  0  0  0
   19.6924   -8.0484  -13.3606 O   0  0  0  0  0  0  0  0  0  0  0  0
   23.2182   -7.9348  -14.9458 C   0  0  0  0  0  0  0  0  0  0  0  0
   22.9099   -6.4663  -14.8734 C   0  0  1  0  0  0  0  0  0  0  0  0
   22.8835   -5.8751  -16.1384 O   0  0  0  0  0  0  0  0  0  0  0  0
   21.6138   -6.1977  -14.1201 C   0  0  2  0  0  0  0  0  0  0  0  0
   20.4602   -6.5252  -14.9523 N   0  0  0  0  0  0  0  0  0  0  0  0
   21.5802   -4.7464  -13.8372 C   0  0  0  0  0  0  0  0  0  0  0  0
   20.6586   -3.9620  -14.5007 O   0  0  0  0  0  0  0  0  0  0  0  0
   22.3586   -4.1932  -13.0143 O   0  0  0  0  0  0  0  0  0  0  0  0
  2  1  1  0
  2  3  1  0
  3  5  1  0
  3  4  1  6
  5  6  2  0
  7  8  1  0
  9  8  1  1
 10  9  1  0
 10  5  1  0
 11 17  1  0
 11  9  1  0
 12 11  2  0
 14 13  1  6
 14 15  1  0
 14 16  1  0
 16 17  1  6
 18 16  1  0
 18 19  1  0
 20 18  2  0
M  END
$$$$
