SST.pdb
     RDKit          3D

 20 19  0  0  1  0  0  0  0  0999 V2000
   19.2106  -14.7064  -14.9289 O   0  0  0  0  0  0  0  0  0  0  0  0
   19.6931  -13.5672  -15.5283 C   0  0  0  0  0  0  0  0  0  0  0  0
   18.6851  -13.0496  -16.5488 C   0  0  2  0  0  0  0  0  0  0  0  0
   18.8579  -13.8139  -17.7671 N   0  0  0  0  0  0  0  0  0  0  0  0
   18.8915  -11.5978  -16.7783 C   0  0  0  0  0  0  0  0  0  0  0  0
   19.6464  -11.2793  -17.7368 O   0  0  0  0  0  0  0  0  0  0  0  0
   16.6530   -8.8299  -14.6716 O   0  0  0  0  0  0  0  0  0  0  0  0
   17.0478   -8.5682  -15.9698 C   0  0  0  0  0  0  0  0  0  0  0  0
   18.3848   -9.2451  -16.2459 C   0  0  2  0  0  0  0  0  0  0  0  0
   18.2559  -10.6643  -15.9426 N   0  0  0  0  0  0  0  0  0  0  0  0
   19.4435   -8.6287  -15.4153 C   0  0  0  0  0  0  0  0  0  0  0  0
   19.5906   -9.0617  -14.2171 O   0  0  0  0  0  0  0  0  0  0  0  0
   23.2936   -8.4247  -15.7403 C   0  0  0  0  0  0  0  0  0  0  0  0
   22.6728   -7.0567  -15.7317 C   0  0  1  0  0  0  0  0  0  0  0  0
   22.5610   -6.5258  -17.0186 O   0  0  0  0  0  0  0  0  0  0  0  0
   21.3252   -7.0524  -15.0223 C   0  0  2  0  0  0  0  0  0  0  0  0
   20.2862   -7.5947  -15.8925 N   0  0  0  0  0  0  0  0  0  0  0  0
   20.9979   -5.6377  -14.7410 C   0  0  0  0  0  0  0  0  0  0  0  0
   19.9518   -5.0502  -15.4231 O   0  0  0  0  0  0  0  0  0  0  0  0
   21.6346   -4.9434  -13.9033 O   0  0  0  0  0  0  0  0  0  0  0  0
  2  1  1  0
  2  3  1  0
  3  5  1  0
  3  4  1  6
  5  6  2  0
  7  8  1  0
  9  8  1  1
 10  9  1  0
 10  5  1  0
 11 17  1  0
 11  9  1  0
 12 11  2  0
 14 13  1  6
 14 15  1  0
 14 16  1  0
 16 17  1  6
 18 16  1  0
 18 19  1  0
 20 18  2  0
M  END
$$$$
