SST.pdb
     RDKit          3D

 20 19  0  0  1  0  0  0  0  0999 V2000
   20.7567  -14.4276  -17.5742 O   0  0  0  0  0  0  0  0  0  0  0  0
   20.1927  -13.1778  -17.6730 C   0  0  0  0  0  0  0  0  0  0  0  0
   19.5434  -12.7941  -16.3477 C   0  0  2  0  0  0  0  0  0  0  0  0
   18.3880  -13.6472  -16.1586 N   0  0  0  0  0  0  0  0  0  0  0  0
   19.1685  -11.3580  -16.3603 C   0  0  0  0  0  0  0  0  0  0  0  0
   18.0029  -11.0820  -16.7544 O   0  0  0  0  0  0  0  0  0  0  0  0
   18.0426   -7.5378  -15.0368 O   0  0  0  0  0  0  0  0  0  0  0  0
   18.4323   -8.8626  -15.0895 C   0  0  0  0  0  0  0  0  0  0  0  0
   19.7010   -8.9913  -15.9237 C   0  0  2  0  0  0  0  0  0  0  0  0
   20.1004  -10.3922  -15.9449 N   0  0  0  0  0  0  0  0  0  0  0  0
   20.7735   -8.1523  -15.3437 C   0  0  0  0  0  0  0  0  0  0  0  0
   21.3746   -8.5895  -14.2985 O   0  0  0  0  0  0  0  0  0  0  0  0
   23.9362   -4.3417  -15.7074 C   0  0  0  0  0  0  0  0  0  0  0  0
   22.7894   -5.1208  -16.2859 C   0  0  1  0  0  0  0  0  0  0  0  0
   23.1210   -5.7076  -17.5092 O   0  0  0  0  0  0  0  0  0  0  0  0
   22.2636   -6.1626  -15.3075 C   0  0  2  0  0  0  0  0  0  0  0  0
   21.1526   -6.9040  -15.8963 N   0  0  0  0  0  0  0  0  0  0  0  0
   21.7522   -5.4226  -14.1335 C   0  0  0  0  0  0  0  0  0  0  0  0
   22.4826   -5.4486  -12.9628 O   0  0  0  0  0  0  0  0  0  0  0  0
   20.6755   -4.7673  -14.1557 O   0  0  0  0  0  0  0  0  0  0  0  0
  2  1  1  0
  2  3  1  0
  3  5  1  0
  3  4  1  6
  5  6  2  0
  7  8  1  0
  9  8  1  1
 10  9  1  0
 10  5  1  0
 11 17  1  0
 11  9  1  0
 12 11  2  0
 14 13  1  1
 14 15  1  0
 14 16  1  0
 16 17  1  6
 18 16  1  0
 18 19  1  0
 20 18  2  0
M  END
$$$$
