SST.pdb
     RDKit          3D

 20 19  0  0  1  0  0  0  0  0999 V2000
   14.6323   -9.3971  -13.4345 O   0  0  0  0  0  0  0  0  0  0  0  0
   15.8223   -8.7165  -13.3328 C   0  0  0  0  0  0  0  0  0  0  0  0
   16.8101   -9.5187  -12.4925 C   0  0  2  0  0  0  0  0  0  0  0  0
   16.3552   -9.4784  -11.1179 N   0  0  0  0  0  0  0  0  0  0  0  0
   18.1760   -8.9555  -12.6350 C   0  0  0  0  0  0  0  0  0  0  0  0
   18.4621   -7.9744  -11.8963 O   0  0  0  0  0  0  0  0  0  0  0  0
   22.5877   -9.5147  -14.4677 O   0  0  0  0  0  0  0  0  0  0  0  0
   21.2948   -9.9948  -14.3818 C   0  0  0  0  0  0  0  0  0  0  0  0
   20.4172   -8.9793  -13.6604 C   0  0  2  0  0  0  0  0  0  0  0  0
   19.0688   -9.5218  -13.5600 N   0  0  0  0  0  0  0  0  0  0  0  0
   20.4102   -7.6998  -14.4043 C   0  0  0  0  0  0  0  0  0  0  0  0
   19.6678   -7.6192  -15.4471 O   0  0  0  0  0  0  0  0  0  0  0  0
   19.4597   -4.5132  -13.0407 C   0  0  0  0  0  0  0  0  0  0  0  0
   19.7409   -4.6605  -14.5090 C   0  0  1  0  0  0  0  0  0  0  0  0
   19.6604   -3.4390  -15.1814 O   0  0  0  0  0  0  0  0  0  0  0  0
   21.0833   -5.3336  -14.7623 C   0  0  2  0  0  0  0  0  0  0  0  0
   21.1822   -6.5797  -14.0086 N   0  0  0  0  0  0  0  0  0  0  0  0
   22.1232   -4.4088  -14.2613 C   0  0  0  0  0  0  0  0  0  0  0  0
   22.3714   -3.2464  -14.9626 O   0  0  0  0  0  0  0  0  0  0  0  0
   22.7944   -4.6368  -13.2189 O   0  0  0  0  0  0  0  0  0  0  0  0
  2  1  1  0
  2  3  1  0
  3  5  1  0
  3  4  1  1
  5  6  2  0
  7  8  1  0
  9  8  1  6
 10  9  1  0
 10  5  1  0
 11 17  1  0
 11  9  1  0
 12 11  2  0
 14 13  1  1
 14 15  1  0
 14 16  1  0
 16 17  1  1
 18 16  1  0
 18 19  1  0
 20 18  2  0
M  END
$$$$
