SST.pdb
     RDKit          3D

 20 19  0  0  1  0  0  0  0  0999 V2000
   18.0049  -13.4807  -15.2050 O   0  0  0  0  0  0  0  0  0  0  0  0
   18.4263  -12.2757  -15.7151 C   0  0  0  0  0  0  0  0  0  0  0  0
   17.2456  -11.5275  -16.3247 C   0  0  2  0  0  0  0  0  0  0  0  0
   16.7896  -12.2830  -17.4733 N   0  0  0  0  0  0  0  0  0  0  0  0
   17.6535  -10.1507  -16.7005 C   0  0  0  0  0  0  0  0  0  0  0  0
   17.4879   -9.8221  -17.9066 O   0  0  0  0  0  0  0  0  0  0  0  0
   17.4012   -5.8289  -16.4478 O   0  0  0  0  0  0  0  0  0  0  0  0
   17.1671   -7.1849  -16.3210 C   0  0  0  0  0  0  0  0  0  0  0  0
   18.4847   -7.9133  -16.0857 C   0  0  2  0  0  0  0  0  0  0  0  0
   18.1918   -9.2943  -15.7257 N   0  0  0  0  0  0  0  0  0  0  0  0
   19.2457   -7.2437  -15.0072 C   0  0  0  0  0  0  0  0  0  0  0  0
   18.7629   -7.2872  -13.8197 O   0  0  0  0  0  0  0  0  0  0  0  0
   22.2249   -8.4411  -13.5366 C   0  0  0  0  0  0  0  0  0  0  0  0
   22.5472   -7.0604  -14.0335 C   0  0  1  0  0  0  0  0  0  0  0  0
   23.2107   -7.0892  -15.2621 O   0  0  0  0  0  0  0  0  0  0  0  0
   21.3052   -6.1821  -14.1062 C   0  0  2  0  0  0  0  0  0  0  0  0
   20.4696   -6.5688  -15.2389 N   0  0  0  0  0  0  0  0  0  0  0  0
   21.7764   -4.7986  -14.3329 C   0  0  0  0  0  0  0  0  0  0  0  0
   22.4271   -4.1426  -13.3078 O   0  0  0  0  0  0  0  0  0  0  0  0
   21.6090   -4.1908  -15.4246 O   0  0  0  0  0  0  0  0  0  0  0  0
  2  1  1  0
  2  3  1  0
  3  5  1  0
  3  4  1  6
  5  6  2  0
  7  8  1  0
  9  8  1  1
 10  9  1  0
 10  5  1  0
 11 17  1  0
 11  9  1  0
 12 11  2  0
 14 13  1  6
 14 15  1  0
 14 16  1  0
 16 17  1  6
 18 16  1  0
 18 19  1  0
 20 18  2  0
M  END
$$$$
