SST.pdb
     RDKit          3D

 20 19  0  0  1  0  0  0  0  0999 V2000
   22.9093  -22.8477  -16.9118 O   0  0  0  0  0  0  0  0  0  0  0  0
   23.7463  -21.9582  -16.2809 C   0  0  0  0  0  0  0  0  0  0  0  0
   24.7174  -21.3532  -17.2890 C   0  0  2  0  0  0  0  0  0  0  0  0
   23.9505  -20.9336  -18.4439 N   0  0  0  0  0  0  0  0  0  0  0  0
   25.7586  -22.3464  -17.6534 C   0  0  0  0  0  0  0  0  0  0  0  0
   25.7100  -22.8116  -18.8244 O   0  0  0  0  0  0  0  0  0  0  0  0
   29.4563  -21.9536  -16.5027 O   0  0  0  0  0  0  0  0  0  0  0  0
   29.0457  -23.2512  -16.2633 C   0  0  0  0  0  0  0  0  0  0  0  0
   27.8307  -23.5721  -17.1252 C   0  0  2  0  0  0  0  0  0  0  0  0
   26.7278  -22.7172  -16.7065 N   0  0  0  0  0  0  0  0  0  0  0  0
   27.4693  -24.9996  -16.9761 C   0  0  0  0  0  0  0  0  0  0  0  0
   26.4634  -25.2867  -16.2339 O   0  0  0  0  0  0  0  0  0  0  0  0
   28.0099  -29.7517  -18.3486 C   0  0  0  0  0  0  0  0  0  0  0  0
   28.3530  -28.3028  -18.5486 C   0  0  1  0  0  0  0  0  0  0  0  0
   28.0062  -27.8554  -19.8253 O   0  0  0  0  0  0  0  0  0  0  0  0
   27.7291  -27.4212  -17.4749 C   0  0  2  0  0  0  0  0  0  0  0  0
   28.1845  -26.0416  -17.6163 N   0  0  0  0  0  0  0  0  0  0  0  0
   28.2092  -27.9333  -16.1731 C   0  0  0  0  0  0  0  0  0  0  0  0
   27.4906  -28.9311  -15.5466 O   0  0  0  0  0  0  0  0  0  0  0  0
   29.2490  -27.4970  -15.6095 O   0  0  0  0  0  0  0  0  0  0  0  0
  2  1  1  0
  2  3  1  0
  3  5  1  0
  3  4  1  6
  5  6  2  0
  7  8  1  0
  9  8  1  1
 10  9  1  0
 10  5  1  0
 11 17  1  0
 11  9  1  0
 12 11  2  0
 14 13  1  1
 14 15  1  0
 14 16  1  0
 16 17  1  6
 18 16  1  0
 18 19  1  0
 20 18  2  0
M  END
$$$$
