SST.pdb
     RDKit          3D

 20 19  0  0  1  0  0  0  0  0999 V2000
   22.0112  -10.9484  -20.8990 O   0  0  0  0  0  0  0  0  0  0  0  0
   21.6704   -9.9745  -19.9906 C   0  0  0  0  0  0  0  0  0  0  0  0
   20.5039  -10.4502  -19.1313 C   0  0  2  0  0  0  0  0  0  0  0  0
   19.3484  -10.5900  -19.9935 N   0  0  0  0  0  0  0  0  0  0  0  0
   20.2540   -9.4852  -18.0315 C   0  0  0  0  0  0  0  0  0  0  0  0
   19.6155   -8.4400  -18.3316 O   0  0  0  0  0  0  0  0  0  0  0  0
   19.4066  -10.4272  -14.1671 O   0  0  0  0  0  0  0  0  0  0  0  0
   20.5077   -9.6090  -14.3338 C   0  0  0  0  0  0  0  0  0  0  0  0
   20.3914   -8.8547  -15.6527 C   0  0  2  0  0  0  0  0  0  0  0  0
   20.7251   -9.7671  -16.7384 N   0  0  0  0  0  0  0  0  0  0  0  0
   21.3057   -7.6907  -15.6506 C   0  0  0  0  0  0  0  0  0  0  0  0
   22.5087   -7.8754  -16.0553 O   0  0  0  0  0  0  0  0  0  0  0  0
   21.9295   -2.8040  -15.8091 C   0  0  0  0  0  0  0  0  0  0  0  0
   21.0364   -4.0108  -15.7537 C   0  0  1  0  0  0  0  0  0  0  0  0
   20.3242   -4.1884  -16.9419 O   0  0  0  0  0  0  0  0  0  0  0  0
   21.8111   -5.2706  -15.3902 C   0  0  2  0  0  0  0  0  0  0  0  0
   20.9025   -6.4011  -15.2248 N   0  0  0  0  0  0  0  0  0  0  0  0
   22.4614   -5.0083  -14.0880 C   0  0  0  0  0  0  0  0  0  0  0  0
   23.7045   -4.4090  -14.0757 O   0  0  0  0  0  0  0  0  0  0  0  0
   21.9282   -5.3090  -12.9860 O   0  0  0  0  0  0  0  0  0  0  0  0
  2  1  1  0
  2  3  1  0
  3  5  1  0
  3  4  1  6
  5  6  2  0
  7  8  1  0
  9  8  1  1
 10  9  1  0
 10  5  1  0
 11 17  1  0
 11  9  1  0
 12 11  2  0
 14 13  1  6
 14 15  1  0
 14 16  1  0
 16 17  1  1
 18 16  1  0
 18 19  1  0
 20 18  2  0
M  END
$$$$
