SST.pdb
     RDKit          3D

 20 19  0  0  1  0  0  0  0  0999 V2000
   18.6608   -4.4711  -14.8642 O   0  0  0  0  0  0  0  0  0  0  0  0
   18.3196   -5.6090  -14.1724 C   0  0  0  0  0  0  0  0  0  0  0  0
   19.4028   -5.9417  -13.1520 C   0  0  2  0  0  0  0  0  0  0  0  0
   20.2791   -6.9310  -13.7450 N   0  0  0  0  0  0  0  0  0  0  0  0
   18.7857   -6.4378  -11.8965 C   0  0  0  0  0  0  0  0  0  0  0  0
   18.8106   -7.6846  -11.7093 O   0  0  0  0  0  0  0  0  0  0  0  0
   16.4174   -3.9698   -9.5449 O   0  0  0  0  0  0  0  0  0  0  0  0
   17.2453   -4.8550   -8.8810 C   0  0  0  0  0  0  0  0  0  0  0  0
   17.5709   -6.0336   -9.7903 C   0  0  2  0  0  0  0  0  0  0  0  0
   18.2153   -5.5249  -10.9939 N   0  0  0  0  0  0  0  0  0  0  0  0
   16.3303   -6.7646  -10.1326 C   0  0  0  0  0  0  0  0  0  0  0  0
   15.8044   -6.5436  -11.2814 O   0  0  0  0  0  0  0  0  0  0  0  0
   13.2120  -10.5027   -9.6007 C   0  0  0  0  0  0  0  0  0  0  0  0
   14.5320   -9.8304   -9.3505 C   0  0  1  0  0  0  0  0  0  0  0  0
   15.5690  -10.4332  -10.0659 O   0  0  0  0  0  0  0  0  0  0  0  0
   14.4686   -8.3364   -9.6389 C   0  0  2  0  0  0  0  0  0  0  0  0
   15.7157   -7.6858   -9.2489 N   0  0  0  0  0  0  0  0  0  0  0  0
   13.3812   -7.7877   -8.7999 C   0  0  0  0  0  0  0  0  0  0  0  0
   13.7101   -7.1479   -7.6221 O   0  0  0  0  0  0  0  0  0  0  0  0
   12.1639   -7.8793   -9.1145 O   0  0  0  0  0  0  0  0  0  0  0  0
  2  1  1  0
  2  3  1  0
  3  5  1  0
  3  4  1  6
  5  6  2  0
  7  8  1  0
  9  8  1  1
 10  9  1  0
 10  5  1  0
 11 17  1  0
 11  9  1  0
 12 11  2  0
 14 13  1  6
 14 15  1  0
 14 16  1  0
 16 17  1  1
 18 16  1  0
 18 19  1  0
 20 18  2  0
M  END
$$$$
