SST.pdb
     RDKit          3D

 20 19  0  0  1  0  0  0  0  0999 V2000
   11.4830   -9.4940   -9.1490 O   0  0  0  0  0  0  0  0  0  0  0  0
   11.6643  -10.8560   -9.1926 C   0  0  0  0  0  0  0  0  0  0  0  0
   12.5587  -11.2242  -10.3715 C   0  0  2  0  0  0  0  0  0  0  0  0
   12.8131  -12.6486  -10.3050 N   0  0  0  0  0  0  0  0  0  0  0  0
   13.8176  -10.4393  -10.3212 C   0  0  0  0  0  0  0  0  0  0  0  0
   14.5183  -10.5622   -9.2801 O   0  0  0  0  0  0  0  0  0  0  0  0
   17.7714   -9.2374  -11.1342 O   0  0  0  0  0  0  0  0  0  0  0  0
   16.5623   -9.9015  -11.2146 C   0  0  0  0  0  0  0  0  0  0  0  0
   15.4306   -8.8913  -11.3588 C   0  0  2  0  0  0  0  0  0  0  0  0
   14.1672   -9.6153  -11.4040 N   0  0  0  0  0  0  0  0  0  0  0  0
   15.6193   -8.0949  -12.5921 C   0  0  0  0  0  0  0  0  0  0  0  0
   15.3619   -8.6609  -13.7139 O   0  0  0  0  0  0  0  0  0  0  0  0
   15.8464   -3.7834  -14.9168 C   0  0  0  0  0  0  0  0  0  0  0  0
   15.6375   -4.6016  -13.6743 C   0  0  1  0  0  0  0  0  0  0  0  0
   14.2966   -4.6261  -13.2845 O   0  0  0  0  0  0  0  0  0  0  0  0
   16.1850   -6.0142  -13.8294 C   0  0  2  0  0  0  0  0  0  0  0  0
   16.0660   -6.7505  -12.5746 N   0  0  0  0  0  0  0  0  0  0  0  0
   17.6226   -5.8796  -14.1495 C   0  0  0  0  0  0  0  0  0  0  0  0
   17.9906   -5.6196  -15.4540 O   0  0  0  0  0  0  0  0  0  0  0  0
   18.5289   -5.9923  -13.2805 O   0  0  0  0  0  0  0  0  0  0  0  0
  2  1  1  0
  2  3  1  0
  3  5  1  0
  3  4  1  1
  5  6  2  0
  7  8  1  0
  9  8  1  6
 10  9  1  0
 10  5  1  0
 11 17  1  0
 11  9  1  0
 12 11  2  0
 14 13  1  6
 14 15  1  0
 14 16  1  0
 16 17  1  1
 18 16  1  0
 18 19  1  0
 20 18  2  0
M  END
$$$$
