SST.pdb
     RDKit          3D

 20 19  0  0  1  0  0  0  0  0999 V2000
   15.5762  -13.1518  -17.0376 O   0  0  0  0  0  0  0  0  0  0  0  0
   16.0556  -12.3308  -16.0446 C   0  0  0  0  0  0  0  0  0  0  0  0
   17.5795  -12.3790  -16.0206 C   0  0  2  0  0  0  0  0  0  0  0  0
   17.9722  -13.6492  -15.4456 N   0  0  0  0  0  0  0  0  0  0  0  0
   18.1136  -11.2351  -15.2400 C   0  0  0  0  0  0  0  0  0  0  0  0
   18.8497  -11.5176  -14.2559 O   0  0  0  0  0  0  0  0  0  0  0  0
   20.2267   -8.8061  -16.5686 O   0  0  0  0  0  0  0  0  0  0  0  0
   19.9662   -8.9496  -15.2191 C   0  0  0  0  0  0  0  0  0  0  0  0
   18.4696   -8.8114  -14.9679 C   0  0  2  0  0  0  0  0  0  0  0  0
   17.7870   -9.9221  -15.6181 N   0  0  0  0  0  0  0  0  0  0  0  0
   17.9858   -7.5182  -15.5010 C   0  0  0  0  0  0  0  0  0  0  0  0
   17.9220   -7.3837  -16.7750 O   0  0  0  0  0  0  0  0  0  0  0  0
   14.6489   -5.5920  -14.5681 C   0  0  0  0  0  0  0  0  0  0  0  0
   15.8658   -4.7231  -14.4224 C   0  0  1  0  0  0  0  0  0  0  0  0
   16.2415   -4.5704  -13.0860 O   0  0  0  0  0  0  0  0  0  0  0  0
   17.0298   -5.2361  -15.2597 C   0  0  2  0  0  0  0  0  0  0  0  0
   17.5962   -6.4428  -14.6650 N   0  0  0  0  0  0  0  0  0  0  0  0
   18.0664   -4.1815  -15.2370 C   0  0  0  0  0  0  0  0  0  0  0  0
   19.2185   -4.3988  -14.5089 O   0  0  0  0  0  0  0  0  0  0  0  0
   17.9432   -3.0898  -15.8554 O   0  0  0  0  0  0  0  0  0  0  0  0
  2  1  1  0
  2  3  1  0
  3  5  1  0
  3  4  1  1
  5  6  2  0
  7  8  1  0
  9  8  1  6
 10  9  1  0
 10  5  1  0
 11 17  1  0
 11  9  1  0
 12 11  2  0
 14 13  1  1
 14 15  1  0
 14 16  1  0
 16 17  1  1
 18 16  1  0
 18 19  1  0
 20 18  2  0
M  END
$$$$
