SST.pdb
     RDKit          3D

 20 19  0  0  1  0  0  0  0  0999 V2000
   16.8051   -9.0830  -16.9260 O   0  0  0  0  0  0  0  0  0  0  0  0
   17.6937   -9.8745  -17.6145 C   0  0  0  0  0  0  0  0  0  0  0  0
   18.4320  -10.7917  -16.6455 C   0  0  2  0  0  0  0  0  0  0  0  0
   17.4704  -11.7324  -16.1083 N   0  0  0  0  0  0  0  0  0  0  0  0
   19.0733   -9.9904  -15.5732 C   0  0  0  0  0  0  0  0  0  0  0  0
   18.3196   -9.5738  -14.6521 O   0  0  0  0  0  0  0  0  0  0  0  0
   23.1532   -9.5706  -15.5063 O   0  0  0  0  0  0  0  0  0  0  0  0
   22.4664   -9.4555  -14.3127 C   0  0  0  0  0  0  0  0  0  0  0  0
   21.0618   -8.9273  -14.5779 C   0  0  2  0  0  0  0  0  0  0  0  0
   20.4539   -9.7360  -15.6262 N   0  0  0  0  0  0  0  0  0  0  0  0
   21.1260   -7.5063  -14.9869 C   0  0  0  0  0  0  0  0  0  0  0  0
   21.1690   -7.2475  -16.2424 O   0  0  0  0  0  0  0  0  0  0  0  0
   20.2128   -2.7923  -14.4005 C   0  0  0  0  0  0  0  0  0  0  0  0
   20.0231   -4.2599  -14.1418 C   0  0  1  0  0  0  0  0  0  0  0  0
   18.8812   -4.7582  -14.7730 O   0  0  0  0  0  0  0  0  0  0  0  0
   21.2553   -5.0660  -14.5306 C   0  0  2  0  0  0  0  0  0  0  0  0
   21.1399   -6.4406  -14.0535 N   0  0  0  0  0  0  0  0  0  0  0  0
   22.4068   -4.4370  -13.8483 C   0  0  0  0  0  0  0  0  0  0  0  0
   22.8055   -4.9342  -12.6241 O   0  0  0  0  0  0  0  0  0  0  0  0
   23.0418   -3.4639  -14.3373 O   0  0  0  0  0  0  0  0  0  0  0  0
  2  1  1  0
  2  3  1  0
  3  5  1  0
  3  4  1  1
  5  6  2  0
  7  8  1  0
  9  8  1  6
 10  9  1  0
 10  5  1  0
 11 17  1  0
 11  9  1  0
 12 11  2  0
 14 13  1  6
 14 15  1  0
 14 16  1  0
 16 17  1  1
 18 16  1  0
 18 19  1  0
 20 18  2  0
M  END
$$$$
