SST.pdb
     RDKit          3D

 20 19  0  0  1  0  0  0  0  0999 V2000
   17.2419   -8.5415  -16.7586 O   0  0  0  0  0  0  0  0  0  0  0  0
   17.8209   -9.6410  -17.3464 C   0  0  0  0  0  0  0  0  0  0  0  0
   18.3563  -10.5829  -16.2733 C   0  0  2  0  0  0  0  0  0  0  0  0
   17.2196  -11.1721  -15.5958 N   0  0  0  0  0  0  0  0  0  0  0  0
   19.2306   -9.8393  -15.3322 C   0  0  0  0  0  0  0  0  0  0  0  0
   18.6756   -9.3541  -14.3092 O   0  0  0  0  0  0  0  0  0  0  0  0
   23.2300   -9.4906  -16.1569 O   0  0  0  0  0  0  0  0  0  0  0  0
   22.8672   -9.3833  -14.8278 C   0  0  0  0  0  0  0  0  0  0  0  0
   21.4265   -8.8975  -14.7268 C   0  0  2  0  0  0  0  0  0  0  0  0
   20.6014   -9.7098  -15.6112 N   0  0  0  0  0  0  0  0  0  0  0  0
   21.3478   -7.4692  -15.1066 C   0  0  0  0  0  0  0  0  0  0  0  0
   21.3126   -7.1846  -16.3568 O   0  0  0  0  0  0  0  0  0  0  0  0
   18.9764   -5.0145  -15.5102 C   0  0  0  0  0  0  0  0  0  0  0  0
   19.9149   -4.4359  -14.4897 C   0  0  1  0  0  0  0  0  0  0  0  0
   19.4187   -4.5660  -13.1907 O   0  0  0  0  0  0  0  0  0  0  0  0
   21.3104   -5.0353  -14.6017 C   0  0  2  0  0  0  0  0  0  0  0  0
   21.3094   -6.4237  -14.1513 N   0  0  0  0  0  0  0  0  0  0  0  0
   22.1808   -4.2573  -13.6936 C   0  0  0  0  0  0  0  0  0  0  0  0
   22.5796   -4.8310  -12.5034 O   0  0  0  0  0  0  0  0  0  0  0  0
   22.5752   -3.0900  -13.9600 O   0  0  0  0  0  0  0  0  0  0  0  0
  2  1  1  0
  2  3  1  0
  3  5  1  0
  3  4  1  1
  5  6  2  0
  7  8  1  0
  9  8  1  6
 10  9  1  0
 10  5  1  0
 11 17  1  0
 11  9  1  0
 12 11  2  0
 14 13  1  6
 14 15  1  0
 14 16  1  0
 16 17  1  1
 18 16  1  0
 18 19  1  0
 20 18  2  0
M  END
$$$$
