SST.pdb
     RDKit          3D

 20 19  0  0  1  0  0  0  0  0999 V2000
   21.4101  -12.0407  -20.8124 O   0  0  0  0  0  0  0  0  0  0  0  0
   20.9214  -11.0322  -20.0162 C   0  0  0  0  0  0  0  0  0  0  0  0
   20.5169  -11.5925  -18.6569 C   0  0  2  0  0  0  0  0  0  0  0  0
   19.3995  -12.4906  -18.8642 N   0  0  0  0  0  0  0  0  0  0  0  0
   20.1664  -10.4851  -17.7327 C   0  0  0  0  0  0  0  0  0  0  0  0
   19.2132   -9.7376  -18.0829 O   0  0  0  0  0  0  0  0  0  0  0  0
   21.6772  -10.4594  -13.9540 O   0  0  0  0  0  0  0  0  0  0  0  0
   20.4952   -9.7915  -14.2119 C   0  0  0  0  0  0  0  0  0  0  0  0
   20.5157   -9.2422  -15.6331 C   0  0  2  0  0  0  0  0  0  0  0  0
   20.8899  -10.3194  -16.5399 N   0  0  0  0  0  0  0  0  0  0  0  0
   21.4795   -8.1230  -15.7276 C   0  0  0  0  0  0  0  0  0  0  0  0
   22.6915   -8.4031  -16.0402 O   0  0  0  0  0  0  0  0  0  0  0  0
   20.1576   -4.2319  -16.1728 C   0  0  0  0  0  0  0  0  0  0  0  0
   21.5623   -4.6099  -16.5483 C   0  0  1  0  0  0  0  0  0  0  0  0
   22.4175   -3.5057  -16.5499 O   0  0  0  0  0  0  0  0  0  0  0  0
   22.1065   -5.7184  -15.6570 C   0  0  2  0  0  0  0  0  0  0  0  0
   21.1136   -6.7752  -15.4895 N   0  0  0  0  0  0  0  0  0  0  0  0
   22.3610   -5.1117  -14.3324 C   0  0  0  0  0  0  0  0  0  0  0  0
   23.4389   -4.2621  -14.1876 O   0  0  0  0  0  0  0  0  0  0  0  0
   21.6343   -5.3374  -13.3273 O   0  0  0  0  0  0  0  0  0  0  0  0
  2  1  1  0
  2  3  1  0
  3  5  1  0
  3  4  1  6
  5  6  2  0
  7  8  1  0
  9  8  1  1
 10  9  1  0
 10  5  1  0
 11 17  1  0
 11  9  1  0
 12 11  2  0
 14 13  1  1
 14 15  1  0
 14 16  1  0
 16 17  1  1
 18 16  1  0
 18 19  1  0
 20 18  2  0
M  END
$$$$
