SST.pdb
     RDKit          3D

 20 19  0  0  1  0  0  0  0  0999 V2000
   17.5704  -13.2887  -14.7138 O   0  0  0  0  0  0  0  0  0  0  0  0
   18.1351  -12.0509  -14.9109 C   0  0  0  0  0  0  0  0  0  0  0  0
   17.0589  -11.0451  -15.3049 C   0  0  2  0  0  0  0  0  0  0  0  0
   16.7114  -11.2897  -16.6897 N   0  0  0  0  0  0  0  0  0  0  0  0
   17.5548   -9.6611  -15.1001 C   0  0  0  0  0  0  0  0  0  0  0  0
   18.1050   -9.1062  -16.0898 O   0  0  0  0  0  0  0  0  0  0  0  0
   17.0864   -7.7898  -11.4294 O   0  0  0  0  0  0  0  0  0  0  0  0
   16.9080   -7.0428  -12.5782 C   0  0  0  0  0  0  0  0  0  0  0  0
   17.7399   -7.6346  -13.7095 C   0  0  2  0  0  0  0  0  0  0  0  0
   17.3959   -9.0434  -13.8484 N   0  0  0  0  0  0  0  0  0  0  0  0
   19.1811   -7.4769  -13.4118 C   0  0  0  0  0  0  0  0  0  0  0  0
   19.7184   -8.3123  -12.6004 O   0  0  0  0  0  0  0  0  0  0  0  0
   22.2090   -8.0964  -15.3337 C   0  0  0  0  0  0  0  0  0  0  0  0
   22.2221   -6.6459  -14.9430 C   0  0  1  0  0  0  0  0  0  0  0  0
   21.8027   -5.8197  -15.9880 O   0  0  0  0  0  0  0  0  0  0  0  0
   21.4012   -6.3921  -13.6856 C   0  0  2  0  0  0  0  0  0  0  0  0
   19.9737   -6.4519  -13.9849 N   0  0  0  0  0  0  0  0  0  0  0  0
   21.7209   -5.0186  -13.2398 C   0  0  0  0  0  0  0  0  0  0  0  0
   22.9593   -4.7730  -12.6826 O   0  0  0  0  0  0  0  0  0  0  0  0
   20.9093   -4.0600  -13.3469 O   0  0  0  0  0  0  0  0  0  0  0  0
  2  1  1  0
  2  3  1  0
  3  5  1  0
  3  4  1  6
  5  6  2  0
  7  8  1  0
  9  8  1  1
 10  9  1  0
 10  5  1  0
 11 17  1  0
 11  9  1  0
 12 11  2  0
 14 13  1  6
 14 15  1  0
 14 16  1  0
 16 17  1  6
 18 16  1  0
 18 19  1  0
 20 18  2  0
M  END
$$$$
