GQF.pdb
     RDKit          3D

 25 25  0  0  1  0  0  0  0  0999 V2000
    3.4300  -20.8937   22.3543 N   0  0  0  0  0  0  0  0  0  0  0  0
    4.6815  -20.3382   21.9146 C   0  0  0  0  0  0  0  0  0  0  0  0
    5.2025  -19.3315   22.9057 C   0  0  0  0  0  0  0  0  0  0  0  0
    4.6457  -18.1988   23.0058 O   0  0  0  0  0  0  0  0  0  0  0  0
    6.7563  -21.3085   28.9434 N   0  0  0  0  0  0  0  0  0  0  0  0
    7.4266  -20.8081   27.8125 C   0  0  0  0  0  0  0  0  0  0  0  0
    8.6678  -20.9911   27.6403 O   0  0  0  0  0  0  0  0  0  0  0  0
    6.6285  -20.0485   26.8114 C   0  0  0  0  0  0  0  0  0  0  0  0
    7.5708  -19.4745   25.7800 C   0  0  0  0  0  0  0  0  0  0  0  0
    6.8304  -18.6842   24.7244 C   0  0  2  0  0  0  0  0  0  0  0  0
    6.3111  -19.6189   23.7392 N   0  0  0  0  0  0  0  0  0  0  0  0
    7.8152  -17.7502   24.1170 C   0  0  0  0  0  0  0  0  0  0  0  0
    8.5480  -18.1425   23.1925 O   0  0  0  0  0  0  0  0  0  0  0  0
    7.9076  -16.4200   24.6001 N   0  0  0  0  0  0  0  0  0  0  0  0
    8.8951  -15.4557   24.0897 C   0  0  1  0  0  0  0  0  0  0  0  0
    8.2006  -14.1538   23.7399 C   0  0  0  0  0  0  0  0  0  0  0  0
    7.5920  -13.4704   24.8896 C   0  0  0  0  0  0  0  0  0  0  0  0
    8.3456  -12.6453   25.7094 C   0  0  0  0  0  0  0  0  0  0  0  0
    7.7848  -11.9900   26.7878 C   0  0  0  0  0  0  0  0  0  0  0  0
    6.4528  -12.1306   27.0918 C   0  0  0  0  0  0  0  0  0  0  0  0
    5.6902  -12.9487   26.2848 C   0  0  0  0  0  0  0  0  0  0  0  0
    6.2591  -13.6069   25.1993 C   0  0  0  0  0  0  0  0  0  0  0  0
   10.0316  -15.3128   24.9925 C   0  0  0  0  0  0  0  0  0  0  0  0
    9.9597  -15.7950   26.2876 O   0  0  0  0  0  0  0  0  0  0  0  0
   11.1325  -14.7558   24.6732 O   0  0  0  0  0  0  0  0  0  0  0  0
  1  2  1  0
  3  2  1  0
  4  3  2  0
  5  6  1  0
  6  7  2  0
  8  9  1  0
  8  6  1  0
 10  9  1  1
 10 11  1  0
 10 12  1  0
 11  3  1  0
 12 13  2  0
 12 14  1  0
 14 15  1  0
 15 16  1  1
 15 23  1  0
 16 17  1  0
 17 22  2  0
 18 19  2  0
 18 17  1  0
 19 20  1  0
 20 21  2  0
 22 21  1  0
 23 24  1  0
 25 23  2  0
M  END
$$$$
