GQF.pdb
     RDKit          3D

 25 25  0  0  1  0  0  0  0  0999 V2000
    5.6240  -18.9667   20.4186 N   0  0  0  0  0  0  0  0  0  0  0  0
    5.5030  -17.7038   21.0958 C   0  0  0  0  0  0  0  0  0  0  0  0
    6.8344  -17.0052   21.1760 C   0  0  0  0  0  0  0  0  0  0  0  0
    7.8928  -17.6277   20.8670 O   0  0  0  0  0  0  0  0  0  0  0  0
    8.8209  -12.1219   18.6436 N   0  0  0  0  0  0  0  0  0  0  0  0
    8.1185  -13.3032   18.9438 C   0  0  0  0  0  0  0  0  0  0  0  0
    8.3004  -14.3700   18.2863 O   0  0  0  0  0  0  0  0  0  0  0  0
    7.1439  -13.2652   20.0685 C   0  0  0  0  0  0  0  0  0  0  0  0
    7.8956  -13.4636   21.3635 C   0  0  0  0  0  0  0  0  0  0  0  0
    8.1943  -14.9240   21.6186 C   0  0  2  0  0  0  0  0  0  0  0  0
    6.9380  -15.6552   21.5922 N   0  0  0  0  0  0  0  0  0  0  0  0
    8.8381  -15.0038   22.9565 C   0  0  0  0  0  0  0  0  0  0  0  0
    9.9528  -14.4835   23.1363 O   0  0  0  0  0  0  0  0  0  0  0  0
    8.1722  -15.6738   24.0144 N   0  0  0  0  0  0  0  0  0  0  0  0
    8.7200  -15.7478   25.3782 C   0  0  1  0  0  0  0  0  0  0  0  0
    7.6481  -15.3605   26.3785 C   0  0  0  0  0  0  0  0  0  0  0  0
    7.3707  -13.9185   26.4329 C   0  0  0  0  0  0  0  0  0  0  0  0
    6.0853  -13.4324   26.2538 C   0  0  0  0  0  0  0  0  0  0  0  0
    5.8088  -12.0807   26.3112 C   0  0  0  0  0  0  0  0  0  0  0  0
    6.8008  -11.1609   26.5489 C   0  0  0  0  0  0  0  0  0  0  0  0
    8.0851  -11.6300   26.7291 C   0  0  0  0  0  0  0  0  0  0  0  0
    8.3593  -12.9925   26.6706 C   0  0  0  0  0  0  0  0  0  0  0  0
    9.3560  -17.0341   25.6389 C   0  0  0  0  0  0  0  0  0  0  0  0
    9.3235  -18.0355   24.6846 O   0  0  0  0  0  0  0  0  0  0  0  0
    9.9649  -17.3243   26.7203 O   0  0  0  0  0  0  0  0  0  0  0  0
  1  2  1  0
  3  2  1  0
  4  3  2  0
  5  6  1  0
  6  7  2  0
  8  9  1  0
  8  6  1  0
 10  9  1  1
 10 11  1  0
 10 12  1  0
 11  3  1  0
 12 13  2  0
 12 14  1  0
 14 15  1  0
 15 16  1  1
 15 23  1  0
 16 17  1  0
 17 22  2  0
 18 19  2  0
 18 17  1  0
 19 20  1  0
 20 21  2  0
 22 21  1  0
 23 24  1  0
 25 23  2  0
M  END
$$$$
