GQF.pdb
     RDKit          3D

 25 25  0  0  1  0  0  0  0  0999 V2000
    5.5962  -19.8561   21.5085 N   0  0  0  0  0  0  0  0  0  0  0  0
    5.3781  -18.5397   22.0448 C   0  0  0  0  0  0  0  0  0  0  0  0
    6.5302  -17.6269   21.7186 C   0  0  0  0  0  0  0  0  0  0  0  0
    7.6299  -18.1155   21.3247 O   0  0  0  0  0  0  0  0  0  0  0  0
    7.5457  -13.9542   18.7972 N   0  0  0  0  0  0  0  0  0  0  0  0
    8.3630  -13.1025   19.5625 C   0  0  0  0  0  0  0  0  0  0  0  0
    9.3503  -12.4947   19.0533 O   0  0  0  0  0  0  0  0  0  0  0  0
    8.0323  -12.9329   21.0040 C   0  0  0  0  0  0  0  0  0  0  0  0
    6.9554  -13.9263   21.3708 C   0  0  0  0  0  0  0  0  0  0  0  0
    7.5243  -15.3086   21.6002 C   0  0  2  0  0  0  0  0  0  0  0  0
    6.4177  -16.2202   21.8413 N   0  0  0  0  0  0  0  0  0  0  0  0
    8.4159  -15.2151   22.7866 C   0  0  0  0  0  0  0  0  0  0  0  0
    9.5445  -14.7068   22.6711 O   0  0  0  0  0  0  0  0  0  0  0  0
    7.9679  -15.7079   24.0387 N   0  0  0  0  0  0  0  0  0  0  0  0
    8.7417  -15.5455   25.2799 C   0  0  1  0  0  0  0  0  0  0  0  0
    7.7996  -15.2552   26.4322 C   0  0  0  0  0  0  0  0  0  0  0  0
    7.2995  -13.8738   26.4652 C   0  0  0  0  0  0  0  0  0  0  0  0
    8.1743  -12.7999   26.5134 C   0  0  0  0  0  0  0  0  0  0  0  0
    7.7186  -11.4965   26.5360 C   0  0  0  0  0  0  0  0  0  0  0  0
    6.3751  -11.2119   26.5115 C   0  0  0  0  0  0  0  0  0  0  0  0
    5.4926  -12.2706   26.4636 C   0  0  0  0  0  0  0  0  0  0  0  0
    5.9559  -13.5821   26.4409 C   0  0  0  0  0  0  0  0  0  0  0  0
    9.6479  -16.6657   25.5055 C   0  0  0  0  0  0  0  0  0  0  0  0
    9.6738  -17.7317   24.6235 O   0  0  0  0  0  0  0  0  0  0  0  0
   10.4520  -16.7474   26.4909 O   0  0  0  0  0  0  0  0  0  0  0  0
  1  2  1  0
  3  2  1  0
  4  3  2  0
  5  6  1  0
  6  7  2  0
  8  9  1  0
  8  6  1  0
 10  9  1  1
 10 11  1  0
 10 12  1  0
 11  3  1  0
 12 13  2  0
 12 14  1  0
 14 15  1  0
 15 16  1  1
 15 23  1  0
 16 17  1  0
 17 22  2  0
 18 19  2  0
 18 17  1  0
 19 20  1  0
 20 21  2  0
 22 21  1  0
 23 24  1  0
 25 23  2  0
M  END
$$$$
