GQF.pdb
     RDKit          3D

 25 25  0  0  1  0  0  0  0  0999 V2000
    7.5211  -12.7191   18.4408 N   0  0  0  0  0  0  0  0  0  0  0  0
    8.4852  -12.8570   19.4988 C   0  0  0  0  0  0  0  0  0  0  0  0
    8.1998  -14.0779   20.3326 C   0  0  0  0  0  0  0  0  0  0  0  0
    7.1423  -14.7448   20.1328 O   0  0  0  0  0  0  0  0  0  0  0  0
   11.2418  -18.7588   20.4394 N   0  0  0  0  0  0  0  0  0  0  0  0
   10.5407  -17.9940   19.4894 C   0  0  0  0  0  0  0  0  0  0  0  0
   10.6082  -18.2481   18.2507 O   0  0  0  0  0  0  0  0  0  0  0  0
    9.7072  -16.8645   19.9851 C   0  0  0  0  0  0  0  0  0  0  0  0
    9.8536  -16.7809   21.4861 C   0  0  0  0  0  0  0  0  0  0  0  0
    8.9223  -15.7492   22.0822 C   0  0  2  0  0  0  0  0  0  0  0  0
    9.0913  -14.5067   21.3464 N   0  0  0  0  0  0  0  0  0  0  0  0
    9.3129  -15.5904   23.5081 C   0  0  0  0  0  0  0  0  0  0  0  0
   10.3100  -14.9086   23.8020 O   0  0  0  0  0  0  0  0  0  0  0  0
    8.5422  -16.2199   24.5187 N   0  0  0  0  0  0  0  0  0  0  0  0
    8.8549  -16.0941   25.9512 C   0  0  1  0  0  0  0  0  0  0  0  0
    7.6163  -15.6498   26.7049 C   0  0  0  0  0  0  0  0  0  0  0  0
    7.2952  -14.2249   26.5449 C   0  0  0  0  0  0  0  0  0  0  0  0
    8.1469  -13.2436   27.0269 C   0  0  0  0  0  0  0  0  0  0  0  0
    7.8621  -11.9008   26.8758 C   0  0  0  0  0  0  0  0  0  0  0  0
    6.7189  -11.4831   26.2393 C   0  0  0  0  0  0  0  0  0  0  0  0
    5.8617  -12.4485   25.7544 C   0  0  0  0  0  0  0  0  0  0  0  0
    6.1524  -13.8000   25.9087 C   0  0  0  0  0  0  0  0  0  0  0  0
    9.4848  -17.2996   26.4775 C   0  0  0  0  0  0  0  0  0  0  0  0
   10.0969  -17.2831   27.7184 O   0  0  0  0  0  0  0  0  0  0  0  0
    9.5199  -18.4148   25.8616 O   0  0  0  0  0  0  0  0  0  0  0  0
  1  2  1  0
  3  2  1  0
  4  3  2  0
  5  6  1  0
  6  7  2  0
  8  9  1  0
  8  6  1  0
 10  9  1  6
 10 11  1  0
 10 12  1  0
 11  3  1  0
 12 13  2  0
 12 14  1  0
 14 15  1  0
 15 16  1  1
 15 23  1  0
 16 17  1  0
 17 22  2  0
 18 19  2  0
 18 17  1  0
 19 20  1  0
 20 21  2  0
 22 21  1  0
 23 24  1  0
 25 23  2  0
M  END
$$$$
