GQF.pdb
     RDKit          3D

 25 25  0  0  1  0  0  0  0  0999 V2000
    6.6819  -19.3447   20.4526 N   0  0  0  0  0  0  0  0  0  0  0  0
    6.2914  -18.1637   21.1743 C   0  0  0  0  0  0  0  0  0  0  0  0
    7.3629  -17.1082   21.1011 C   0  0  0  0  0  0  0  0  0  0  0  0
    8.5415  -17.4283   20.7672 O   0  0  0  0  0  0  0  0  0  0  0  0
    7.6513  -14.6760   19.1144 N   0  0  0  0  0  0  0  0  0  0  0  0
    8.1954  -13.3795   19.0719 C   0  0  0  0  0  0  0  0  0  0  0  0
    8.6724  -12.8936   18.0042 O   0  0  0  0  0  0  0  0  0  0  0  0
    8.1956  -12.5845   20.3304 C   0  0  0  0  0  0  0  0  0  0  0  0
    7.4973  -13.3841   21.4048 C   0  0  0  0  0  0  0  0  0  0  0  0
    8.1237  -14.7490   21.5824 C   0  0  2  0  0  0  0  0  0  0  0  0
    7.0867  -15.7513   21.3988 N   0  0  0  0  0  0  0  0  0  0  0  0
    8.6785  -14.7914   22.9613 C   0  0  0  0  0  0  0  0  0  0  0  0
    9.6422  -14.0654   23.2607 O   0  0  0  0  0  0  0  0  0  0  0  0
    8.1009  -15.6613   23.9211 N   0  0  0  0  0  0  0  0  0  0  0  0
    8.6031  -15.7691   25.3002 C   0  0  1  0  0  0  0  0  0  0  0  0
    7.4860  -15.4489   26.2745 C   0  0  0  0  0  0  0  0  0  0  0  0
    7.2570  -14.0112   26.4737 C   0  0  0  0  0  0  0  0  0  0  0  0
    6.0242  -13.4407   26.1988 C   0  0  0  0  0  0  0  0  0  0  0  0
    5.7924  -12.0928   26.3898 C   0  0  0  0  0  0  0  0  0  0  0  0
    6.7784  -11.2611   26.8616 C   0  0  0  0  0  0  0  0  0  0  0  0
    8.0105  -11.8147   27.1395 C   0  0  0  0  0  0  0  0  0  0  0  0
    8.2398  -13.1730   26.9458 C   0  0  0  0  0  0  0  0  0  0  0  0
    9.2675  -17.0454   25.5380 C   0  0  0  0  0  0  0  0  0  0  0  0
   10.6419  -17.1000   25.6886 O   0  0  0  0  0  0  0  0  0  0  0  0
    8.6601  -18.1627   25.6214 O   0  0  0  0  0  0  0  0  0  0  0  0
  1  2  1  0
  3  2  1  0
  4  3  2  0
  5  6  1  0
  6  7  2  0
  8  9  1  0
  8  6  1  0
 10  9  1  1
 10 11  1  0
 10 12  1  0
 11  3  1  0
 12 13  2  0
 12 14  1  0
 14 15  1  0
 15 16  1  1
 15 23  1  0
 16 17  1  0
 17 22  2  0
 18 19  2  0
 18 17  1  0
 19 20  1  0
 20 21  2  0
 22 21  1  0
 23 24  1  0
 25 23  2  0
M  END
$$$$
