GQF.pdb
     RDKit          3D

 25 25  0  0  1  0  0  0  0  0999 V2000
    7.8706  -15.9969   17.0950 N   0  0  0  0  0  0  0  0  0  0  0  0
    8.8750  -15.4862   17.9885 C   0  0  0  0  0  0  0  0  0  0  0  0
    8.8116  -16.1792   19.3237 C   0  0  0  0  0  0  0  0  0  0  0  0
    7.7014  -16.6004   19.7634 O   0  0  0  0  0  0  0  0  0  0  0  0
   10.5682  -20.2285   22.3764 N   0  0  0  0  0  0  0  0  0  0  0  0
   10.9270  -20.1754   21.0172 C   0  0  0  0  0  0  0  0  0  0  0  0
   10.8597  -21.1968   20.2717 O   0  0  0  0  0  0  0  0  0  0  0  0
   11.3934  -18.8710   20.4722 C   0  0  0  0  0  0  0  0  0  0  0  0
   11.2468  -17.8202   21.5472 C   0  0  0  0  0  0  0  0  0  0  0  0
    9.9554  -17.0470   21.4010 C   0  0  2  0  0  0  0  0  0  0  0  0
    9.9722  -16.3757   20.1116 N   0  0  0  0  0  0  0  0  0  0  0  0
    9.9114  -16.0682   22.5195 C   0  0  0  0  0  0  0  0  0  0  0  0
   10.6654  -15.0799   22.5039 O   0  0  0  0  0  0  0  0  0  0  0  0
    9.0083  -16.2736   23.5936 N   0  0  0  0  0  0  0  0  0  0  0  0
    8.8231  -15.2928   24.6751 C   0  0  1  0  0  0  0  0  0  0  0  0
    7.6120  -14.4302   24.3772 C   0  0  0  0  0  0  0  0  0  0  0  0
    7.3110  -13.4381   25.4186 C   0  0  0  0  0  0  0  0  0  0  0  0
    6.2950  -13.6537   26.3362 C   0  0  0  0  0  0  0  0  0  0  0  0
    6.0070  -12.7342   27.3255 C   0  0  0  0  0  0  0  0  0  0  0  0
    6.7188  -11.5651   27.4394 C   0  0  0  0  0  0  0  0  0  0  0  0
    7.7329  -11.3369   26.5331 C   0  0  0  0  0  0  0  0  0  0  0  0
    8.0198  -12.2658   25.5381 C   0  0  0  0  0  0  0  0  0  0  0  0
    8.8064  -15.9285   25.9876 C   0  0  0  0  0  0  0  0  0  0  0  0
    8.2164  -17.1688   26.1555 O   0  0  0  0  0  0  0  0  0  0  0  0
    9.3116  -15.4128   27.0379 O   0  0  0  0  0  0  0  0  0  0  0  0
  1  2  1  0
  3  2  1  0
  4  3  2  0
  5  6  1  0
  6  7  2  0
  8  9  1  0
  8  6  1  0
 10  9  1  1
 10 11  1  0
 10 12  1  0
 11  3  1  0
 12 13  2  0
 12 14  1  0
 14 15  1  0
 15 16  1  6
 15 23  1  0
 16 17  1  0
 17 22  2  0
 18 19  2  0
 18 17  1  0
 19 20  1  0
 20 21  2  0
 22 21  1  0
 23 24  1  0
 25 23  2  0
M  END
$$$$
