GQF.pdb
     RDKit          3D

 25 25  0  0  1  0  0  0  0  0999 V2000
    7.9328  -12.9149   18.5210 N   0  0  0  0  0  0  0  0  0  0  0  0
    8.3189  -14.2624   18.8424 C   0  0  0  0  0  0  0  0  0  0  0  0
    7.7317  -14.6917   20.1608 C   0  0  0  0  0  0  0  0  0  0  0  0
    7.3779  -13.8192   21.0074 O   0  0  0  0  0  0  0  0  0  0  0  0
    3.3296  -17.3654   20.8653 N   0  0  0  0  0  0  0  0  0  0  0  0
    4.3859  -18.0094   21.5349 C   0  0  0  0  0  0  0  0  0  0  0  0
    4.2812  -18.3779   22.7419 O   0  0  0  0  0  0  0  0  0  0  0  0
    5.6450  -18.2490   20.7777 C   0  0  0  0  0  0  0  0  0  0  0  0
    6.8156  -17.9951   21.6978 C   0  0  0  0  0  0  0  0  0  0  0  0
    7.1393  -16.5212   21.7974 C   0  0  2  0  0  0  0  0  0  0  0  0
    7.5619  -16.0601   20.4850 N   0  0  0  0  0  0  0  0  0  0  0  0
    8.2335  -16.3879   22.7954 C   0  0  0  0  0  0  0  0  0  0  0  0
    9.4041  -16.6440   22.4647 O   0  0  0  0  0  0  0  0  0  0  0  0
    7.9286  -15.9693   24.1157 N   0  0  0  0  0  0  0  0  0  0  0  0
    8.9590  -15.7923   25.1514 C   0  0  1  0  0  0  0  0  0  0  0  0
    9.2534  -14.3153   25.3285 C   0  0  0  0  0  0  0  0  0  0  0  0
    8.1228  -13.5365   25.8524 C   0  0  0  0  0  0  0  0  0  0  0  0
    8.1307  -13.0537   27.1515 C   0  0  0  0  0  0  0  0  0  0  0  0
    7.0792  -12.3130   27.6541 C   0  0  0  0  0  0  0  0  0  0  0  0
    5.9795  -12.0245   26.8834 C   0  0  0  0  0  0  0  0  0  0  0  0
    5.9575  -12.4986   25.5885 C   0  0  0  0  0  0  0  0  0  0  0  0
    7.0190  -13.2442   25.0861 C   0  0  0  0  0  0  0  0  0  0  0  0
    8.6170  -16.4941   26.3833 C   0  0  0  0  0  0  0  0  0  0  0  0
    9.5379  -16.5892   27.4117 O   0  0  0  0  0  0  0  0  0  0  0  0
    7.4915  -17.0516   26.5994 O   0  0  0  0  0  0  0  0  0  0  0  0
  1  2  1  0
  3  2  1  0
  4  3  2  0
  5  6  1  0
  6  7  2  0
  8  9  1  0
  8  6  1  0
 10  9  1  6
 10 11  1  0
 10 12  1  0
 11  3  1  0
 12 13  2  0
 12 14  1  0
 14 15  1  0
 15 16  1  1
 15 23  1  0
 16 17  1  0
 17 22  2  0
 18 19  2  0
 18 17  1  0
 19 20  1  0
 20 21  2  0
 22 21  1  0
 23 24  1  0
 25 23  2  0
M  END
$$$$
