GQF.pdb
     RDKit          3D

 25 25  0  0  1  0  0  0  0  0999 V2000
    5.3001  -18.9586   20.5939 N   0  0  0  0  0  0  0  0  0  0  0  0
    5.3338  -17.7667   21.3978 C   0  0  0  0  0  0  0  0  0  0  0  0
    6.7084  -17.1523   21.3938 C   0  0  0  0  0  0  0  0  0  0  0  0
    7.7210  -17.8740   21.1548 O   0  0  0  0  0  0  0  0  0  0  0  0
    9.6003  -13.1080   19.2010 N   0  0  0  0  0  0  0  0  0  0  0  0
    8.2456  -13.2502   18.8497 C   0  0  0  0  0  0  0  0  0  0  0  0
    7.8503  -13.1091   17.6550 O   0  0  0  0  0  0  0  0  0  0  0  0
    7.2774  -13.5751   19.9329 C   0  0  0  0  0  0  0  0  0  0  0  0
    8.0341  -13.6952   21.2345 C   0  0  0  0  0  0  0  0  0  0  0  0
    8.2119  -15.1393   21.6469 C   0  0  2  0  0  0  0  0  0  0  0  0
    6.9037  -15.7735   21.6531 N   0  0  0  0  0  0  0  0  0  0  0  0
    8.8132  -15.1272   23.0067 C   0  0  0  0  0  0  0  0  0  0  0  0
    9.9353  -14.6209   23.1802 O   0  0  0  0  0  0  0  0  0  0  0  0
    8.0987  -15.6946   24.0925 N   0  0  0  0  0  0  0  0  0  0  0  0
    8.6401  -15.7468   25.4599 C   0  0  1  0  0  0  0  0  0  0  0  0
    7.5632  -15.3447   26.4489 C   0  0  0  0  0  0  0  0  0  0  0  0
    7.2612  -13.9066   26.4557 C   0  0  0  0  0  0  0  0  0  0  0  0
    5.9577  -13.4512   26.3362 C   0  0  0  0  0  0  0  0  0  0  0  0
    5.6585  -12.1032   26.3499 C   0  0  0  0  0  0  0  0  0  0  0  0
    6.6449  -11.1567   26.4829 C   0  0  0  0  0  0  0  0  0  0  0  0
    7.9470  -11.5950   26.6027 C   0  0  0  0  0  0  0  0  0  0  0  0
    8.2440  -12.9540   26.5885 C   0  0  0  0  0  0  0  0  0  0  0  0
    9.2757  -17.0284   25.7438 C   0  0  0  0  0  0  0  0  0  0  0  0
   10.0320  -17.1942   26.8906 O   0  0  0  0  0  0  0  0  0  0  0  0
    9.1885  -18.0520   24.9895 O   0  0  0  0  0  0  0  0  0  0  0  0
  1  2  1  0
  3  2  1  0
  4  3  2  0
  5  6  1  0
  6  7  2  0
  8  9  1  0
  8  6  1  0
 10  9  1  1
 10 11  1  0
 10 12  1  0
 11  3  1  0
 12 13  2  0
 12 14  1  0
 14 15  1  0
 15 16  1  1
 15 23  1  0
 16 17  1  0
 17 22  2  0
 18 19  2  0
 18 17  1  0
 19 20  1  0
 20 21  2  0
 22 21  1  0
 23 24  1  0
 25 23  2  0
M  END
$$$$
