GQF.pdb
     RDKit          3D

 25 25  0  0  1  0  0  0  0  0999 V2000
    6.9326  -21.9736   25.7328 N   0  0  0  0  0  0  0  0  0  0  0  0
    5.8728  -21.0564   25.4108 C   0  0  0  0  0  0  0  0  0  0  0  0
    6.1913  -20.2825   24.1591 C   0  0  0  0  0  0  0  0  0  0  0  0
    7.3188  -20.4234   23.6003 O   0  0  0  0  0  0  0  0  0  0  0  0
    2.6122  -18.2806   19.7166 N   0  0  0  0  0  0  0  0  0  0  0  0
    2.3197  -19.2201   20.7219 C   0  0  0  0  0  0  0  0  0  0  0  0
    1.3492  -20.0267   20.6158 O   0  0  0  0  0  0  0  0  0  0  0  0
    3.1918  -19.2412   21.9281 C   0  0  0  0  0  0  0  0  0  0  0  0
    4.2393  -18.1627   21.7835 C   0  0  0  0  0  0  0  0  0  0  0  0
    5.5499  -18.5669   22.4207 C   0  0  2  0  0  0  0  0  0  0  0  0
    5.2546  -19.3905   23.5819 N   0  0  0  0  0  0  0  0  0  0  0  0
    6.2435  -17.3110   22.8111 C   0  0  0  0  0  0  0  0  0  0  0  0
    6.6146  -16.5131   21.9329 O   0  0  0  0  0  0  0  0  0  0  0  0
    6.4745  -17.0370   24.1833 N   0  0  0  0  0  0  0  0  0  0  0  0
    7.1421  -15.8105   24.6477 C   0  0  1  0  0  0  0  0  0  0  0  0
    6.2523  -15.0935   25.6445 C   0  0  0  0  0  0  0  0  0  0  0  0
    6.7649  -13.7851   26.0741 C   0  0  0  0  0  0  0  0  0  0  0  0
    6.5574  -12.6507   25.3053 C   0  0  0  0  0  0  0  0  0  0  0  0
    7.0257  -11.4134   25.7011 C   0  0  0  0  0  0  0  0  0  0  0  0
    7.7184  -11.2574   26.8768 C   0  0  0  0  0  0  0  0  0  0  0  0
    7.9326  -12.3776   27.6523 C   0  0  0  0  0  0  0  0  0  0  0  0
    7.4591  -13.6222   27.2500 C   0  0  0  0  0  0  0  0  0  0  0  0
    8.4949  -16.0755   25.1238 C   0  0  0  0  0  0  0  0  0  0  0  0
    8.8364  -17.3313   25.5940 O   0  0  0  0  0  0  0  0  0  0  0  0
    9.4283  -15.2080   25.1439 O   0  0  0  0  0  0  0  0  0  0  0  0
  1  2  1  0
  3  2  1  0
  4  3  2  0
  5  6  1  0
  6  7  2  0
  8  9  1  0
  8  6  1  0
 10  9  1  1
 10 11  1  0
 10 12  1  0
 11  3  1  0
 12 13  2  0
 12 14  1  0
 14 15  1  0
 15 16  1  1
 15 23  1  0
 16 17  1  0
 17 22  2  0
 18 19  2  0
 18 17  1  0
 19 20  1  0
 20 21  2  0
 22 21  1  0
 23 24  1  0
 25 23  2  0
M  END
$$$$
