GQF.pdb
     RDKit          3D

 25 25  0  0  1  0  0  0  0  0999 V2000
    6.2637  -18.2235   20.9468 N   0  0  0  0  0  0  0  0  0  0  0  0
    7.4819  -18.2689   20.1837 C   0  0  0  0  0  0  0  0  0  0  0  0
    8.3342  -17.0579   20.4561 C   0  0  0  0  0  0  0  0  0  0  0  0
    9.5547  -17.0571   20.1188 O   0  0  0  0  0  0  0  0  0  0  0  0
    9.2846  -12.6226   19.1436 N   0  0  0  0  0  0  0  0  0  0  0  0
    8.1027  -13.2736   18.7458 C   0  0  0  0  0  0  0  0  0  0  0  0
    7.9034  -13.6126   17.5421 O   0  0  0  0  0  0  0  0  0  0  0  0
    7.0804  -13.5569   19.7902 C   0  0  0  0  0  0  0  0  0  0  0  0
    7.7481  -13.5046   21.1440 C   0  0  0  0  0  0  0  0  0  0  0  0
    8.5993  -14.7291   21.3955 C   0  0  2  0  0  0  0  0  0  0  0  0
    7.8035  -15.9058   21.0864 N   0  0  0  0  0  0  0  0  0  0  0  0
    8.9832  -14.6981   22.8317 C   0  0  0  0  0  0  0  0  0  0  0  0
    9.7313  -13.7979   23.2506 O   0  0  0  0  0  0  0  0  0  0  0  0
    8.4909  -15.6978   23.7090 N   0  0  0  0  0  0  0  0  0  0  0  0
    8.7830  -15.7037   25.1513 C   0  0  1  0  0  0  0  0  0  0  0  0
    7.4970  -15.5098   25.9313 C   0  0  0  0  0  0  0  0  0  0  0  0
    7.1371  -14.1029   26.1551 C   0  0  0  0  0  0  0  0  0  0  0  0
    5.8391  -13.6588   25.9578 C   0  0  0  0  0  0  0  0  0  0  0  0
    5.4849  -12.3416   26.1728 C   0  0  0  0  0  0  0  0  0  0  0  0
    6.4087  -11.4157   26.5923 C   0  0  0  0  0  0  0  0  0  0  0  0
    7.7045  -11.8430   26.7927 C   0  0  0  0  0  0  0  0  0  0  0  0
    8.0571  -13.1709   26.5751 C   0  0  0  0  0  0  0  0  0  0  0  0
    9.5590  -16.8746   25.5435 C   0  0  0  0  0  0  0  0  0  0  0  0
    9.8941  -17.8363   24.6066 O   0  0  0  0  0  0  0  0  0  0  0  0
    9.9710  -17.0947   26.7293 O   0  0  0  0  0  0  0  0  0  0  0  0
  1  2  1  0
  3  2  1  0
  4  3  2  0
  5  6  1  0
  6  7  2  0
  8  9  1  0
  8  6  1  0
 10  9  1  1
 10 11  1  0
 10 12  1  0
 11  3  1  0
 12 13  2  0
 12 14  1  0
 14 15  1  0
 15 16  1  1
 15 23  1  0
 16 17  1  0
 17 22  2  0
 18 19  2  0
 18 17  1  0
 19 20  1  0
 20 21  2  0
 22 21  1  0
 23 24  1  0
 25 23  2  0
M  END
$$$$
