GQF.pdb
     RDKit          3D

 25 25  0  0  1  0  0  0  0  0999 V2000
    7.1353  -12.4954   18.9343 N   0  0  0  0  0  0  0  0  0  0  0  0
    8.3358  -13.0180   19.5292 C   0  0  0  0  0  0  0  0  0  0  0  0
    8.0183  -14.1182   20.5069 C   0  0  0  0  0  0  0  0  0  0  0  0
    6.8136  -14.4455   20.7185 O   0  0  0  0  0  0  0  0  0  0  0  0
   10.9006  -19.3022   19.9262 N   0  0  0  0  0  0  0  0  0  0  0  0
    9.5113  -19.2117   20.1273 C   0  0  0  0  0  0  0  0  0  0  0  0
    8.7794  -20.2435   20.1847 O   0  0  0  0  0  0  0  0  0  0  0  0
    8.9173  -17.8544   20.2727 C   0  0  0  0  0  0  0  0  0  0  0  0
    9.6501  -17.1238   21.3730 C   0  0  0  0  0  0  0  0  0  0  0  0
    8.8061  -16.0198   21.9697 C   0  0  2  0  0  0  0  0  0  0  0  0
    9.0411  -14.8058   21.2051 N   0  0  0  0  0  0  0  0  0  0  0  0
    9.2416  -15.8617   23.3826 C   0  0  0  0  0  0  0  0  0  0  0  0
   10.3738  -15.4132   23.6323 O   0  0  0  0  0  0  0  0  0  0  0  0
    8.3588  -16.2252   24.4314 N   0  0  0  0  0  0  0  0  0  0  0  0
    8.7028  -16.0610   25.8528 C   0  0  1  0  0  0  0  0  0  0  0  0
    7.4707  -15.6366   26.6284 C   0  0  0  0  0  0  0  0  0  0  0  0
    7.1600  -14.2041   26.5245 C   0  0  0  0  0  0  0  0  0  0  0  0
    8.1023  -13.2442   26.8583 C   0  0  0  0  0  0  0  0  0  0  0  0
    7.8271  -11.8947   26.7571 C   0  0  0  0  0  0  0  0  0  0  0  0
    6.6037  -11.4489   26.3199 C   0  0  0  0  0  0  0  0  0  0  0  0
    5.6559  -12.3928   25.9842 C   0  0  0  0  0  0  0  0  0  0  0  0
    5.9373  -13.7512   26.0875 C   0  0  0  0  0  0  0  0  0  0  0  0
    9.3799  -17.2371   26.3870 C   0  0  0  0  0  0  0  0  0  0  0  0
   10.0360  -17.1729   27.6036 O   0  0  0  0  0  0  0  0  0  0  0  0
    9.4191  -18.3676   25.7998 O   0  0  0  0  0  0  0  0  0  0  0  0
  1  2  1  0
  3  2  1  0
  4  3  2  0
  5  6  1  0
  6  7  2  0
  8  9  1  0
  8  6  1  0
 10  9  1  6
 10 11  1  0
 10 12  1  0
 11  3  1  0
 12 13  2  0
 12 14  1  0
 14 15  1  0
 15 16  1  1
 15 23  1  0
 16 17  1  0
 17 22  2  0
 18 19  2  0
 18 17  1  0
 19 20  1  0
 20 21  2  0
 22 21  1  0
 23 24  1  0
 25 23  2  0
M  END
$$$$
