TWN.pdb
     RDKit          3D

 30 31  0  0  1  0  0  0  0  0999 V2000
   29.3992  -20.2505  -18.5320 C   0  0  0  0  0  0  0  0  0  0  0  0
   28.4401  -20.4434  -17.3777 C   0  0  1  0  0  0  0  0  0  0  0  0
   27.1970  -20.7295  -17.9934 O   0  0  0  0  0  0  0  0  0  0  0  0
   28.7571  -21.6473  -16.5331 C   0  0  2  0  0  0  0  0  0  0  0  0
   28.7141  -22.8366  -17.3422 N   0  0  0  0  0  0  0  0  0  0  0  0
   27.8416  -21.7660  -15.3510 C   0  0  0  0  0  0  0  0  0  0  0  0
   26.8993  -22.6016  -15.3496 O   0  0  0  0  0  0  0  0  0  0  0  0
   27.9985  -20.9537  -14.2040 N   0  0  0  0  0  0  0  0  0  0  0  0
   27.1155  -21.1178  -13.0607 C   0  0  1  0  0  0  0  0  0  0  0  0
   27.7489  -20.4845  -11.8643 C   0  0  0  0  0  0  0  0  0  0  0  0
   26.9364  -20.4418  -10.6497 C   0  0  0  0  0  0  0  0  0  0  0  0
   25.5428  -20.2908  -10.6116 C   0  0  0  0  0  0  0  0  0  0  0  0
   25.1518  -20.3163   -9.3351 N   0  0  0  0  0  0  0  0  0  0  0  0
   26.2298  -20.4784   -8.5139 C   0  0  0  0  0  0  0  0  0  0  0  0
   26.3342  -20.5545   -7.1385 C   0  0  0  0  0  0  0  0  0  0  0  0
   27.5540  -20.7101   -6.5257 C   0  0  0  0  0  0  0  0  0  0  0  0
   28.6640  -20.7873   -7.3422 C   0  0  0  0  0  0  0  0  0  0  0  0
   28.5567  -20.7124   -8.7104 C   0  0  0  0  0  0  0  0  0  0  0  0
   27.3246  -20.5553   -9.3364 C   0  0  0  0  0  0  0  0  0  0  0  0
   25.7282  -20.7900  -13.3529 C   0  0  0  0  0  0  0  0  0  0  0  0
   25.3671  -19.6662  -13.8440 O   0  0  0  0  0  0  0  0  0  0  0  0
   20.5375  -21.3386  -14.0696 N   0  0  0  0  0  0  0  0  0  0  0  0
   21.0305  -22.4850  -13.3872 C   0  0  0  0  0  0  0  0  0  0  0  0
   20.2665  -23.4258  -13.0283 O   0  0  0  0  0  0  0  0  0  0  0  0
   22.4701  -22.6328  -13.0586 C   0  0  0  0  0  0  0  0  0  0  0  0
   23.2630  -21.3480  -13.4421 C   0  0  2  0  0  0  0  0  0  0  0  0
   24.6141  -21.6900  -13.1383 N   0  0  0  0  0  0  0  0  0  0  0  0
   22.6783  -20.2013  -12.7849 C   0  0  0  0  0  0  0  0  0  0  0  0
   22.7490  -20.0168  -11.5581 O   0  0  0  0  0  0  0  0  0  0  0  0
   22.0037  -19.2504  -13.5331 O   0  0  0  0  0  0  0  0  0  0  0  0
  2  1  1  6
  2  3  1  0
  4  6  1  0
  4  2  1  0
  4  5  1  6
  6  7  2  0
  8  9  1  0
  8  6  1  0
  9 10  1  1
 10 11  1  0
 11 19  1  0
 12 11  2  0
 12 13  1  0
 13 14  1  0
 14 15  1  0
 15 16  2  0
 17 16  1  0
 18 17  2  0
 19 14  2  0
 19 18  1  0
 20  9  1  0
 21 20  2  0
 22 23  1  0
 23 24  2  0
 25 23  1  0
 26 27  1  0
 26 25  1  1
 27 20  1  0
 28 30  1  0
 28 26  1  0
 29 28  2  0
M  END
$$$$
