TWN.pdb
     RDKit          3D

 30 31  0  0  1  0  0  0  0  0999 V2000
   28.8067  -18.6959  -15.9755 C   0  0  0  0  0  0  0  0  0  0  0  0
   27.9089  -19.1730  -14.8548 C   0  0  1  0  0  0  0  0  0  0  0  0
   26.6033  -19.1261  -15.4019 O   0  0  0  0  0  0  0  0  0  0  0  0
   28.1363  -20.6119  -14.4794 C   0  0  2  0  0  0  0  0  0  0  0  0
   27.7951  -21.4654  -15.5866 N   0  0  0  0  0  0  0  0  0  0  0  0
   27.3782  -21.0012  -13.2451 C   0  0  0  0  0  0  0  0  0  0  0  0
   26.3301  -21.6946  -13.3269 O   0  0  0  0  0  0  0  0  0  0  0  0
   27.8054  -20.6095  -11.9551 N   0  0  0  0  0  0  0  0  0  0  0  0
   27.0382  -20.9890  -10.7799 C   0  0  1  0  0  0  0  0  0  0  0  0
   27.9538  -21.0428   -9.6000 C   0  0  0  0  0  0  0  0  0  0  0  0
   27.3248  -20.9058   -8.2874 C   0  0  0  0  0  0  0  0  0  0  0  0
   25.9988  -21.2463   -7.9844 C   0  0  0  0  0  0  0  0  0  0  0  0
   25.7875  -21.0031   -6.6886 N   0  0  0  0  0  0  0  0  0  0  0  0
   26.9215  -20.5117   -6.1092 C   0  0  0  0  0  0  0  0  0  0  0  0
   27.1924  -20.1093   -4.8157 C   0  0  0  0  0  0  0  0  0  0  0  0
   28.4309  -19.6285   -4.4656 C   0  0  0  0  0  0  0  0  0  0  0  0
   29.3868  -19.5667   -5.4591 C   0  0  0  0  0  0  0  0  0  0  0  0
   29.1144  -19.9689   -6.7448 C   0  0  0  0  0  0  0  0  0  0  0  0
   27.8628  -20.4569   -7.1052 C   0  0  0  0  0  0  0  0  0  0  0  0
   25.7912  -20.2516  -10.6437 C   0  0  0  0  0  0  0  0  0  0  0  0
   25.7398  -18.9755  -10.5870 O   0  0  0  0  0  0  0  0  0  0  0  0
   22.0240  -20.4204  -14.4912 N   0  0  0  0  0  0  0  0  0  0  0  0
   22.7429  -19.6165  -13.5639 C   0  0  0  0  0  0  0  0  0  0  0  0
   22.5017  -18.3836  -13.4247 O   0  0  0  0  0  0  0  0  0  0  0  0
   23.8174  -20.1859  -12.7134 C   0  0  0  0  0  0  0  0  0  0  0  0
   23.3354  -20.3460  -11.2408 C   0  0  2  0  0  0  0  0  0  0  0  0
   24.4823  -20.8674  -10.5721 N   0  0  0  0  0  0  0  0  0  0  0  0
   22.1117  -21.1143  -11.2104 C   0  0  0  0  0  0  0  0  0  0  0  0
   21.0170  -20.6287  -10.8789 O   0  0  0  0  0  0  0  0  0  0  0  0
   22.1326  -22.4540  -11.5623 O   0  0  0  0  0  0  0  0  0  0  0  0
  2  1  1  6
  2  3  1  0
  4  6  1  0
  4  2  1  0
  4  5  1  6
  6  7  2  0
  8  9  1  0
  8  6  1  0
  9 10  1  1
 10 11  1  0
 11 19  1  0
 12 11  2  0
 12 13  1  0
 13 14  1  0
 14 15  1  0
 15 16  2  0
 17 16  1  0
 18 17  2  0
 19 14  2  0
 19 18  1  0
 20  9  1  0
 21 20  2  0
 22 23  1  0
 23 24  2  0
 25 23  1  0
 26 27  1  0
 26 25  1  6
 27 20  1  0
 28 30  1  0
 28 26  1  0
 29 28  2  0
M  END
$$$$
