TWN.pdb
     RDKit          3D

 30 31  0  0  1  0  0  0  0  0999 V2000
   18.3727  -11.5170  -20.2324 C   0  0  0  0  0  0  0  0  0  0  0  0
   18.0604  -12.7903  -19.4768 C   0  0  1  0  0  0  0  0  0  0  0  0
   18.3357  -13.8277  -20.4010 O   0  0  0  0  0  0  0  0  0  0  0  0
   18.9810  -13.0342  -18.3123 C   0  0  2  0  0  0  0  0  0  0  0  0
   18.7606  -14.3543  -17.7836 N   0  0  0  0  0  0  0  0  0  0  0  0
   18.8292  -11.9931  -17.2434 C   0  0  0  0  0  0  0  0  0  0  0  0
   17.7178  -11.8070  -16.6810 O   0  0  0  0  0  0  0  0  0  0  0  0
   19.9156  -11.1881  -16.8292 N   0  0  0  0  0  0  0  0  0  0  0  0
   19.7082  -10.1030  -15.8841 C   0  0  1  0  0  0  0  0  0  0  0  0
   20.9733   -9.8760  -15.1214 C   0  0  0  0  0  0  0  0  0  0  0  0
   20.9780   -8.7400  -14.2013 C   0  0  0  0  0  0  0  0  0  0  0  0
   20.4394   -8.7433  -12.9066 C   0  0  0  0  0  0  0  0  0  0  0  0
   20.6448   -7.5413  -12.3625 N   0  0  0  0  0  0  0  0  0  0  0  0
   21.3010   -6.7303  -13.2426 C   0  0  0  0  0  0  0  0  0  0  0  0
   21.7213   -5.4179  -13.1451 C   0  0  0  0  0  0  0  0  0  0  0  0
   22.3644   -4.7981  -14.1890 C   0  0  0  0  0  0  0  0  0  0  0  0
   22.5710   -5.5423  -15.3328 C   0  0  0  0  0  0  0  0  0  0  0  0
   22.1527   -6.8481  -15.4263 C   0  0  0  0  0  0  0  0  0  0  0  0
   21.5015   -7.4810  -14.3727 C   0  0  0  0  0  0  0  0  0  0  0  0
   19.0477   -8.9468  -16.4709 C   0  0  0  0  0  0  0  0  0  0  0  0
   19.3157   -8.5127  -17.6431 O   0  0  0  0  0  0  0  0  0  0  0  0
   15.9767   -4.8020  -17.2596 N   0  0  0  0  0  0  0  0  0  0  0  0
   15.2689   -5.8773  -16.6549 C   0  0  0  0  0  0  0  0  0  0  0  0
   14.0076   -5.8812  -16.5726 O   0  0  0  0  0  0  0  0  0  0  0  0
   15.9778   -7.0500  -16.0856 C   0  0  0  0  0  0  0  0  0  0  0  0
   17.5134   -6.9416  -16.3243 C   0  0  2  0  0  0  0  0  0  0  0  0
   18.0158   -8.1741  -15.8111 N   0  0  0  0  0  0  0  0  0  0  0  0
   18.0076   -5.7072  -15.7581 C   0  0  0  0  0  0  0  0  0  0  0  0
   18.1660   -5.5396  -14.5371 O   0  0  0  0  0  0  0  0  0  0  0  0
   18.3267   -4.6480  -16.5920 O   0  0  0  0  0  0  0  0  0  0  0  0
  2  1  1  6
  2  3  1  0
  4  6  1  0
  4  2  1  0
  4  5  1  1
  6  7  2  0
  8  9  1  0
  8  6  1  0
  9 10  1  6
 10 11  1  0
 11 19  1  0
 12 11  2  0
 12 13  1  0
 13 14  1  0
 14 15  1  0
 15 16  2  0
 17 16  1  0
 18 17  2  0
 19 14  2  0
 19 18  1  0
 20  9  1  0
 21 20  2  0
 22 23  1  0
 23 24  2  0
 25 23  1  0
 26 27  1  0
 26 25  1  1
 27 20  1  0
 28 30  1  0
 28 26  1  0
 29 28  2  0
M  END
$$$$
