TWN.pdb
     RDKit          3D

 30 31  0  0  1  0  0  0  0  0999 V2000
   29.2320  -18.4206  -15.9202 C   0  0  0  0  0  0  0  0  0  0  0  0
   28.3106  -18.9595  -14.8477 C   0  0  1  0  0  0  0  0  0  0  0  0
   27.0309  -18.9752  -15.4546 O   0  0  0  0  0  0  0  0  0  0  0  0
   28.5977  -20.3890  -14.4773 C   0  0  2  0  0  0  0  0  0  0  0  0
   28.3775  -21.2421  -15.6150 N   0  0  0  0  0  0  0  0  0  0  0  0
   27.7874  -20.8418  -13.2991 C   0  0  0  0  0  0  0  0  0  0  0  0
   26.7332  -21.5110  -13.4634 O   0  0  0  0  0  0  0  0  0  0  0  0
   28.1706  -20.5387  -11.9720 N   0  0  0  0  0  0  0  0  0  0  0  0
   27.3326  -20.9422  -10.8545 C   0  0  1  0  0  0  0  0  0  0  0  0
   28.1024  -20.7716   -9.5850 C   0  0  0  0  0  0  0  0  0  0  0  0
   27.3152  -20.7180   -8.3543 C   0  0  0  0  0  0  0  0  0  0  0  0
   25.9521  -21.0296   -8.2497 C   0  0  0  0  0  0  0  0  0  0  0  0
   25.5841  -20.8853   -6.9743 N   0  0  0  0  0  0  0  0  0  0  0  0
   26.6484  -20.4882   -6.2177 C   0  0  0  0  0  0  0  0  0  0  0  0
   26.7634  -20.2043   -4.8706 C   0  0  0  0  0  0  0  0  0  0  0  0
   27.9603  -19.8029   -4.3284 C   0  0  0  0  0  0  0  0  0  0  0  0
   29.0367  -19.6977   -5.1858 C   0  0  0  0  0  0  0  0  0  0  0  0
   28.9193  -19.9820   -6.5253 C   0  0  0  0  0  0  0  0  0  0  0  0
   27.7104  -20.3891   -7.0798 C   0  0  0  0  0  0  0  0  0  0  0  0
   25.9867  -20.3925  -10.9163 C   0  0  0  0  0  0  0  0  0  0  0  0
   25.7475  -19.1366  -10.9248 O   0  0  0  0  0  0  0  0  0  0  0  0
   20.8791  -20.0955  -12.0840 N   0  0  0  0  0  0  0  0  0  0  0  0
   21.4624  -21.2960  -12.5754 C   0  0  0  0  0  0  0  0  0  0  0  0
   20.8362  -22.0702  -13.3539 O   0  0  0  0  0  0  0  0  0  0  0  0
   22.8379  -21.7025  -12.1950 C   0  0  0  0  0  0  0  0  0  0  0  0
   23.4937  -20.6413  -11.2621 C   0  0  2  0  0  0  0  0  0  0  0  0
   24.7811  -21.1915  -10.9887 N   0  0  0  0  0  0  0  0  0  0  0  0
   22.6141  -20.3613  -10.1501 C   0  0  0  0  0  0  0  0  0  0  0  0
   22.6878  -20.9589   -9.0631 O   0  0  0  0  0  0  0  0  0  0  0  0
   21.6366  -19.3877  -10.2755 O   0  0  0  0  0  0  0  0  0  0  0  0
  2  1  1  6
  2  3  1  0
  4  6  1  0
  4  2  1  0
  4  5  1  6
  6  7  2  0
  8  9  1  0
  8  6  1  0
  9 10  1  1
 10 11  1  0
 11 19  1  0
 12 11  2  0
 12 13  1  0
 13 14  1  0
 14 15  1  0
 15 16  2  0
 17 16  1  0
 18 17  2  0
 19 14  2  0
 19 18  1  0
 20  9  1  0
 21 20  2  0
 22 23  1  0
 23 24  2  0
 25 23  1  0
 26 27  1  0
 26 25  1  6
 27 20  1  0
 28 30  1  0
 28 26  1  0
 29 28  2  0
M  END
$$$$
