TWN.pdb
     RDKit          3D

 30 31  0  0  1  0  0  0  0  0999 V2000
   27.4227  -21.6057  -19.1348 C   0  0  0  0  0  0  0  0  0  0  0  0
   26.7283  -21.6188  -17.7904 C   0  0  1  0  0  0  0  0  0  0  0  0
   25.7260  -22.6113  -17.9185 O   0  0  0  0  0  0  0  0  0  0  0  0
   27.6133  -22.0836  -16.6662 C   0  0  2  0  0  0  0  0  0  0  0  0
   28.0841  -23.4167  -16.9343 N   0  0  0  0  0  0  0  0  0  0  0  0
   26.9229  -22.0129  -15.3365 C   0  0  0  0  0  0  0  0  0  0  0  0
   26.4317  -23.0471  -14.8120 O   0  0  0  0  0  0  0  0  0  0  0  0
   26.7977  -20.7960  -14.6270 N   0  0  0  0  0  0  0  0  0  0  0  0
   26.0644  -20.7486  -13.3725 C   0  0  1  0  0  0  0  0  0  0  0  0
   26.7391  -19.7831  -12.4528 C   0  0  0  0  0  0  0  0  0  0  0  0
   27.4834  -20.3655  -11.3375 C   0  0  0  0  0  0  0  0  0  0  0  0
   28.7339  -20.9920  -11.4367 C   0  0  0  0  0  0  0  0  0  0  0  0
   29.1079  -21.3804  -10.2151 N   0  0  0  0  0  0  0  0  0  0  0  0
   28.1559  -21.0389   -9.2987 C   0  0  0  0  0  0  0  0  0  0  0  0
   28.0842  -21.2317   -7.9326 C   0  0  0  0  0  0  0  0  0  0  0  0
   26.9973  -20.8021   -7.2102 C   0  0  0  0  0  0  0  0  0  0  0  0
   25.9865  -20.1720   -7.9073 C   0  0  0  0  0  0  0  0  0  0  0  0
   26.0614  -19.9806   -9.2663 C   0  0  0  0  0  0  0  0  0  0  0  0
   27.1592  -20.4130  -10.0029 C   0  0  0  0  0  0  0  0  0  0  0  0
   24.6251  -20.6298  -13.5511 C   0  0  0  0  0  0  0  0  0  0  0  0
   24.0871  -19.7391  -14.2937 O   0  0  0  0  0  0  0  0  0  0  0  0
   19.4676  -21.5020  -13.2020 N   0  0  0  0  0  0  0  0  0  0  0  0
   20.1615  -22.6313  -12.6861 C   0  0  0  0  0  0  0  0  0  0  0  0
   19.5553  -23.6878  -12.3483 O   0  0  0  0  0  0  0  0  0  0  0  0
   21.6355  -22.6246  -12.5150 C   0  0  0  0  0  0  0  0  0  0  0  0
   22.2443  -21.2710  -12.9881 C   0  0  2  0  0  0  0  0  0  0  0  0
   23.6506  -21.5022  -12.9294 N   0  0  0  0  0  0  0  0  0  0  0  0
   21.6909  -20.1890  -12.2059 C   0  0  0  0  0  0  0  0  0  0  0  0
   20.5782  -19.6873  -12.4388 O   0  0  0  0  0  0  0  0  0  0  0  0
   22.4127  -19.6700  -11.1435 O   0  0  0  0  0  0  0  0  0  0  0  0
  2  1  1  6
  2  3  1  0
  4  6  1  0
  4  2  1  0
  4  5  1  6
  6  7  2  0
  8  9  1  0
  8  6  1  0
  9 10  1  1
 10 11  1  0
 11 19  1  0
 12 11  2  0
 12 13  1  0
 13 14  1  0
 14 15  1  0
 15 16  2  0
 17 16  1  0
 18 17  2  0
 19 14  2  0
 19 18  1  0
 20  9  1  0
 21 20  2  0
 22 23  1  0
 23 24  2  0
 25 23  1  0
 26 27  1  0
 26 25  1  1
 27 20  1  0
 28 30  1  0
 28 26  1  0
 29 28  2  0
M  END
$$$$
