TWN.pdb
     RDKit          3D

 30 31  0  0  1  0  0  0  0  0999 V2000
   27.6362  -18.0785  -14.1177 C   0  0  0  0  0  0  0  0  0  0  0  0
   27.5435  -19.2730  -15.0420 C   0  0  1  0  0  0  0  0  0  0  0  0
   28.4171  -18.9618  -16.1125 O   0  0  0  0  0  0  0  0  0  0  0  0
   28.0843  -20.5395  -14.4365 C   0  0  2  0  0  0  0  0  0  0  0  0
   28.0262  -21.6057  -15.4012 N   0  0  0  0  0  0  0  0  0  0  0  0
   27.3662  -20.9148  -13.1744 C   0  0  0  0  0  0  0  0  0  0  0  0
   26.2429  -21.4824  -13.2189 O   0  0  0  0  0  0  0  0  0  0  0  0
   27.9157  -20.6491  -11.8987 N   0  0  0  0  0  0  0  0  0  0  0  0
   27.1294  -20.8779  -10.6974 C   0  0  1  0  0  0  0  0  0  0  0  0
   27.9875  -20.6234   -9.5006 C   0  0  0  0  0  0  0  0  0  0  0  0
   27.3070  -20.6195   -8.2067 C   0  0  0  0  0  0  0  0  0  0  0  0
   26.0021  -21.0777   -7.9757 C   0  0  0  0  0  0  0  0  0  0  0  0
   25.7301  -20.9355   -6.6762 N   0  0  0  0  0  0  0  0  0  0  0  0
   26.8029  -20.3988   -6.0251 C   0  0  0  0  0  0  0  0  0  0  0  0
   26.9991  -20.0619   -4.6997 C   0  0  0  0  0  0  0  0  0  0  0  0
   28.1844  -19.5129   -4.2739 C   0  0  0  0  0  0  0  0  0  0  0  0
   29.1648  -19.3152   -5.2249 C   0  0  0  0  0  0  0  0  0  0  0  0
   28.9669  -19.6525   -6.5425 C   0  0  0  0  0  0  0  0  0  0  0  0
   27.7693  -20.2090   -6.9794 C   0  0  0  0  0  0  0  0  0  0  0  0
   25.8160  -20.2530  -10.7414 C   0  0  0  0  0  0  0  0  0  0  0  0
   25.6491  -18.9913  -10.8628 O   0  0  0  0  0  0  0  0  0  0  0  0
   20.8650  -19.4417  -11.9263 N   0  0  0  0  0  0  0  0  0  0  0  0
   21.6675  -20.2185  -12.8070 C   0  0  0  0  0  0  0  0  0  0  0  0
   21.2971  -20.4830  -13.9862 O   0  0  0  0  0  0  0  0  0  0  0  0
   22.9818  -20.7617  -12.3832 C   0  0  0  0  0  0  0  0  0  0  0  0
   23.2951  -20.3723  -10.9078 C   0  0  2  0  0  0  0  0  0  0  0  0
   24.5643  -20.9778  -10.6682 N   0  0  0  0  0  0  0  0  0  0  0  0
   22.1844  -20.7427  -10.0606 C   0  0  0  0  0  0  0  0  0  0  0  0
   21.1748  -20.0319   -9.9210 O   0  0  0  0  0  0  0  0  0  0  0  0
   22.2216  -21.9385   -9.3624 O   0  0  0  0  0  0  0  0  0  0  0  0
  2  1  1  1
  2  3  1  0
  4  6  1  0
  4  2  1  0
  4  5  1  6
  6  7  2  0
  8  9  1  0
  8  6  1  0
  9 10  1  1
 10 11  1  0
 11 19  1  0
 12 11  2  0
 12 13  1  0
 13 14  1  0
 14 15  1  0
 15 16  2  0
 17 16  1  0
 18 17  2  0
 19 14  2  0
 19 18  1  0
 20  9  1  0
 21 20  2  0
 22 23  1  0
 23 24  2  0
 25 23  1  0
 26 27  1  0
 26 25  1  6
 27 20  1  0
 28 30  1  0
 28 26  1  0
 29 28  2  0
M  END
$$$$
