TWN.pdb
     RDKit          3D

 30 31  0  0  1  0  0  0  0  0999 V2000
   18.2094  -11.4389  -20.0967 C   0  0  0  0  0  0  0  0  0  0  0  0
   17.6215  -12.5728  -19.2853 C   0  0  1  0  0  0  0  0  0  0  0  0
   16.8563  -13.3160  -20.2171 O   0  0  0  0  0  0  0  0  0  0  0  0
   18.6564  -13.5300  -18.7601 C   0  0  2  0  0  0  0  0  0  0  0  0
   18.0101  -14.6644  -18.1551 N   0  0  0  0  0  0  0  0  0  0  0  0
   19.6002  -12.8710  -17.7986 C   0  0  0  0  0  0  0  0  0  0  0  0
   19.2205  -12.5555  -16.6400 O   0  0  0  0  0  0  0  0  0  0  0  0
   20.9389  -12.5811  -18.1507 N   0  0  0  0  0  0  0  0  0  0  0  0
   21.8232  -11.9253  -17.2012 C   0  0  1  0  0  0  0  0  0  0  0  0
   23.2365  -12.2869  -17.5256 C   0  0  0  0  0  0  0  0  0  0  0  0
   24.2668  -11.6933  -16.6752 C   0  0  0  0  0  0  0  0  0  0  0  0
   24.4067  -11.9135  -15.2975 C   0  0  0  0  0  0  0  0  0  0  0  0
   25.4653  -11.2232  -14.8664 N   0  0  0  0  0  0  0  0  0  0  0  0
   26.0421  -10.5472  -15.9023 C   0  0  0  0  0  0  0  0  0  0  0  0
   27.1361   -9.7052  -15.9545 C   0  0  0  0  0  0  0  0  0  0  0  0
   27.5272   -9.1203  -17.1346 C   0  0  0  0  0  0  0  0  0  0  0  0
   26.7821   -9.4112  -18.2593 C   0  0  0  0  0  0  0  0  0  0  0  0
   25.6949  -10.2503  -18.2043 C   0  0  0  0  0  0  0  0  0  0  0  0
   25.2944  -10.8456  -17.0127 C   0  0  0  0  0  0  0  0  0  0  0  0
   21.5077  -10.5196  -16.9967 C   0  0  0  0  0  0  0  0  0  0  0  0
   21.2205   -9.7241  -17.9553 O   0  0  0  0  0  0  0  0  0  0  0  0
   18.7594   -6.2919  -15.0832 N   0  0  0  0  0  0  0  0  0  0  0  0
   19.7211   -6.9633  -14.2786 C   0  0  0  0  0  0  0  0  0  0  0  0
   20.3021   -6.3869  -13.3154 O   0  0  0  0  0  0  0  0  0  0  0  0
   20.0939   -8.3770  -14.5325 C   0  0  0  0  0  0  0  0  0  0  0  0
   21.2821   -8.4673  -15.5359 C   0  0  2  0  0  0  0  0  0  0  0  0
   21.4687   -9.8717  -15.7020 N   0  0  0  0  0  0  0  0  0  0  0  0
   22.3906   -7.6779  -15.0494 C   0  0  0  0  0  0  0  0  0  0  0  0
   23.3347   -8.1643  -14.4042 O   0  0  0  0  0  0  0  0  0  0  0  0
   22.4267   -6.3160  -15.3003 O   0  0  0  0  0  0  0  0  0  0  0  0
  2  1  1  6
  2  3  1  0
  4  6  1  0
  4  2  1  0
  4  5  1  1
  6  7  2  0
  8  9  1  0
  8  6  1  0
  9 10  1  6
 10 11  1  0
 11 19  1  0
 12 11  2  0
 12 13  1  0
 13 14  1  0
 14 15  1  0
 15 16  2  0
 17 16  1  0
 18 17  2  0
 19 14  2  0
 19 18  1  0
 20  9  1  0
 21 20  2  0
 22 23  1  0
 23 24  2  0
 25 23  1  0
 26 27  1  0
 26 25  1  1
 27 20  1  0
 28 30  1  0
 28 26  1  0
 29 28  2  0
M  END
$$$$
