TWN.pdb
     RDKit          3D

 30 31  0  0  1  0  0  0  0  0999 V2000
   24.5562  -19.5231  -17.0344 C   0  0  0  0  0  0  0  0  0  0  0  0
   23.9762  -18.1387  -16.8420 C   0  0  1  0  0  0  0  0  0  0  0  0
   22.7236  -18.1843  -17.5017 O   0  0  0  0  0  0  0  0  0  0  0  0
   23.6631  -17.8172  -15.4061 C   0  0  2  0  0  0  0  0  0  0  0  0
   22.7223  -18.7734  -14.8853 N   0  0  0  0  0  0  0  0  0  0  0  0
   23.1563  -16.4156  -15.2379 C   0  0  0  0  0  0  0  0  0  0  0  0
   21.9197  -16.1779  -15.2154 O   0  0  0  0  0  0  0  0  0  0  0  0
   24.0368  -15.3177  -15.0993 N   0  0  0  0  0  0  0  0  0  0  0  0
   23.5179  -13.9603  -15.0539 C   0  0  1  0  0  0  0  0  0  0  0  0
   24.5043  -13.0876  -14.3477 C   0  0  0  0  0  0  0  0  0  0  0  0
   24.3154  -11.6458  -14.4982 C   0  0  0  0  0  0  0  0  0  0  0  0
   23.2367  -10.9116  -13.9850 C   0  0  0  0  0  0  0  0  0  0  0  0
   23.4130   -9.6268  -14.3030 N   0  0  0  0  0  0  0  0  0  0  0  0
   24.5694   -9.4697  -15.0108 C   0  0  0  0  0  0  0  0  0  0  0  0
   25.1664   -8.3512  -15.5594 C   0  0  0  0  0  0  0  0  0  0  0  0
   26.3486   -8.4446  -16.2533 C   0  0  0  0  0  0  0  0  0  0  0  0
   26.9097   -9.6995  -16.3760 C   0  0  0  0  0  0  0  0  0  0  0  0
   26.3138  -10.8102  -15.8280 C   0  0  0  0  0  0  0  0  0  0  0  0
   25.1174  -10.7219  -15.1242 C   0  0  0  0  0  0  0  0  0  0  0  0
   22.9921  -13.5020  -16.3310 C   0  0  0  0  0  0  0  0  0  0  0  0
   23.5033  -13.8355  -17.4543 O   0  0  0  0  0  0  0  0  0  0  0  0
   18.9871  -12.9365  -20.0671 N   0  0  0  0  0  0  0  0  0  0  0  0
   19.2555  -12.0107  -19.0213 C   0  0  0  0  0  0  0  0  0  0  0  0
   18.9805  -10.7821  -19.1330 O   0  0  0  0  0  0  0  0  0  0  0  0
   19.8768  -12.4414  -17.7443 C   0  0  0  0  0  0  0  0  0  0  0  0
   21.4015  -12.1222  -17.7320 C   0  0  2  0  0  0  0  0  0  0  0  0
   21.8377  -12.6396  -16.4764 N   0  0  0  0  0  0  0  0  0  0  0  0
   21.6068  -10.7184  -18.0074 C   0  0  0  0  0  0  0  0  0  0  0  0
   21.4089   -9.8284  -17.1632 O   0  0  0  0  0  0  0  0  0  0  0  0
   22.0436  -10.3207  -19.2604 O   0  0  0  0  0  0  0  0  0  0  0  0
  2  1  1  1
  2  3  1  0
  4  6  1  0
  4  2  1  0
  4  5  1  6
  6  7  2  0
  8  9  1  0
  8  6  1  0
  9 10  1  6
 10 11  1  0
 11 19  1  0
 12 11  2  0
 12 13  1  0
 13 14  1  0
 14 15  1  0
 15 16  2  0
 17 16  1  0
 18 17  2  0
 19 14  2  0
 19 18  1  0
 20  9  1  0
 21 20  2  0
 22 23  1  0
 23 24  2  0
 25 23  1  0
 26 27  1  0
 26 25  1  1
 27 20  1  0
 28 30  1  0
 28 26  1  0
 29 28  2  0
M  END
$$$$
