TWN.pdb
     RDKit          3D

 30 31  0  0  1  0  0  0  0  0999 V2000
   25.5148  -25.0142  -18.2994 C   0  0  0  0  0  0  0  0  0  0  0  0
   26.5936  -25.7343  -17.5202 C   0  0  1  0  0  0  0  0  0  0  0  0
   27.1727  -26.6253  -18.4566 O   0  0  0  0  0  0  0  0  0  0  0  0
   27.7133  -24.8321  -17.0779 C   0  0  2  0  0  0  0  0  0  0  0  0
   28.6629  -25.5793  -16.2964 N   0  0  0  0  0  0  0  0  0  0  0  0
   27.2123  -23.6384  -16.3204 C   0  0  0  0  0  0  0  0  0  0  0  0
   26.7875  -23.7579  -15.1409 O   0  0  0  0  0  0  0  0  0  0  0  0
   27.1973  -22.3459  -16.8942 N   0  0  0  0  0  0  0  0  0  0  0  0
   26.7087  -21.2087  -16.1314 C   0  0  1  0  0  0  0  0  0  0  0  0
   27.4275  -19.9782  -16.5818 C   0  0  0  0  0  0  0  0  0  0  0  0
   27.0167  -18.7236  -15.9536 C   0  0  0  0  0  0  0  0  0  0  0  0
   27.2625  -18.3662  -14.6202 C   0  0  0  0  0  0  0  0  0  0  0  0
   26.7595  -17.1470  -14.4119 N   0  0  0  0  0  0  0  0  0  0  0  0
   26.1846  -16.6715  -15.5549 C   0  0  0  0  0  0  0  0  0  0  0  0
   25.5360  -15.4837  -15.8320 C   0  0  0  0  0  0  0  0  0  0  0  0
   25.0196  -15.2301  -17.0796 C   0  0  0  0  0  0  0  0  0  0  0  0
   25.1782  -16.2101  -18.0383 C   0  0  0  0  0  0  0  0  0  0  0  0
   25.8251  -17.3903  -17.7598 C   0  0  0  0  0  0  0  0  0  0  0  0
   26.3502  -17.6526  -16.4988 C   0  0  0  0  0  0  0  0  0  0  0  0
   25.2574  -21.1571  -16.0405 C   0  0  0  0  0  0  0  0  0  0  0  0
   24.4890  -21.3866  -17.0361 O   0  0  0  0  0  0  0  0  0  0  0  0
   22.0700  -23.0664  -15.8366 N   0  0  0  0  0  0  0  0  0  0  0  0
   22.1711  -22.9848  -14.4203 C   0  0  0  0  0  0  0  0  0  0  0  0
   21.8576  -23.9553  -13.6735 O   0  0  0  0  0  0  0  0  0  0  0  0
   22.6477  -21.7517  -13.7462 C   0  0  0  0  0  0  0  0  0  0  0  0
   23.1096  -20.6907  -14.7891 C   0  0  2  0  0  0  0  0  0  0  0  0
   24.5256  -20.8585  -14.8269 N   0  0  0  0  0  0  0  0  0  0  0  0
   22.5788  -19.3947  -14.4322 C   0  0  0  0  0  0  0  0  0  0  0  0
   23.0316  -18.7135  -13.4967 O   0  0  0  0  0  0  0  0  0  0  0  0
   21.5183  -18.8653  -15.1491 O   0  0  0  0  0  0  0  0  0  0  0  0
  2  1  1  6
  2  3  1  0
  4  6  1  0
  4  2  1  0
  4  5  1  1
  6  7  2  0
  8  9  1  0
  8  6  1  0
  9 10  1  6
 10 11  1  0
 11 19  1  0
 12 11  2  0
 12 13  1  0
 13 14  1  0
 14 15  1  0
 15 16  2  0
 17 16  1  0
 18 17  2  0
 19 14  2  0
 19 18  1  0
 20  9  1  0
 21 20  2  0
 22 23  1  0
 23 24  2  0
 25 23  1  0
 26 27  1  0
 26 25  1  1
 27 20  1  0
 28 30  1  0
 28 26  1  0
 29 28  2  0
M  END
$$$$
