TWN.pdb
     RDKit          3D

 30 31  0  0  1  0  0  0  0  0999 V2000
   28.9302  -18.4769  -16.2192 C   0  0  0  0  0  0  0  0  0  0  0  0
   28.0927  -19.0047  -15.0748 C   0  0  1  0  0  0  0  0  0  0  0  0
   26.7830  -19.0957  -15.6063 O   0  0  0  0  0  0  0  0  0  0  0  0
   28.4583  -20.4050  -14.6641 C   0  0  2  0  0  0  0  0  0  0  0  0
   28.2460  -21.3079  -15.7643 N   0  0  0  0  0  0  0  0  0  0  0  0
   27.7051  -20.8523  -13.4466 C   0  0  0  0  0  0  0  0  0  0  0  0
   26.6523  -21.5346  -13.5571 O   0  0  0  0  0  0  0  0  0  0  0  0
   28.1423  -20.5294  -12.1410 N   0  0  0  0  0  0  0  0  0  0  0  0
   27.3344  -20.8860  -10.9860 C   0  0  1  0  0  0  0  0  0  0  0  0
   28.1372  -20.6628   -9.7454 C   0  0  0  0  0  0  0  0  0  0  0  0
   27.3836  -20.5698   -8.4962 C   0  0  0  0  0  0  0  0  0  0  0  0
   26.0181  -20.8529   -8.3503 C   0  0  0  0  0  0  0  0  0  0  0  0
   25.6864  -20.6765   -7.0689 N   0  0  0  0  0  0  0  0  0  0  0  0
   26.7774  -20.2853   -6.3481 C   0  0  0  0  0  0  0  0  0  0  0  0
   26.9329  -19.9772   -5.0105 C   0  0  0  0  0  0  0  0  0  0  0  0
   28.1509  -19.5884   -4.5075 C   0  0  0  0  0  0  0  0  0  0  0  0
   29.2062  -19.5209   -5.3943 C   0  0  0  0  0  0  0  0  0  0  0  0
   29.0485  -19.8292   -6.7243 C   0  0  0  0  0  0  0  0  0  0  0  0
   27.8181  -20.2237   -7.2392 C   0  0  0  0  0  0  0  0  0  0  0  0
   25.9868  -20.3393  -11.0351 C   0  0  0  0  0  0  0  0  0  0  0  0
   25.7456  -19.0843  -11.0688 O   0  0  0  0  0  0  0  0  0  0  0  0
   21.2167  -20.5619  -13.9092 N   0  0  0  0  0  0  0  0  0  0  0  0
   21.4951  -21.2824  -12.7149 C   0  0  0  0  0  0  0  0  0  0  0  0
   20.5770  -21.6352  -11.9210 O   0  0  0  0  0  0  0  0  0  0  0  0
   22.8815  -21.6541  -12.3383 C   0  0  0  0  0  0  0  0  0  0  0  0
   23.4931  -20.6052  -11.3624 C   0  0  2  0  0  0  0  0  0  0  0  0
   24.7812  -21.1412  -11.0655 N   0  0  0  0  0  0  0  0  0  0  0  0
   22.5779  -20.3661  -10.2696 C   0  0  0  0  0  0  0  0  0  0  0  0
   22.5836  -21.0379   -9.2243 O   0  0  0  0  0  0  0  0  0  0  0  0
   21.6431  -19.3484  -10.3665 O   0  0  0  0  0  0  0  0  0  0  0  0
  2  1  1  6
  2  3  1  0
  4  6  1  0
  4  2  1  0
  4  5  1  6
  6  7  2  0
  8  9  1  0
  8  6  1  0
  9 10  1  1
 10 11  1  0
 11 19  1  0
 12 11  2  0
 12 13  1  0
 13 14  1  0
 14 15  1  0
 15 16  2  0
 17 16  1  0
 18 17  2  0
 19 14  2  0
 19 18  1  0
 20  9  1  0
 21 20  2  0
 22 23  1  0
 23 24  2  0
 25 23  1  0
 26 27  1  0
 26 25  1  6
 27 20  1  0
 28 30  1  0
 28 26  1  0
 29 28  2  0
M  END
$$$$
