TWN.pdb
     RDKit          3D

 30 31  0  0  1  0  0  0  0  0999 V2000
   27.6353  -18.1795  -14.4567 C   0  0  0  0  0  0  0  0  0  0  0  0
   27.6780  -19.4495  -15.2783 C   0  0  1  0  0  0  0  0  0  0  0  0
   28.6110  -19.1747  -16.3078 O   0  0  0  0  0  0  0  0  0  0  0  0
   28.2407  -20.6263  -14.5289 C   0  0  2  0  0  0  0  0  0  0  0  0
   28.3206  -21.7680  -15.4013 N   0  0  0  0  0  0  0  0  0  0  0  0
   27.4473  -20.9441  -13.2964 C   0  0  0  0  0  0  0  0  0  0  0  0
   26.3187  -21.4961  -13.3835 O   0  0  0  0  0  0  0  0  0  0  0  0
   27.9295  -20.6399  -12.0022 N   0  0  0  0  0  0  0  0  0  0  0  0
   27.0778  -20.8237  -10.8384 C   0  0  1  0  0  0  0  0  0  0  0  0
   27.8616  -20.4992   -9.6080 C   0  0  0  0  0  0  0  0  0  0  0  0
   27.1181  -20.5007   -8.3492 C   0  0  0  0  0  0  0  0  0  0  0  0
   25.7740  -20.8718   -8.2021 C   0  0  0  0  0  0  0  0  0  0  0  0
   25.4470  -20.7657   -6.9118 N   0  0  0  0  0  0  0  0  0  0  0  0
   26.5206  -20.3369   -6.1862 C   0  0  0  0  0  0  0  0  0  0  0  0
   26.6726  -20.0719   -4.8389 C   0  0  0  0  0  0  0  0  0  0  0  0
   27.8706  -19.6296   -4.3322 C   0  0  0  0  0  0  0  0  0  0  0  0
   28.9097  -19.4636   -5.2253 C   0  0  0  0  0  0  0  0  0  0  0  0
   28.7556  -19.7293   -6.5650 C   0  0  0  0  0  0  0  0  0  0  0  0
   27.5454  -20.1776   -7.0837 C   0  0  0  0  0  0  0  0  0  0  0  0
   25.7611  -20.2225  -10.9878 C   0  0  0  0  0  0  0  0  0  0  0  0
   25.5874  -18.9828  -11.2472 O   0  0  0  0  0  0  0  0  0  0  0  0
   20.8563  -19.5767  -12.4144 N   0  0  0  0  0  0  0  0  0  0  0  0
   21.7389  -20.3508  -13.2174 C   0  0  0  0  0  0  0  0  0  0  0  0
   21.4694  -20.6346  -14.4192 O   0  0  0  0  0  0  0  0  0  0  0  0
   23.0225  -20.8683  -12.6817 C   0  0  0  0  0  0  0  0  0  0  0  0
   23.2478  -20.3885  -11.2169 C   0  0  2  0  0  0  0  0  0  0  0  0
   24.5139  -20.9502  -10.8760 N   0  0  0  0  0  0  0  0  0  0  0  0
   22.1005  -20.7355  -10.4095 C   0  0  0  0  0  0  0  0  0  0  0  0
   21.9220  -21.8732   -9.9427 O   0  0  0  0  0  0  0  0  0  0  0  0
   21.1423  -19.7753  -10.1285 O   0  0  0  0  0  0  0  0  0  0  0  0
  2  1  1  1
  2  3  1  0
  4  6  1  0
  4  2  1  0
  4  5  1  6
  6  7  2  0
  8  9  1  0
  8  6  1  0
  9 10  1  1
 10 11  1  0
 11 19  1  0
 12 11  2  0
 12 13  1  0
 13 14  1  0
 14 15  1  0
 15 16  2  0
 17 16  1  0
 18 17  2  0
 19 14  2  0
 19 18  1  0
 20  9  1  0
 21 20  2  0
 22 23  1  0
 23 24  2  0
 25 23  1  0
 26 27  1  0
 26 25  1  6
 27 20  1  0
 28 30  1  0
 28 26  1  0
 29 28  2  0
M  END
$$$$
