TWN.pdb
     RDKit          3D

 30 31  0  0  1  0  0  0  0  0999 V2000
   25.2361  -23.1850  -18.4553 C   0  0  0  0  0  0  0  0  0  0  0  0
   25.8074  -24.5379  -18.0904 C   0  0  1  0  0  0  0  0  0  0  0  0
   26.7528  -24.8102  -19.1094 O   0  0  0  0  0  0  0  0  0  0  0  0
   26.5914  -24.5280  -16.8065 C   0  0  2  0  0  0  0  0  0  0  0  0
   27.0098  -25.8654  -16.4794 N   0  0  0  0  0  0  0  0  0  0  0  0
   25.8195  -23.9132  -15.6770 C   0  0  0  0  0  0  0  0  0  0  0  0
   24.8583  -24.5293  -15.1455 O   0  0  0  0  0  0  0  0  0  0  0  0
   26.1368  -22.6318  -15.1699 N   0  0  0  0  0  0  0  0  0  0  0  0
   25.3425  -22.0465  -14.1019 C   0  0  1  0  0  0  0  0  0  0  0  0
   26.2496  -21.3064  -13.1730 C   0  0  0  0  0  0  0  0  0  0  0  0
   25.7246  -21.0370  -11.8355 C   0  0  0  0  0  0  0  0  0  0  0  0
   26.4989  -20.7329  -10.7068 C   0  0  0  0  0  0  0  0  0  0  0  0
   25.6765  -20.5311   -9.6743 N   0  0  0  0  0  0  0  0  0  0  0  0
   24.3787  -20.6883  -10.0665 C   0  0  0  0  0  0  0  0  0  0  0  0
   23.1900  -20.5928   -9.3692 C   0  0  0  0  0  0  0  0  0  0  0  0
   21.9831  -20.8102   -9.9887 C   0  0  0  0  0  0  0  0  0  0  0  0
   22.0121  -21.1257  -11.3319 C   0  0  0  0  0  0  0  0  0  0  0  0
   23.1964  -21.2188  -12.0231 C   0  0  0  0  0  0  0  0  0  0  0  0
   24.4212  -20.9995  -11.4015 C   0  0  0  0  0  0  0  0  0  0  0  0
   24.1495  -21.3640  -14.5795 C   0  0  0  0  0  0  0  0  0  0  0  0
   24.1763  -20.4770  -15.4998 O   0  0  0  0  0  0  0  0  0  0  0  0
   20.4925  -19.8486  -17.6190 N   0  0  0  0  0  0  0  0  0  0  0  0
   20.4081  -21.0123  -16.8056 C   0  0  0  0  0  0  0  0  0  0  0  0
   19.3232  -21.6437  -16.6577 O   0  0  0  0  0  0  0  0  0  0  0  0
   21.5919  -21.5428  -16.0851 C   0  0  0  0  0  0  0  0  0  0  0  0
   21.6478  -20.9952  -14.6279 C   0  0  2  0  0  0  0  0  0  0  0  0
   22.8117  -21.6164  -14.0854 N   0  0  0  0  0  0  0  0  0  0  0  0
   20.3787  -21.2208  -13.9745 C   0  0  0  0  0  0  0  0  0  0  0  0
   19.4030  -20.4641  -14.1140 O   0  0  0  0  0  0  0  0  0  0  0  0
   20.2162  -22.3227  -13.1508 O   0  0  0  0  0  0  0  0  0  0  0  0
  2  1  1  6
  2  3  1  0
  4  6  1  0
  4  2  1  0
  4  5  1  1
  6  7  2  0
  8  9  1  0
  8  6  1  0
  9 10  1  6
 10 11  1  0
 11 19  1  0
 12 11  2  0
 12 13  1  0
 13 14  1  0
 14 15  1  0
 15 16  2  0
 17 16  1  0
 18 17  2  0
 19 14  2  0
 19 18  1  0
 20  9  1  0
 21 20  2  0
 22 23  1  0
 23 24  2  0
 25 23  1  0
 26 27  1  0
 26 25  1  6
 27 20  1  0
 28 30  1  0
 28 26  1  0
 29 28  2  0
M  END
$$$$
