TWN.pdb
     RDKit          3D

 30 31  0  0  1  0  0  0  0  0999 V2000
   15.8426  -12.9186  -19.8303 C   0  0  0  0  0  0  0  0  0  0  0  0
   16.1478  -11.9107  -18.7436 C   0  0  1  0  0  0  0  0  0  0  0  0
   14.9067  -11.7036  -18.0933 O   0  0  0  0  0  0  0  0  0  0  0  0
   17.0745  -12.4390  -17.6829 C   0  0  2  0  0  0  0  0  0  0  0  0
   16.5606  -13.6761  -17.1573 N   0  0  0  0  0  0  0  0  0  0  0  0
   17.3059  -11.4422  -16.5863 C   0  0  0  0  0  0  0  0  0  0  0  0
   16.5416  -11.3981  -15.5863 O   0  0  0  0  0  0  0  0  0  0  0  0
   18.3794  -10.5227  -16.6312 N   0  0  0  0  0  0  0  0  0  0  0  0
   18.5381   -9.5263  -15.5844 C   0  0  1  0  0  0  0  0  0  0  0  0
   19.9363   -9.5919  -15.0607 C   0  0  0  0  0  0  0  0  0  0  0  0
   20.3301   -8.5308  -14.1354 C   0  0  0  0  0  0  0  0  0  0  0  0
   20.0065   -8.4829  -12.7719 C   0  0  0  0  0  0  0  0  0  0  0  0
   20.5513   -7.3819  -12.2486 N   0  0  0  0  0  0  0  0  0  0  0  0
   21.2288   -6.6878  -13.2090 C   0  0  0  0  0  0  0  0  0  0  0  0
   21.9372   -5.5029  -13.1590 C   0  0  0  0  0  0  0  0  0  0  0  0
   22.5353   -4.9844  -14.2820 C   0  0  0  0  0  0  0  0  0  0  0  0
   22.3974   -5.6975  -15.4556 C   0  0  0  0  0  0  0  0  0  0  0  0
   21.6928   -6.8767  -15.5017 C   0  0  0  0  0  0  0  0  0  0  0  0
   21.0856   -7.4067  -14.3681 C   0  0  0  0  0  0  0  0  0  0  0  0
   18.0047   -8.2216  -15.9458 C   0  0  0  0  0  0  0  0  0  0  0  0
   18.1632   -7.7009  -17.1026 O   0  0  0  0  0  0  0  0  0  0  0  0
   15.5844   -3.5755  -15.6998 N   0  0  0  0  0  0  0  0  0  0  0  0
   15.1350   -4.3886  -14.6229 C   0  0  0  0  0  0  0  0  0  0  0  0
   14.2375   -3.9979  -13.8232 O   0  0  0  0  0  0  0  0  0  0  0  0
   15.7013   -5.7389  -14.3814 C   0  0  0  0  0  0  0  0  0  0  0  0
   16.8698   -6.0366  -15.3676 C   0  0  2  0  0  0  0  0  0  0  0  0
   17.2320   -7.3805  -15.0554 N   0  0  0  0  0  0  0  0  0  0  0  0
   17.8776   -5.0071  -15.2525 C   0  0  0  0  0  0  0  0  0  0  0  0
   18.1726   -4.2430  -16.1870 O   0  0  0  0  0  0  0  0  0  0  0  0
   18.5597   -4.8438  -14.0579 O   0  0  0  0  0  0  0  0  0  0  0  0
  2  1  1  6
  2  3  1  0
  4  6  1  0
  4  2  1  0
  4  5  1  1
  6  7  2  0
  8  9  1  0
  8  6  1  0
  9 10  1  6
 10 11  1  0
 11 19  1  0
 12 11  2  0
 12 13  1  0
 13 14  1  0
 14 15  1  0
 15 16  2  0
 17 16  1  0
 18 17  2  0
 19 14  2  0
 19 18  1  0
 20  9  1  0
 21 20  2  0
 22 23  1  0
 23 24  2  0
 25 23  1  0
 26 27  1  0
 26 25  1  1
 27 20  1  0
 28 30  1  0
 28 26  1  0
 29 28  2  0
M  END
$$$$
