TWN.pdb
     RDKit          3D

 30 31  0  0  1  0  0  0  0  0999 V2000
   27.5936  -17.9683  -15.4121 C   0  0  0  0  0  0  0  0  0  0  0  0
   27.7198  -19.0721  -16.4395 C   0  0  1  0  0  0  0  0  0  0  0  0
   28.6646  -18.5809  -17.3734 O   0  0  0  0  0  0  0  0  0  0  0  0
   28.3200  -20.3359  -15.8868 C   0  0  2  0  0  0  0  0  0  0  0  0
   28.5059  -21.2922  -16.9459 N   0  0  0  0  0  0  0  0  0  0  0  0
   27.4953  -20.9152  -14.7760 C   0  0  0  0  0  0  0  0  0  0  0  0
   26.4165  -21.5164  -15.0229 O   0  0  0  0  0  0  0  0  0  0  0  0
   27.8918  -20.8106  -13.4225 N   0  0  0  0  0  0  0  0  0  0  0  0
   27.0060  -21.2587  -12.3603 C   0  0  1  0  0  0  0  0  0  0  0  0
   27.7740  -21.3134  -11.0795 C   0  0  0  0  0  0  0  0  0  0  0  0
   27.0827  -20.8191   -9.8899 C   0  0  0  0  0  0  0  0  0  0  0  0
   25.6931  -20.6890   -9.7554 C   0  0  0  0  0  0  0  0  0  0  0  0
   25.4305  -20.2264   -8.5306 N   0  0  0  0  0  0  0  0  0  0  0  0
   26.5912  -20.0404   -7.8370 C   0  0  0  0  0  0  0  0  0  0  0  0
   26.8334  -19.5779   -6.5580 C   0  0  0  0  0  0  0  0  0  0  0  0
   28.1142  -19.4640   -6.0741 C   0  0  0  0  0  0  0  0  0  0  0  0
   29.1420  -19.8313   -6.9188 C   0  0  0  0  0  0  0  0  0  0  0  0
   28.8976  -20.2922   -8.1904 C   0  0  0  0  0  0  0  0  0  0  0  0
   27.6032  -20.4101   -8.6857 C   0  0  0  0  0  0  0  0  0  0  0  0
   25.7202  -20.5774  -12.3571 C   0  0  0  0  0  0  0  0  0  0  0  0
   25.6045  -19.3098  -12.2379 O   0  0  0  0  0  0  0  0  0  0  0  0
   23.6301  -18.1682  -14.0919 N   0  0  0  0  0  0  0  0  0  0  0  0
   23.2693  -19.3090  -14.8609 C   0  0  0  0  0  0  0  0  0  0  0  0
   23.1758  -19.2602  -16.1205 O   0  0  0  0  0  0  0  0  0  0  0  0
   22.9802  -20.6162  -14.2209 C   0  0  0  0  0  0  0  0  0  0  0  0
   23.2123  -20.5458  -12.6821 C   0  0  2  0  0  0  0  0  0  0  0  0
   24.4427  -21.2442  -12.5008 N   0  0  0  0  0  0  0  0  0  0  0  0
   22.0382  -21.0276  -11.9907 C   0  0  0  0  0  0  0  0  0  0  0  0
   21.9303  -22.1934  -11.5742 O   0  0  0  0  0  0  0  0  0  0  0  0
   20.9716  -20.1719  -11.7692 O   0  0  0  0  0  0  0  0  0  0  0  0
  2  1  1  1
  2  3  1  0
  4  6  1  0
  4  2  1  0
  4  5  1  6
  6  7  2  0
  8  9  1  0
  8  6  1  0
  9 10  1  1
 10 11  1  0
 11 19  1  0
 12 11  2  0
 12 13  1  0
 13 14  1  0
 14 15  1  0
 15 16  2  0
 17 16  1  0
 18 17  2  0
 19 14  2  0
 19 18  1  0
 20  9  1  0
 21 20  2  0
 22 23  1  0
 23 24  2  0
 25 23  1  0
 26 27  1  0
 26 25  1  6
 27 20  1  0
 28 30  1  0
 28 26  1  0
 29 28  2  0
M  END
$$$$
