TWN.pdb
     RDKit          3D

 30 31  0  0  1  0  0  0  0  0999 V2000
   28.9893  -19.8260  -16.4515 C   0  0  0  0  0  0  0  0  0  0  0  0
   28.0569  -20.0707  -15.2850 C   0  0  1  0  0  0  0  0  0  0  0  0
   26.7626  -20.0737  -15.8602 O   0  0  0  0  0  0  0  0  0  0  0  0
   28.2238  -21.4301  -14.6627 C   0  0  2  0  0  0  0  0  0  0  0  0
   27.8570  -22.4493  -15.6100 N   0  0  0  0  0  0  0  0  0  0  0  0
   27.4415  -21.5697  -13.3906 C   0  0  0  0  0  0  0  0  0  0  0  0
   26.2890  -22.0773  -13.3976 O   0  0  0  0  0  0  0  0  0  0  0  0
   27.9613  -21.1419  -12.1469 N   0  0  0  0  0  0  0  0  0  0  0  0
   27.0998  -21.0623  -10.9784 C   0  0  1  0  0  0  0  0  0  0  0  0
   27.9356  -20.7451   -9.7807 C   0  0  0  0  0  0  0  0  0  0  0  0
   27.2117  -20.4972   -8.5350 C   0  0  0  0  0  0  0  0  0  0  0  0
   25.8182  -20.5386   -8.3853 C   0  0  0  0  0  0  0  0  0  0  0  0
   25.5244  -20.2802   -7.1086 N   0  0  0  0  0  0  0  0  0  0  0  0
   26.6679  -20.0664   -6.3947 C   0  0  0  0  0  0  0  0  0  0  0  0
   26.8767  -19.7607   -5.0638 C   0  0  0  0  0  0  0  0  0  0  0  0
   28.1444  -19.5759   -4.5673 C   0  0  0  0  0  0  0  0  0  0  0  0
   29.1939  -19.7096   -5.4537 C   0  0  0  0  0  0  0  0  0  0  0  0
   28.9828  -20.0150   -6.7770 C   0  0  0  0  0  0  0  0  0  0  0  0
   27.7018  -20.2036   -7.2852 C   0  0  0  0  0  0  0  0  0  0  0  0
   25.8985  -20.2720  -11.2016 C   0  0  0  0  0  0  0  0  0  0  0  0
   25.9208  -19.1013  -11.7148 O   0  0  0  0  0  0  0  0  0  0  0  0
   21.9228  -20.4797  -14.8247 N   0  0  0  0  0  0  0  0  0  0  0  0
   22.5364  -19.7158  -13.7937 C   0  0  0  0  0  0  0  0  0  0  0  0
   22.1420  -18.5503  -13.5042 O   0  0  0  0  0  0  0  0  0  0  0  0
   23.6756  -20.2490  -13.0064 C   0  0  0  0  0  0  0  0  0  0  0  0
   23.3872  -20.1573  -11.4783 C   0  0  2  0  0  0  0  0  0  0  0  0
   24.5574  -20.7187  -10.8865 N   0  0  0  0  0  0  0  0  0  0  0  0
   22.1087  -20.7653  -11.1874 C   0  0  0  0  0  0  0  0  0  0  0  0
   21.0831  -20.1034  -10.9549 O   0  0  0  0  0  0  0  0  0  0  0  0
   21.9945  -22.1456  -11.1606 O   0  0  0  0  0  0  0  0  0  0  0  0
  2  1  1  6
  2  3  1  0
  4  6  1  0
  4  2  1  0
  4  5  1  6
  6  7  2  0
  8  9  1  0
  8  6  1  0
  9 10  1  1
 10 11  1  0
 11 19  1  0
 12 11  2  0
 12 13  1  0
 13 14  1  0
 14 15  1  0
 15 16  2  0
 17 16  1  0
 18 17  2  0
 19 14  2  0
 19 18  1  0
 20  9  1  0
 21 20  2  0
 22 23  1  0
 23 24  2  0
 25 23  1  0
 26 27  1  0
 26 25  1  6
 27 20  1  0
 28 30  1  0
 28 26  1  0
 29 28  2  0
M  END
$$$$
