TWN.pdb
     RDKit          3D

 30 31  0  0  1  0  0  0  0  0999 V2000
   26.1012  -34.8246  -16.8401 C   0  0  0  0  0  0  0  0  0  0  0  0
   25.6472  -34.8578  -15.3970 C   0  0  1  0  0  0  0  0  0  0  0  0
   25.0133  -36.1162  -15.2535 O   0  0  0  0  0  0  0  0  0  0  0  0
   26.7854  -34.8663  -14.4134 C   0  0  2  0  0  0  0  0  0  0  0  0
   27.6181  -36.0178  -14.6398 N   0  0  0  0  0  0  0  0  0  0  0  0
   26.3060  -34.8186  -12.9930 C   0  0  0  0  0  0  0  0  0  0  0  0
   26.1129  -35.8806  -12.3441 O   0  0  0  0  0  0  0  0  0  0  0  0
   26.0546  -33.5932  -12.3334 N   0  0  0  0  0  0  0  0  0  0  0  0
   25.6090  -33.5811  -10.9495 C   0  0  1  0  0  0  0  0  0  0  0  0
   26.2670  -32.4433  -10.2383 C   0  0  0  0  0  0  0  0  0  0  0  0
   25.9098  -32.2674   -8.8316 C   0  0  0  0  0  0  0  0  0  0  0  0
   24.8518  -31.4794   -8.3564 C   0  0  0  0  0  0  0  0  0  0  0  0
   24.8204  -31.5761   -7.0250 N   0  0  0  0  0  0  0  0  0  0  0  0
   25.8175  -32.3990   -6.5874 C   0  0  0  0  0  0  0  0  0  0  0  0
   26.1905  -32.7964   -5.3180 C   0  0  0  0  0  0  0  0  0  0  0  0
   27.2580  -33.6388   -5.1218 C   0  0  0  0  0  0  0  0  0  0  0  0
   27.9364  -34.0682   -6.2443 C   0  0  0  0  0  0  0  0  0  0  0  0
   27.5620  -33.6720   -7.5060 C   0  0  0  0  0  0  0  0  0  0  0  0
   26.4821  -32.8197   -7.7109 C   0  0  0  0  0  0  0  0  0  0  0  0
   24.1690  -33.7345  -10.8070 C   0  0  0  0  0  0  0  0  0  0  0  0
   23.3268  -33.1122  -11.5405 O   0  0  0  0  0  0  0  0  0  0  0  0
   19.4399  -35.5383   -9.6744 N   0  0  0  0  0  0  0  0  0  0  0  0
   20.4144  -36.5616   -9.8360 C   0  0  0  0  0  0  0  0  0  0  0  0
   20.0943  -37.7831   -9.8904 O   0  0  0  0  0  0  0  0  0  0  0  0
   21.8602  -36.2457   -9.9458 C   0  0  0  0  0  0  0  0  0  0  0  0
   22.1172  -34.7273   -9.7112 C   0  0  2  0  0  0  0  0  0  0  0  0
   23.5325  -34.6072   -9.8424 N   0  0  0  0  0  0  0  0  0  0  0  0
   21.5033  -34.3163   -8.4691 C   0  0  0  0  0  0  0  0  0  0  0  0
   22.1474  -34.1505   -7.4195 O   0  0  0  0  0  0  0  0  0  0  0  0
   20.1375  -34.0903   -8.4195 O   0  0  0  0  0  0  0  0  0  0  0  0
  2  1  1  6
  2  3  1  0
  4  6  1  0
  4  2  1  0
  4  5  1  1
  6  7  2  0
  8  9  1  0
  8  6  1  0
  9 10  1  6
 10 11  1  0
 11 19  1  0
 12 11  2  0
 12 13  1  0
 13 14  1  0
 14 15  1  0
 15 16  2  0
 17 16  1  0
 18 17  2  0
 19 14  2  0
 19 18  1  0
 20  9  1  0
 21 20  2  0
 22 23  1  0
 23 24  2  0
 25 23  1  0
 26 27  1  0
 26 25  1  1
 27 20  1  0
 28 30  1  0
 28 26  1  0
 29 28  2  0
M  END
$$$$
