MSD.pdb
     RDKit          3D

 23 22  0  0  1  0  0  0  0  0999 V2000
    7.0878  -11.8271   27.9144 C   0  0  0  0  0  0  0  0  0  0  0  0
    7.3461  -11.5584   26.1311 S   0  0  0  0  0  0  0  0  0  0  0  0
    6.0720  -12.4767   25.2556 C   0  0  0  0  0  0  0  0  0  0  0  0
    6.4696  -13.8953   24.9401 C   0  0  0  0  0  0  0  0  0  0  0  0
    7.8316  -13.8100   24.2497 C   0  0  2  0  0  0  0  0  0  0  0  0
    7.6366  -13.1880   22.9481 N   0  0  0  0  0  0  0  0  0  0  0  0
    8.4557  -15.1533   24.1144 C   0  0  0  0  0  0  0  0  0  0  0  0
    8.4549  -15.8887   25.1354 O   0  0  0  0  0  0  0  0  0  0  0  0
   10.8899  -16.0261   20.9492 O   0  0  0  0  0  0  0  0  0  0  0  0
   10.0304  -17.0865   21.2490 C   0  0  0  0  0  0  0  0  0  0  0  0
    9.5692  -16.8883   22.6903 C   0  0  2  0  0  0  0  0  0  0  0  0
    9.0199  -15.5618   22.8770 N   0  0  0  0  0  0  0  0  0  0  0  0
   10.7567  -17.1122   23.5587 C   0  0  0  0  0  0  0  0  0  0  0  0
   11.4100  -16.1160   23.9592 O   0  0  0  0  0  0  0  0  0  0  0  0
   11.1890  -18.3917   23.9576 N   0  0  0  0  0  0  0  0  0  0  0  0
   12.3094  -18.5940   24.9155 C   0  0  1  0  0  0  0  0  0  0  0  0
   12.0539  -19.8685   25.6883 C   0  0  0  0  0  0  0  0  0  0  0  0
   13.1813  -20.1621   26.5641 C   0  0  0  0  0  0  0  0  0  0  0  0
   13.4585  -19.4389   27.5340 O   0  0  0  0  0  0  0  0  0  0  0  0
   13.5043  -18.6505   24.0544 C   0  0  0  0  0  0  0  0  0  0  0  0
   13.4501  -18.9880   22.7257 O   0  0  0  0  0  0  0  0  0  0  0  0
   13.9774  -21.2740   26.3238 O   0  0  0  0  0  0  0  0  0  0  0  0
   14.6316  -18.3848   24.5269 O   0  0  0  0  0  0  0  0  0  0  0  0
  1  2  1  0
  2  3  1  0
  4  5  1  0
  4  3  1  0
  5  6  1  6
  5  7  1  0
  7  8  2  0
 11 10  1  6
 10  9  1  0
 12  7  1  0
 12 11  1  0
 13 11  1  0
 13 15  1  0
 14 13  2  0
 16 15  1  0
 16 17  1  6
 17 18  1  0
 18 19  2  0
 18 22  1  0
 20 21  1  0
 20 16  1  0
 23 20  2  0
M  END
$$$$
