MSD.pdb
     RDKit          3D

 23 22  0  0  1  0  0  0  0  0999 V2000
    6.9833  -11.1615   25.8354 C   0  0  0  0  0  0  0  0  0  0  0  0
    5.9372  -12.1722   26.9324 S   0  0  0  0  0  0  0  0  0  0  0  0
    5.7667  -13.7937   26.1742 C   0  0  0  0  0  0  0  0  0  0  0  0
    7.0670  -14.3481   25.6532 C   0  0  0  0  0  0  0  0  0  0  0  0
    6.7181  -15.6656   24.9593 C   0  0  2  0  0  0  0  0  0  0  0  0
    6.1912  -16.5765   25.9652 N   0  0  0  0  0  0  0  0  0  0  0  0
    7.9035  -16.2487   24.2757 C   0  0  0  0  0  0  0  0  0  0  0  0
    8.5292  -17.1519   24.8888 O   0  0  0  0  0  0  0  0  0  0  0  0
    9.8585  -14.4407   21.0445 O   0  0  0  0  0  0  0  0  0  0  0  0
    9.5090  -15.7819   20.8658 C   0  0  0  0  0  0  0  0  0  0  0  0
    9.3813  -16.3951   22.2576 C   0  0  2  0  0  0  0  0  0  0  0  0
    8.2895  -15.7878   22.9892 N   0  0  0  0  0  0  0  0  0  0  0  0
   10.6831  -16.1798   22.9457 C   0  0  0  0  0  0  0  0  0  0  0  0
   10.8109  -15.1833   23.7009 O   0  0  0  0  0  0  0  0  0  0  0  0
   11.7866  -17.0413   22.7934 N   0  0  0  0  0  0  0  0  0  0  0  0
   13.0406  -16.8799   23.5777 C   0  0  1  0  0  0  0  0  0  0  0  0
   13.4606  -18.2382   24.0931 C   0  0  0  0  0  0  0  0  0  0  0  0
   14.0183  -18.1184   25.4344 C   0  0  0  0  0  0  0  0  0  0  0  0
   14.2222  -17.0121   25.9589 O   0  0  0  0  0  0  0  0  0  0  0  0
   13.9871  -16.2914   22.6132 C   0  0  0  0  0  0  0  0  0  0  0  0
   15.0199  -15.4702   22.9890 O   0  0  0  0  0  0  0  0  0  0  0  0
   14.3362  -19.2589   26.1597 O   0  0  0  0  0  0  0  0  0  0  0  0
   13.8693  -16.5323   21.3915 O   0  0  0  0  0  0  0  0  0  0  0  0
  1  2  1  0
  2  3  1  0
  4  5  1  0
  4  3  1  0
  5  6  1  1
  5  7  1  0
  7  8  2  0
 11 10  1  6
 10  9  1  0
 12  7  1  0
 12 11  1  0
 13 11  1  0
 13 15  1  0
 14 13  2  0
 16 15  1  0
 16 17  1  6
 17 18  1  0
 18 19  2  0
 18 22  1  0
 20 21  1  0
 20 16  1  0
 23 20  2  0
M  END
$$$$
