MSD.pdb
     RDKit          3D

 23 22  0  0  1  0  0  0  0  0999 V2000
    7.0387  -12.1408   20.2461 C   0  0  0  0  0  0  0  0  0  0  0  0
    8.2104  -12.6969   18.9665 S   0  0  0  0  0  0  0  0  0  0  0  0
    8.0985  -14.4890   18.8727 C   0  0  0  0  0  0  0  0  0  0  0  0
    8.3750  -15.1733   20.1862 C   0  0  0  0  0  0  0  0  0  0  0  0
    8.1710  -16.6682   19.9362 C   0  0  2  0  0  0  0  0  0  0  0  0
    6.8721  -16.8440   19.3029 N   0  0  0  0  0  0  0  0  0  0  0  0
    8.2612  -17.4464   21.2006 C   0  0  0  0  0  0  0  0  0  0  0  0
    7.3349  -17.2860   22.0371 O   0  0  0  0  0  0  0  0  0  0  0  0
    9.3990  -20.9798   21.4192 O   0  0  0  0  0  0  0  0  0  0  0  0
    8.9640  -20.4236   22.6252 C   0  0  0  0  0  0  0  0  0  0  0  0
    9.5328  -19.0088   22.6906 C   0  0  2  0  0  0  0  0  0  0  0  0
    9.3545  -18.3236   21.4277 N   0  0  0  0  0  0  0  0  0  0  0  0
   10.9735  -19.1381   23.0403 C   0  0  0  0  0  0  0  0  0  0  0  0
   11.7443  -19.7099   22.2287 O   0  0  0  0  0  0  0  0  0  0  0  0
   11.5213  -18.6492   24.2420 N   0  0  0  0  0  0  0  0  0  0  0  0
   12.9375  -18.8886   24.6302 C   0  0  1  0  0  0  0  0  0  0  0  0
   13.6756  -17.5695   24.5845 C   0  0  0  0  0  0  0  0  0  0  0  0
   13.7319  -17.0701   23.2163 C   0  0  0  0  0  0  0  0  0  0  0  0
   13.8537  -17.8363   22.2475 O   0  0  0  0  0  0  0  0  0  0  0  0
   12.8400  -19.4687   25.9817 C   0  0  0  0  0  0  0  0  0  0  0  0
   11.6505  -19.5991   26.6526 O   0  0  0  0  0  0  0  0  0  0  0  0
   13.6490  -15.7061   22.9701 O   0  0  0  0  0  0  0  0  0  0  0  0
   13.8696  -19.8682   26.5690 O   0  0  0  0  0  0  0  0  0  0  0  0
  1  2  1  0
  2  3  1  0
  4  5  1  0
  4  3  1  0
  5  6  1  1
  5  7  1  0
  7  8  2  0
 11 10  1  6
 10  9  1  0
 12  7  1  0
 12 11  1  0
 13 11  1  0
 13 15  1  0
 14 13  2  0
 16 15  1  0
 16 17  1  1
 17 18  1  0
 18 19  2  0
 18 22  1  0
 20 21  1  0
 20 16  1  0
 23 20  2  0
M  END
$$$$
