MSD.pdb
     RDKit          3D

 23 22  0  0  1  0  0  0  0  0999 V2000
    6.2962  -10.6802   26.7846 C   0  0  0  0  0  0  0  0  0  0  0  0
    7.0687  -11.9467   25.7269 S   0  0  0  0  0  0  0  0  0  0  0  0
    6.2558  -13.5121   26.0758 C   0  0  0  0  0  0  0  0  0  0  0  0
    7.1427  -14.7084   25.8480 C   0  0  0  0  0  0  0  0  0  0  0  0
    7.0821  -15.0014   24.3482 C   0  0  2  0  0  0  0  0  0  0  0  0
    5.7109  -15.3603   24.0163 N   0  0  0  0  0  0  0  0  0  0  0  0
    8.0273  -16.0855   23.9691 C   0  0  0  0  0  0  0  0  0  0  0  0
    7.7982  -17.2316   24.4351 O   0  0  0  0  0  0  0  0  0  0  0  0
   10.9720  -15.2794   21.2392 O   0  0  0  0  0  0  0  0  0  0  0  0
   10.6158  -16.6262   21.3499 C   0  0  0  0  0  0  0  0  0  0  0  0
   10.0975  -16.8316   22.7707 C   0  0  2  0  0  0  0  0  0  0  0  0
    9.1306  -15.8114   23.1182 N   0  0  0  0  0  0  0  0  0  0  0  0
   11.2804  -16.7892   23.6725 C   0  0  0  0  0  0  0  0  0  0  0  0
   11.6006  -15.6941   24.1997 O   0  0  0  0  0  0  0  0  0  0  0  0
   12.0649  -17.9209   23.9677 N   0  0  0  0  0  0  0  0  0  0  0  0
   13.2386  -17.8636   24.8802 C   0  0  1  0  0  0  0  0  0  0  0  0
   13.4206  -19.2257   25.5116 C   0  0  0  0  0  0  0  0  0  0  0  0
   12.3866  -19.4603   26.5117 C   0  0  0  0  0  0  0  0  0  0  0  0
   12.0965  -18.6043   27.3622 O   0  0  0  0  0  0  0  0  0  0  0  0
   14.3510  -17.4630   24.0001 C   0  0  0  0  0  0  0  0  0  0  0  0
   15.5782  -17.0787   24.4781 O   0  0  0  0  0  0  0  0  0  0  0  0
   11.6976  -20.6657   26.5298 O   0  0  0  0  0  0  0  0  0  0  0  0
   14.2001  -17.4626   22.7584 O   0  0  0  0  0  0  0  0  0  0  0  0
  1  2  1  0
  2  3  1  0
  4  5  1  0
  4  3  1  0
  5  6  1  1
  5  7  1  0
  7  8  2  0
 11 10  1  6
 10  9  1  0
 12  7  1  0
 12 11  1  0
 13 11  1  0
 13 15  1  0
 14 13  2  0
 16 15  1  0
 16 17  1  6
 17 18  1  0
 18 19  2  0
 18 22  1  0
 20 21  1  0
 20 16  1  0
 23 20  2  0
M  END
$$$$
