MSD.pdb
     RDKit          3D

 23 22  0  0  1  0  0  0  0  0999 V2000
    5.3392  -11.8856   26.4717 C   0  0  0  0  0  0  0  0  0  0  0  0
    6.7710  -11.2688   25.5290 S   0  0  0  0  0  0  0  0  0  0  0  0
    7.8092  -12.6831   25.1352 C   0  0  0  0  0  0  0  0  0  0  0  0
    7.2499  -13.9905   25.6329 C   0  0  0  0  0  0  0  0  0  0  0  0
    8.2582  -15.0655   25.2248 C   0  0  2  0  0  0  0  0  0  0  0  0
    8.4968  -14.9368   23.7945 N   0  0  0  0  0  0  0  0  0  0  0  0
    7.7668  -16.4272   25.5664 C   0  0  0  0  0  0  0  0  0  0  0  0
    7.3678  -16.6110   26.7455 O   0  0  0  0  0  0  0  0  0  0  0  0
    8.3794  -19.4810   22.8638 O   0  0  0  0  0  0  0  0  0  0  0  0
    7.2514  -19.6670   23.6675 C   0  0  0  0  0  0  0  0  0  0  0  0
    7.4624  -18.8305   24.9266 C   0  0  2  0  0  0  0  0  0  0  0  0
    7.7594  -17.4549   24.5866 N   0  0  0  0  0  0  0  0  0  0  0  0
    8.5817  -19.4582   25.6799 C   0  0  0  0  0  0  0  0  0  0  0  0
    8.4169  -20.6066   26.1633 O   0  0  0  0  0  0  0  0  0  0  0  0
    9.8247  -18.8275   25.8802 N   0  0  0  0  0  0  0  0  0  0  0  0
   10.9746  -19.5149   26.5274 C   0  0  1  0  0  0  0  0  0  0  0  0
   12.2524  -19.0009   25.9027 C   0  0  0  0  0  0  0  0  0  0  0  0
   12.1964  -19.1396   24.4529 C   0  0  0  0  0  0  0  0  0  0  0  0
   12.6552  -18.2688   23.6969 O   0  0  0  0  0  0  0  0  0  0  0  0
   10.8318  -19.1747   27.9544 C   0  0  0  0  0  0  0  0  0  0  0  0
   11.2961  -19.9809   28.9627 O   0  0  0  0  0  0  0  0  0  0  0  0
   11.6190  -20.2669   23.8840 O   0  0  0  0  0  0  0  0  0  0  0  0
   10.2667  -18.1113   28.2926 O   0  0  0  0  0  0  0  0  0  0  0  0
  1  2  1  0
  2  3  1  0
  4  5  1  0
  4  3  1  0
  5  6  1  6
  5  7  1  0
  7  8  2  0
 11 10  1  6
 10  9  1  0
 12  7  1  0
 12 11  1  0
 13 11  1  0
 13 15  1  0
 14 13  2  0
 16 15  1  0
 16 17  1  6
 17 18  1  0
 18 19  2  0
 18 22  1  0
 20 21  1  0
 20 16  1  0
 23 20  2  0
M  END
$$$$
