MSD.pdb
     RDKit          3D

 23 22  0  0  1  0  0  0  0  0999 V2000
    5.9901  -10.4407   26.6048 C   0  0  0  0  0  0  0  0  0  0  0  0
    6.3183  -12.2326   26.6292 S   0  0  0  0  0  0  0  0  0  0  0  0
    6.8201  -12.7133   24.9709 C   0  0  0  0  0  0  0  0  0  0  0  0
    7.1194  -14.1841   24.8411 C   0  0  0  0  0  0  0  0  0  0  0  0
    8.0226  -14.3262   23.6152 C   0  0  2  0  0  0  0  0  0  0  0  0
    7.2281  -14.0189   22.4347 N   0  0  0  0  0  0  0  0  0  0  0  0
    8.6075  -15.6910   23.5281 C   0  0  0  0  0  0  0  0  0  0  0  0
    8.2518  -16.5215   24.4038 O   0  0  0  0  0  0  0  0  0  0  0  0
   11.9003  -16.3054   21.1672 O   0  0  0  0  0  0  0  0  0  0  0  0
   11.0481  -17.4129   21.1818 C   0  0  0  0  0  0  0  0  0  0  0  0
   10.1939  -17.2974   22.4413 C   0  0  2  0  0  0  0  0  0  0  0  0
    9.5238  -16.0150   22.4928 N   0  0  0  0  0  0  0  0  0  0  0  0
   11.1077  -17.4803   23.6014 C   0  0  0  0  0  0  0  0  0  0  0  0
   11.5775  -16.4616   24.1682 O   0  0  0  0  0  0  0  0  0  0  0  0
   11.4754  -18.7448   24.1005 N   0  0  0  0  0  0  0  0  0  0  0  0
   12.3474  -18.9099   25.2946 C   0  0  1  0  0  0  0  0  0  0  0  0
   11.5533  -19.6119   26.3734 C   0  0  0  0  0  0  0  0  0  0  0  0
   12.4266  -19.9894   27.4776 C   0  0  0  0  0  0  0  0  0  0  0  0
   13.0992  -19.1475   28.0936 O   0  0  0  0  0  0  0  0  0  0  0  0
   13.4898  -19.6939   24.7921 C   0  0  0  0  0  0  0  0  0  0  0  0
   14.7468  -19.6116   25.3356 O   0  0  0  0  0  0  0  0  0  0  0  0
   12.5222  -21.3193   27.8651 O   0  0  0  0  0  0  0  0  0  0  0  0
   13.3383  -20.4771   23.8286 O   0  0  0  0  0  0  0  0  0  0  0  0
  1  2  1  0
  2  3  1  0
  4  5  1  0
  4  3  1  0
  5  6  1  6
  5  7  1  0
  7  8  2  0
 11 10  1  6
 10  9  1  0
 12  7  1  0
 12 11  1  0
 13 11  1  0
 13 15  1  0
 14 13  2  0
 16 15  1  0
 16 17  1  1
 17 18  1  0
 18 19  2  0
 18 22  1  0
 20 21  1  0
 20 16  1  0
 23 20  2  0
M  END
$$$$
