MSD.pdb
     RDKit          3D

 23 22  0  0  1  0  0  0  0  0999 V2000
    7.5261  -11.3234   26.5448 C   0  0  0  0  0  0  0  0  0  0  0  0
    6.0580  -12.3446   26.8931 S   0  0  0  0  0  0  0  0  0  0  0  0
    6.4109  -14.0122   26.3208 C   0  0  0  0  0  0  0  0  0  0  0  0
    6.6666  -14.0923   24.8382 C   0  0  0  0  0  0  0  0  0  0  0  0
    6.4364  -15.5527   24.4469 C   0  0  2  0  0  0  0  0  0  0  0  0
    6.0317  -16.2789   25.6419 N   0  0  0  0  0  0  0  0  0  0  0  0
    7.6570  -16.1509   23.8430 C   0  0  0  0  0  0  0  0  0  0  0  0
    8.2762  -17.0025   24.5319 O   0  0  0  0  0  0  0  0  0  0  0  0
   10.0228  -14.4310   20.7446 O   0  0  0  0  0  0  0  0  0  0  0  0
    9.4998  -15.7123   20.5498 C   0  0  0  0  0  0  0  0  0  0  0  0
    9.2724  -16.3126   21.9344 C   0  0  2  0  0  0  0  0  0  0  0  0
    8.0819  -15.7600   22.5456 N   0  0  0  0  0  0  0  0  0  0  0  0
   10.4867  -16.0124   22.7404 C   0  0  0  0  0  0  0  0  0  0  0  0
   10.4442  -15.0699   23.5708 O   0  0  0  0  0  0  0  0  0  0  0  0
   11.6894  -16.7351   22.6198 N   0  0  0  0  0  0  0  0  0  0  0  0
   12.5827  -16.9992   23.7799 C   0  0  1  0  0  0  0  0  0  0  0  0
   11.8379  -17.8673   24.7692 C   0  0  0  0  0  0  0  0  0  0  0  0
   12.7257  -18.2748   25.8510 C   0  0  0  0  0  0  0  0  0  0  0  0
   13.9215  -17.9432   25.8725 O   0  0  0  0  0  0  0  0  0  0  0  0
   13.7572  -17.6562   23.1789 C   0  0  0  0  0  0  0  0  0  0  0  0
   14.9329  -16.9957   22.9270 O   0  0  0  0  0  0  0  0  0  0  0  0
   12.2402  -19.0539   26.8928 O   0  0  0  0  0  0  0  0  0  0  0  0
   13.7106  -18.8684   22.8737 O   0  0  0  0  0  0  0  0  0  0  0  0
  1  2  1  0
  2  3  1  0
  4  5  1  0
  4  3  1  0
  5  6  1  1
  5  7  1  0
  7  8  2  0
 11 10  1  6
 10  9  1  0
 12  7  1  0
 12 11  1  0
 13 11  1  0
 13 15  1  0
 14 13  2  0
 16 15  1  0
 16 17  1  1
 17 18  1  0
 18 19  2  0
 18 22  1  0
 20 21  1  0
 20 16  1  0
 23 20  2  0
M  END
$$$$
