MSD.pdb
     RDKit          3D

 23 22  0  0  1  0  0  0  0  0999 V2000
    5.5214  -11.2309   27.5801 C   0  0  0  0  0  0  0  0  0  0  0  0
    7.0429  -12.1353   27.1481 S   0  0  0  0  0  0  0  0  0  0  0  0
    6.5594  -13.5878   26.2049 C   0  0  0  0  0  0  0  0  0  0  0  0
    7.7114  -14.2459   25.4910 C   0  0  0  0  0  0  0  0  0  0  0  0
    7.1343  -15.4881   24.8108 C   0  0  2  0  0  0  0  0  0  0  0  0
    6.4449  -16.2745   25.8234 N   0  0  0  0  0  0  0  0  0  0  0  0
    8.1990  -16.2854   24.1450 C   0  0  0  0  0  0  0  0  0  0  0  0
    8.6587  -17.2685   24.7817 O   0  0  0  0  0  0  0  0  0  0  0  0
   10.0099  -14.9263   20.6237 O   0  0  0  0  0  0  0  0  0  0  0  0
    9.7927  -16.3041   20.7114 C   0  0  0  0  0  0  0  0  0  0  0  0
    9.7324  -16.6488   22.1969 C   0  0  2  0  0  0  0  0  0  0  0  0
    8.6575  -15.9305   22.8487 N   0  0  0  0  0  0  0  0  0  0  0  0
   11.0553  -16.2918   22.7774 C   0  0  0  0  0  0  0  0  0  0  0  0
   11.2265  -15.1293   23.2235 O   0  0  0  0  0  0  0  0  0  0  0  0
   12.1325  -17.1957   22.8533 N   0  0  0  0  0  0  0  0  0  0  0  0
   13.4119  -16.8588   23.5340 C   0  0  1  0  0  0  0  0  0  0  0  0
   13.9452  -18.1095   24.1961 C   0  0  0  0  0  0  0  0  0  0  0  0
   15.2232  -17.8334   24.8403 C   0  0  0  0  0  0  0  0  0  0  0  0
   15.7401  -16.7055   24.8057 O   0  0  0  0  0  0  0  0  0  0  0  0
   14.2674  -16.3510   22.4465 C   0  0  0  0  0  0  0  0  0  0  0  0
   14.1458  -16.7692   21.1456 O   0  0  0  0  0  0  0  0  0  0  0  0
   15.8949  -18.8445   25.5143 O   0  0  0  0  0  0  0  0  0  0  0  0
   15.1526  -15.5012   22.6890 O   0  0  0  0  0  0  0  0  0  0  0  0
  1  2  1  0
  2  3  1  0
  4  5  1  0
  4  3  1  0
  5  6  1  1
  5  7  1  0
  7  8  2  0
 11 10  1  6
 10  9  1  0
 12  7  1  0
 12 11  1  0
 13 11  1  0
 13 15  1  0
 14 13  2  0
 16 15  1  0
 16 17  1  6
 17 18  1  0
 18 19  2  0
 18 22  1  0
 20 21  1  0
 20 16  1  0
 23 20  2  0
M  END
$$$$
