MSD.pdb
     RDKit          3D

 23 22  0  0  1  0  0  0  0  0999 V2000
    5.5855  -12.0757   27.2177 C   0  0  0  0  0  0  0  0  0  0  0  0
    7.2354  -12.5470   26.6052 S   0  0  0  0  0  0  0  0  0  0  0  0
    7.0109  -13.8743   25.4132 C   0  0  0  0  0  0  0  0  0  0  0  0
    6.5918  -15.1771   26.0431 C   0  0  0  0  0  0  0  0  0  0  0  0
    6.3521  -16.1491   24.8869 C   0  0  2  0  0  0  0  0  0  0  0  0
    5.8870  -17.4088   25.4490 N   0  0  0  0  0  0  0  0  0  0  0  0
    7.5855  -16.3449   24.0790 C   0  0  0  0  0  0  0  0  0  0  0  0
    8.4193  -17.1857   24.5044 O   0  0  0  0  0  0  0  0  0  0  0  0
    7.6769  -15.2040   20.1504 O   0  0  0  0  0  0  0  0  0  0  0  0
    8.8820  -14.9271   20.8016 C   0  0  0  0  0  0  0  0  0  0  0  0
    8.9364  -15.8268   22.0332 C   0  0  2  0  0  0  0  0  0  0  0  0
    7.7874  -15.6028   22.8852 N   0  0  0  0  0  0  0  0  0  0  0  0
   10.2074  -15.5139   22.7411 C   0  0  0  0  0  0  0  0  0  0  0  0
   10.1850  -14.6881   23.6884 O   0  0  0  0  0  0  0  0  0  0  0  0
   11.4423  -16.0996   22.4021 N   0  0  0  0  0  0  0  0  0  0  0  0
   12.5981  -16.1263   23.3387 C   0  0  1  0  0  0  0  0  0  0  0  0
   12.4053  -17.2745   24.3038 C   0  0  0  0  0  0  0  0  0  0  0  0
   13.5738  -17.4117   25.1643 C   0  0  0  0  0  0  0  0  0  0  0  0
   14.5678  -16.6799   25.0348 O   0  0  0  0  0  0  0  0  0  0  0  0
   13.7662  -16.2833   22.4537 C   0  0  0  0  0  0  0  0  0  0  0  0
   15.0071  -15.7862   22.7623 O   0  0  0  0  0  0  0  0  0  0  0  0
   13.5944  -18.3797   26.1595 O   0  0  0  0  0  0  0  0  0  0  0  0
   13.6528  -16.8914   21.3665 O   0  0  0  0  0  0  0  0  0  0  0  0
  1  2  1  0
  2  3  1  0
  4  5  1  0
  4  3  1  0
  5  6  1  1
  5  7  1  0
  7  8  2  0
 11 10  1  6
 10  9  1  0
 12  7  1  0
 12 11  1  0
 13 11  1  0
 13 15  1  0
 14 13  2  0
 16 15  1  0
 16 17  1  1
 17 18  1  0
 18 19  2  0
 18 22  1  0
 20 21  1  0
 20 16  1  0
 23 20  2  0
M  END
$$$$
