MSD.pdb
     RDKit          3D

 23 22  0  0  1  0  0  0  0  0999 V2000
    8.5148  -11.3650   19.6742 C   0  0  0  0  0  0  0  0  0  0  0  0
    7.4232  -12.6276   18.9437 S   0  0  0  0  0  0  0  0  0  0  0  0
    7.8776  -14.2140   19.6577 C   0  0  0  0  0  0  0  0  0  0  0  0
    8.9620  -14.9247   18.8904 C   0  0  0  0  0  0  0  0  0  0  0  0
    9.1919  -16.2526   19.6134 C   0  0  2  0  0  0  0  0  0  0  0  0
    7.9370  -16.9904   19.6063 N   0  0  0  0  0  0  0  0  0  0  0  0
    9.6795  -16.0364   21.0019 C   0  0  0  0  0  0  0  0  0  0  0  0
   10.8795  -15.6827   21.1370 O   0  0  0  0  0  0  0  0  0  0  0  0
    7.3671  -17.2343   24.1656 O   0  0  0  0  0  0  0  0  0  0  0  0
    8.0623  -16.0517   24.4325 C   0  0  0  0  0  0  0  0  0  0  0  0
    9.2455  -16.0070   23.4695 C   0  0  2  0  0  0  0  0  0  0  0  0
    8.8086  -16.2279   22.1069 N   0  0  0  0  0  0  0  0  0  0  0  0
   10.2019  -17.0581   23.9109 C   0  0  0  0  0  0  0  0  0  0  0  0
   10.2210  -18.1550   23.2977 O   0  0  0  0  0  0  0  0  0  0  0  0
   11.0931  -16.8856   24.9876 N   0  0  0  0  0  0  0  0  0  0  0  0
   12.1176  -17.9025   25.3476 C   0  0  1  0  0  0  0  0  0  0  0  0
   13.4644  -17.2187   25.4233 C   0  0  0  0  0  0  0  0  0  0  0  0
   14.3667  -17.7692   24.4196 C   0  0  0  0  0  0  0  0  0  0  0  0
   14.5251  -18.9930   24.2870 O   0  0  0  0  0  0  0  0  0  0  0  0
   11.6480  -18.4350   26.6393 C   0  0  0  0  0  0  0  0  0  0  0  0
   12.1509  -19.5818   27.1997 O   0  0  0  0  0  0  0  0  0  0  0  0
   15.0758  -16.9193   23.5814 O   0  0  0  0  0  0  0  0  0  0  0  0
   10.7523  -17.8377   27.2761 O   0  0  0  0  0  0  0  0  0  0  0  0
  1  2  1  0
  2  3  1  0
  4  5  1  0
  4  3  1  0
  5  6  1  1
  5  7  1  0
  7  8  2  0
 11 10  1  1
 10  9  1  0
 12  7  1  0
 12 11  1  0
 13 11  1  0
 13 15  1  0
 14 13  2  0
 16 15  1  0
 16 17  1  1
 17 18  1  0
 18 19  2  0
 18 22  1  0
 20 21  1  0
 20 16  1  0
 23 20  2  0
M  END
$$$$
