MSD.pdb
     RDKit          3D

 23 22  0  0  1  0  0  0  0  0999 V2000
    8.1415  -12.6557   28.3408 C   0  0  0  0  0  0  0  0  0  0  0  0
    7.3775  -11.7743   26.9412 S   0  0  0  0  0  0  0  0  0  0  0  0
    6.6124  -13.0068   25.8788 C   0  0  0  0  0  0  0  0  0  0  0  0
    7.5266  -14.1569   25.5453 C   0  0  0  0  0  0  0  0  0  0  0  0
    6.6907  -15.1374   24.7213 C   0  0  2  0  0  0  0  0  0  0  0  0
    5.6294  -15.6501   25.5756 N   0  0  0  0  0  0  0  0  0  0  0  0
    7.5272  -16.2431   24.1826 C   0  0  0  0  0  0  0  0  0  0  0  0
    7.6782  -17.2543   24.9160 O   0  0  0  0  0  0  0  0  0  0  0  0
    9.3985  -15.7358   20.5819 O   0  0  0  0  0  0  0  0  0  0  0  0
    8.9265  -17.0380   20.7676 C   0  0  0  0  0  0  0  0  0  0  0  0
    8.7984  -17.2517   22.2734 C   0  0  2  0  0  0  0  0  0  0  0  0
    8.1170  -16.1358   22.8953 N   0  0  0  0  0  0  0  0  0  0  0  0
   10.1786  -17.4113   22.8061 C   0  0  0  0  0  0  0  0  0  0  0  0
   11.0233  -18.0398   22.1198 O   0  0  0  0  0  0  0  0  0  0  0  0
   10.5899  -16.8904   24.0482 N   0  0  0  0  0  0  0  0  0  0  0  0
   11.7569  -17.4326   24.7951 C   0  0  1  0  0  0  0  0  0  0  0  0
   12.8898  -16.4353   24.7019 C   0  0  0  0  0  0  0  0  0  0  0  0
   13.4788  -16.4642   23.3690 C   0  0  0  0  0  0  0  0  0  0  0  0
   13.4157  -17.4742   22.6504 O   0  0  0  0  0  0  0  0  0  0  0  0
   11.2431  -17.6223   26.1635 C   0  0  0  0  0  0  0  0  0  0  0  0
   10.0749  -17.0552   26.6062 O   0  0  0  0  0  0  0  0  0  0  0  0
   14.1315  -15.3436   22.8728 O   0  0  0  0  0  0  0  0  0  0  0  0
   11.8778  -18.3254   26.9804 O   0  0  0  0  0  0  0  0  0  0  0  0
  1  2  1  0
  2  3  1  0
  4  5  1  0
  4  3  1  0
  5  6  1  1
  5  7  1  0
  7  8  2  0
 11 10  1  6
 10  9  1  0
 12  7  1  0
 12 11  1  0
 13 11  1  0
 13 15  1  0
 14 13  2  0
 16 15  1  0
 16 17  1  1
 17 18  1  0
 18 19  2  0
 18 22  1  0
 20 21  1  0
 20 16  1  0
 23 20  2  0
M  END
$$$$
