LWF.pdb
     RDKit          3D

 34 36  0  0  1  0  0  0  0  0999 V2000
   34.8299  -29.4979  -22.6581 C   0  0  0  0  0  0  0  0  0  0  0  0
   34.4857  -30.7169  -21.8470 C   0  0  2  0  0  0  0  0  0  0  0  0
   33.6066  -31.6536  -22.6418 C   0  0  0  0  0  0  0  0  0  0  0  0
   33.9923  -30.4319  -20.4830 C   0  0  0  0  0  0  0  0  0  0  0  0
   34.7853  -29.5062  -19.6256 C   0  0  2  0  0  0  0  0  0  0  0  0
   35.8128  -30.1638  -18.8471 N   0  0  0  0  0  0  0  0  0  0  0  0
   33.8062  -28.9092  -18.6618 C   0  0  0  0  0  0  0  0  0  0  0  0
   33.4204  -29.5776  -17.6685 O   0  0  0  0  0  0  0  0  0  0  0  0
   33.3170  -27.6183  -18.8502 N   0  0  0  0  0  0  0  0  0  0  0  0
   32.3990  -26.9984  -17.8577 C   0  0  1  0  0  0  0  0  0  0  0  0
   32.6078  -25.5299  -17.8727 C   0  0  0  0  0  0  0  0  0  0  0  0
   31.7325  -24.6658  -17.1143 C   0  0  0  0  0  0  0  0  0  0  0  0
   31.4099  -24.6569  -15.7617 C   0  0  0  0  0  0  0  0  0  0  0  0
   30.5590  -23.6767  -15.4828 N   0  0  0  0  0  0  0  0  0  0  0  0
   30.3144  -23.0399  -16.6225 C   0  0  0  0  0  0  0  0  0  0  0  0
   29.4906  -21.9233  -16.8157 C   0  0  0  0  0  0  0  0  0  0  0  0
   29.3543  -21.3585  -18.0612 C   0  0  0  0  0  0  0  0  0  0  0  0
   30.0617  -21.9350  -19.1180 C   0  0  0  0  0  0  0  0  0  0  0  0
   30.8776  -23.0472  -18.9081 C   0  0  0  0  0  0  0  0  0  0  0  0
   31.0150  -23.6131  -17.6603 C   0  0  0  0  0  0  0  0  0  0  0  0
   31.0355  -27.4950  -18.0529 C   0  0  0  0  0  0  0  0  0  0  0  0
   30.6206  -27.7782  -19.2315 O   0  0  0  0  0  0  0  0  0  0  0  0
   30.1252  -27.6977  -17.0005 N   0  0  0  0  0  0  0  0  0  0  0  0
   28.7426  -28.1555  -17.2566 C   0  0  1  0  0  0  0  0  0  0  0  0
   28.2116  -28.5153  -15.8455 C   0  0  0  0  0  0  0  0  0  0  0  0
   26.8259  -29.0172  -15.9345 C   0  0  0  0  0  0  0  0  0  0  0  0
   26.5965  -30.3458  -16.3081 C   0  0  0  0  0  0  0  0  0  0  0  0
   25.3181  -30.8097  -16.3709 C   0  0  0  0  0  0  0  0  0  0  0  0
   24.2503  -29.9936  -16.0728 C   0  0  0  0  0  0  0  0  0  0  0  0
   24.4991  -28.6713  -15.7020 C   0  0  0  0  0  0  0  0  0  0  0  0
   25.7828  -28.1768  -15.6307 C   0  0  0  0  0  0  0  0  0  0  0  0
   27.9036  -27.0843  -17.7799 C   0  0  0  0  0  0  0  0  0  0  0  0
   27.0283  -27.3476  -18.8125 O   0  0  0  0  0  0  0  0  0  0  0  0
   27.9805  -25.9132  -17.2884 O   0  0  0  0  0  0  0  0  0  0  0  0
  2  1  1  6
  2  3  1  0
  4  2  1  0
  5  4  1  0
  5  6  1  1
  7  9  1  0
  7  5  1  0
  8  7  2  0
 10 21  1  0
 10  9  1  0
 10 11  1  6
 12 11  1  0
 12 20  1  0
 13 12  2  0
 14 13  1  0
 14 15  1  0
 15 16  1  0
 15 20  2  0
 16 17  2  0
 17 18  1  0
 19 18  2  0
 20 19  1  0
 21 22  2  0
 23 24  1  0
 23 21  1  0
 24 25  1  1
 26 27  2  0
 26 25  1  0
 28 27  1  0
 29 28  2  0
 30 29  1  0
 30 31  2  0
 31 26  1  0
 32 24  1  0
 33 32  1  0
 34 32  2  0
M  END
$$$$
