LWF.pdb
     RDKit          3D

 34 36  0  0  1  0  0  0  0  0999 V2000
   29.6464  -34.5394  -18.7652 C   0  0  0  0  0  0  0  0  0  0  0  0
   30.0444  -34.7271  -17.3268 C   0  0  2  0  0  0  0  0  0  0  0  0
   29.8142  -36.1558  -16.8936 C   0  0  0  0  0  0  0  0  0  0  0  0
   29.4981  -33.7153  -16.3979 C   0  0  0  0  0  0  0  0  0  0  0  0
   29.6336  -32.2769  -16.7631 C   0  0  2  0  0  0  0  0  0  0  0  0
   30.6266  -31.5660  -15.9867 N   0  0  0  0  0  0  0  0  0  0  0  0
   28.3031  -31.6567  -16.4643 C   0  0  0  0  0  0  0  0  0  0  0  0
   27.9507  -31.4789  -15.2700 O   0  0  0  0  0  0  0  0  0  0  0  0
   27.4488  -31.2709  -17.4950 N   0  0  0  0  0  0  0  0  0  0  0  0
   26.1083  -30.6980  -17.2001 C   0  0  1  0  0  0  0  0  0  0  0  0
   25.6946  -29.8489  -18.3438 C   0  0  0  0  0  0  0  0  0  0  0  0
   24.4342  -29.1433  -18.3038 C   0  0  0  0  0  0  0  0  0  0  0  0
   24.0076  -28.0855  -17.5083 C   0  0  0  0  0  0  0  0  0  0  0  0
   22.7623  -27.7371  -17.8090 N   0  0  0  0  0  0  0  0  0  0  0  0
   22.3596  -28.5426  -18.7854 C   0  0  0  0  0  0  0  0  0  0  0  0
   21.1210  -28.5363  -19.4400 C   0  0  0  0  0  0  0  0  0  0  0  0
   20.8586  -29.4256  -20.4545 C   0  0  0  0  0  0  0  0  0  0  0  0
   21.8645  -30.3282  -20.8051 C   0  0  0  0  0  0  0  0  0  0  0  0
   23.0924  -30.3210  -20.1425 C   0  0  0  0  0  0  0  0  0  0  0  0
   23.3561  -29.4300  -19.1263 C   0  0  0  0  0  0  0  0  0  0  0  0
   25.1915  -31.7554  -16.7695 C   0  0  0  0  0  0  0  0  0  0  0  0
   25.2210  -32.9003  -17.3437 O   0  0  0  0  0  0  0  0  0  0  0  0
   24.2583  -31.5975  -15.7296 N   0  0  0  0  0  0  0  0  0  0  0  0
   23.3551  -32.6992  -15.3327 C   0  0  1  0  0  0  0  0  0  0  0  0
   23.5467  -32.7909  -13.7973 C   0  0  0  0  0  0  0  0  0  0  0  0
   24.7158  -33.6345  -13.4785 C   0  0  0  0  0  0  0  0  0  0  0  0
   24.5619  -35.0225  -13.3940 C   0  0  0  0  0  0  0  0  0  0  0  0
   25.6463  -35.7981  -13.1181 C   0  0  0  0  0  0  0  0  0  0  0  0
   26.8888  -35.2390  -12.9219 C   0  0  0  0  0  0  0  0  0  0  0  0
   27.0225  -33.8526  -13.0103 C   0  0  0  0  0  0  0  0  0  0  0  0
   25.9416  -33.0449  -13.2880 C   0  0  0  0  0  0  0  0  0  0  0  0
   21.9564  -32.3711  -15.5803 C   0  0  0  0  0  0  0  0  0  0  0  0
   20.9812  -33.3131  -15.3285 O   0  0  0  0  0  0  0  0  0  0  0  0
   21.6379  -31.2235  -16.0283 O   0  0  0  0  0  0  0  0  0  0  0  0
  2  1  1  6
  2  3  1  0
  4  2  1  0
  5  4  1  0
  5  6  1  1
  7  9  1  0
  7  5  1  0
  8  7  2  0
 10 21  1  0
 10  9  1  0
 10 11  1  6
 12 11  1  0
 12 20  1  0
 13 12  2  0
 14 13  1  0
 14 15  1  0
 15 16  1  0
 15 20  2  0
 16 17  2  0
 17 18  1  0
 19 18  2  0
 20 19  1  0
 21 22  2  0
 23 24  1  0
 23 21  1  0
 24 25  1  1
 26 27  2  0
 26 25  1  0
 28 27  1  0
 29 28  2  0
 30 29  1  0
 30 31  2  0
 31 26  1  0
 32 24  1  0
 33 32  1  0
 34 32  2  0
M  END
$$$$
