LWF.pdb
     RDKit          3D

 34 36  0  0  1  0  0  0  0  0999 V2000
   21.8309  -20.1096  -16.8088 C   0  0  0  0  0  0  0  0  0  0  0  0
   22.6889  -21.3130  -16.5292 C   0  0  2  0  0  0  0  0  0  0  0  0
   22.1594  -22.5247  -17.2596 C   0  0  0  0  0  0  0  0  0  0  0  0
   22.9795  -21.5452  -15.0986 C   0  0  0  0  0  0  0  0  0  0  0  0
   23.4033  -20.3830  -14.2676 C   0  0  2  0  0  0  0  0  0  0  0  0
   24.6258  -19.7541  -14.7194 N   0  0  0  0  0  0  0  0  0  0  0  0
   23.6633  -20.9370  -12.9003 C   0  0  0  0  0  0  0  0  0  0  0  0
   23.3824  -22.1370  -12.6484 O   0  0  0  0  0  0  0  0  0  0  0  0
   24.2159  -20.1389  -11.9009 N   0  0  0  0  0  0  0  0  0  0  0  0
   24.4566  -20.6818  -10.5373 C   0  0  1  0  0  0  0  0  0  0  0  0
   25.4977  -19.8573   -9.8767 C   0  0  0  0  0  0  0  0  0  0  0  0
   26.7448  -20.4593   -9.4638 C   0  0  0  0  0  0  0  0  0  0  0  0
   27.5557  -21.3973  -10.0934 C   0  0  0  0  0  0  0  0  0  0  0  0
   28.6244  -21.6728   -9.3556 N   0  0  0  0  0  0  0  0  0  0  0  0
   28.5349  -20.9365   -8.2537 C   0  0  0  0  0  0  0  0  0  0  0  0
   29.4457  -20.8779   -7.1908 C   0  0  0  0  0  0  0  0  0  0  0  0
   29.2236  -20.0440   -6.1211 C   0  0  0  0  0  0  0  0  0  0  0  0
   28.0654  -19.2642   -6.1334 C   0  0  0  0  0  0  0  0  0  0  0  0
   27.1686  -19.3351   -7.1999 C   0  0  0  0  0  0  0  0  0  0  0  0
   27.3909  -20.1699   -8.2722 C   0  0  0  0  0  0  0  0  0  0  0  0
   23.1846  -20.8645   -9.8354 C   0  0  0  0  0  0  0  0  0  0  0  0
   22.2657  -19.9775   -9.9359 O   0  0  0  0  0  0  0  0  0  0  0  0
   22.8906  -21.9871   -9.0415 N   0  0  0  0  0  0  0  0  0  0  0  0
   21.6112  -22.0968   -8.3078 C   0  0  1  0  0  0  0  0  0  0  0  0
   20.7384  -22.9856   -9.2302 C   0  0  0  0  0  0  0  0  0  0  0  0
   19.4057  -23.1909   -8.6287 C   0  0  0  0  0  0  0  0  0  0  0  0
   18.4011  -22.2399   -8.8377 C   0  0  0  0  0  0  0  0  0  0  0  0
   17.1683  -22.4422   -8.2967 C   0  0  0  0  0  0  0  0  0  0  0  0
   16.8956  -23.5656   -7.5492 C   0  0  0  0  0  0  0  0  0  0  0  0
   17.9106  -24.5030   -7.3518 C   0  0  0  0  0  0  0  0  0  0  0  0
   19.1666  -24.3225   -7.8879 C   0  0  0  0  0  0  0  0  0  0  0  0
   21.7694  -22.8025   -7.0420 C   0  0  0  0  0  0  0  0  0  0  0  0
   20.8975  -22.5446   -6.0051 O   0  0  0  0  0  0  0  0  0  0  0  0
   22.7076  -23.6492   -6.8944 O   0  0  0  0  0  0  0  0  0  0  0  0
  2  1  1  1
  2  3  1  0
  4  2  1  0
  5  4  1  0
  5  6  1  6
  7  9  1  0
  7  5  1  0
  8  7  2  0
 10 21  1  0
 10  9  1  0
 10 11  1  1
 12 11  1  0
 12 20  1  0
 13 12  2  0
 14 13  1  0
 14 15  1  0
 15 16  1  0
 15 20  2  0
 16 17  2  0
 17 18  1  0
 19 18  2  0
 20 19  1  0
 21 22  2  0
 23 24  1  0
 23 21  1  0
 24 25  1  6
 26 27  2  0
 26 25  1  0
 28 27  1  0
 29 28  2  0
 30 29  1  0
 30 31  2  0
 31 26  1  0
 32 24  1  0
 33 32  1  0
 34 32  2  0
M  END
$$$$
