LWF.pdb
     RDKit          3D

 34 36  0  0  1  0  0  0  0  0999 V2000
   23.9328  -35.4275  -11.0222 C   0  0  0  0  0  0  0  0  0  0  0  0
   25.3570  -35.8432  -11.2699 C   0  0  2  0  0  0  0  0  0  0  0  0
   25.4443  -37.3347  -11.4929 C   0  0  0  0  0  0  0  0  0  0  0  0
   26.3327  -35.3171  -10.2921 C   0  0  0  0  0  0  0  0  0  0  0  0
   26.2495  -33.8770   -9.9182 C   0  0  2  0  0  0  0  0  0  0  0  0
   26.8079  -32.9811  -10.9081 N   0  0  0  0  0  0  0  0  0  0  0  0
   27.0691  -33.7347   -8.6723 C   0  0  0  0  0  0  0  0  0  0  0  0
   28.3244  -33.7131   -8.7491 O   0  0  0  0  0  0  0  0  0  0  0  0
   26.4574  -33.6233   -7.4254 N   0  0  0  0  0  0  0  0  0  0  0  0
   27.2694  -33.4686   -6.1889 C   0  0  1  0  0  0  0  0  0  0  0  0
   26.5072  -32.6404   -5.2229 C   0  0  0  0  0  0  0  0  0  0  0  0
   26.8363  -32.6803   -3.8164 C   0  0  0  0  0  0  0  0  0  0  0  0
   28.0312  -32.9743   -3.1688 C   0  0  0  0  0  0  0  0  0  0  0  0
   27.8911  -32.8882   -1.8514 N   0  0  0  0  0  0  0  0  0  0  0  0
   26.6297  -32.5439   -1.6175 C   0  0  0  0  0  0  0  0  0  0  0  0
   26.0243  -32.3158   -0.3748 C   0  0  0  0  0  0  0  0  0  0  0  0
   24.7044  -31.9410   -0.2952 C   0  0  0  0  0  0  0  0  0  0  0  0
   23.9955  -31.7975   -1.4895 C   0  0  0  0  0  0  0  0  0  0  0  0
   24.6139  -32.0289   -2.7187 C   0  0  0  0  0  0  0  0  0  0  0  0
   25.9364  -32.4039   -2.7992 C   0  0  0  0  0  0  0  0  0  0  0  0
   27.7514  -34.7747   -5.7355 C   0  0  0  0  0  0  0  0  0  0  0  0
   26.9556  -35.7786   -5.7162 O   0  0  0  0  0  0  0  0  0  0  0  0
   29.0723  -35.0115   -5.3156 N   0  0  0  0  0  0  0  0  0  0  0  0
   29.4902  -36.3327   -4.7991 C   0  0  1  0  0  0  0  0  0  0  0  0
   30.7934  -36.6336   -5.5827 C   0  0  0  0  0  0  0  0  0  0  0  0
   31.8443  -35.6631   -5.2169 C   0  0  0  0  0  0  0  0  0  0  0  0
   32.0722  -34.5522   -6.0363 C   0  0  0  0  0  0  0  0  0  0  0  0
   33.0296  -33.6501   -5.6855 C   0  0  0  0  0  0  0  0  0  0  0  0
   33.7747  -33.8135   -4.5396 C   0  0  0  0  0  0  0  0  0  0  0  0
   33.5328  -34.9279   -3.7350 C   0  0  0  0  0  0  0  0  0  0  0  0
   32.5702  -35.8558   -4.0669 C   0  0  0  0  0  0  0  0  0  0  0  0
   29.8335  -36.2789   -3.3833 C   0  0  0  0  0  0  0  0  0  0  0  0
   30.0407  -37.4517   -2.6879 O   0  0  0  0  0  0  0  0  0  0  0  0
   29.9386  -35.1569   -2.7925 O   0  0  0  0  0  0  0  0  0  0  0  0
  2  1  1  1
  2  3  1  0
  4  2  1  0
  5  4  1  0
  5  6  1  6
  7  9  1  0
  7  5  1  0
  8  7  2  0
 10 21  1  0
 10  9  1  0
 10 11  1  1
 12 11  1  0
 12 20  1  0
 13 12  2  0
 14 13  1  0
 14 15  1  0
 15 16  1  0
 15 20  2  0
 16 17  2  0
 17 18  1  0
 19 18  2  0
 20 19  1  0
 21 22  2  0
 23 24  1  0
 23 21  1  0
 24 25  1  6
 26 27  2  0
 26 25  1  0
 28 27  1  0
 29 28  2  0
 30 29  1  0
 30 31  2  0
 31 26  1  0
 32 24  1  0
 33 32  1  0
 34 32  2  0
M  END
$$$$
