LWF.pdb
     RDKit          3D

 34 36  0  0  1  0  0  0  0  0999 V2000
   26.8187  -17.5020  -15.2983 C   0  0  0  0  0  0  0  0  0  0  0  0
   27.9650  -18.3022  -14.7431 C   0  0  2  0  0  0  0  0  0  0  0  0
   29.2204  -18.0619  -15.5482 C   0  0  0  0  0  0  0  0  0  0  0  0
   27.6624  -19.7288  -14.5013 C   0  0  0  0  0  0  0  0  0  0  0  0
   28.4289  -20.4422  -13.4411 C   0  0  2  0  0  0  0  0  0  0  0  0
   29.1958  -21.5682  -13.9293 N   0  0  0  0  0  0  0  0  0  0  0  0
   27.4022  -20.9777  -12.4907 C   0  0  0  0  0  0  0  0  0  0  0  0
   26.9237  -22.1271  -12.6704 O   0  0  0  0  0  0  0  0  0  0  0  0
   26.9703  -20.2182  -11.4055 N   0  0  0  0  0  0  0  0  0  0  0  0
   25.9234  -20.7329  -10.4830 C   0  0  1  0  0  0  0  0  0  0  0  0
   26.1800  -20.1907   -9.1264 C   0  0  0  0  0  0  0  0  0  0  0  0
   27.4348  -20.4619   -8.4631 C   0  0  0  0  0  0  0  0  0  0  0  0
   28.6496  -20.9175   -8.9635 C   0  0  0  0  0  0  0  0  0  0  0  0
   29.5519  -21.0244   -7.9956 N   0  0  0  0  0  0  0  0  0  0  0  0
   28.9576  -20.6490   -6.8686 C   0  0  0  0  0  0  0  0  0  0  0  0
   29.5232  -20.5782   -5.5888 C   0  0  0  0  0  0  0  0  0  0  0  0
   28.7807  -20.1460   -4.5160 C   0  0  0  0  0  0  0  0  0  0  0  0
   27.4524  -19.7835   -4.7478 C   0  0  0  0  0  0  0  0  0  0  0  0
   26.9048  -19.8602   -6.0288 C   0  0  0  0  0  0  0  0  0  0  0  0
   27.6484  -20.2926   -7.1041 C   0  0  0  0  0  0  0  0  0  0  0  0
   24.5945  -20.5230  -11.0609 C   0  0  0  0  0  0  0  0  0  0  0  0
   24.2381  -19.3510  -11.4358 O   0  0  0  0  0  0  0  0  0  0  0  0
   23.6573  -21.5547  -11.2468 N   0  0  0  0  0  0  0  0  0  0  0  0
   22.2946  -21.2749  -11.7486 C   0  0  1  0  0  0  0  0  0  0  0  0
   22.0737  -22.3654  -12.8278 C   0  0  0  0  0  0  0  0  0  0  0  0
   22.6789  -21.9465  -14.1078 C   0  0  0  0  0  0  0  0  0  0  0  0
   21.9727  -21.0859  -14.9552 C   0  0  0  0  0  0  0  0  0  0  0  0
   22.5421  -20.6874  -16.1259 C   0  0  0  0  0  0  0  0  0  0  0  0
   23.7990  -21.1169  -16.4875 C   0  0  0  0  0  0  0  0  0  0  0  0
   24.4878  -21.9751  -15.6291 C   0  0  0  0  0  0  0  0  0  0  0  0
   23.9346  -22.3935  -14.4389 C   0  0  0  0  0  0  0  0  0  0  0  0
   21.2844  -21.4703  -10.7158 C   0  0  0  0  0  0  0  0  0  0  0  0
   19.9703  -21.1447  -10.9785 O   0  0  0  0  0  0  0  0  0  0  0  0
   21.6138  -21.9360   -9.5784 O   0  0  0  0  0  0  0  0  0  0  0  0
  2  1  1  6
  2  3  1  0
  4  2  1  0
  5  4  1  0
  5  6  1  6
  7  9  1  0
  7  5  1  0
  8  7  2  0
 10 21  1  0
 10  9  1  0
 10 11  1  1
 12 11  1  0
 12 20  1  0
 13 12  2  0
 14 13  1  0
 14 15  1  0
 15 16  1  0
 15 20  2  0
 16 17  2  0
 17 18  1  0
 19 18  2  0
 20 19  1  0
 21 22  2  0
 23 24  1  0
 23 21  1  0
 24 25  1  6
 26 27  2  0
 26 25  1  0
 28 27  1  0
 29 28  2  0
 30 29  1  0
 30 31  2  0
 31 26  1  0
 32 24  1  0
 33 32  1  0
 34 32  2  0
M  END
$$$$
