LWF.pdb
     RDKit          3D

 34 36  0  0  1  0  0  0  0  0999 V2000
   13.5201  -21.1617    4.0400 C   0  0  0  0  0  0  0  0  0  0  0  0
   14.8205  -21.8642    3.7606 C   0  0  2  0  0  0  0  0  0  0  0  0
   14.8769  -23.1872    4.4875 C   0  0  0  0  0  0  0  0  0  0  0  0
   16.0250  -21.0248    3.9325 C   0  0  0  0  0  0  0  0  0  0  0  0
   16.0334  -19.6688    3.3146 C   0  0  2  0  0  0  0  0  0  0  0  0
   16.3424  -19.6706    1.9008 N   0  0  0  0  0  0  0  0  0  0  0  0
   17.1243  -18.9140    4.0107 C   0  0  0  0  0  0  0  0  0  0  0  0
   18.3114  -19.0179    3.6078 O   0  0  0  0  0  0  0  0  0  0  0  0
   16.8405  -18.0939    5.1006 N   0  0  0  0  0  0  0  0  0  0  0  0
   17.9118  -17.2943    5.7526 C   0  0  1  0  0  0  0  0  0  0  0  0
   17.3466  -15.9822    6.1516 C   0  0  0  0  0  0  0  0  0  0  0  0
   17.8951  -14.7612    5.6072 C   0  0  0  0  0  0  0  0  0  0  0  0
   17.4246  -13.9186    4.6060 C   0  0  0  0  0  0  0  0  0  0  0  0
   18.2475  -12.8930    4.4227 N   0  0  0  0  0  0  0  0  0  0  0  0
   19.2497  -13.0421    5.2816 C   0  0  0  0  0  0  0  0  0  0  0  0
   20.3474  -12.1915    5.4673 C   0  0  0  0  0  0  0  0  0  0  0  0
   21.2990  -12.4710    6.4187 C   0  0  0  0  0  0  0  0  0  0  0  0
   21.1321  -13.6250    7.1867 C   0  0  0  0  0  0  0  0  0  0  0  0
   20.0329  -14.4614    6.9885 C   0  0  0  0  0  0  0  0  0  0  0  0
   19.0789  -14.1816    6.0357 C   0  0  0  0  0  0  0  0  0  0  0  0
   18.5791  -18.0912    6.7839 C   0  0  0  0  0  0  0  0  0  0  0  0
   17.8952  -18.8856    7.5205 O   0  0  0  0  0  0  0  0  0  0  0  0
   19.9643  -18.0494    7.0218 N   0  0  0  0  0  0  0  0  0  0  0  0
   20.5940  -18.9029    8.0523 C   0  0  1  0  0  0  0  0  0  0  0  0
   21.7379  -19.6143    7.2856 C   0  0  0  0  0  0  0  0  0  0  0  0
   21.2295  -20.8343    6.6275 C   0  0  0  0  0  0  0  0  0  0  0  0
   20.9733  -20.8199    5.2521 C   0  0  0  0  0  0  0  0  0  0  0  0
   20.5221  -21.9523    4.6459 C   0  0  0  0  0  0  0  0  0  0  0  0
   20.3149  -23.1086    5.3636 C   0  0  0  0  0  0  0  0  0  0  0  0
   20.5762  -23.1035    6.7346 C   0  0  0  0  0  0  0  0  0  0  0  0
   21.0332  -21.9713    7.3726 C   0  0  0  0  0  0  0  0  0  0  0  0
   21.2045  -18.1121    9.1141 C   0  0  0  0  0  0  0  0  0  0  0  0
   21.3051  -18.6398   10.3842 O   0  0  0  0  0  0  0  0  0  0  0  0
   21.6395  -16.9414    8.8706 O   0  0  0  0  0  0  0  0  0  0  0  0
  2  1  1  1
  2  3  1  0
  4  2  1  0
  5  4  1  0
  5  6  1  6
  7  9  1  0
  7  5  1  0
  8  7  2  0
 10 21  1  0
 10  9  1  0
 10 11  1  1
 12 11  1  0
 12 20  1  0
 13 12  2  0
 14 13  1  0
 14 15  1  0
 15 16  1  0
 15 20  2  0
 16 17  2  0
 17 18  1  0
 19 18  2  0
 20 19  1  0
 21 22  2  0
 23 24  1  0
 23 21  1  0
 24 25  1  6
 26 27  2  0
 26 25  1  0
 28 27  1  0
 29 28  2  0
 30 29  1  0
 30 31  2  0
 31 26  1  0
 32 24  1  0
 33 32  1  0
 34 32  2  0
M  END
$$$$
