LWF.pdb
     RDKit          3D

 34 36  0  0  1  0  0  0  0  0999 V2000
   45.5739  -12.5700  -14.0622 C   0  0  0  0  0  0  0  0  0  0  0  0
   44.4578  -11.7059  -14.5821 C   0  0  2  0  0  0  0  0  0  0  0  0
   44.9189  -10.9032  -15.7759 C   0  0  0  0  0  0  0  0  0  0  0  0
   43.7595  -10.9116  -13.5493 C   0  0  0  0  0  0  0  0  0  0  0  0
   43.3132  -11.6056  -12.3083 C   0  0  2  0  0  0  0  0  0  0  0  0
   42.4323  -12.7283  -12.5490 N   0  0  0  0  0  0  0  0  0  0  0  0
   42.5378  -10.5862  -11.5315 C   0  0  0  0  0  0  0  0  0  0  0  0
   43.0081   -9.4303  -11.3740 O   0  0  0  0  0  0  0  0  0  0  0  0
   41.2974  -10.9016  -10.9810 N   0  0  0  0  0  0  0  0  0  0  0  0
   40.5911   -9.9408  -10.0921 C   0  0  1  0  0  0  0  0  0  0  0  0
   39.1541  -10.3057  -10.0476 C   0  0  0  0  0  0  0  0  0  0  0  0
   38.3226   -9.8442   -8.9597 C   0  0  0  0  0  0  0  0  0  0  0  0
   38.1663   -8.5778   -8.4069 C   0  0  0  0  0  0  0  0  0  0  0  0
   37.2860   -8.5986   -7.4132 N   0  0  0  0  0  0  0  0  0  0  0  0
   36.8594   -9.8514   -7.2998 C   0  0  0  0  0  0  0  0  0  0  0  0
   35.9091  -10.3504   -6.3993 C   0  0  0  0  0  0  0  0  0  0  0  0
   35.5528  -11.6777   -6.4186 C   0  0  0  0  0  0  0  0  0  0  0  0
   36.1687  -12.5031   -7.3613 C   0  0  0  0  0  0  0  0  0  0  0  0
   37.1133  -11.9898   -8.2506 C   0  0  0  0  0  0  0  0  0  0  0  0
   37.4703  -10.6600   -8.2322 C   0  0  0  0  0  0  0  0  0  0  0  0
   41.3023   -9.8155   -8.8184 C   0  0  0  0  0  0  0  0  0  0  0  0
   41.5013  -10.8523   -8.0925 O   0  0  0  0  0  0  0  0  0  0  0  0
   41.8060   -8.5981   -8.3271 N   0  0  0  0  0  0  0  0  0  0  0  0
   42.3068   -8.4761   -6.9410 C   0  0  1  0  0  0  0  0  0  0  0  0
   43.8174   -8.1813   -7.1250 C   0  0  0  0  0  0  0  0  0  0  0  0
   44.5424   -9.4230   -7.4603 C   0  0  0  0  0  0  0  0  0  0  0  0
   44.8714  -10.3253   -6.4429 C   0  0  0  0  0  0  0  0  0  0  0  0
   45.5236  -11.4778   -6.7589 C   0  0  0  0  0  0  0  0  0  0  0  0
   45.8632  -11.7684   -8.0610 C   0  0  0  0  0  0  0  0  0  0  0  0
   45.5264  -10.8561   -9.0620 C   0  0  0  0  0  0  0  0  0  0  0  0
   44.8667   -9.6827   -8.7694 C   0  0  0  0  0  0  0  0  0  0  0  0
   41.7194   -7.3350   -6.2494 C   0  0  0  0  0  0  0  0  0  0  0  0
   42.0005   -7.1291   -4.9151 O   0  0  0  0  0  0  0  0  0  0  0  0
   40.9501   -6.5357   -6.8726 O   0  0  0  0  0  0  0  0  0  0  0  0
  2  1  1  1
  2  3  1  0
  4  2  1  0
  5  4  1  0
  5  6  1  6
  7  9  1  0
  7  5  1  0
  8  7  2  0
 10 21  1  0
 10  9  1  0
 10 11  1  1
 12 11  1  0
 12 20  1  0
 13 12  2  0
 14 13  1  0
 14 15  1  0
 15 16  1  0
 15 20  2  0
 16 17  2  0
 17 18  1  0
 19 18  2  0
 20 19  1  0
 21 22  2  0
 23 24  1  0
 23 21  1  0
 24 25  1  6
 26 27  2  0
 26 25  1  0
 28 27  1  0
 29 28  2  0
 30 29  1  0
 30 31  2  0
 31 26  1  0
 32 24  1  0
 33 32  1  0
 34 32  2  0
M  END
$$$$
