LWF.pdb
     RDKit          3D

 34 36  0  0  1  0  0  0  0  0999 V2000
   28.4922  -20.6313  -17.4942 C   0  0  0  0  0  0  0  0  0  0  0  0
   27.0350  -21.0037  -17.5065 C   0  0  2  0  0  0  0  0  0  0  0  0
   26.2296  -19.9744  -18.2641 C   0  0  0  0  0  0  0  0  0  0  0  0
   26.4771  -21.3584  -16.1844 C   0  0  0  0  0  0  0  0  0  0  0  0
   27.2634  -22.2737  -15.3100 C   0  0  2  0  0  0  0  0  0  0  0  0
   27.2602  -23.6521  -15.7508 N   0  0  0  0  0  0  0  0  0  0  0  0
   26.5923  -22.2299  -13.9714 C   0  0  0  0  0  0  0  0  0  0  0  0
   25.5232  -22.8667  -13.7873 O   0  0  0  0  0  0  0  0  0  0  0  0
   27.1393  -21.4927  -12.9233 N   0  0  0  0  0  0  0  0  0  0  0  0
   26.4377  -21.3897  -11.6160 C   0  0  1  0  0  0  0  0  0  0  0  0
   27.3969  -20.8867  -10.6026 C   0  0  0  0  0  0  0  0  0  0  0  0
   26.9289  -20.4988   -9.2916 C   0  0  0  0  0  0  0  0  0  0  0  0
   25.7243  -19.9359   -8.8844 C   0  0  0  0  0  0  0  0  0  0  0  0
   25.7103  -19.7426   -7.5710 N   0  0  0  0  0  0  0  0  0  0  0  0
   26.8796  -20.1661   -7.1045 C   0  0  0  0  0  0  0  0  0  0  0  0
   27.3121  -20.1792   -5.7720 C   0  0  0  0  0  0  0  0  0  0  0  0
   28.5512  -20.6731   -5.4409 C   0  0  0  0  0  0  0  0  0  0  0  0
   29.3563  -21.1568   -6.4740 C   0  0  0  0  0  0  0  0  0  0  0  0
   28.9101  -21.1360   -7.7958 C   0  0  0  0  0  0  0  0  0  0  0  0
   27.6685  -20.6419   -8.1282 C   0  0  0  0  0  0  0  0  0  0  0  0
   25.1745  -20.6669  -11.7770 C   0  0  0  0  0  0  0  0  0  0  0  0
   25.1495  -19.5583  -12.4187 O   0  0  0  0  0  0  0  0  0  0  0  0
   23.9471  -21.1261  -11.2674 N   0  0  0  0  0  0  0  0  0  0  0  0
   22.6901  -20.3836  -11.5032 C   0  0  1  0  0  0  0  0  0  0  0  0
   22.3159  -20.7562  -12.9605 C   0  0  0  0  0  0  0  0  0  0  0  0
   22.5492  -19.6066  -13.8570 C   0  0  0  0  0  0  0  0  0  0  0  0
   23.6604  -19.6096  -14.7071 C   0  0  0  0  0  0  0  0  0  0  0  0
   23.8617  -18.5560  -15.5454 C   0  0  0  0  0  0  0  0  0  0  0  0
   22.9904  -17.4904  -15.5697 C   0  0  0  0  0  0  0  0  0  0  0  0
   21.8876  -17.5055  -14.7145 C   0  0  0  0  0  0  0  0  0  0  0  0
   21.6608  -18.5591  -13.8565 C   0  0  0  0  0  0  0  0  0  0  0  0
   21.6121  -20.8525  -10.6410 C   0  0  0  0  0  0  0  0  0  0  0  0
   20.4550  -20.1101  -10.5327 O   0  0  0  0  0  0  0  0  0  0  0  0
   21.7393  -21.9388   -9.9908 O   0  0  0  0  0  0  0  0  0  0  0  0
  2  1  1  1
  2  3  1  0
  4  2  1  0
  5  4  1  0
  5  6  1  6
  7  9  1  0
  7  5  1  0
  8  7  2  0
 10 21  1  0
 10  9  1  0
 10 11  1  1
 12 11  1  0
 12 20  1  0
 13 12  2  0
 14 13  1  0
 14 15  1  0
 15 16  1  0
 15 20  2  0
 16 17  2  0
 17 18  1  0
 19 18  2  0
 20 19  1  0
 21 22  2  0
 23 24  1  0
 23 21  1  0
 24 25  1  6
 26 27  2  0
 26 25  1  0
 28 27  1  0
 29 28  2  0
 30 29  1  0
 30 31  2  0
 31 26  1  0
 32 24  1  0
 33 32  1  0
 34 32  2  0
M  END
$$$$
