LWF.pdb
     RDKit          3D

 34 36  0  0  1  0  0  0  0  0999 V2000
   29.5916  -19.0250  -17.6458 C   0  0  0  0  0  0  0  0  0  0  0  0
   28.3925  -19.7743  -18.1588 C   0  0  2  0  0  0  0  0  0  0  0  0
   27.5136  -18.8675  -18.9877 C   0  0  0  0  0  0  0  0  0  0  0  0
   27.6661  -20.5531  -17.1337 C   0  0  0  0  0  0  0  0  0  0  0  0
   28.4630  -21.3036  -16.1225 C   0  0  2  0  0  0  0  0  0  0  0  0
   28.9127  -22.6020  -16.5767 N   0  0  0  0  0  0  0  0  0  0  0  0
   27.5386  -21.5291  -14.9654 C   0  0  0  0  0  0  0  0  0  0  0  0
   26.5190  -22.2511  -15.1117 O   0  0  0  0  0  0  0  0  0  0  0  0
   27.7950  -20.9497  -13.7246 N   0  0  0  0  0  0  0  0  0  0  0  0
   26.8813  -21.1773  -12.5734 C   0  0  1  0  0  0  0  0  0  0  0  0
   27.6538  -21.0173  -11.3173 C   0  0  0  0  0  0  0  0  0  0  0  0
   26.9813  -21.0802  -10.0399 C   0  0  0  0  0  0  0  0  0  0  0  0
   26.0189  -21.9617   -9.5598 C   0  0  0  0  0  0  0  0  0  0  0  0
   25.6736  -21.6560   -8.3149 N   0  0  0  0  0  0  0  0  0  0  0  0
   26.3878  -20.5922   -7.9648 C   0  0  0  0  0  0  0  0  0  0  0  0
   26.3764  -19.9252   -6.7328 C   0  0  0  0  0  0  0  0  0  0  0  0
   27.1954  -18.8437   -6.5125 C   0  0  0  0  0  0  0  0  0  0  0  0
   28.0318  -18.4379   -7.5542 C   0  0  0  0  0  0  0  0  0  0  0  0
   28.0303  -19.1134   -8.7750 C   0  0  0  0  0  0  0  0  0  0  0  0
   27.2105  -20.1974   -8.9962 C   0  0  0  0  0  0  0  0  0  0  0  0
   25.6634  -20.3799  -12.7308 C   0  0  0  0  0  0  0  0  0  0  0  0
   25.7462  -19.1433  -13.0555 O   0  0  0  0  0  0  0  0  0  0  0  0
   24.3682  -20.8979  -12.5535 N   0  0  0  0  0  0  0  0  0  0  0  0
   23.1738  -20.0307  -12.6435 C   0  0  1  0  0  0  0  0  0  0  0  0
   22.7365  -20.1669  -14.1243 C   0  0  0  0  0  0  0  0  0  0  0  0
   22.4438  -21.5788  -14.4421 C   0  0  0  0  0  0  0  0  0  0  0  0
   23.4858  -22.4289  -14.8280 C   0  0  0  0  0  0  0  0  0  0  0  0
   23.2145  -23.7345  -15.1022 C   0  0  0  0  0  0  0  0  0  0  0  0
   21.9338  -24.2300  -15.0054 C   0  0  0  0  0  0  0  0  0  0  0  0
   20.9076  -23.3666  -14.6188 C   0  0  0  0  0  0  0  0  0  0  0  0
   21.1549  -22.0413  -14.3358 C   0  0  0  0  0  0  0  0  0  0  0  0
   22.0796  -20.5252  -11.8168 C   0  0  0  0  0  0  0  0  0  0  0  0
   20.8780  -19.8486  -11.8016 O   0  0  0  0  0  0  0  0  0  0  0  0
   22.2333  -21.5733  -11.1119 O   0  0  0  0  0  0  0  0  0  0  0  0
  2  1  1  1
  2  3  1  0
  4  2  1  0
  5  4  1  0
  5  6  1  6
  7  9  1  0
  7  5  1  0
  8  7  2  0
 10 21  1  0
 10  9  1  0
 10 11  1  1
 12 11  1  0
 12 20  1  0
 13 12  2  0
 14 13  1  0
 14 15  1  0
 15 16  1  0
 15 20  2  0
 16 17  2  0
 17 18  1  0
 19 18  2  0
 20 19  1  0
 21 22  2  0
 23 24  1  0
 23 21  1  0
 24 25  1  6
 26 27  2  0
 26 25  1  0
 28 27  1  0
 29 28  2  0
 30 29  1  0
 30 31  2  0
 31 26  1  0
 32 24  1  0
 33 32  1  0
 34 32  2  0
M  END
$$$$
