LWF.pdb
     RDKit          3D

 34 36  0  0  1  0  0  0  0  0999 V2000
   29.6251  -17.7726  -17.7875 C   0  0  0  0  0  0  0  0  0  0  0  0
   28.2147  -17.3542  -17.4742 C   0  0  2  0  0  0  0  0  0  0  0  0
   27.9389  -15.9698  -18.0122 C   0  0  0  0  0  0  0  0  0  0  0  0
   27.8111  -17.5498  -16.0657 C   0  0  0  0  0  0  0  0  0  0  0  0
   28.3398  -18.7389  -15.3395 C   0  0  2  0  0  0  0  0  0  0  0  0
   28.1855  -19.9834  -16.0619 N   0  0  0  0  0  0  0  0  0  0  0  0
   27.5240  -18.8437  -14.0874 C   0  0  0  0  0  0  0  0  0  0  0  0
   27.3153  -17.8180  -13.3899 O   0  0  0  0  0  0  0  0  0  0  0  0
   26.9898  -20.0659  -13.6847 N   0  0  0  0  0  0  0  0  0  0  0  0
   26.0278  -20.1417  -12.5530 C   0  0  1  0  0  0  0  0  0  0  0  0
   24.9117  -21.0387  -12.9400 C   0  0  0  0  0  0  0  0  0  0  0  0
   23.7217  -21.1086  -12.1233 C   0  0  0  0  0  0  0  0  0  0  0  0
   23.5000  -21.7036  -10.8861 C   0  0  0  0  0  0  0  0  0  0  0  0
   22.2459  -21.5225  -10.4898 N   0  0  0  0  0  0  0  0  0  0  0  0
   21.6370  -20.8211  -11.4393 C   0  0  0  0  0  0  0  0  0  0  0  0
   20.3092  -20.3741  -11.4507 C   0  0  0  0  0  0  0  0  0  0  0  0
   19.8267  -19.6337  -12.5032 C   0  0  0  0  0  0  0  0  0  0  0  0
   20.7023  -19.3464  -13.5522 C   0  0  0  0  0  0  0  0  0  0  0  0
   22.0216  -19.7996  -13.5250 C   0  0  0  0  0  0  0  0  0  0  0  0
   22.5058  -20.5411  -12.4705 C   0  0  0  0  0  0  0  0  0  0  0  0
   26.7376  -20.4355  -11.3065 C   0  0  0  0  0  0  0  0  0  0  0  0
   27.6603  -21.3243  -11.2903 O   0  0  0  0  0  0  0  0  0  0  0  0
   26.4736  -19.7812  -10.0902 N   0  0  0  0  0  0  0  0  0  0  0  0
   27.0681  -20.2496   -8.8198 C   0  0  1  0  0  0  0  0  0  0  0  0
   27.5027  -18.9384   -8.1167 C   0  0  0  0  0  0  0  0  0  0  0  0
   28.1206  -19.2405   -6.8102 C   0  0  0  0  0  0  0  0  0  0  0  0
   27.3273  -19.2485   -5.6578 C   0  0  0  0  0  0  0  0  0  0  0  0
   27.8974  -19.5458   -4.4578 C   0  0  0  0  0  0  0  0  0  0  0  0
   29.2391  -19.8383   -4.3612 C   0  0  0  0  0  0  0  0  0  0  0  0
   30.0141  -19.8254   -5.5218 C   0  0  0  0  0  0  0  0  0  0  0  0
   29.4623  -19.5278   -6.7484 C   0  0  0  0  0  0  0  0  0  0  0  0
   26.0816  -20.8984   -7.9647 C   0  0  0  0  0  0  0  0  0  0  0  0
   26.4493  -21.9920   -7.2094 O   0  0  0  0  0  0  0  0  0  0  0  0
   24.8881  -20.4596   -7.9178 O   0  0  0  0  0  0  0  0  0  0  0  0
  2  1  1  1
  2  3  1  0
  4  2  1  0
  5  4  1  0
  5  6  1  6
  7  9  1  0
  7  5  1  0
  8  7  2  0
 10 21  1  0
 10  9  1  0
 10 11  1  6
 12 11  1  0
 12 20  1  0
 13 12  2  0
 14 13  1  0
 14 15  1  0
 15 16  1  0
 15 20  2  0
 16 17  2  0
 17 18  1  0
 19 18  2  0
 20 19  1  0
 21 22  2  0
 23 24  1  0
 23 21  1  0
 24 25  1  1
 26 27  2  0
 26 25  1  0
 28 27  1  0
 29 28  2  0
 30 29  1  0
 30 31  2  0
 31 26  1  0
 32 24  1  0
 33 32  1  0
 34 32  2  0
M  END
$$$$
