LWF.pdb
     RDKit          3D

 34 36  0  0  1  0  0  0  0  0999 V2000
   30.0459  -22.5097  -20.5253 C   0  0  0  0  0  0  0  0  0  0  0  0
   30.7920  -22.5137  -19.2192 C   0  0  2  0  0  0  0  0  0  0  0  0
   31.9856  -23.4367  -19.2916 C   0  0  0  0  0  0  0  0  0  0  0  0
   29.9442  -22.7098  -18.0243 C   0  0  0  0  0  0  0  0  0  0  0  0
   28.7021  -21.8960  -17.9000 C   0  0  2  0  0  0  0  0  0  0  0  0
   28.9123  -20.4749  -18.0753 N   0  0  0  0  0  0  0  0  0  0  0  0
   28.2185  -22.1077  -16.4980 C   0  0  0  0  0  0  0  0  0  0  0  0
   28.2110  -23.2661  -16.0078 O   0  0  0  0  0  0  0  0  0  0  0  0
   27.7776  -21.0348  -15.7263 N   0  0  0  0  0  0  0  0  0  0  0  0
   27.1943  -21.2556  -14.3760 C   0  0  1  0  0  0  0  0  0  0  0  0
   27.6858  -20.1904  -13.4683 C   0  0  0  0  0  0  0  0  0  0  0  0
   27.2061  -20.1199  -12.1071 C   0  0  0  0  0  0  0  0  0  0  0  0
   26.0210  -19.6141  -11.5843 C   0  0  0  0  0  0  0  0  0  0  0  0
   25.9850  -19.7565  -10.2648 N   0  0  0  0  0  0  0  0  0  0  0  0
   27.1207  -20.3452   -9.9074 C   0  0  0  0  0  0  0  0  0  0  0  0
   27.5199  -20.7157   -8.6166 C   0  0  0  0  0  0  0  0  0  0  0  0
   28.7252  -21.3421   -8.4072 C   0  0  0  0  0  0  0  0  0  0  0  0
   29.5302  -21.5930   -9.5201 C   0  0  0  0  0  0  0  0  0  0  0  0
   29.1174  -21.2171  -10.7988 C   0  0  0  0  0  0  0  0  0  0  0  0
   27.9097  -20.5899  -11.0093 C   0  0  0  0  0  0  0  0  0  0  0  0
   25.7467  -21.4503  -14.4776 C   0  0  0  0  0  0  0  0  0  0  0  0
   25.0196  -20.5587  -15.0414 O   0  0  0  0  0  0  0  0  0  0  0  0
   25.0808  -22.5895  -13.9918 N   0  0  0  0  0  0  0  0  0  0  0  0
   23.6914  -22.5133  -13.4910 C   0  0  1  0  0  0  0  0  0  0  0  0
   23.8404  -21.8279  -12.1087 C   0  0  0  0  0  0  0  0  0  0  0  0
   22.5280  -21.7414  -11.4379 C   0  0  0  0  0  0  0  0  0  0  0  0
   22.3997  -20.9832  -10.2691 C   0  0  0  0  0  0  0  0  0  0  0  0
   21.1836  -20.8910   -9.6641 C   0  0  0  0  0  0  0  0  0  0  0  0
   20.0808  -21.5305  -10.1836 C   0  0  0  0  0  0  0  0  0  0  0  0
   20.2285  -22.2820  -11.3503 C   0  0  0  0  0  0  0  0  0  0  0  0
   21.4476  -22.3918  -11.9823 C   0  0  0  0  0  0  0  0  0  0  0  0
   22.8612  -21.6488  -14.3208 C   0  0  0  0  0  0  0  0  0  0  0  0
   23.1674  -20.3083  -14.4268 O   0  0  0  0  0  0  0  0  0  0  0  0
   21.8590  -22.1278  -14.9413 O   0  0  0  0  0  0  0  0  0  0  0  0
  2  1  1  6
  2  3  1  0
  4  2  1  0
  5  4  1  0
  5  6  1  1
  7  9  1  0
  7  5  1  0
  8  7  2  0
 10 21  1  0
 10  9  1  0
 10 11  1  1
 12 11  1  0
 12 20  1  0
 13 12  2  0
 14 13  1  0
 14 15  1  0
 15 16  1  0
 15 20  2  0
 16 17  2  0
 17 18  1  0
 19 18  2  0
 20 19  1  0
 21 22  2  0
 23 24  1  0
 23 21  1  0
 24 25  1  1
 26 27  2  0
 26 25  1  0
 28 27  1  0
 29 28  2  0
 30 29  1  0
 30 31  2  0
 31 26  1  0
 32 24  1  0
 33 32  1  0
 34 32  2  0
M  END
$$$$
