LWF.pdb
     RDKit          3D

 34 36  0  0  1  0  0  0  0  0999 V2000
   22.9942  -17.9853  -14.4480 C   0  0  0  0  0  0  0  0  0  0  0  0
   22.9216  -19.4876  -14.4621 C   0  0  2  0  0  0  0  0  0  0  0  0
   21.5241  -19.9555  -14.1303 C   0  0  0  0  0  0  0  0  0  0  0  0
   23.9873  -20.1645  -13.6932 C   0  0  0  0  0  0  0  0  0  0  0  0
   25.3853  -19.6698  -13.8400 C   0  0  2  0  0  0  0  0  0  0  0  0
   25.8897  -19.7313  -15.1950 N   0  0  0  0  0  0  0  0  0  0  0  0
   26.2280  -20.5857  -13.0063 C   0  0  0  0  0  0  0  0  0  0  0  0
   26.0358  -21.8279  -13.0538 O   0  0  0  0  0  0  0  0  0  0  0  0
   27.2268  -20.0786  -12.1777 N   0  0  0  0  0  0  0  0  0  0  0  0
   28.0674  -20.9871  -11.3530 C   0  0  1  0  0  0  0  0  0  0  0  0
   29.4771  -20.5335  -11.4370 C   0  0  0  0  0  0  0  0  0  0  0  0
   30.5518  -21.4437  -11.1133 C   0  0  0  0  0  0  0  0  0  0  0  0
   31.3117  -22.2803  -11.9235 C   0  0  0  0  0  0  0  0  0  0  0  0
   32.2073  -22.9495  -11.2076 N   0  0  0  0  0  0  0  0  0  0  0  0
   32.0537  -22.5716   -9.9435 C   0  0  0  0  0  0  0  0  0  0  0  0
   32.7915  -22.9961   -8.8307 C   0  0  0  0  0  0  0  0  0  0  0  0
   32.5264  -22.4935   -7.5793 C   0  0  0  0  0  0  0  0  0  0  0  0
   31.5025  -21.5519   -7.4598 C   0  0  0  0  0  0  0  0  0  0  0  0
   30.7773  -21.1402   -8.5784 C   0  0  0  0  0  0  0  0  0  0  0  0
   31.0427  -21.6430   -9.8326 C   0  0  0  0  0  0  0  0  0  0  0  0
   27.4808  -21.1463  -10.0209 C   0  0  0  0  0  0  0  0  0  0  0  0
   28.2415  -21.2963   -9.0010 O   0  0  0  0  0  0  0  0  0  0  0  0
   26.0961  -21.1359   -9.7763 N   0  0  0  0  0  0  0  0  0  0  0  0
   25.5584  -21.0580   -8.4009 C   0  0  1  0  0  0  0  0  0  0  0  0
   25.7103  -19.5593   -8.0357 C   0  0  0  0  0  0  0  0  0  0  0  0
   26.6853  -19.3977   -6.9388 C   0  0  0  0  0  0  0  0  0  0  0  0
   27.5422  -18.2918   -6.9354 C   0  0  0  0  0  0  0  0  0  0  0  0
   28.4270  -18.1368   -5.9124 C   0  0  0  0  0  0  0  0  0  0  0  0
   28.4911  -19.0492   -4.8835 C   0  0  0  0  0  0  0  0  0  0  0  0
   27.6282  -20.1459   -4.9044 C   0  0  0  0  0  0  0  0  0  0  0  0
   26.7236  -20.3264   -5.9276 C   0  0  0  0  0  0  0  0  0  0  0  0
   24.1369  -21.3778   -8.3542 C   0  0  0  0  0  0  0  0  0  0  0  0
   23.5264  -21.5904   -7.1361 O   0  0  0  0  0  0  0  0  0  0  0  0
   23.4644  -21.4627   -9.4311 O   0  0  0  0  0  0  0  0  0  0  0  0
  2  1  1  1
  2  3  1  0
  4  2  1  0
  5  4  1  0
  5  6  1  6
  7  9  1  0
  7  5  1  0
  8  7  2  0
 10 21  1  0
 10  9  1  0
 10 11  1  1
 12 11  1  0
 12 20  1  0
 13 12  2  0
 14 13  1  0
 14 15  1  0
 15 16  1  0
 15 20  2  0
 16 17  2  0
 17 18  1  0
 19 18  2  0
 20 19  1  0
 21 22  2  0
 23 24  1  0
 23 21  1  0
 24 25  1  6
 26 27  2  0
 26 25  1  0
 28 27  1  0
 29 28  2  0
 30 29  1  0
 30 31  2  0
 31 26  1  0
 32 24  1  0
 33 32  1  0
 34 32  2  0
M  END
$$$$
