LWF.pdb
     RDKit          3D

 34 36  0  0  1  0  0  0  0  0999 V2000
   31.2711  -23.7955  -16.1509 C   0  0  0  0  0  0  0  0  0  0  0  0
   29.8526  -23.6668  -16.6344 C   0  0  2  0  0  0  0  0  0  0  0  0
   29.8108  -23.5779  -18.1419 C   0  0  0  0  0  0  0  0  0  0  0  0
   29.0560  -22.6315  -15.9426 C   0  0  0  0  0  0  0  0  0  0  0  0
   27.5912  -22.5731  -16.2105 C   0  0  2  0  0  0  0  0  0  0  0  0
   27.2527  -22.0016  -17.4963 N   0  0  0  0  0  0  0  0  0  0  0  0
   27.0230  -21.6728  -15.1566 C   0  0  0  0  0  0  0  0  0  0  0  0
   27.1393  -20.4256  -15.2711 O   0  0  0  0  0  0  0  0  0  0  0  0
   26.3632  -22.2001  -14.0485 N   0  0  0  0  0  0  0  0  0  0  0  0
   25.5752  -21.3232  -13.1417 C   0  0  1  0  0  0  0  0  0  0  0  0
   24.1420  -21.4285  -13.5092 C   0  0  0  0  0  0  0  0  0  0  0  0
   23.1574  -20.6218  -12.8252 C   0  0  0  0  0  0  0  0  0  0  0  0
   23.1733  -19.2798  -12.4612 C   0  0  0  0  0  0  0  0  0  0  0  0
   22.0467  -18.9412  -11.8458 N   0  0  0  0  0  0  0  0  0  0  0  0
   21.2893  -20.0313  -11.7966 C   0  0  0  0  0  0  0  0  0  0  0  0
   20.0022  -20.1518  -11.2567 C   0  0  0  0  0  0  0  0  0  0  0  0
   19.3319  -21.3509  -11.3006 C   0  0  0  0  0  0  0  0  0  0  0  0
   19.9769  -22.4354  -11.8983 C   0  0  0  0  0  0  0  0  0  0  0  0
   21.2592  -22.2981  -12.4309 C   0  0  0  0  0  0  0  0  0  0  0  0
   21.9310  -21.0968  -12.3877 C   0  0  0  0  0  0  0  0  0  0  0  0
   25.9421  -21.5798  -11.7476 C   0  0  0  0  0  0  0  0  0  0  0  0
   25.9147  -22.7756  -11.2888 O   0  0  0  0  0  0  0  0  0  0  0  0
   26.3443  -20.5723  -10.8529 N   0  0  0  0  0  0  0  0  0  0  0  0
   26.4973  -20.8435   -9.4073 C   0  0  1  0  0  0  0  0  0  0  0  0
   27.2713  -19.6062   -8.8853 C   0  0  0  0  0  0  0  0  0  0  0  0
   27.5039  -19.7254   -7.4322 C   0  0  0  0  0  0  0  0  0  0  0  0
   28.0434  -20.9083   -6.9151 C   0  0  0  0  0  0  0  0  0  0  0  0
   28.2735  -21.0072   -5.5769 C   0  0  0  0  0  0  0  0  0  0  0  0
   27.9846  -19.9636   -4.7269 C   0  0  0  0  0  0  0  0  0  0  0  0
   27.4471  -18.7918   -5.2613 C   0  0  0  0  0  0  0  0  0  0  0  0
   27.2044  -18.6656   -6.6115 C   0  0  0  0  0  0  0  0  0  0  0  0
   25.2113  -20.8766   -8.7214 C   0  0  0  0  0  0  0  0  0  0  0  0
   25.0276  -21.7377   -7.6600 O   0  0  0  0  0  0  0  0  0  0  0  0
   24.2637  -20.1172   -9.1015 O   0  0  0  0  0  0  0  0  0  0  0  0
  2  1  1  1
  2  3  1  0
  4  2  1  0
  5  4  1  0
  5  6  1  6
  7  9  1  0
  7  5  1  0
  8  7  2  0
 10 21  1  0
 10  9  1  0
 10 11  1  1
 12 11  1  0
 12 20  1  0
 13 12  2  0
 14 13  1  0
 14 15  1  0
 15 16  1  0
 15 20  2  0
 16 17  2  0
 17 18  1  0
 19 18  2  0
 20 19  1  0
 21 22  2  0
 23 24  1  0
 23 21  1  0
 24 25  1  1
 26 27  2  0
 26 25  1  0
 28 27  1  0
 29 28  2  0
 30 29  1  0
 30 31  2  0
 31 26  1  0
 32 24  1  0
 33 32  1  0
 34 32  2  0
M  END
$$$$
