LWF.pdb
     RDKit          3D

 34 36  0  0  1  0  0  0  0  0999 V2000
   28.6528  -17.8991  -16.9214 C   0  0  0  0  0  0  0  0  0  0  0  0
   27.2623  -17.4829  -16.5266 C   0  0  2  0  0  0  0  0  0  0  0  0
   27.0035  -16.0487  -16.9242 C   0  0  0  0  0  0  0  0  0  0  0  0
   26.8952  -17.8018  -15.1307 C   0  0  0  0  0  0  0  0  0  0  0  0
   27.3296  -19.1121  -14.5693 C   0  0  2  0  0  0  0  0  0  0  0  0
   26.8656  -20.2562  -15.3244 N   0  0  0  0  0  0  0  0  0  0  0  0
   26.7113  -19.1935  -13.2073 C   0  0  0  0  0  0  0  0  0  0  0  0
   26.5039  -18.1405  -12.5513 O   0  0  0  0  0  0  0  0  0  0  0  0
   26.3595  -20.4239  -12.6564 N   0  0  0  0  0  0  0  0  0  0  0  0
   25.5687  -20.4982  -11.3989 C   0  0  1  0  0  0  0  0  0  0  0  0
   24.4011  -21.3845  -11.6260 C   0  0  0  0  0  0  0  0  0  0  0  0
   23.2326  -20.8822  -12.3117 C   0  0  0  0  0  0  0  0  0  0  0  0
   22.8925  -20.8945  -13.6601 C   0  0  0  0  0  0  0  0  0  0  0  0
   21.7103  -20.3233  -13.8569 N   0  0  0  0  0  0  0  0  0  0  0  0
   21.2646  -19.9352  -12.6674 C   0  0  0  0  0  0  0  0  0  0  0  0
   20.0485  -19.3031  -12.3771 C   0  0  0  0  0  0  0  0  0  0  0  0
   19.7163  -18.9807  -11.0830 C   0  0  0  0  0  0  0  0  0  0  0  0
   20.6290  -19.3038  -10.0771 C   0  0  0  0  0  0  0  0  0  0  0  0
   21.8359  -19.9332  -10.3838 C   0  0  0  0  0  0  0  0  0  0  0  0
   22.1691  -20.2570  -11.6801 C   0  0  0  0  0  0  0  0  0  0  0  0
   26.4470  -20.8041  -10.2680 C   0  0  0  0  0  0  0  0  0  0  0  0
   27.1830  -21.8524  -10.2952 O   0  0  0  0  0  0  0  0  0  0  0  0
   26.5476  -19.9949   -9.1225 N   0  0  0  0  0  0  0  0  0  0  0  0
   27.2504  -20.4637   -7.9087 C   0  0  1  0  0  0  0  0  0  0  0  0
   27.7534  -19.1533   -7.2511 C   0  0  0  0  0  0  0  0  0  0  0  0
   28.4316  -19.4511   -5.9738 C   0  0  0  0  0  0  0  0  0  0  0  0
   27.9166  -18.9299   -4.7819 C   0  0  0  0  0  0  0  0  0  0  0  0
   28.5343  -19.2222   -3.6044 C   0  0  0  0  0  0  0  0  0  0  0  0
   29.6549  -20.0210   -3.5686 C   0  0  0  0  0  0  0  0  0  0  0  0
   30.1537  -20.5316   -4.7679 C   0  0  0  0  0  0  0  0  0  0  0  0
   29.5479  -20.2513   -5.9729 C   0  0  0  0  0  0  0  0  0  0  0  0
   26.3404  -21.1046   -6.9672 C   0  0  0  0  0  0  0  0  0  0  0  0
   26.8433  -21.9580   -6.0078 O   0  0  0  0  0  0  0  0  0  0  0  0
   25.0897  -20.8796   -7.0321 O   0  0  0  0  0  0  0  0  0  0  0  0
  2  1  1  1
  2  3  1  0
  4  2  1  0
  5  4  1  0
  5  6  1  6
  7  9  1  0
  7  5  1  0
  8  7  2  0
 10 21  1  0
 10  9  1  0
 10 11  1  6
 12 11  1  0
 12 20  1  0
 13 12  2  0
 14 13  1  0
 14 15  1  0
 15 16  1  0
 15 20  2  0
 16 17  2  0
 17 18  1  0
 19 18  2  0
 20 19  1  0
 21 22  2  0
 23 24  1  0
 23 21  1  0
 24 25  1  1
 26 27  2  0
 26 25  1  0
 28 27  1  0
 29 28  2  0
 30 29  1  0
 30 31  2  0
 31 26  1  0
 32 24  1  0
 33 32  1  0
 34 32  2  0
M  END
$$$$
