LWF.pdb
     RDKit          3D

 34 36  0  0  1  0  0  0  0  0999 V2000
   27.2327  -23.4612  -18.0412 C   0  0  0  0  0  0  0  0  0  0  0  0
   27.9006  -23.9677  -16.7922 C   0  0  2  0  0  0  0  0  0  0  0  0
   28.1572  -25.4531  -16.8916 C   0  0  0  0  0  0  0  0  0  0  0  0
   27.2539  -23.5461  -15.5317 C   0  0  0  0  0  0  0  0  0  0  0  0
   26.9298  -22.1024  -15.3542 C   0  0  2  0  0  0  0  0  0  0  0  0
   28.0921  -21.2575  -15.1829 N   0  0  0  0  0  0  0  0  0  0  0  0
   26.1265  -22.0205  -14.0923 C   0  0  0  0  0  0  0  0  0  0  0  0
   25.4746  -23.0223  -13.7004 O   0  0  0  0  0  0  0  0  0  0  0  0
   26.0935  -20.8463  -13.3432 N   0  0  0  0  0  0  0  0  0  0  0  0
   25.1862  -20.7142  -12.1721 C   0  0  1  0  0  0  0  0  0  0  0  0
   25.8608  -19.8877  -11.1416 C   0  0  0  0  0  0  0  0  0  0  0  0
   27.0258  -20.3957  -10.4539 C   0  0  0  0  0  0  0  0  0  0  0  0
   28.1140  -21.1241  -10.9218 C   0  0  0  0  0  0  0  0  0  0  0  0
   28.9699  -21.3826   -9.9404 N   0  0  0  0  0  0  0  0  0  0  0  0
   28.4688  -20.8402   -8.8363 C   0  0  0  0  0  0  0  0  0  0  0  0
   29.0337  -20.8395   -7.5543 C   0  0  0  0  0  0  0  0  0  0  0  0
   28.4003  -20.2120   -6.5084 C   0  0  0  0  0  0  0  0  0  0  0  0
   27.1825  -19.5808   -6.7694 C   0  0  0  0  0  0  0  0  0  0  0  0
   26.6338  -19.5913   -8.0522 C   0  0  0  0  0  0  0  0  0  0  0  0
   27.2682  -20.2194   -9.1007 C   0  0  0  0  0  0  0  0  0  0  0  0
   23.8522  -20.3005  -12.6118 C   0  0  0  0  0  0  0  0  0  0  0  0
   23.6826  -19.1458  -13.1402 O   0  0  0  0  0  0  0  0  0  0  0  0
   22.7108  -21.1138  -12.4985 N   0  0  0  0  0  0  0  0  0  0  0  0
   21.3637  -20.5990  -12.8262 C   0  0  1  0  0  0  0  0  0  0  0  0
   21.1156  -21.1202  -14.2647 C   0  0  0  0  0  0  0  0  0  0  0  0
   21.0911  -22.5965  -14.2754 C   0  0  0  0  0  0  0  0  0  0  0  0
   19.9163  -23.2691  -13.9222 C   0  0  0  0  0  0  0  0  0  0  0  0
   19.8925  -24.6300  -13.9512 C   0  0  0  0  0  0  0  0  0  0  0  0
   21.0039  -25.3527  -14.3222 C   0  0  0  0  0  0  0  0  0  0  0  0
   22.1665  -24.6639  -14.6713 C   0  0  0  0  0  0  0  0  0  0  0  0
   22.2174  -23.2875  -14.6502 C   0  0  0  0  0  0  0  0  0  0  0  0
   20.3371  -21.1776  -11.9679 C   0  0  0  0  0  0  0  0  0  0  0  0
   19.0186  -20.8135  -12.1430 O   0  0  0  0  0  0  0  0  0  0  0  0
   20.6564  -22.0115  -11.0614 O   0  0  0  0  0  0  0  0  0  0  0  0
  2  1  1  6
  2  3  1  0
  4  2  1  0
  5  4  1  0
  5  6  1  1
  7  9  1  0
  7  5  1  0
  8  7  2  0
 10 21  1  0
 10  9  1  0
 10 11  1  1
 12 11  1  0
 12 20  1  0
 13 12  2  0
 14 13  1  0
 14 15  1  0
 15 16  1  0
 15 20  2  0
 16 17  2  0
 17 18  1  0
 19 18  2  0
 20 19  1  0
 21 22  2  0
 23 24  1  0
 23 21  1  0
 24 25  1  6
 26 27  2  0
 26 25  1  0
 28 27  1  0
 29 28  2  0
 30 29  1  0
 30 31  2  0
 31 26  1  0
 32 24  1  0
 33 32  1  0
 34 32  2  0
M  END
$$$$
