RSS.pdb
     RDKit          3D

 24 23  0  0  1  0  0  0  0  0999 V2000
   18.2257  -14.7850  -20.9116 N   0  0  0  0  0  0  0  0  0  0  0  0
   16.9793  -14.9528  -20.2666 C   0  0  0  0  0  0  0  0  0  0  0  0
   16.2237  -15.9830  -20.4641 N   0  0  0  0  0  0  0  0  0  0  0  0
   16.5327  -13.9462  -19.3549 N   0  0  0  0  0  0  0  0  0  0  0  0
   17.4047  -12.9191  -18.8081 C   0  0  0  0  0  0  0  0  0  0  0  0
   16.6960  -11.9900  -17.8967 C   0  0  0  0  0  0  0  0  0  0  0  0
   17.5702  -10.9009  -17.3831 C   0  0  0  0  0  0  0  0  0  0  0  0
   18.2687  -11.2232  -16.1067 C   0  0  2  0  0  0  0  0  0  0  0  0
   17.5485  -12.1198  -15.2542 N   0  0  0  0  0  0  0  0  0  0  0  0
   18.5903   -9.9969  -15.3190 C   0  0  0  0  0  0  0  0  0  0  0  0
   17.7181   -9.4241  -14.6153 O   0  0  0  0  0  0  0  0  0  0  0  0
   15.3212  -16.0107  -19.9426 O   0  0  0  0  0  0  0  0  0  0  0  0
   22.5189   -8.8411  -15.0865 C   0  0  0  0  0  0  0  0  0  0  0  0
   21.6659   -8.4868  -14.0407 C   0  0  1  0  0  0  0  0  0  0  0  0
   20.2682   -8.2713  -14.5838 N   0  0  0  0  0  0  0  0  0  0  0  0
   19.8970   -9.4500  -15.3499 C   0  0  0  0  0  0  0  0  0  0  0  0
   20.2491   -7.1145  -15.5504 O   0  0  0  0  0  0  0  0  0  0  0  0
   20.5816   -7.2385  -16.7535 O   0  0  0  0  0  0  0  0  0  0  0  0
   18.5552   -2.6700  -16.3984 C   0  0  0  0  0  0  0  0  0  0  0  0
   18.6851   -3.7463  -15.5384 C   0  0  2  0  0  0  0  0  0  0  0  0
   19.7773   -4.6831  -16.0204 N   0  0  0  0  0  0  0  0  0  0  0  0
   19.8420   -5.8126  -15.1165 C   0  0  0  0  0  0  0  0  0  0  0  0
   21.0892   -4.0168  -16.0317 O   0  0  0  0  0  0  0  0  0  0  0  0
   21.5653   -3.4033  -17.1588 O   0  0  0  0  0  0  0  0  0  0  0  0
  1  2  1  0
  2  3  2  0
  2  4  1  0
  4  5  1  0
  5  6  1  0
  6  7  1  0
  7  8  1  0
  8  9  1  1
  8 10  1  0
 10 11  2  0
 10 15  1  0
 13 12  1  0
 14 13  1  1
 14 16  1  0
 15 14  1  0
 16 17  2  0
 16 21  1  0
 18 19  1  0
 20 19  1  6
 20 22  1  0
 21 20  1  0
 22 23  1  0
 24 22  2  0
M  END
$$$$
