RSS.pdb
     RDKit          3D

 24 23  0  0  1  0  0  0  0  0999 V2000
   26.9562  -25.9778  -16.3707 N   0  0  0  0  0  0  0  0  0  0  0  0
   25.6145  -26.3695  -16.5811 C   0  0  0  0  0  0  0  0  0  0  0  0
   25.1558  -27.5190  -16.2076 N   0  0  0  0  0  0  0  0  0  0  0  0
   24.7233  -25.4595  -17.2302 N   0  0  0  0  0  0  0  0  0  0  0  0
   25.0888  -24.0971  -17.5829 C   0  0  0  0  0  0  0  0  0  0  0  0
   23.9919  -23.3651  -18.2591 C   0  0  0  0  0  0  0  0  0  0  0  0
   22.6898  -23.4849  -17.5492 C   0  0  0  0  0  0  0  0  0  0  0  0
   22.3045  -22.2788  -16.7631 C   0  0  2  0  0  0  0  0  0  0  0  0
   23.3209  -21.2727  -16.6969 N   0  0  0  0  0  0  0  0  0  0  0  0
   21.9060  -22.6239  -15.3668 C   0  0  0  0  0  0  0  0  0  0  0  0
   22.2886  -23.6924  -14.8226 O   0  0  0  0  0  0  0  0  0  0  0  0
   24.1813  -27.7522  -16.4961 O   0  0  0  0  0  0  0  0  0  0  0  0
   19.6114  -19.9060  -13.3797 C   0  0  0  0  0  0  0  0  0  0  0  0
   20.4395  -20.6801  -12.5661 C   0  0  1  0  0  0  0  0  0  0  0  0
   20.7062  -22.0097  -13.2415 N   0  0  0  0  0  0  0  0  0  0  0  0
   21.0813  -21.7456  -14.6213 C   0  0  0  0  0  0  0  0  0  0  0  0
   19.4472  -22.8372  -13.2958 O   0  0  0  0  0  0  0  0  0  0  0  0
   18.6070  -22.7226  -14.2201 O   0  0  0  0  0  0  0  0  0  0  0  0
   18.5798  -25.2305  -10.0684 C   0  0  0  0  0  0  0  0  0  0  0  0
   18.1425  -25.7358  -11.2801 C   0  0  1  0  0  0  0  0  0  0  0  0
   17.9719  -24.6179  -12.2920 N   0  0  0  0  0  0  0  0  0  0  0  0
   19.1662  -23.7992  -12.2738 C   0  0  0  0  0  0  0  0  0  0  0  0
   16.8167  -23.7680  -11.9627 O   0  0  0  0  0  0  0  0  0  0  0  0
   15.5342  -24.2176  -12.1247 O   0  0  0  0  0  0  0  0  0  0  0  0
  1  2  1  0
  2  3  2  0
  2  4  1  0
  4  5  1  0
  5  6  1  0
  6  7  1  0
  7  8  1  0
  8  9  1  1
  8 10  1  0
 10 11  2  0
 10 15  1  0
 13 12  1  0
 14 13  1  1
 14 16  1  0
 15 14  1  0
 16 17  2  0
 16 21  1  0
 18 19  1  0
 20 19  1  6
 20 22  1  0
 21 20  1  0
 22 23  1  0
 24 22  2  0
M  END
$$$$
