RSS.pdb
     RDKit          3D

 24 23  0  0  1  0  0  0  0  0999 V2000
   16.2934  -11.5716  -13.4560 N   0  0  0  0  0  0  0  0  0  0  0  0
   16.4056  -12.1753  -14.7290 C   0  0  0  0  0  0  0  0  0  0  0  0
   17.0418  -13.2839  -14.9227 N   0  0  0  0  0  0  0  0  0  0  0  0
   15.7892  -11.5395  -15.8514 N   0  0  0  0  0  0  0  0  0  0  0  0
   15.2482  -10.1906  -15.8085 C   0  0  0  0  0  0  0  0  0  0  0  0
   15.6421   -9.3765  -16.9825 C   0  0  0  0  0  0  0  0  0  0  0  0
   15.2798   -7.9403  -16.8411 C   0  0  0  0  0  0  0  0  0  0  0  0
   15.7434   -7.0756  -17.9629 C   0  0  2  0  0  0  0  0  0  0  0  0
   15.7650   -7.7290  -19.2366 N   0  0  0  0  0  0  0  0  0  0  0  0
   17.1021   -6.5118  -17.7111 C   0  0  0  0  0  0  0  0  0  0  0  0
   18.1371   -7.0797  -18.1475 O   0  0  0  0  0  0  0  0  0  0  0  0
   17.0536  -13.6549  -15.8971 O   0  0  0  0  0  0  0  0  0  0  0  0
   19.4920   -2.5345  -16.3112 C   0  0  0  0  0  0  0  0  0  0  0  0
   18.2753   -3.1984  -16.4720 C   0  0  2  0  0  0  0  0  0  0  0  0
   18.5370   -4.6525  -16.8068 N   0  0  0  0  0  0  0  0  0  0  0  0
   17.2527   -5.3146  -16.9684 C   0  0  0  0  0  0  0  0  0  0  0  0
   19.2283   -5.3433  -15.6589 O   0  0  0  0  0  0  0  0  0  0  0  0
   18.5990   -5.8195  -14.6838 O   0  0  0  0  0  0  0  0  0  0  0  0
   23.0703   -7.7501  -14.1733 C   0  0  0  0  0  0  0  0  0  0  0  0
   22.2926   -7.1725  -15.1615 C   0  0  1  0  0  0  0  0  0  0  0  0
   21.3552   -6.1393  -14.5644 N   0  0  0  0  0  0  0  0  0  0  0  0
   20.6530   -5.4805  -15.6461 C   0  0  0  0  0  0  0  0  0  0  0  0
   22.0944   -5.1232  -13.7987 O   0  0  0  0  0  0  0  0  0  0  0  0
   22.3327   -5.2762  -12.4596 O   0  0  0  0  0  0  0  0  0  0  0  0
  1  2  1  0
  2  3  2  0
  2  4  1  0
  4  5  1  0
  5  6  1  0
  6  7  1  0
  7  8  1  0
  8  9  1  6
  8 10  1  0
 10 11  2  0
 10 15  1  0
 13 12  1  0
 14 13  1  6
 14 16  1  0
 15 14  1  0
 16 17  2  0
 16 21  1  0
 18 19  1  0
 20 19  1  1
 20 22  1  0
 21 20  1  0
 22 23  1  0
 24 22  2  0
M  END
$$$$
