RSS.pdb
     RDKit          3D

 24 23  0  0  1  0  0  0  0  0999 V2000
   13.2195  -14.3304  -17.4798 N   0  0  0  0  0  0  0  0  0  0  0  0
   13.8444  -14.2085  -16.2180 C   0  0  0  0  0  0  0  0  0  0  0  0
   13.3331  -14.6960  -15.1353 N   0  0  0  0  0  0  0  0  0  0  0  0
   15.0951  -13.5216  -16.1305 N   0  0  0  0  0  0  0  0  0  0  0  0
   15.8652  -13.1117  -17.2937 C   0  0  0  0  0  0  0  0  0  0  0  0
   17.3046  -13.4440  -17.1756 C   0  0  0  0  0  0  0  0  0  0  0  0
   18.1133  -12.9363  -18.3167 C   0  0  0  0  0  0  0  0  0  0  0  0
   19.5237  -13.4175  -18.3332 C   0  0  2  0  0  0  0  0  0  0  0  0
   19.7025  -14.7283  -17.7863 N   0  0  0  0  0  0  0  0  0  0  0  0
   20.4413  -12.4878  -17.6112 C   0  0  0  0  0  0  0  0  0  0  0  0
   20.6457  -12.6002  -16.3743 O   0  0  0  0  0  0  0  0  0  0  0  0
   13.8739  -14.5545  -14.2551 O   0  0  0  0  0  0  0  0  0  0  0  0
   21.7999   -8.9999  -19.4742 C   0  0  0  0  0  0  0  0  0  0  0  0
   22.7276   -9.7291  -18.7294 C   0  0  1  0  0  0  0  0  0  0  0  0
   22.0031  -10.5149  -17.6557 N   0  0  0  0  0  0  0  0  0  0  0  0
   21.1055  -11.4513  -18.3126 C   0  0  0  0  0  0  0  0  0  0  0  0
   21.1329   -9.6026  -16.8292 O   0  0  0  0  0  0  0  0  0  0  0  0
   19.9472   -9.3391  -17.1426 O   0  0  0  0  0  0  0  0  0  0  0  0
   20.0625   -7.7879  -12.6019 C   0  0  0  0  0  0  0  0  0  0  0  0
   20.8808   -8.5732  -13.3948 C   0  0  2  0  0  0  0  0  0  0  0  0
   20.8510   -8.0894  -14.8327 N   0  0  0  0  0  0  0  0  0  0  0  0
   21.6427   -8.9972  -15.6365 C   0  0  0  0  0  0  0  0  0  0  0  0
   21.4195   -6.7377  -14.9558 O   0  0  0  0  0  0  0  0  0  0  0  0
   20.6617   -5.6233  -14.7168 O   0  0  0  0  0  0  0  0  0  0  0  0
  1  2  1  0
  2  3  2  0
  2  4  1  0
  4  5  1  0
  5  6  1  0
  6  7  1  0
  7  8  1  0
  8  9  1  1
  8 10  1  0
 10 11  2  0
 10 15  1  0
 13 12  1  0
 14 13  1  6
 14 16  1  0
 15 14  1  0
 16 17  2  0
 16 21  1  0
 18 19  1  0
 20 19  1  6
 20 22  1  0
 21 20  1  0
 22 23  1  0
 24 22  2  0
M  END
$$$$
