RSS.pdb
     RDKit          3D

 24 23  0  0  1  0  0  0  0  0999 V2000
   20.4807  -16.0491  -18.9696 N   0  0  0  0  0  0  0  0  0  0  0  0
   19.1845  -16.2842  -18.4574 C   0  0  0  0  0  0  0  0  0  0  0  0
   18.7187  -17.4729  -18.2542 N   0  0  0  0  0  0  0  0  0  0  0  0
   18.3514  -15.1647  -18.1466 N   0  0  0  0  0  0  0  0  0  0  0  0
   18.7976  -13.7843  -18.2453 C   0  0  0  0  0  0  0  0  0  0  0  0
   19.8463  -13.4476  -17.2539 C   0  0  0  0  0  0  0  0  0  0  0  0
   20.3038  -12.0351  -17.3496 C   0  0  0  0  0  0  0  0  0  0  0  0
   20.4181  -11.3353  -16.0388 C   0  0  2  0  0  0  0  0  0  0  0  0
   19.4666  -11.7656  -15.0595 N   0  0  0  0  0  0  0  0  0  0  0  0
   20.2950   -9.8548  -16.1815 C   0  0  0  0  0  0  0  0  0  0  0  0
   21.0268   -9.2114  -16.9782 O   0  0  0  0  0  0  0  0  0  0  0  0
   17.7486  -17.5395  -17.8779 O   0  0  0  0  0  0  0  0  0  0  0  0
   17.7314   -7.9808  -13.6604 C   0  0  0  0  0  0  0  0  0  0  0  0
   17.8392   -7.3392  -14.8948 C   0  0  1  0  0  0  0  0  0  0  0  0
   19.1633   -7.7018  -15.5353 N   0  0  0  0  0  0  0  0  0  0  0  0
   19.3422   -9.1397  -15.4145 C   0  0  0  0  0  0  0  0  0  0  0  0
   20.3057   -7.0681  -14.7829 O   0  0  0  0  0  0  0  0  0  0  0  0
   20.8040   -7.5874  -13.7555 O   0  0  0  0  0  0  0  0  0  0  0  0
   22.5927   -4.1406  -16.6303 C   0  0  0  0  0  0  0  0  0  0  0  0
   23.0812   -4.9837  -15.6478 C   0  0  1  0  0  0  0  0  0  0  0  0
   22.0242   -5.2339  -14.5881 N   0  0  0  0  0  0  0  0  0  0  0  0
   20.8690   -5.8294  -15.2269 C   0  0  0  0  0  0  0  0  0  0  0  0
   21.6067   -3.9803  -13.9403 O   0  0  0  0  0  0  0  0  0  0  0  0
   22.4645   -3.2724  -13.1427 O   0  0  0  0  0  0  0  0  0  0  0  0
  1  2  1  0
  2  3  2  0
  2  4  1  0
  4  5  1  0
  5  6  1  0
  6  7  1  0
  7  8  1  0
  8  9  1  1
  8 10  1  0
 10 11  2  0
 10 15  1  0
 13 12  1  0
 14 13  1  6
 14 16  1  0
 15 14  1  0
 16 17  2  0
 16 21  1  0
 18 19  1  0
 20 19  1  1
 20 22  1  0
 21 20  1  0
 22 23  1  0
 24 22  2  0
M  END
$$$$
