RSS.pdb
     RDKit          3D

 24 23  0  0  1  0  0  0  0  0999 V2000
   26.2711  -32.2768   -6.1568 N   0  0  0  0  0  0  0  0  0  0  0  0
   26.8385  -32.9447   -7.2657 C   0  0  0  0  0  0  0  0  0  0  0  0
   27.8756  -33.7098   -7.1645 N   0  0  0  0  0  0  0  0  0  0  0  0
   26.2427  -32.7730   -8.5539 N   0  0  0  0  0  0  0  0  0  0  0  0
   24.8393  -32.4465   -8.7486 C   0  0  0  0  0  0  0  0  0  0  0  0
   23.9288  -33.4969   -8.2349 C   0  0  0  0  0  0  0  0  0  0  0  0
   22.4918  -33.1324   -8.3613 C   0  0  0  0  0  0  0  0  0  0  0  0
   21.5484  -34.1561   -7.8291 C   0  0  2  0  0  0  0  0  0  0  0  0
   21.9204  -35.5065   -8.1252 N   0  0  0  0  0  0  0  0  0  0  0  0
   20.1554  -33.9435   -8.3208 C   0  0  0  0  0  0  0  0  0  0  0  0
   19.6855  -34.6243   -9.2695 O   0  0  0  0  0  0  0  0  0  0  0  0
   28.1741  -34.2133   -8.0274 O   0  0  0  0  0  0  0  0  0  0  0  0
   15.9139  -31.7737   -7.3968 C   0  0  0  0  0  0  0  0  0  0  0  0
   17.2304  -32.0305   -7.0126 C   0  0  1  0  0  0  0  0  0  0  0  0
   17.9539  -32.7374   -8.1403 N   0  0  0  0  0  0  0  0  0  0  0  0
   19.3283  -32.9612   -7.7220 C   0  0  0  0  0  0  0  0  0  0  0  0
   18.0210  -31.8547   -9.3607 O   0  0  0  0  0  0  0  0  0  0  0  0
   18.8767  -30.9463   -9.4869 O   0  0  0  0  0  0  0  0  0  0  0  0
   16.3139  -31.1537  -13.8704 C   0  0  0  0  0  0  0  0  0  0  0  0
   16.2559  -31.8649  -12.6847 C   0  0  2  0  0  0  0  0  0  0  0  0
   17.1307  -31.2128  -11.6302 N   0  0  0  0  0  0  0  0  0  0  0  0
   17.0919  -32.0300  -10.4354 C   0  0  0  0  0  0  0  0  0  0  0  0
   16.6479  -29.8647  -11.2913 O   0  0  0  0  0  0  0  0  0  0  0  0
   16.2340  -29.5557  -10.0238 O   0  0  0  0  0  0  0  0  0  0  0  0
  1  2  1  0
  2  3  2  0
  2  4  1  0
  4  5  1  0
  5  6  1  0
  6  7  1  0
  7  8  1  0
  8  9  1  6
  8 10  1  0
 10 11  2  0
 10 15  1  0
 13 12  1  0
 14 13  1  1
 14 16  1  0
 15 14  1  0
 16 17  2  0
 16 21  1  0
 18 19  1  0
 20 19  1  6
 20 22  1  0
 21 20  1  0
 22 23  1  0
 24 22  2  0
M  END
$$$$
