RSS.pdb
     RDKit          3D

 24 23  0  0  1  0  0  0  0  0999 V2000
   17.0156  -14.7170  -14.4124 N   0  0  0  0  0  0  0  0  0  0  0  0
   16.6639  -14.7897  -15.7794 C   0  0  0  0  0  0  0  0  0  0  0  0
   15.7930  -15.6306  -16.2328 N   0  0  0  0  0  0  0  0  0  0  0  0
   17.2918  -13.8963  -16.7022 N   0  0  0  0  0  0  0  0  0  0  0  0
   18.3531  -12.9759  -16.3275 C   0  0  0  0  0  0  0  0  0  0  0  0
   18.7813  -12.1064  -17.4487 C   0  0  0  0  0  0  0  0  0  0  0  0
   18.4602  -10.6708  -17.2255 C   0  0  0  0  0  0  0  0  0  0  0  0
   19.6392   -9.7609  -17.2809 C   0  0  2  0  0  0  0  0  0  0  0  0
   20.8599  -10.3545  -16.8257 N   0  0  0  0  0  0  0  0  0  0  0  0
   19.4171   -8.5081  -16.5009 C   0  0  0  0  0  0  0  0  0  0  0  0
   18.3621   -7.8343  -16.6320 O   0  0  0  0  0  0  0  0  0  0  0  0
   15.6411  -15.6395  -17.2643 O   0  0  0  0  0  0  0  0  0  0  0  0
   22.0954   -7.5902  -13.5187 C   0  0  0  0  0  0  0  0  0  0  0  0
   20.7787   -7.1451  -13.3965 C   0  0  1  0  0  0  0  0  0  0  0  0
   20.2148   -6.8608  -14.7735 N   0  0  0  0  0  0  0  0  0  0  0  0
   20.4003   -8.0500  -15.5893 C   0  0  0  0  0  0  0  0  0  0  0  0
   20.9938   -5.7595  -15.4468 O   0  0  0  0  0  0  0  0  0  0  0  0
   21.9840   -5.9892  -16.1817 O   0  0  0  0  0  0  0  0  0  0  0  0
   19.7675   -1.7891  -14.9272 C   0  0  0  0  0  0  0  0  0  0  0  0
   20.3190   -2.1689  -16.1382 C   0  0  1  0  0  0  0  0  0  0  0  0
   21.3032   -3.3068  -15.9407 N   0  0  0  0  0  0  0  0  0  0  0  0
   20.6194   -4.3899  -15.2650 C   0  0  0  0  0  0  0  0  0  0  0  0
   22.4479   -2.8890  -15.1158 O   0  0  0  0  0  0  0  0  0  0  0  0
   23.3930   -2.0240  -15.5974 O   0  0  0  0  0  0  0  0  0  0  0  0
  1  2  1  0
  2  3  2  0
  2  4  1  0
  4  5  1  0
  5  6  1  0
  6  7  1  0
  7  8  1  0
  8  9  1  1
  8 10  1  0
 10 11  2  0
 10 15  1  0
 13 12  1  0
 14 13  1  1
 14 16  1  0
 15 14  1  0
 16 17  2  0
 16 21  1  0
 18 19  1  0
 20 19  1  6
 20 22  1  0
 21 20  1  0
 22 23  1  0
 24 22  2  0
M  END
$$$$
