RSS.pdb
     RDKit          3D

 24 23  0  0  1  0  0  0  0  0999 V2000
   23.2777  -21.5106   -6.7973 N   0  0  0  0  0  0  0  0  0  0  0  0
   22.4972  -21.1647   -7.9238 C   0  0  0  0  0  0  0  0  0  0  0  0
   21.2124  -21.3047   -7.9528 N   0  0  0  0  0  0  0  0  0  0  0  0
   23.1502  -20.6348   -9.0799 N   0  0  0  0  0  0  0  0  0  0  0  0
   24.5919  -20.6626   -9.2669 C   0  0  0  0  0  0  0  0  0  0  0  0
   25.0172  -21.6269  -10.3087 C   0  0  0  0  0  0  0  0  0  0  0  0
   24.7536  -21.1427  -11.6906 C   0  0  0  0  0  0  0  0  0  0  0  0
   25.9068  -21.2869  -12.6234 C   0  0  2  0  0  0  0  0  0  0  0  0
   27.1695  -21.4624  -11.9720 N   0  0  0  0  0  0  0  0  0  0  0  0
   26.0250  -20.1244  -13.5520 C   0  0  0  0  0  0  0  0  0  0  0  0
   26.8284  -19.1830  -13.3226 O   0  0  0  0  0  0  0  0  0  0  0  0
   20.7310  -21.0414   -8.8395 O   0  0  0  0  0  0  0  0  0  0  0  0
   25.5924  -20.7355  -17.3779 C   0  0  0  0  0  0  0  0  0  0  0  0
   26.2426  -19.6184  -16.8522 C   0  0  1  0  0  0  0  0  0  0  0  0
   25.4072  -19.0314  -15.7331 N   0  0  0  0  0  0  0  0  0  0  0  0
   25.2265  -20.0591  -14.7206 C   0  0  0  0  0  0  0  0  0  0  0  0
   24.0282  -18.6803  -16.2310 O   0  0  0  0  0  0  0  0  0  0  0  0
   23.0958  -19.5183  -16.2748 O   0  0  0  0  0  0  0  0  0  0  0  0
   23.5285  -15.0083  -18.0123 C   0  0  0  0  0  0  0  0  0  0  0  0
   22.3903  -15.4884  -17.3886 C   0  0  1  0  0  0  0  0  0  0  0  0
   22.4540  -16.9986  -17.2553 N   0  0  0  0  0  0  0  0  0  0  0  0
   23.7339  -17.3526  -16.6777 C   0  0  0  0  0  0  0  0  0  0  0  0
   22.3330  -17.6583  -18.5651 O   0  0  0  0  0  0  0  0  0  0  0  0
   21.1309  -17.7322  -19.2155 O   0  0  0  0  0  0  0  0  0  0  0  0
  1  2  1  0
  2  3  2  0
  2  4  1  0
  4  5  1  0
  5  6  1  0
  6  7  1  0
  7  8  1  0
  8  9  1  1
  8 10  1  0
 10 11  2  0
 10 15  1  0
 13 12  1  0
 14 13  1  1
 14 16  1  0
 15 14  1  0
 16 17  2  0
 16 21  1  0
 18 19  1  0
 20 19  1  1
 20 22  1  0
 21 20  1  0
 22 23  1  0
 24 22  2  0
M  END
$$$$
