RSS.pdb
     RDKit          3D

 24 23  0  0  1  0  0  0  0  0999 V2000
   25.2057  -17.2409  -17.6214 N   0  0  0  0  0  0  0  0  0  0  0  0
   26.2837  -16.6372  -18.3078 C   0  0  0  0  0  0  0  0  0  0  0  0
   26.2237  -16.3172  -19.5589 N   0  0  0  0  0  0  0  0  0  0  0  0
   27.4912  -16.3641  -17.5928 N   0  0  0  0  0  0  0  0  0  0  0  0
   27.6427  -16.5888  -16.1642 C   0  0  0  0  0  0  0  0  0  0  0  0
   28.0322  -17.9815  -15.8403 C   0  0  0  0  0  0  0  0  0  0  0  0
   26.9896  -18.7118  -15.0698 C   0  0  0  0  0  0  0  0  0  0  0  0
   27.4293  -20.0334  -14.5396 C   0  0  2  0  0  0  0  0  0  0  0  0
   27.9954  -20.9023  -15.5266 N   0  0  0  0  0  0  0  0  0  0  0  0
   26.3167  -20.7648  -13.8654 C   0  0  0  0  0  0  0  0  0  0  0  0
   25.6284  -21.6200  -14.4812 O   0  0  0  0  0  0  0  0  0  0  0  0
   27.0637  -15.8527  -19.9659 O   0  0  0  0  0  0  0  0  0  0  0  0
   26.1106  -21.4046   -9.8012 C   0  0  0  0  0  0  0  0  0  0  0  0
   24.9865  -20.7883  -10.3520 C   0  0  2  0  0  0  0  0  0  0  0  0
   24.8933  -21.1363  -11.8235 N   0  0  0  0  0  0  0  0  0  0  0  0
   26.0121  -20.5067  -12.5059 C   0  0  0  0  0  0  0  0  0  0  0  0
   23.6434  -20.5484  -12.4277 O   0  0  0  0  0  0  0  0  0  0  0  0
   23.4589  -19.3111  -12.5191 O   0  0  0  0  0  0  0  0  0  0  0  0
   19.6231  -21.5111  -14.9872 C   0  0  0  0  0  0  0  0  0  0  0  0
   20.8347  -21.9277  -14.4645 C   0  0  1  0  0  0  0  0  0  0  0  0
   21.3978  -20.8773  -13.5253 N   0  0  0  0  0  0  0  0  0  0  0  0
   22.6078  -21.4014  -12.9267 C   0  0  0  0  0  0  0  0  0  0  0  0
   20.4463  -20.5531  -12.4506 O   0  0  0  0  0  0  0  0  0  0  0  0
   19.4904  -19.5875  -12.6149 O   0  0  0  0  0  0  0  0  0  0  0  0
  1  2  1  0
  2  3  2  0
  2  4  1  0
  4  5  1  0
  5  6  1  0
  6  7  1  0
  7  8  1  0
  8  9  1  6
  8 10  1  0
 10 11  2  0
 10 15  1  0
 13 12  1  0
 14 13  1  1
 14 16  1  0
 15 14  1  0
 16 17  2  0
 16 21  1  0
 18 19  1  0
 20 19  1  6
 20 22  1  0
 21 20  1  0
 22 23  1  0
 24 22  2  0
M  END
$$$$
