RSS.pdb
     RDKit          3D

 24 23  0  0  1  0  0  0  0  0999 V2000
   12.3546  -13.6021  -10.4805 N   0  0  0  0  0  0  0  0  0  0  0  0
   11.5070  -12.5363  -10.8588 C   0  0  0  0  0  0  0  0  0  0  0  0
   10.3825  -12.2947  -10.2685 N   0  0  0  0  0  0  0  0  0  0  0  0
   11.9066  -11.6853  -11.9359 N   0  0  0  0  0  0  0  0  0  0  0  0
   13.2945  -11.4707  -12.3126 C   0  0  0  0  0  0  0  0  0  0  0  0
   13.5625  -11.8050  -13.7313 C   0  0  0  0  0  0  0  0  0  0  0  0
   14.9365  -11.4344  -14.1656 C   0  0  0  0  0  0  0  0  0  0  0  0
   15.2234  -11.7111  -15.6016 C   0  0  2  0  0  0  0  0  0  0  0  0
   15.1599  -13.0968  -15.9558 N   0  0  0  0  0  0  0  0  0  0  0  0
   16.5591  -11.1902  -16.0165 C   0  0  0  0  0  0  0  0  0  0  0  0
   17.5385  -11.9623  -16.1860 O   0  0  0  0  0  0  0  0  0  0  0  0
    9.8439  -11.4674  -10.6040 O   0  0  0  0  0  0  0  0  0  0  0  0
   18.8440   -7.8590  -18.4672 C   0  0  0  0  0  0  0  0  0  0  0  0
   17.6775   -8.4589  -17.9915 C   0  0  1  0  0  0  0  0  0  0  0  0
   17.9957   -9.2558  -16.7431 N   0  0  0  0  0  0  0  0  0  0  0  0
   16.7503   -9.8025  -16.2292 C   0  0  0  0  0  0  0  0  0  0  0  0
   18.5394   -8.3538  -15.6643 O   0  0  0  0  0  0  0  0  0  0  0  0
   17.7951   -7.6673  -14.9239 O   0  0  0  0  0  0  0  0  0  0  0  0
   21.7173   -9.1408  -13.2363 C   0  0  0  0  0  0  0  0  0  0  0  0
   21.8665   -8.0056  -14.0135 C   0  0  2  0  0  0  0  0  0  0  0  0
   20.5109   -7.4364  -14.3889 N   0  0  0  0  0  0  0  0  0  0  0  0
   19.9504   -8.2513  -15.4467 C   0  0  0  0  0  0  0  0  0  0  0  0
   20.6263   -6.0524  -14.8754 O   0  0  0  0  0  0  0  0  0  0  0  0
   20.7017   -4.9975  -14.0066 O   0  0  0  0  0  0  0  0  0  0  0  0
  1  2  1  0
  2  3  2  0
  2  4  1  0
  4  5  1  0
  5  6  1  0
  6  7  1  0
  7  8  1  0
  8  9  1  1
  8 10  1  0
 10 11  2  0
 10 15  1  0
 13 12  1  0
 14 13  1  6
 14 16  1  0
 15 14  1  0
 16 17  2  0
 16 21  1  0
 18 19  1  0
 20 19  1  1
 20 22  1  0
 21 20  1  0
 22 23  1  0
 24 22  2  0
M  END
$$$$
