RSS.pdb
     RDKit          3D

 24 23  0  0  1  0  0  0  0  0999 V2000
   29.9536  -31.2781  -15.8606 N   0  0  0  0  0  0  0  0  0  0  0  0
   30.1706  -32.2770  -16.8368 C   0  0  0  0  0  0  0  0  0  0  0  0
   30.5017  -33.4894  -16.5340 N   0  0  0  0  0  0  0  0  0  0  0  0
   30.0155  -31.9386  -18.2171 N   0  0  0  0  0  0  0  0  0  0  0  0
   29.6625  -30.6058  -18.6787 C   0  0  0  0  0  0  0  0  0  0  0  0
   28.2381  -30.4930  -19.0720 C   0  0  0  0  0  0  0  0  0  0  0  0
   27.3125  -30.4896  -17.9070 C   0  0  0  0  0  0  0  0  0  0  0  0
   25.8789  -30.2888  -18.2610 C   0  0  2  0  0  0  0  0  0  0  0  0
   25.6281  -29.1229  -19.0530 N   0  0  0  0  0  0  0  0  0  0  0  0
   25.0074  -30.2203  -17.0513 C   0  0  0  0  0  0  0  0  0  0  0  0
   25.3410  -30.7764  -15.9725 O   0  0  0  0  0  0  0  0  0  0  0  0
   30.6541  -34.1472  -17.3284 O   0  0  0  0  0  0  0  0  0  0  0  0
   22.3918  -27.0863  -16.0428 C   0  0  0  0  0  0  0  0  0  0  0  0
   21.8526  -28.3564  -16.2505 C   0  0  2  0  0  0  0  0  0  0  0  0
   22.9019  -29.4042  -15.9403 N   0  0  0  0  0  0  0  0  0  0  0  0
   23.7762  -29.5206  -17.0962 C   0  0  0  0  0  0  0  0  0  0  0  0
   22.2608  -30.7562  -15.7562 O   0  0  0  0  0  0  0  0  0  0  0  0
   22.1612  -31.5858  -16.6918 O   0  0  0  0  0  0  0  0  0  0  0  0
   22.3810  -32.5320  -12.1842 C   0  0  0  0  0  0  0  0  0  0  0  0
   21.1261  -32.6916  -12.7451 C   0  0  2  0  0  0  0  0  0  0  0  0
   21.1801  -32.4591  -14.2437 N   0  0  0  0  0  0  0  0  0  0  0  0
   21.7358  -31.1432  -14.4820 C   0  0  0  0  0  0  0  0  0  0  0  0
   19.8379  -32.5162  -14.8442 O   0  0  0  0  0  0  0  0  0  0  0  0
   19.2347  -33.7125  -15.1241 O   0  0  0  0  0  0  0  0  0  0  0  0
  1  2  1  0
  2  3  2  0
  2  4  1  0
  4  5  1  0
  5  6  1  0
  6  7  1  0
  7  8  1  0
  8  9  1  1
  8 10  1  0
 10 11  2  0
 10 15  1  0
 13 12  1  0
 14 13  1  1
 14 16  1  0
 15 14  1  0
 16 17  2  0
 16 21  1  0
 18 19  1  0
 20 19  1  6
 20 22  1  0
 21 20  1  0
 22 23  1  0
 24 22  2  0
M  END
$$$$
