RSS.pdb
     RDKit          3D

 24 23  0  0  1  0  0  0  0  0999 V2000
   31.3524  -24.9495  -16.4013 N   0  0  0  0  0  0  0  0  0  0  0  0
   30.8228  -25.0771  -17.7055 C   0  0  0  0  0  0  0  0  0  0  0  0
   31.4341  -24.6324  -18.7542 N   0  0  0  0  0  0  0  0  0  0  0  0
   29.5610  -25.7269  -17.8778 N   0  0  0  0  0  0  0  0  0  0  0  0
   28.8114  -26.3206  -16.7825 C   0  0  0  0  0  0  0  0  0  0  0  0
   27.5707  -26.9934  -17.2342 C   0  0  0  0  0  0  0  0  0  0  0  0
   26.3660  -26.1277  -17.1198 C   0  0  0  0  0  0  0  0  0  0  0  0
   25.6619  -26.2234  -15.8098 C   0  0  2  0  0  0  0  0  0  0  0  0
   25.8516  -27.4699  -15.1318 N   0  0  0  0  0  0  0  0  0  0  0  0
   24.1939  -25.9908  -15.9445 C   0  0  0  0  0  0  0  0  0  0  0  0
   23.7441  -24.9796  -16.5441 O   0  0  0  0  0  0  0  0  0  0  0  0
   30.9944  -24.8382  -19.6770 O   0  0  0  0  0  0  0  0  0  0  0  0
   20.0418  -27.7354  -14.2748 C   0  0  0  0  0  0  0  0  0  0  0  0
   21.1568  -28.0076  -15.0684 C   0  0  1  0  0  0  0  0  0  0  0  0
   21.8326  -26.7061  -15.4483 N   0  0  0  0  0  0  0  0  0  0  0  0
   23.2706  -26.9138  -15.3939 C   0  0  0  0  0  0  0  0  0  0  0  0
   21.5209  -25.6333  -14.4359 O   0  0  0  0  0  0  0  0  0  0  0  0
   22.0777  -25.5869  -13.3129 O   0  0  0  0  0  0  0  0  0  0  0  0
   21.6664  -21.8219  -14.3730 C   0  0  0  0  0  0  0  0  0  0  0  0
   20.3474  -22.2375  -14.4227 C   0  0  2  0  0  0  0  0  0  0  0  0
   20.1934  -23.5973  -13.7671 N   0  0  0  0  0  0  0  0  0  0  0  0
   20.5610  -24.6134  -14.7312 C   0  0  0  0  0  0  0  0  0  0  0  0
   18.8042  -23.8344  -13.3437 O   0  0  0  0  0  0  0  0  0  0  0  0
   18.2790  -23.2085  -12.2456 O   0  0  0  0  0  0  0  0  0  0  0  0
  1  2  1  0
  2  3  2  0
  2  4  1  0
  4  5  1  0
  5  6  1  0
  6  7  1  0
  7  8  1  0
  8  9  1  6
  8 10  1  0
 10 11  2  0
 10 15  1  0
 13 12  1  0
 14 13  1  6
 14 16  1  0
 15 14  1  0
 16 17  2  0
 16 21  1  0
 18 19  1  0
 20 19  1  1
 20 22  1  0
 21 20  1  0
 22 23  1  0
 24 22  2  0
M  END
$$$$
