RSS.pdb
     RDKit          3D

 24 23  0  0  1  0  0  0  0  0999 V2000
   14.9458  -14.1351  -16.6538 N   0  0  0  0  0  0  0  0  0  0  0  0
   14.7754  -14.0218  -15.2553 C   0  0  0  0  0  0  0  0  0  0  0  0
   14.2174  -14.9448  -14.5426 N   0  0  0  0  0  0  0  0  0  0  0  0
   15.2406  -12.8414  -14.5965 N   0  0  0  0  0  0  0  0  0  0  0  0
   15.8982  -11.7454  -15.2898 C   0  0  0  0  0  0  0  0  0  0  0  0
   17.2650  -12.0921  -15.7456 C   0  0  0  0  0  0  0  0  0  0  0  0
   17.9031  -11.0100  -16.5429 C   0  0  0  0  0  0  0  0  0  0  0  0
   19.2134  -11.3824  -17.1475 C   0  0  2  0  0  0  0  0  0  0  0  0
   19.6420  -12.7142  -16.8438 N   0  0  0  0  0  0  0  0  0  0  0  0
   20.3027  -10.4447  -16.7453 C   0  0  0  0  0  0  0  0  0  0  0  0
   20.8696  -10.5425  -15.6258 O   0  0  0  0  0  0  0  0  0  0  0  0
   14.2100  -14.8010  -13.5099 O   0  0  0  0  0  0  0  0  0  0  0  0
   22.9346   -8.6761  -19.4239 C   0  0  0  0  0  0  0  0  0  0  0  0
   22.2218   -7.8096  -18.5944 C   0  0  2  0  0  0  0  0  0  0  0  0
   21.8377   -8.5355  -17.3214 N   0  0  0  0  0  0  0  0  0  0  0  0
   20.7223   -9.4170  -17.6258 C   0  0  0  0  0  0  0  0  0  0  0  0
   21.3365   -7.5598  -16.2871 O   0  0  0  0  0  0  0  0  0  0  0  0
   20.2023   -7.0289  -16.3580 O   0  0  0  0  0  0  0  0  0  0  0  0
   21.8543   -6.0585  -11.7381 C   0  0  0  0  0  0  0  0  0  0  0  0
   22.3416   -6.7905  -12.8065 C   0  0  2  0  0  0  0  0  0  0  0  0
   21.6729   -6.3563  -14.0976 N   0  0  0  0  0  0  0  0  0  0  0  0
   22.1558   -7.2024  -15.1691 C   0  0  0  0  0  0  0  0  0  0  0  0
   21.9942   -4.9580  -14.4243 O   0  0  0  0  0  0  0  0  0  0  0  0
   21.1931   -3.9289  -14.0090 O   0  0  0  0  0  0  0  0  0  0  0  0
  1  2  1  0
  2  3  2  0
  2  4  1  0
  4  5  1  0
  5  6  1  0
  6  7  1  0
  7  8  1  0
  8  9  1  1
  8 10  1  0
 10 11  2  0
 10 15  1  0
 13 12  1  0
 14 13  1  6
 14 16  1  0
 15 14  1  0
 16 17  2  0
 16 21  1  0
 18 19  1  0
 20 19  1  1
 20 22  1  0
 21 20  1  0
 22 23  1  0
 24 22  2  0
M  END
$$$$
