ILM.pdb
     RDKit          3D

 25 24  0  0  1  0  0  0  0  0999 V2000
    6.8511  -22.0897   25.1300 C   0  0  0  0  0  0  0  0  0  0  0  0
    6.0978  -20.9070   24.5727 C   0  0  0  0  0  0  0  0  0  0  0  0
    6.9480  -19.7114   24.3641 C   0  0  2  0  0  0  0  0  0  0  0  0
    7.6175  -19.3554   25.6777 C   0  0  0  0  0  0  0  0  0  0  0  0
    6.3014  -18.5216   23.7421 C   0  0  2  0  0  0  0  0  0  0  0  0
    5.5384  -18.7937   22.5421 N   0  0  0  0  0  0  0  0  0  0  0  0
    7.2412  -17.4240   23.4455 C   0  0  0  0  0  0  0  0  0  0  0  0
    8.1242  -17.5208   22.5375 O   0  0  0  0  0  0  0  0  0  0  0  0
    6.1021  -14.0279   26.0732 C   0  0  0  0  0  0  0  0  0  0  0  0
    7.3500  -13.3474   25.5743 C   0  0  2  0  0  0  0  0  0  0  0  0
    7.0662  -11.8349   25.5912 C   0  0  0  0  0  0  0  0  0  0  0  0
    7.7093  -13.7284   24.1968 C   0  0  0  0  0  0  0  0  0  0  0  0
    8.1749  -15.1101   23.9283 C   0  0  2  0  0  0  0  0  0  0  0  0
    7.2388  -16.1746   24.1457 N   0  0  0  0  0  0  0  0  0  0  0  0
    9.4718  -15.3494   24.6157 C   0  0  0  0  0  0  0  0  0  0  0  0
   10.4783  -14.6767   24.2542 O   0  0  0  0  0  0  0  0  0  0  0  0
   11.1666  -13.2486   27.9232 C   0  0  0  0  0  0  0  0  0  0  0  0
   10.7513  -14.6451   28.9853 S   0  0  0  0  0  0  0  0  0  0  0  0
   11.7039  -16.1384   28.5246 C   0  0  0  0  0  0  0  0  0  0  0  0
   10.8688  -17.0115   27.6422 C   0  0  0  0  0  0  0  0  0  0  0  0
   10.9803  -16.5912   26.2252 C   0  0  2  0  0  0  0  0  0  0  0  0
    9.6571  -16.2817   25.6499 N   0  0  0  0  0  0  0  0  0  0  0  0
   11.5828  -17.6075   25.3371 C   0  0  0  0  0  0  0  0  0  0  0  0
   10.8561  -18.3706   24.6029 O   0  0  0  0  0  0  0  0  0  0  0  0
   12.9429  -17.8386   25.2029 O   0  0  0  0  0  0  0  0  0  0  0  0
  2  3  1  0
  2  1  1  0
  3  5  1  0
  3  4  1  1
  5  7  1  0
  5  6  1  6
  7  8  2  0
 10 11  1  6
 10  9  1  0
 12 10  1  0
 13 12  1  1
 14 13  1  0
 14  7  1  0
 15 16  2  0
 15 13  1  0
 18 17  1  0
 19 18  1  0
 19 20  1  0
 21 20  1  1
 21 23  1  0
 21 22  1  0
 22 15  1  0
 23 25  1  0
 24 23  2  0
M  END
$$$$
