ILM.pdb
     RDKit          3D

 25 24  0  0  1  0  0  0  0  0999 V2000
    6.8800  -20.0594   27.9128 C   0  0  0  0  0  0  0  0  0  0  0  0
    6.2889  -19.7437   26.5609 C   0  0  0  0  0  0  0  0  0  0  0  0
    7.1713  -18.9093   25.7118 C   0  0  2  0  0  0  0  0  0  0  0  0
    7.6405  -17.7164   26.5225 C   0  0  0  0  0  0  0  0  0  0  0  0
    6.6354  -18.4902   24.3859 C   0  0  2  0  0  0  0  0  0  0  0  0
    6.0198  -19.5462   23.6100 N   0  0  0  0  0  0  0  0  0  0  0  0
    7.6310  -17.8172   23.5304 C   0  0  0  0  0  0  0  0  0  0  0  0
    8.4884  -18.4679   22.8558 O   0  0  0  0  0  0  0  0  0  0  0  0
    7.0444  -14.9409   20.0672 C   0  0  0  0  0  0  0  0  0  0  0  0
    7.1181  -14.2609   21.4095 C   0  0  2  0  0  0  0  0  0  0  0  0
    6.8770  -12.7615   21.1598 C   0  0  0  0  0  0  0  0  0  0  0  0
    8.4295  -14.4088   22.0654 C   0  0  0  0  0  0  0  0  0  0  0  0
    8.7707  -15.6974   22.7141 C   0  0  2  0  0  0  0  0  0  0  0  0
    7.7152  -16.3945   23.3900 N   0  0  0  0  0  0  0  0  0  0  0  0
    9.9751  -15.5295   23.5700 C   0  0  0  0  0  0  0  0  0  0  0  0
   10.5253  -14.3932   23.6195 O   0  0  0  0  0  0  0  0  0  0  0  0
    9.5446  -12.9161   28.1149 C   0  0  0  0  0  0  0  0  0  0  0  0
   10.3672  -14.2776   28.9637 S   0  0  0  0  0  0  0  0  0  0  0  0
   11.3409  -15.2980   27.7975 C   0  0  0  0  0  0  0  0  0  0  0  0
   10.5594  -15.5006   26.5378 C   0  0  0  0  0  0  0  0  0  0  0  0
   11.3307  -16.3065   25.5618 C   0  0  2  0  0  0  0  0  0  0  0  0
   10.5498  -16.5579   24.3351 N   0  0  0  0  0  0  0  0  0  0  0  0
   11.7410  -17.6352   26.0626 C   0  0  0  0  0  0  0  0  0  0  0  0
   11.0944  -18.6990   25.7464 O   0  0  0  0  0  0  0  0  0  0  0  0
   12.8253  -17.8705   26.8933 O   0  0  0  0  0  0  0  0  0  0  0  0
  2  3  1  0
  2  1  1  0
  3  5  1  0
  3  4  1  1
  5  7  1  0
  5  6  1  6
  7  8  2  0
 10 11  1  6
 10  9  1  0
 12 10  1  0
 13 12  1  1
 14 13  1  0
 14  7  1  0
 15 16  2  0
 15 13  1  0
 18 17  1  0
 19 18  1  0
 19 20  1  0
 21 20  1  1
 21 23  1  0
 21 22  1  0
 22 15  1  0
 23 25  1  0
 24 23  2  0
M  END
$$$$
