ILM.pdb
     RDKit          3D

 25 24  0  0  1  0  0  0  0  0999 V2000
    6.7049  -20.2661   27.7620 C   0  0  0  0  0  0  0  0  0  0  0  0
    6.4369  -20.1973   26.2787 C   0  0  0  0  0  0  0  0  0  0  0  0
    7.2740  -19.1982   25.5739 C   0  0  2  0  0  0  0  0  0  0  0  0
    7.0447  -17.8386   26.2060 C   0  0  0  0  0  0  0  0  0  0  0  0
    7.1496  -19.1371   24.0901 C   0  0  2  0  0  0  0  0  0  0  0  0
    7.0916  -20.4217   23.4247 N   0  0  0  0  0  0  0  0  0  0  0  0
    8.2023  -18.3341   23.4399 C   0  0  0  0  0  0  0  0  0  0  0  0
    9.3800  -18.7791   23.2703 O   0  0  0  0  0  0  0  0  0  0  0  0
    6.3681  -15.2267   20.6395 C   0  0  0  0  0  0  0  0  0  0  0  0
    7.2998  -14.5018   21.5754 C   0  0  2  0  0  0  0  0  0  0  0  0
    7.3654  -13.0422   21.0919 C   0  0  0  0  0  0  0  0  0  0  0  0
    8.6694  -15.0459   21.5699 C   0  0  0  0  0  0  0  0  0  0  0  0
    9.0293  -16.1045   22.5435 C   0  0  2  0  0  0  0  0  0  0  0  0
    7.9902  -17.0044   22.9523 N   0  0  0  0  0  0  0  0  0  0  0  0
    9.7449  -15.5049   23.7011 C   0  0  0  0  0  0  0  0  0  0  0  0
   10.7498  -14.7733   23.4748 O   0  0  0  0  0  0  0  0  0  0  0  0
    6.6442  -11.5242   26.8027 C   0  0  0  0  0  0  0  0  0  0  0  0
    7.5944  -12.0590   28.2386 S   0  0  0  0  0  0  0  0  0  0  0  0
    9.0159  -13.1011   27.7458 C   0  0  0  0  0  0  0  0  0  0  0  0
    8.6447  -13.9195   26.5497 C   0  0  0  0  0  0  0  0  0  0  0  0
    9.7760  -14.7784   26.1258 C   0  0  2  0  0  0  0  0  0  0  0  0
    9.3771  -15.6981   25.0429 N   0  0  0  0  0  0  0  0  0  0  0  0
   10.3265  -15.6301   27.2011 C   0  0  0  0  0  0  0  0  0  0  0  0
   10.7866  -15.1229   28.2878 O   0  0  0  0  0  0  0  0  0  0  0  0
   10.4026  -17.0134   27.1580 O   0  0  0  0  0  0  0  0  0  0  0  0
  2  3  1  0
  2  1  1  0
  3  5  1  0
  3  4  1  1
  5  7  1  0
  5  6  1  6
  7  8  2  0
 10 11  1  6
 10  9  1  0
 12 10  1  0
 13 12  1  1
 14 13  1  0
 14  7  1  0
 15 16  2  0
 15 13  1  0
 18 17  1  0
 19 18  1  0
 19 20  1  0
 21 20  1  1
 21 23  1  0
 21 22  1  0
 22 15  1  0
 23 25  1  0
 24 23  2  0
M  END
$$$$
