ILM.pdb
     RDKit          3D

 25 24  0  0  1  0  0  0  0  0999 V2000
   10.0524  -20.6519   20.4115 C   0  0  0  0  0  0  0  0  0  0  0  0
    8.7774  -19.9425   20.7961 C   0  0  0  0  0  0  0  0  0  0  0  0
    9.0057  -18.6763   21.5311 C   0  0  2  0  0  0  0  0  0  0  0  0
    8.8855  -18.9486   23.0184 C   0  0  0  0  0  0  0  0  0  0  0  0
    8.1854  -17.5005   21.1245 C   0  0  2  0  0  0  0  0  0  0  0  0
    8.2241  -17.1828   19.7124 N   0  0  0  0  0  0  0  0  0  0  0  0
    8.4984  -16.2710   21.8770 C   0  0  0  0  0  0  0  0  0  0  0  0
    9.5205  -15.5637   21.6155 O   0  0  0  0  0  0  0  0  0  0  0  0
    6.1743  -12.7524   26.5912 C   0  0  0  0  0  0  0  0  0  0  0  0
    7.3189  -13.1081   25.6786 C   0  0  2  0  0  0  0  0  0  0  0  0
    7.6984  -11.8223   24.9229 C   0  0  0  0  0  0  0  0  0  0  0  0
    6.9707  -14.1365   24.6823 C   0  0  0  0  0  0  0  0  0  0  0  0
    8.0313  -14.6690   23.7937 C   0  0  2  0  0  0  0  0  0  0  0  0
    7.6893  -15.7776   22.9508 N   0  0  0  0  0  0  0  0  0  0  0  0
    9.2706  -14.9167   24.5776 C   0  0  0  0  0  0  0  0  0  0  0  0
    9.9723  -13.9249   24.9244 O   0  0  0  0  0  0  0  0  0  0  0  0
   11.2851  -13.2112   29.1154 C   0  0  0  0  0  0  0  0  0  0  0  0
   10.5468  -14.7417   29.7183 S   0  0  0  0  0  0  0  0  0  0  0  0
   10.8425  -16.1257   28.5579 C   0  0  0  0  0  0  0  0  0  0  0  0
    9.9128  -16.0075   27.3916 C   0  0  0  0  0  0  0  0  0  0  0  0
   10.5861  -16.4163   26.1360 C   0  0  2  0  0  0  0  0  0  0  0  0
    9.7199  -16.1905   24.9628 N   0  0  0  0  0  0  0  0  0  0  0  0
   10.9694  -17.8431   26.0905 C   0  0  0  0  0  0  0  0  0  0  0  0
   11.7888  -18.3438   26.9434 O   0  0  0  0  0  0  0  0  0  0  0  0
   10.5048  -18.7609   25.1615 O   0  0  0  0  0  0  0  0  0  0  0  0
  2  3  1  0
  2  1  1  0
  3  5  1  0
  3  4  1  1
  5  7  1  0
  5  6  1  6
  7  8  2  0
 10 11  1  6
 10  9  1  0
 12 10  1  0
 13 12  1  1
 14 13  1  0
 14  7  1  0
 15 16  2  0
 15 13  1  0
 18 17  1  0
 19 18  1  0
 19 20  1  0
 21 20  1  1
 21 23  1  0
 21 22  1  0
 22 15  1  0
 23 25  1  0
 24 23  2  0
M  END
$$$$
