ILM.pdb
     RDKit          3D

 25 24  0  0  1  0  0  0  0  0999 V2000
    7.5779  -18.7919   17.6958 C   0  0  0  0  0  0  0  0  0  0  0  0
    7.7613  -19.0574   19.1698 C   0  0  0  0  0  0  0  0  0  0  0  0
    8.3002  -17.8960   19.9157 C   0  0  2  0  0  0  0  0  0  0  0  0
    9.6278  -17.4964   19.3007 C   0  0  0  0  0  0  0  0  0  0  0  0
    8.4044  -18.0318   21.3960 C   0  0  2  0  0  0  0  0  0  0  0  0
    7.2919  -18.7065   22.0312 N   0  0  0  0  0  0  0  0  0  0  0  0
    8.6194  -16.7506   22.0948 C   0  0  0  0  0  0  0  0  0  0  0  0
    9.6171  -16.0057   21.8429 O   0  0  0  0  0  0  0  0  0  0  0  0
    5.8674  -13.0978   26.4606 C   0  0  0  0  0  0  0  0  0  0  0  0
    7.0219  -13.3606   25.5292 C   0  0  2  0  0  0  0  0  0  0  0  0
    7.1520  -12.1219   24.6252 C   0  0  0  0  0  0  0  0  0  0  0  0
    6.8161  -14.5362   24.6647 C   0  0  0  0  0  0  0  0  0  0  0  0
    7.9480  -15.0405   23.8507 C   0  0  2  0  0  0  0  0  0  0  0  0
    7.7357  -16.2450   23.1019 N   0  0  0  0  0  0  0  0  0  0  0  0
    9.1803  -15.1012   24.6808 C   0  0  0  0  0  0  0  0  0  0  0  0
   10.0679  -14.2191   24.5067 O   0  0  0  0  0  0  0  0  0  0  0  0
   10.9548  -14.6277   30.5887 C   0  0  0  0  0  0  0  0  0  0  0  0
   10.6901  -13.4673   29.2343 S   0  0  0  0  0  0  0  0  0  0  0  0
   10.1496  -14.3308   27.7138 C   0  0  0  0  0  0  0  0  0  0  0  0
   10.7325  -15.7085   27.6873 C   0  0  0  0  0  0  0  0  0  0  0  0
   10.7409  -16.2518   26.3083 C   0  0  2  0  0  0  0  0  0  0  0  0
    9.4286  -16.0822   25.6550 N   0  0  0  0  0  0  0  0  0  0  0  0
   11.0527  -17.6944   26.2271 C   0  0  0  0  0  0  0  0  0  0  0  0
   12.1964  -18.1537   26.5882 O   0  0  0  0  0  0  0  0  0  0  0  0
   10.1804  -18.6709   25.7723 O   0  0  0  0  0  0  0  0  0  0  0  0
  2  3  1  0
  2  1  1  0
  3  5  1  0
  3  4  1  6
  5  7  1  0
  5  6  1  1
  7  8  2  0
 10 11  1  6
 10  9  1  0
 12 10  1  0
 13 12  1  1
 14 13  1  0
 14  7  1  0
 15 16  2  0
 15 13  1  0
 18 17  1  0
 19 18  1  0
 19 20  1  0
 21 20  1  1
 21 23  1  0
 21 22  1  0
 22 15  1  0
 23 25  1  0
 24 23  2  0
M  END
$$$$
