ILM.pdb
     RDKit          3D

 25 24  0  0  1  0  0  0  0  0999 V2000
    9.0228  -18.4161   17.4813 C   0  0  0  0  0  0  0  0  0  0  0  0
    8.6904  -18.7078   18.9239 C   0  0  0  0  0  0  0  0  0  0  0  0
    9.2904  -17.7421   19.8743 C   0  0  2  0  0  0  0  0  0  0  0  0
   10.7972  -17.7622   19.7020 C   0  0  0  0  0  0  0  0  0  0  0  0
    8.9040  -17.8741   21.3075 C   0  0  2  0  0  0  0  0  0  0  0  0
    7.5819  -18.4166   21.5402 N   0  0  0  0  0  0  0  0  0  0  0  0
    9.0220  -16.6176   22.0711 C   0  0  0  0  0  0  0  0  0  0  0  0
   10.0873  -15.9258   22.0682 O   0  0  0  0  0  0  0  0  0  0  0  0
    5.7362  -13.2120   26.2526 C   0  0  0  0  0  0  0  0  0  0  0  0
    6.9401  -13.3418   25.3564 C   0  0  2  0  0  0  0  0  0  0  0  0
    7.0135  -12.0493   24.5241 C   0  0  0  0  0  0  0  0  0  0  0  0
    6.8516  -14.4798   24.4242 C   0  0  0  0  0  0  0  0  0  0  0  0
    8.0667  -14.9079   23.6906 C   0  0  2  0  0  0  0  0  0  0  0  0
    7.9620  -16.0789   22.8693 N   0  0  0  0  0  0  0  0  0  0  0  0
    9.2235  -14.9734   24.6228 C   0  0  0  0  0  0  0  0  0  0  0  0
    9.7545  -13.8911   25.0009 O   0  0  0  0  0  0  0  0  0  0  0  0
   11.0906  -12.7869   28.7426 C   0  0  0  0  0  0  0  0  0  0  0  0
   10.6107  -14.2429   29.6915 S   0  0  0  0  0  0  0  0  0  0  0  0
   10.8258  -15.7752   28.7141 C   0  0  0  0  0  0  0  0  0  0  0  0
    9.9306  -15.7338   27.5161 C   0  0  0  0  0  0  0  0  0  0  0  0
   10.6404  -16.2208   26.3094 C   0  0  2  0  0  0  0  0  0  0  0  0
    9.7729  -16.1681   25.1168 N   0  0  0  0  0  0  0  0  0  0  0  0
   11.1138  -17.6176   26.4070 C   0  0  0  0  0  0  0  0  0  0  0  0
   11.9113  -17.9906   27.3421 O   0  0  0  0  0  0  0  0  0  0  0  0
   10.7626  -18.6377   25.5367 O   0  0  0  0  0  0  0  0  0  0  0  0
  2  3  1  0
  2  1  1  0
  3  5  1  0
  3  4  1  1
  5  7  1  0
  5  6  1  6
  7  8  2  0
 10 11  1  6
 10  9  1  0
 12 10  1  0
 13 12  1  1
 14 13  1  0
 14  7  1  0
 15 16  2  0
 15 13  1  0
 18 17  1  0
 19 18  1  0
 19 20  1  0
 21 20  1  1
 21 23  1  0
 21 22  1  0
 22 15  1  0
 23 25  1  0
 24 23  2  0
M  END
$$$$
