ILM.pdb
     RDKit          3D

 25 24  0  0  1  0  0  0  0  0999 V2000
    6.2026  -21.8592   25.1777 C   0  0  0  0  0  0  0  0  0  0  0  0
    5.6950  -20.7349   24.3086 C   0  0  0  0  0  0  0  0  0  0  0  0
    6.6095  -19.5701   24.2575 C   0  0  2  0  0  0  0  0  0  0  0  0
    6.8770  -19.0991   25.6742 C   0  0  0  0  0  0  0  0  0  0  0  0
    6.2145  -18.4381   23.3724 C   0  0  2  0  0  0  0  0  0  0  0  0
    5.8111  -18.8160   22.0342 N   0  0  0  0  0  0  0  0  0  0  0  0
    7.2441  -17.3879   23.2586 C   0  0  0  0  0  0  0  0  0  0  0  0
    8.2331  -17.4977   22.4690 O   0  0  0  0  0  0  0  0  0  0  0  0
    5.4232  -13.5922   25.2647 C   0  0  0  0  0  0  0  0  0  0  0  0
    6.9116  -13.5707   25.4961 C   0  0  2  0  0  0  0  0  0  0  0  0
    7.2477  -12.1901   26.0871 C   0  0  0  0  0  0  0  0  0  0  0  0
    7.6952  -13.7403   24.2596 C   0  0  0  0  0  0  0  0  0  0  0  0
    8.1542  -15.0970   23.8765 C   0  0  2  0  0  0  0  0  0  0  0  0
    7.2175  -16.1736   24.0174 N   0  0  0  0  0  0  0  0  0  0  0  0
    9.4573  -15.3930   24.5291 C   0  0  0  0  0  0  0  0  0  0  0  0
   10.3678  -14.5184   24.4804 O   0  0  0  0  0  0  0  0  0  0  0  0
    9.8121  -13.7278   29.5601 C   0  0  0  0  0  0  0  0  0  0  0  0
   10.8145  -15.1466   30.0430 S   0  0  0  0  0  0  0  0  0  0  0  0
   11.3418  -16.1168   28.5835 C   0  0  0  0  0  0  0  0  0  0  0  0
   10.3588  -15.9228   27.4725 C   0  0  0  0  0  0  0  0  0  0  0  0
   10.7651  -16.6861   26.2686 C   0  0  2  0  0  0  0  0  0  0  0  0
    9.7491  -16.5906   25.2026 N   0  0  0  0  0  0  0  0  0  0  0  0
   10.9704  -18.1302   26.5072 C   0  0  0  0  0  0  0  0  0  0  0  0
   11.8849  -18.5541   27.3032 O   0  0  0  0  0  0  0  0  0  0  0  0
   10.2281  -19.1449   25.9234 O   0  0  0  0  0  0  0  0  0  0  0  0
  2  3  1  0
  2  1  1  0
  3  5  1  0
  3  4  1  1
  5  7  1  0
  5  6  1  6
  7  8  2  0
 10 11  1  6
 10  9  1  0
 12 10  1  0
 13 12  1  1
 14 13  1  0
 14  7  1  0
 15 16  2  0
 15 13  1  0
 18 17  1  0
 19 18  1  0
 19 20  1  0
 21 20  1  1
 21 23  1  0
 21 22  1  0
 22 15  1  0
 23 25  1  0
 24 23  2  0
M  END
$$$$
