ILM.pdb
     RDKit          3D

 25 24  0  0  1  0  0  0  0  0999 V2000
    4.9480  -20.2420   19.5444 C   0  0  0  0  0  0  0  0  0  0  0  0
    5.6182  -20.1176   20.8906 C   0  0  0  0  0  0  0  0  0  0  0  0
    6.1706  -18.7677   21.1518 C   0  0  2  0  0  0  0  0  0  0  0  0
    7.0771  -18.3815   19.9987 C   0  0  0  0  0  0  0  0  0  0  0  0
    6.8394  -18.5529   22.4662 C   0  0  2  0  0  0  0  0  0  0  0  0
    6.0759  -18.9773   23.6209 N   0  0  0  0  0  0  0  0  0  0  0  0
    7.2699  -17.1601   22.6912 C   0  0  0  0  0  0  0  0  0  0  0  0
    8.1174  -16.5876   21.9380 O   0  0  0  0  0  0  0  0  0  0  0  0
    6.3088  -12.3987   26.7390 C   0  0  0  0  0  0  0  0  0  0  0  0
    7.1025  -12.9999   25.6084 C   0  0  2  0  0  0  0  0  0  0  0  0
    7.0816  -11.9761   24.4596 C   0  0  0  0  0  0  0  0  0  0  0  0
    6.5329  -14.2622   25.1046 C   0  0  0  0  0  0  0  0  0  0  0  0
    7.3133  -15.0710   24.1378 C   0  0  2  0  0  0  0  0  0  0  0  0
    6.7771  -16.3470   23.7623 N   0  0  0  0  0  0  0  0  0  0  0  0
    8.7297  -15.1621   24.5817 C   0  0  0  0  0  0  0  0  0  0  0  0
    9.4772  -14.1563   24.4209 O   0  0  0  0  0  0  0  0  0  0  0  0
   10.3438  -13.1338   29.3629 C   0  0  0  0  0  0  0  0  0  0  0  0
   11.1662  -14.7001   29.7113 S   0  0  0  0  0  0  0  0  0  0  0  0
   11.4820  -15.6425   28.1745 C   0  0  0  0  0  0  0  0  0  0  0  0
   10.2493  -15.6437   27.3267 C   0  0  0  0  0  0  0  0  0  0  0  0
   10.5202  -16.2509   26.0019 C   0  0  2  0  0  0  0  0  0  0  0  0
    9.3001  -16.3013   25.1734 N   0  0  0  0  0  0  0  0  0  0  0  0
   11.0283  -17.6375   26.0631 C   0  0  0  0  0  0  0  0  0  0  0  0
   10.2847  -18.6375   25.7520 O   0  0  0  0  0  0  0  0  0  0  0  0
   12.3111  -17.9970   26.4458 O   0  0  0  0  0  0  0  0  0  0  0  0
  2  3  1  0
  2  1  1  0
  3  5  1  0
  3  4  1  6
  5  7  1  0
  5  6  1  1
  7  8  2  0
 10 11  1  6
 10  9  1  0
 12 10  1  0
 13 12  1  1
 14 13  1  0
 14  7  1  0
 15 16  2  0
 15 13  1  0
 18 17  1  0
 19 18  1  0
 19 20  1  0
 21 20  1  1
 21 23  1  0
 21 22  1  0
 22 15  1  0
 23 25  1  0
 24 23  2  0
M  END
$$$$
