ILM.pdb
     RDKit          3D

 25 24  0  0  1  0  0  0  0  0999 V2000
    6.7559  -18.7355   17.9986 C   0  0  0  0  0  0  0  0  0  0  0  0
    7.0777  -18.9744   19.4534 C   0  0  0  0  0  0  0  0  0  0  0  0
    7.6360  -17.7842   20.1370 C   0  0  2  0  0  0  0  0  0  0  0  0
    8.8707  -17.3255   19.3847 C   0  0  0  0  0  0  0  0  0  0  0  0
    7.9021  -17.9058   21.5982 C   0  0  2  0  0  0  0  0  0  0  0  0
    6.8048  -18.4346   22.3809 N   0  0  0  0  0  0  0  0  0  0  0  0
    8.3451  -16.6469   22.2265 C   0  0  0  0  0  0  0  0  0  0  0  0
    9.3935  -16.0380   21.8476 O   0  0  0  0  0  0  0  0  0  0  0  0
    8.6788  -12.9829   26.3452 C   0  0  0  0  0  0  0  0  0  0  0  0
    7.4405  -12.8704   25.4946 C   0  0  2  0  0  0  0  0  0  0  0  0
    6.2913  -12.4701   26.4367 C   0  0  0  0  0  0  0  0  0  0  0  0
    7.0703  -14.1356   24.8358 C   0  0  0  0  0  0  0  0  0  0  0  0
    8.0560  -14.8056   23.9541 C   0  0  2  0  0  0  0  0  0  0  0  0
    7.6420  -16.0136   23.3016 N   0  0  0  0  0  0  0  0  0  0  0  0
    9.3492  -14.9654   24.6708 C   0  0  0  0  0  0  0  0  0  0  0  0
   10.0085  -13.9279   24.9625 O   0  0  0  0  0  0  0  0  0  0  0  0
   10.4160  -13.4376   29.3506 C   0  0  0  0  0  0  0  0  0  0  0  0
   10.5819  -15.2103   29.6350 S   0  0  0  0  0  0  0  0  0  0  0  0
   10.3877  -16.1551   28.0796 C   0  0  0  0  0  0  0  0  0  0  0  0
   11.1947  -15.5089   26.9982 C   0  0  0  0  0  0  0  0  0  0  0  0
   11.1788  -16.3307   25.7647 C   0  0  2  0  0  0  0  0  0  0  0  0
    9.8943  -16.2034   25.0497 N   0  0  0  0  0  0  0  0  0  0  0  0
   11.3734  -17.7773   25.9976 C   0  0  0  0  0  0  0  0  0  0  0  0
   12.4566  -18.2322   26.5167 O   0  0  0  0  0  0  0  0  0  0  0  0
   10.4460  -18.7621   25.6953 O   0  0  0  0  0  0  0  0  0  0  0  0
  2  3  1  0
  2  1  1  0
  3  5  1  0
  3  4  1  6
  5  7  1  0
  5  6  1  1
  7  8  2  0
 10 11  1  1
 10  9  1  0
 12 10  1  0
 13 12  1  1
 14 13  1  0
 14  7  1  0
 15 16  2  0
 15 13  1  0
 18 17  1  0
 19 18  1  0
 19 20  1  0
 21 20  1  1
 21 23  1  0
 21 22  1  0
 22 15  1  0
 23 25  1  0
 24 23  2  0
M  END
$$$$
