ILM.pdb
     RDKit          3D

 25 24  0  0  1  0  0  0  0  0999 V2000
    6.1674  -18.4854   17.8379 C   0  0  0  0  0  0  0  0  0  0  0  0
    6.5680  -18.8573   19.2444 C   0  0  0  0  0  0  0  0  0  0  0  0
    7.3171  -17.7887   19.9462 C   0  0  2  0  0  0  0  0  0  0  0  0
    8.4104  -17.2772   19.0277 C   0  0  0  0  0  0  0  0  0  0  0  0
    7.8499  -18.1128   21.2997 C   0  0  2  0  0  0  0  0  0  0  0  0
    6.8868  -18.6808   22.2196 N   0  0  0  0  0  0  0  0  0  0  0  0
    8.5011  -16.9711   21.9690 C   0  0  0  0  0  0  0  0  0  0  0  0
    9.5644  -16.4430   21.5171 O   0  0  0  0  0  0  0  0  0  0  0  0
    7.0184  -12.5117   23.9144 C   0  0  0  0  0  0  0  0  0  0  0  0
    6.6583  -13.8005   24.6064 C   0  0  2  0  0  0  0  0  0  0  0  0
    5.9559  -13.4158   25.9207 C   0  0  0  0  0  0  0  0  0  0  0  0
    7.8307  -14.6282   24.9415 C   0  0  0  0  0  0  0  0  0  0  0  0
    8.6040  -15.2610   23.8463 C   0  0  2  0  0  0  0  0  0  0  0  0
    7.9985  -16.3699   23.1678 N   0  0  0  0  0  0  0  0  0  0  0  0
    9.9823  -15.5685   24.3124 C   0  0  0  0  0  0  0  0  0  0  0  0
   10.8828  -14.6981   24.1458 O   0  0  0  0  0  0  0  0  0  0  0  0
   10.1701  -13.3224   28.7506 C   0  0  0  0  0  0  0  0  0  0  0  0
   10.8252  -14.7430   29.6470 S   0  0  0  0  0  0  0  0  0  0  0  0
   11.3416  -16.0731   28.5009 C   0  0  0  0  0  0  0  0  0  0  0  0
   10.5580  -15.9704   27.2305 C   0  0  0  0  0  0  0  0  0  0  0  0
   11.1506  -16.8247   26.1740 C   0  0  2  0  0  0  0  0  0  0  0  0
   10.3563  -16.7727   24.9314 N   0  0  0  0  0  0  0  0  0  0  0  0
   11.2489  -18.2546   26.5349 C   0  0  0  0  0  0  0  0  0  0  0  0
   11.9818  -18.6496   27.5129 O   0  0  0  0  0  0  0  0  0  0  0  0
   10.5869  -19.2848   25.8854 O   0  0  0  0  0  0  0  0  0  0  0  0
  2  3  1  0
  2  1  1  0
  3  5  1  0
  3  4  1  6
  5  7  1  0
  5  6  1  1
  7  8  2  0
 10 11  1  1
 10  9  1  0
 12 10  1  0
 13 12  1  1
 14 13  1  0
 14  7  1  0
 15 16  2  0
 15 13  1  0
 18 17  1  0
 19 18  1  0
 19 20  1  0
 21 20  1  1
 21 23  1  0
 21 22  1  0
 22 15  1  0
 23 25  1  0
 24 23  2  0
M  END
$$$$
