ILM.pdb
     RDKit          3D

 25 24  0  0  1  0  0  0  0  0999 V2000
    9.4307  -20.4216   19.3852 C   0  0  0  0  0  0  0  0  0  0  0  0
    8.9358  -18.9998   19.2833 C   0  0  0  0  0  0  0  0  0  0  0  0
    9.1579  -18.2083   20.5162 C   0  0  2  0  0  0  0  0  0  0  0  0
    8.6076  -18.9837   21.6979 C   0  0  0  0  0  0  0  0  0  0  0  0
    8.6697  -16.8003   20.5134 C   0  0  2  0  0  0  0  0  0  0  0  0
    9.1371  -15.9898   19.4085 N   0  0  0  0  0  0  0  0  0  0  0  0
    8.9537  -16.0724   21.7646 C   0  0  0  0  0  0  0  0  0  0  0  0
   10.1280  -15.7011   22.0756 O   0  0  0  0  0  0  0  0  0  0  0  0
    5.9601  -12.9369   26.3323 C   0  0  0  0  0  0  0  0  0  0  0  0
    7.2397  -13.4735   25.7458 C   0  0  2  0  0  0  0  0  0  0  0  0
    8.0968  -12.2538   25.3631 C   0  0  0  0  0  0  0  0  0  0  0  0
    7.0292  -14.2817   24.5316 C   0  0  0  0  0  0  0  0  0  0  0  0
    8.1797  -15.0025   23.9360 C   0  0  2  0  0  0  0  0  0  0  0  0
    7.9452  -15.7280   22.7214 N   0  0  0  0  0  0  0  0  0  0  0  0
    8.8456  -15.8360   24.9720 C   0  0  0  0  0  0  0  0  0  0  0  0
    8.3553  -16.9692   25.2402 O   0  0  0  0  0  0  0  0  0  0  0  0
   10.7621  -14.4260   30.7542 C   0  0  0  0  0  0  0  0  0  0  0  0
   11.1100  -13.2890   29.3989 S   0  0  0  0  0  0  0  0  0  0  0  0
   11.1104  -14.1551   27.7867 C   0  0  0  0  0  0  0  0  0  0  0  0
   10.7679  -15.5967   27.9936 C   0  0  0  0  0  0  0  0  0  0  0  0
   10.6405  -16.3008   26.6955 C   0  0  2  0  0  0  0  0  0  0  0  0
    9.9939  -15.4463   25.6809 N   0  0  0  0  0  0  0  0  0  0  0  0
    9.8382  -17.5408   26.7546 C   0  0  0  0  0  0  0  0  0  0  0  0
    8.5737  -17.5315   26.5300 O   0  0  0  0  0  0  0  0  0  0  0  0
   10.3415  -18.7991   27.0455 O   0  0  0  0  0  0  0  0  0  0  0  0
  2  3  1  0
  2  1  1  0
  3  5  1  0
  3  4  1  1
  5  7  1  0
  5  6  1  6
  7  8  2  0
 10 11  1  6
 10  9  1  0
 12 10  1  0
 13 12  1  1
 14 13  1  0
 14  7  1  0
 15 16  2  0
 15 13  1  0
 18 17  1  0
 19 18  1  0
 19 20  1  0
 21 20  1  1
 21 23  1  0
 21 22  1  0
 22 15  1  0
 23 25  1  0
 24 23  2  0
M  END
$$$$
