ILM.pdb
     RDKit          3D

 25 24  0  0  1  0  0  0  0  0999 V2000
    2.9328  -17.9977   20.8328 C   0  0  0  0  0  0  0  0  0  0  0  0
    3.9142  -17.7998   21.9618 C   0  0  0  0  0  0  0  0  0  0  0  0
    5.0102  -18.7970   21.9719 C   0  0  2  0  0  0  0  0  0  0  0  0
    4.4049  -20.1842   22.0700 C   0  0  0  0  0  0  0  0  0  0  0  0
    6.0926  -18.6024   22.9775 C   0  0  2  0  0  0  0  0  0  0  0  0
    5.6563  -18.6025   24.3581 N   0  0  0  0  0  0  0  0  0  0  0  0
    6.8974  -17.3866   22.7540 C   0  0  0  0  0  0  0  0  0  0  0  0
    7.6313  -17.2446   21.7269 O   0  0  0  0  0  0  0  0  0  0  0  0
    6.0781  -13.6741   26.0648 C   0  0  0  0  0  0  0  0  0  0  0  0
    7.2979  -13.3177   25.2557 C   0  0  2  0  0  0  0  0  0  0  0  0
    7.3617  -11.7809   25.2048 C   0  0  0  0  0  0  0  0  0  0  0  0
    7.2438  -13.8179   23.8706 C   0  0  0  0  0  0  0  0  0  0  0  0
    7.8053  -15.1553   23.5638 C   0  0  2  0  0  0  0  0  0  0  0  0
    6.9205  -16.2796   23.6623 N   0  0  0  0  0  0  0  0  0  0  0  0
    9.0665  -15.3609   24.3243 C   0  0  0  0  0  0  0  0  0  0  0  0
   10.0198  -14.5524   24.1400 O   0  0  0  0  0  0  0  0  0  0  0  0
   10.2787  -13.5243   28.8140 C   0  0  0  0  0  0  0  0  0  0  0  0
   11.3646  -14.8143   29.4523 S   0  0  0  0  0  0  0  0  0  0  0  0
   11.2248  -16.3501   28.4668 C   0  0  0  0  0  0  0  0  0  0  0  0
   10.0398  -16.2550   27.5584 C   0  0  0  0  0  0  0  0  0  0  0  0
   10.4398  -16.4587   26.1457 C   0  0  2  0  0  0  0  0  0  0  0  0
    9.2738  -16.4032   25.2430 N   0  0  0  0  0  0  0  0  0  0  0  0
   11.0968  -17.7563   25.8828 C   0  0  0  0  0  0  0  0  0  0  0  0
   10.5344  -18.6576   25.1610 O   0  0  0  0  0  0  0  0  0  0  0  0
   12.3420  -18.1280   26.3652 O   0  0  0  0  0  0  0  0  0  0  0  0
  2  3  1  0
  2  1  1  0
  3  5  1  0
  3  4  1  1
  5  7  1  0
  5  6  1  1
  7  8  2  0
 10 11  1  6
 10  9  1  0
 12 10  1  0
 13 12  1  1
 14 13  1  0
 14  7  1  0
 15 16  2  0
 15 13  1  0
 18 17  1  0
 19 18  1  0
 19 20  1  0
 21 20  1  1
 21 23  1  0
 21 22  1  0
 22 15  1  0
 23 25  1  0
 24 23  2  0
M  END
$$$$
