ILM.pdb
     RDKit          3D

 25 24  0  0  1  0  0  0  0  0999 V2000
    8.1723  -12.1374   19.1602 C   0  0  0  0  0  0  0  0  0  0  0  0
    7.9099  -13.2683   20.1241 C   0  0  0  0  0  0  0  0  0  0  0  0
    8.5847  -14.5326   19.7476 C   0  0  2  0  0  0  0  0  0  0  0  0
    8.1542  -14.9148   18.3444 C   0  0  0  0  0  0  0  0  0  0  0  0
    8.4491  -15.6788   20.6903 C   0  0  2  0  0  0  0  0  0  0  0  0
    7.1233  -16.2551   20.7706 N   0  0  0  0  0  0  0  0  0  0  0  0
    8.8972  -15.3737   22.0622 C   0  0  0  0  0  0  0  0  0  0  0  0
   10.0922  -15.0273   22.3185 O   0  0  0  0  0  0  0  0  0  0  0  0
    7.8012  -12.1790   25.3485 C   0  0  0  0  0  0  0  0  0  0  0  0
    6.7826  -13.2847   25.2524 C   0  0  2  0  0  0  0  0  0  0  0  0
    5.7500  -13.0331   26.3654 C   0  0  0  0  0  0  0  0  0  0  0  0
    7.3582  -14.6255   25.4592 C   0  0  0  0  0  0  0  0  0  0  0  0
    8.4224  -15.1030   24.5441 C   0  0  2  0  0  0  0  0  0  0  0  0
    8.0367  -15.4415   23.2050 N   0  0  0  0  0  0  0  0  0  0  0  0
    9.2030  -16.1868   25.1980 C   0  0  0  0  0  0  0  0  0  0  0  0
    9.0562  -17.3705   24.7814 O   0  0  0  0  0  0  0  0  0  0  0  0
    9.5129  -13.8420   28.9634 C   0  0  0  0  0  0  0  0  0  0  0  0
   11.0413  -14.5908   29.5583 S   0  0  0  0  0  0  0  0  0  0  0  0
   11.1275  -16.3657   29.1206 C   0  0  0  0  0  0  0  0  0  0  0  0
   11.8829  -16.5285   27.8394 C   0  0  0  0  0  0  0  0  0  0  0  0
   10.9979  -17.0400   26.7660 C   0  0  2  0  0  0  0  0  0  0  0  0
   10.1015  -15.9834   26.2584 N   0  0  0  0  0  0  0  0  0  0  0  0
   10.1197  -18.1531   27.1834 C   0  0  0  0  0  0  0  0  0  0  0  0
    8.8998  -17.9498   27.5304 O   0  0  0  0  0  0  0  0  0  0  0  0
   10.4994  -19.4849   27.2427 O   0  0  0  0  0  0  0  0  0  0  0  0
  2  3  1  0
  2  1  1  0
  3  5  1  0
  3  4  1  6
  5  7  1  0
  5  6  1  1
  7  8  2  0
 10 11  1  1
 10  9  1  0
 12 10  1  0
 13 12  1  1
 14 13  1  0
 14  7  1  0
 15 16  2  0
 15 13  1  0
 18 17  1  0
 19 18  1  0
 19 20  1  0
 21 20  1  1
 21 23  1  0
 21 22  1  0
 22 15  1  0
 23 25  1  0
 24 23  2  0
M  END
$$$$
