ILM.pdb
     RDKit          3D

 25 24  0  0  1  0  0  0  0  0999 V2000
    6.7517  -13.9470   18.3459 C   0  0  0  0  0  0  0  0  0  0  0  0
    7.1014  -14.9487   19.4190 C   0  0  0  0  0  0  0  0  0  0  0  0
    7.8640  -14.3629   20.5464 C   0  0  2  0  0  0  0  0  0  0  0  0
    9.0479  -13.5973   19.9873 C   0  0  0  0  0  0  0  0  0  0  0  0
    8.2803  -15.2905   21.6360 C   0  0  2  0  0  0  0  0  0  0  0  0
    7.2181  -16.1026   22.1913 N   0  0  0  0  0  0  0  0  0  0  0  0
    8.9726  -14.6199   22.7526 C   0  0  0  0  0  0  0  0  0  0  0  0
   10.1703  -14.2086   22.6522 O   0  0  0  0  0  0  0  0  0  0  0  0
    6.7113  -11.1957   24.7247 C   0  0  0  0  0  0  0  0  0  0  0  0
    6.7308  -12.4930   25.4904 C   0  0  2  0  0  0  0  0  0  0  0  0
    5.8153  -12.2995   26.7122 C   0  0  0  0  0  0  0  0  0  0  0  0
    8.0718  -12.8599   25.9791 C   0  0  0  0  0  0  0  0  0  0  0  0
    8.9690  -13.6486   25.1011 C   0  0  2  0  0  0  0  0  0  0  0  0
    8.3632  -14.3794   24.0261 N   0  0  0  0  0  0  0  0  0  0  0  0
    9.8657  -14.4996   25.9277 C   0  0  0  0  0  0  0  0  0  0  0  0
   10.3638  -14.0064   26.9789 O   0  0  0  0  0  0  0  0  0  0  0  0
   11.3722  -15.0762   30.4837 C   0  0  0  0  0  0  0  0  0  0  0  0
   11.1500  -16.8654   30.4831 S   0  0  0  0  0  0  0  0  0  0  0  0
   11.2745  -17.5512   28.7908 C   0  0  0  0  0  0  0  0  0  0  0  0
   10.4028  -16.7616   27.8661 C   0  0  0  0  0  0  0  0  0  0  0  0
   11.0020  -16.6848   26.5125 C   0  0  2  0  0  0  0  0  0  0  0  0
   10.2009  -15.8279   25.6172 N   0  0  0  0  0  0  0  0  0  0  0  0
   11.1219  -17.9892   25.8278 C   0  0  0  0  0  0  0  0  0  0  0  0
   11.8047  -18.9515   26.3351 O   0  0  0  0  0  0  0  0  0  0  0  0
   10.5337  -18.3054   24.6132 O   0  0  0  0  0  0  0  0  0  0  0  0
  2  3  1  0
  2  1  1  0
  3  5  1  0
  3  4  1  6
  5  7  1  0
  5  6  1  1
  7  8  2  0
 10 11  1  1
 10  9  1  0
 12 10  1  0
 13 12  1  1
 14 13  1  0
 14  7  1  0
 15 16  2  0
 15 13  1  0
 18 17  1  0
 19 18  1  0
 19 20  1  0
 21 20  1  1
 21 23  1  0
 21 22  1  0
 22 15  1  0
 23 25  1  0
 24 23  2  0
M  END
$$$$
