CTG.pdb
     RDKit          3D

 18 17  0  0  1  0  0  0  0  0999 V2000
    5.9539  -16.1424   26.6115 N   0  0  0  0  0  0  0  0  0  0  0  0
    6.4028  -15.0885   25.7615 C   0  0  1  0  0  0  0  0  0  0  0  0
    6.9450  -13.9000   26.5261 C   0  0  0  0  0  0  0  0  0  0  0  0
    5.6831  -12.6906   26.9087 S   0  0  0  0  0  0  0  0  0  0  0  0
    7.3813  -15.5878   24.7608 C   0  0  0  0  0  0  0  0  0  0  0  0
    8.1877  -16.5159   25.0297 O   0  0  0  0  0  0  0  0  0  0  0  0
    8.8743  -15.4216   19.9928 C   0  0  0  0  0  0  0  0  0  0  0  0
    7.9494  -15.0886   21.1110 C   0  0  1  0  0  0  0  0  0  0  0  0
    6.6888  -15.6284   20.8620 O   0  0  0  0  0  0  0  0  0  0  0  0
    8.4350  -15.5446   22.4618 C   0  0  2  0  0  0  0  0  0  0  0  0
    7.4630  -15.0466   23.4437 N   0  0  0  0  0  0  0  0  0  0  0  0
    9.7987  -15.0909   22.7779 C   0  0  0  0  0  0  0  0  0  0  0  0
    9.9738  -13.9504   23.2787 O   0  0  0  0  0  0  0  0  0  0  0  0
   10.9736  -15.8702   22.5525 N   0  0  0  0  0  0  0  0  0  0  0  0
   12.2946  -15.4428   22.8941 C   0  0  0  0  0  0  0  0  0  0  0  0
   13.3324  -16.4500   22.5567 C   0  0  0  0  0  0  0  0  0  0  0  0
   14.6876  -16.1914   22.6905 O   0  0  0  0  0  0  0  0  0  0  0  0
   13.0015  -17.5866   22.1323 O   0  0  0  0  0  0  0  0  0  0  0  0
  2  1  1  1
  2  3  1  0
  3  4  1  0
  5  6  2  0
  5  2  1  0
  8  7  1  6
  8  9  1  0
  8 10  1  0
 10 11  1  1
 11  5  1  0
 12 10  1  0
 12 14  1  0
 13 12  2  0
 15 14  1  0
 15 16  1  0
 16 17  1  0
 18 16  2  0
M  END
$$$$
