CTG.pdb
     RDKit          3D

 18 17  0  0  1  0  0  0  0  0999 V2000
   -0.2195  -25.6268   28.9542 N   0  0  0  0  0  0  0  0  0  0  0  0
   -1.1021  -26.5839   28.3714 C   0  0  1  0  0  0  0  0  0  0  0  0
   -0.6229  -28.0102   28.5363 C   0  0  0  0  0  0  0  0  0  0  0  0
    1.1614  -28.1419   28.5523 S   0  0  0  0  0  0  0  0  0  0  0  0
   -2.4887  -26.4109   28.8770 C   0  0  0  0  0  0  0  0  0  0  0  0
   -3.4487  -27.0843   28.4200 O   0  0  0  0  0  0  0  0  0  0  0  0
   -5.4991  -25.3061   32.5085 C   0  0  0  0  0  0  0  0  0  0  0  0
   -4.1954  -25.5762   31.8419 C   0  0  1  0  0  0  0  0  0  0  0  0
   -3.8205  -26.9022   32.0506 O   0  0  0  0  0  0  0  0  0  0  0  0
   -4.1909  -25.2776   30.3656 C   0  0  2  0  0  0  0  0  0  0  0  0
   -2.8106  -25.4759   29.9049 N   0  0  0  0  0  0  0  0  0  0  0  0
   -4.6777  -23.9278   30.0394 C   0  0  0  0  0  0  0  0  0  0  0  0
   -3.8540  -23.0258   29.7391 O   0  0  0  0  0  0  0  0  0  0  0  0
   -6.0553  -23.5526   30.0378 N   0  0  0  0  0  0  0  0  0  0  0  0
   -6.5263  -22.2394   29.7253 C   0  0  0  0  0  0  0  0  0  0  0  0
   -8.0078  -22.1387   29.7407 C   0  0  0  0  0  0  0  0  0  0  0  0
   -8.6686  -20.9208   29.6996 O   0  0  0  0  0  0  0  0  0  0  0  0
   -8.7154  -23.1770   29.7924 O   0  0  0  0  0  0  0  0  0  0  0  0
  2  1  1  1
  2  3  1  0
  3  4  1  0
  5  6  2  0
  5  2  1  0
  8  7  1  6
  8  9  1  0
  8 10  1  0
 10 11  1  1
 11  5  1  0
 12 10  1  0
 12 14  1  0
 13 12  2  0
 15 14  1  0
 15 16  1  0
 16 17  1  0
 18 16  2  0
M  END
$$$$
