CTG.pdb
     RDKit          3D

 18 17  0  0  1  0  0  0  0  0999 V2000
    3.3341  -19.4504   20.6352 N   0  0  0  0  0  0  0  0  0  0  0  0
    3.5877  -18.4597   21.6296 C   0  0  1  0  0  0  0  0  0  0  0  0
    3.2001  -18.9053   23.0232 C   0  0  0  0  0  0  0  0  0  0  0  0
    1.4293  -19.0512   23.2343 S   0  0  0  0  0  0  0  0  0  0  0  0
    4.9987  -17.9966   21.5761 C   0  0  0  0  0  0  0  0  0  0  0  0
    5.9455  -18.7867   21.3247 O   0  0  0  0  0  0  0  0  0  0  0  0
    7.9983  -14.1842   20.7888 C   0  0  0  0  0  0  0  0  0  0  0  0
    6.7020  -14.9140   20.8497 C   0  0  1  0  0  0  0  0  0  0  0  0
    6.2670  -15.2186   19.5611 O   0  0  0  0  0  0  0  0  0  0  0  0
    6.7475  -16.1720   21.6767 C   0  0  2  0  0  0  0  0  0  0  0  0
    5.3602  -16.6360   21.8056 N   0  0  0  0  0  0  0  0  0  0  0  0
    7.3761  -15.9846   22.9939 C   0  0  0  0  0  0  0  0  0  0  0  0
    6.6749  -15.6137   23.9701 O   0  0  0  0  0  0  0  0  0  0  0  0
    8.7632  -16.1983   23.2563 N   0  0  0  0  0  0  0  0  0  0  0  0
    9.3605  -16.0774   24.5497 C   0  0  0  0  0  0  0  0  0  0  0  0
   10.8342  -16.2591   24.5242 C   0  0  0  0  0  0  0  0  0  0  0  0
   11.6121  -16.1700   25.6680 O   0  0  0  0  0  0  0  0  0  0  0  0
   11.4262  -16.5035   23.4420 O   0  0  0  0  0  0  0  0  0  0  0  0
  2  1  1  6
  2  3  1  0
  3  4  1  0
  5  6  2  0
  5  2  1  0
  8  7  1  6
  8  9  1  0
  8 10  1  0
 10 11  1  1
 11  5  1  0
 12 10  1  0
 12 14  1  0
 13 12  2  0
 15 14  1  0
 15 16  1  0
 16 17  1  0
 18 16  2  0
M  END
$$$$
