CTG.pdb
     RDKit          3D

 18 17  0  0  1  0  0  0  0  0999 V2000
    8.2207  -14.7666   14.8063 N   0  0  0  0  0  0  0  0  0  0  0  0
    8.4431  -15.5696   15.9640 C   0  0  1  0  0  0  0  0  0  0  0  0
    9.4248  -16.6966   15.7245 C   0  0  0  0  0  0  0  0  0  0  0  0
   11.1243  -16.1983   15.9792 S   0  0  0  0  0  0  0  0  0  0  0  0
    8.8426  -14.7343   17.1263 C   0  0  0  0  0  0  0  0  0  0  0  0
    8.8070  -13.4771   17.0810 O   0  0  0  0  0  0  0  0  0  0  0  0
    7.3567  -13.3031   18.6972 C   0  0  0  0  0  0  0  0  0  0  0  0
    7.9725  -14.0047   19.8571 C   0  0  1  0  0  0  0  0  0  0  0  0
    7.1557  -15.0583   20.2637 O   0  0  0  0  0  0  0  0  0  0  0  0
    9.3632  -14.5186   19.5920 C   0  0  2  0  0  0  0  0  0  0  0  0
    9.2874  -15.3062   18.3549 N   0  0  0  0  0  0  0  0  0  0  0  0
    9.9159  -15.3121   20.7012 C   0  0  0  0  0  0  0  0  0  0  0  0
    9.8666  -16.5680   20.6519 O   0  0  0  0  0  0  0  0  0  0  0  0
   10.5221  -14.7479   21.8644 N   0  0  0  0  0  0  0  0  0  0  0  0
   11.2772  -15.5000   22.8174 C   0  0  0  0  0  0  0  0  0  0  0  0
   10.4703  -15.9201   23.9912 C   0  0  0  0  0  0  0  0  0  0  0  0
   11.0251  -16.5887   25.0713 O   0  0  0  0  0  0  0  0  0  0  0  0
    9.2377  -15.6749   24.0363 O   0  0  0  0  0  0  0  0  0  0  0  0
  2  1  1  6
  2  3  1  0
  3  4  1  0
  5  6  2  0
  5  2  1  0
  8  7  1  6
  8  9  1  0
  8 10  1  0
 10 11  1  6
 11  5  1  0
 12 10  1  0
 12 14  1  0
 13 12  2  0
 15 14  1  0
 15 16  1  0
 16 17  1  0
 18 16  2  0
M  END
$$$$
