CTG.pdb
     RDKit          3D

 18 17  0  0  1  0  0  0  0  0999 V2000
   11.9625  -65.4233   48.9723 N   0  0  0  0  0  0  0  0  0  0  0  0
   10.8313  -65.6811   49.8021 C   0  0  1  0  0  0  0  0  0  0  0  0
    9.5253  -65.6939   49.0371 C   0  0  0  0  0  0  0  0  0  0  0  0
    9.7620  -65.6235   47.2649 S   0  0  0  0  0  0  0  0  0  0  0  0
   11.0170  -66.9284   50.5881 C   0  0  0  0  0  0  0  0  0  0  0  0
   11.9554  -67.7308   50.3441 O   0  0  0  0  0  0  0  0  0  0  0  0
    8.4817  -66.0956   54.7587 C   0  0  0  0  0  0  0  0  0  0  0  0
    8.8247  -66.9920   53.6205 C   0  0  1  0  0  0  0  0  0  0  0  0
    7.6952  -67.7022   53.2176 O   0  0  0  0  0  0  0  0  0  0  0  0
    9.4184  -66.2754   52.4361 C   0  0  2  0  0  0  0  0  0  0  0  0
   10.1466  -67.2870   51.6596 N   0  0  0  0  0  0  0  0  0  0  0  0
   10.2926  -65.1521   52.8090 C   0  0  0  0  0  0  0  0  0  0  0  0
   11.2468  -64.8304   52.0552 O   0  0  0  0  0  0  0  0  0  0  0  0
   10.1356  -64.3760   53.9971 N   0  0  0  0  0  0  0  0  0  0  0  0
    9.1874  -64.6711   55.0257 C   0  0  0  0  0  0  0  0  0  0  0  0
    9.2667  -63.7294   56.1713 C   0  0  0  0  0  0  0  0  0  0  0  0
    9.4258  -62.3633   55.9984 O   0  0  0  0  0  0  0  0  0  0  0  0
    9.1900  -64.1560   57.3518 O   0  0  0  0  0  0  0  0  0  0  0  0
  2  1  1  6
  2  3  1  0
  3  4  1  0
  5  6  2  0
  5  2  1  0
  8  7  1  1
  8  9  1  0
  8 10  1  0
 10 11  1  1
 11  5  1  0
 12 10  1  0
 12 14  1  0
 13 12  2  0
 15 14  1  0
 15 16  1  0
 16 17  1  0
 18 16  2  0
M  END
$$$$
