CTG.pdb
     RDKit          3D

 18 17  0  0  1  0  0  0  0  0999 V2000
   14.8105  -13.9400   16.8528 N   0  0  0  0  0  0  0  0  0  0  0  0
   14.0107  -15.0127   17.3469 C   0  0  1  0  0  0  0  0  0  0  0  0
   14.8017  -16.2808   17.5863 C   0  0  0  0  0  0  0  0  0  0  0  0
   13.8152  -17.5831   18.3159 S   0  0  0  0  0  0  0  0  0  0  0  0
   13.2547  -14.6027   18.5588 C   0  0  0  0  0  0  0  0  0  0  0  0
   13.7916  -13.9313   19.4780 O   0  0  0  0  0  0  0  0  0  0  0  0
    9.9251  -12.8115   18.8332 C   0  0  0  0  0  0  0  0  0  0  0  0
    9.8396  -14.0759   19.6146 C   0  0  1  0  0  0  0  0  0  0  0  0
    9.1170  -15.0290   18.8991 O   0  0  0  0  0  0  0  0  0  0  0  0
   11.1787  -14.6458   20.0029 C   0  0  2  0  0  0  0  0  0  0  0  0
   11.8833  -14.9448   18.7496 N   0  0  0  0  0  0  0  0  0  0  0  0
   11.0818  -15.8363   20.8623 C   0  0  0  0  0  0  0  0  0  0  0  0
   11.1129  -16.9817   20.3432 O   0  0  0  0  0  0  0  0  0  0  0  0
   10.9511  -15.7891   22.2833 N   0  0  0  0  0  0  0  0  0  0  0  0
   10.8095  -16.9453   23.1123 C   0  0  0  0  0  0  0  0  0  0  0  0
   10.7251  -16.6127   24.5572 C   0  0  0  0  0  0  0  0  0  0  0  0
   10.5133  -17.5780   25.5291 O   0  0  0  0  0  0  0  0  0  0  0  0
   10.8461  -15.4222   24.9439 O   0  0  0  0  0  0  0  0  0  0  0  0
  2  1  1  1
  2  3  1  0
  3  4  1  0
  5  6  2  0
  5  2  1  0
  8  7  1  6
  8  9  1  0
  8 10  1  0
 10 11  1  6
 11  5  1  0
 12 10  1  0
 12 14  1  0
 13 12  2  0
 15 14  1  0
 15 16  1  0
 16 17  1  0
 18 16  2  0
M  END
$$$$
