CTG.pdb
     RDKit          3D

 18 17  0  0  1  0  0  0  0  0999 V2000
    5.1505  -13.4854   26.1522 N   0  0  0  0  0  0  0  0  0  0  0  0
    6.5056  -13.2432   25.7784 C   0  0  1  0  0  0  0  0  0  0  0  0
    7.3716  -12.8038   26.9395 C   0  0  0  0  0  0  0  0  0  0  0  0
    7.0191  -11.1318   27.4703 S   0  0  0  0  0  0  0  0  0  0  0  0
    7.0857  -14.4179   25.0773 C   0  0  0  0  0  0  0  0  0  0  0  0
    6.9506  -15.5874   25.5223 O   0  0  0  0  0  0  0  0  0  0  0  0
    6.8013  -14.7469   21.3308 C   0  0  0  0  0  0  0  0  0  0  0  0
    8.1740  -15.1980   21.6896 C   0  0  1  0  0  0  0  0  0  0  0  0
    9.1108  -14.2617   21.2554 O   0  0  0  0  0  0  0  0  0  0  0  0
    8.3665  -15.4585   23.1605 C   0  0  2  0  0  0  0  0  0  0  0  0
    7.8259  -14.2888   23.8649 N   0  0  0  0  0  0  0  0  0  0  0  0
    9.7679  -15.7095   23.5325 C   0  0  0  0  0  0  0  0  0  0  0  0
   10.4403  -14.7952   24.0747 O   0  0  0  0  0  0  0  0  0  0  0  0
   10.4430  -16.9493   23.3184 N   0  0  0  0  0  0  0  0  0  0  0  0
   11.7708  -17.2256   23.7709 C   0  0  0  0  0  0  0  0  0  0  0  0
   12.8029  -16.9354   22.7434 C   0  0  0  0  0  0  0  0  0  0  0  0
   12.4798  -16.4647   21.4803 O   0  0  0  0  0  0  0  0  0  0  0  0
   14.0216  -17.1130   22.9982 O   0  0  0  0  0  0  0  0  0  0  0  0
  2  1  1  1
  2  3  1  0
  3  4  1  0
  5  6  2  0
  5  2  1  0
  8  7  1  1
  8  9  1  0
  8 10  1  0
 10 11  1  1
 11  5  1  0
 12 10  1  0
 12 14  1  0
 13 12  2  0
 15 14  1  0
 15 16  1  0
 16 17  1  0
 18 16  2  0
M  END
$$$$
