CTG.pdb
     RDKit          3D

 18 17  0  0  1  0  0  0  0  0999 V2000
    0.4144  -21.2314   21.6841 N   0  0  0  0  0  0  0  0  0  0  0  0
    1.0945  -20.1974   22.3932 C   0  0  1  0  0  0  0  0  0  0  0  0
    0.5504  -19.9783   23.7886 C   0  0  0  0  0  0  0  0  0  0  0  0
   -0.8957  -18.9246   23.8086 S   0  0  0  0  0  0  0  0  0  0  0  0
    2.5614  -20.4347   22.4092 C   0  0  0  0  0  0  0  0  0  0  0  0
    3.0433  -21.5926   22.5146 O   0  0  0  0  0  0  0  0  0  0  0  0
    7.0419  -18.9487   21.1437 C   0  0  0  0  0  0  0  0  0  0  0  0
    5.5566  -18.8665   21.2052 C   0  0  1  0  0  0  0  0  0  0  0  0
    5.0048  -19.3362   20.0146 O   0  0  0  0  0  0  0  0  0  0  0  0
    4.9514  -19.6082   22.3681 C   0  0  2  0  0  0  0  0  0  0  0  0
    3.5038  -19.3690   22.3066 N   0  0  0  0  0  0  0  0  0  0  0  0
    5.5073  -19.2088   23.6707 C   0  0  0  0  0  0  0  0  0  0  0  0
    5.1012  -18.1539   24.2226 O   0  0  0  0  0  0  0  0  0  0  0  0
    6.5024  -19.9498   24.3773 N   0  0  0  0  0  0  0  0  0  0  0  0
    7.0366  -19.5638   25.6461 C   0  0  0  0  0  0  0  0  0  0  0  0
    8.0740  -20.5020   26.1451 C   0  0  0  0  0  0  0  0  0  0  0  0
    8.7765  -20.2747   27.3182 O   0  0  0  0  0  0  0  0  0  0  0  0
    8.3472  -21.5482   25.5030 O   0  0  0  0  0  0  0  0  0  0  0  0
  2  1  1  1
  2  3  1  0
  3  4  1  0
  5  6  2  0
  5  2  1  0
  8  7  1  6
  8  9  1  0
  8 10  1  0
 10 11  1  1
 11  5  1  0
 12 10  1  0
 12 14  1  0
 13 12  2  0
 15 14  1  0
 15 16  1  0
 16 17  1  0
 18 16  2  0
M  END
$$$$
