CTG.pdb
     RDKit          3D

 18 17  0  0  1  0  0  0  0  0999 V2000
    7.8518  -14.9278   17.4043 N   0  0  0  0  0  0  0  0  0  0  0  0
    8.5020  -14.4028   18.5603 C   0  0  1  0  0  0  0  0  0  0  0  0
    7.5920  -13.5471   19.4152 C   0  0  0  0  0  0  0  0  0  0  0  0
    8.3997  -12.0688   20.0184 S   0  0  0  0  0  0  0  0  0  0  0  0
    9.1395  -15.4852   19.3540 C   0  0  0  0  0  0  0  0  0  0  0  0
    8.5145  -16.5314   19.6683 O   0  0  0  0  0  0  0  0  0  0  0  0
   12.1782  -17.2887   18.4947 C   0  0  0  0  0  0  0  0  0  0  0  0
   12.3775  -16.8540   19.9046 C   0  0  1  0  0  0  0  0  0  0  0  0
   13.2799  -15.7929   19.9519 O   0  0  0  0  0  0  0  0  0  0  0  0
   11.1046  -16.4647   20.6095 C   0  0  2  0  0  0  0  0  0  0  0  0
   10.4906  -15.4017   19.8035 N   0  0  0  0  0  0  0  0  0  0  0  0
   11.3140  -16.0318   22.0002 C   0  0  0  0  0  0  0  0  0  0  0  0
   11.3634  -14.8038   22.2681 O   0  0  0  0  0  0  0  0  0  0  0  0
   11.4701  -16.9264   23.1020 N   0  0  0  0  0  0  0  0  0  0  0  0
   11.7111  -16.5048   24.4467 C   0  0  0  0  0  0  0  0  0  0  0  0
   11.7776  -17.6384   25.4039 C   0  0  0  0  0  0  0  0  0  0  0  0
   12.1414  -17.4681   26.7305 O   0  0  0  0  0  0  0  0  0  0  0  0
   11.4998  -18.8057   25.0275 O   0  0  0  0  0  0  0  0  0  0  0  0
  2  1  1  6
  2  3  1  0
  3  4  1  0
  5  6  2  0
  5  2  1  0
  8  7  1  6
  8  9  1  0
  8 10  1  0
 10 11  1  6
 11  5  1  0
 12 10  1  0
 12 14  1  0
 13 12  2  0
 15 14  1  0
 15 16  1  0
 16 17  1  0
 18 16  2  0
M  END
$$$$
