CTG.pdb
     RDKit          3D

 18 17  0  0  1  0  0  0  0  0999 V2000
    7.8633  -14.6589   16.4805 N   0  0  0  0  0  0  0  0  0  0  0  0
    8.7653  -14.3822   17.5503 C   0  0  1  0  0  0  0  0  0  0  0  0
    8.9092  -12.9030   17.8372 C   0  0  0  0  0  0  0  0  0  0  0  0
    7.3972  -12.1679   18.4497 S   0  0  0  0  0  0  0  0  0  0  0  0
    8.3960  -15.1429   18.7722 C   0  0  0  0  0  0  0  0  0  0  0  0
    7.3136  -15.7798   18.8534 O   0  0  0  0  0  0  0  0  0  0  0  0
    9.7171  -18.0408   20.0315 C   0  0  0  0  0  0  0  0  0  0  0  0
    8.5652  -17.3511   20.6749 C   0  0  1  0  0  0  0  0  0  0  0  0
    8.1086  -18.0988   21.7590 O   0  0  0  0  0  0  0  0  0  0  0  0
    8.8679  -15.9456   21.1239 C   0  0  2  0  0  0  0  0  0  0  0  0
    9.2430  -15.1951   19.9187 N   0  0  0  0  0  0  0  0  0  0  0  0
    9.9188  -15.8725   22.1514 C   0  0  0  0  0  0  0  0  0  0  0  0
   11.1274  -15.9460   21.8106 O   0  0  0  0  0  0  0  0  0  0  0  0
    9.6634  -15.7198   23.5478 N   0  0  0  0  0  0  0  0  0  0  0  0
   10.6821  -15.5126   24.5293 C   0  0  0  0  0  0  0  0  0  0  0  0
   11.4466  -16.7479   24.8375 C   0  0  0  0  0  0  0  0  0  0  0  0
   10.8286  -17.9737   25.0293 O   0  0  0  0  0  0  0  0  0  0  0  0
   12.6999  -16.7127   24.9344 O   0  0  0  0  0  0  0  0  0  0  0  0
  2  1  1  6
  2  3  1  0
  3  4  1  0
  5  6  2  0
  5  2  1  0
  8  7  1  1
  8  9  1  0
  8 10  1  0
 10 11  1  6
 11  5  1  0
 12 10  1  0
 12 14  1  0
 13 12  2  0
 15 14  1  0
 15 16  1  0
 16 17  1  0
 18 16  2  0
M  END
$$$$
