CTG.pdb
     RDKit          3D

 18 17  0  0  1  0  0  0  0  0999 V2000
    8.4720  -14.4657   17.2943 N   0  0  0  0  0  0  0  0  0  0  0  0
    9.3091  -13.8465   18.2692 C   0  0  1  0  0  0  0  0  0  0  0  0
    8.5311  -13.2148   19.4037 C   0  0  0  0  0  0  0  0  0  0  0  0
    7.4000  -11.9466   18.8436 S   0  0  0  0  0  0  0  0  0  0  0  0
   10.3369  -14.7945   18.7721 C   0  0  0  0  0  0  0  0  0  0  0  0
   10.0441  -15.9721   19.1060 O   0  0  0  0  0  0  0  0  0  0  0  0
   12.9108  -16.2619   17.0667 C   0  0  0  0  0  0  0  0  0  0  0  0
   13.6201  -15.6861   18.2423 C   0  0  1  0  0  0  0  0  0  0  0  0
   14.3131  -14.5376   17.8637 O   0  0  0  0  0  0  0  0  0  0  0  0
   12.7172  -15.3693   19.4055 C   0  0  2  0  0  0  0  0  0  0  0  0
   11.7085  -14.4266   18.9050 N   0  0  0  0  0  0  0  0  0  0  0  0
   13.4319  -14.8235   20.5702 C   0  0  0  0  0  0  0  0  0  0  0  0
   13.5487  -13.5778   20.6999 O   0  0  0  0  0  0  0  0  0  0  0  0
   14.0207  -15.6243   21.5952 N   0  0  0  0  0  0  0  0  0  0  0  0
   14.6041  -15.0945   22.7882 C   0  0  0  0  0  0  0  0  0  0  0  0
   15.2638  -16.1338   23.6188 C   0  0  0  0  0  0  0  0  0  0  0  0
   15.9366  -15.8286   24.7917 O   0  0  0  0  0  0  0  0  0  0  0  0
   15.2283  -17.3421   23.2723 O   0  0  0  0  0  0  0  0  0  0  0  0
  2  1  1  6
  2  3  1  0
  3  4  1  0
  5  6  2  0
  5  2  1  0
  8  7  1  6
  8  9  1  0
  8 10  1  0
 10 11  1  6
 11  5  1  0
 12 10  1  0
 12 14  1  0
 13 12  2  0
 15 14  1  0
 15 16  1  0
 16 17  1  0
 18 16  2  0
M  END
$$$$
