CTG.pdb
     RDKit          3D

 18 17  0  0  1  0  0  0  0  0999 V2000
    7.8655  -15.6815   27.5817 N   0  0  0  0  0  0  0  0  0  0  0  0
    7.8871  -14.8407   26.4296 C   0  0  1  0  0  0  0  0  0  0  0  0
    8.8742  -13.6992   26.5470 C   0  0  0  0  0  0  0  0  0  0  0  0
    8.2062  -12.2968   27.4349 S   0  0  0  0  0  0  0  0  0  0  0  0
    8.1117  -15.6331   25.1928 C   0  0  0  0  0  0  0  0  0  0  0  0
    8.4892  -16.8329   25.2349 O   0  0  0  0  0  0  0  0  0  0  0  0
    7.7484  -13.7849   21.3206 C   0  0  0  0  0  0  0  0  0  0  0  0
    7.4092  -15.2135   21.5666 C   0  0  1  0  0  0  0  0  0  0  0  0
    7.5713  -15.9493   20.3940 O   0  0  0  0  0  0  0  0  0  0  0  0
    8.2076  -15.8488   22.6745 C   0  0  2  0  0  0  0  0  0  0  0  0
    7.9136  -15.0823   23.8921 N   0  0  0  0  0  0  0  0  0  0  0  0
    9.6533  -15.8934   22.4035 C   0  0  0  0  0  0  0  0  0  0  0  0
   10.3577  -14.8738   22.6190 O   0  0  0  0  0  0  0  0  0  0  0  0
   10.3380  -17.0405   21.8995 N   0  0  0  0  0  0  0  0  0  0  0  0
   11.7537  -17.1085   21.7118 C   0  0  0  0  0  0  0  0  0  0  0  0
   12.1387  -17.3110   20.2918 C   0  0  0  0  0  0  0  0  0  0  0  0
   13.3801  -17.8055   19.9236 O   0  0  0  0  0  0  0  0  0  0  0  0
   11.3316  -17.0332   19.3683 O   0  0  0  0  0  0  0  0  0  0  0  0
  2  1  1  1
  2  3  1  0
  3  4  1  0
  5  6  2  0
  5  2  1  0
  8  7  1  6
  8  9  1  0
  8 10  1  0
 10 11  1  1
 11  5  1  0
 12 10  1  0
 12 14  1  0
 13 12  2  0
 15 14  1  0
 15 16  1  0
 16 17  1  0
 18 16  2  0
M  END
$$$$
