CTG.pdb
     RDKit          3D

 18 17  0  0  1  0  0  0  0  0999 V2000
    8.2565  -14.1623   15.8483 N   0  0  0  0  0  0  0  0  0  0  0  0
    8.2242  -15.1642   16.8631 C   0  0  1  0  0  0  0  0  0  0  0  0
    8.8332  -16.4772   16.4199 C   0  0  0  0  0  0  0  0  0  0  0  0
    7.6547  -17.5419   15.5958 S   0  0  0  0  0  0  0  0  0  0  0  0
    8.8424  -14.6717   18.1215 C   0  0  0  0  0  0  0  0  0  0  0  0
    9.8263  -13.8870   18.1125 O   0  0  0  0  0  0  0  0  0  0  0  0
    7.2548  -12.6661   20.6218 C   0  0  0  0  0  0  0  0  0  0  0  0
    7.8286  -13.8176   21.3711 C   0  0  1  0  0  0  0  0  0  0  0  0
    6.8224  -14.7297   21.6844 O   0  0  0  0  0  0  0  0  0  0  0  0
    8.9420  -14.5254   20.6445 C   0  0  2  0  0  0  0  0  0  0  0  0
    8.3588  -15.0580   19.4065 N   0  0  0  0  0  0  0  0  0  0  0  0
    9.5779  -15.5879   21.4396 C   0  0  0  0  0  0  0  0  0  0  0  0
    9.3389  -16.7931   21.1703 O   0  0  0  0  0  0  0  0  0  0  0  0
   10.4724  -15.3477   22.5262 N   0  0  0  0  0  0  0  0  0  0  0  0
   11.0944  -16.3813   23.2936 C   0  0  0  0  0  0  0  0  0  0  0  0
   12.5775  -16.3311   23.2346 C   0  0  0  0  0  0  0  0  0  0  0  0
   13.3786  -16.9689   24.1688 O   0  0  0  0  0  0  0  0  0  0  0  0
   13.1563  -15.6956   22.3167 O   0  0  0  0  0  0  0  0  0  0  0  0
  2  1  1  6
  2  3  1  0
  3  4  1  0
  5  6  2  0
  5  2  1  0
  8  7  1  6
  8  9  1  0
  8 10  1  0
 10 11  1  6
 11  5  1  0
 12 10  1  0
 12 14  1  0
 13 12  2  0
 15 14  1  0
 15 16  1  0
 16 17  1  0
 18 16  2  0
M  END
$$$$
