AHC.pdb
     RDKit          3D

 22 22  0  0  1  0  0  0  0  0999 V2000
    8.1744  -12.2137   19.7515 C   0  0  0  0  0  0  0  0  0  0  0  0
    8.6955  -13.0234   18.5792 C   0  0  2  0  0  0  0  0  0  0  0  0
    7.5540  -13.4542   17.8041 N   0  0  0  0  0  0  0  0  0  0  0  0
    9.4890  -14.1807   19.0793 C   0  0  0  0  0  0  0  0  0  0  0  0
    8.9214  -15.2695   19.2355 O   0  0  0  0  0  0  0  0  0  0  0  0
   10.8534  -14.0377   19.3674 N   0  0  0  0  0  0  0  0  0  0  0  0
   11.7089  -15.1232   19.8055 C   0  0  1  0  0  0  0  0  0  0  0  0
   13.0192  -15.0880   19.0984 C   0  0  0  0  0  0  0  0  0  0  0  0
   12.9404  -15.6818   17.7401 C   0  0  0  0  0  0  0  0  0  0  0  0
   13.0892  -14.9811   16.5397 C   0  0  0  0  0  0  0  0  0  0  0  0
   12.9592  -15.8265   15.5112 N   0  0  0  0  0  0  0  0  0  0  0  0
   12.7332  -17.0375   16.0248 C   0  0  0  0  0  0  0  0  0  0  0  0
   12.7208  -16.9565   17.3649 N   0  0  0  0  0  0  0  0  0  0  0  0
   11.8664  -15.1209   21.2871 C   0  0  0  0  0  0  0  0  0  0  0  0
   11.8167  -14.0167   21.8859 O   0  0  0  0  0  0  0  0  0  0  0  0
   12.0693  -16.3005   22.0542 N   0  0  0  0  0  0  0  0  0  0  0  0
   11.4731  -16.4186   23.3653 C   0  0  1  0  0  0  0  0  0  0  0  0
    9.9620  -16.3675   23.3053 C   0  0  0  0  0  0  0  0  0  0  0  0
    9.2385  -15.3941   24.6208 S   0  0  0  0  0  0  0  0  0  0  0  0
   11.8424  -17.7284   23.9263 C   0  0  0  0  0  0  0  0  0  0  0  0
   12.0674  -18.6924   23.1738 O   0  0  0  0  0  0  0  0  0  0  0  0
   11.9395  -17.8886   25.2901 O   0  0  0  0  0  0  0  0  0  0  0  0
  2  1  1  1
  2  3  1  0
  2  4  1  0
  4  5  2  0
  6  4  1  0
  6  7  1  0
  7 14  1  0
  7  8  1  6
  9 13  1  0
  9  8  1  0
 10  9  2  0
 11 10  1  0
 11 12  1  0
 12 13  2  0
 14 16  1  0
 14 15  2  0
 16 17  1  0
 17 20  1  0
 17 18  1  6
 19 18  1  0
 20 21  2  0
 20 22  1  0
M  END
$$$$
