AHC.pdb
     RDKit          3D

 22 22  0  0  1  0  0  0  0  0999 V2000
   11.9493  -18.9716   16.8311 C   0  0  0  0  0  0  0  0  0  0  0  0
   11.3536  -17.5848   16.6787 C   0  0  2  0  0  0  0  0  0  0  0  0
   12.0708  -16.9156   15.6170 N   0  0  0  0  0  0  0  0  0  0  0  0
   11.4627  -16.8453   17.9672 C   0  0  0  0  0  0  0  0  0  0  0  0
   12.4783  -16.1716   18.1835 O   0  0  0  0  0  0  0  0  0  0  0  0
   10.4332  -16.9122   18.9164 N   0  0  0  0  0  0  0  0  0  0  0  0
   10.3715  -16.0868   20.1069 C   0  0  1  0  0  0  0  0  0  0  0  0
    8.9622  -15.7451   20.4461 C   0  0  0  0  0  0  0  0  0  0  0  0
    8.4175  -14.6762   19.5717 C   0  0  0  0  0  0  0  0  0  0  0  0
    9.1282  -14.0078   18.5705 C   0  0  0  0  0  0  0  0  0  0  0  0
    8.3308  -13.1095   17.9821 N   0  0  0  0  0  0  0  0  0  0  0  0
    7.1403  -13.1901   18.5801 C   0  0  0  0  0  0  0  0  0  0  0  0
    7.1866  -14.1308   19.5370 N   0  0  0  0  0  0  0  0  0  0  0  0
   11.0869  -16.7287   21.2454 C   0  0  0  0  0  0  0  0  0  0  0  0
   10.9167  -17.9601   21.4326 O   0  0  0  0  0  0  0  0  0  0  0  0
   11.9487  -16.0208   22.1269 N   0  0  0  0  0  0  0  0  0  0  0  0
   12.6289  -16.7255   23.1895 C   0  0  1  0  0  0  0  0  0  0  0  0
   13.7148  -15.8824   23.8215 C   0  0  0  0  0  0  0  0  0  0  0  0
   14.9816  -15.3820   22.6611 S   0  0  0  0  0  0  0  0  0  0  0  0
   11.6485  -17.0338   24.2432 C   0  0  0  0  0  0  0  0  0  0  0  0
   10.4686  -16.6576   24.1320 O   0  0  0  0  0  0  0  0  0  0  0  0
   12.0380  -17.7420   25.3576 O   0  0  0  0  0  0  0  0  0  0  0  0
  2  1  1  1
  2  3  1  0
  2  4  1  0
  4  5  2  0
  6  4  1  0
  6  7  1  0
  7 14  1  0
  7  8  1  1
  9 13  1  0
  9  8  1  0
 10  9  2  0
 11 10  1  0
 11 12  1  0
 12 13  2  0
 14 16  1  0
 14 15  2  0
 16 17  1  0
 17 20  1  0
 17 18  1  1
 19 18  1  0
 20 21  2  0
 20 22  1  0
M  END
$$$$
