AHC.pdb
     RDKit          3D

 22 22  0  0  1  0  0  0  0  0999 V2000
    7.4572  -12.8903   19.1704 C   0  0  0  0  0  0  0  0  0  0  0  0
    8.5256  -13.2810   20.1741 C   0  0  2  0  0  0  0  0  0  0  0  0
    9.3889  -14.2503   19.5380 N   0  0  0  0  0  0  0  0  0  0  0  0
    7.8863  -13.8349   21.4002 C   0  0  0  0  0  0  0  0  0  0  0  0
    7.0327  -13.1563   21.9859 O   0  0  0  0  0  0  0  0  0  0  0  0
    8.2459  -15.1018   21.8809 N   0  0  0  0  0  0  0  0  0  0  0  0
    7.7416  -15.6760   23.1130 C   0  0  1  0  0  0  0  0  0  0  0  0
    7.9562  -17.1495   23.1414 C   0  0  0  0  0  0  0  0  0  0  0  0
    7.0749  -17.8639   22.1838 C   0  0  0  0  0  0  0  0  0  0  0  0
    6.0201  -17.2885   21.4693 C   0  0  0  0  0  0  0  0  0  0  0  0
    5.4421  -18.2189   20.7016 N   0  0  0  0  0  0  0  0  0  0  0  0
    6.0987  -19.3623   20.9092 C   0  0  0  0  0  0  0  0  0  0  0  0
    7.0817  -19.1547   21.7998 N   0  0  0  0  0  0  0  0  0  0  0  0
    8.3267  -14.9969   24.3032 C   0  0  0  0  0  0  0  0  0  0  0  0
    9.5790  -14.9305   24.3905 O   0  0  0  0  0  0  0  0  0  0  0  0
    7.5425  -14.4228   25.3406 N   0  0  0  0  0  0  0  0  0  0  0  0
    8.1866  -13.7091   26.4197 C   0  0  1  0  0  0  0  0  0  0  0  0
    7.2013  -12.8846   27.2189 C   0  0  0  0  0  0  0  0  0  0  0  0
    6.1163  -11.8974   26.1943 S   0  0  0  0  0  0  0  0  0  0  0  0
    8.7770  -14.6946   27.3399 C   0  0  0  0  0  0  0  0  0  0  0  0
    9.4816  -14.3194   28.2933 O   0  0  0  0  0  0  0  0  0  0  0  0
    8.5491  -16.0382   27.1456 O   0  0  0  0  0  0  0  0  0  0  0  0
  2  1  1  6
  2  3  1  0
  2  4  1  0
  4  5  2  0
  6  4  1  0
  6  7  1  0
  7 14  1  0
  7  8  1  1
  9 13  1  0
  9  8  1  0
 10  9  2  0
 11 10  1  0
 11 12  1  0
 12 13  2  0
 14 16  1  0
 14 15  2  0
 16 17  1  0
 17 20  1  0
 17 18  1  1
 19 18  1  0
 20 21  2  0
 20 22  1  0
M  END
$$$$
