AHC.pdb
     RDKit          3D

 22 22  0  0  1  0  0  0  0  0999 V2000
   10.0724  -20.3458   18.1535 C   0  0  0  0  0  0  0  0  0  0  0  0
    9.7644  -18.9509   17.6427 C   0  0  2  0  0  0  0  0  0  0  0  0
   10.4724  -18.7766   16.3946 N   0  0  0  0  0  0  0  0  0  0  0  0
   10.1789  -17.9406   18.6558 C   0  0  0  0  0  0  0  0  0  0  0  0
   11.3499  -17.5396   18.6531 O   0  0  0  0  0  0  0  0  0  0  0  0
    9.2584  -17.4538   19.5944 N   0  0  0  0  0  0  0  0  0  0  0  0
    9.6002  -16.5447   20.6709 C   0  0  1  0  0  0  0  0  0  0  0  0
    8.4160  -15.7441   21.0888 C   0  0  0  0  0  0  0  0  0  0  0  0
    8.0592  -14.7057   20.0896 C   0  0  0  0  0  0  0  0  0  0  0  0
    8.7648  -14.4371   18.9132 C   0  0  0  0  0  0  0  0  0  0  0  0
    8.1649  -13.4415   18.2513 N   0  0  0  0  0  0  0  0  0  0  0  0
    7.1038  -13.0739   18.9727 C   0  0  0  0  0  0  0  0  0  0  0  0
    7.0353  -13.8309   20.0795 N   0  0  0  0  0  0  0  0  0  0  0  0
   10.2222  -17.2716   21.8132 C   0  0  0  0  0  0  0  0  0  0  0  0
    9.7092  -18.3623   22.1703 O   0  0  0  0  0  0  0  0  0  0  0  0
   11.3622  -16.7952   22.5163 N   0  0  0  0  0  0  0  0  0  0  0  0
   11.9465  -17.5957   23.5680 C   0  0  1  0  0  0  0  0  0  0  0  0
   13.1497  -18.3744   23.0829 C   0  0  0  0  0  0  0  0  0  0  0  0
   13.9549  -19.3056   24.3814 S   0  0  0  0  0  0  0  0  0  0  0  0
   12.4127  -16.6931   24.6331 C   0  0  0  0  0  0  0  0  0  0  0  0
   12.5247  -15.4735   24.4178 O   0  0  0  0  0  0  0  0  0  0  0  0
   12.7265  -17.1997   25.8741 O   0  0  0  0  0  0  0  0  0  0  0  0
  2  1  1  1
  2  3  1  0
  2  4  1  0
  4  5  2  0
  6  4  1  0
  6  7  1  0
  7 14  1  0
  7  8  1  1
  9 13  1  0
  9  8  1  0
 10  9  2  0
 11 10  1  0
 11 12  1  0
 12 13  2  0
 14 16  1  0
 14 15  2  0
 16 17  1  0
 17 20  1  0
 17 18  1  6
 19 18  1  0
 20 21  2  0
 20 22  1  0
M  END
$$$$
