AHC.pdb
     RDKit          3D

 22 22  0  0  1  0  0  0  0  0999 V2000
    7.6486  -12.9673   18.9683 C   0  0  0  0  0  0  0  0  0  0  0  0
    8.8034  -13.0891   19.9444 C   0  0  2  0  0  0  0  0  0  0  0  0
    9.9548  -13.5519   19.2032 N   0  0  0  0  0  0  0  0  0  0  0  0
    8.4397  -14.0308   21.0398 C   0  0  0  0  0  0  0  0  0  0  0  0
    7.4041  -13.8230   21.6852 O   0  0  0  0  0  0  0  0  0  0  0  0
    9.2564  -15.1318   21.3333 N   0  0  0  0  0  0  0  0  0  0  0  0
    8.9651  -16.1064   22.3665 C   0  0  1  0  0  0  0  0  0  0  0  0
    9.4600  -17.4569   21.9801 C   0  0  0  0  0  0  0  0  0  0  0  0
    8.6619  -18.0538   20.8799 C   0  0  0  0  0  0  0  0  0  0  0  0
    7.2662  -18.1160   20.8329 C   0  0  0  0  0  0  0  0  0  0  0  0
    6.8849  -18.7180   19.7009 N   0  0  0  0  0  0  0  0  0  0  0  0
    7.9954  -19.0373   19.0329 C   0  0  0  0  0  0  0  0  0  0  0  0
    9.0672  -18.6402   19.7372 N   0  0  0  0  0  0  0  0  0  0  0  0
    9.4962  -15.6667   23.6873 C   0  0  0  0  0  0  0  0  0  0  0  0
   10.6933  -15.2877   23.7474 O   0  0  0  0  0  0  0  0  0  0  0  0
    8.7197  -15.6545   24.8781 N   0  0  0  0  0  0  0  0  0  0  0  0
    9.2889  -15.1430   26.1041 C   0  0  1  0  0  0  0  0  0  0  0  0
    8.2888  -14.3270   26.8936 C   0  0  0  0  0  0  0  0  0  0  0  0
    8.7724  -12.6149   27.0844 S   0  0  0  0  0  0  0  0  0  0  0  0
    9.6798  -16.2855   26.9457 C   0  0  0  0  0  0  0  0  0  0  0  0
    9.2990  -17.4344   26.6606 O   0  0  0  0  0  0  0  0  0  0  0  0
   10.4707  -16.0829   28.0542 O   0  0  0  0  0  0  0  0  0  0  0  0
  2  1  1  6
  2  3  1  0
  2  4  1  0
  4  5  2  0
  6  4  1  0
  6  7  1  0
  7 14  1  0
  7  8  1  6
  9 13  1  0
  9  8  1  0
 10  9  2  0
 11 10  1  0
 11 12  1  0
 12 13  2  0
 14 16  1  0
 14 15  2  0
 16 17  1  0
 17 20  1  0
 17 18  1  1
 19 18  1  0
 20 21  2  0
 20 22  1  0
M  END
$$$$
