AHC.pdb
     RDKit          3D

 22 22  0  0  1  0  0  0  0  0999 V2000
   10.7588  -15.9969   12.4772 C   0  0  0  0  0  0  0  0  0  0  0  0
    9.3727  -16.6067   12.3855 C   0  0  2  0  0  0  0  0  0  0  0  0
    8.6218  -15.8406   11.4167 N   0  0  0  0  0  0  0  0  0  0  0  0
    8.7234  -16.5854   13.7260 C   0  0  0  0  0  0  0  0  0  0  0  0
    8.0260  -15.6105   14.0350 O   0  0  0  0  0  0  0  0  0  0  0  0
    8.8998  -17.6507   14.6200 N   0  0  0  0  0  0  0  0  0  0  0  0
    8.3085  -17.7071   15.9427 C   0  0  1  0  0  0  0  0  0  0  0  0
    8.3682  -19.0890   16.4947 C   0  0  0  0  0  0  0  0  0  0  0  0
    7.5645  -19.2337   17.7345 C   0  0  0  0  0  0  0  0  0  0  0  0
    6.3601  -18.5758   18.0006 C   0  0  0  0  0  0  0  0  0  0  0  0
    5.9110  -18.9392   19.2070 N   0  0  0  0  0  0  0  0  0  0  0  0
    6.7935  -19.8050   19.7099 C   0  0  0  0  0  0  0  0  0  0  0  0
    7.7901  -19.9859   18.8285 N   0  0  0  0  0  0  0  0  0  0  0  0
    8.9317  -16.7071   16.8547 C   0  0  0  0  0  0  0  0  0  0  0  0
   10.1811  -16.5725   16.8203 O   0  0  0  0  0  0  0  0  0  0  0  0
    8.1867  -15.9009   17.7580 N   0  0  0  0  0  0  0  0  0  0  0  0
    8.8582  -14.8915   18.5446 C   0  0  1  0  0  0  0  0  0  0  0  0
    7.8931  -13.8530   19.0733 C   0  0  0  0  0  0  0  0  0  0  0  0
    6.9063  -13.0917   17.7894 S   0  0  0  0  0  0  0  0  0  0  0  0
    9.4748  -15.5459   19.7099 C   0  0  0  0  0  0  0  0  0  0  0  0
    9.3354  -16.7684   19.8898 O   0  0  0  0  0  0  0  0  0  0  0  0
   10.2097  -14.8027   20.6058 O   0  0  0  0  0  0  0  0  0  0  0  0
  2  1  1  1
  2  3  1  0
  2  4  1  0
  4  5  2  0
  6  4  1  0
  6  7  1  0
  7 14  1  0
  7  8  1  1
  9 13  1  0
  9  8  1  0
 10  9  2  0
 11 10  1  0
 11 12  1  0
 12 13  2  0
 14 16  1  0
 14 15  2  0
 16 17  1  0
 17 20  1  0
 17 18  1  1
 19 18  1  0
 20 21  2  0
 20 22  1  0
M  END
$$$$
