AHC.pdb
     RDKit          3D

 22 22  0  0  1  0  0  0  0  0999 V2000
    8.7039  -20.3420   20.4198 C   0  0  0  0  0  0  0  0  0  0  0  0
    8.8336  -19.2168   19.4105 C   0  0  2  0  0  0  0  0  0  0  0  0
    9.4783  -19.7568   18.2349 N   0  0  0  0  0  0  0  0  0  0  0  0
    9.6178  -18.0972   20.0024 C   0  0  0  0  0  0  0  0  0  0  0  0
   10.8462  -18.0845   19.8510 O   0  0  0  0  0  0  0  0  0  0  0  0
    8.9748  -17.0772   20.7176 N   0  0  0  0  0  0  0  0  0  0  0  0
    9.6584  -15.9390   21.3005 C   0  0  1  0  0  0  0  0  0  0  0  0
    8.7305  -14.7852   21.4614 C   0  0  0  0  0  0  0  0  0  0  0  0
    8.2720  -14.2470   20.1560 C   0  0  0  0  0  0  0  0  0  0  0  0
    8.6973  -14.6932   18.9014 C   0  0  0  0  0  0  0  0  0  0  0  0
    8.0818  -13.9883   17.9456 N   0  0  0  0  0  0  0  0  0  0  0  0
    7.2822  -13.1121   18.5575 C   0  0  0  0  0  0  0  0  0  0  0  0
    7.3926  -13.2632   19.8871 N   0  0  0  0  0  0  0  0  0  0  0  0
   10.3269  -16.3090   22.5796 C   0  0  0  0  0  0  0  0  0  0  0  0
    9.6034  -16.5234   23.5851 O   0  0  0  0  0  0  0  0  0  0  0  0
   11.7364  -16.4310   22.7190 N   0  0  0  0  0  0  0  0  0  0  0  0
   12.3016  -16.8544   23.9799 C   0  0  1  0  0  0  0  0  0  0  0  0
   12.7352  -18.3037   23.9461 C   0  0  0  0  0  0  0  0  0  0  0  0
   11.4810  -19.4273   24.5514 S   0  0  0  0  0  0  0  0  0  0  0  0
   13.5033  -16.0465   24.2439 C   0  0  0  0  0  0  0  0  0  0  0  0
   13.9344  -15.2624   23.3805 O   0  0  0  0  0  0  0  0  0  0  0  0
   14.1542  -16.1584   25.4517 O   0  0  0  0  0  0  0  0  0  0  0  0
  2  1  1  1
  2  3  1  0
  2  4  1  0
  4  5  2  0
  6  4  1  0
  6  7  1  0
  7 14  1  0
  7  8  1  1
  9 13  1  0
  9  8  1  0
 10  9  2  0
 11 10  1  0
 11 12  1  0
 12 13  2  0
 14 16  1  0
 14 15  2  0
 16 17  1  0
 17 20  1  0
 17 18  1  6
 19 18  1  0
 20 21  2  0
 20 22  1  0
M  END
$$$$
