AHC.pdb
     RDKit          3D

 22 22  0  0  1  0  0  0  0  0999 V2000
   10.6876  -19.1803   18.1758 C   0  0  0  0  0  0  0  0  0  0  0  0
   11.2807  -20.3909   17.4801 C   0  0  2  0  0  0  0  0  0  0  0  0
   10.2302  -21.0041   16.6991 N   0  0  0  0  0  0  0  0  0  0  0  0
   11.8343  -21.3328   18.4927 C   0  0  0  0  0  0  0  0  0  0  0  0
   11.0752  -22.1582   19.0168 O   0  0  0  0  0  0  0  0  0  0  0  0
   13.1904  -21.2841   18.8446 N   0  0  0  0  0  0  0  0  0  0  0  0
   13.8151  -22.1821   19.7963 C   0  0  1  0  0  0  0  0  0  0  0  0
   15.2122  -22.5010   19.3904 C   0  0  0  0  0  0  0  0  0  0  0  0
   15.2631  -23.3720   18.1894 C   0  0  0  0  0  0  0  0  0  0  0  0
   15.6619  -22.9680   16.9119 C   0  0  0  0  0  0  0  0  0  0  0  0
   15.5864  -24.0066   16.0723 N   0  0  0  0  0  0  0  0  0  0  0  0
   15.1529  -25.0522   16.7795 C   0  0  0  0  0  0  0  0  0  0  0  0
   14.9568  -24.6764   18.0535 N   0  0  0  0  0  0  0  0  0  0  0  0
   13.7395  -21.6374   21.1810 C   0  0  0  0  0  0  0  0  0  0  0  0
   13.7570  -20.3890   21.3276 O   0  0  0  0  0  0  0  0  0  0  0  0
   13.6490  -22.4558   22.3399 N   0  0  0  0  0  0  0  0  0  0  0  0
   13.3526  -21.8587   23.6221 C   0  0  1  0  0  0  0  0  0  0  0  0
   11.9397  -21.3206   23.6815 C   0  0  0  0  0  0  0  0  0  0  0  0
   10.6980  -22.5677   23.3584 S   0  0  0  0  0  0  0  0  0  0  0  0
   13.4655  -22.9005   24.6558 C   0  0  0  0  0  0  0  0  0  0  0  0
   13.6976  -24.0794   24.3359 O   0  0  0  0  0  0  0  0  0  0  0  0
   13.3135  -22.5697   25.9835 O   0  0  0  0  0  0  0  0  0  0  0  0
  2  1  1  1
  2  3  1  0
  2  4  1  0
  4  5  2  0
  6  4  1  0
  6  7  1  0
  7 14  1  0
  7  8  1  6
  9 13  1  0
  9  8  1  0
 10  9  2  0
 11 10  1  0
 11 12  1  0
 12 13  2  0
 14 16  1  0
 14 15  2  0
 16 17  1  0
 17 20  1  0
 17 18  1  6
 19 18  1  0
 20 21  2  0
 20 22  1  0
M  END
$$$$
