AHC.pdb
     RDKit          3D

 22 22  0  0  1  0  0  0  0  0999 V2000
    7.2436  -13.0339   19.1728 C   0  0  0  0  0  0  0  0  0  0  0  0
    8.4001  -13.5076   20.0327 C   0  0  2  0  0  0  0  0  0  0  0  0
    9.0713  -14.5685   19.3161 N   0  0  0  0  0  0  0  0  0  0  0  0
    7.8891  -13.9730   21.3522 C   0  0  0  0  0  0  0  0  0  0  0  0
    7.2712  -13.1739   22.0676 O   0  0  0  0  0  0  0  0  0  0  0  0
    8.1048  -15.2921   21.7747 N   0  0  0  0  0  0  0  0  0  0  0  0
    7.6140  -15.8343   23.0267 C   0  0  1  0  0  0  0  0  0  0  0  0
    7.8387  -17.3050   23.0951 C   0  0  0  0  0  0  0  0  0  0  0  0
    7.4070  -17.8791   24.3943 C   0  0  0  0  0  0  0  0  0  0  0  0
    6.7770  -17.1726   25.4229 C   0  0  0  0  0  0  0  0  0  0  0  0
    6.5302  -17.9993   26.4451 N   0  0  0  0  0  0  0  0  0  0  0  0
    6.9843  -19.2042   26.0939 C   0  0  0  0  0  0  0  0  0  0  0  0
    7.5128  -19.1379   24.8614 N   0  0  0  0  0  0  0  0  0  0  0  0
    8.2038  -15.1179   24.1924 C   0  0  0  0  0  0  0  0  0  0  0  0
    9.4433  -14.9082   24.1928 O   0  0  0  0  0  0  0  0  0  0  0  0
    7.4377  -14.6616   25.2996 N   0  0  0  0  0  0  0  0  0  0  0  0
    8.0575  -13.8417   26.3155 C   0  0  1  0  0  0  0  0  0  0  0  0
    7.0382  -13.0341   27.0890 C   0  0  0  0  0  0  0  0  0  0  0  0
    6.2289  -11.7858   26.0948 S   0  0  0  0  0  0  0  0  0  0  0  0
    8.7325  -14.7274   27.2781 C   0  0  0  0  0  0  0  0  0  0  0  0
    8.6113  -15.9616   27.1871 O   0  0  0  0  0  0  0  0  0  0  0  0
    9.5019  -14.1885   28.2844 O   0  0  0  0  0  0  0  0  0  0  0  0
  2  1  1  6
  2  3  1  0
  2  4  1  0
  4  5  2  0
  6  4  1  0
  6  7  1  0
  7 14  1  0
  7  8  1  1
  9 13  1  0
  9  8  1  0
 10  9  2  0
 11 10  1  0
 11 12  1  0
 12 13  2  0
 14 16  1  0
 14 15  2  0
 16 17  1  0
 17 20  1  0
 17 18  1  1
 19 18  1  0
 20 21  2  0
 20 22  1  0
M  END
$$$$
