AHC.pdb
     RDKit          3D

 22 22  0  0  1  0  0  0  0  0999 V2000
    6.9272  -18.4597   20.7215 C   0  0  0  0  0  0  0  0  0  0  0  0
    8.0311  -18.0564   21.6807 C   0  0  2  0  0  0  0  0  0  0  0  0
    7.5968  -18.4002   23.0158 N   0  0  0  0  0  0  0  0  0  0  0  0
    8.3040  -16.5978   21.5498 C   0  0  0  0  0  0  0  0  0  0  0  0
    8.5285  -16.1321   20.4252 O   0  0  0  0  0  0  0  0  0  0  0  0
    8.3063  -15.7692   22.6805 N   0  0  0  0  0  0  0  0  0  0  0  0
    8.3708  -14.3217   22.6264 C   0  0  1  0  0  0  0  0  0  0  0  0
    7.2638  -13.7696   21.7970 C   0  0  0  0  0  0  0  0  0  0  0  0
    7.6098  -13.7291   20.3539 C   0  0  0  0  0  0  0  0  0  0  0  0
    8.8851  -13.4922   19.8328 C   0  0  0  0  0  0  0  0  0  0  0  0
    8.8340  -13.5268   18.4966 N   0  0  0  0  0  0  0  0  0  0  0  0
    7.5675  -13.7780   18.1587 C   0  0  0  0  0  0  0  0  0  0  0  0
    6.8267  -13.9006   19.2717 N   0  0  0  0  0  0  0  0  0  0  0  0
    8.4000  -13.7320   23.9943 C   0  0  0  0  0  0  0  0  0  0  0  0
    8.5466  -12.4879   24.0994 O   0  0  0  0  0  0  0  0  0  0  0  0
    8.2707  -14.5030   25.1817 N   0  0  0  0  0  0  0  0  0  0  0  0
    8.5443  -13.8994   26.4659 C   0  0  1  0  0  0  0  0  0  0  0  0
    7.4183  -12.9945   26.9160 C   0  0  0  0  0  0  0  0  0  0  0  0
    5.7986  -13.7185   26.6838 S   0  0  0  0  0  0  0  0  0  0  0  0
    8.6665  -14.9725   27.4659 C   0  0  0  0  0  0  0  0  0  0  0  0
    8.4283  -16.1521   27.1529 O   0  0  0  0  0  0  0  0  0  0  0  0
    9.0463  -14.6706   28.7542 O   0  0  0  0  0  0  0  0  0  0  0  0
  2  1  1  6
  2  3  1  0
  2  4  1  0
  4  5  2  0
  6  4  1  0
  6  7  1  0
  7 14  1  0
  7  8  1  1
  9 13  1  0
  9  8  1  0
 10  9  2  0
 11 10  1  0
 11 12  1  0
 12 13  2  0
 14 16  1  0
 14 15  2  0
 16 17  1  0
 17 20  1  0
 17 18  1  1
 19 18  1  0
 20 21  2  0
 20 22  1  0
M  END
$$$$
