AHC.pdb
     RDKit          3D

 22 22  0  0  1  0  0  0  0  0999 V2000
    7.9295  -12.4719   19.2337 C   0  0  0  0  0  0  0  0  0  0  0  0
    8.4187  -13.6417   18.4009 C   0  0  2  0  0  0  0  0  0  0  0  0
    7.3474  -14.0198   17.5072 N   0  0  0  0  0  0  0  0  0  0  0  0
    8.8121  -14.7666   19.2946 C   0  0  0  0  0  0  0  0  0  0  0  0
    7.9282  -15.5059   19.7465 O   0  0  0  0  0  0  0  0  0  0  0  0
   10.1592  -14.9827   19.6170 N   0  0  0  0  0  0  0  0  0  0  0  0
   10.6307  -16.0756   20.4449 C   0  0  1  0  0  0  0  0  0  0  0  0
   11.9616  -16.5586   19.9827 C   0  0  0  0  0  0  0  0  0  0  0  0
   11.8643  -17.3756   18.7471 C   0  0  0  0  0  0  0  0  0  0  0  0
   10.9446  -18.4051   18.5269 C   0  0  0  0  0  0  0  0  0  0  0  0
   11.1400  -18.9242   17.3097 N   0  0  0  0  0  0  0  0  0  0  0  0
   12.1533  -18.2551   16.7556 C   0  0  0  0  0  0  0  0  0  0  0  0
   12.5928  -17.3225   17.6157 N   0  0  0  0  0  0  0  0  0  0  0  0
   10.6366  -15.6965   21.8858 C   0  0  0  0  0  0  0  0  0  0  0  0
   10.6205  -14.4734   22.1761 O   0  0  0  0  0  0  0  0  0  0  0  0
   10.6593  -16.6451   22.9444 N   0  0  0  0  0  0  0  0  0  0  0  0
   10.4072  -16.2166   24.3013 C   0  0  1  0  0  0  0  0  0  0  0  0
    9.0335  -15.6008   24.4531 C   0  0  0  0  0  0  0  0  0  0  0  0
    8.6319  -15.1860   26.1467 S   0  0  0  0  0  0  0  0  0  0  0  0
   10.4534  -17.3988   25.1770 C   0  0  0  0  0  0  0  0  0  0  0  0
   10.0077  -18.4903   24.7818 O   0  0  0  0  0  0  0  0  0  0  0  0
   10.9923  -17.2973   26.4397 O   0  0  0  0  0  0  0  0  0  0  0  0
  2  1  1  1
  2  3  1  0
  2  4  1  0
  4  5  2  0
  6  4  1  0
  6  7  1  0
  7 14  1  0
  7  8  1  6
  9 13  1  0
  9  8  1  0
 10  9  2  0
 11 10  1  0
 11 12  1  0
 12 13  2  0
 14 16  1  0
 14 15  2  0
 16 17  1  0
 17 20  1  0
 17 18  1  6
 19 18  1  0
 20 21  2  0
 20 22  1  0
M  END
$$$$
