SPR.pdb
     RDKit          3D

 25 25  0  0  1  0  0  0  0  0999 V2000
    5.2658  -17.3204   21.1696 O   0  0  0  0  0  0  0  0  0  0  0  0
    5.5232  -18.0530   20.0222 C   0  0  0  0  0  0  0  0  0  0  0  0
    6.3293  -17.2175   19.0203 C   0  0  2  0  0  0  0  0  0  0  0  0
    6.6709  -18.0881   17.9344 N   0  0  0  0  0  0  0  0  0  0  0  0
    7.4636  -16.5575   19.6782 C   0  0  0  0  0  0  0  0  0  0  0  0
    8.5121  -17.2785   19.8261 O   0  0  0  0  0  0  0  0  0  0  0  0
    7.5142  -15.2390   20.1535 N   0  0  0  0  0  0  0  0  0  0  0  0
    6.4791  -14.2229   20.1793 C   0  0  0  0  0  0  0  0  0  0  0  0
    7.1556  -12.8833   20.3058 C   0  0  0  0  0  0  0  0  0  0  0  0
    8.6200  -13.2142   20.1651 C   0  0  0  0  0  0  0  0  0  0  0  0
    8.6754  -14.5994   20.7452 C   0  0  1  0  0  0  0  0  0  0  0  0
    8.5844  -14.5977   22.2363 C   0  0  0  0  0  0  0  0  0  0  0  0
    7.5284  -14.3077   22.8418 O   0  0  0  0  0  0  0  0  0  0  0  0
    6.1845  -20.5437   23.9932 N   0  0  0  0  0  0  0  0  0  0  0  0
    6.6939  -20.5543   25.3373 C   0  0  0  0  0  0  0  0  0  0  0  0
    6.9063  -21.6704   25.9066 N   0  0  0  0  0  0  0  0  0  0  0  0
    6.9192  -19.2981   25.9223 N   0  0  0  0  0  0  0  0  0  0  0  0
    6.9926  -18.1130   25.0404 C   0  0  0  0  0  0  0  0  0  0  0  0
    8.3808  -18.1008   24.4937 C   0  0  0  0  0  0  0  0  0  0  0  0
    8.8718  -16.9806   23.7111 C   0  0  0  0  0  0  0  0  0  0  0  0
    9.5872  -15.8131   24.2318 C   0  0  2  0  0  0  0  0  0  0  0  0
    9.7183  -14.9327   23.0058 N   0  0  0  0  0  0  0  0  0  0  0  0
   10.9186  -15.9370   24.8071 C   0  0  0  0  0  0  0  0  0  0  0  0
   11.9571  -16.0220   24.1250 O   0  0  0  0  0  0  0  0  0  0  0  0
   11.1417  -15.9708   26.1989 O   0  0  0  0  0  0  0  0  0  0  0  0
  2  1  1  0
  3  2  1  0
  3  4  1  6
  5  7  1  0
  5  3  1  0
  6  5  2  0
  7  8  1  0
  9  8  1  0
 10 11  1  0
 10  9  1  0
 11  7  1  0
 11 12  1  1
 13 12  2  0
 15 14  1  0
 15 16  2  0
 17 15  1  0
 18 17  1  0
 19 18  1  0
 20 19  1  0
 21 22  1  0
 21 20  1  6
 22 12  1  0
 23 21  1  0
 24 23  2  0
 25 23  1  0
M  END
$$$$
