SPR.pdb
     RDKit          3D

 25 25  0  0  1  0  0  0  0  0999 V2000
    8.2907  -17.2572   17.0072 O   0  0  0  0  0  0  0  0  0  0  0  0
    8.3978  -16.8561   15.6854 C   0  0  0  0  0  0  0  0  0  0  0  0
    8.2165  -15.3380   15.5678 C   0  0  2  0  0  0  0  0  0  0  0  0
    8.3703  -15.0081   14.1816 N   0  0  0  0  0  0  0  0  0  0  0  0
    9.1146  -14.6282   16.4869 C   0  0  0  0  0  0  0  0  0  0  0  0
   10.2886  -14.3863   16.0350 O   0  0  0  0  0  0  0  0  0  0  0  0
    8.8217  -14.1955   17.7884 N   0  0  0  0  0  0  0  0  0  0  0  0
    7.5733  -14.2530   18.5252 C   0  0  0  0  0  0  0  0  0  0  0  0
    7.6487  -13.2364   19.6337 C   0  0  0  0  0  0  0  0  0  0  0  0
    8.9324  -12.4988   19.3476 C   0  0  0  0  0  0  0  0  0  0  0  0
    9.7622  -13.5725   18.7020 C   0  0  1  0  0  0  0  0  0  0  0  0
   10.2840  -14.5628   19.6913 C   0  0  0  0  0  0  0  0  0  0  0  0
    9.5888  -15.5116   20.1186 O   0  0  0  0  0  0  0  0  0  0  0  0
   14.4297  -15.4102   15.4053 N   0  0  0  0  0  0  0  0  0  0  0  0
   13.6247  -16.6003   15.3625 C   0  0  0  0  0  0  0  0  0  0  0  0
   13.1352  -16.9730   14.2506 N   0  0  0  0  0  0  0  0  0  0  0  0
   13.4427  -17.2671   16.5845 N   0  0  0  0  0  0  0  0  0  0  0  0
   14.5525  -17.2620   17.5622 C   0  0  0  0  0  0  0  0  0  0  0  0
   13.9121  -17.1017   18.9002 C   0  0  0  0  0  0  0  0  0  0  0  0
   13.1102  -15.9330   19.2157 C   0  0  0  0  0  0  0  0  0  0  0  0
   12.4293  -15.6722   20.4862 C   0  0  2  0  0  0  0  0  0  0  0  0
   11.6047  -14.4406   20.1720 N   0  0  0  0  0  0  0  0  0  0  0  0
   13.1788  -15.3803   21.6995 C   0  0  0  0  0  0  0  0  0  0  0  0
   13.5538  -14.2361   22.0175 O   0  0  0  0  0  0  0  0  0  0  0  0
   13.5441  -16.3813   22.6229 O   0  0  0  0  0  0  0  0  0  0  0  0
  2  1  1  0
  3  2  1  0
  3  4  1  6
  5  7  1  0
  5  3  1  0
  6  5  2  0
  7  8  1  0
  9  8  1  0
 10 11  1  0
 10  9  1  0
 11  7  1  0
 11 12  1  1
 13 12  2  0
 15 14  1  0
 15 16  2  0
 17 15  1  0
 18 17  1  0
 19 18  1  0
 20 19  1  0
 21 22  1  0
 21 20  1  6
 22 12  1  0
 23 21  1  0
 24 23  2  0
 25 23  1  0
M  END
$$$$
