SPR.pdb
     RDKit          3D

 25 25  0  0  1  0  0  0  0  0999 V2000
    6.5564  -18.2112   21.0261 O   0  0  0  0  0  0  0  0  0  0  0  0
    5.8164  -17.6084   20.0218 C   0  0  0  0  0  0  0  0  0  0  0  0
    6.7241  -17.2042   18.8539 C   0  0  2  0  0  0  0  0  0  0  0  0
    7.0181  -18.4018   18.1235 N   0  0  0  0  0  0  0  0  0  0  0  0
    7.8931  -16.4552   19.3309 C   0  0  0  0  0  0  0  0  0  0  0  0
    9.0228  -17.0402   19.1806 O   0  0  0  0  0  0  0  0  0  0  0  0
    7.8976  -15.1848   19.9249 N   0  0  0  0  0  0  0  0  0  0  0  0
    6.7901  -14.3896   20.4206 C   0  0  0  0  0  0  0  0  0  0  0  0
    7.2477  -12.9562   20.4837 C   0  0  0  0  0  0  0  0  0  0  0  0
    8.6036  -12.9907   19.8247 C   0  0  0  0  0  0  0  0  0  0  0  0
    9.0758  -14.3740   20.1738 C   0  0  1  0  0  0  0  0  0  0  0  0
    9.5118  -14.4857   21.5982 C   0  0  0  0  0  0  0  0  0  0  0  0
    9.8184  -13.4852   22.2845 O   0  0  0  0  0  0  0  0  0  0  0  0
    7.0564  -12.8067   28.2328 N   0  0  0  0  0  0  0  0  0  0  0  0
    6.5096  -12.3198   26.9958 C   0  0  0  0  0  0  0  0  0  0  0  0
    5.7560  -11.2968   27.0159 N   0  0  0  0  0  0  0  0  0  0  0  0
    6.8637  -13.0343   25.8403 N   0  0  0  0  0  0  0  0  0  0  0  0
    7.7705  -14.1945   25.9795 C   0  0  0  0  0  0  0  0  0  0  0  0
    7.8493  -14.8112   24.6232 C   0  0  0  0  0  0  0  0  0  0  0  0
    8.7225  -15.9411   24.3597 C   0  0  0  0  0  0  0  0  0  0  0  0
   10.0072  -15.8923   23.6576 C   0  0  2  0  0  0  0  0  0  0  0  0
    9.5864  -15.7554   22.2086 N   0  0  0  0  0  0  0  0  0  0  0  0
   10.9463  -17.0028   23.7214 C   0  0  0  0  0  0  0  0  0  0  0  0
   11.0146  -17.8961   22.8564 O   0  0  0  0  0  0  0  0  0  0  0  0
   11.8647  -17.1575   24.7800 O   0  0  0  0  0  0  0  0  0  0  0  0
  2  1  1  0
  3  2  1  0
  3  4  1  1
  5  7  1  0
  5  3  1  0
  6  5  2  0
  7  8  1  0
  9  8  1  0
 10 11  1  0
 10  9  1  0
 11  7  1  0
 11 12  1  1
 13 12  2  0
 15 14  1  0
 15 16  2  0
 17 15  1  0
 18 17  1  0
 19 18  1  0
 20 19  1  0
 21 22  1  0
 21 20  1  1
 22 12  1  0
 23 21  1  0
 24 23  2  0
 25 23  1  0
M  END
$$$$
