SPR.pdb
     RDKit          3D

 25 25  0  0  1  0  0  0  0  0999 V2000
    6.9758  -18.2715   19.2840 O   0  0  0  0  0  0  0  0  0  0  0  0
    6.6924  -17.4229   18.2261 C   0  0  0  0  0  0  0  0  0  0  0  0
    7.9240  -16.5836   17.8654 C   0  0  2  0  0  0  0  0  0  0  0  0
    8.7844  -17.4235   17.0855 N   0  0  0  0  0  0  0  0  0  0  0  0
    8.5338  -16.0010   19.0669 C   0  0  0  0  0  0  0  0  0  0  0  0
    9.6105  -16.5665   19.4694 O   0  0  0  0  0  0  0  0  0  0  0  0
    8.0642  -14.9058   19.8065 N   0  0  0  0  0  0  0  0  0  0  0  0
    6.8647  -14.1104   19.6243 C   0  0  0  0  0  0  0  0  0  0  0  0
    7.0762  -12.7953   20.3270 C   0  0  0  0  0  0  0  0  0  0  0  0
    8.5238  -12.8495   20.7461 C   0  0  0  0  0  0  0  0  0  0  0  0
    8.7224  -14.3234   20.9619 C   0  0  1  0  0  0  0  0  0  0  0  0
    8.0993  -14.8033   22.2319 C   0  0  0  0  0  0  0  0  0  0  0  0
    6.8615  -14.7918   22.4160 O   0  0  0  0  0  0  0  0  0  0  0  0
    8.4946  -21.7015   24.9927 N   0  0  0  0  0  0  0  0  0  0  0  0
    7.1387  -21.3932   25.3571 C   0  0  0  0  0  0  0  0  0  0  0  0
    6.2089  -22.1780   24.9907 N   0  0  0  0  0  0  0  0  0  0  0  0
    6.9519  -20.2207   26.1064 N   0  0  0  0  0  0  0  0  0  0  0  0
    6.8103  -18.9378   25.3840 C   0  0  0  0  0  0  0  0  0  0  0  0
    8.2010  -18.4771   25.1013 C   0  0  0  0  0  0  0  0  0  0  0  0
    8.4588  -17.3782   24.1879 C   0  0  0  0  0  0  0  0  0  0  0  0
    8.3086  -15.9527   24.4903 C   0  0  2  0  0  0  0  0  0  0  0  0
    8.9188  -15.2908   23.2716 N   0  0  0  0  0  0  0  0  0  0  0  0
    8.9432  -15.3565   25.6568 C   0  0  0  0  0  0  0  0  0  0  0  0
   10.1087  -14.9176   25.6565 O   0  0  0  0  0  0  0  0  0  0  0  0
    8.2812  -15.2263   26.8950 O   0  0  0  0  0  0  0  0  0  0  0  0
  2  1  1  0
  3  2  1  0
  3  4  1  1
  5  7  1  0
  5  3  1  0
  6  5  2  0
  7  8  1  0
  9  8  1  0
 10 11  1  0
 10  9  1  0
 11  7  1  0
 11 12  1  1
 13 12  2  0
 15 14  1  0
 15 16  2  0
 17 15  1  0
 18 17  1  0
 19 18  1  0
 20 19  1  0
 21 22  1  0
 21 20  1  6
 22 12  1  0
 23 21  1  0
 24 23  2  0
 25 23  1  0
M  END
$$$$
