SPR.pdb
     RDKit          3D

 25 25  0  0  1  0  0  0  0  0999 V2000
    6.7672  -17.6148   15.1136 O   0  0  0  0  0  0  0  0  0  0  0  0
    7.6808  -16.9409   15.9079 C   0  0  0  0  0  0  0  0  0  0  0  0
    7.8231  -15.4853   15.4471 C   0  0  2  0  0  0  0  0  0  0  0  0
    8.1888  -15.5228   14.0618 N   0  0  0  0  0  0  0  0  0  0  0  0
    8.7415  -14.7445   16.3204 C   0  0  0  0  0  0  0  0  0  0  0  0
    9.9046  -14.5180   15.8336 O   0  0  0  0  0  0  0  0  0  0  0  0
    8.4783  -14.2676   17.6128 N   0  0  0  0  0  0  0  0  0  0  0  0
    7.2633  -14.3495   18.4012 C   0  0  0  0  0  0  0  0  0  0  0  0
    7.3321  -13.2816   19.4609 C   0  0  0  0  0  0  0  0  0  0  0  0
    8.5670  -12.4990   19.0915 C   0  0  0  0  0  0  0  0  0  0  0  0
    9.4221  -13.5611   18.4599 C   0  0  1  0  0  0  0  0  0  0  0  0
   10.0284  -14.4806   19.4691 C   0  0  0  0  0  0  0  0  0  0  0  0
    9.4713  -15.5425   19.8268 O   0  0  0  0  0  0  0  0  0  0  0  0
   16.7549  -15.6601   16.2151 N   0  0  0  0  0  0  0  0  0  0  0  0
   17.0984  -14.4386   16.8906 C   0  0  0  0  0  0  0  0  0  0  0  0
   18.2812  -13.9869   16.7826 N   0  0  0  0  0  0  0  0  0  0  0  0
   16.0713  -13.8327   17.6315 N   0  0  0  0  0  0  0  0  0  0  0  0
   16.0192  -14.0719   19.0902 C   0  0  0  0  0  0  0  0  0  0  0  0
   14.8548  -14.9786   19.3100 C   0  0  0  0  0  0  0  0  0  0  0  0
   13.5206  -14.4502   19.5312 C   0  0  0  0  0  0  0  0  0  0  0  0
   12.3884  -15.1809   20.1056 C   0  0  2  0  0  0  0  0  0  0  0  0
   11.2727  -14.1574   20.0502 N   0  0  0  0  0  0  0  0  0  0  0  0
   12.4293  -15.6874   21.4698 C   0  0  0  0  0  0  0  0  0  0  0  0
   11.8984  -15.1067   22.4351 O   0  0  0  0  0  0  0  0  0  0  0  0
   13.0807  -16.8904   21.8113 O   0  0  0  0  0  0  0  0  0  0  0  0
  2  1  1  0
  3  2  1  0
  3  4  1  6
  5  7  1  0
  5  3  1  0
  6  5  2  0
  7  8  1  0
  9  8  1  0
 10 11  1  0
 10  9  1  0
 11  7  1  0
 11 12  1  1
 13 12  2  0
 15 14  1  0
 15 16  2  0
 17 15  1  0
 18 17  1  0
 19 18  1  0
 20 19  1  0
 21 22  1  0
 21 20  1  1
 22 12  1  0
 23 21  1  0
 24 23  2  0
 25 23  1  0
M  END
$$$$
