SPR.pdb
     RDKit          3D

 25 25  0  0  1  0  0  0  0  0999 V2000
    7.2430  -17.9202   16.4470 O   0  0  0  0  0  0  0  0  0  0  0  0
    7.9103  -17.5703   17.6098 C   0  0  0  0  0  0  0  0  0  0  0  0
    8.8645  -16.3984   17.3502 C   0  0  2  0  0  0  0  0  0  0  0  0
    9.8345  -16.8561   16.3996 N   0  0  0  0  0  0  0  0  0  0  0  0
    9.4135  -15.8783   18.6084 C   0  0  0  0  0  0  0  0  0  0  0  0
   10.6370  -16.1772   18.8426 O   0  0  0  0  0  0  0  0  0  0  0  0
    8.7444  -15.1001   19.5643 N   0  0  0  0  0  0  0  0  0  0  0  0
    7.4163  -14.5181   19.5206 C   0  0  0  0  0  0  0  0  0  0  0  0
    7.3746  -13.3965   20.5248 C   0  0  0  0  0  0  0  0  0  0  0  0
    8.8058  -13.2844   20.9862 C   0  0  0  0  0  0  0  0  0  0  0  0
    9.2795  -14.7044   20.8545 C   0  0  1  0  0  0  0  0  0  0  0  0
    8.7572  -15.5836   21.9435 C   0  0  0  0  0  0  0  0  0  0  0  0
    7.7327  -16.2880   21.8013 O   0  0  0  0  0  0  0  0  0  0  0  0
   16.0158  -20.4785   22.0031 N   0  0  0  0  0  0  0  0  0  0  0  0
   15.1933  -19.6566   21.1580 C   0  0  0  0  0  0  0  0  0  0  0  0
   15.6949  -19.1680   20.0975 N   0  0  0  0  0  0  0  0  0  0  0  0
   13.8713  -19.4582   21.5870 N   0  0  0  0  0  0  0  0  0  0  0  0
   13.4064  -18.0736   21.8202 C   0  0  0  0  0  0  0  0  0  0  0  0
   11.9599  -18.1858   22.1681 C   0  0  0  0  0  0  0  0  0  0  0  0
   11.1637  -17.0085   22.4656 C   0  0  0  0  0  0  0  0  0  0  0  0
   10.2242  -16.8624   23.5799 C   0  0  2  0  0  0  0  0  0  0  0  0
    9.4294  -15.6351   23.1827 N   0  0  0  0  0  0  0  0  0  0  0  0
   10.6931  -16.6399   24.9399 C   0  0  0  0  0  0  0  0  0  0  0  0
   10.9494  -17.5607   25.7382 O   0  0  0  0  0  0  0  0  0  0  0  0
   10.8975  -15.3487   25.4684 O   0  0  0  0  0  0  0  0  0  0  0  0
  2  1  1  0
  3  2  1  0
  3  4  1  6
  5  7  1  0
  5  3  1  0
  6  5  2  0
  7  8  1  0
  9  8  1  0
 10 11  1  0
 10  9  1  0
 11  7  1  0
 11 12  1  1
 13 12  2  0
 15 14  1  0
 15 16  2  0
 17 15  1  0
 18 17  1  0
 19 18  1  0
 20 19  1  0
 21 22  1  0
 21 20  1  6
 22 12  1  0
 23 21  1  0
 24 23  2  0
 25 23  1  0
M  END
$$$$
