SPR.pdb
     RDKit          3D

 25 25  0  0  1  0  0  0  0  0999 V2000
    6.5061  -18.3897   20.6085 O   0  0  0  0  0  0  0  0  0  0  0  0
    6.1080  -17.7950   19.4222 C   0  0  0  0  0  0  0  0  0  0  0  0
    7.2982  -17.1134   18.7365 C   0  0  2  0  0  0  0  0  0  0  0  0
    8.0277  -18.1409   18.0538 N   0  0  0  0  0  0  0  0  0  0  0  0
    8.0763  -16.3220   19.6975 C   0  0  0  0  0  0  0  0  0  0  0  0
    9.1995  -16.8280   20.0486 O   0  0  0  0  0  0  0  0  0  0  0  0
    7.7196  -15.0880   20.2607 N   0  0  0  0  0  0  0  0  0  0  0  0
    6.5233  -14.2911   20.0649 C   0  0  0  0  0  0  0  0  0  0  0  0
    6.8429  -12.8773   20.4734 C   0  0  0  0  0  0  0  0  0  0  0  0
    8.3285  -12.9129   20.7300 C   0  0  0  0  0  0  0  0  0  0  0  0
    8.5214  -14.3267   21.2013 C   0  0  1  0  0  0  0  0  0  0  0  0
    8.0433  -14.5317   22.6017 C   0  0  0  0  0  0  0  0  0  0  0  0
    6.8525  -14.3424   22.9366 O   0  0  0  0  0  0  0  0  0  0  0  0
    4.9805  -20.7806   23.3410 N   0  0  0  0  0  0  0  0  0  0  0  0
    6.3870  -20.9607   23.1050 C   0  0  0  0  0  0  0  0  0  0  0  0
    6.7963  -22.0704   22.6405 N   0  0  0  0  0  0  0  0  0  0  0  0
    7.2104  -19.8669   23.4159 N   0  0  0  0  0  0  0  0  0  0  0  0
    6.5845  -18.6519   23.9813 C   0  0  0  0  0  0  0  0  0  0  0  0
    7.6996  -17.6834   24.1927 C   0  0  0  0  0  0  0  0  0  0  0  0
    7.4488  -16.3452   24.6974 C   0  0  0  0  0  0  0  0  0  0  0  0
    8.4628  -15.3266   24.9802 C   0  0  2  0  0  0  0  0  0  0  0  0
    8.9514  -14.9539   23.5953 N   0  0  0  0  0  0  0  0  0  0  0  0
    9.6425  -15.6346   25.7754 C   0  0  0  0  0  0  0  0  0  0  0  0
   10.7856  -15.7484   25.2943 O   0  0  0  0  0  0  0  0  0  0  0  0
    9.5849  -15.8306   27.1706 O   0  0  0  0  0  0  0  0  0  0  0  0
  2  1  1  0
  3  2  1  0
  3  4  1  1
  5  7  1  0
  5  3  1  0
  6  5  2  0
  7  8  1  0
  9  8  1  0
 10 11  1  0
 10  9  1  0
 11  7  1  0
 11 12  1  1
 13 12  2  0
 15 14  1  0
 15 16  2  0
 17 15  1  0
 18 17  1  0
 19 18  1  0
 20 19  1  0
 21 22  1  0
 21 20  1  6
 22 12  1  0
 23 21  1  0
 24 23  2  0
 25 23  1  0
M  END
$$$$
