SPR.pdb
     RDKit          3D

 25 25  0  0  1  0  0  0  0  0999 V2000
    6.2542  -18.3058   18.6468 O   0  0  0  0  0  0  0  0  0  0  0  0
    7.5198  -18.3703   19.2069 C   0  0  0  0  0  0  0  0  0  0  0  0
    8.3982  -17.2274   18.6837 C   0  0  2  0  0  0  0  0  0  0  0  0
    9.4695  -17.8313   17.9478 N   0  0  0  0  0  0  0  0  0  0  0  0
    8.8089  -16.3371   19.7762 C   0  0  0  0  0  0  0  0  0  0  0  0
    9.8661  -16.6895   20.4081 O   0  0  0  0  0  0  0  0  0  0  0  0
    8.1710  -15.1590   20.1912 N   0  0  0  0  0  0  0  0  0  0  0  0
    7.0041  -14.4943   19.6425 C   0  0  0  0  0  0  0  0  0  0  0  0
    7.0344  -13.0610   20.1038 C   0  0  0  0  0  0  0  0  0  0  0  0
    8.3752  -12.9385   20.7828 C   0  0  0  0  0  0  0  0  0  0  0  0
    8.5757  -14.3304   21.3124 C   0  0  1  0  0  0  0  0  0  0  0  0
    7.7356  -14.6097   22.5157 C   0  0  0  0  0  0  0  0  0  0  0  0
    6.5053  -14.8243   22.4375 O   0  0  0  0  0  0  0  0  0  0  0  0
    7.5128  -21.7064   23.0091 N   0  0  0  0  0  0  0  0  0  0  0  0
    6.9403  -21.0639   24.1605 C   0  0  0  0  0  0  0  0  0  0  0  0
    5.6756  -21.0252   24.2789 N   0  0  0  0  0  0  0  0  0  0  0  0
    7.8505  -20.5195   25.0803 N   0  0  0  0  0  0  0  0  0  0  0  0
    8.6872  -19.3775   24.6520 C   0  0  0  0  0  0  0  0  0  0  0  0
    7.7326  -18.2853   24.3025 C   0  0  0  0  0  0  0  0  0  0  0  0
    8.2028  -16.9522   23.9709 C   0  0  0  0  0  0  0  0  0  0  0  0
    8.0059  -15.7438   24.7753 C   0  0  2  0  0  0  0  0  0  0  0  0
    8.3327  -14.6370   23.7936 N   0  0  0  0  0  0  0  0  0  0  0  0
    8.7974  -15.4947   25.9713 C   0  0  0  0  0  0  0  0  0  0  0  0
    8.4849  -15.9127   27.1020 O   0  0  0  0  0  0  0  0  0  0  0  0
    9.9954  -14.7516   25.9450 O   0  0  0  0  0  0  0  0  0  0  0  0
  2  1  1  0
  3  2  1  0
  3  4  1  1
  5  7  1  0
  5  3  1  0
  6  5  2  0
  7  8  1  0
  9  8  1  0
 10 11  1  0
 10  9  1  0
 11  7  1  0
 11 12  1  1
 13 12  2  0
 15 14  1  0
 15 16  2  0
 17 15  1  0
 18 17  1  0
 19 18  1  0
 20 19  1  0
 21 22  1  0
 21 20  1  6
 22 12  1  0
 23 21  1  0
 24 23  2  0
 25 23  1  0
M  END
$$$$
