SPR.pdb
     RDKit          3D

 25 25  0  0  1  0  0  0  0  0999 V2000
    5.6068  -18.2536   21.2540 O   0  0  0  0  0  0  0  0  0  0  0  0
    5.1680  -17.4629   20.2043 C   0  0  0  0  0  0  0  0  0  0  0  0
    6.3225  -17.1570   19.2425 C   0  0  2  0  0  0  0  0  0  0  0  0
    6.6430  -18.3844   18.5756 N   0  0  0  0  0  0  0  0  0  0  0  0
    7.4382  -16.5141   19.9476 C   0  0  0  0  0  0  0  0  0  0  0  0
    8.4663  -17.2527   20.1440 O   0  0  0  0  0  0  0  0  0  0  0  0
    7.4910  -15.1947   20.4200 N   0  0  0  0  0  0  0  0  0  0  0  0
    6.5041  -14.1358   20.3240 C   0  0  0  0  0  0  0  0  0  0  0  0
    7.2185  -12.8247   20.5210 C   0  0  0  0  0  0  0  0  0  0  0  0
    8.6739  -13.2182   20.5488 C   0  0  0  0  0  0  0  0  0  0  0  0
    8.6039  -14.5992   21.1371 C   0  0  1  0  0  0  0  0  0  0  0  0
    8.3448  -14.5804   22.6082 C   0  0  0  0  0  0  0  0  0  0  0  0
    7.2352  -14.2573   23.0881 O   0  0  0  0  0  0  0  0  0  0  0  0
    8.4936  -20.9190   26.8249 N   0  0  0  0  0  0  0  0  0  0  0  0
    7.0748  -20.6954   26.8823 C   0  0  0  0  0  0  0  0  0  0  0  0
    6.3080  -21.6717   27.1538 N   0  0  0  0  0  0  0  0  0  0  0  0
    6.6455  -19.3834   26.6269 N   0  0  0  0  0  0  0  0  0  0  0  0
    7.0236  -18.7557   25.3422 C   0  0  0  0  0  0  0  0  0  0  0  0
    7.7806  -17.5214   25.7023 C   0  0  0  0  0  0  0  0  0  0  0  0
    8.3335  -16.6521   24.6791 C   0  0  0  0  0  0  0  0  0  0  0  0
    9.0508  -15.3960   24.9107 C   0  0  2  0  0  0  0  0  0  0  0  0
    9.3750  -14.9368   23.5037 N   0  0  0  0  0  0  0  0  0  0  0  0
   10.2968  -15.3646   25.6627 C   0  0  0  0  0  0  0  0  0  0  0  0
   11.4182  -15.5134   25.1419 O   0  0  0  0  0  0  0  0  0  0  0  0
   10.3343  -15.1605   27.0574 O   0  0  0  0  0  0  0  0  0  0  0  0
  2  1  1  0
  3  2  1  0
  3  4  1  1
  5  7  1  0
  5  3  1  0
  6  5  2  0
  7  8  1  0
  9  8  1  0
 10 11  1  0
 10  9  1  0
 11  7  1  0
 11 12  1  1
 13 12  2  0
 15 14  1  0
 15 16  2  0
 17 15  1  0
 18 17  1  0
 19 18  1  0
 20 19  1  0
 21 22  1  0
 21 20  1  6
 22 12  1  0
 23 21  1  0
 24 23  2  0
 25 23  1  0
M  END
$$$$
