SPR.pdb
     RDKit          3D

 25 25  0  0  1  0  0  0  0  0999 V2000
    8.3127  -17.6940   17.0563 O   0  0  0  0  0  0  0  0  0  0  0  0
    7.6834  -16.6654   16.3739 C   0  0  0  0  0  0  0  0  0  0  0  0
    8.6434  -15.4866   16.1739 C   0  0  2  0  0  0  0  0  0  0  0  0
    9.5892  -15.8870   15.1743 N   0  0  0  0  0  0  0  0  0  0  0  0
    9.2231  -15.0573   17.4525 C   0  0  0  0  0  0  0  0  0  0  0  0
   10.4594  -15.3463   17.6231 O   0  0  0  0  0  0  0  0  0  0  0  0
    8.5705  -14.3742   18.4890 N   0  0  0  0  0  0  0  0  0  0  0  0
    7.1908  -13.9363   18.5856 C   0  0  0  0  0  0  0  0  0  0  0  0
    7.1280  -12.8459   19.6226 C   0  0  0  0  0  0  0  0  0  0  0  0
    8.5771  -12.5911   19.9529 C   0  0  0  0  0  0  0  0  0  0  0  0
    9.1816  -13.9497   19.7355 C   0  0  1  0  0  0  0  0  0  0  0  0
    8.8596  -14.9012   20.8412 C   0  0  0  0  0  0  0  0  0  0  0  0
    7.7724  -15.5181   20.8977 O   0  0  0  0  0  0  0  0  0  0  0  0
   13.6600  -19.0616   26.3464 N   0  0  0  0  0  0  0  0  0  0  0  0
   12.7025  -20.0042   25.8355 C   0  0  0  0  0  0  0  0  0  0  0  0
   12.1676  -20.8337   26.6360 N   0  0  0  0  0  0  0  0  0  0  0  0
   12.4327  -19.9266   24.4600 N   0  0  0  0  0  0  0  0  0  0  0  0
   12.5475  -18.6117   23.7925 C   0  0  0  0  0  0  0  0  0  0  0  0
   11.1531  -18.0937   23.6768 C   0  0  0  0  0  0  0  0  0  0  0  0
   10.8759  -16.8102   23.0569 C   0  0  0  0  0  0  0  0  0  0  0  0
    9.5582  -16.1848   22.9220 C   0  0  2  0  0  0  0  0  0  0  0  0
    9.8022  -15.1254   21.8667 N   0  0  0  0  0  0  0  0  0  0  0  0
    8.9182  -15.5198   24.0477 C   0  0  0  0  0  0  0  0  0  0  0  0
    8.9914  -14.2939   24.2543 O   0  0  0  0  0  0  0  0  0  0  0  0
    8.1548  -16.2187   25.0053 O   0  0  0  0  0  0  0  0  0  0  0  0
  2  1  1  0
  3  2  1  0
  3  4  1  6
  5  7  1  0
  5  3  1  0
  6  5  2  0
  7  8  1  0
  9  8  1  0
 10 11  1  0
 10  9  1  0
 11  7  1  0
 11 12  1  1
 13 12  2  0
 15 14  1  0
 15 16  2  0
 17 15  1  0
 18 17  1  0
 19 18  1  0
 20 19  1  0
 21 22  1  0
 21 20  1  1
 22 12  1  0
 23 21  1  0
 24 23  2  0
 25 23  1  0
M  END
$$$$
