SPR.pdb
     RDKit          3D

 25 25  0  0  1  0  0  0  0  0999 V2000
   10.7809  -13.4421   19.3427 O   0  0  0  0  0  0  0  0  0  0  0  0
    9.9702  -13.7763   18.2701 C   0  0  0  0  0  0  0  0  0  0  0  0
    8.4952  -13.5409   18.6171 C   0  0  2  0  0  0  0  0  0  0  0  0
    8.2925  -12.1222   18.6255 N   0  0  0  0  0  0  0  0  0  0  0  0
    8.1291  -14.2361   19.8571 C   0  0  0  0  0  0  0  0  0  0  0  0
    7.7466  -13.4831   20.8202 O   0  0  0  0  0  0  0  0  0  0  0  0
    8.1557  -15.6189   20.0899 N   0  0  0  0  0  0  0  0  0  0  0  0
    8.6485  -16.6914   19.2464 C   0  0  0  0  0  0  0  0  0  0  0  0
    8.0043  -17.9713   19.7098 C   0  0  0  0  0  0  0  0  0  0  0  0
    6.9981  -17.5081   20.7329 C   0  0  0  0  0  0  0  0  0  0  0  0
    7.6695  -16.2826   21.2859 C   0  0  1  0  0  0  0  0  0  0  0  0
    8.7958  -16.6163   22.2088 C   0  0  0  0  0  0  0  0  0  0  0  0
    9.9534  -16.8496   21.7948 O   0  0  0  0  0  0  0  0  0  0  0  0
    5.1853  -12.5915   25.9238 N   0  0  0  0  0  0  0  0  0  0  0  0
    6.4115  -12.0740   26.4669 C   0  0  0  0  0  0  0  0  0  0  0  0
    6.5166  -10.8236   26.6680 N   0  0  0  0  0  0  0  0  0  0  0  0
    7.4149  -13.0183   26.7361 N   0  0  0  0  0  0  0  0  0  0  0  0
    7.4602  -14.2506   25.9193 C   0  0  0  0  0  0  0  0  0  0  0  0
    8.5667  -15.0733   26.4895 C   0  0  0  0  0  0  0  0  0  0  0  0
    8.9869  -16.3112   25.8574 C   0  0  0  0  0  0  0  0  0  0  0  0
    9.6942  -16.4299   24.5802 C   0  0  2  0  0  0  0  0  0  0  0  0
    8.5656  -16.6749   23.5995 N   0  0  0  0  0  0  0  0  0  0  0  0
   10.6817  -17.4760   24.3573 C   0  0  0  0  0  0  0  0  0  0  0  0
   11.8739  -17.3813   24.7047 O   0  0  0  0  0  0  0  0  0  0  0  0
   10.3637  -18.6946   23.7233 O   0  0  0  0  0  0  0  0  0  0  0  0
  2  1  1  0
  3  2  1  0
  3  4  1  1
  5  7  1  0
  5  3  1  0
  6  5  2  0
  7  8  1  0
  9  8  1  0
 10 11  1  0
 10  9  1  0
 11  7  1  0
 11 12  1  1
 13 12  2  0
 15 14  1  0
 15 16  2  0
 17 15  1  0
 18 17  1  0
 19 18  1  0
 20 19  1  0
 21 22  1  0
 21 20  1  1
 22 12  1  0
 23 21  1  0
 24 23  2  0
 25 23  1  0
M  END
$$$$
