SPR.pdb
     RDKit          3D

 25 25  0  0  1  0  0  0  0  0999 V2000
    7.1680  -18.1904   16.8590 O   0  0  0  0  0  0  0  0  0  0  0  0
    7.7586  -17.6688   17.9986 C   0  0  0  0  0  0  0  0  0  0  0  0
    8.7110  -16.5235   17.6345 C   0  0  2  0  0  0  0  0  0  0  0  0
    9.7223  -17.0795   16.7847 N   0  0  0  0  0  0  0  0  0  0  0  0
    9.2046  -15.8465   18.8399 C   0  0  0  0  0  0  0  0  0  0  0  0
   10.4086  -16.1262   19.1766 O   0  0  0  0  0  0  0  0  0  0  0  0
    8.5025  -14.9395   19.6469 N   0  0  0  0  0  0  0  0  0  0  0  0
    7.1363  -14.4645   19.5350 C   0  0  0  0  0  0  0  0  0  0  0  0
    7.0368  -13.1716   20.3007 C   0  0  0  0  0  0  0  0  0  0  0  0
    8.4658  -12.8782   20.6825 C   0  0  0  0  0  0  0  0  0  0  0  0
    9.0348  -14.2627   20.8157 C   0  0  1  0  0  0  0  0  0  0  0  0
    8.5977  -14.9409   22.0729 C   0  0  0  0  0  0  0  0  0  0  0  0
    7.4731  -15.4777   22.1873 O   0  0  0  0  0  0  0  0  0  0  0  0
   14.5362  -16.1182   21.3483 N   0  0  0  0  0  0  0  0  0  0  0  0
   15.0979  -16.3617   22.6488 C   0  0  0  0  0  0  0  0  0  0  0  0
   16.2390  -15.8768   22.9273 N   0  0  0  0  0  0  0  0  0  0  0  0
   14.3181  -17.1348   23.5236 N   0  0  0  0  0  0  0  0  0  0  0  0
   13.0041  -17.6230   23.0516 C   0  0  0  0  0  0  0  0  0  0  0  0
   11.9870  -16.7723   23.7357 C   0  0  0  0  0  0  0  0  0  0  0  0
   10.5654  -17.0056   23.5539 C   0  0  0  0  0  0  0  0  0  0  0  0
    9.4806  -16.1894   24.1043 C   0  0  2  0  0  0  0  0  0  0  0  0
    9.4699  -14.9884   23.1807 N   0  0  0  0  0  0  0  0  0  0  0  0
    9.5372  -15.6751   25.4650 C   0  0  0  0  0  0  0  0  0  0  0  0
    9.8639  -14.5065   25.7453 O   0  0  0  0  0  0  0  0  0  0  0  0
    9.2227  -16.4681   26.5876 O   0  0  0  0  0  0  0  0  0  0  0  0
  2  1  1  0
  3  2  1  0
  3  4  1  1
  5  7  1  0
  5  3  1  0
  6  5  2  0
  7  8  1  0
  9  8  1  0
 10 11  1  0
 10  9  1  0
 11  7  1  0
 11 12  1  1
 13 12  2  0
 15 14  1  0
 15 16  2  0
 17 15  1  0
 18 17  1  0
 19 18  1  0
 20 19  1  0
 21 22  1  0
 21 20  1  6
 22 12  1  0
 23 21  1  0
 24 23  2  0
 25 23  1  0
M  END
$$$$
