SPR.pdb
     RDKit          3D

 25 25  0  0  1  0  0  0  0  0999 V2000
    7.1465  -15.7349   21.2099 O   0  0  0  0  0  0  0  0  0  0  0  0
    6.4599  -14.5376   21.0898 C   0  0  0  0  0  0  0  0  0  0  0  0
    7.3904  -13.3530   21.3767 C   0  0  2  0  0  0  0  0  0  0  0  0
    8.2320  -13.1988   20.2269 N   0  0  0  0  0  0  0  0  0  0  0  0
    8.0946  -13.5341   22.6520 C   0  0  0  0  0  0  0  0  0  0  0  0
    9.3479  -13.7828   22.5605 O   0  0  0  0  0  0  0  0  0  0  0  0
    7.5425  -13.4635   23.9394 N   0  0  0  0  0  0  0  0  0  0  0  0
    6.1803  -13.1789   24.3492 C   0  0  0  0  0  0  0  0  0  0  0  0
    6.2187  -12.7307   25.7865 C   0  0  0  0  0  0  0  0  0  0  0  0
    7.6934  -12.6142   26.0791 C   0  0  0  0  0  0  0  0  0  0  0  0
    8.2659  -13.6738   25.1803 C   0  0  1  0  0  0  0  0  0  0  0  0
    8.0374  -15.0531   25.7065 C   0  0  0  0  0  0  0  0  0  0  0  0
    7.1816  -15.8231   25.2158 O   0  0  0  0  0  0  0  0  0  0  0  0
   15.1348  -15.6085   23.8235 N   0  0  0  0  0  0  0  0  0  0  0  0
   14.8983  -16.9782   23.4572 C   0  0  0  0  0  0  0  0  0  0  0  0
   15.6454  -17.5198   22.5835 N   0  0  0  0  0  0  0  0  0  0  0  0
   13.8343  -17.6180   24.1127 N   0  0  0  0  0  0  0  0  0  0  0  0
   12.4807  -17.0334   23.9954 C   0  0  0  0  0  0  0  0  0  0  0  0
   12.0129  -16.8126   25.3948 C   0  0  0  0  0  0  0  0  0  0  0  0
   10.7175  -16.2171   25.6703 C   0  0  0  0  0  0  0  0  0  0  0  0
    9.7287  -16.7110   26.6316 C   0  0  2  0  0  0  0  0  0  0  0  0
    8.8039  -15.5219   26.7941 N   0  0  0  0  0  0  0  0  0  0  0  0
   10.1190  -17.1283   27.9705 C   0  0  0  0  0  0  0  0  0  0  0  0
   10.2900  -16.3354   28.9154 O   0  0  0  0  0  0  0  0  0  0  0  0
   10.3369  -18.4797   28.3087 O   0  0  0  0  0  0  0  0  0  0  0  0
  2  1  1  0
  3  2  1  0
  3  4  1  6
  5  7  1  0
  5  3  1  0
  6  5  2  0
  7  8  1  0
  9  8  1  0
 10 11  1  0
 10  9  1  0
 11  7  1  0
 11 12  1  1
 13 12  2  0
 15 14  1  0
 15 16  2  0
 17 15  1  0
 18 17  1  0
 19 18  1  0
 20 19  1  0
 21 22  1  0
 21 20  1  6
 22 12  1  0
 23 21  1  0
 24 23  2  0
 25 23  1  0
M  END
$$$$
