MKQ.pdb
     RDKit          3D

 27 26  0  0  1  0  0  0  0  0999 V2000
    7.5675  -11.7663   26.9502 C   0  0  0  0  0  0  0  0  0  0  0  0
    5.9893  -12.5579   27.3780 S   0  0  0  0  0  0  0  0  0  0  0  0
    6.1173  -14.3110   26.9244 C   0  0  0  0  0  0  0  0  0  0  0  0
    7.1105  -14.5388   25.8310 C   0  0  0  0  0  0  0  0  0  0  0  0
    6.4628  -15.3477   24.7371 C   0  0  2  0  0  0  0  0  0  0  0  0
    6.1202  -16.6783   25.1896 N   0  0  0  0  0  0  0  0  0  0  0  0
    7.3079  -15.4608   23.5340 C   0  0  0  0  0  0  0  0  0  0  0  0
    7.9059  -16.5374   23.3131 O   0  0  0  0  0  0  0  0  0  0  0  0
    7.4351  -14.3779   22.6580 N   0  0  0  0  0  0  0  0  0  0  0  0
    8.2588  -14.4315   21.4404 C   0  0  1  0  0  0  0  0  0  0  0  0
    8.1410  -13.0491   20.8339 C   0  0  0  0  0  0  0  0  0  0  0  0
    7.5141  -13.0306   19.4869 C   0  0  0  0  0  0  0  0  0  0  0  0
    8.4457  -13.6449   18.4795 C   0  0  0  0  0  0  0  0  0  0  0  0
    7.8323  -13.7481   17.1216 C   0  0  0  0  0  0  0  0  0  0  0  0
    8.7445  -14.4816   16.2641 N   0  0  0  0  0  0  0  0  0  0  0  0
    9.6203  -14.7951   21.8490 C   0  0  0  0  0  0  0  0  0  0  0  0
   10.3296  -13.9412   22.4372 O   0  0  0  0  0  0  0  0  0  0  0  0
   12.5248  -17.7280   25.6428 N   0  0  0  0  0  0  0  0  0  0  0  0
   11.1043  -17.8201   25.4427 C   0  0  0  0  0  0  0  0  0  0  0  0
   10.4238  -18.3154   26.3509 O   0  0  0  0  0  0  0  0  0  0  0  0
   10.6005  -17.3086   24.1586 C   0  0  0  0  0  0  0  0  0  0  0  0
   11.5682  -16.4102   23.4828 C   0  0  0  0  0  0  0  0  0  0  0  0
   11.5091  -16.3681   21.9951 C   0  0  2  0  0  0  0  0  0  0  0  0
   10.1494  -16.0693   21.5997 N   0  0  0  0  0  0  0  0  0  0  0  0
   11.9956  -17.6229   21.3602 C   0  0  0  0  0  0  0  0  0  0  0  0
   13.2110  -17.9075   21.5113 O   0  0  0  0  0  0  0  0  0  0  0  0
   11.2028  -18.4661   20.6347 O   0  0  0  0  0  0  0  0  0  0  0  0
  1  2  1  0
  3  4  1  0
  3  2  1  0
  4  5  1  0
  5  6  1  1
  7  8  2  0
  7  5  1  0
  9  7  1  0
 10  9  1  0
 10 11  1  1
 11 12  1  0
 12 13  1  0
 13 14  1  0
 14 15  1  0
 16 10  1  0
 17 16  2  0
 19 18  1  0
 19 21  1  0
 20 19  2  0
 23 22  1  1
 22 21  1  0
 23 24  1  0
 24 16  1  0
 25 23  1  0
 26 25  2  0
 27 25  1  0
M  END
$$$$
