MKQ.pdb
     RDKit          3D

 27 26  0  0  1  0  0  0  0  0999 V2000
    8.5800  -12.1730   19.6124 C   0  0  0  0  0  0  0  0  0  0  0  0
    8.2156  -13.2093   18.1654 S   0  0  0  0  0  0  0  0  0  0  0  0
    8.0761  -14.9245   18.7437 C   0  0  0  0  0  0  0  0  0  0  0  0
    7.4670  -15.0119   20.1058 C   0  0  0  0  0  0  0  0  0  0  0  0
    7.5767  -16.4294   20.6049 C   0  0  2  0  0  0  0  0  0  0  0  0
    6.7988  -17.3414   19.7950 N   0  0  0  0  0  0  0  0  0  0  0  0
    7.1589  -16.5731   22.0118 C   0  0  0  0  0  0  0  0  0  0  0  0
    6.2556  -15.8288   22.4543 O   0  0  0  0  0  0  0  0  0  0  0  0
    7.7670  -17.5277   22.8333 N   0  0  0  0  0  0  0  0  0  0  0  0
    7.5433  -17.5863   24.2861 C   0  0  1  0  0  0  0  0  0  0  0  0
    8.0079  -18.9688   24.6925 C   0  0  0  0  0  0  0  0  0  0  0  0
    7.9343  -19.2269   26.1540 C   0  0  0  0  0  0  0  0  0  0  0  0
    8.3789  -20.6323   26.4493 C   0  0  0  0  0  0  0  0  0  0  0  0
    8.2235  -20.9904   27.8909 C   0  0  0  0  0  0  0  0  0  0  0  0
    8.6409  -22.3690   28.0657 N   0  0  0  0  0  0  0  0  0  0  0  0
    8.3104  -16.4917   24.8913 C   0  0  0  0  0  0  0  0  0  0  0  0
    9.5038  -16.3160   24.5405 O   0  0  0  0  0  0  0  0  0  0  0  0
    5.9909  -11.2214   26.3855 N   0  0  0  0  0  0  0  0  0  0  0  0
    6.2767  -11.7356   27.6971 C   0  0  0  0  0  0  0  0  0  0  0  0
    5.7431  -11.1778   28.6652 O   0  0  0  0  0  0  0  0  0  0  0  0
    7.1885  -12.8888   27.7520 C   0  0  0  0  0  0  0  0  0  0  0  0
    7.6391  -13.3247   26.4077 C   0  0  0  0  0  0  0  0  0  0  0  0
    8.5192  -14.5253   26.3585 C   0  0  2  0  0  0  0  0  0  0  0  0
    7.7465  -15.6384   25.8501 N   0  0  0  0  0  0  0  0  0  0  0  0
    9.1337  -14.8475   27.6750 C   0  0  0  0  0  0  0  0  0  0  0  0
    9.9495  -14.0145   28.1456 O   0  0  0  0  0  0  0  0  0  0  0  0
    8.8610  -15.9821   28.3852 O   0  0  0  0  0  0  0  0  0  0  0  0
  1  2  1  0
  3  4  1  0
  3  2  1  0
  4  5  1  0
  5  6  1  6
  7  8  2  0
  7  5  1  0
  9  7  1  0
 10  9  1  0
 10 11  1  1
 11 12  1  0
 12 13  1  0
 13 14  1  0
 14 15  1  0
 16 10  1  0
 17 16  2  0
 19 18  1  0
 19 21  1  0
 20 19  2  0
 23 22  1  1
 22 21  1  0
 23 24  1  0
 24 16  1  0
 25 23  1  0
 26 25  2  0
 27 25  1  0
M  END
$$$$
