MKQ.pdb
     RDKit          3D

 27 26  0  0  1  0  0  0  0  0999 V2000
    7.9750  -11.8093   27.8519 C   0  0  0  0  0  0  0  0  0  0  0  0
    6.4253  -11.4613   26.9701 S   0  0  0  0  0  0  0  0  0  0  0  0
    5.8895  -13.0045   26.1782 C   0  0  0  0  0  0  0  0  0  0  0  0
    7.0376  -13.7735   25.6088 C   0  0  0  0  0  0  0  0  0  0  0  0
    6.5056  -14.9404   24.8177 C   0  0  2  0  0  0  0  0  0  0  0  0
    5.7456  -15.8468   25.6504 N   0  0  0  0  0  0  0  0  0  0  0  0
    7.5700  -15.7025   24.1388 C   0  0  0  0  0  0  0  0  0  0  0  0
    7.9213  -16.8059   24.6130 O   0  0  0  0  0  0  0  0  0  0  0  0
    8.1734  -15.1944   22.9840 N   0  0  0  0  0  0  0  0  0  0  0  0
    9.1996  -15.9323   22.2314 C   0  0  1  0  0  0  0  0  0  0  0  0
    9.5171  -15.0485   21.0437 C   0  0  0  0  0  0  0  0  0  0  0  0
    8.4705  -15.0530   19.9889 C   0  0  0  0  0  0  0  0  0  0  0  0
    8.8548  -14.1116   18.8816 C   0  0  0  0  0  0  0  0  0  0  0  0
    7.8713  -14.1188   17.7576 C   0  0  0  0  0  0  0  0  0  0  0  0
    8.3413  -13.2030   16.7349 N   0  0  0  0  0  0  0  0  0  0  0  0
   10.3327  -16.1524   23.1373 C   0  0  0  0  0  0  0  0  0  0  0  0
   10.7728  -15.1871   23.8100 O   0  0  0  0  0  0  0  0  0  0  0  0
   12.9950  -19.7180   28.3844 N   0  0  0  0  0  0  0  0  0  0  0  0
   12.0754  -19.3594   27.3394 C   0  0  0  0  0  0  0  0  0  0  0  0
   10.9255  -19.0376   27.6670 O   0  0  0  0  0  0  0  0  0  0  0  0
   12.6058  -19.4140   25.9683 C   0  0  0  0  0  0  0  0  0  0  0  0
   11.6264  -18.9441   24.9582 C   0  0  0  0  0  0  0  0  0  0  0  0
   11.9095  -17.6288   24.3193 C   0  0  2  0  0  0  0  0  0  0  0  0
   10.9362  -17.4108   23.2706 N   0  0  0  0  0  0  0  0  0  0  0  0
   13.2999  -17.5245   23.7995 C   0  0  0  0  0  0  0  0  0  0  0  0
   13.4455  -17.5164   22.5506 O   0  0  0  0  0  0  0  0  0  0  0  0
   14.4061  -17.4385   24.5963 O   0  0  0  0  0  0  0  0  0  0  0  0
  1  2  1  0
  3  4  1  0
  3  2  1  0
  4  5  1  0
  5  6  1  1
  7  8  2  0
  7  5  1  0
  9  7  1  0
 10  9  1  0
 10 11  1  6
 11 12  1  0
 12 13  1  0
 13 14  1  0
 14 15  1  0
 16 10  1  0
 17 16  2  0
 19 18  1  0
 19 21  1  0
 20 19  2  0
 23 22  1  6
 22 21  1  0
 23 24  1  0
 24 16  1  0
 25 23  1  0
 26 25  2  0
 27 25  1  0
M  END
$$$$
