MKQ.pdb
     RDKit          3D

 27 26  0  0  1  0  0  0  0  0999 V2000
    7.8172  -11.4617   26.5582 C   0  0  0  0  0  0  0  0  0  0  0  0
    6.3700  -12.3205   25.8736 S   0  0  0  0  0  0  0  0  0  0  0  0
    6.9777  -13.5569   24.6914 C   0  0  0  0  0  0  0  0  0  0  0  0
    7.6465  -12.9276   23.5122 C   0  0  0  0  0  0  0  0  0  0  0  0
    8.0988  -14.0098   22.5662 C   0  0  2  0  0  0  0  0  0  0  0  0
    6.9977  -14.5295   21.7851 N   0  0  0  0  0  0  0  0  0  0  0  0
    8.7591  -15.1326   23.2574 C   0  0  0  0  0  0  0  0  0  0  0  0
    8.9170  -15.0719   24.4971 O   0  0  0  0  0  0  0  0  0  0  0  0
    9.1998  -16.2447   22.5328 N   0  0  0  0  0  0  0  0  0  0  0  0
    9.6819  -17.4755   23.1784 C   0  0  1  0  0  0  0  0  0  0  0  0
   10.0247  -18.4036   22.0322 C   0  0  0  0  0  0  0  0  0  0  0  0
    8.8596  -19.1457   21.4850 C   0  0  0  0  0  0  0  0  0  0  0  0
    9.2681  -19.9051   20.2535 C   0  0  0  0  0  0  0  0  0  0  0  0
    8.1392  -20.0864   19.2926 C   0  0  0  0  0  0  0  0  0  0  0  0
    8.6644  -20.6864   18.0804 N   0  0  0  0  0  0  0  0  0  0  0  0
   10.8274  -17.1088   24.0188 C   0  0  0  0  0  0  0  0  0  0  0  0
   11.7310  -16.3820   23.5357 O   0  0  0  0  0  0  0  0  0  0  0  0
   11.2617  -14.8663   29.6450 N   0  0  0  0  0  0  0  0  0  0  0  0
   10.2038  -15.7205   29.1787 C   0  0  0  0  0  0  0  0  0  0  0  0
    9.0782  -15.5675   29.6713 O   0  0  0  0  0  0  0  0  0  0  0  0
   10.5761  -16.7029   28.1490 C   0  0  0  0  0  0  0  0  0  0  0  0
   11.5681  -16.1699   27.1835 C   0  0  0  0  0  0  0  0  0  0  0  0
   12.0642  -17.1187   26.1480 C   0  0  2  0  0  0  0  0  0  0  0  0
   10.9394  -17.5488   25.3453 N   0  0  0  0  0  0  0  0  0  0  0  0
   12.7929  -18.2795   26.7275 C   0  0  0  0  0  0  0  0  0  0  0  0
   12.3099  -19.4215   26.5182 O   0  0  0  0  0  0  0  0  0  0  0  0
   13.9393  -18.1692   27.4620 O   0  0  0  0  0  0  0  0  0  0  0  0
  1  2  1  0
  3  4  1  0
  3  2  1  0
  4  5  1  0
  5  6  1  1
  7  8  2  0
  7  5  1  0
  9  7  1  0
 10  9  1  0
 10 11  1  6
 11 12  1  0
 12 13  1  0
 13 14  1  0
 14 15  1  0
 16 10  1  0
 17 16  2  0
 19 18  1  0
 19 21  1  0
 20 19  2  0
 23 22  1  1
 22 21  1  0
 23 24  1  0
 24 16  1  0
 25 23  1  0
 26 25  2  0
 27 25  1  0
M  END
$$$$
