MKQ.pdb
     RDKit          3D

 27 26  0  0  1  0  0  0  0  0999 V2000
    5.5202  -10.6693   27.4694 C   0  0  0  0  0  0  0  0  0  0  0  0
    6.9475  -11.7340   27.1093 S   0  0  0  0  0  0  0  0  0  0  0  0
    6.3412  -13.1565   26.1583 C   0  0  0  0  0  0  0  0  0  0  0  0
    7.4396  -14.1059   25.8032 C   0  0  0  0  0  0  0  0  0  0  0  0
    6.8637  -15.2530   25.0138 C   0  0  2  0  0  0  0  0  0  0  0  0
    5.9502  -16.0428   25.8102 N   0  0  0  0  0  0  0  0  0  0  0  0
    7.9012  -16.1440   24.4622 C   0  0  0  0  0  0  0  0  0  0  0  0
    8.2748  -17.1291   25.1373 O   0  0  0  0  0  0  0  0  0  0  0  0
    8.4550  -15.8864   23.2040 N   0  0  0  0  0  0  0  0  0  0  0  0
    9.5292  -16.7070   22.6239 C   0  0  1  0  0  0  0  0  0  0  0  0
    9.5906  -16.2901   21.1696 C   0  0  0  0  0  0  0  0  0  0  0  0
   10.6686  -16.9564   20.3938 C   0  0  0  0  0  0  0  0  0  0  0  0
   10.0690  -17.7985   19.3023 C   0  0  0  0  0  0  0  0  0  0  0  0
   11.1055  -18.4888   18.4777 C   0  0  0  0  0  0  0  0  0  0  0  0
   10.8225  -19.9119   18.4879 N   0  0  0  0  0  0  0  0  0  0  0  0
   10.7531  -16.4255   23.3826 C   0  0  0  0  0  0  0  0  0  0  0  0
   11.2795  -15.2885   23.2918 O   0  0  0  0  0  0  0  0  0  0  0  0
   12.3764  -16.3722   28.6672 N   0  0  0  0  0  0  0  0  0  0  0  0
   11.2748  -17.2386   28.3480 C   0  0  0  0  0  0  0  0  0  0  0  0
   10.5000  -17.5490   29.2625 O   0  0  0  0  0  0  0  0  0  0  0  0
   11.1828  -17.6730   26.9454 C   0  0  0  0  0  0  0  0  0  0  0  0
   12.5019  -17.6967   26.2674 C   0  0  0  0  0  0  0  0  0  0  0  0
   12.5671  -17.0699   24.9179 C   0  0  2  0  0  0  0  0  0  0  0  0
   11.3496  -17.3918   24.2048 N   0  0  0  0  0  0  0  0  0  0  0  0
   13.7722  -17.4793   24.1466 C   0  0  0  0  0  0  0  0  0  0  0  0
   14.8905  -17.1305   24.6035 O   0  0  0  0  0  0  0  0  0  0  0  0
   13.7256  -18.2020   22.9884 O   0  0  0  0  0  0  0  0  0  0  0  0
  1  2  1  0
  3  4  1  0
  3  2  1  0
  4  5  1  0
  5  6  1  1
  7  8  2  0
  7  5  1  0
  9  7  1  0
 10  9  1  0
 10 11  1  6
 11 12  1  0
 12 13  1  0
 13 14  1  0
 14 15  1  0
 16 10  1  0
 17 16  2  0
 19 18  1  0
 19 21  1  0
 20 19  2  0
 23 22  1  1
 22 21  1  0
 23 24  1  0
 24 16  1  0
 25 23  1  0
 26 25  2  0
 27 25  1  0
M  END
$$$$
