MKQ.pdb
     RDKit          3D

 27 26  0  0  1  0  0  0  0  0999 V2000
    7.2845  -11.5458   21.5150 C   0  0  0  0  0  0  0  0  0  0  0  0
    7.8557  -11.8723   19.8216 S   0  0  0  0  0  0  0  0  0  0  0  0
    7.5116  -13.6169   19.4562 C   0  0  0  0  0  0  0  0  0  0  0  0
    7.7147  -14.4931   20.6500 C   0  0  0  0  0  0  0  0  0  0  0  0
    8.9136  -15.3754   20.4158 C   0  0  2  0  0  0  0  0  0  0  0  0
    8.7198  -16.2468   19.2776 N   0  0  0  0  0  0  0  0  0  0  0  0
    9.2533  -16.2002   21.5900 C   0  0  0  0  0  0  0  0  0  0  0  0
    9.3842  -15.6442   22.7032 O   0  0  0  0  0  0  0  0  0  0  0  0
    9.4254  -17.5815   21.4546 N   0  0  0  0  0  0  0  0  0  0  0  0
    9.7353  -18.4605   22.5928 C   0  0  1  0  0  0  0  0  0  0  0  0
   10.0294  -19.8089   21.9700 C   0  0  0  0  0  0  0  0  0  0  0  0
   10.4447  -20.8491   22.9464 C   0  0  0  0  0  0  0  0  0  0  0  0
    9.2854  -21.7555   23.2537 C   0  0  0  0  0  0  0  0  0  0  0  0
    9.6222  -22.7868   24.2802 C   0  0  0  0  0  0  0  0  0  0  0  0
    8.4211  -23.5458   24.5748 N   0  0  0  0  0  0  0  0  0  0  0  0
   10.8713  -17.8672   23.3071 C   0  0  0  0  0  0  0  0  0  0  0  0
   11.6346  -17.0805   22.6934 O   0  0  0  0  0  0  0  0  0  0  0  0
    7.9173  -14.7638   25.6798 N   0  0  0  0  0  0  0  0  0  0  0  0
    8.9631  -14.2650   26.5305 C   0  0  0  0  0  0  0  0  0  0  0  0
    8.7446  -13.2246   27.1653 O   0  0  0  0  0  0  0  0  0  0  0  0
   10.2034  -15.0557   26.5572 C   0  0  0  0  0  0  0  0  0  0  0  0
   10.1969  -16.1614   25.5685 C   0  0  0  0  0  0  0  0  0  0  0  0
   11.3748  -17.0729   25.5828 C   0  0  2  0  0  0  0  0  0  0  0  0
   11.1265  -18.1556   24.6551 N   0  0  0  0  0  0  0  0  0  0  0  0
   11.6939  -17.5859   26.9428 C   0  0  0  0  0  0  0  0  0  0  0  0
   12.2217  -16.7791   27.7500 O   0  0  0  0  0  0  0  0  0  0  0  0
   11.4469  -18.8658   27.3511 O   0  0  0  0  0  0  0  0  0  0  0  0
  1  2  1  0
  3  4  1  0
  3  2  1  0
  4  5  1  0
  5  6  1  6
  7  8  2  0
  7  5  1  0
  9  7  1  0
 10  9  1  0
 10 11  1  6
 11 12  1  0
 12 13  1  0
 13 14  1  0
 14 15  1  0
 16 10  1  0
 17 16  2  0
 19 18  1  0
 19 21  1  0
 20 19  2  0
 23 22  1  1
 22 21  1  0
 23 24  1  0
 24 16  1  0
 25 23  1  0
 26 25  2  0
 27 25  1  0
M  END
$$$$
