MKQ.pdb
     RDKit          3D

 27 26  0  0  1  0  0  0  0  0999 V2000
    8.5346  -12.0243   27.4955 C   0  0  0  0  0  0  0  0  0  0  0  0
    6.8072  -12.3889   27.0673 S   0  0  0  0  0  0  0  0  0  0  0  0
    6.5707  -14.1813   27.2315 C   0  0  0  0  0  0  0  0  0  0  0  0
    7.3871  -14.9500   26.2433 C   0  0  0  0  0  0  0  0  0  0  0  0
    6.4699  -15.5654   25.2184 C   0  0  2  0  0  0  0  0  0  0  0  0
    5.7623  -16.7079   25.7538 N   0  0  0  0  0  0  0  0  0  0  0  0
    7.1789  -15.9801   23.9938 C   0  0  0  0  0  0  0  0  0  0  0  0
    7.6672  -17.1308   23.9371 O   0  0  0  0  0  0  0  0  0  0  0  0
    7.3004  -15.0966   22.9165 N   0  0  0  0  0  0  0  0  0  0  0  0
    8.1309  -15.3879   21.7378 C   0  0  1  0  0  0  0  0  0  0  0  0
    7.7099  -14.3625   20.7063 C   0  0  0  0  0  0  0  0  0  0  0  0
    8.3877  -14.5119   19.3925 C   0  0  0  0  0  0  0  0  0  0  0  0
    7.9133  -13.4441   18.4466 C   0  0  0  0  0  0  0  0  0  0  0  0
    8.5592  -13.5415   17.1035 C   0  0  0  0  0  0  0  0  0  0  0  0
    8.2636  -12.3270   16.3665 N   0  0  0  0  0  0  0  0  0  0  0  0
    9.5339  -15.2815   22.1539 C   0  0  0  0  0  0  0  0  0  0  0  0
    9.8304  -14.5262   23.1129 O   0  0  0  0  0  0  0  0  0  0  0  0
   10.1646  -17.8100   25.8577 N   0  0  0  0  0  0  0  0  0  0  0  0
   11.5222  -18.2201   25.6232 C   0  0  0  0  0  0  0  0  0  0  0  0
   12.1918  -18.5860   26.5984 O   0  0  0  0  0  0  0  0  0  0  0  0
   11.9808  -18.1603   24.2267 C   0  0  0  0  0  0  0  0  0  0  0  0
   11.0292  -17.4428   23.3436 C   0  0  0  0  0  0  0  0  0  0  0  0
   11.6251  -16.5744   22.2904 C   0  0  2  0  0  0  0  0  0  0  0  0
   10.5506  -16.0000   21.5093 N   0  0  0  0  0  0  0  0  0  0  0  0
   12.5983  -17.2962   21.4265 C   0  0  0  0  0  0  0  0  0  0  0  0
   13.6639  -17.6874   21.9672 O   0  0  0  0  0  0  0  0  0  0  0  0
   12.3960  -17.5506   20.0997 O   0  0  0  0  0  0  0  0  0  0  0  0
  1  2  1  0
  3  4  1  0
  3  2  1  0
  4  5  1  0
  5  6  1  1
  7  8  2  0
  7  5  1  0
  9  7  1  0
 10  9  1  0
 10 11  1  6
 11 12  1  0
 12 13  1  0
 13 14  1  0
 14 15  1  0
 16 10  1  0
 17 16  2  0
 19 18  1  0
 19 21  1  0
 20 19  2  0
 23 22  1  1
 22 21  1  0
 23 24  1  0
 24 16  1  0
 25 23  1  0
 26 25  2  0
 27 25  1  0
M  END
$$$$
