MKQ.pdb
     RDKit          3D

 27 26  0  0  1  0  0  0  0  0999 V2000
    5.0485  -11.8539   27.3409 C   0  0  0  0  0  0  0  0  0  0  0  0
    6.7861  -12.2462   26.9841 S   0  0  0  0  0  0  0  0  0  0  0  0
    7.0215  -14.0184   27.2995 C   0  0  0  0  0  0  0  0  0  0  0  0
    7.6538  -14.7178   26.1398 C   0  0  0  0  0  0  0  0  0  0  0  0
    6.5971  -15.0156   25.1077 C   0  0  2  0  0  0  0  0  0  0  0  0
    5.7113  -16.0737   25.5417 N   0  0  0  0  0  0  0  0  0  0  0  0
    7.1661  -15.3832   23.7980 C   0  0  0  0  0  0  0  0  0  0  0  0
    7.3990  -16.5884   23.5556 O   0  0  0  0  0  0  0  0  0  0  0  0
    7.4392  -14.3954   22.8462 N   0  0  0  0  0  0  0  0  0  0  0  0
    8.1801  -14.6690   21.6051 C   0  0  1  0  0  0  0  0  0  0  0  0
    8.0043  -13.4198   20.7676 C   0  0  0  0  0  0  0  0  0  0  0  0
    8.8840  -13.3643   19.5714 C   0  0  0  0  0  0  0  0  0  0  0  0
    8.5208  -14.4670   18.6165 C   0  0  0  0  0  0  0  0  0  0  0  0
    7.6114  -14.0032   17.5263 C   0  0  0  0  0  0  0  0  0  0  0  0
    7.2242  -15.1558   16.7344 N   0  0  0  0  0  0  0  0  0  0  0  0
    9.5704  -14.9520   21.9789 C   0  0  0  0  0  0  0  0  0  0  0  0
   10.2309  -14.0716   22.5846 O   0  0  0  0  0  0  0  0  0  0  0  0
   11.8632  -17.2325   26.2886 N   0  0  0  0  0  0  0  0  0  0  0  0
   10.8263  -18.0367   25.7021 C   0  0  0  0  0  0  0  0  0  0  0  0
   10.3399  -18.9440   26.3901 O   0  0  0  0  0  0  0  0  0  0  0  0
   10.4463  -17.6918   24.3233 C   0  0  0  0  0  0  0  0  0  0  0  0
   11.2274  -16.5521   23.7839 C   0  0  0  0  0  0  0  0  0  0  0  0
   11.4344  -16.5266   22.3092 C   0  0  2  0  0  0  0  0  0  0  0  0
   10.1800  -16.1779   21.6772 N   0  0  0  0  0  0  0  0  0  0  0  0
   11.9723  -17.8082   21.7774 C   0  0  0  0  0  0  0  0  0  0  0  0
   11.1875  -18.5231   21.1037 O   0  0  0  0  0  0  0  0  0  0  0  0
   13.2524  -18.2393   21.9806 O   0  0  0  0  0  0  0  0  0  0  0  0
  1  2  1  0
  3  4  1  0
  3  2  1  0
  4  5  1  0
  5  6  1  1
  7  8  2  0
  7  5  1  0
  9  7  1  0
 10  9  1  0
 10 11  1  6
 11 12  1  0
 12 13  1  0
 13 14  1  0
 14 15  1  0
 16 10  1  0
 17 16  2  0
 19 18  1  0
 19 21  1  0
 20 19  2  0
 23 22  1  1
 22 21  1  0
 23 24  1  0
 24 16  1  0
 25 23  1  0
 26 25  2  0
 27 25  1  0
M  END
$$$$
