MKQ.pdb
     RDKit          3D

 27 26  0  0  1  0  0  0  0  0999 V2000
    7.7221  -12.1416   26.5588 C   0  0  0  0  0  0  0  0  0  0  0  0
    6.9027  -11.3504   25.1435 S   0  0  0  0  0  0  0  0  0  0  0  0
    7.1220  -12.4389   23.7073 C   0  0  0  0  0  0  0  0  0  0  0  0
    7.6277  -13.7904   24.0969 C   0  0  0  0  0  0  0  0  0  0  0  0
    7.8694  -14.6041   22.8519 C   0  0  2  0  0  0  0  0  0  0  0  0
    6.6782  -14.6973   22.0364 N   0  0  0  0  0  0  0  0  0  0  0  0
    8.3491  -15.9673   23.1452 C   0  0  0  0  0  0  0  0  0  0  0  0
    7.5227  -16.8362   23.5025 O   0  0  0  0  0  0  0  0  0  0  0  0
    9.7075  -16.2775   23.0244 N   0  0  0  0  0  0  0  0  0  0  0  0
   10.2774  -17.5517   23.4886 C   0  0  1  0  0  0  0  0  0  0  0  0
   10.9321  -18.1510   22.2619 C   0  0  0  0  0  0  0  0  0  0  0  0
   11.5825  -17.1528   21.3741 C   0  0  0  0  0  0  0  0  0  0  0  0
   12.1344  -17.8350   20.1535 C   0  0  0  0  0  0  0  0  0  0  0  0
   12.7662  -16.8760   19.1986 C   0  0  0  0  0  0  0  0  0  0  0  0
   13.2937  -17.6305   18.0770 N   0  0  0  0  0  0  0  0  0  0  0  0
   11.2104  -17.2426   24.5780 C   0  0  0  0  0  0  0  0  0  0  0  0
   12.0464  -16.3181   24.4218 O   0  0  0  0  0  0  0  0  0  0  0  0
    9.9581  -14.3217   28.4884 N   0  0  0  0  0  0  0  0  0  0  0  0
   10.3889  -15.4469   29.2722 C   0  0  0  0  0  0  0  0  0  0  0  0
   10.4699  -15.2994   30.4989 O   0  0  0  0  0  0  0  0  0  0  0  0
   10.6940  -16.6751   28.5221 C   0  0  0  0  0  0  0  0  0  0  0  0
   11.8159  -16.4975   27.5681 C   0  0  0  0  0  0  0  0  0  0  0  0
   12.2146  -17.6969   26.7799 C   0  0  2  0  0  0  0  0  0  0  0  0
   11.1929  -17.9520   25.7872 N   0  0  0  0  0  0  0  0  0  0  0  0
   12.4567  -18.8942   27.6297 C   0  0  0  0  0  0  0  0  0  0  0  0
   11.7605  -19.9144   27.3938 O   0  0  0  0  0  0  0  0  0  0  0  0
   13.3806  -18.9403   28.6348 O   0  0  0  0  0  0  0  0  0  0  0  0
  1  2  1  0
  3  4  1  0
  3  2  1  0
  4  5  1  0
  5  6  1  1
  7  8  2  0
  7  5  1  0
  9  7  1  0
 10  9  1  0
 10 11  1  6
 11 12  1  0
 12 13  1  0
 13 14  1  0
 14 15  1  0
 16 10  1  0
 17 16  2  0
 19 18  1  0
 19 21  1  0
 20 19  2  0
 23 22  1  1
 22 21  1  0
 23 24  1  0
 24 16  1  0
 25 23  1  0
 26 25  2  0
 27 25  1  0
M  END
$$$$
