QQT.pdb
     RDKit          3D

 26 25  0  0  1  0  0  0  0  0999 V2000
   15.5499  -13.1335   17.3822 N   0  0  0  0  0  0  0  0  0  0  0  0
   15.0449  -14.2621   16.6824 C   0  0  0  0  0  0  0  0  0  0  0  0
   15.4875  -14.5208   15.5401 O   0  0  0  0  0  0  0  0  0  0  0  0
   14.0062  -15.0819   17.3556 C   0  0  0  0  0  0  0  0  0  0  0  0
   13.7456  -14.5133   18.7394 C   0  0  0  0  0  0  0  0  0  0  0  0
   12.8364  -15.4819   19.4973 C   0  0  2  0  0  0  0  0  0  0  0  0
   12.0847  -16.2817   18.5770 N   0  0  0  0  0  0  0  0  0  0  0  0
   11.9137  -14.6796   20.3385 C   0  0  0  0  0  0  0  0  0  0  0  0
   12.4301  -13.8533   21.1466 O   0  0  0  0  0  0  0  0  0  0  0  0
    8.0091  -15.1862   18.1163 N   0  0  0  0  0  0  0  0  0  0  0  0
    8.4944  -13.8731   17.8821 C   0  0  0  0  0  0  0  0  0  0  0  0
    8.6981  -13.4327   16.7402 O   0  0  0  0  0  0  0  0  0  0  0  0
    8.7760  -12.9713   19.0623 C   0  0  0  0  0  0  0  0  0  0  0  0
    8.3988  -13.6812   20.3237 C   0  0  0  0  0  0  0  0  0  0  0  0
    9.5973  -14.1220   21.0822 C   0  0  2  0  0  0  0  0  0  0  0  0
   10.5277  -14.8541   20.2187 N   0  0  0  0  0  0  0  0  0  0  0  0
    9.2817  -14.9686   22.2648 C   0  0  0  0  0  0  0  0  0  0  0  0
    8.4429  -14.6854   23.1494 O   0  0  0  0  0  0  0  0  0  0  0  0
    8.3999  -18.7323   22.2130 C   0  0  0  0  0  0  0  0  0  0  0  0
    9.5501  -18.5245   23.1665 C   0  0  1  0  0  0  0  0  0  0  0  0
   10.7244  -18.8045   22.4293 O   0  0  0  0  0  0  0  0  0  0  0  0
    9.6633  -17.0586   23.5625 C   0  0  2  0  0  0  0  0  0  0  0  0
    9.9592  -16.2110   22.4540 N   0  0  0  0  0  0  0  0  0  0  0  0
   10.6963  -16.9859   24.6216 C   0  0  0  0  0  0  0  0  0  0  0  0
   11.7447  -16.3224   24.4847 O   0  0  0  0  0  0  0  0  0  0  0  0
   10.4920  -17.6762   25.8007 O   0  0  0  0  0  0  0  0  0  0  0  0
  2  3  2  0
  2  1  1  0
  4  2  1  0
  5  4  1  0
  5  6  1  0
  6  7  1  6
  6  8  1  0
  8  9  2  0
 11 12  2  0
 11 10  1  0
 13 11  1  0
 14 13  1  0
 15 14  1  6
 16  8  1  0
 16 15  1  0
 17 15  1  0
 17 18  2  0
 20 19  1  6
 20 22  1  0
 21 20  1  0
 22 23  1  6
 23 17  1  0
 24 22  1  0
 25 24  2  0
 26 24  1  0
M  END
$$$$
