QQT.pdb
     RDKit          3D

 26 25  0  0  1  0  0  0  0  0999 V2000
    6.6236  -16.4731   17.8021 N   0  0  0  0  0  0  0  0  0  0  0  0
    7.5183  -15.5798   17.1539 C   0  0  0  0  0  0  0  0  0  0  0  0
    7.6754  -15.6650   15.9146 O   0  0  0  0  0  0  0  0  0  0  0  0
    8.2259  -14.5823   17.9954 C   0  0  0  0  0  0  0  0  0  0  0  0
    7.8381  -14.7947   19.4481 C   0  0  0  0  0  0  0  0  0  0  0  0
    7.9302  -13.4523   20.1751 C   0  0  2  0  0  0  0  0  0  0  0  0
    8.8714  -12.5948   19.5187 N   0  0  0  0  0  0  0  0  0  0  0  0
    8.3732  -13.7153   21.5669 C   0  0  0  0  0  0  0  0  0  0  0  0
    9.6171  -13.6821   21.7998 O   0  0  0  0  0  0  0  0  0  0  0  0
    4.9736  -12.5323   26.5040 N   0  0  0  0  0  0  0  0  0  0  0  0
    6.2677  -11.9516   26.5577 C   0  0  0  0  0  0  0  0  0  0  0  0
    6.5364  -10.9924   27.2972 O   0  0  0  0  0  0  0  0  0  0  0  0
    7.3647  -12.5170   25.6847 C   0  0  0  0  0  0  0  0  0  0  0  0
    6.8225  -13.6685   24.8987 C   0  0  0  0  0  0  0  0  0  0  0  0
    7.8325  -14.2087   23.9532 C   0  0  2  0  0  0  0  0  0  0  0  0
    7.4248  -13.9872   22.5632 N   0  0  0  0  0  0  0  0  0  0  0  0
    8.1147  -15.6581   24.1395 C   0  0  0  0  0  0  0  0  0  0  0  0
    7.2674  -16.5742   24.0446 O   0  0  0  0  0  0  0  0  0  0  0  0
   10.3030  -17.9524   22.3089 C   0  0  0  0  0  0  0  0  0  0  0  0
   10.7891  -18.0132   23.7355 C   0  0  1  0  0  0  0  0  0  0  0  0
   11.8715  -17.1065   23.8186 O   0  0  0  0  0  0  0  0  0  0  0  0
    9.7333  -17.4683   24.6879 C   0  0  2  0  0  0  0  0  0  0  0  0
    9.4381  -16.0927   24.4523 N   0  0  0  0  0  0  0  0  0  0  0  0
   10.2361  -17.7120   26.0597 C   0  0  0  0  0  0  0  0  0  0  0  0
   10.4586  -18.8614   26.4929 O   0  0  0  0  0  0  0  0  0  0  0  0
   10.4664  -16.6302   26.8874 O   0  0  0  0  0  0  0  0  0  0  0  0
  2  3  2  0
  2  1  1  0
  4  2  1  0
  5  4  1  0
  5  6  1  0
  6  7  1  6
  6  8  1  0
  8  9  2  0
 11 12  2  0
 11 10  1  0
 13 11  1  0
 14 13  1  0
 15 14  1  1
 16  8  1  0
 16 15  1  0
 17 15  1  0
 17 18  2  0
 20 19  1  6
 20 22  1  0
 21 20  1  0
 22 23  1  6
 23 17  1  0
 24 22  1  0
 25 24  2  0
 26 24  1  0
M  END
$$$$
