QQT.pdb
     RDKit          3D

 26 25  0  0  1  0  0  0  0  0999 V2000
    6.9818  -15.1207   14.8971 N   0  0  0  0  0  0  0  0  0  0  0  0
    8.3542  -14.7615   14.9757 C   0  0  0  0  0  0  0  0  0  0  0  0
    9.0822  -14.9066   13.9674 O   0  0  0  0  0  0  0  0  0  0  0  0
    8.8534  -14.2271   16.2676 C   0  0  0  0  0  0  0  0  0  0  0  0
    7.6944  -14.1264   17.2436 C   0  0  0  0  0  0  0  0  0  0  0  0
    8.2204  -13.5583   18.5627 C   0  0  2  0  0  0  0  0  0  0  0  0
    9.1267  -12.4776   18.3126 N   0  0  0  0  0  0  0  0  0  0  0  0
    8.9232  -14.6494   19.2826 C   0  0  0  0  0  0  0  0  0  0  0  0
    8.2697  -15.7072   19.5207 O   0  0  0  0  0  0  0  0  0  0  0  0
   15.0371  -15.6311   19.4791 N   0  0  0  0  0  0  0  0  0  0  0  0
   14.3173  -14.5007   19.0117 C   0  0  0  0  0  0  0  0  0  0  0  0
   14.8402  -13.6234   18.3073 O   0  0  0  0  0  0  0  0  0  0  0  0
   12.8589  -14.3527   19.3812 C   0  0  0  0  0  0  0  0  0  0  0  0
   12.3835  -15.6185   20.0209 C   0  0  0  0  0  0  0  0  0  0  0  0
   10.9596  -15.5219   20.4322 C   0  0  2  0  0  0  0  0  0  0  0  0
   10.2603  -14.4835   19.6707 N   0  0  0  0  0  0  0  0  0  0  0  0
   10.7707  -15.2539   21.8839 C   0  0  0  0  0  0  0  0  0  0  0  0
   11.4952  -14.5057   22.5778 O   0  0  0  0  0  0  0  0  0  0  0  0
    8.0949  -13.6281   23.8294 C   0  0  0  0  0  0  0  0  0  0  0  0
    8.1624  -15.0518   24.3230 C   0  0  1  0  0  0  0  0  0  0  0  0
    7.2180  -15.7758   23.5583 O   0  0  0  0  0  0  0  0  0  0  0  0
    9.5118  -15.6739   23.9902 C   0  0  2  0  0  0  0  0  0  0  0  0
    9.6948  -15.8727   22.5895 N   0  0  0  0  0  0  0  0  0  0  0  0
    9.5941  -16.9388   24.7565 C   0  0  0  0  0  0  0  0  0  0  0  0
    9.7010  -18.0500   24.1978 O   0  0  0  0  0  0  0  0  0  0  0  0
    9.5511  -16.8865   26.1363 O   0  0  0  0  0  0  0  0  0  0  0  0
  2  3  2  0
  2  1  1  0
  4  2  1  0
  5  4  1  0
  5  6  1  0
  6  7  1  6
  6  8  1  0
  8  9  2  0
 11 12  2  0
 11 10  1  0
 13 11  1  0
 14 13  1  0
 15 14  1  1
 16  8  1  0
 16 15  1  0
 17 15  1  0
 17 18  2  0
 20 19  1  6
 20 22  1  0
 21 20  1  0
 22 23  1  6
 23 17  1  0
 24 22  1  0
 25 24  2  0
 26 24  1  0
M  END
$$$$
