QQT.pdb
     RDKit          3D

 26 25  0  0  1  0  0  0  0  0999 V2000
    8.1758  -12.2799   19.3138 N   0  0  0  0  0  0  0  0  0  0  0  0
    8.3470  -13.2226   18.2648 C   0  0  0  0  0  0  0  0  0  0  0  0
    8.4029  -12.8164   17.0817 O   0  0  0  0  0  0  0  0  0  0  0  0
    8.4511  -14.6560   18.6369 C   0  0  0  0  0  0  0  0  0  0  0  0
    8.2424  -14.7959   20.1345 C   0  0  0  0  0  0  0  0  0  0  0  0
    8.2861  -16.2822   20.4925 C   0  0  2  0  0  0  0  0  0  0  0  0
    7.2756  -16.9973   19.7719 N   0  0  0  0  0  0  0  0  0  0  0  0
    8.0491  -16.4081   21.9522 C   0  0  0  0  0  0  0  0  0  0  0  0
    6.8580  -16.6005   22.3357 O   0  0  0  0  0  0  0  0  0  0  0  0
   11.4770  -19.2247   26.0419 N   0  0  0  0  0  0  0  0  0  0  0  0
   10.5723  -18.5775   26.9234 C   0  0  0  0  0  0  0  0  0  0  0  0
   10.5406  -18.8192   28.1399 O   0  0  0  0  0  0  0  0  0  0  0  0
    9.6082  -17.5543   26.3675 C   0  0  0  0  0  0  0  0  0  0  0  0
    9.8456  -17.4032   24.8984 C   0  0  0  0  0  0  0  0  0  0  0  0
    8.9155  -16.4161   24.2930 C   0  0  2  0  0  0  0  0  0  0  0  0
    9.1249  -16.3129   22.8463 N   0  0  0  0  0  0  0  0  0  0  0  0
    9.0162  -15.0545   24.8852 C   0  0  0  0  0  0  0  0  0  0  0  0
   10.0207  -14.3113   24.8142 O   0  0  0  0  0  0  0  0  0  0  0  0
    6.2277  -12.1581   24.8132 C   0  0  0  0  0  0  0  0  0  0  0  0
    6.6556  -12.4873   26.2216 C   0  0  1  0  0  0  0  0  0  0  0  0
    5.7128  -13.4230   26.7079 O   0  0  0  0  0  0  0  0  0  0  0  0
    7.9891  -13.2223   26.2215 C   0  0  2  0  0  0  0  0  0  0  0  0
    7.9101  -14.5042   25.6008 N   0  0  0  0  0  0  0  0  0  0  0  0
    8.4263  -13.3040   27.6344 C   0  0  0  0  0  0  0  0  0  0  0  0
    8.6390  -14.3944   28.2035 O   0  0  0  0  0  0  0  0  0  0  0  0
    8.6047  -12.1333   28.3459 O   0  0  0  0  0  0  0  0  0  0  0  0
  2  3  2  0
  2  1  1  0
  4  2  1  0
  5  4  1  0
  5  6  1  0
  6  7  1  6
  6  8  1  0
  8  9  2  0
 11 12  2  0
 11 10  1  0
 13 11  1  0
 14 13  1  0
 15 14  1  1
 16  8  1  0
 16 15  1  0
 17 15  1  0
 17 18  2  0
 20 19  1  6
 20 22  1  0
 21 20  1  0
 22 23  1  1
 23 17  1  0
 24 22  1  0
 25 24  2  0
 26 24  1  0
M  END
$$$$
