QQT.pdb
     RDKit          3D

 26 25  0  0  1  0  0  0  0  0999 V2000
    9.4259  -15.5383   13.0601 N   0  0  0  0  0  0  0  0  0  0  0  0
    8.3685  -16.2057   13.7347 C   0  0  0  0  0  0  0  0  0  0  0  0
    7.7394  -17.1104   13.1400 O   0  0  0  0  0  0  0  0  0  0  0  0
    8.0658  -15.7861   15.1261 C   0  0  0  0  0  0  0  0  0  0  0  0
    9.0423  -14.6993   15.5398 C   0  0  0  0  0  0  0  0  0  0  0  0
    8.9320  -14.4994   17.0521 C   0  0  2  0  0  0  0  0  0  0  0  0
    8.7737  -13.1094   17.3599 N   0  0  0  0  0  0  0  0  0  0  0  0
   10.1773  -15.0148   17.6736 C   0  0  0  0  0  0  0  0  0  0  0  0
   10.4266  -16.2492   17.5445 O   0  0  0  0  0  0  0  0  0  0  0  0
   15.3605  -14.5640   17.2037 N   0  0  0  0  0  0  0  0  0  0  0  0
   15.6386  -14.6571   18.5924 C   0  0  0  0  0  0  0  0  0  0  0  0
   16.7169  -15.0897   19.0276 O   0  0  0  0  0  0  0  0  0  0  0  0
   14.5873  -14.2149   19.5847 C   0  0  0  0  0  0  0  0  0  0  0  0
   13.3780  -13.7433   18.8413 C   0  0  0  0  0  0  0  0  0  0  0  0
   12.2146  -14.6390   19.0658 C   0  0  2  0  0  0  0  0  0  0  0  0
   11.0245  -14.1415   18.3705 N   0  0  0  0  0  0  0  0  0  0  0  0
   11.8772  -14.8366   20.5018 C   0  0  0  0  0  0  0  0  0  0  0  0
   12.1431  -14.0301   21.4211 O   0  0  0  0  0  0  0  0  0  0  0  0
    8.4443  -15.6363   22.0489 C   0  0  0  0  0  0  0  0  0  0  0  0
    9.4164  -16.7141   22.4595 C   0  0  1  0  0  0  0  0  0  0  0  0
    9.2537  -17.7636   21.5253 O   0  0  0  0  0  0  0  0  0  0  0  0
   10.8525  -16.2389   22.2853 C   0  0  2  0  0  0  0  0  0  0  0  0
   11.1973  -16.0208   20.9184 N   0  0  0  0  0  0  0  0  0  0  0  0
   11.7148  -17.2556   22.9309 C   0  0  0  0  0  0  0  0  0  0  0  0
   12.5571  -17.9179   22.2904 O   0  0  0  0  0  0  0  0  0  0  0  0
   11.5820  -17.4781   24.2878 O   0  0  0  0  0  0  0  0  0  0  0  0
  2  3  2  0
  2  1  1  0
  4  2  1  0
  5  4  1  0
  5  6  1  0
  6  7  1  6
  6  8  1  0
  8  9  2  0
 11 12  2  0
 11 10  1  0
 13 11  1  0
 14 13  1  0
 15 14  1  1
 16  8  1  0
 16 15  1  0
 17 15  1  0
 17 18  2  0
 20 19  1  6
 20 22  1  0
 21 20  1  0
 22 23  1  6
 23 17  1  0
 24 22  1  0
 25 24  2  0
 26 24  1  0
M  END
$$$$
