QQT.pdb
     RDKit          3D

 26 25  0  0  1  0  0  0  0  0999 V2000
    8.5310  -17.0343   18.1024 N   0  0  0  0  0  0  0  0  0  0  0  0
    7.8049  -16.0634   17.3617 C   0  0  0  0  0  0  0  0  0  0  0  0
    7.4943  -16.3082   16.1737 O   0  0  0  0  0  0  0  0  0  0  0  0
    7.4511  -14.7958   18.0487 C   0  0  0  0  0  0  0  0  0  0  0  0
    7.9911  -14.8333   19.4675 C   0  0  0  0  0  0  0  0  0  0  0  0
    7.7029  -13.4858   20.1309 C   0  0  2  0  0  0  0  0  0  0  0  0
    8.3249  -12.4259   19.3950 N   0  0  0  0  0  0  0  0  0  0  0  0
    8.2482  -13.5293   21.5106 C   0  0  0  0  0  0  0  0  0  0  0  0
    9.4717  -13.2427   21.6639 O   0  0  0  0  0  0  0  0  0  0  0  0
    5.3775  -12.1028   26.6958 N   0  0  0  0  0  0  0  0  0  0  0  0
    6.5950  -12.6056   27.2245 C   0  0  0  0  0  0  0  0  0  0  0  0
    6.8944  -12.4981   28.4237 O   0  0  0  0  0  0  0  0  0  0  0  0
    7.5684  -13.2992   26.2989 C   0  0  0  0  0  0  0  0  0  0  0  0
    7.0488  -13.2290   24.8979 C   0  0  0  0  0  0  0  0  0  0  0  0
    7.9333  -13.9537   23.9499 C   0  0  2  0  0  0  0  0  0  0  0  0
    7.4137  -13.8784   22.5819 N   0  0  0  0  0  0  0  0  0  0  0  0
    8.1435  -15.3849   24.2994 C   0  0  0  0  0  0  0  0  0  0  0  0
    7.2483  -16.2591   24.3225 O   0  0  0  0  0  0  0  0  0  0  0  0
   10.2085  -17.8751   22.6269 C   0  0  0  0  0  0  0  0  0  0  0  0
   10.7026  -17.8770   24.0520 C   0  0  1  0  0  0  0  0  0  0  0  0
   11.8343  -17.0287   24.0744 O   0  0  0  0  0  0  0  0  0  0  0  0
    9.6869  -17.2178   24.9751 C   0  0  2  0  0  0  0  0  0  0  0  0
    9.4485  -15.8510   24.6433 N   0  0  0  0  0  0  0  0  0  0  0  0
   10.2001  -17.3836   26.3547 C   0  0  0  0  0  0  0  0  0  0  0  0
   10.4747  -16.4089   27.0846 O   0  0  0  0  0  0  0  0  0  0  0  0
   10.3807  -18.6606   26.8499 O   0  0  0  0  0  0  0  0  0  0  0  0
  2  3  2  0
  2  1  1  0
  4  2  1  0
  5  4  1  0
  5  6  1  0
  6  7  1  6
  6  8  1  0
  8  9  2  0
 11 12  2  0
 11 10  1  0
 13 11  1  0
 14 13  1  0
 15 14  1  1
 16  8  1  0
 16 15  1  0
 17 15  1  0
 17 18  2  0
 20 19  1  6
 20 22  1  0
 21 20  1  0
 22 23  1  6
 23 17  1  0
 24 22  1  0
 25 24  2  0
 26 24  1  0
M  END
$$$$
