QQT.pdb
     RDKit          3D

 26 25  0  0  1  0  0  0  0  0999 V2000
    7.7666  -12.9147   16.5002 N   0  0  0  0  0  0  0  0  0  0  0  0
    7.5661  -13.7688   15.3826 C   0  0  0  0  0  0  0  0  0  0  0  0
    7.0831  -13.2937   14.3297 O   0  0  0  0  0  0  0  0  0  0  0  0
    7.9464  -15.1962   15.5296 C   0  0  0  0  0  0  0  0  0  0  0  0
    8.5715  -15.4045   16.8978 C   0  0  0  0  0  0  0  0  0  0  0  0
    9.8255  -16.2641   16.7313 C   0  0  2  0  0  0  0  0  0  0  0  0
    9.4682  -17.5933   16.3344 N   0  0  0  0  0  0  0  0  0  0  0  0
   10.5318  -16.3002   18.0361 C   0  0  0  0  0  0  0  0  0  0  0  0
   10.2693  -17.2626   18.8155 O   0  0  0  0  0  0  0  0  0  0  0  0
   15.8959  -13.5031   19.4579 N   0  0  0  0  0  0  0  0  0  0  0  0
   15.6975  -14.6471   18.6415 C   0  0  0  0  0  0  0  0  0  0  0  0
   16.5904  -15.1086   17.9141 O   0  0  0  0  0  0  0  0  0  0  0  0
   14.3512  -15.3347   18.6529 C   0  0  0  0  0  0  0  0  0  0  0  0
   13.4370  -14.6088   19.5883 C   0  0  0  0  0  0  0  0  0  0  0  0
   12.1072  -15.2650   19.6720 C   0  0  2  0  0  0  0  0  0  0  0  0
   11.4491  -15.2914   18.3631 N   0  0  0  0  0  0  0  0  0  0  0  0
   11.1855  -14.6311   20.6537 C   0  0  0  0  0  0  0  0  0  0  0  0
   11.0006  -13.3994   20.7756 O   0  0  0  0  0  0  0  0  0  0  0  0
    8.0314  -13.7540   20.9715 C   0  0  0  0  0  0  0  0  0  0  0  0
    8.1493  -14.7300   22.1155 C   0  0  1  0  0  0  0  0  0  0  0  0
    7.7965  -15.9944   21.5885 O   0  0  0  0  0  0  0  0  0  0  0  0
    9.5997  -14.8687   22.5580 C   0  0  2  0  0  0  0  0  0  0  0  0
   10.4290  -15.4447   21.5503 N   0  0  0  0  0  0  0  0  0  0  0  0
    9.5862  -15.6683   23.8047 C   0  0  0  0  0  0  0  0  0  0  0  0
   10.0944  -16.8066   23.8711 O   0  0  0  0  0  0  0  0  0  0  0  0
    8.9908  -15.1360   24.9319 O   0  0  0  0  0  0  0  0  0  0  0  0
  2  3  2  0
  2  1  1  0
  4  2  1  0
  5  4  1  0
  5  6  1  0
  6  7  1  1
  6  8  1  0
  8  9  2  0
 11 12  2  0
 11 10  1  0
 13 11  1  0
 14 13  1  0
 15 14  1  6
 16  8  1  0
 16 15  1  0
 17 15  1  0
 17 18  2  0
 20 19  1  6
 20 22  1  0
 21 20  1  0
 22 23  1  6
 23 17  1  0
 24 22  1  0
 25 24  2  0
 26 24  1  0
M  END
$$$$
