QQT.pdb
     RDKit          3D

 26 25  0  0  1  0  0  0  0  0999 V2000
   15.6521  -16.9347   15.1196 N   0  0  0  0  0  0  0  0  0  0  0  0
   15.3895  -15.5441   15.2456 C   0  0  0  0  0  0  0  0  0  0  0  0
   16.2816  -14.7232   14.9325 O   0  0  0  0  0  0  0  0  0  0  0  0
   14.0530  -15.1383   15.7484 C   0  0  0  0  0  0  0  0  0  0  0  0
   14.1863  -14.6663   17.1856 C   0  0  0  0  0  0  0  0  0  0  0  0
   13.3721  -15.6024   18.0801 C   0  0  2  0  0  0  0  0  0  0  0  0
   12.3765  -16.2854   17.3094 N   0  0  0  0  0  0  0  0  0  0  0  0
   12.7208  -14.7800   19.1298 C   0  0  0  0  0  0  0  0  0  0  0  0
   13.4692  -14.0681   19.8618 O   0  0  0  0  0  0  0  0  0  0  0  0
    6.9582  -12.6110   19.1514 N   0  0  0  0  0  0  0  0  0  0  0  0
    7.6643  -13.3790   18.1890 C   0  0  0  0  0  0  0  0  0  0  0  0
    7.2052  -13.6181   17.0615 O   0  0  0  0  0  0  0  0  0  0  0  0
    9.0269  -13.9298   18.5431 C   0  0  0  0  0  0  0  0  0  0  0  0
    9.3943  -13.4820   19.9223 C   0  0  0  0  0  0  0  0  0  0  0  0
   10.6685  -14.0963   20.3751 C   0  0  2  0  0  0  0  0  0  0  0  0
   11.3270  -14.8126   19.2794 N   0  0  0  0  0  0  0  0  0  0  0  0
   10.5105  -15.0289   21.5242 C   0  0  0  0  0  0  0  0  0  0  0  0
    9.4189  -15.3516   22.0442 O   0  0  0  0  0  0  0  0  0  0  0  0
    9.6316  -17.8351   22.2543 C   0  0  0  0  0  0  0  0  0  0  0  0
   11.0486  -17.9184   22.7646 C   0  0  1  0  0  0  0  0  0  0  0  0
   11.8462  -18.2640   21.6487 O   0  0  0  0  0  0  0  0  0  0  0  0
   11.5440  -16.5474   23.2045 C   0  0  2  0  0  0  0  0  0  0  0  0
   11.6610  -15.6306   22.1180 N   0  0  0  0  0  0  0  0  0  0  0  0
   12.8331  -16.7675   23.9001 C   0  0  0  0  0  0  0  0  0  0  0  0
   13.9204  -16.3789   23.4259 O   0  0  0  0  0  0  0  0  0  0  0  0
   12.8314  -17.4254   25.1149 O   0  0  0  0  0  0  0  0  0  0  0  0
  2  3  2  0
  2  1  1  0
  4  2  1  0
  5  4  1  0
  5  6  1  0
  6  7  1  6
  6  8  1  0
  8  9  2  0
 11 12  2  0
 11 10  1  0
 13 11  1  0
 14 13  1  0
 15 14  1  6
 16  8  1  0
 16 15  1  0
 17 15  1  0
 17 18  2  0
 20 19  1  6
 20 22  1  0
 21 20  1  0
 22 23  1  6
 23 17  1  0
 24 22  1  0
 25 24  2  0
 26 24  1  0
M  END
$$$$
