QQT.pdb
     RDKit          3D

 26 25  0  0  1  0  0  0  0  0999 V2000
    8.2550  -20.3908   20.7429 N   0  0  0  0  0  0  0  0  0  0  0  0
    7.8133  -19.7500   19.5543 C   0  0  0  0  0  0  0  0  0  0  0  0
    7.2895  -20.4373   18.6483 O   0  0  0  0  0  0  0  0  0  0  0  0
    8.0009  -18.2808   19.4533 C   0  0  0  0  0  0  0  0  0  0  0  0
    8.5575  -17.7605   20.7669 C   0  0  0  0  0  0  0  0  0  0  0  0
    8.5820  -16.2323   20.7109 C   0  0  2  0  0  0  0  0  0  0  0  0
    9.5101  -15.7860   19.7153 N   0  0  0  0  0  0  0  0  0  0  0  0
    8.9954  -15.7323   22.0458 C   0  0  0  0  0  0  0  0  0  0  0  0
   10.2332  -15.7316   22.3112 O   0  0  0  0  0  0  0  0  0  0  0  0
    5.5750  -12.1788   25.8919 N   0  0  0  0  0  0  0  0  0  0  0  0
    6.7461  -12.3816   26.6678 C   0  0  0  0  0  0  0  0  0  0  0  0
    6.9540  -11.7751   27.7300 O   0  0  0  0  0  0  0  0  0  0  0  0
    7.7835  -13.3716   26.1892 C   0  0  0  0  0  0  0  0  0  0  0  0
    7.4178  -13.8414   24.8170 C   0  0  0  0  0  0  0  0  0  0  0  0
    8.4056  -14.8187   24.2924 C   0  0  2  0  0  0  0  0  0  0  0  0
    8.0270  -15.2848   22.9557 N   0  0  0  0  0  0  0  0  0  0  0  0
    8.6017  -16.0043   25.1703 C   0  0  0  0  0  0  0  0  0  0  0  0
    7.7000  -16.7996   25.5177 O   0  0  0  0  0  0  0  0  0  0  0  0
   10.8200  -18.9016   24.6600 C   0  0  0  0  0  0  0  0  0  0  0  0
   11.1975  -18.3615   26.0168 C   0  0  1  0  0  0  0  0  0  0  0  0
   12.3350  -17.5464   25.8104 O   0  0  0  0  0  0  0  0  0  0  0  0
   10.1195  -17.4230   26.5419 C   0  0  2  0  0  0  0  0  0  0  0  0
    9.8994  -16.3044   25.6844 N   0  0  0  0  0  0  0  0  0  0  0  0
   10.5390  -17.0179   27.9035 C   0  0  0  0  0  0  0  0  0  0  0  0
   10.7957  -15.8317   28.1958 O   0  0  0  0  0  0  0  0  0  0  0  0
   10.6499  -17.9860   28.8827 O   0  0  0  0  0  0  0  0  0  0  0  0
  2  3  2  0
  2  1  1  0
  4  2  1  0
  5  4  1  0
  5  6  1  0
  6  7  1  6
  6  8  1  0
  8  9  2  0
 11 12  2  0
 11 10  1  0
 13 11  1  0
 14 13  1  0
 15 14  1  1
 16  8  1  0
 16 15  1  0
 17 15  1  0
 17 18  2  0
 20 19  1  6
 20 22  1  0
 21 20  1  0
 22 23  1  6
 23 17  1  0
 24 22  1  0
 25 24  2  0
 26 24  1  0
M  END
$$$$
