QQT.pdb
     RDKit          3D

 26 25  0  0  1  0  0  0  0  0999 V2000
    7.8564  -12.7602   17.3828 N   0  0  0  0  0  0  0  0  0  0  0  0
    8.1382  -13.8549   16.5220 C   0  0  0  0  0  0  0  0  0  0  0  0
    7.5998  -13.8980   15.3924 O   0  0  0  0  0  0  0  0  0  0  0  0
    9.0683  -14.9000   17.0186 C   0  0  0  0  0  0  0  0  0  0  0  0
    8.5901  -15.3851   18.3758 C   0  0  0  0  0  0  0  0  0  0  0  0
    9.4593  -16.5698   18.8002 C   0  0  2  0  0  0  0  0  0  0  0  0
    9.1342  -17.7286   18.0235 N   0  0  0  0  0  0  0  0  0  0  0  0
    9.1990  -16.8365   20.2368 C   0  0  0  0  0  0  0  0  0  0  0  0
    8.0205  -17.1609   20.5661 O   0  0  0  0  0  0  0  0  0  0  0  0
   12.9560  -19.5810   24.1183 N   0  0  0  0  0  0  0  0  0  0  0  0
   11.8977  -19.2508   25.0047 C   0  0  0  0  0  0  0  0  0  0  0  0
   11.8357  -19.6946   26.1616 O   0  0  0  0  0  0  0  0  0  0  0  0
   10.8016  -18.3246   24.5293 C   0  0  0  0  0  0  0  0  0  0  0  0
   11.0672  -17.9378   23.1089 C   0  0  0  0  0  0  0  0  0  0  0  0
   10.0201  -17.0232   22.5865 C   0  0  2  0  0  0  0  0  0  0  0  0
   10.2405  -16.7247   21.1689 N   0  0  0  0  0  0  0  0  0  0  0  0
    9.9185  -15.7388   23.3314 C   0  0  0  0  0  0  0  0  0  0  0  0
   10.7354  -14.7941   23.2517 O   0  0  0  0  0  0  0  0  0  0  0  0
    7.2374  -13.1062   23.3911 C   0  0  0  0  0  0  0  0  0  0  0  0
    7.3843  -13.6133   24.8041 C   0  0  1  0  0  0  0  0  0  0  0  0
    6.4066  -14.6235   24.9604 O   0  0  0  0  0  0  0  0  0  0  0  0
    8.7225  -14.3162   24.9877 C   0  0  2  0  0  0  0  0  0  0  0  0
    8.8239  -15.5142   24.2201 N   0  0  0  0  0  0  0  0  0  0  0  0
    8.8751  -14.5607   26.4406 C   0  0  0  0  0  0  0  0  0  0  0  0
    8.9342  -15.7120   26.9194 O   0  0  0  0  0  0  0  0  0  0  0  0
    8.9546  -13.4775   27.2943 O   0  0  0  0  0  0  0  0  0  0  0  0
  2  3  2  0
  2  1  1  0
  4  2  1  0
  5  4  1  0
  5  6  1  0
  6  7  1  6
  6  8  1  0
  8  9  2  0
 11 12  2  0
 11 10  1  0
 13 11  1  0
 14 13  1  0
 15 14  1  1
 16  8  1  0
 16 15  1  0
 17 15  1  0
 17 18  2  0
 20 19  1  6
 20 22  1  0
 21 20  1  0
 22 23  1  6
 23 17  1  0
 24 22  1  0
 25 24  2  0
 26 24  1  0
M  END
$$$$
