QQT.pdb
     RDKit          3D

 26 25  0  0  1  0  0  0  0  0999 V2000
    5.9096  -18.5676   14.8236 N   0  0  0  0  0  0  0  0  0  0  0  0
    7.1583  -18.8314   14.1994 C   0  0  0  0  0  0  0  0  0  0  0  0
    7.1875  -19.0787   12.9723 O   0  0  0  0  0  0  0  0  0  0  0  0
    8.3744  -18.7981   15.0501 C   0  0  0  0  0  0  0  0  0  0  0  0
    7.9778  -18.4244   16.4676 C   0  0  0  0  0  0  0  0  0  0  0  0
    8.9925  -17.4133   17.0035 C   0  0  2  0  0  0  0  0  0  0  0  0
   10.2878  -17.6655   16.4462 N   0  0  0  0  0  0  0  0  0  0  0  0
    9.0427  -17.5546   18.4800 C   0  0  0  0  0  0  0  0  0  0  0  0
    7.9427  -17.5334   19.1062 O   0  0  0  0  0  0  0  0  0  0  0  0
   13.6344  -20.1986   21.8085 N   0  0  0  0  0  0  0  0  0  0  0  0
   12.9628  -19.4527   22.8121 C   0  0  0  0  0  0  0  0  0  0  0  0
   13.3961  -19.3550   23.9706 O   0  0  0  0  0  0  0  0  0  0  0  0
   11.6712  -18.7481   22.4648 C   0  0  0  0  0  0  0  0  0  0  0  0
   11.6005  -18.5543   20.9833 C   0  0  0  0  0  0  0  0  0  0  0  0
   10.3544  -17.8524   20.5826 C   0  0  2  0  0  0  0  0  0  0  0  0
   10.2778  -17.7041   19.1268 N   0  0  0  0  0  0  0  0  0  0  0  0
   10.1947  -16.5101   21.2051 C   0  0  0  0  0  0  0  0  0  0  0  0
   11.0199  -15.5733   21.1175 O   0  0  0  0  0  0  0  0  0  0  0  0
    7.5800  -13.8889   20.7389 C   0  0  0  0  0  0  0  0  0  0  0  0
    7.5542  -14.2639   22.1996 C   0  0  1  0  0  0  0  0  0  0  0  0
    6.5544  -15.2558   22.3310 O   0  0  0  0  0  0  0  0  0  0  0  0
    8.8540  -14.9464   22.6036 C   0  0  2  0  0  0  0  0  0  0  0  0
    9.0281  -16.2142   21.9732 N   0  0  0  0  0  0  0  0  0  0  0  0
    8.8365  -15.0472   24.0812 C   0  0  0  0  0  0  0  0  0  0  0  0
    8.8858  -16.1445   24.6744 O   0  0  0  0  0  0  0  0  0  0  0  0
    8.7633  -13.8872   24.8278 O   0  0  0  0  0  0  0  0  0  0  0  0
  2  3  2  0
  2  1  1  0
  4  2  1  0
  5  4  1  0
  5  6  1  0
  6  7  1  6
  6  8  1  0
  8  9  2  0
 11 12  2  0
 11 10  1  0
 13 11  1  0
 14 13  1  0
 15 14  1  6
 16  8  1  0
 16 15  1  0
 17 15  1  0
 17 18  2  0
 20 19  1  6
 20 22  1  0
 21 20  1  0
 22 23  1  6
 23 17  1  0
 24 22  1  0
 25 24  2  0
 26 24  1  0
M  END
$$$$
