QQT.pdb
     RDKit          3D

 26 25  0  0  1  0  0  0  0  0999 V2000
   10.0005  -12.6237   19.1922 N   0  0  0  0  0  0  0  0  0  0  0  0
    8.9262  -13.0772   18.3806 C   0  0  0  0  0  0  0  0  0  0  0  0
    9.1608  -13.4476   17.2078 O   0  0  0  0  0  0  0  0  0  0  0  0
    7.5673  -13.0860   18.9784 C   0  0  0  0  0  0  0  0  0  0  0  0
    7.6576  -13.5916   20.4075 C   0  0  0  0  0  0  0  0  0  0  0  0
    8.0088  -15.0798   20.3732 C   0  0  2  0  0  0  0  0  0  0  0  0
    7.0103  -15.8099   19.6509 N   0  0  0  0  0  0  0  0  0  0  0  0
    8.0748  -15.5665   21.7737 C   0  0  0  0  0  0  0  0  0  0  0  0
    6.9836  -15.8739   22.3369 O   0  0  0  0  0  0  0  0  0  0  0  0
   11.4342  -19.4334   25.1040 N   0  0  0  0  0  0  0  0  0  0  0  0
   10.6881  -19.6537   23.9168 C   0  0  0  0  0  0  0  0  0  0  0  0
   10.3954  -20.7909   23.5163 O   0  0  0  0  0  0  0  0  0  0  0  0
   10.2293  -18.4642   23.1045 C   0  0  0  0  0  0  0  0  0  0  0  0
   10.5343  -17.2083   23.8577 C   0  0  0  0  0  0  0  0  0  0  0  0
    9.4175  -16.2331   23.7694 C   0  0  2  0  0  0  0  0  0  0  0  0
    9.3146  -15.6703   22.4204 N   0  0  0  0  0  0  0  0  0  0  0  0
    9.5198  -15.1131   24.7441 C   0  0  0  0  0  0  0  0  0  0  0  0
   10.5011  -14.3446   24.8569 O   0  0  0  0  0  0  0  0  0  0  0  0
    6.9388  -12.2544   25.4404 C   0  0  0  0  0  0  0  0  0  0  0  0
    7.2146  -13.0138   26.7141 C   0  0  1  0  0  0  0  0  0  0  0  0
    6.1972  -13.9914   26.8143 O   0  0  0  0  0  0  0  0  0  0  0  0
    8.5158  -13.7967   26.6034 C   0  0  2  0  0  0  0  0  0  0  0  0
    8.4434  -14.8504   25.6445 N   0  0  0  0  0  0  0  0  0  0  0  0
    8.8282  -14.2910   27.9643 C   0  0  0  0  0  0  0  0  0  0  0  0
    8.8657  -15.5083   28.2382 O   0  0  0  0  0  0  0  0  0  0  0  0
    9.0868  -13.3733   28.9640 O   0  0  0  0  0  0  0  0  0  0  0  0
  2  3  2  0
  2  1  1  0
  4  2  1  0
  5  4  1  0
  5  6  1  0
  6  7  1  6
  6  8  1  0
  8  9  2  0
 11 12  2  0
 11 10  1  0
 13 11  1  0
 14 13  1  0
 15 14  1  6
 16  8  1  0
 16 15  1  0
 17 15  1  0
 17 18  2  0
 20 19  1  6
 20 22  1  0
 21 20  1  0
 22 23  1  6
 23 17  1  0
 24 22  1  0
 25 24  2  0
 26 24  1  0
M  END
$$$$
