YFN.pdb
     RDKit          3D

 32 33  0  0  1  0  0  0  0  0999 V2000
   21.0501  -12.3861  -19.3637 O   0  0  0  0  0  0  0  0  0  0  0  0
   20.7675  -13.6976  -19.0531 C   0  0  0  0  0  0  0  0  0  0  0  0
   20.2379  -14.5975  -19.9533 C   0  0  0  0  0  0  0  0  0  0  0  0
   19.9774  -15.8969  -19.5810 C   0  0  0  0  0  0  0  0  0  0  0  0
   20.2388  -16.3314  -18.3009 C   0  0  0  0  0  0  0  0  0  0  0  0
   19.9498  -17.7594  -17.9012 C   0  0  0  0  0  0  0  0  0  0  0  0
   21.2690  -18.3682  -17.4822 C   0  0  2  0  0  0  0  0  0  0  0  0
   22.0990  -18.5748  -18.6526 N   0  0  0  0  0  0  0  0  0  0  0  0
   21.1051  -19.6547  -16.7892 C   0  0  0  0  0  0  0  0  0  0  0  0
   21.2215  -20.7443  -17.4111 O   0  0  0  0  0  0  0  0  0  0  0  0
   20.7664  -15.4404  -17.3992 C   0  0  0  0  0  0  0  0  0  0  0  0
   21.0262  -14.1424  -17.7723 C   0  0  0  0  0  0  0  0  0  0  0  0
   20.8105  -19.7652  -15.4003 N   0  0  0  0  0  0  0  0  0  0  0  0
   20.6955  -21.0550  -14.7240 C   0  0  1  0  0  0  0  0  0  0  0  0
   21.6495  -21.1254  -13.5518 C   0  0  0  0  0  0  0  0  0  0  0  0
   21.2645  -20.2587  -12.4189 C   0  0  0  0  0  0  0  0  0  0  0  0
   20.7644  -20.8356  -11.2543 C   0  0  0  0  0  0  0  0  0  0  0  0
   20.3905  -20.0613  -10.1765 C   0  0  0  0  0  0  0  0  0  0  0  0
   20.4959  -18.6882  -10.2072 C   0  0  0  0  0  0  0  0  0  0  0  0
   20.9892  -18.1048  -11.3534 C   0  0  0  0  0  0  0  0  0  0  0  0
   21.3642  -18.8908  -12.4362 C   0  0  0  0  0  0  0  0  0  0  0  0
   19.2995  -21.3990  -14.3900 C   0  0  0  0  0  0  0  0  0  0  0  0
   18.5190  -20.4076  -14.1820 O   0  0  0  0  0  0  0  0  0  0  0  0
   14.7184  -23.7616  -13.5809 N   0  0  0  0  0  0  0  0  0  0  0  0
   15.6646  -24.7583  -13.9325 C   0  0  0  0  0  0  0  0  0  0  0  0
   15.2304  -25.9075  -14.1234 O   0  0  0  0  0  0  0  0  0  0  0  0
   17.1108  -24.4727  -14.0733 C   0  0  0  0  0  0  0  0  0  0  0  0
   17.4048  -22.9981  -13.8862 C   0  0  2  0  0  0  0  0  0  0  0  0
   18.7611  -22.6852  -14.2858 N   0  0  0  0  0  0  0  0  0  0  0  0
   17.1329  -22.7167  -12.4574 C   0  0  0  0  0  0  0  0  0  0  0  0
   17.9167  -23.1403  -11.5956 O   0  0  0  0  0  0  0  0  0  0  0  0
   16.0234  -21.9937  -12.0915 O   0  0  0  0  0  0  0  0  0  0  0  0
  2  3  2  0
  2  1  1  0
  4  3  1  0
  5  4  2  0
  6  5  1  0
  7  8  1  6
  7  6  1  0
  9  7  1  0
 10  9  2  0
 11  5  1  0
 11 12  2  0
 12  2  1  0
 13  9  1  0
 14 15  1  1
 14 13  1  0
 16 17  2  0
 16 15  1  0
 18 17  1  0
 19 18  2  0
 20 19  1  0
 20 21  2  0
 21 16  1  0
 22 14  1  0
 23 22  2  0
 25 24  1  0
 26 25  2  0
 27 25  1  0
 28 27  1  1
 28 29  1  0
 29 22  1  0
 30 28  1  0
 30 32  1  0
 31 30  2  0
M  END
$$$$
