YFN.pdb
     RDKit          3D

 32 33  0  0  1  0  0  0  0  0999 V2000
   27.2815  -16.9731  -17.8783 O   0  0  0  0  0  0  0  0  0  0  0  0
   26.8713  -17.5910  -16.7180 C   0  0  0  0  0  0  0  0  0  0  0  0
   25.8552  -18.5213  -16.6675 C   0  0  0  0  0  0  0  0  0  0  0  0
   25.4913  -19.1042  -15.4746 C   0  0  0  0  0  0  0  0  0  0  0  0
   26.1323  -18.7734  -14.3018 C   0  0  0  0  0  0  0  0  0  0  0  0
   25.7262  -19.4182  -12.9973 C   0  0  0  0  0  0  0  0  0  0  0  0
   26.8360  -20.3743  -12.6219 C   0  0  2  0  0  0  0  0  0  0  0  0
   26.7555  -21.5583  -13.4545 N   0  0  0  0  0  0  0  0  0  0  0  0
   26.7766  -20.7865  -11.2117 C   0  0  0  0  0  0  0  0  0  0  0  0
   26.1339  -21.8128  -10.8638 O   0  0  0  0  0  0  0  0  0  0  0  0
   27.1452  -17.8475  -14.3449 C   0  0  0  0  0  0  0  0  0  0  0  0
   27.5078  -17.2659  -15.5372 C   0  0  0  0  0  0  0  0  0  0  0  0
   27.4231  -20.0770  -10.1595 N   0  0  0  0  0  0  0  0  0  0  0  0
   27.2869  -20.4608   -8.7566 C   0  0  1  0  0  0  0  0  0  0  0  0
   28.3924  -19.8432   -7.9287 C   0  0  0  0  0  0  0  0  0  0  0  0
   28.1986  -19.9929   -6.4717 C   0  0  0  0  0  0  0  0  0  0  0  0
   28.7597  -21.0851   -5.8148 C   0  0  0  0  0  0  0  0  0  0  0  0
   28.5986  -21.2626   -4.4570 C   0  0  0  0  0  0  0  0  0  0  0  0
   27.8778  -20.3688   -3.6960 C   0  0  0  0  0  0  0  0  0  0  0  0
   27.3175  -19.2840   -4.3336 C   0  0  0  0  0  0  0  0  0  0  0  0
   27.4834  -19.1108   -5.7023 C   0  0  0  0  0  0  0  0  0  0  0  0
   25.9291  -20.2187   -8.2306 C   0  0  0  0  0  0  0  0  0  0  0  0
   25.3040  -19.2286   -8.7447 O   0  0  0  0  0  0  0  0  0  0  0  0
   21.0613  -21.0675   -6.6712 N   0  0  0  0  0  0  0  0  0  0  0  0
   21.6129  -21.4147   -7.9310 C   0  0  0  0  0  0  0  0  0  0  0  0
   20.8141  -21.7264   -8.8313 O   0  0  0  0  0  0  0  0  0  0  0  0
   23.0707  -21.4152   -8.1921 C   0  0  0  0  0  0  0  0  0  0  0  0
   23.8500  -20.9402   -6.9826 C   0  0  2  0  0  0  0  0  0  0  0  0
   25.2744  -20.9608   -7.2429 N   0  0  0  0  0  0  0  0  0  0  0  0
   23.4421  -21.8314   -5.8718 C   0  0  0  0  0  0  0  0  0  0  0  0
   22.2778  -21.7810   -5.4496 O   0  0  0  0  0  0  0  0  0  0  0  0
   24.3452  -22.7046   -5.3154 O   0  0  0  0  0  0  0  0  0  0  0  0
  2  3  2  0
  2  1  1  0
  4  3  1  0
  5  4  2  0
  6  5  1  0
  7  8  1  6
  7  6  1  0
  9  7  1  0
 10  9  2  0
 11  5  1  0
 11 12  2  0
 12  2  1  0
 13  9  1  0
 14 15  1  1
 14 13  1  0
 16 17  2  0
 16 15  1  0
 18 17  1  0
 19 18  2  0
 20 19  1  0
 20 21  2  0
 21 16  1  0
 22 14  1  0
 23 22  2  0
 25 24  1  0
 26 25  2  0
 27 25  1  0
 28 27  1  6
 28 29  1  0
 29 22  1  0
 30 28  1  0
 30 32  1  0
 31 30  2  0
M  END
$$$$
