YFN.pdb
     RDKit          3D

 32 33  0  0  1  0  0  0  0  0999 V2000
   16.0308  -15.0718  -22.0992 O   0  0  0  0  0  0  0  0  0  0  0  0
   16.1079  -14.0114  -21.2241 C   0  0  0  0  0  0  0  0  0  0  0  0
   15.0039  -13.3715  -20.7021 C   0  0  0  0  0  0  0  0  0  0  0  0
   15.1473  -12.3157  -19.8305 C   0  0  0  0  0  0  0  0  0  0  0  0
   16.3961  -11.8716  -19.4575 C   0  0  0  0  0  0  0  0  0  0  0  0
   16.5439  -10.7122  -18.5003 C   0  0  0  0  0  0  0  0  0  0  0  0
   17.0110  -11.2927  -17.1845 C   0  0  2  0  0  0  0  0  0  0  0  0
   15.9295  -12.0423  -16.5764 N   0  0  0  0  0  0  0  0  0  0  0  0
   17.4589  -10.2614  -16.2368 C   0  0  0  0  0  0  0  0  0  0  0  0
   16.6282   -9.6070  -15.5519 O   0  0  0  0  0  0  0  0  0  0  0  0
   17.5000  -12.5044  -19.9736 C   0  0  0  0  0  0  0  0  0  0  0  0
   17.3555  -13.5590  -20.8443 C   0  0  0  0  0  0  0  0  0  0  0  0
   18.8283   -9.9319  -16.0260 N   0  0  0  0  0  0  0  0  0  0  0  0
   19.2443   -8.8156  -15.1806 C   0  0  1  0  0  0  0  0  0  0  0  0
   20.6659   -9.0143  -14.7023 C   0  0  0  0  0  0  0  0  0  0  0  0
   21.1985   -7.8728  -13.9302 C   0  0  0  0  0  0  0  0  0  0  0  0
   21.0568   -7.8573  -12.5449 C   0  0  0  0  0  0  0  0  0  0  0  0
   21.5367   -6.8088  -11.7890 C   0  0  0  0  0  0  0  0  0  0  0  0
   22.1746   -5.7359  -12.3715 C   0  0  0  0  0  0  0  0  0  0  0  0
   22.3212   -5.7388  -13.7411 C   0  0  0  0  0  0  0  0  0  0  0  0
   21.8353   -6.7985  -14.4973 C   0  0  0  0  0  0  0  0  0  0  0  0
   18.9947   -7.5033  -15.8088 C   0  0  0  0  0  0  0  0  0  0  0  0
   19.3690   -7.3916  -17.0264 O   0  0  0  0  0  0  0  0  0  0  0  0
   14.9938   -5.0356  -17.8983 N   0  0  0  0  0  0  0  0  0  0  0  0
   16.3215   -4.8111  -17.4520 C   0  0  0  0  0  0  0  0  0  0  0  0
   17.1803   -4.5873  -18.3227 O   0  0  0  0  0  0  0  0  0  0  0  0
   16.6979   -4.8358  -16.0199 C   0  0  0  0  0  0  0  0  0  0  0  0
   18.1774   -5.1092  -15.8410 C   0  0  2  0  0  0  0  0  0  0  0  0
   18.3944   -6.3931  -15.2072 N   0  0  0  0  0  0  0  0  0  0  0  0
   18.7001   -3.9687  -15.0533 C   0  0  0  0  0  0  0  0  0  0  0  0
   18.4919   -3.9285  -13.8320 O   0  0  0  0  0  0  0  0  0  0  0  0
   19.4082   -2.9659  -15.6702 O   0  0  0  0  0  0  0  0  0  0  0  0
  2  3  2  0
  2  1  1  0
  4  3  1  0
  5  4  2  0
  6  5  1  0
  7  8  1  1
  7  6  1  0
  9  7  1  0
 10  9  2  0
 11  5  1  0
 11 12  2  0
 12  2  1  0
 13  9  1  0
 14 15  1  6
 14 13  1  0
 16 17  2  0
 16 15  1  0
 18 17  1  0
 19 18  2  0
 20 19  1  0
 20 21  2  0
 21 16  1  0
 22 14  1  0
 23 22  2  0
 25 24  1  0
 26 25  2  0
 27 25  1  0
 28 27  1  1
 28 29  1  0
 29 22  1  0
 30 28  1  0
 30 32  1  0
 31 30  2  0
M  END
$$$$
