YFN.pdb
     RDKit          3D

 32 33  0  0  1  0  0  0  0  0999 V2000
   23.4422    0.6526  -16.9291 O   0  0  0  0  0  0  0  0  0  0  0  0
   23.2096   -0.7034  -16.9896 C   0  0  0  0  0  0  0  0  0  0  0  0
   23.2355   -1.5315  -15.8878 C   0  0  0  0  0  0  0  0  0  0  0  0
   22.9942   -2.8809  -16.0140 C   0  0  0  0  0  0  0  0  0  0  0  0
   22.7209   -3.4382  -17.2431 C   0  0  0  0  0  0  0  0  0  0  0  0
   22.4573   -4.9202  -17.3722 C   0  0  0  0  0  0  0  0  0  0  0  0
   23.7159   -5.6258  -16.9197 C   0  0  2  0  0  0  0  0  0  0  0  0
   24.7822   -5.3663  -17.8669 N   0  0  0  0  0  0  0  0  0  0  0  0
   23.5382   -7.0804  -16.7989 C   0  0  0  0  0  0  0  0  0  0  0  0
   23.3964   -7.8023  -17.8217 O   0  0  0  0  0  0  0  0  0  0  0  0
   22.6935   -2.6191  -18.3447 C   0  0  0  0  0  0  0  0  0  0  0  0
   22.9347   -1.2712  -18.2174 C   0  0  0  0  0  0  0  0  0  0  0  0
   23.5134   -7.7664  -15.5511 N   0  0  0  0  0  0  0  0  0  0  0  0
   23.3433   -9.2141  -15.4561 C   0  0  1  0  0  0  0  0  0  0  0  0
   24.2961   -9.7936  -14.4337 C   0  0  0  0  0  0  0  0  0  0  0  0
   25.5645  -10.2822  -15.0126 C   0  0  0  0  0  0  0  0  0  0  0  0
   26.3869   -9.3973  -15.7054 C   0  0  0  0  0  0  0  0  0  0  0  0
   27.5765   -9.8149  -16.2636 C   0  0  0  0  0  0  0  0  0  0  0  0
   27.9996  -11.1216  -16.1592 C   0  0  0  0  0  0  0  0  0  0  0  0
   27.1954  -12.0072  -15.4764 C   0  0  0  0  0  0  0  0  0  0  0  0
   25.9976  -11.5801  -14.9163 C   0  0  0  0  0  0  0  0  0  0  0  0
   21.9343   -9.6092  -15.2629 C   0  0  0  0  0  0  0  0  0  0  0  0
   21.2868   -8.9413  -14.3855 O   0  0  0  0  0  0  0  0  0  0  0  0
   17.1736  -11.7842  -15.6574 N   0  0  0  0  0  0  0  0  0  0  0  0
   17.5508  -10.7362  -16.5357 C   0  0  0  0  0  0  0  0  0  0  0  0
   16.6421  -10.1839  -17.1799 O   0  0  0  0  0  0  0  0  0  0  0  0
   18.9558  -10.2975  -16.6991 C   0  0  0  0  0  0  0  0  0  0  0  0
   19.8735  -11.0033  -15.7216 C   0  0  2  0  0  0  0  0  0  0  0  0
   21.2540  -10.6252  -15.9411 N   0  0  0  0  0  0  0  0  0  0  0  0
   19.6222  -12.4504  -15.9144 C   0  0  0  0  0  0  0  0  0  0  0  0
   18.5588  -12.9411  -15.5084 O   0  0  0  0  0  0  0  0  0  0  0  0
   20.5584  -13.2404  -16.5367 O   0  0  0  0  0  0  0  0  0  0  0  0
  2  3  2  0
  2  1  1  0
  4  3  1  0
  5  4  2  0
  6  5  1  0
  7  8  1  6
  7  6  1  0
  9  7  1  0
 10  9  2  0
 11  5  1  0
 11 12  2  0
 12  2  1  0
 13  9  1  0
 14 15  1  1
 14 13  1  0
 16 17  2  0
 16 15  1  0
 18 17  1  0
 19 18  2  0
 20 19  1  0
 20 21  2  0
 21 16  1  0
 22 14  1  0
 23 22  2  0
 25 24  1  0
 26 25  2  0
 27 25  1  0
 28 27  1  6
 28 29  1  0
 29 22  1  0
 30 28  1  0
 30 32  1  0
 31 30  2  0
M  END
$$$$
