YFN.pdb
     RDKit          3D

 32 33  0  0  1  0  0  0  0  0999 V2000
   18.9292  -16.3071  -22.7823 O   0  0  0  0  0  0  0  0  0  0  0  0
   18.7533  -15.3838  -21.7758 C   0  0  0  0  0  0  0  0  0  0  0  0
   17.8230  -15.5224  -20.7679 C   0  0  0  0  0  0  0  0  0  0  0  0
   17.6957  -14.5629  -19.7890 C   0  0  0  0  0  0  0  0  0  0  0  0
   18.4935  -13.4408  -19.7910 C   0  0  0  0  0  0  0  0  0  0  0  0
   18.3468  -12.3929  -18.7126 C   0  0  0  0  0  0  0  0  0  0  0  0
   19.5033  -12.5877  -17.7581 C   0  0  2  0  0  0  0  0  0  0  0  0
   19.3568  -13.8578  -17.0747 N   0  0  0  0  0  0  0  0  0  0  0  0
   19.5935  -11.5199  -16.7512 C   0  0  0  0  0  0  0  0  0  0  0  0
   18.7438  -11.4299  -15.8253 O   0  0  0  0  0  0  0  0  0  0  0  0
   19.4222  -13.2964  -20.7920 C   0  0  0  0  0  0  0  0  0  0  0  0
   19.5485  -14.2556  -21.7694 C   0  0  0  0  0  0  0  0  0  0  0  0
   20.6198  -10.5325  -16.7452 N   0  0  0  0  0  0  0  0  0  0  0  0
   20.6135   -9.4016  -15.8206 C   0  0  1  0  0  0  0  0  0  0  0  0
   21.9996   -9.1668  -15.2613 C   0  0  0  0  0  0  0  0  0  0  0  0
   22.0977   -7.9724  -14.3973 C   0  0  0  0  0  0  0  0  0  0  0  0
   21.8192   -8.0859  -13.0376 C   0  0  0  0  0  0  0  0  0  0  0  0
   21.8958   -6.9944  -12.1987 C   0  0  0  0  0  0  0  0  0  0  0  0
   22.2500   -5.7494  -12.6699 C   0  0  0  0  0  0  0  0  0  0  0  0
   22.5281   -5.6235  -14.0130 C   0  0  0  0  0  0  0  0  0  0  0  0
   22.4491   -6.7274  -14.8533 C   0  0  0  0  0  0  0  0  0  0  0  0
   19.9819   -8.1990  -16.3981 C   0  0  0  0  0  0  0  0  0  0  0  0
   20.4963   -7.7723  -17.4884 O   0  0  0  0  0  0  0  0  0  0  0  0
   16.4458   -7.6193  -17.8950 N   0  0  0  0  0  0  0  0  0  0  0  0
   16.0107   -6.8580  -16.7800 C   0  0  0  0  0  0  0  0  0  0  0  0
   14.7991   -6.9009  -16.5044 O   0  0  0  0  0  0  0  0  0  0  0  0
   16.9347   -6.0395  -15.9619 C   0  0  0  0  0  0  0  0  0  0  0  0
   18.3759   -6.2442  -16.3826 C   0  0  2  0  0  0  0  0  0  0  0  0
   18.8910   -7.4986  -15.8744 N   0  0  0  0  0  0  0  0  0  0  0  0
   19.1093   -5.0599  -15.8786 C   0  0  0  0  0  0  0  0  0  0  0  0
   19.1092   -4.8181  -14.6629 O   0  0  0  0  0  0  0  0  0  0  0  0
   19.7826   -4.2382  -16.7498 O   0  0  0  0  0  0  0  0  0  0  0  0
  2  3  2  0
  2  1  1  0
  4  3  1  0
  5  4  2  0
  6  5  1  0
  7  8  1  1
  7  6  1  0
  9  7  1  0
 10  9  2  0
 11  5  1  0
 11 12  2  0
 12  2  1  0
 13  9  1  0
 14 15  1  6
 14 13  1  0
 16 17  2  0
 16 15  1  0
 18 17  1  0
 19 18  2  0
 20 19  1  0
 20 21  2  0
 21 16  1  0
 22 14  1  0
 23 22  2  0
 25 24  1  0
 26 25  2  0
 27 25  1  0
 28 27  1  1
 28 29  1  0
 29 22  1  0
 30 28  1  0
 30 32  1  0
 31 30  2  0
M  END
$$$$
