YFN.pdb
     RDKit          3D

 32 33  0  0  1  0  0  0  0  0999 V2000
   22.7797  -18.4251  -23.6619 O   0  0  0  0  0  0  0  0  0  0  0  0
   22.5241  -19.0129  -22.4431 C   0  0  0  0  0  0  0  0  0  0  0  0
   22.2427  -18.3006  -21.2968 C   0  0  0  0  0  0  0  0  0  0  0  0
   21.9956  -18.9477  -20.1072 C   0  0  0  0  0  0  0  0  0  0  0  0
   22.0231  -20.3222  -20.0312 C   0  0  0  0  0  0  0  0  0  0  0  0
   21.7507  -21.0239  -18.7213 C   0  0  0  0  0  0  0  0  0  0  0  0
   22.9527  -20.7758  -17.8380 C   0  0  2  0  0  0  0  0  0  0  0  0
   24.0842  -21.5309  -18.3388 N   0  0  0  0  0  0  0  0  0  0  0  0
   22.7158  -21.1572  -16.4378 C   0  0  0  0  0  0  0  0  0  0  0  0
   22.8745  -22.3471  -16.0553 O   0  0  0  0  0  0  0  0  0  0  0  0
   22.3028  -21.0379  -21.1691 C   0  0  0  0  0  0  0  0  0  0  0  0
   22.5494  -20.3903  -22.3570 C   0  0  0  0  0  0  0  0  0  0  0  0
   22.3002  -20.2365  -15.4338 N   0  0  0  0  0  0  0  0  0  0  0  0
   22.1227  -20.6273  -14.0375 C   0  0  1  0  0  0  0  0  0  0  0  0
   22.6839  -19.5674  -13.1152 C   0  0  0  0  0  0  0  0  0  0  0  0
   22.5152  -19.8776  -11.6806 C   0  0  0  0  0  0  0  0  0  0  0  0
   23.4836  -20.6338  -11.0250 C   0  0  0  0  0  0  0  0  0  0  0  0
   23.3612  -20.9479   -9.6881 C   0  0  0  0  0  0  0  0  0  0  0  0
   22.2785  -20.5276   -8.9474 C   0  0  0  0  0  0  0  0  0  0  0  0
   21.3133  -19.7789   -9.5840 C   0  0  0  0  0  0  0  0  0  0  0  0
   21.4425  -19.4658  -10.9316 C   0  0  0  0  0  0  0  0  0  0  0  0
   20.7343  -21.0236  -13.7305 C   0  0  0  0  0  0  0  0  0  0  0  0
   19.8266  -20.2145  -14.1265 O   0  0  0  0  0  0  0  0  0  0  0  0
   17.6852  -24.5629  -14.1386 N   0  0  0  0  0  0  0  0  0  0  0  0
   18.2366  -24.8728  -12.8689 C   0  0  0  0  0  0  0  0  0  0  0  0
   18.1490  -26.0529  -12.4875 O   0  0  0  0  0  0  0  0  0  0  0  0
   18.8931  -23.8577  -12.0136 C   0  0  0  0  0  0  0  0  0  0  0  0
   18.9632  -22.5118  -12.7062 C   0  0  2  0  0  0  0  0  0  0  0  0
   20.3277  -22.1826  -13.0624 N   0  0  0  0  0  0  0  0  0  0  0  0
   18.3525  -21.5468  -11.7626 C   0  0  0  0  0  0  0  0  0  0  0  0
   17.1194  -21.4245  -11.7331 O   0  0  0  0  0  0  0  0  0  0  0  0
   19.1449  -20.7954  -10.9289 O   0  0  0  0  0  0  0  0  0  0  0  0
  2  3  2  0
  2  1  1  0
  4  3  1  0
  5  4  2  0
  6  5  1  0
  7  8  1  6
  7  6  1  0
  9  7  1  0
 10  9  2  0
 11  5  1  0
 11 12  2  0
 12  2  1  0
 13  9  1  0
 14 15  1  1
 14 13  1  0
 16 17  2  0
 16 15  1  0
 18 17  1  0
 19 18  2  0
 20 19  1  0
 20 21  2  0
 21 16  1  0
 22 14  1  0
 23 22  2  0
 25 24  1  0
 26 25  2  0
 27 25  1  0
 28 27  1  1
 28 29  1  0
 29 22  1  0
 30 28  1  0
 30 32  1  0
 31 30  2  0
M  END
$$$$
