YFN.pdb
     RDKit          3D

 32 33  0  0  1  0  0  0  0  0999 V2000
   16.9128  -23.0765  -12.6361 O   0  0  0  0  0  0  0  0  0  0  0  0
   18.2544  -22.7685  -12.6781 C   0  0  0  0  0  0  0  0  0  0  0  0
   18.8643  -21.8957  -11.8025 C   0  0  0  0  0  0  0  0  0  0  0  0
   20.2115  -21.6289  -11.8965 C   0  0  0  0  0  0  0  0  0  0  0  0
   20.9844  -22.2264  -12.8668 C   0  0  0  0  0  0  0  0  0  0  0  0
   22.4622  -21.9277  -12.9625 C   0  0  0  0  0  0  0  0  0  0  0  0
   22.7052  -20.6755  -12.1503 C   0  0  2  0  0  0  0  0  0  0  0  0
   22.0962  -19.5416  -12.8171 N   0  0  0  0  0  0  0  0  0  0  0  0
   24.1354  -20.3941  -11.9564 C   0  0  0  0  0  0  0  0  0  0  0  0
   24.6995  -19.4524  -12.5747 O   0  0  0  0  0  0  0  0  0  0  0  0
   20.3833  -23.0968  -13.7422 C   0  0  0  0  0  0  0  0  0  0  0  0
   19.0374  -23.3626  -13.6473 C   0  0  0  0  0  0  0  0  0  0  0  0
   24.9701  -21.1436  -11.0790 N   0  0  0  0  0  0  0  0  0  0  0  0
   26.4270  -21.1348  -11.1857 C   0  0  1  0  0  0  0  0  0  0  0  0
   27.0534  -21.7083   -9.9336 C   0  0  0  0  0  0  0  0  0  0  0  0
   26.9816  -20.8061   -8.7659 C   0  0  0  0  0  0  0  0  0  0  0  0
   28.1099  -20.6247   -7.9701 C   0  0  0  0  0  0  0  0  0  0  0  0
   28.0826  -19.7943   -6.8698 C   0  0  0  0  0  0  0  0  0  0  0  0
   26.9407  -19.1114   -6.5130 C   0  0  0  0  0  0  0  0  0  0  0  0
   25.8175  -19.2821   -7.2919 C   0  0  0  0  0  0  0  0  0  0  0  0
   25.8515  -20.1205   -8.3995 C   0  0  0  0  0  0  0  0  0  0  0  0
   26.9086  -21.7479  -12.4391 C   0  0  0  0  0  0  0  0  0  0  0  0
   26.7259  -23.0092  -12.5449 O   0  0  0  0  0  0  0  0  0  0  0  0
   26.8660  -22.0657  -17.5885 N   0  0  0  0  0  0  0  0  0  0  0  0
   25.7794  -21.6578  -16.7730 C   0  0  0  0  0  0  0  0  0  0  0  0
   24.6556  -21.6248  -17.3038 O   0  0  0  0  0  0  0  0  0  0  0  0
   25.9453  -21.2822  -15.3501 C   0  0  0  0  0  0  0  0  0  0  0  0
   27.3856  -21.4287  -14.9031 C   0  0  2  0  0  0  0  0  0  0  0  0
   27.5311  -21.0882  -13.5031 N   0  0  0  0  0  0  0  0  0  0  0  0
   28.1726  -20.5563  -15.8054 C   0  0  0  0  0  0  0  0  0  0  0  0
   28.8937  -21.0722  -16.6716 O   0  0  0  0  0  0  0  0  0  0  0  0
   28.1038  -19.1896  -15.6832 O   0  0  0  0  0  0  0  0  0  0  0  0
  2  3  2  0
  2  1  1  0
  4  3  1  0
  5  4  2  0
  6  5  1  0
  7  8  1  6
  7  6  1  0
  9  7  1  0
 10  9  2  0
 11  5  1  0
 11 12  2  0
 12  2  1  0
 13  9  1  0
 14 15  1  1
 14 13  1  0
 16 17  2  0
 16 15  1  0
 18 17  1  0
 19 18  2  0
 20 19  1  0
 20 21  2  0
 21 16  1  0
 22 14  1  0
 23 22  2  0
 25 24  1  0
 26 25  2  0
 27 25  1  0
 28 27  1  6
 28 29  1  0
 29 22  1  0
 30 28  1  0
 30 32  1  0
 31 30  2  0
M  END
$$$$
