YFN.pdb
     RDKit          3D

 32 33  0  0  1  0  0  0  0  0999 V2000
   16.1496  -25.6998   -9.9627 O   0  0  0  0  0  0  0  0  0  0  0  0
   17.0415  -24.8189  -10.5327 C   0  0  0  0  0  0  0  0  0  0  0  0
   18.2423  -25.2033  -11.0904 C   0  0  0  0  0  0  0  0  0  0  0  0
   19.0919  -24.2732  -11.6455 C   0  0  0  0  0  0  0  0  0  0  0  0
   18.7648  -22.9359  -11.6582 C   0  0  0  0  0  0  0  0  0  0  0  0
   19.7034  -21.9221  -12.2697 C   0  0  0  0  0  0  0  0  0  0  0  0
   20.8468  -21.7466  -11.2958 C   0  0  2  0  0  0  0  0  0  0  0  0
   20.3566  -21.1216  -10.0831 N   0  0  0  0  0  0  0  0  0  0  0  0
   21.9356  -20.9231  -11.8421 C   0  0  0  0  0  0  0  0  0  0  0  0
   21.8774  -19.6651  -11.8039 O   0  0  0  0  0  0  0  0  0  0  0  0
   17.5703  -22.5460  -11.1046 C   0  0  0  0  0  0  0  0  0  0  0  0
   16.7224  -23.4761  -10.5503 C   0  0  0  0  0  0  0  0  0  0  0  0
   23.1074  -21.4688  -12.4398 N   0  0  0  0  0  0  0  0  0  0  0  0
   24.1725  -20.6302  -12.9841 C   0  0  1  0  0  0  0  0  0  0  0  0
   25.5083  -21.0174  -12.3885 C   0  0  0  0  0  0  0  0  0  0  0  0
   25.5693  -20.8710  -10.9196 C   0  0  0  0  0  0  0  0  0  0  0  0
   25.8484  -19.6238  -10.3666 C   0  0  0  0  0  0  0  0  0  0  0  0
   25.9178  -19.4466   -9.0010 C   0  0  0  0  0  0  0  0  0  0  0  0
   25.7143  -20.4936   -8.1293 C   0  0  0  0  0  0  0  0  0  0  0  0
   25.4375  -21.7328   -8.6634 C   0  0  0  0  0  0  0  0  0  0  0  0
   25.3690  -21.9048  -10.0406 C   0  0  0  0  0  0  0  0  0  0  0  0
   24.1589  -20.5805  -14.4593 C   0  0  0  0  0  0  0  0  0  0  0  0
   23.6672  -21.6061  -15.0437 O   0  0  0  0  0  0  0  0  0  0  0  0
   21.0463  -18.4949  -17.8982 N   0  0  0  0  0  0  0  0  0  0  0  0
   21.8610  -17.7150  -17.0379 C   0  0  0  0  0  0  0  0  0  0  0  0
   21.9232  -16.4952  -17.2706 O   0  0  0  0  0  0  0  0  0  0  0  0
   22.6154  -18.2992  -15.9054 C   0  0  0  0  0  0  0  0  0  0  0  0
   23.9037  -18.9454  -16.3730 C   0  0  2  0  0  0  0  0  0  0  0  0
   24.6221  -19.5331  -15.2613 N   0  0  0  0  0  0  0  0  0  0  0  0
   24.6597  -17.8731  -17.0607 C   0  0  0  0  0  0  0  0  0  0  0  0
   24.6325  -17.8093  -18.2983 O   0  0  0  0  0  0  0  0  0  0  0  0
   25.3834  -16.9587  -16.3342 O   0  0  0  0  0  0  0  0  0  0  0  0
  2  3  2  0
  2  1  1  0
  4  3  1  0
  5  4  2  0
  6  5  1  0
  7  8  1  1
  7  6  1  0
  9  7  1  0
 10  9  2  0
 11  5  1  0
 11 12  2  0
 12  2  1  0
 13  9  1  0
 14 15  1  6
 14 13  1  0
 16 17  2  0
 16 15  1  0
 18 17  1  0
 19 18  2  0
 20 19  1  0
 20 21  2  0
 21 16  1  0
 22 14  1  0
 23 22  2  0
 25 24  1  0
 26 25  2  0
 27 25  1  0
 28 27  1  1
 28 29  1  0
 29 22  1  0
 30 28  1  0
 30 32  1  0
 31 30  2  0
M  END
$$$$
