YFN.pdb
     RDKit          3D

 32 33  0  0  1  0  0  0  0  0999 V2000
   27.8563  -18.8377  -22.5026 O   0  0  0  0  0  0  0  0  0  0  0  0
   27.4671  -19.6270  -21.4434 C   0  0  0  0  0  0  0  0  0  0  0  0
   26.5071  -19.2543  -20.5268 C   0  0  0  0  0  0  0  0  0  0  0  0
   26.1617  -20.0893  -19.4884 C   0  0  0  0  0  0  0  0  0  0  0  0
   26.7654  -21.3176  -19.3382 C   0  0  0  0  0  0  0  0  0  0  0  0
   26.3799  -22.2276  -18.1955 C   0  0  0  0  0  0  0  0  0  0  0  0
   27.2320  -21.8243  -17.0132 C   0  0  2  0  0  0  0  0  0  0  0  0
   28.4041  -22.6751  -16.9501 N   0  0  0  0  0  0  0  0  0  0  0  0
   26.5113  -21.9216  -15.7353 C   0  0  0  0  0  0  0  0  0  0  0  0
   26.3058  -23.0394  -15.1915 O   0  0  0  0  0  0  0  0  0  0  0  0
   27.7223  -21.6952  -20.2476 C   0  0  0  0  0  0  0  0  0  0  0  0
   28.0666  -20.8601  -21.2846 C   0  0  0  0  0  0  0  0  0  0  0  0
   26.0039  -20.7912  -15.0331 N   0  0  0  0  0  0  0  0  0  0  0  0
   25.4127  -20.8966  -13.7015 C   0  0  1  0  0  0  0  0  0  0  0  0
   26.0690  -19.9189  -12.7515 C   0  0  0  0  0  0  0  0  0  0  0  0
   27.4000  -20.3519  -12.2784 C   0  0  0  0  0  0  0  0  0  0  0  0
   27.5032  -21.0785  -11.0949 C   0  0  0  0  0  0  0  0  0  0  0  0
   28.7271  -21.4976  -10.6178 C   0  0  0  0  0  0  0  0  0  0  0  0
   29.8955  -21.2155  -11.2907 C   0  0  0  0  0  0  0  0  0  0  0  0
   29.8073  -20.4974  -12.4628 C   0  0  0  0  0  0  0  0  0  0  0  0
   28.5709  -20.0779  -12.9382 C   0  0  0  0  0  0  0  0  0  0  0  0
   23.9388  -20.8199  -13.7265 C   0  0  0  0  0  0  0  0  0  0  0  0
   23.4445  -19.8921  -14.4546 O   0  0  0  0  0  0  0  0  0  0  0  0
   18.6582  -23.1484  -12.6258 N   0  0  0  0  0  0  0  0  0  0  0  0
   19.5151  -22.2548  -11.9334 C   0  0  0  0  0  0  0  0  0  0  0  0
   18.9753  -21.3356  -11.2935 O   0  0  0  0  0  0  0  0  0  0  0  0
   20.9901  -22.3857  -11.9534 C   0  0  0  0  0  0  0  0  0  0  0  0
   21.6086  -21.5158  -13.0289 C   0  0  2  0  0  0  0  0  0  0  0  0
   23.0500  -21.6552  -13.0429 N   0  0  0  0  0  0  0  0  0  0  0  0
   21.1539  -20.1369  -12.7353 C   0  0  0  0  0  0  0  0  0  0  0  0
   20.0214  -19.7822  -13.0931 O   0  0  0  0  0  0  0  0  0  0  0  0
   21.9791  -19.2603  -12.0732 O   0  0  0  0  0  0  0  0  0  0  0  0
  2  3  2  0
  2  1  1  0
  4  3  1  0
  5  4  2  0
  6  5  1  0
  7  8  1  1
  7  6  1  0
  9  7  1  0
 10  9  2  0
 11  5  1  0
 11 12  2  0
 12  2  1  0
 13  9  1  0
 14 15  1  1
 14 13  1  0
 16 17  2  0
 16 15  1  0
 18 17  1  0
 19 18  2  0
 20 19  1  0
 20 21  2  0
 21 16  1  0
 22 14  1  0
 23 22  2  0
 25 24  1  0
 26 25  2  0
 27 25  1  0
 28 27  1  1
 28 29  1  0
 29 22  1  0
 30 28  1  0
 30 32  1  0
 31 30  2  0
M  END
$$$$
