YFN.pdb
     RDKit          3D

 32 33  0  0  1  0  0  0  0  0999 V2000
   19.0393  -15.0491  -23.9734 O   0  0  0  0  0  0  0  0  0  0  0  0
   18.9441  -14.1860  -22.9046 C   0  0  0  0  0  0  0  0  0  0  0  0
   19.9382  -13.2991  -22.5498 C   0  0  0  0  0  0  0  0  0  0  0  0
   19.7825  -12.4609  -21.4689 C   0  0  0  0  0  0  0  0  0  0  0  0
   18.6309  -12.4866  -20.7146 C   0  0  0  0  0  0  0  0  0  0  0  0
   18.4688  -11.5630  -19.5301 C   0  0  0  0  0  0  0  0  0  0  0  0
   19.3317  -12.1232  -18.4218 C   0  0  2  0  0  0  0  0  0  0  0  0
   18.7861  -13.3912  -17.9791 N   0  0  0  0  0  0  0  0  0  0  0  0
   19.4240  -11.2213  -17.2641 C   0  0  0  0  0  0  0  0  0  0  0  0
   18.4708  -11.1177  -16.4468 O   0  0  0  0  0  0  0  0  0  0  0  0
   17.6368  -13.3675  -21.0625 C   0  0  0  0  0  0  0  0  0  0  0  0
   17.7934  -14.2043  -22.1425 C   0  0  0  0  0  0  0  0  0  0  0  0
   20.5662  -10.4178  -16.9852 N   0  0  0  0  0  0  0  0  0  0  0  0
   20.5627   -9.3815  -15.9556 C   0  0  1  0  0  0  0  0  0  0  0  0
   21.9405   -9.2332  -15.3484 C   0  0  0  0  0  0  0  0  0  0  0  0
   22.0370   -8.1476  -14.3510 C   0  0  0  0  0  0  0  0  0  0  0  0
   22.3971   -6.8675  -14.7646 C   0  0  0  0  0  0  0  0  0  0  0  0
   22.5018   -5.8284  -13.8644 C   0  0  0  0  0  0  0  0  0  0  0  0
   22.2552   -6.0132  -12.5218 C   0  0  0  0  0  0  0  0  0  0  0  0
   21.8981   -7.2748  -12.0995 C   0  0  0  0  0  0  0  0  0  0  0  0
   21.7944   -8.3178  -13.0117 C   0  0  0  0  0  0  0  0  0  0  0  0
   19.9689   -8.1148  -16.4264 C   0  0  0  0  0  0  0  0  0  0  0  0
   20.3690   -7.7068  -17.5705 O   0  0  0  0  0  0  0  0  0  0  0  0
   15.3583   -4.3205  -16.5272 N   0  0  0  0  0  0  0  0  0  0  0  0
   16.4097   -5.0387  -17.1524 C   0  0  0  0  0  0  0  0  0  0  0  0
   16.8434   -4.5856  -18.2259 O   0  0  0  0  0  0  0  0  0  0  0  0
   16.9852   -6.2756  -16.5763 C   0  0  0  0  0  0  0  0  0  0  0  0
   18.4518   -6.0989  -16.2389 C   0  0  2  0  0  0  0  0  0  0  0  0
   19.0241   -7.3364  -15.7509 N   0  0  0  0  0  0  0  0  0  0  0  0
   18.5022   -4.9973  -15.2497 C   0  0  0  0  0  0  0  0  0  0  0  0
   18.3195   -5.2501  -14.0501 O   0  0  0  0  0  0  0  0  0  0  0  0
   18.7490   -3.7089  -15.6580 O   0  0  0  0  0  0  0  0  0  0  0  0
  2  3  2  0
  2  1  1  0
  4  3  1  0
  5  4  2  0
  6  5  1  0
  7  8  1  1
  7  6  1  0
  9  7  1  0
 10  9  2  0
 11  5  1  0
 11 12  2  0
 12  2  1  0
 13  9  1  0
 14 15  1  6
 14 13  1  0
 16 17  2  0
 16 15  1  0
 18 17  1  0
 19 18  2  0
 20 19  1  0
 20 21  2  0
 21 16  1  0
 22 14  1  0
 23 22  2  0
 25 24  1  0
 26 25  2  0
 27 25  1  0
 28 27  1  1
 28 29  1  0
 29 22  1  0
 30 28  1  0
 30 32  1  0
 31 30  2  0
M  END
$$$$
