YFN.pdb
     RDKit          3D

 32 33  0  0  1  0  0  0  0  0999 V2000
   16.7644  -16.3574  -19.2240 O   0  0  0  0  0  0  0  0  0  0  0  0
   16.9582  -15.0660  -18.7871 C   0  0  0  0  0  0  0  0  0  0  0  0
   18.1640  -14.4036  -18.8764 C   0  0  0  0  0  0  0  0  0  0  0  0
   18.2939  -13.1110  -18.4209 C   0  0  0  0  0  0  0  0  0  0  0  0
   17.2238  -12.4466  -17.8649 C   0  0  0  0  0  0  0  0  0  0  0  0
   17.3756  -11.0281  -17.3677 C   0  0  0  0  0  0  0  0  0  0  0  0
   18.0018  -11.1144  -15.9940 C   0  0  2  0  0  0  0  0  0  0  0  0
   17.0643  -11.7269  -15.0735 N   0  0  0  0  0  0  0  0  0  0  0  0
   18.3895   -9.7987  -15.4639 C   0  0  0  0  0  0  0  0  0  0  0  0
   17.5332   -9.0292  -14.9521 O   0  0  0  0  0  0  0  0  0  0  0  0
   16.0199  -13.1004  -17.7729 C   0  0  0  0  0  0  0  0  0  0  0  0
   15.8913  -14.3917  -18.2282 C   0  0  0  0  0  0  0  0  0  0  0  0
   19.7257   -9.3067  -15.4874 N   0  0  0  0  0  0  0  0  0  0  0  0
   20.0723   -7.9591  -15.0426 C   0  0  1  0  0  0  0  0  0  0  0  0
   21.5268   -7.8947  -14.6310 C   0  0  0  0  0  0  0  0  0  0  0  0
   22.0197   -6.5208  -14.4023 C   0  0  0  0  0  0  0  0  0  0  0  0
   21.6869   -5.8613  -13.2218 C   0  0  0  0  0  0  0  0  0  0  0  0
   22.1240   -4.5776  -12.9725 C   0  0  0  0  0  0  0  0  0  0  0  0
   22.9061   -3.8961  -13.8787 C   0  0  0  0  0  0  0  0  0  0  0  0
   23.2424   -4.5371  -15.0506 C   0  0  0  0  0  0  0  0  0  0  0  0
   22.7987   -5.8309  -15.2959 C   0  0  0  0  0  0  0  0  0  0  0  0
   19.6705   -6.9201  -16.0111 C   0  0  0  0  0  0  0  0  0  0  0  0
   19.9803   -7.1497  -17.2304 O   0  0  0  0  0  0  0  0  0  0  0  0
   16.5675   -3.8746  -19.2340 N   0  0  0  0  0  0  0  0  0  0  0  0
   16.8100   -3.5616  -17.8719 C   0  0  0  0  0  0  0  0  0  0  0  0
   16.7174   -2.3666  -17.5413 O   0  0  0  0  0  0  0  0  0  0  0  0
   17.1596   -4.5905  -16.8657 C   0  0  0  0  0  0  0  0  0  0  0  0
   18.6599   -4.7008  -16.6850 C   0  0  2  0  0  0  0  0  0  0  0  0
   18.9918   -5.7320  -15.7239 N   0  0  0  0  0  0  0  0  0  0  0  0
   19.1118   -3.3501  -16.2779 C   0  0  0  0  0  0  0  0  0  0  0  0
   19.6937   -2.6307  -17.1026 O   0  0  0  0  0  0  0  0  0  0  0  0
   18.8880   -2.8995  -14.9994 O   0  0  0  0  0  0  0  0  0  0  0  0
  2  3  2  0
  2  1  1  0
  4  3  1  0
  5  4  2  0
  6  5  1  0
  7  8  1  1
  7  6  1  0
  9  7  1  0
 10  9  2  0
 11  5  1  0
 11 12  2  0
 12  2  1  0
 13  9  1  0
 14 15  1  6
 14 13  1  0
 16 17  2  0
 16 15  1  0
 18 17  1  0
 19 18  2  0
 20 19  1  0
 20 21  2  0
 21 16  1  0
 22 14  1  0
 23 22  2  0
 25 24  1  0
 26 25  2  0
 27 25  1  0
 28 27  1  1
 28 29  1  0
 29 22  1  0
 30 28  1  0
 30 32  1  0
 31 30  2  0
M  END
$$$$
