YFN.pdb
     RDKit          3D

 32 33  0  0  1  0  0  0  0  0999 V2000
   13.7815  -14.7458  -18.0858 O   0  0  0  0  0  0  0  0  0  0  0  0
   14.6056  -13.9509  -17.3208 C   0  0  0  0  0  0  0  0  0  0  0  0
   14.4203  -12.5945  -17.1578 C   0  0  0  0  0  0  0  0  0  0  0  0
   15.2804  -11.8539  -16.3789 C   0  0  0  0  0  0  0  0  0  0  0  0
   16.3473  -12.4480  -15.7428 C   0  0  0  0  0  0  0  0  0  0  0  0
   17.2861  -11.6272  -14.8899 C   0  0  0  0  0  0  0  0  0  0  0  0
   18.3640  -11.1032  -15.8120 C   0  0  2  0  0  0  0  0  0  0  0  0
   19.2898  -12.1726  -16.1295 N   0  0  0  0  0  0  0  0  0  0  0  0
   19.1193   -9.9867  -15.2245 C   0  0  0  0  0  0  0  0  0  0  0  0
   20.1239  -10.1981  -14.4942 O   0  0  0  0  0  0  0  0  0  0  0  0
   16.5378  -13.7985  -15.9009 C   0  0  0  0  0  0  0  0  0  0  0  0
   15.6779  -14.5374  -16.6793 C   0  0  0  0  0  0  0  0  0  0  0  0
   18.7827   -8.6182  -15.4301 N   0  0  0  0  0  0  0  0  0  0  0  0
   19.4938   -7.5283  -14.7665 C   0  0  1  0  0  0  0  0  0  0  0  0
   19.9169   -6.4812  -15.7733 C   0  0  0  0  0  0  0  0  0  0  0  0
   20.5860   -5.3110  -15.1686 C   0  0  0  0  0  0  0  0  0  0  0  0
   19.8994   -4.1033  -15.0726 C   0  0  0  0  0  0  0  0  0  0  0  0
   20.4899   -2.9874  -14.5185 C   0  0  0  0  0  0  0  0  0  0  0  0
   21.7804   -3.0210  -14.0380 C   0  0  0  0  0  0  0  0  0  0  0  0
   22.4708   -4.2096  -14.1271 C   0  0  0  0  0  0  0  0  0  0  0  0
   21.8701   -5.3306  -14.6867 C   0  0  0  0  0  0  0  0  0  0  0  0
   18.7548   -6.9902  -13.6075 C   0  0  0  0  0  0  0  0  0  0  0  0
   19.3748   -6.1129  -12.9138 O   0  0  0  0  0  0  0  0  0  0  0  0
   15.3969   -7.0505   -9.2726 N   0  0  0  0  0  0  0  0  0  0  0  0
   16.6974   -6.5960   -9.6108 C   0  0  0  0  0  0  0  0  0  0  0  0
   17.1998   -5.7252   -8.8794 O   0  0  0  0  0  0  0  0  0  0  0  0
   17.4476   -7.1168  -10.7765 C   0  0  0  0  0  0  0  0  0  0  0  0
   16.7497   -6.7812  -12.0789 C   0  0  2  0  0  0  0  0  0  0  0  0
   17.4619   -7.3421  -13.2082 N   0  0  0  0  0  0  0  0  0  0  0  0
   16.6627   -5.3028  -12.1140 C   0  0  0  0  0  0  0  0  0  0  0  0
   15.9663   -4.7158  -11.2732 O   0  0  0  0  0  0  0  0  0  0  0  0
   17.3470   -4.5899  -13.0685 O   0  0  0  0  0  0  0  0  0  0  0  0
  2  3  2  0
  2  1  1  0
  4  3  1  0
  5  4  2  0
  6  5  1  0
  7  8  1  1
  7  6  1  0
  9  7  1  0
 10  9  2  0
 11  5  1  0
 11 12  2  0
 12  2  1  0
 13  9  1  0
 14 15  1  6
 14 13  1  0
 16 17  2  0
 16 15  1  0
 18 17  1  0
 19 18  2  0
 20 19  1  0
 20 21  2  0
 21 16  1  0
 22 14  1  0
 23 22  2  0
 25 24  1  0
 26 25  2  0
 27 25  1  0
 28 27  1  1
 28 29  1  0
 29 22  1  0
 30 28  1  0
 30 32  1  0
 31 30  2  0
M  END
$$$$
