YFN.pdb
     RDKit          3D

 32 33  0  0  1  0  0  0  0  0999 V2000
   18.4617  -12.8790  -19.2869 O   0  0  0  0  0  0  0  0  0  0  0  0
   19.3882  -13.8526  -18.9867 C   0  0  0  0  0  0  0  0  0  0  0  0
   19.8402  -14.1074  -17.7094 C   0  0  0  0  0  0  0  0  0  0  0  0
   20.7688  -15.0959  -17.4740 C   0  0  0  0  0  0  0  0  0  0  0  0
   21.2701  -15.8554  -18.5073 C   0  0  0  0  0  0  0  0  0  0  0  0
   22.2890  -16.9382  -18.2396 C   0  0  0  0  0  0  0  0  0  0  0  0
   23.6017  -16.2401  -17.9634 C   0  0  2  0  0  0  0  0  0  0  0  0
   24.1954  -15.8150  -19.2157 N   0  0  0  0  0  0  0  0  0  0  0  0
   24.5626  -17.0988  -17.2552 C   0  0  0  0  0  0  0  0  0  0  0  0
   25.2833  -17.9191  -17.8838 O   0  0  0  0  0  0  0  0  0  0  0  0
   20.8243  -15.6069  -19.7820 C   0  0  0  0  0  0  0  0  0  0  0  0
   19.8965  -14.6191  -20.0159 C   0  0  0  0  0  0  0  0  0  0  0  0
   24.7474  -17.0703  -15.8434 N   0  0  0  0  0  0  0  0  0  0  0  0
   25.7161  -17.9260  -15.1627 C   0  0  1  0  0  0  0  0  0  0  0  0
   26.8692  -17.1028  -14.6319 C   0  0  0  0  0  0  0  0  0  0  0  0
   27.7528  -16.5668  -15.6878 C   0  0  0  0  0  0  0  0  0  0  0  0
   27.6028  -15.2454  -16.1009 C   0  0  0  0  0  0  0  0  0  0  0  0
   28.4049  -14.7089  -17.0858 C   0  0  0  0  0  0  0  0  0  0  0  0
   29.3854  -15.4562  -17.7003 C   0  0  0  0  0  0  0  0  0  0  0  0
   29.5441  -16.7649  -17.3009 C   0  0  0  0  0  0  0  0  0  0  0  0
   28.7326  -17.2997  -16.3079 C   0  0  0  0  0  0  0  0  0  0  0  0
   25.0887  -18.8074  -14.1585 C   0  0  0  0  0  0  0  0  0  0  0  0
   24.0992  -18.3061  -13.5222 O   0  0  0  0  0  0  0  0  0  0  0  0
   25.1183  -22.5437  -10.1320 N   0  0  0  0  0  0  0  0  0  0  0  0
   24.7101  -21.2005  -10.3352 C   0  0  0  0  0  0  0  0  0  0  0  0
   23.8642  -20.7416   -9.5480 O   0  0  0  0  0  0  0  0  0  0  0  0
   25.2496  -20.3580  -11.4271 C   0  0  0  0  0  0  0  0  0  0  0  0
   24.9013  -20.9257  -12.7881 C   0  0  2  0  0  0  0  0  0  0  0  0
   25.4674  -20.1168  -13.8475 N   0  0  0  0  0  0  0  0  0  0  0  0
   23.4219  -20.9913  -12.8248 C   0  0  0  0  0  0  0  0  0  0  0  0
   22.7621  -20.2001  -12.1354 O   0  0  0  0  0  0  0  0  0  0  0  0
   22.7878  -21.9195  -13.6147 O   0  0  0  0  0  0  0  0  0  0  0  0
  2  3  2  0
  2  1  1  0
  4  3  1  0
  5  4  2  0
  6  5  1  0
  7  8  1  6
  7  6  1  0
  9  7  1  0
 10  9  2  0
 11  5  1  0
 11 12  2  0
 12  2  1  0
 13  9  1  0
 14 15  1  1
 14 13  1  0
 16 17  2  0
 16 15  1  0
 18 17  1  0
 19 18  2  0
 20 19  1  0
 20 21  2  0
 21 16  1  0
 22 14  1  0
 23 22  2  0
 25 24  1  0
 26 25  2  0
 27 25  1  0
 28 27  1  1
 28 29  1  0
 29 22  1  0
 30 28  1  0
 30 32  1  0
 31 30  2  0
M  END
$$$$
