YFN.pdb
     RDKit          3D

 32 33  0  0  1  0  0  0  0  0999 V2000
   17.6378  -23.6747  -12.7738 O   0  0  0  0  0  0  0  0  0  0  0  0
   18.7141  -22.9314  -12.3431 C   0  0  0  0  0  0  0  0  0  0  0  0
   20.0149  -23.3876  -12.3680 C   0  0  0  0  0  0  0  0  0  0  0  0
   21.0487  -22.5952  -11.9227 C   0  0  0  0  0  0  0  0  0  0  0  0
   20.8108  -21.3274  -11.4412 C   0  0  0  0  0  0  0  0  0  0  0  0
   21.9516  -20.4648  -10.9546 C   0  0  0  0  0  0  0  0  0  0  0  0
   22.4319  -21.0726   -9.6560 C   0  0  2  0  0  0  0  0  0  0  0  0
   21.4187  -20.8932   -8.6349 N   0  0  0  0  0  0  0  0  0  0  0  0
   23.6888  -20.4753   -9.1810 C   0  0  0  0  0  0  0  0  0  0  0  0
   23.7396  -19.2655   -8.8331 O   0  0  0  0  0  0  0  0  0  0  0  0
   19.5176  -20.8668  -11.4136 C   0  0  0  0  0  0  0  0  0  0  0  0
   18.4856  -21.6593  -11.8588 C   0  0  0  0  0  0  0  0  0  0  0  0
   24.9117  -21.1983   -9.0803 N   0  0  0  0  0  0  0  0  0  0  0  0
   26.2139  -20.5365   -9.0633 C   0  0  1  0  0  0  0  0  0  0  0  0
   27.1718  -21.2754   -8.1548 C   0  0  0  0  0  0  0  0  0  0  0  0
   27.5326  -20.5248   -6.9345 C   0  0  0  0  0  0  0  0  0  0  0  0
   27.5557  -21.1828   -5.7074 C   0  0  0  0  0  0  0  0  0  0  0  0
   27.8835  -20.5170   -4.5454 C   0  0  0  0  0  0  0  0  0  0  0  0
   28.2010  -19.1766   -4.5503 C   0  0  0  0  0  0  0  0  0  0  0  0
   28.1819  -18.5139   -5.7576 C   0  0  0  0  0  0  0  0  0  0  0  0
   27.8506  -19.1905   -6.9252 C   0  0  0  0  0  0  0  0  0  0  0  0
   26.7396  -20.2819  -10.4190 C   0  0  0  0  0  0  0  0  0  0  0  0
   28.0068  -20.1315  -10.5026 O   0  0  0  0  0  0  0  0  0  0  0  0
   27.7050  -22.5168  -15.4855 N   0  0  0  0  0  0  0  0  0  0  0  0
   27.8999  -21.4404  -14.5823 C   0  0  0  0  0  0  0  0  0  0  0  0
   28.5688  -20.4748  -14.9896 O   0  0  0  0  0  0  0  0  0  0  0  0
   27.3439  -21.4387  -13.2097 C   0  0  0  0  0  0  0  0  0  0  0  0
   26.5412  -20.1824  -12.9392 C   0  0  2  0  0  0  0  0  0  0  0  0
   25.9939  -20.1956  -11.5985 N   0  0  0  0  0  0  0  0  0  0  0  0
   25.5051  -20.1370  -13.9969 C   0  0  0  0  0  0  0  0  0  0  0  0
   24.3375  -20.4441  -13.7163 O   0  0  0  0  0  0  0  0  0  0  0  0
   25.8352  -19.7585  -15.2758 O   0  0  0  0  0  0  0  0  0  0  0  0
  2  3  2  0
  2  1  1  0
  4  3  1  0
  5  4  2  0
  6  5  1  0
  7  8  1  1
  7  6  1  0
  9  7  1  0
 10  9  2  0
 11  5  1  0
 11 12  2  0
 12  2  1  0
 13  9  1  0
 14 15  1  1
 14 13  1  0
 16 17  2  0
 16 15  1  0
 18 17  1  0
 19 18  2  0
 20 19  1  0
 20 21  2  0
 21 16  1  0
 22 14  1  0
 23 22  2  0
 25 24  1  0
 26 25  2  0
 27 25  1  0
 28 27  1  6
 28 29  1  0
 29 22  1  0
 30 28  1  0
 30 32  1  0
 31 30  2  0
M  END
$$$$
