YFN.pdb
     RDKit          3D

 32 33  0  0  1  0  0  0  0  0999 V2000
   28.9541  -15.3457  -17.9673 O   0  0  0  0  0  0  0  0  0  0  0  0
   28.3266  -16.2818  -17.1758 C   0  0  0  0  0  0  0  0  0  0  0  0
   27.8440  -16.0123  -15.9129 C   0  0  0  0  0  0  0  0  0  0  0  0
   27.2253  -16.9926  -15.1704 C   0  0  0  0  0  0  0  0  0  0  0  0
   27.0726  -18.2668  -15.6694 C   0  0  0  0  0  0  0  0  0  0  0  0
   26.3923  -19.3363  -14.8474 C   0  0  0  0  0  0  0  0  0  0  0  0
   27.4120  -19.8269  -13.8443 C   0  0  2  0  0  0  0  0  0  0  0  0
   28.3824  -20.6696  -14.5147 N   0  0  0  0  0  0  0  0  0  0  0  0
   26.8040  -20.5925  -12.7458 C   0  0  0  0  0  0  0  0  0  0  0  0
   26.5976  -21.8304  -12.8564 O   0  0  0  0  0  0  0  0  0  0  0  0
   27.5510  -18.5420  -16.9266 C   0  0  0  0  0  0  0  0  0  0  0  0
   28.1689  -17.5619  -17.6674 C   0  0  0  0  0  0  0  0  0  0  0  0
   26.4125  -20.0098  -11.5067 N   0  0  0  0  0  0  0  0  0  0  0  0
   25.3519  -20.5743  -10.6759 C   0  0  1  0  0  0  0  0  0  0  0  0
   25.4278  -20.0195   -9.2704 C   0  0  0  0  0  0  0  0  0  0  0  0
   26.7539  -20.1795   -8.6388 C   0  0  0  0  0  0  0  0  0  0  0  0
   27.1064  -19.3601   -7.5694 C   0  0  0  0  0  0  0  0  0  0  0  0
   28.3356  -19.4754   -6.9555 C   0  0  0  0  0  0  0  0  0  0  0  0
   29.2634  -20.4037   -7.3736 C   0  0  0  0  0  0  0  0  0  0  0  0
   28.9271  -21.2205   -8.4305 C   0  0  0  0  0  0  0  0  0  0  0  0
   27.6868  -21.0992   -9.0451 C   0  0  0  0  0  0  0  0  0  0  0  0
   24.0193  -20.4605  -11.3006 C   0  0  0  0  0  0  0  0  0  0  0  0
   23.9677  -19.7661  -12.3732 O   0  0  0  0  0  0  0  0  0  0  0  0
   19.4196  -21.9964  -13.1928 N   0  0  0  0  0  0  0  0  0  0  0  0
   20.6932  -22.5115  -13.5460 C   0  0  0  0  0  0  0  0  0  0  0  0
   20.7584  -23.1974  -14.5809 O   0  0  0  0  0  0  0  0  0  0  0  0
   21.9086  -22.2605  -12.7379 C   0  0  0  0  0  0  0  0  0  0  0  0
   21.6417  -21.2587  -11.6329 C   0  0  2  0  0  0  0  0  0  0  0  0
   22.8312  -21.0344  -10.8381 N   0  0  0  0  0  0  0  0  0  0  0  0
   20.5112  -21.8166  -10.8551 C   0  0  0  0  0  0  0  0  0  0  0  0
   20.7143  -22.2404   -9.7081 O   0  0  0  0  0  0  0  0  0  0  0  0
   19.2506  -21.8637  -11.3995 O   0  0  0  0  0  0  0  0  0  0  0  0
  2  3  2  0
  2  1  1  0
  4  3  1  0
  5  4  2  0
  6  5  1  0
  7  8  1  6
  7  6  1  0
  9  7  1  0
 10  9  2  0
 11  5  1  0
 11 12  2  0
 12  2  1  0
 13  9  1  0
 14 15  1  1
 14 13  1  0
 16 17  2  0
 16 15  1  0
 18 17  1  0
 19 18  2  0
 20 19  1  0
 20 21  2  0
 21 16  1  0
 22 14  1  0
 23 22  2  0
 25 24  1  0
 26 25  2  0
 27 25  1  0
 28 27  1  6
 28 29  1  0
 29 22  1  0
 30 28  1  0
 30 32  1  0
 31 30  2  0
M  END
$$$$
