AGY.pdb
     RDKit          3D

 22 22  0  0  1  0  0  0  0  0999 V2000
    7.8719  -13.4298   18.9564 C   0  0  0  0  0  0  0  0  0  0  0  0
    7.4258  -13.9286   20.3046 C   0  0  2  0  0  0  0  0  0  0  0  0
    7.9573  -13.0333   21.3146 N   0  0  0  0  0  0  0  0  0  0  0  0
    8.0038  -15.3034   20.5044 C   0  0  0  0  0  0  0  0  0  0  0  0
    7.6072  -16.2689   19.8039 O   0  0  0  0  0  0  0  0  0  0  0  0
    9.0019  -15.5435   21.4794 N   0  0  0  0  0  0  0  0  0  0  0  0
    9.5306  -16.8836   21.7080 C   0  0  0  0  0  0  0  0  0  0  0  0
    9.9230  -16.9962   23.1392 C   0  0  0  0  0  0  0  0  0  0  0  0
   10.5396  -18.0114   23.5666 O   0  0  0  0  0  0  0  0  0  0  0  0
    4.9311  -12.5217   26.6580 O   0  0  0  0  0  0  0  0  0  0  0  0
    6.2419  -12.9824   26.4303 C   0  0  0  0  0  0  0  0  0  0  0  0
    6.6073  -13.4702   25.1874 C   0  0  0  0  0  0  0  0  0  0  0  0
    7.9046  -13.9340   24.9365 C   0  0  0  0  0  0  0  0  0  0  0  0
    8.8259  -13.8978   25.9577 C   0  0  0  0  0  0  0  0  0  0  0  0
   10.1970  -14.3842   25.7096 C   0  0  0  0  0  0  0  0  0  0  0  0
   10.2613  -15.8463   25.3274 C   0  0  2  0  0  0  0  0  0  0  0  0
    9.6013  -15.9510   24.0367 N   0  0  0  0  0  0  0  0  0  0  0  0
    9.5771  -16.7369   26.2637 C   0  0  0  0  0  0  0  0  0  0  0  0
    8.5073  -17.2917   25.9224 O   0  0  0  0  0  0  0  0  0  0  0  0
    8.4420  -13.4091   27.1851 C   0  0  0  0  0  0  0  0  0  0  0  0
    7.1625  -12.9496   27.4394 C   0  0  0  0  0  0  0  0  0  0  0  0
   10.0687  -16.9965   27.5294 O   0  0  0  0  0  0  0  0  0  0  0  0
  2  1  1  6
  2  4  1  0
  2  3  1  0
  4  6  1  0
  5  4  2  0
  6  7  1  0
  7  8  1  0
  8 17  1  0
  9  8  2  0
 10 11  1  0
 11 12  2  0
 11 21  1  0
 12 13  1  0
 13 14  2  0
 14 15  1  0
 16 15  1  1
 16 18  1  0
 17 16  1  0
 18 19  2  0
 18 22  1  0
 20 14  1  0
 21 20  2  0
M  END
$$$$
