AGY.pdb
     RDKit          3D

 22 22  0  0  1  0  0  0  0  0999 V2000
    7.3715  -12.4481   19.2280 C   0  0  0  0  0  0  0  0  0  0  0  0
    8.6108  -13.1326   19.7387 C   0  0  2  0  0  0  0  0  0  0  0  0
    9.1938  -13.8846   18.6438 N   0  0  0  0  0  0  0  0  0  0  0  0
    8.1989  -14.0823   20.8307 C   0  0  0  0  0  0  0  0  0  0  0  0
    7.5581  -13.6657   21.8288 O   0  0  0  0  0  0  0  0  0  0  0  0
    8.5197  -15.4595   20.7630 N   0  0  0  0  0  0  0  0  0  0  0  0
    8.1095  -16.3853   21.8129 C   0  0  0  0  0  0  0  0  0  0  0  0
    9.0133  -16.2016   22.9810 C   0  0  0  0  0  0  0  0  0  0  0  0
   10.2281  -15.8974   22.8219 O   0  0  0  0  0  0  0  0  0  0  0  0
    6.0164  -10.7872   26.4939 O   0  0  0  0  0  0  0  0  0  0  0  0
    6.6068  -12.0651   26.5230 C   0  0  0  0  0  0  0  0  0  0  0  0
    7.9754  -12.2015   26.6793 C   0  0  0  0  0  0  0  0  0  0  0  0
    8.5858  -13.4614   26.7113 C   0  0  0  0  0  0  0  0  0  0  0  0
    7.7947  -14.5798   26.5832 C   0  0  0  0  0  0  0  0  0  0  0  0
    8.4230  -15.9149   26.6135 C   0  0  0  0  0  0  0  0  0  0  0  0
    9.3573  -16.1713   25.4520 C   0  0  2  0  0  0  0  0  0  0  0  0
    8.5059  -16.3697   24.2908 N   0  0  0  0  0  0  0  0  0  0  0  0
   10.1945  -17.3592   25.6126 C   0  0  0  0  0  0  0  0  0  0  0  0
    9.8800  -18.4228   25.0306 O   0  0  0  0  0  0  0  0  0  0  0  0
    6.4367  -14.4219   26.4288 C   0  0  0  0  0  0  0  0  0  0  0  0
    5.8278  -13.1805   26.3964 C   0  0  0  0  0  0  0  0  0  0  0  0
   11.3364  -17.3582   26.3918 O   0  0  0  0  0  0  0  0  0  0  0  0
  2  1  1  6
  2  4  1  0
  2  3  1  0
  4  6  1  0
  5  4  2  0
  6  7  1  0
  7  8  1  0
  8 17  1  0
  9  8  2  0
 10 11  1  0
 11 12  2  0
 11 21  1  0
 12 13  1  0
 13 14  2  0
 14 15  1  0
 16 15  1  1
 16 18  1  0
 17 16  1  0
 18 19  2  0
 18 22  1  0
 20 14  1  0
 21 20  2  0
M  END
$$$$
