AGY.pdb
     RDKit          3D

 22 22  0  0  1  0  0  0  0  0999 V2000
    7.0019  -12.8568   18.4644 C   0  0  0  0  0  0  0  0  0  0  0  0
    8.4002  -13.3390   18.7430 C   0  0  2  0  0  0  0  0  0  0  0  0
    8.8532  -14.0967   17.5920 N   0  0  0  0  0  0  0  0  0  0  0  0
    8.3476  -14.2432   19.9445 C   0  0  0  0  0  0  0  0  0  0  0  0
    7.8801  -13.8270   21.0347 O   0  0  0  0  0  0  0  0  0  0  0  0
    8.8196  -15.5763   19.8790 N   0  0  0  0  0  0  0  0  0  0  0  0
    8.6211  -16.5054   20.9858 C   0  0  0  0  0  0  0  0  0  0  0  0
    9.4300  -16.0365   22.1438 C   0  0  0  0  0  0  0  0  0  0  0  0
   10.5628  -15.5061   21.9736 O   0  0  0  0  0  0  0  0  0  0  0  0
   11.1759  -14.7732   30.7822 O   0  0  0  0  0  0  0  0  0  0  0  0
   10.5676  -14.9837   29.5300 C   0  0  0  0  0  0  0  0  0  0  0  0
   10.2319  -13.9092   28.7244 C   0  0  0  0  0  0  0  0  0  0  0  0
    9.6264  -14.0929   27.4752 C   0  0  0  0  0  0  0  0  0  0  0  0
    9.3651  -15.3759   27.0524 C   0  0  0  0  0  0  0  0  0  0  0  0
    8.7260  -15.5863   25.7388 C   0  0  0  0  0  0  0  0  0  0  0  0
    9.7128  -15.7867   24.6101 C   0  0  2  0  0  0  0  0  0  0  0  0
    8.9242  -16.1863   23.4564 N   0  0  0  0  0  0  0  0  0  0  0  0
   10.7069  -16.8278   24.8664 C   0  0  0  0  0  0  0  0  0  0  0  0
   10.4116  -18.0290   24.6696 O   0  0  0  0  0  0  0  0  0  0  0  0
    9.7068  -16.4296   27.8684 C   0  0  0  0  0  0  0  0  0  0  0  0
   10.3051  -16.2547   29.1031 C   0  0  0  0  0  0  0  0  0  0  0  0
   11.9788  -16.5380   25.3239 O   0  0  0  0  0  0  0  0  0  0  0  0
  2  1  1  6
  2  4  1  0
  2  3  1  0
  4  6  1  0
  5  4  2  0
  6  7  1  0
  7  8  1  0
  8 17  1  0
  9  8  2  0
 10 11  1  0
 11 12  2  0
 11 21  1  0
 12 13  1  0
 13 14  2  0
 14 15  1  0
 16 15  1  1
 16 18  1  0
 17 16  1  0
 18 19  2  0
 18 22  1  0
 20 14  1  0
 21 20  2  0
M  END
$$$$
