AGY.pdb
     RDKit          3D

 22 22  0  0  1  0  0  0  0  0999 V2000
    5.0035  -19.1213   20.1348 C   0  0  0  0  0  0  0  0  0  0  0  0
    6.3318  -19.1162   20.8426 C   0  0  2  0  0  0  0  0  0  0  0  0
    6.0863  -19.2835   22.2624 N   0  0  0  0  0  0  0  0  0  0  0  0
    6.9787  -17.7788   20.6038 C   0  0  0  0  0  0  0  0  0  0  0  0
    7.3992  -17.4700   19.4600 O   0  0  0  0  0  0  0  0  0  0  0  0
    7.1296  -16.8406   21.6531 N   0  0  0  0  0  0  0  0  0  0  0  0
    7.8239  -15.5749   21.4435 C   0  0  0  0  0  0  0  0  0  0  0  0
    8.7842  -15.3746   22.5628 C   0  0  0  0  0  0  0  0  0  0  0  0
    9.7671  -14.5914   22.4441 O   0  0  0  0  0  0  0  0  0  0  0  0
    5.9924  -10.9005   26.7732 O   0  0  0  0  0  0  0  0  0  0  0  0
    6.6697  -12.1247   26.6156 C   0  0  0  0  0  0  0  0  0  0  0  0
    5.9659  -13.2851   26.3428 C   0  0  0  0  0  0  0  0  0  0  0  0
    6.6170  -14.5144   26.1818 C   0  0  0  0  0  0  0  0  0  0  0  0
    7.9872  -14.5544   26.3003 C   0  0  0  0  0  0  0  0  0  0  0  0
    8.6881  -15.8426   26.1347 C   0  0  0  0  0  0  0  0  0  0  0  0
    9.5308  -15.9170   24.8808 C   0  0  2  0  0  0  0  0  0  0  0  0
    8.5951  -16.0714   23.7794 N   0  0  0  0  0  0  0  0  0  0  0  0
   10.4586  -17.0468   24.8535 C   0  0  0  0  0  0  0  0  0  0  0  0
   11.3330  -17.1527   25.7440 O   0  0  0  0  0  0  0  0  0  0  0  0
    8.6673  -13.3897   26.5717 C   0  0  0  0  0  0  0  0  0  0  0  0
    8.0302  -12.1725   26.7317 C   0  0  0  0  0  0  0  0  0  0  0  0
   10.4110  -18.0181   23.8710 O   0  0  0  0  0  0  0  0  0  0  0  0
  2  1  1  6
  2  4  1  0
  2  3  1  0
  4  6  1  0
  5  4  2  0
  6  7  1  0
  7  8  1  0
  8 17  1  0
  9  8  2  0
 10 11  1  0
 11 12  2  0
 11 21  1  0
 12 13  1  0
 13 14  2  0
 14 15  1  0
 16 15  1  1
 16 18  1  0
 17 16  1  0
 18 19  2  0
 18 22  1  0
 20 14  1  0
 21 20  2  0
M  END
$$$$
