AGY.pdb
     RDKit          3D

 22 22  0  0  1  0  0  0  0  0999 V2000
    8.4533  -13.3997   17.6870 C   0  0  0  0  0  0  0  0  0  0  0  0
    7.6977  -13.4067   18.9887 C   0  0  2  0  0  0  0  0  0  0  0  0
    8.3144  -12.4361   19.8728 N   0  0  0  0  0  0  0  0  0  0  0  0
    7.8251  -14.7797   19.5909 C   0  0  0  0  0  0  0  0  0  0  0  0
    7.3437  -15.7805   19.0020 O   0  0  0  0  0  0  0  0  0  0  0  0
    8.4855  -14.9786   20.8273 N   0  0  0  0  0  0  0  0  0  0  0  0
    8.7151  -16.3184   21.3564 C   0  0  0  0  0  0  0  0  0  0  0  0
    9.4570  -16.1957   22.6408 C   0  0  0  0  0  0  0  0  0  0  0  0
   10.6823  -15.8926   22.6577 O   0  0  0  0  0  0  0  0  0  0  0  0
    6.1230  -10.9263   26.2356 O   0  0  0  0  0  0  0  0  0  0  0  0
    6.6958  -12.2124   26.2199 C   0  0  0  0  0  0  0  0  0  0  0  0
    5.9070  -13.3333   26.4140 C   0  0  0  0  0  0  0  0  0  0  0  0
    6.4533  -14.6226   26.4028 C   0  0  0  0  0  0  0  0  0  0  0  0
    7.8058  -14.7630   26.1930 C   0  0  0  0  0  0  0  0  0  0  0  0
    8.3972  -16.1151   26.1796 C   0  0  0  0  0  0  0  0  0  0  0  0
    9.4750  -16.2947   25.1337 C   0  0  2  0  0  0  0  0  0  0  0  0
    8.7812  -16.4216   23.8629 N   0  0  0  0  0  0  0  0  0  0  0  0
   10.2979  -17.4880   25.3258 C   0  0  0  0  0  0  0  0  0  0  0  0
   10.1100  -18.4937   24.6033 O   0  0  0  0  0  0  0  0  0  0  0  0
    8.5715  -13.6360   26.0022 C   0  0  0  0  0  0  0  0  0  0  0  0
    8.0381  -12.3599   26.0121 C   0  0  0  0  0  0  0  0  0  0  0  0
   11.2900  -17.5542   26.2862 O   0  0  0  0  0  0  0  0  0  0  0  0
  2  1  1  6
  2  4  1  0
  2  3  1  0
  4  6  1  0
  5  4  2  0
  6  7  1  0
  7  8  1  0
  8 17  1  0
  9  8  2  0
 10 11  1  0
 11 12  2  0
 11 21  1  0
 12 13  1  0
 13 14  2  0
 14 15  1  0
 16 15  1  1
 16 18  1  0
 17 16  1  0
 18 19  2  0
 18 22  1  0
 20 14  1  0
 21 20  2  0
M  END
$$$$
