AGY.pdb
     RDKit          3D

 22 22  0  0  1  0  0  0  0  0999 V2000
    5.1409  -18.4596   20.1584 C   0  0  0  0  0  0  0  0  0  0  0  0
    6.4696  -18.4542   20.8655 C   0  0  2  0  0  0  0  0  0  0  0  0
    6.3975  -19.3954   21.9669 N   0  0  0  0  0  0  0  0  0  0  0  0
    6.6999  -17.0699   21.4083 C   0  0  0  0  0  0  0  0  0  0  0  0
    6.0276  -16.6482   22.3832 O   0  0  0  0  0  0  0  0  0  0  0  0
    7.6725  -16.2128   20.8394 N   0  0  0  0  0  0  0  0  0  0  0  0
    7.8999  -14.8711   21.3647 C   0  0  0  0  0  0  0  0  0  0  0  0
    8.8556  -14.9673   22.5016 C   0  0  0  0  0  0  0  0  0  0  0  0
    9.9878  -14.4116   22.4482 O   0  0  0  0  0  0  0  0  0  0  0  0
    5.9179  -10.6866   26.8841 O   0  0  0  0  0  0  0  0  0  0  0  0
    6.5502  -11.9269   26.6734 C   0  0  0  0  0  0  0  0  0  0  0  0
    5.8194  -13.0228   26.2479 C   0  0  0  0  0  0  0  0  0  0  0  0
    6.4255  -14.2665   26.0314 C   0  0  0  0  0  0  0  0  0  0  0  0
    7.7784  -14.3868   26.2508 C   0  0  0  0  0  0  0  0  0  0  0  0
    8.4319  -15.6912   26.0285 C   0  0  0  0  0  0  0  0  0  0  0  0
    9.3552  -15.7100   24.8305 C   0  0  2  0  0  0  0  0  0  0  0  0
    8.4923  -15.6919   23.6610 N   0  0  0  0  0  0  0  0  0  0  0  0
   10.2050  -16.8973   24.7526 C   0  0  0  0  0  0  0  0  0  0  0  0
   11.1028  -17.0744   25.6078 O   0  0  0  0  0  0  0  0  0  0  0  0
    8.4860  -13.2852   26.6734 C   0  0  0  0  0  0  0  0  0  0  0  0
    7.8933  -12.0542   26.8890 C   0  0  0  0  0  0  0  0  0  0  0  0
   10.0572  -17.8475   23.7594 O   0  0  0  0  0  0  0  0  0  0  0  0
  2  1  1  1
  2  4  1  0
  2  3  1  0
  4  6  1  0
  5  4  2  0
  6  7  1  0
  7  8  1  0
  8 17  1  0
  9  8  2  0
 10 11  1  0
 11 12  2  0
 11 21  1  0
 12 13  1  0
 13 14  2  0
 14 15  1  0
 16 15  1  1
 16 18  1  0
 17 16  1  0
 18 19  2  0
 18 22  1  0
 20 14  1  0
 21 20  2  0
M  END
$$$$
