AGY.pdb
     RDKit          3D

 22 22  0  0  1  0  0  0  0  0999 V2000
    8.0798  -18.4243   16.7779 C   0  0  0  0  0  0  0  0  0  0  0  0
    8.7936  -17.3630   17.5712 C   0  0  2  0  0  0  0  0  0  0  0  0
   10.1200  -17.8554   17.8913 N   0  0  0  0  0  0  0  0  0  0  0  0
    8.0245  -17.1412   18.8453 C   0  0  0  0  0  0  0  0  0  0  0  0
    7.6178  -18.1193   19.5221 O   0  0  0  0  0  0  0  0  0  0  0  0
    7.7409  -15.8348   19.3114 N   0  0  0  0  0  0  0  0  0  0  0  0
    6.9482  -15.6159   20.5162 C   0  0  0  0  0  0  0  0  0  0  0  0
    7.8768  -15.4786   21.6712 C   0  0  0  0  0  0  0  0  0  0  0  0
    9.1240  -15.3931   21.4964 O   0  0  0  0  0  0  0  0  0  0  0  0
   10.1291  -13.8076   30.0950 O   0  0  0  0  0  0  0  0  0  0  0  0
    9.4392  -14.0324   28.8884 C   0  0  0  0  0  0  0  0  0  0  0  0
    9.4645  -13.0849   27.8795 C   0  0  0  0  0  0  0  0  0  0  0  0
    8.7865  -13.2855   26.6708 C   0  0  0  0  0  0  0  0  0  0  0  0
    8.0836  -14.4554   26.4963 C   0  0  0  0  0  0  0  0  0  0  0  0
    7.3625  -14.6813   25.2286 C   0  0  0  0  0  0  0  0  0  0  0  0
    8.2321  -15.2516   24.1303 C   0  0  2  0  0  0  0  0  0  0  0  0
    7.3563  -15.4430   22.9862 N   0  0  0  0  0  0  0  0  0  0  0  0
    8.8397  -16.5399   24.4607 C   0  0  0  0  0  0  0  0  0  0  0  0
    8.1540  -17.5856   24.3887 O   0  0  0  0  0  0  0  0  0  0  0  0
    8.0715  -15.3838   27.5116 C   0  0  0  0  0  0  0  0  0  0  0  0
    8.7390  -15.1916   28.7076 C   0  0  0  0  0  0  0  0  0  0  0  0
   10.1597  -16.6544   24.8555 O   0  0  0  0  0  0  0  0  0  0  0  0
  2  1  1  6
  2  4  1  0
  2  3  1  0
  4  6  1  0
  5  4  2  0
  6  7  1  0
  7  8  1  0
  8 17  1  0
  9  8  2  0
 10 11  1  0
 11 12  2  0
 11 21  1  0
 12 13  1  0
 13 14  2  0
 14 15  1  0
 16 15  1  1
 16 18  1  0
 17 16  1  0
 18 19  2  0
 18 22  1  0
 20 14  1  0
 21 20  2  0
M  END
$$$$
