AGY.pdb
     RDKit          3D

 22 22  0  0  1  0  0  0  0  0999 V2000
    6.1287  -15.3827   20.9662 C   0  0  0  0  0  0  0  0  0  0  0  0
    7.3476  -15.7936   20.1847 C   0  0  2  0  0  0  0  0  0  0  0  0
    7.0032  -16.9593   19.3930 N   0  0  0  0  0  0  0  0  0  0  0  0
    8.4260  -16.1608   21.1677 C   0  0  0  0  0  0  0  0  0  0  0  0
    8.7282  -17.3656   21.3608 O   0  0  0  0  0  0  0  0  0  0  0  0
    9.1231  -15.1664   21.8953 N   0  0  0  0  0  0  0  0  0  0  0  0
   10.5439  -15.3035   22.1953 C   0  0  0  0  0  0  0  0  0  0  0  0
   10.6938  -15.5607   23.6536 C   0  0  0  0  0  0  0  0  0  0  0  0
   11.8200  -15.4733   24.2170 O   0  0  0  0  0  0  0  0  0  0  0  0
    6.2725  -10.6940   26.5417 O   0  0  0  0  0  0  0  0  0  0  0  0
    6.7711  -12.0103   26.5103 C   0  0  0  0  0  0  0  0  0  0  0  0
    6.1274  -12.9862   25.7690 C   0  0  0  0  0  0  0  0  0  0  0  0
    6.6038  -14.3021   25.7221 C   0  0  0  0  0  0  0  0  0  0  0  0
    7.7383  -14.6175   26.4339 C   0  0  0  0  0  0  0  0  0  0  0  0
    8.2525  -16.0003   26.3960 C   0  0  0  0  0  0  0  0  0  0  0  0
    9.6622  -16.1080   25.8584 C   0  0  2  0  0  0  0  0  0  0  0  0
    9.5583  -15.9085   24.4224 N   0  0  0  0  0  0  0  0  0  0  0  0
   10.2917  -17.4064   26.0946 C   0  0  0  0  0  0  0  0  0  0  0  0
   10.3133  -18.2608   25.1789 O   0  0  0  0  0  0  0  0  0  0  0  0
    8.3627  -13.6327   27.1641 C   0  0  0  0  0  0  0  0  0  0  0  0
    7.8971  -12.3312   27.2145 C   0  0  0  0  0  0  0  0  0  0  0  0
   10.8731  -17.7361   27.3047 O   0  0  0  0  0  0  0  0  0  0  0  0
  2  1  1  1
  2  4  1  0
  2  3  1  0
  4  6  1  0
  5  4  2  0
  6  7  1  0
  7  8  1  0
  8 17  1  0
  9  8  2  0
 10 11  1  0
 11 12  2  0
 11 21  1  0
 12 13  1  0
 13 14  2  0
 14 15  1  0
 16 15  1  1
 16 18  1  0
 17 16  1  0
 18 19  2  0
 18 22  1  0
 20 14  1  0
 21 20  2  0
M  END
$$$$
