AGY.pdb
     RDKit          3D

 22 22  0  0  1  0  0  0  0  0999 V2000
    8.5486  -11.9587   19.4653 C   0  0  0  0  0  0  0  0  0  0  0  0
    8.5222  -13.3566   18.9081 C   0  0  2  0  0  0  0  0  0  0  0  0
    7.5565  -13.3921   17.8263 N   0  0  0  0  0  0  0  0  0  0  0  0
    8.0748  -14.2842   20.0051 C   0  0  0  0  0  0  0  0  0  0  0  0
    6.8507  -14.4625   20.2284 O   0  0  0  0  0  0  0  0  0  0  0  0
    9.0139  -14.9752   20.8082 N   0  0  0  0  0  0  0  0  0  0  0  0
    8.5939  -16.0189   21.7366 C   0  0  0  0  0  0  0  0  0  0  0  0
    9.2965  -15.8068   23.0314 C   0  0  0  0  0  0  0  0  0  0  0  0
   10.4660  -15.3329   23.0667 O   0  0  0  0  0  0  0  0  0  0  0  0
    5.7583  -10.7813   26.5072 O   0  0  0  0  0  0  0  0  0  0  0  0
    6.3861  -12.0416   26.5228 C   0  0  0  0  0  0  0  0  0  0  0  0
    5.6733  -13.1836   26.2006 C   0  0  0  0  0  0  0  0  0  0  0  0
    6.2753  -14.4479   26.2091 C   0  0  0  0  0  0  0  0  0  0  0  0
    7.6057  -14.5416   26.5472 C   0  0  0  0  0  0  0  0  0  0  0  0
    8.2544  -15.8671   26.5621 C   0  0  0  0  0  0  0  0  0  0  0  0
    9.3361  -16.0240   25.5165 C   0  0  2  0  0  0  0  0  0  0  0  0
    8.6462  -16.1405   24.2426 N   0  0  0  0  0  0  0  0  0  0  0  0
   10.1687  -17.2126   25.6952 C   0  0  0  0  0  0  0  0  0  0  0  0
    9.9654  -18.2245   24.9856 O   0  0  0  0  0  0  0  0  0  0  0  0
    8.2956  -13.3942   26.8640 C   0  0  0  0  0  0  0  0  0  0  0  0
    7.7068  -12.1427   26.8575 C   0  0  0  0  0  0  0  0  0  0  0  0
   11.1868  -17.2677   26.6288 O   0  0  0  0  0  0  0  0  0  0  0  0
  2  1  1  1
  2  4  1  0
  2  3  1  0
  4  6  1  0
  5  4  2  0
  6  7  1  0
  7  8  1  0
  8 17  1  0
  9  8  2  0
 10 11  1  0
 11 12  2  0
 11 21  1  0
 12 13  1  0
 13 14  2  0
 14 15  1  0
 16 15  1  1
 16 18  1  0
 17 16  1  0
 18 19  2  0
 18 22  1  0
 20 14  1  0
 21 20  2  0
M  END
$$$$
