AGY.pdb
     RDKit          3D

 22 22  0  0  1  0  0  0  0  0999 V2000
    5.7928  -15.3410   20.7081 C   0  0  0  0  0  0  0  0  0  0  0  0
    6.8577  -16.3461   20.3601 C   0  0  2  0  0  0  0  0  0  0  0  0
    6.6579  -17.5195   21.1892 N   0  0  0  0  0  0  0  0  0  0  0  0
    8.1946  -15.7336   20.6787 C   0  0  0  0  0  0  0  0  0  0  0  0
    8.6294  -14.7669   20.0029 O   0  0  0  0  0  0  0  0  0  0  0  0
    8.9916  -16.2264   21.7399 N   0  0  0  0  0  0  0  0  0  0  0  0
   10.3056  -15.6614   22.0259 C   0  0  0  0  0  0  0  0  0  0  0  0
   10.5533  -15.7651   23.4898 C   0  0  0  0  0  0  0  0  0  0  0  0
   11.6562  -15.4083   23.9897 O   0  0  0  0  0  0  0  0  0  0  0  0
    6.1173  -11.0367   26.1030 O   0  0  0  0  0  0  0  0  0  0  0  0
    6.6661  -12.3318   26.1678 C   0  0  0  0  0  0  0  0  0  0  0  0
    7.7714  -12.5857   26.9615 C   0  0  0  0  0  0  0  0  0  0  0  0
    8.3351  -13.8650   27.0424 C   0  0  0  0  0  0  0  0  0  0  0  0
    7.7669  -14.8824   26.3109 C   0  0  0  0  0  0  0  0  0  0  0  0
    8.3502  -16.2362   26.3843 C   0  0  0  0  0  0  0  0  0  0  0  0
    9.7314  -16.3346   25.7757 C   0  0  2  0  0  0  0  0  0  0  0  0
    9.5391  -16.2710   24.3364 N   0  0  0  0  0  0  0  0  0  0  0  0
   10.4322  -17.5792   26.0882 C   0  0  0  0  0  0  0  0  0  0  0  0
   10.5525  -18.4612   25.2070 O   0  0  0  0  0  0  0  0  0  0  0  0
    6.6689  -14.6086   25.5286 C   0  0  0  0  0  0  0  0  0  0  0  0
    6.1074  -13.3473   25.4444 C   0  0  0  0  0  0  0  0  0  0  0  0
   10.9763  -17.8276   27.3345 O   0  0  0  0  0  0  0  0  0  0  0  0
  2  1  1  1
  2  4  1  0
  2  3  1  0
  4  6  1  0
  5  4  2  0
  6  7  1  0
  7  8  1  0
  8 17  1  0
  9  8  2  0
 10 11  1  0
 11 12  2  0
 11 21  1  0
 12 13  1  0
 13 14  2  0
 14 15  1  0
 16 15  1  1
 16 18  1  0
 17 16  1  0
 18 19  2  0
 18 22  1  0
 20 14  1  0
 21 20  2  0
M  END
$$$$
