AGY.pdb
     RDKit          3D

 22 22  0  0  1  0  0  0  0  0999 V2000
    8.0898  -18.3340   15.6899 C   0  0  0  0  0  0  0  0  0  0  0  0
    9.2750  -17.7494   16.4102 C   0  0  2  0  0  0  0  0  0  0  0  0
   10.4044  -18.6385   16.2150 N   0  0  0  0  0  0  0  0  0  0  0  0
    8.9405  -17.6844   17.8758 C   0  0  0  0  0  0  0  0  0  0  0  0
    8.0390  -16.9121   18.2896 O   0  0  0  0  0  0  0  0  0  0  0  0
    9.6272  -18.4853   18.8198 N   0  0  0  0  0  0  0  0  0  0  0  0
    9.1942  -18.5559   20.2109 C   0  0  0  0  0  0  0  0  0  0  0  0
    9.9451  -17.5335   20.9894 C   0  0  0  0  0  0  0  0  0  0  0  0
   11.1399  -17.2452   20.7016 O   0  0  0  0  0  0  0  0  0  0  0  0
    7.4332  -12.7239   17.7711 O   0  0  0  0  0  0  0  0  0  0  0  0
    7.8155  -13.2085   19.0365 C   0  0  0  0  0  0  0  0  0  0  0  0
    9.0954  -12.9862   19.5148 C   0  0  0  0  0  0  0  0  0  0  0  0
    9.4992  -13.4580   20.7699 C   0  0  0  0  0  0  0  0  0  0  0  0
    8.5927  -14.1567   21.5336 C   0  0  0  0  0  0  0  0  0  0  0  0
    9.0033  -14.6619   22.8581 C   0  0  0  0  0  0  0  0  0  0  0  0
    9.9882  -15.8078   22.7908 C   0  0  2  0  0  0  0  0  0  0  0  0
    9.3127  -16.8732   22.0689 N   0  0  0  0  0  0  0  0  0  0  0  0
   10.3896  -16.3253   24.0981 C   0  0  0  0  0  0  0  0  0  0  0  0
   11.1833  -15.6665   24.8087 O   0  0  0  0  0  0  0  0  0  0  0  0
    7.3260  -14.3666   21.0395 C   0  0  0  0  0  0  0  0  0  0  0  0
    6.9210  -13.9031   19.8008 C   0  0  0  0  0  0  0  0  0  0  0  0
    9.9229  -17.5297   24.5908 O   0  0  0  0  0  0  0  0  0  0  0  0
  2  1  1  6
  2  4  1  0
  2  3  1  0
  4  6  1  0
  5  4  2  0
  6  7  1  0
  7  8  1  0
  8 17  1  0
  9  8  2  0
 10 11  1  0
 11 12  2  0
 11 21  1  0
 12 13  1  0
 13 14  2  0
 14 15  1  0
 16 15  1  1
 16 18  1  0
 17 16  1  0
 18 19  2  0
 18 22  1  0
 20 14  1  0
 21 20  2  0
M  END
$$$$
