AGY.pdb
     RDKit          3D

 22 22  0  0  1  0  0  0  0  0999 V2000
    6.5248  -14.4955   19.9228 C   0  0  0  0  0  0  0  0  0  0  0  0
    7.2918  -15.7685   20.1603 C   0  0  2  0  0  0  0  0  0  0  0  0
    6.5897  -16.5354   21.1718 N   0  0  0  0  0  0  0  0  0  0  0  0
    8.6563  -15.3980   20.6749 C   0  0  0  0  0  0  0  0  0  0  0  0
    9.4996  -14.8601   19.9135 O   0  0  0  0  0  0  0  0  0  0  0  0
    9.0232  -15.6437   22.0200 N   0  0  0  0  0  0  0  0  0  0  0  0
   10.3697  -15.3573   22.5023 C   0  0  0  0  0  0  0  0  0  0  0  0
   10.4437  -15.7329   23.9405 C   0  0  0  0  0  0  0  0  0  0  0  0
   11.5075  -15.5723   24.6008 O   0  0  0  0  0  0  0  0  0  0  0  0
    6.5278  -10.7382   26.3828 O   0  0  0  0  0  0  0  0  0  0  0  0
    6.8729  -12.1030   26.4111 C   0  0  0  0  0  0  0  0  0  0  0  0
    6.1222  -13.0304   25.7091 C   0  0  0  0  0  0  0  0  0  0  0  0
    6.4453  -14.3928   25.7218 C   0  0  0  0  0  0  0  0  0  0  0  0
    7.5360  -14.8042   26.4527 C   0  0  0  0  0  0  0  0  0  0  0  0
    7.8889  -16.2371   26.4773 C   0  0  0  0  0  0  0  0  0  0  0  0
    9.3001  -16.5215   26.0130 C   0  0  2  0  0  0  0  0  0  0  0  0
    9.3058  -16.2783   24.5801 N   0  0  0  0  0  0  0  0  0  0  0  0
    9.7368  -17.8976   26.2443 C   0  0  0  0  0  0  0  0  0  0  0  0
    9.9330  -18.2974   27.4150 O   0  0  0  0  0  0  0  0  0  0  0  0
    8.2684  -13.8662   27.1430 C   0  0  0  0  0  0  0  0  0  0  0  0
    7.9546  -12.5192   27.1346 C   0  0  0  0  0  0  0  0  0  0  0  0
    9.9455  -18.7901   25.2094 O   0  0  0  0  0  0  0  0  0  0  0  0
  2  1  1  1
  2  4  1  0
  2  3  1  0
  4  6  1  0
  5  4  2  0
  6  7  1  0
  7  8  1  0
  8 17  1  0
  9  8  2  0
 10 11  1  0
 11 12  2  0
 11 21  1  0
 12 13  1  0
 13 14  2  0
 14 15  1  0
 16 15  1  6
 16 18  1  0
 17 16  1  0
 18 19  2  0
 18 22  1  0
 20 14  1  0
 21 20  2  0
M  END
$$$$
