AGY.pdb
     RDKit          3D

 22 22  0  0  1  0  0  0  0  0999 V2000
    7.7063  -12.7087   18.6196 C   0  0  0  0  0  0  0  0  0  0  0  0
    8.5454  -13.9018   18.9906 C   0  0  2  0  0  0  0  0  0  0  0  0
    8.4544  -14.8690   17.9134 N   0  0  0  0  0  0  0  0  0  0  0  0
    7.9709  -14.4999   20.2460 C   0  0  0  0  0  0  0  0  0  0  0  0
    8.0243  -13.8710   21.3332 O   0  0  0  0  0  0  0  0  0  0  0  0
    7.3597  -15.7768   20.2357 N   0  0  0  0  0  0  0  0  0  0  0  0
    6.7753  -16.3467   21.4445 C   0  0  0  0  0  0  0  0  0  0  0  0
    7.8469  -16.4748   22.4694 C   0  0  0  0  0  0  0  0  0  0  0  0
    8.9462  -17.0313   22.1947 O   0  0  0  0  0  0  0  0  0  0  0  0
    5.0304  -11.4545   27.3710 O   0  0  0  0  0  0  0  0  0  0  0  0
    6.0388  -12.2568   26.8036 C   0  0  0  0  0  0  0  0  0  0  0  0
    6.9970  -12.8507   27.6070 C   0  0  0  0  0  0  0  0  0  0  0  0
    8.0096  -13.6527   27.0664 C   0  0  0  0  0  0  0  0  0  0  0  0
    8.0403  -13.8456   25.7044 C   0  0  0  0  0  0  0  0  0  0  0  0
    9.1020  -14.6870   25.1189 C   0  0  0  0  0  0  0  0  0  0  0  0
    8.6521  -16.0955   24.8001 C   0  0  2  0  0  0  0  0  0  0  0  0
    7.6330  -15.9662   23.7720 N   0  0  0  0  0  0  0  0  0  0  0  0
    8.0666  -16.8049   25.9367 C   0  0  0  0  0  0  0  0  0  0  0  0
    6.8405  -17.0612   25.9428 O   0  0  0  0  0  0  0  0  0  0  0  0
    7.0786  -13.2462   24.9242 C   0  0  0  0  0  0  0  0  0  0  0  0
    6.0759  -12.4531   25.4520 C   0  0  0  0  0  0  0  0  0  0  0  0
    8.8206  -17.2110   27.0219 O   0  0  0  0  0  0  0  0  0  0  0  0
  2  1  1  6
  2  4  1  0
  2  3  1  0
  4  6  1  0
  5  4  2  0
  6  7  1  0
  7  8  1  0
  8 17  1  0
  9  8  2  0
 10 11  1  0
 11 12  2  0
 11 21  1  0
 12 13  1  0
 13 14  2  0
 14 15  1  0
 16 15  1  1
 16 18  1  0
 17 16  1  0
 18 19  2  0
 18 22  1  0
 20 14  1  0
 21 20  2  0
M  END
$$$$
