NIW.pdb
     RDKit          3D

 31 32  0  0  1  0  0  0  0  0999 V2000
   12.1303  -19.5213   17.2688 N   0  0  0  0  0  0  0  0  0  0  0  0
   12.5298  -19.7615   18.6023 C   0  0  0  0  0  0  0  0  0  0  0  0
   12.9829  -20.9158   18.8750 O   0  0  0  0  0  0  0  0  0  0  0  0
   12.4245  -18.7191   19.6263 C   0  0  0  0  0  0  0  0  0  0  0  0
   11.7654  -17.4875   19.0354 C   0  0  2  0  0  0  0  0  0  0  0  0
   12.6505  -16.7770   18.1677 N   0  0  0  0  0  0  0  0  0  0  0  0
   11.2024  -16.6147   20.1105 C   0  0  0  0  0  0  0  0  0  0  0  0
   11.9647  -16.0017   20.9098 O   0  0  0  0  0  0  0  0  0  0  0  0
    6.8604  -13.5949   19.1920 C   0  0  0  0  0  0  0  0  0  0  0  0
    8.1909  -14.1125   19.7247 C   0  0  0  0  0  0  0  0  0  0  0  0
    8.0064  -14.9525   20.9399 C   0  0  2  0  0  0  0  0  0  0  0  0
    7.2194  -14.2615   22.0205 C   0  0  0  0  0  0  0  0  0  0  0  0
    9.2870  -15.5644   21.3800 C   0  0  2  0  0  0  0  0  0  0  0  0
    9.8071  -16.4222   20.2990 N   0  0  0  0  0  0  0  0  0  0  0  0
    9.2292  -16.3164   22.6529 C   0  0  0  0  0  0  0  0  0  0  0  0
    9.1090  -17.5673   22.6325 O   0  0  0  0  0  0  0  0  0  0  0  0
    9.3036  -15.6882   23.9078 N   0  0  0  0  0  0  0  0  0  0  0  0
    9.1998  -16.4491   25.1655 C   0  0  1  0  0  0  0  0  0  0  0  0
    8.8905  -15.5388   26.2899 C   0  0  0  0  0  0  0  0  0  0  0  0
    7.6680  -14.7578   26.2518 C   0  0  0  0  0  0  0  0  0  0  0  0
    6.3890  -15.2208   25.9542 C   0  0  0  0  0  0  0  0  0  0  0  0
    5.5764  -14.1635   26.0064 N   0  0  0  0  0  0  0  0  0  0  0  0
    6.2690  -13.0489   26.3225 C   0  0  0  0  0  0  0  0  0  0  0  0
    5.8432  -11.7388   26.4983 C   0  0  0  0  0  0  0  0  0  0  0  0
    6.7949  -10.8060   26.8399 C   0  0  0  0  0  0  0  0  0  0  0  0
    8.1158  -11.1278   27.0064 C   0  0  0  0  0  0  0  0  0  0  0  0
    8.5285  -12.4238   26.8303 C   0  0  0  0  0  0  0  0  0  0  0  0
    7.5901  -13.3902   26.4840 C   0  0  0  0  0  0  0  0  0  0  0  0
    8.3851  -17.6360   24.9854 C   0  0  0  0  0  0  0  0  0  0  0  0
    8.5022  -18.7981   25.7335 O   0  0  0  0  0  0  0  0  0  0  0  0
    7.4714  -17.6936   24.0861 O   0  0  0  0  0  0  0  0  0  0  0  0
  2  3  2  0
  2  1  1  0
  4  2  1  0
  5  6  1  1
  5  4  1  0
  7  8  2  0
  7  5  1  0
  9 10  1  0
 10 11  1  0
 11 12  1  1
 13 11  1  0
 13 14  1  6
 14  7  1  0
 15 13  1  0
 16 15  2  0
 17 15  1  0
 18 29  1  0
 18 17  1  0
 18 19  1  1
 20 19  1  0
 21 20  2  0
 22 21  1  0
 23 22  1  0
 23 28  2  0
 24 23  1  0
 25 24  2  0
 25 26  1  0
 26 27  2  0
 27 28  1  0
 28 20  1  0
 29 30  1  0
 31 29  2  0
M  END
$$$$
