NIW.pdb
     RDKit          3D

 31 32  0  0  1  0  0  0  0  0999 V2000
   12.4918  -19.2078   17.4385 N   0  0  0  0  0  0  0  0  0  0  0  0
   11.0886  -19.0483   17.4739 C   0  0  0  0  0  0  0  0  0  0  0  0
   10.3821  -20.0157   17.0530 O   0  0  0  0  0  0  0  0  0  0  0  0
   10.4767  -17.8157   17.9765 C   0  0  0  0  0  0  0  0  0  0  0  0
    9.9802  -18.0330   19.3931 C   0  0  2  0  0  0  0  0  0  0  0  0
    8.6990  -18.6651   19.4150 N   0  0  0  0  0  0  0  0  0  0  0  0
    9.9954  -16.7540   20.1669 C   0  0  0  0  0  0  0  0  0  0  0  0
   11.0650  -16.0967   20.3069 O   0  0  0  0  0  0  0  0  0  0  0  0
    7.1375  -12.6683   19.2624 C   0  0  0  0  0  0  0  0  0  0  0  0
    8.1477  -13.6962   19.7571 C   0  0  0  0  0  0  0  0  0  0  0  0
    7.9571  -14.0023   21.2015 C   0  0  2  0  0  0  0  0  0  0  0  0
    7.8695  -12.7688   22.0592 C   0  0  0  0  0  0  0  0  0  0  0  0
    8.9161  -15.0353   21.6718 C   0  0  2  0  0  0  0  0  0  0  0  0
    8.8359  -16.2076   20.7806 N   0  0  0  0  0  0  0  0  0  0  0  0
    8.7644  -15.4494   23.0840 C   0  0  0  0  0  0  0  0  0  0  0  0
    7.7475  -15.0941   23.7317 O   0  0  0  0  0  0  0  0  0  0  0  0
    9.7202  -16.2358   23.7496 N   0  0  0  0  0  0  0  0  0  0  0  0
    9.9361  -16.1322   25.2036 C   0  0  1  0  0  0  0  0  0  0  0  0
    8.6883  -16.4541   25.9302 C   0  0  0  0  0  0  0  0  0  0  0  0
    7.5925  -15.5028   25.9096 C   0  0  0  0  0  0  0  0  0  0  0  0
    6.2886  -15.7385   25.4818 C   0  0  0  0  0  0  0  0  0  0  0  0
    5.6289  -14.5854   25.6083 N   0  0  0  0  0  0  0  0  0  0  0  0
    6.4428  -13.6250   26.0953 C   0  0  0  0  0  0  0  0  0  0  0  0
    6.1904  -12.2934   26.3978 C   0  0  0  0  0  0  0  0  0  0  0  0
    7.2330  -11.5524   26.9044 C   0  0  0  0  0  0  0  0  0  0  0  0
    8.4795  -12.0804   27.1124 C   0  0  0  0  0  0  0  0  0  0  0  0
    8.7210  -13.3963   26.8104 C   0  0  0  0  0  0  0  0  0  0  0  0
    7.6873  -14.1717   26.2959 C   0  0  0  0  0  0  0  0  0  0  0  0
   11.1621  -16.8031   25.5930 C   0  0  0  0  0  0  0  0  0  0  0  0
   12.0281  -17.4417   24.7176 O   0  0  0  0  0  0  0  0  0  0  0  0
   11.5387  -16.8563   26.8186 O   0  0  0  0  0  0  0  0  0  0  0  0
  2  3  2  0
  2  1  1  0
  4  2  1  0
  5  6  1  6
  5  4  1  0
  7  8  2  0
  7  5  1  0
  9 10  1  0
 10 11  1  0
 11 12  1  1
 13 11  1  0
 13 14  1  6
 14  7  1  0
 15 13  1  0
 16 15  2  0
 17 15  1  0
 18 29  1  0
 18 17  1  0
 18 19  1  1
 20 19  1  0
 21 20  2  0
 22 21  1  0
 23 22  1  0
 23 28  2  0
 24 23  1  0
 25 24  2  0
 25 26  1  0
 26 27  2  0
 27 28  1  0
 28 20  1  0
 29 30  1  0
 31 29  2  0
M  END
$$$$
