NIW.pdb
     RDKit          3D

 31 32  0  0  1  0  0  0  0  0999 V2000
   11.2644  -17.8551   14.9520 N   0  0  0  0  0  0  0  0  0  0  0  0
   11.9289  -17.8013   16.1974 C   0  0  0  0  0  0  0  0  0  0  0  0
   12.8698  -18.6317   16.3913 O   0  0  0  0  0  0  0  0  0  0  0  0
   11.5459  -16.8260   17.2212 C   0  0  0  0  0  0  0  0  0  0  0  0
   10.8186  -17.5303   18.3506 C   0  0  2  0  0  0  0  0  0  0  0  0
    9.5906  -18.1121   17.9092 N   0  0  0  0  0  0  0  0  0  0  0  0
   10.6260  -16.6140   19.5159 C   0  0  0  0  0  0  0  0  0  0  0  0
   11.6123  -16.0333   20.0506 O   0  0  0  0  0  0  0  0  0  0  0  0
    7.1843  -12.8850   19.3435 C   0  0  0  0  0  0  0  0  0  0  0  0
    8.3849  -13.7363   19.7379 C   0  0  0  0  0  0  0  0  0  0  0  0
    8.1415  -14.4737   21.0081 C   0  0  2  0  0  0  0  0  0  0  0  0
    7.8162  -13.5663   22.1637 C   0  0  0  0  0  0  0  0  0  0  0  0
    9.2058  -15.4772   21.2693 C   0  0  2  0  0  0  0  0  0  0  0  0
    9.3521  -16.3431   20.0844 N   0  0  0  0  0  0  0  0  0  0  0  0
    9.0237  -16.2964   22.4877 C   0  0  0  0  0  0  0  0  0  0  0  0
    7.9045  -16.8157   22.7278 O   0  0  0  0  0  0  0  0  0  0  0  0
   10.0609  -16.5268   23.4076 N   0  0  0  0  0  0  0  0  0  0  0  0
    9.8485  -16.4188   24.8619 C   0  0  1  0  0  0  0  0  0  0  0  0
    9.5675  -15.0150   25.2348 C   0  0  0  0  0  0  0  0  0  0  0  0
    8.2237  -14.6466   25.6406 C   0  0  0  0  0  0  0  0  0  0  0  0
    7.0966  -15.4641   25.6407 C   0  0  0  0  0  0  0  0  0  0  0  0
    6.0770  -14.7119   26.0596 N   0  0  0  0  0  0  0  0  0  0  0  0
    6.4936  -13.4563   26.3280 C   0  0  0  0  0  0  0  0  0  0  0  0
    5.7936  -12.3515   26.7947 C   0  0  0  0  0  0  0  0  0  0  0  0
    6.5048  -11.1904   26.9913 C   0  0  0  0  0  0  0  0  0  0  0  0
    7.8490  -11.0989   26.7452 C   0  0  0  0  0  0  0  0  0  0  0  0
    8.5331  -12.1944   26.2837 C   0  0  0  0  0  0  0  0  0  0  0  0
    7.8420  -13.3831   26.0743 C   0  0  0  0  0  0  0  0  0  0  0  0
    8.9512  -17.4577   25.3315 C   0  0  0  0  0  0  0  0  0  0  0  0
    8.9164  -17.9474   26.6287 O   0  0  0  0  0  0  0  0  0  0  0  0
    8.1019  -18.0163   24.5483 O   0  0  0  0  0  0  0  0  0  0  0  0
  2  3  2  0
  2  1  1  0
  4  2  1  0
  5  6  1  6
  5  4  1  0
  7  8  2  0
  7  5  1  0
  9 10  1  0
 10 11  1  0
 11 12  1  1
 13 11  1  0
 13 14  1  6
 14  7  1  0
 15 13  1  0
 16 15  2  0
 17 15  1  0
 18 29  1  0
 18 17  1  0
 18 19  1  6
 20 19  1  0
 21 20  2  0
 22 21  1  0
 23 22  1  0
 23 28  2  0
 24 23  1  0
 25 24  2  0
 25 26  1  0
 26 27  2  0
 27 28  1  0
 28 20  1  0
 29 30  1  0
 31 29  2  0
M  END
$$$$
