NIW.pdb
     RDKit          3D

 31 32  0  0  1  0  0  0  0  0999 V2000
    8.7498  -20.1313   16.3412 N   0  0  0  0  0  0  0  0  0  0  0  0
    9.8394  -19.8201   17.1846 C   0  0  0  0  0  0  0  0  0  0  0  0
   10.6961  -20.7345   17.3899 O   0  0  0  0  0  0  0  0  0  0  0  0
    9.9728  -18.4954   17.7958 C   0  0  0  0  0  0  0  0  0  0  0  0
    9.7360  -18.5966   19.2906 C   0  0  2  0  0  0  0  0  0  0  0  0
    8.4341  -19.1043   19.5881 N   0  0  0  0  0  0  0  0  0  0  0  0
   10.0027  -17.2888   19.9638 C   0  0  0  0  0  0  0  0  0  0  0  0
   11.1024  -16.6897   19.7981 O   0  0  0  0  0  0  0  0  0  0  0  0
    6.3050  -13.5964   20.0714 C   0  0  0  0  0  0  0  0  0  0  0  0
    7.6548  -14.3035   20.0795 C   0  0  0  0  0  0  0  0  0  0  0  0
    8.1576  -14.5110   21.4653 C   0  0  2  0  0  0  0  0  0  0  0  0
    8.2676  -13.2318   22.2504 C   0  0  0  0  0  0  0  0  0  0  0  0
    9.3679  -15.3728   21.4835 C   0  0  2  0  0  0  0  0  0  0  0  0
    9.0595  -16.6497   20.8133 N   0  0  0  0  0  0  0  0  0  0  0  0
    9.9541  -15.6195   22.8194 C   0  0  0  0  0  0  0  0  0  0  0  0
   10.8927  -14.8924   23.2318 O   0  0  0  0  0  0  0  0  0  0  0  0
    9.5041  -16.6470   23.6659 N   0  0  0  0  0  0  0  0  0  0  0  0
    9.9162  -16.7271   25.0785 C   0  0  1  0  0  0  0  0  0  0  0  0
    9.6297  -15.4499   25.7680 C   0  0  0  0  0  0  0  0  0  0  0  0
    8.2509  -15.0265   25.9283 C   0  0  0  0  0  0  0  0  0  0  0  0
    7.1097  -15.7911   25.7006 C   0  0  0  0  0  0  0  0  0  0  0  0
    6.0629  -14.9995   25.9429 N   0  0  0  0  0  0  0  0  0  0  0  0
    6.4754  -13.7691   26.3141 C   0  0  0  0  0  0  0  0  0  0  0  0
    5.7485  -12.6409   26.6709 C   0  0  0  0  0  0  0  0  0  0  0  0
    6.4594  -11.5172   27.0237 C   0  0  0  0  0  0  0  0  0  0  0  0
    7.8287  -11.4839   27.0318 C   0  0  0  0  0  0  0  0  0  0  0  0
    8.5393  -12.6021   26.6774 C   0  0  0  0  0  0  0  0  0  0  0  0
    7.8493  -13.7540   26.3151 C   0  0  0  0  0  0  0  0  0  0  0  0
    9.4553  -17.9634   25.6819 C   0  0  0  0  0  0  0  0  0  0  0  0
    9.8576  -18.4380   26.9215 O   0  0  0  0  0  0  0  0  0  0  0  0
    8.6174  -18.7306   25.0850 O   0  0  0  0  0  0  0  0  0  0  0  0
  2  3  2  0
  2  1  1  0
  4  2  1  0
  5  6  1  6
  5  4  1  0
  7  8  2  0
  7  5  1  0
  9 10  1  0
 10 11  1  0
 11 12  1  6
 13 11  1  0
 13 14  1  1
 14  7  1  0
 15 13  1  0
 16 15  2  0
 17 15  1  0
 18 29  1  0
 18 17  1  0
 18 19  1  1
 20 19  1  0
 21 20  2  0
 22 21  1  0
 23 22  1  0
 23 28  2  0
 24 23  1  0
 25 24  2  0
 25 26  1  0
 26 27  2  0
 27 28  1  0
 28 20  1  0
 29 30  1  0
 31 29  2  0
M  END
$$$$
