NIW.pdb
     RDKit          3D

 31 32  0  0  1  0  0  0  0  0999 V2000
   13.0370  -19.1910   17.9288 N   0  0  0  0  0  0  0  0  0  0  0  0
   12.7042  -17.9457   17.3510 C   0  0  0  0  0  0  0  0  0  0  0  0
   13.0431  -17.7559   16.1421 O   0  0  0  0  0  0  0  0  0  0  0  0
   11.9967  -16.9172   18.1179 C   0  0  0  0  0  0  0  0  0  0  0  0
   11.1652  -17.5720   19.2042 C   0  0  2  0  0  0  0  0  0  0  0  0
    9.9788  -18.1686   18.6771 N   0  0  0  0  0  0  0  0  0  0  0  0
   10.8730  -16.6075   20.3083 C   0  0  0  0  0  0  0  0  0  0  0  0
   11.8112  -16.0734   20.9643 O   0  0  0  0  0  0  0  0  0  0  0  0
    7.0217  -12.9621   19.8019 C   0  0  0  0  0  0  0  0  0  0  0  0
    8.2606  -13.7761   20.1544 C   0  0  0  0  0  0  0  0  0  0  0  0
    8.1065  -14.4725   21.4611 C   0  0  2  0  0  0  0  0  0  0  0  0
    7.6317  -13.5627   22.5618 C   0  0  0  0  0  0  0  0  0  0  0  0
    9.3020  -15.2925   21.7870 C   0  0  2  0  0  0  0  0  0  0  0  0
    9.5530  -16.2374   20.6829 N   0  0  0  0  0  0  0  0  0  0  0  0
    9.2485  -16.0113   23.0791 C   0  0  0  0  0  0  0  0  0  0  0  0
    8.5298  -17.0361   23.1926 O   0  0  0  0  0  0  0  0  0  0  0  0
    9.9760  -15.5960   24.2075 N   0  0  0  0  0  0  0  0  0  0  0  0
   10.0009  -16.3869   25.4507 C   0  0  1  0  0  0  0  0  0  0  0  0
    9.4079  -15.6113   26.5622 C   0  0  0  0  0  0  0  0  0  0  0  0
    8.0379  -15.1464   26.4481 C   0  0  0  0  0  0  0  0  0  0  0  0
    6.9140  -15.9179   26.1649 C   0  0  0  0  0  0  0  0  0  0  0  0
    5.8744  -15.0820   26.1272 N   0  0  0  0  0  0  0  0  0  0  0  0
    6.2749  -13.8166   26.3723 C   0  0  0  0  0  0  0  0  0  0  0  0
    5.5475  -12.6359   26.4456 C   0  0  0  0  0  0  0  0  0  0  0  0
    6.2416  -11.4835   26.7334 C   0  0  0  0  0  0  0  0  0  0  0  0
    7.5950  -11.4715   26.9437 C   0  0  0  0  0  0  0  0  0  0  0  0
    8.3064  -12.6416   26.8688 C   0  0  0  0  0  0  0  0  0  0  0  0
    7.6332  -13.8237   26.5790 C   0  0  0  0  0  0  0  0  0  0  0  0
    9.5277  -17.7377   25.2133 C   0  0  0  0  0  0  0  0  0  0  0  0
    9.0185  -18.1983   24.0081 O   0  0  0  0  0  0  0  0  0  0  0  0
    9.5454  -18.6278   26.1375 O   0  0  0  0  0  0  0  0  0  0  0  0
  2  3  2  0
  2  1  1  0
  4  2  1  0
  5  6  1  6
  5  4  1  0
  7  8  2  0
  7  5  1  0
  9 10  1  0
 10 11  1  0
 11 12  1  1
 13 11  1  0
 13 14  1  6
 14  7  1  0
 15 13  1  0
 16 15  2  0
 17 15  1  0
 18 29  1  0
 18 17  1  0
 18 19  1  1
 20 19  1  0
 21 20  2  0
 22 21  1  0
 23 22  1  0
 23 28  2  0
 24 23  1  0
 25 24  2  0
 25 26  1  0
 26 27  2  0
 27 28  1  0
 28 20  1  0
 29 30  1  0
 31 29  2  0
M  END
$$$$
