NIW.pdb
     RDKit          3D

 31 32  0  0  1  0  0  0  0  0999 V2000
    7.4357  -22.4710   20.9504 N   0  0  0  0  0  0  0  0  0  0  0  0
    7.0233  -21.1199   20.9409 C   0  0  0  0  0  0  0  0  0  0  0  0
    5.7779  -20.8923   20.8433 O   0  0  0  0  0  0  0  0  0  0  0  0
    7.9952  -20.0282   21.0399 C   0  0  0  0  0  0  0  0  0  0  0  0
    7.6145  -18.9171   20.0803 C   0  0  2  0  0  0  0  0  0  0  0  0
    7.6629  -19.3513   18.7200 N   0  0  0  0  0  0  0  0  0  0  0  0
    8.4467  -17.6980   20.3168 C   0  0  0  0  0  0  0  0  0  0  0  0
    9.6474  -17.6502   19.9273 O   0  0  0  0  0  0  0  0  0  0  0  0
    6.9146  -12.6788   19.4223 C   0  0  0  0  0  0  0  0  0  0  0  0
    7.7808  -13.9144   19.6340 C   0  0  0  0  0  0  0  0  0  0  0  0
    8.0785  -14.1357   21.0758 C   0  0  2  0  0  0  0  0  0  0  0  0
    8.6546  -12.9210   21.7522 C   0  0  0  0  0  0  0  0  0  0  0  0
    8.8318  -15.3984   21.2901 C   0  0  2  0  0  0  0  0  0  0  0  0
    7.9534  -16.5415   20.9793 N   0  0  0  0  0  0  0  0  0  0  0  0
    9.4345  -15.5607   22.6315 C   0  0  0  0  0  0  0  0  0  0  0  0
   10.3350  -14.7696   23.0099 O   0  0  0  0  0  0  0  0  0  0  0  0
    9.0419  -16.5759   23.5205 N   0  0  0  0  0  0  0  0  0  0  0  0
    9.6356  -16.7062   24.8630 C   0  0  1  0  0  0  0  0  0  0  0  0
    9.4021  -15.4737   25.6473 C   0  0  0  0  0  0  0  0  0  0  0  0
    8.0391  -15.0586   25.9230 C   0  0  0  0  0  0  0  0  0  0  0  0
    6.8894  -15.8359   25.8108 C   0  0  0  0  0  0  0  0  0  0  0  0
    5.8610  -15.0486   26.1325 N   0  0  0  0  0  0  0  0  0  0  0  0
    6.2934  -13.8087   26.4451 C   0  0  0  0  0  0  0  0  0  0  0  0
    5.5906  -12.6803   26.8467 C   0  0  0  0  0  0  0  0  0  0  0  0
    6.3195  -11.5451   27.1160 C   0  0  0  0  0  0  0  0  0  0  0  0
    7.6837  -11.5008   27.0012 C   0  0  0  0  0  0  0  0  0  0  0  0
    8.3704  -12.6193   26.6033 C   0  0  0  0  0  0  0  0  0  0  0  0
    7.6617  -13.7828   26.3231 C   0  0  0  0  0  0  0  0  0  0  0  0
    9.2945  -17.9852   25.4568 C   0  0  0  0  0  0  0  0  0  0  0  0
    9.8498  -18.4904   26.6231 O   0  0  0  0  0  0  0  0  0  0  0  0
    8.4277  -18.7650   24.9205 O   0  0  0  0  0  0  0  0  0  0  0  0
  2  3  2  0
  2  1  1  0
  4  2  1  0
  5  6  1  6
  5  4  1  0
  7  8  2  0
  7  5  1  0
  9 10  1  0
 10 11  1  0
 11 12  1  6
 13 11  1  0
 13 14  1  1
 14  7  1  0
 15 13  1  0
 16 15  2  0
 17 15  1  0
 18 29  1  0
 18 17  1  0
 18 19  1  1
 20 19  1  0
 21 20  2  0
 22 21  1  0
 23 22  1  0
 23 28  2  0
 24 23  1  0
 25 24  2  0
 25 26  1  0
 26 27  2  0
 27 28  1  0
 28 20  1  0
 29 30  1  0
 31 29  2  0
M  END
$$$$
