NIW.pdb
     RDKit          3D

 31 32  0  0  1  0  0  0  0  0999 V2000
   11.6749  -19.7301   16.6145 N   0  0  0  0  0  0  0  0  0  0  0  0
   11.8729  -18.3632   16.3181 C   0  0  0  0  0  0  0  0  0  0  0  0
   12.5955  -18.0847   15.3118 O   0  0  0  0  0  0  0  0  0  0  0  0
   11.2679  -17.3122   17.1401 C   0  0  0  0  0  0  0  0  0  0  0  0
   10.4790  -17.9407   18.2729 C   0  0  2  0  0  0  0  0  0  0  0  0
    9.2159  -18.4380   17.8275 N   0  0  0  0  0  0  0  0  0  0  0  0
   10.3429  -16.9919   19.4201 C   0  0  0  0  0  0  0  0  0  0  0  0
   11.3654  -16.5227   19.9947 O   0  0  0  0  0  0  0  0  0  0  0  0
    7.0656  -13.0459   19.1451 C   0  0  0  0  0  0  0  0  0  0  0  0
    8.2227  -13.9584   19.5326 C   0  0  0  0  0  0  0  0  0  0  0  0
    7.9798  -14.6281   20.8398 C   0  0  2  0  0  0  0  0  0  0  0  0
    7.7543  -13.6569   21.9670 C   0  0  0  0  0  0  0  0  0  0  0  0
    8.9878  -15.6868   21.1064 C   0  0  2  0  0  0  0  0  0  0  0  0
    9.0852  -16.5665   19.9268 N   0  0  0  0  0  0  0  0  0  0  0  0
    8.7623  -16.4874   22.3300 C   0  0  0  0  0  0  0  0  0  0  0  0
    7.6734  -17.0958   22.4845 O   0  0  0  0  0  0  0  0  0  0  0  0
    9.7246  -16.6030   23.3476 N   0  0  0  0  0  0  0  0  0  0  0  0
    9.4575  -16.1528   24.7251 C   0  0  1  0  0  0  0  0  0  0  0  0
    9.1935  -14.6973   24.7454 C   0  0  0  0  0  0  0  0  0  0  0  0
    8.8126  -14.0650   25.9949 C   0  0  0  0  0  0  0  0  0  0  0  0
    9.3011  -14.3611   27.2647 C   0  0  0  0  0  0  0  0  0  0  0  0
    8.6580  -13.5626   28.1189 N   0  0  0  0  0  0  0  0  0  0  0  0
    7.7845  -12.7711   27.4615 C   0  0  0  0  0  0  0  0  0  0  0  0
    6.9217  -11.7900   27.9322 C   0  0  0  0  0  0  0  0  0  0  0  0
    6.1515  -11.1282   27.0040 C   0  0  0  0  0  0  0  0  0  0  0  0
    6.2125  -11.4049   25.6640 C   0  0  0  0  0  0  0  0  0  0  0  0
    7.0667  -12.3758   25.2071 C   0  0  0  0  0  0  0  0  0  0  0  0
    7.8583  -13.0632   26.1209 C   0  0  0  0  0  0  0  0  0  0  0  0
    8.5194  -17.0406   25.3860 C   0  0  0  0  0  0  0  0  0  0  0  0
    7.3425  -17.5110   24.8224 O   0  0  0  0  0  0  0  0  0  0  0  0
    8.7210  -17.4617   26.5813 O   0  0  0  0  0  0  0  0  0  0  0  0
  2  3  2  0
  2  1  1  0
  4  2  1  0
  5  6  1  6
  5  4  1  0
  7  8  2  0
  7  5  1  0
  9 10  1  0
 10 11  1  0
 11 12  1  1
 13 11  1  0
 13 14  1  6
 14  7  1  0
 15 13  1  0
 16 15  2  0
 17 15  1  0
 18 29  1  0
 18 17  1  0
 18 19  1  6
 20 19  1  0
 21 20  2  0
 22 21  1  0
 23 22  1  0
 23 28  2  0
 24 23  1  0
 25 24  2  0
 25 26  1  0
 26 27  2  0
 27 28  1  0
 28 20  1  0
 29 30  1  0
 31 29  2  0
M  END
$$$$
