NIW.pdb
     RDKit          3D

 31 32  0  0  1  0  0  0  0  0999 V2000
    8.6134  -21.4054   19.2868 N   0  0  0  0  0  0  0  0  0  0  0  0
    9.4566  -20.7313   18.3758 C   0  0  0  0  0  0  0  0  0  0  0  0
   10.1749  -21.4453   17.6099 O   0  0  0  0  0  0  0  0  0  0  0  0
    9.4983  -19.2679   18.3193 C   0  0  0  0  0  0  0  0  0  0  0  0
    8.6088  -18.6896   19.4032 C   0  0  2  0  0  0  0  0  0  0  0  0
    7.2513  -18.5783   18.9718 N   0  0  0  0  0  0  0  0  0  0  0  0
    9.1532  -17.3910   19.9051 C   0  0  0  0  0  0  0  0  0  0  0  0
   10.3031  -16.9969   19.5613 O   0  0  0  0  0  0  0  0  0  0  0  0
    6.7851  -12.6959   19.5196 C   0  0  0  0  0  0  0  0  0  0  0  0
    7.8879  -13.7324   19.6964 C   0  0  0  0  0  0  0  0  0  0  0  0
    7.9915  -14.1883   21.1098 C   0  0  2  0  0  0  0  0  0  0  0  0
    8.1099  -13.0515   22.0889 C   0  0  0  0  0  0  0  0  0  0  0  0
    9.0032  -15.2657   21.2631 C   0  0  2  0  0  0  0  0  0  0  0  0
    8.4303  -16.5360   20.7804 N   0  0  0  0  0  0  0  0  0  0  0  0
    9.5540  -15.4331   22.6261 C   0  0  0  0  0  0  0  0  0  0  0  0
   10.3103  -14.5508   23.1051 O   0  0  0  0  0  0  0  0  0  0  0  0
    9.2674  -16.5519   23.4267 N   0  0  0  0  0  0  0  0  0  0  0  0
    9.7756  -16.6726   24.8047 C   0  0  1  0  0  0  0  0  0  0  0  0
    9.5710  -15.4042   25.5382 C   0  0  0  0  0  0  0  0  0  0  0  0
    8.2184  -14.9355   25.7767 C   0  0  0  0  0  0  0  0  0  0  0  0
    7.0415  -15.6627   25.6191 C   0  0  0  0  0  0  0  0  0  0  0  0
    6.0371  -14.8367   25.9186 N   0  0  0  0  0  0  0  0  0  0  0  0
    6.5104  -13.6196   26.2601 C   0  0  0  0  0  0  0  0  0  0  0  0
    5.8427  -12.4674   26.6539 C   0  0  0  0  0  0  0  0  0  0  0  0
    6.6093  -11.3668   26.9600 C   0  0  0  0  0  0  0  0  0  0  0  0
    7.9770  -11.3784   26.8881 C   0  0  0  0  0  0  0  0  0  0  0  0
    8.6290  -12.5201   26.4976 C   0  0  0  0  0  0  0  0  0  0  0  0
    7.8818  -13.6496   26.1809 C   0  0  0  0  0  0  0  0  0  0  0  0
    9.3269  -17.9103   25.4143 C   0  0  0  0  0  0  0  0  0  0  0  0
    8.4747  -18.8254   24.8142 O   0  0  0  0  0  0  0  0  0  0  0  0
    9.6988  -18.2514   26.5942 O   0  0  0  0  0  0  0  0  0  0  0  0
  2  3  2  0
  2  1  1  0
  4  2  1  0
  5  6  1  6
  5  4  1  0
  7  8  2  0
  7  5  1  0
  9 10  1  0
 10 11  1  0
 11 12  1  1
 13 11  1  0
 13 14  1  1
 14  7  1  0
 15 13  1  0
 16 15  2  0
 17 15  1  0
 18 29  1  0
 18 17  1  0
 18 19  1  1
 20 19  1  0
 21 20  2  0
 22 21  1  0
 23 22  1  0
 23 28  2  0
 24 23  1  0
 25 24  2  0
 25 26  1  0
 26 27  2  0
 27 28  1  0
 28 20  1  0
 29 30  1  0
 31 29  2  0
M  END
$$$$
