NIW.pdb
     RDKit          3D

 31 32  0  0  1  0  0  0  0  0999 V2000
    9.9145  -19.8767   16.6894 N   0  0  0  0  0  0  0  0  0  0  0  0
   10.7089  -19.4567   17.7794 C   0  0  0  0  0  0  0  0  0  0  0  0
   11.5568  -20.2850   18.2346 O   0  0  0  0  0  0  0  0  0  0  0  0
   10.5581  -18.1196   18.3586 C   0  0  0  0  0  0  0  0  0  0  0  0
   10.1452  -18.2369   19.8133 C   0  0  2  0  0  0  0  0  0  0  0  0
    8.8721  -18.8699   19.9539 N   0  0  0  0  0  0  0  0  0  0  0  0
   10.1954  -16.9060   20.4922 C   0  0  0  0  0  0  0  0  0  0  0  0
   11.2673  -16.2385   20.5264 O   0  0  0  0  0  0  0  0  0  0  0  0
    6.8598  -13.2502   19.2453 C   0  0  0  0  0  0  0  0  0  0  0  0
    8.0764  -13.9988   19.7757 C   0  0  0  0  0  0  0  0  0  0  0  0
    8.0266  -14.1485   21.2561 C   0  0  2  0  0  0  0  0  0  0  0  0
    7.8319  -12.8407   21.9748 C   0  0  0  0  0  0  0  0  0  0  0  0
    9.1453  -14.9879   21.7578 C   0  0  2  0  0  0  0  0  0  0  0  0
    9.0680  -16.3191   21.1281 N   0  0  0  0  0  0  0  0  0  0  0  0
    9.2344  -15.1173   23.2290 C   0  0  0  0  0  0  0  0  0  0  0  0
    8.8445  -14.1739   23.9622 O   0  0  0  0  0  0  0  0  0  0  0  0
    9.7435  -16.2659   23.8588 N   0  0  0  0  0  0  0  0  0  0  0  0
   10.0158  -16.3025   25.3066 C   0  0  1  0  0  0  0  0  0  0  0  0
    8.7693  -16.5767   26.0546 C   0  0  0  0  0  0  0  0  0  0  0  0
    7.6648  -15.6406   25.9557 C   0  0  0  0  0  0  0  0  0  0  0  0
    6.3902  -15.9007   25.4591 C   0  0  0  0  0  0  0  0  0  0  0  0
    5.7102  -14.7546   25.5282 N   0  0  0  0  0  0  0  0  0  0  0  0
    6.4833  -13.7755   26.0438 C   0  0  0  0  0  0  0  0  0  0  0  0
    6.1976  -12.4425   26.3085 C   0  0  0  0  0  0  0  0  0  0  0  0
    7.2005  -11.6794   26.8605 C   0  0  0  0  0  0  0  0  0  0  0  0
    8.4397  -12.1873   27.1476 C   0  0  0  0  0  0  0  0  0  0  0  0
    8.7142  -13.5046   26.8825 C   0  0  0  0  0  0  0  0  0  0  0  0
    7.7210  -14.3021   26.3239 C   0  0  0  0  0  0  0  0  0  0  0  0
   11.1903  -17.1053   25.5912 C   0  0  0  0  0  0  0  0  0  0  0  0
   11.7776  -17.2347   26.8411 O   0  0  0  0  0  0  0  0  0  0  0  0
   11.7887  -17.7702   24.6709 O   0  0  0  0  0  0  0  0  0  0  0  0
  2  3  2  0
  2  1  1  0
  4  2  1  0
  5  6  1  6
  5  4  1  0
  7  8  2  0
  7  5  1  0
  9 10  1  0
 10 11  1  0
 11 12  1  1
 13 11  1  0
 13 14  1  6
 14  7  1  0
 15 13  1  0
 16 15  2  0
 17 15  1  0
 18 29  1  0
 18 17  1  0
 18 19  1  1
 20 19  1  0
 21 20  2  0
 22 21  1  0
 23 22  1  0
 23 28  2  0
 24 23  1  0
 25 24  2  0
 25 26  1  0
 26 27  2  0
 27 28  1  0
 28 20  1  0
 29 30  1  0
 31 29  2  0
M  END
$$$$
