NIW.pdb
     RDKit          3D

 31 32  0  0  1  0  0  0  0  0999 V2000
    3.9701  -21.0421   23.0056 N   0  0  0  0  0  0  0  0  0  0  0  0
    4.0694  -19.7310   22.4893 C   0  0  0  0  0  0  0  0  0  0  0  0
    3.0186  -19.2203   21.9919 O   0  0  0  0  0  0  0  0  0  0  0  0
    5.3344  -18.9932   22.5277 C   0  0  0  0  0  0  0  0  0  0  0  0
    5.5898  -18.3472   21.1794 C   0  0  2  0  0  0  0  0  0  0  0  0
    5.6387  -19.3141   20.1287 N   0  0  0  0  0  0  0  0  0  0  0  0
    6.8147  -17.4911   21.2202 C   0  0  0  0  0  0  0  0  0  0  0  0
    7.9662  -18.0097   21.1920 O   0  0  0  0  0  0  0  0  0  0  0  0
    6.9781  -12.5931   18.9891 C   0  0  0  0  0  0  0  0  0  0  0  0
    7.3157  -13.9760   19.5328 C   0  0  0  0  0  0  0  0  0  0  0  0
    7.7779  -13.9122   20.9465 C   0  0  2  0  0  0  0  0  0  0  0  0
    8.9183  -12.9519   21.1514 C   0  0  0  0  0  0  0  0  0  0  0  0
    7.9812  -15.2696   21.5161 C   0  0  2  0  0  0  0  0  0  0  0  0
    6.7648  -16.0726   21.2917 N   0  0  0  0  0  0  0  0  0  0  0  0
    8.3702  -15.3099   22.9429 C   0  0  0  0  0  0  0  0  0  0  0  0
    7.6645  -14.7179   23.7981 O   0  0  0  0  0  0  0  0  0  0  0  0
    9.5124  -15.9907   23.3976 N   0  0  0  0  0  0  0  0  0  0  0  0
   10.0406  -15.7996   24.7600 C   0  0  1  0  0  0  0  0  0  0  0  0
    9.0485  -16.2495   25.7610 C   0  0  0  0  0  0  0  0  0  0  0  0
    7.8181  -15.4976   25.9246 C   0  0  0  0  0  0  0  0  0  0  0  0
    6.5277  -15.9322   25.6340 C   0  0  0  0  0  0  0  0  0  0  0  0
    5.7093  -14.9140   25.9066 N   0  0  0  0  0  0  0  0  0  0  0  0
    6.4092  -13.8513   26.3570 C   0  0  0  0  0  0  0  0  0  0  0  0
    5.9819  -12.5958   26.7690 C   0  0  0  0  0  0  0  0  0  0  0  0
    6.9438  -11.7113   27.1993 C   0  0  0  0  0  0  0  0  0  0  0  0
    8.2758  -12.0290   27.2308 C   0  0  0  0  0  0  0  0  0  0  0  0
    8.6898  -13.2708   26.8215 C   0  0  0  0  0  0  0  0  0  0  0  0
    7.7412  -14.1874   26.3803 C   0  0  0  0  0  0  0  0  0  0  0  0
   11.4026  -16.2896   24.8596 C   0  0  0  0  0  0  0  0  0  0  0  0
   12.1980  -16.1942   25.9919 O   0  0  0  0  0  0  0  0  0  0  0  0
   11.9850  -16.8610   23.8690 O   0  0  0  0  0  0  0  0  0  0  0  0
  2  3  2  0
  2  1  1  0
  4  2  1  0
  5  6  1  6
  5  4  1  0
  7  8  2  0
  7  5  1  0
  9 10  1  0
 10 11  1  0
 11 12  1  6
 13 11  1  0
 13 14  1  1
 14  7  1  0
 15 13  1  0
 16 15  2  0
 17 15  1  0
 18 29  1  0
 18 17  1  0
 18 19  1  1
 20 19  1  0
 21 20  2  0
 22 21  1  0
 23 22  1  0
 23 28  2  0
 24 23  1  0
 25 24  2  0
 25 26  1  0
 26 27  2  0
 27 28  1  0
 28 20  1  0
 29 30  1  0
 31 29  2  0
M  END
$$$$
