NIW.pdb
     RDKit          3D

 31 32  0  0  1  0  0  0  0  0999 V2000
   14.8668  -17.9185   17.7990 N   0  0  0  0  0  0  0  0  0  0  0  0
   13.5246  -17.8386   17.3659 C   0  0  0  0  0  0  0  0  0  0  0  0
   13.1877  -18.5624   16.3784 O   0  0  0  0  0  0  0  0  0  0  0  0
   12.5630  -16.9559   18.0309 C   0  0  0  0  0  0  0  0  0  0  0  0
   11.7753  -17.7426   19.0610 C   0  0  2  0  0  0  0  0  0  0  0  0
   10.6986  -18.4680   18.4646 N   0  0  0  0  0  0  0  0  0  0  0  0
   11.3151  -16.8561   20.1732 C   0  0  0  0  0  0  0  0  0  0  0  0
   12.1458  -16.1959   20.8587 O   0  0  0  0  0  0  0  0  0  0  0  0
    5.7453  -15.8546   21.0455 C   0  0  0  0  0  0  0  0  0  0  0  0
    7.1508  -16.3675   21.3340 C   0  0  0  0  0  0  0  0  0  0  0  0
    8.1574  -15.2722   21.2772 C   0  0  2  0  0  0  0  0  0  0  0  0
    8.0446  -14.4313   20.0343 C   0  0  0  0  0  0  0  0  0  0  0  0
    9.5234  -15.7696   21.5849 C   0  0  2  0  0  0  0  0  0  0  0  0
    9.9465  -16.7020   20.5235 N   0  0  0  0  0  0  0  0  0  0  0  0
    9.6891  -16.3937   22.9161 C   0  0  0  0  0  0  0  0  0  0  0  0
    9.9793  -17.6137   23.0004 O   0  0  0  0  0  0  0  0  0  0  0  0
    9.5348  -15.6753   24.1140 N   0  0  0  0  0  0  0  0  0  0  0  0
    9.5973  -16.3354   25.4300 C   0  0  1  0  0  0  0  0  0  0  0  0
    9.2878  -15.3658   26.5037 C   0  0  0  0  0  0  0  0  0  0  0  0
    7.9984  -14.6998   26.5049 C   0  0  0  0  0  0  0  0  0  0  0  0
    6.7523  -15.2899   26.3103 C   0  0  0  0  0  0  0  0  0  0  0  0
    5.8504  -14.3078   26.3627 N   0  0  0  0  0  0  0  0  0  0  0  0
    6.4547  -13.1208   26.5814 C   0  0  0  0  0  0  0  0  0  0  0  0
    5.9210  -11.8463   26.7208 C   0  0  0  0  0  0  0  0  0  0  0  0
    6.8010  -10.8156   26.9573 C   0  0  0  0  0  0  0  0  0  0  0  0
    8.1533  -11.0094   27.0560 C   0  0  0  0  0  0  0  0  0  0  0  0
    8.6727  -12.2711   26.9164 C   0  0  0  0  0  0  0  0  0  0  0  0
    7.8087  -13.3342   26.6760 C   0  0  0  0  0  0  0  0  0  0  0  0
    8.8877  -17.6006   25.4076 C   0  0  0  0  0  0  0  0  0  0  0  0
    9.1753  -18.6847   26.2235 O   0  0  0  0  0  0  0  0  0  0  0  0
    7.9136  -17.8102   24.5988 O   0  0  0  0  0  0  0  0  0  0  0  0
  2  3  2  0
  2  1  1  0
  4  2  1  0
  5  6  1  6
  5  4  1  0
  7  8  2  0
  7  5  1  0
  9 10  1  0
 10 11  1  0
 11 12  1  6
 13 11  1  0
 13 14  1  6
 14  7  1  0
 15 13  1  0
 16 15  2  0
 17 15  1  0
 18 29  1  0
 18 17  1  0
 18 19  1  1
 20 19  1  0
 21 20  2  0
 22 21  1  0
 23 22  1  0
 23 28  2  0
 24 23  1  0
 25 24  2  0
 25 26  1  0
 26 27  2  0
 27 28  1  0
 28 20  1  0
 29 30  1  0
 31 29  2  0
M  END
$$$$
