NIW.pdb
     RDKit          3D

 31 32  0  0  1  0  0  0  0  0999 V2000
    7.8059  -22.4239   18.6959 N   0  0  0  0  0  0  0  0  0  0  0  0
    7.3134  -21.3148   19.4190 C   0  0  0  0  0  0  0  0  0  0  0  0
    6.0672  -21.2846   19.6605 O   0  0  0  0  0  0  0  0  0  0  0  0
    8.2065  -20.2449   19.8705 C   0  0  0  0  0  0  0  0  0  0  0  0
    7.5303  -18.9008   19.6795 C   0  0  2  0  0  0  0  0  0  0  0  0
    7.1285  -18.6971   18.3237 N   0  0  0  0  0  0  0  0  0  0  0  0
    8.3932  -17.7912   20.1886 C   0  0  0  0  0  0  0  0  0  0  0  0
    9.6521  -17.8672   20.1166 O   0  0  0  0  0  0  0  0  0  0  0  0
    6.9528  -12.2775   21.4095 C   0  0  0  0  0  0  0  0  0  0  0  0
    6.9881  -13.7890   21.2197 C   0  0  0  0  0  0  0  0  0  0  0  0
    8.2716  -14.2362   20.6122 C   0  0  2  0  0  0  0  0  0  0  0  0
    8.2549  -14.2036   19.1078 C   0  0  0  0  0  0  0  0  0  0  0  0
    8.7460  -15.5093   21.2141 C   0  0  2  0  0  0  0  0  0  0  0  0
    7.8664  -16.6075   20.7726 N   0  0  0  0  0  0  0  0  0  0  0  0
    8.8710  -15.5091   22.6884 C   0  0  0  0  0  0  0  0  0  0  0  0
    7.9120  -15.1079   23.3949 O   0  0  0  0  0  0  0  0  0  0  0  0
   10.0320  -15.9441   23.3501 N   0  0  0  0  0  0  0  0  0  0  0  0
   10.1780  -15.8407   24.8129 C   0  0  1  0  0  0  0  0  0  0  0  0
    8.9898  -16.4085   25.4869 C   0  0  0  0  0  0  0  0  0  0  0  0
    7.7777  -15.6148   25.5710 C   0  0  0  0  0  0  0  0  0  0  0  0
    6.5008  -15.9929   25.1644 C   0  0  0  0  0  0  0  0  0  0  0  0
    5.6997  -14.9515   25.3980 N   0  0  0  0  0  0  0  0  0  0  0  0
    6.3976  -13.9277   25.9333 C   0  0  0  0  0  0  0  0  0  0  0  0
    5.9831  -12.6676   26.3442 C   0  0  0  0  0  0  0  0  0  0  0  0
    6.9373  -11.8311   26.8757 C   0  0  0  0  0  0  0  0  0  0  0  0
    8.2500  -12.1997   27.0064 C   0  0  0  0  0  0  0  0  0  0  0  0
    8.6516  -13.4457   26.5976 C   0  0  0  0  0  0  0  0  0  0  0  0
    7.7104  -14.3144   26.0554 C   0  0  0  0  0  0  0  0  0  0  0  0
   11.4948  -16.2817   25.2331 C   0  0  0  0  0  0  0  0  0  0  0  0
   11.9740  -16.2183   26.5331 O   0  0  0  0  0  0  0  0  0  0  0  0
   12.3364  -16.7737   24.3985 O   0  0  0  0  0  0  0  0  0  0  0  0
  2  3  2  0
  2  1  1  0
  4  2  1  0
  5  6  1  6
  5  4  1  0
  7  8  2  0
  7  5  1  0
  9 10  1  0
 10 11  1  0
 11 12  1  6
 13 11  1  0
 13 14  1  1
 14  7  1  0
 15 13  1  0
 16 15  2  0
 17 15  1  0
 18 29  1  0
 18 17  1  0
 18 19  1  1
 20 19  1  0
 21 20  2  0
 22 21  1  0
 23 22  1  0
 23 28  2  0
 24 23  1  0
 25 24  2  0
 25 26  1  0
 26 27  2  0
 27 28  1  0
 28 20  1  0
 29 30  1  0
 31 29  2  0
M  END
$$$$
