EYS.pdb
     RDKit          3D

 28 28  0  0  1  0  0  0  0  0999 V2000
   26.5384  -22.3795  -14.3430 N   0  0  0  0  0  0  0  0  0  0  0  0
   27.1598  -21.2464  -13.6406 C   0  0  1  0  0  0  0  0  0  0  0  0
   26.5269  -20.0079  -14.2219 C   0  0  0  0  0  0  0  0  0  0  0  0
   25.1893  -20.2609  -14.8750 C   0  0  0  0  0  0  0  0  0  0  0  0
   25.1173  -19.7687  -16.2664 C   0  0  0  0  0  0  0  0  0  0  0  0
   26.1362  -19.2449  -16.8066 O   0  0  0  0  0  0  0  0  0  0  0  0
   26.9023  -21.3889  -12.1809 C   0  0  0  0  0  0  0  0  0  0  0  0
   25.9335  -22.1269  -11.8395 O   0  0  0  0  0  0  0  0  0  0  0  0
   23.9633  -19.8492  -17.0335 O   0  0  0  0  0  0  0  0  0  0  0  0
   27.4633  -19.8514   -3.3695 O   0  0  0  0  0  0  0  0  0  0  0  0
   27.6975  -19.9439   -4.7362 C   0  0  0  0  0  0  0  0  0  0  0  0
   27.5082  -18.9021   -5.6125 C   0  0  0  0  0  0  0  0  0  0  0  0
   27.7448  -19.0112   -6.9653 C   0  0  0  0  0  0  0  0  0  0  0  0
   28.1976  -20.2124   -7.5191 C   0  0  0  0  0  0  0  0  0  0  0  0
   28.5094  -20.3885   -8.9413 C   0  0  0  0  0  0  0  0  0  0  0  0
   27.4171  -20.8351   -9.8321 C   0  0  2  0  0  0  0  0  0  0  0  0
   27.7239  -20.7167  -11.2365 N   0  0  0  0  0  0  0  0  0  0  0  0
   26.0850  -20.2849   -9.5548 C   0  0  0  0  0  0  0  0  0  0  0  0
   25.8473  -19.0870   -9.9451 O   0  0  0  0  0  0  0  0  0  0  0  0
   28.3829  -21.2479   -6.6245 C   0  0  0  0  0  0  0  0  0  0  0  0
   28.1464  -21.1396   -5.2700 C   0  0  0  0  0  0  0  0  0  0  0  0
   21.6900  -20.2078  -10.1061 O   0  0  0  0  0  0  0  0  0  0  0  0
   23.0090  -20.6856  -10.1382 C   0  0  0  0  0  0  0  0  0  0  0  0
   23.7254  -20.3658   -8.8536 C   0  0  2  0  0  0  0  0  0  0  0  0
   25.0308  -20.9703   -8.8923 N   0  0  0  0  0  0  0  0  0  0  0  0
   22.9481  -20.9462   -7.7232 C   0  0  0  0  0  0  0  0  0  0  0  0
   23.4561  -21.8584   -7.0269 O   0  0  0  0  0  0  0  0  0  0  0  0
   21.6584  -20.5264   -7.3839 O   0  0  0  0  0  0  0  0  0  0  0  0
  2  1  1  6
  2  3  1  0
  3  4  1  0
  5  6  2  0
  5  4  1  0
  7  8  2  0
  7  2  1  0
  9  5  1  0
 10 11  1  0
 11 12  2  0
 12 13  1  0
 14 13  2  0
 14 15  1  0
 16 15  1  1
 16 17  1  0
 17  7  1  0
 18 19  2  0
 18 16  1  0
 20 14  1  0
 21 11  1  0
 21 20  2  0
 23 22  1  0
 24 25  1  0
 24 23  1  6
 25 18  1  0
 26 24  1  0
 27 26  2  0
 28 26  1  0
M  END
$$$$
