EYS.pdb
     RDKit          3D

 28 28  0  0  1  0  0  0  0  0999 V2000
   22.7250  -10.9675  -18.3053 N   0  0  0  0  0  0  0  0  0  0  0  0
   22.3410   -9.6009  -18.6903 C   0  0  1  0  0  0  0  0  0  0  0  0
   20.9542   -9.7135  -19.2701 C   0  0  0  0  0  0  0  0  0  0  0  0
   20.9049  -10.4598  -20.5817 C   0  0  0  0  0  0  0  0  0  0  0  0
   19.5604  -10.4736  -21.1946 C   0  0  0  0  0  0  0  0  0  0  0  0
   19.1965   -9.5204  -21.9452 O   0  0  0  0  0  0  0  0  0  0  0  0
   22.3868   -8.7325  -17.4815 C   0  0  0  0  0  0  0  0  0  0  0  0
   21.9306   -9.2210  -16.4077 O   0  0  0  0  0  0  0  0  0  0  0  0
   18.6494  -11.4998  -20.9856 O   0  0  0  0  0  0  0  0  0  0  0  0
   28.6493   -6.0737  -19.7317 O   0  0  0  0  0  0  0  0  0  0  0  0
   27.6298   -6.2370  -18.8015 C   0  0  0  0  0  0  0  0  0  0  0  0
   27.1641   -7.4633  -18.3910 C   0  0  0  0  0  0  0  0  0  0  0  0
   26.1517   -7.6073  -17.4679 C   0  0  0  0  0  0  0  0  0  0  0  0
   25.5395   -6.4884  -16.8951 C   0  0  0  0  0  0  0  0  0  0  0  0
   24.4864   -6.5664  -15.8774 C   0  0  0  0  0  0  0  0  0  0  0  0
   23.0868   -6.6570  -16.3452 C   0  0  2  0  0  0  0  0  0  0  0  0
   22.9252   -7.4199  -17.5587 N   0  0  0  0  0  0  0  0  0  0  0  0
   22.3483   -5.3921  -16.4380 C   0  0  0  0  0  0  0  0  0  0  0  0
   22.5295   -4.6774  -17.4870 O   0  0  0  0  0  0  0  0  0  0  0  0
   26.0201   -5.2650  -17.3183 C   0  0  0  0  0  0  0  0  0  0  0  0
   27.0337   -5.1197  -18.2424 C   0  0  0  0  0  0  0  0  0  0  0  0
   18.5790   -2.7577  -16.1386 O   0  0  0  0  0  0  0  0  0  0  0  0
   19.3129   -3.9458  -16.0012 C   0  0  0  0  0  0  0  0  0  0  0  0
   20.7618   -3.6504  -15.7200 C   0  0  2  0  0  0  0  0  0  0  0  0
   21.4429   -4.8918  -15.4634 N   0  0  0  0  0  0  0  0  0  0  0  0
   20.8404   -2.7869  -14.5087 C   0  0  0  0  0  0  0  0  0  0  0  0
   21.0869   -3.3066  -13.3933 O   0  0  0  0  0  0  0  0  0  0  0  0
   20.6521   -1.4018  -14.5407 O   0  0  0  0  0  0  0  0  0  0  0  0
  2  1  1  1
  2  3  1  0
  3  4  1  0
  5  6  2  0
  5  4  1  0
  7  8  2  0
  7  2  1  0
  9  5  1  0
 10 11  1  0
 11 12  2  0
 12 13  1  0
 14 13  2  0
 14 15  1  0
 16 15  1  6
 16 17  1  0
 17  7  1  0
 18 19  2  0
 18 16  1  0
 20 14  1  0
 21 11  1  0
 21 20  2  0
 23 22  1  0
 24 25  1  0
 24 23  1  1
 25 18  1  0
 26 24  1  0
 27 26  2  0
 28 26  1  0
M  END
$$$$
