EYS.pdb
     RDKit          3D

 28 28  0  0  1  0  0  0  0  0999 V2000
   28.7373  -23.0331  -17.7215 N   0  0  0  0  0  0  0  0  0  0  0  0
   28.5423  -21.7466  -17.0357 C   0  0  1  0  0  0  0  0  0  0  0  0
   28.1366  -20.7684  -18.1084 C   0  0  0  0  0  0  0  0  0  0  0  0
   27.0216  -21.2695  -18.9946 C   0  0  0  0  0  0  0  0  0  0  0  0
   25.7360  -20.5794  -18.7608 C   0  0  0  0  0  0  0  0  0  0  0  0
   25.6492  -19.3272  -18.9303 O   0  0  0  0  0  0  0  0  0  0  0  0
   27.4956  -21.9156  -15.9902 C   0  0  0  0  0  0  0  0  0  0  0  0
   26.9049  -23.0331  -15.9464 O   0  0  0  0  0  0  0  0  0  0  0  0
   24.5886  -21.2454  -18.3528 O   0  0  0  0  0  0  0  0  0  0  0  0
   22.9423  -20.8105   -8.4595 O   0  0  0  0  0  0  0  0  0  0  0  0
   23.8807  -20.7252   -9.4811 C   0  0  0  0  0  0  0  0  0  0  0  0
   25.0968  -21.3650   -9.4521 C   0  0  0  0  0  0  0  0  0  0  0  0
   26.0160  -21.2692  -10.4736 C   0  0  0  0  0  0  0  0  0  0  0  0
   25.7473  -20.5002  -11.6099 C   0  0  0  0  0  0  0  0  0  0  0  0
   26.6599  -20.3861  -12.7523 C   0  0  0  0  0  0  0  0  0  0  0  0
   26.2950  -21.0996  -13.9948 C   0  0  2  0  0  0  0  0  0  0  0  0
   27.1952  -20.8541  -15.0947 N   0  0  0  0  0  0  0  0  0  0  0  0
   24.9024  -20.9644  -14.4379 C   0  0  0  0  0  0  0  0  0  0  0  0
   24.6107  -19.9533  -15.1704 O   0  0  0  0  0  0  0  0  0  0  0  0
   24.5211  -19.8651  -11.6225 C   0  0  0  0  0  0  0  0  0  0  0  0
   23.6000  -19.9605  -10.6003 C   0  0  0  0  0  0  0  0  0  0  0  0
   22.2987  -23.8599  -15.1369 O   0  0  0  0  0  0  0  0  0  0  0  0
   22.0896  -22.5510  -15.5975 C   0  0  0  0  0  0  0  0  0  0  0  0
   22.5120  -21.5448  -14.5607 C   0  0  2  0  0  0  0  0  0  0  0  0
   23.8467  -21.8638  -14.1273 N   0  0  0  0  0  0  0  0  0  0  0  0
   21.5818  -21.6437  -13.4014 C   0  0  0  0  0  0  0  0  0  0  0  0
   22.0260  -21.9878  -12.2793 O   0  0  0  0  0  0  0  0  0  0  0  0
   20.2136  -21.3700  -13.4905 O   0  0  0  0  0  0  0  0  0  0  0  0
  2  1  1  6
  2  3  1  0
  3  4  1  0
  5  6  2  0
  5  4  1  0
  7  8  2  0
  7  2  1  0
  9  5  1  0
 10 11  1  0
 11 12  2  0
 12 13  1  0
 14 13  2  0
 14 15  1  0
 16 15  1  1
 16 17  1  0
 17  7  1  0
 18 19  2  0
 18 16  1  0
 20 14  1  0
 21 11  1  0
 21 20  2  0
 23 22  1  0
 24 25  1  0
 24 23  1  6
 25 18  1  0
 26 24  1  0
 27 26  2  0
 28 26  1  0
M  END
$$$$
