EYS.pdb
     RDKit          3D

 28 28  0  0  1  0  0  0  0  0999 V2000
   20.3528  -11.5958  -17.9765 N   0  0  0  0  0  0  0  0  0  0  0  0
   21.1989  -10.4009  -17.8368 C   0  0  1  0  0  0  0  0  0  0  0  0
   21.1369   -9.6977  -19.1686 C   0  0  0  0  0  0  0  0  0  0  0  0
   21.8582  -10.4302  -20.2743 C   0  0  0  0  0  0  0  0  0  0  0  0
   21.8275   -9.7129  -21.5659 C   0  0  0  0  0  0  0  0  0  0  0  0
   20.9083   -9.9545  -22.4030 O   0  0  0  0  0  0  0  0  0  0  0  0
   20.6680   -9.5661  -16.7239 C   0  0  0  0  0  0  0  0  0  0  0  0
   19.4186   -9.5984  -16.5293 O   0  0  0  0  0  0  0  0  0  0  0  0
   22.7771   -8.7653  -21.9222 O   0  0  0  0  0  0  0  0  0  0  0  0
   18.7570   -5.5295   -9.3164 O   0  0  0  0  0  0  0  0  0  0  0  0
   19.3892   -6.2281  -10.3380 C   0  0  0  0  0  0  0  0  0  0  0  0
   18.9891   -7.4696  -10.7713 C   0  0  0  0  0  0  0  0  0  0  0  0
   19.6278   -8.1487  -11.7854 C   0  0  0  0  0  0  0  0  0  0  0  0
   20.7355   -7.5936  -12.4331 C   0  0  0  0  0  0  0  0  0  0  0  0
   21.4381   -8.2401  -13.5464 C   0  0  0  0  0  0  0  0  0  0  0  0
   20.9928   -7.9157  -14.9184 C   0  0  2  0  0  0  0  0  0  0  0  0
   21.5471   -8.7798  -15.9316 N   0  0  0  0  0  0  0  0  0  0  0  0
   21.1133   -6.5112  -15.3269 C   0  0  0  0  0  0  0  0  0  0  0  0
   22.2716   -6.0985  -15.6899 O   0  0  0  0  0  0  0  0  0  0  0  0
   21.1233   -6.3461  -11.9856 C   0  0  0  0  0  0  0  0  0  0  0  0
   20.4844   -5.6652  -10.9704 C   0  0  0  0  0  0  0  0  0  0  0  0
   19.1895   -2.3544  -16.8294 O   0  0  0  0  0  0  0  0  0  0  0  0
   18.9930   -3.6347  -16.2898 C   0  0  0  0  0  0  0  0  0  0  0  0
   20.3052   -4.2533  -15.8881 C   0  0  2  0  0  0  0  0  0  0  0  0
   20.0513   -5.5672  -15.3589 N   0  0  0  0  0  0  0  0  0  0  0  0
   20.9206   -3.4068  -14.8282 C   0  0  0  0  0  0  0  0  0  0  0  0
   20.5070   -3.4966  -13.6467 O   0  0  0  0  0  0  0  0  0  0  0  0
   21.9542   -2.4984  -15.0760 O   0  0  0  0  0  0  0  0  0  0  0  0
  2  1  1  6
  2  3  1  0
  3  4  1  0
  5  6  2  0
  5  4  1  0
  7  8  2  0
  7  2  1  0
  9  5  1  0
 10 11  1  0
 11 12  2  0
 12 13  1  0
 14 13  2  0
 14 15  1  0
 16 15  1  1
 16 17  1  0
 17  7  1  0
 18 19  2  0
 18 16  1  0
 20 14  1  0
 21 11  1  0
 21 20  2  0
 23 22  1  0
 24 25  1  0
 24 23  1  1
 25 18  1  0
 26 24  1  0
 27 26  2  0
 28 26  1  0
M  END
$$$$
