EYS.pdb
     RDKit          3D

 28 28  0  0  1  0  0  0  0  0999 V2000
   19.2950  -10.2249  -15.2321 N   0  0  0  0  0  0  0  0  0  0  0  0
   18.5020   -9.0088  -14.9969 C   0  0  1  0  0  0  0  0  0  0  0  0
   17.0738   -9.3876  -15.2948 C   0  0  0  0  0  0  0  0  0  0  0  0
   16.8087   -9.6467  -16.7585 C   0  0  0  0  0  0  0  0  0  0  0  0
   15.3795   -9.8678  -17.0620 C   0  0  0  0  0  0  0  0  0  0  0  0
   14.7413   -9.0225  -17.7567 O   0  0  0  0  0  0  0  0  0  0  0  0
   18.6965   -8.5763  -13.5853 C   0  0  0  0  0  0  0  0  0  0  0  0
   18.7589   -9.4876  -12.7105 O   0  0  0  0  0  0  0  0  0  0  0  0
   14.6790  -10.9792  -16.6141 O   0  0  0  0  0  0  0  0  0  0  0  0
   24.0185   -5.4952  -15.8511 O   0  0  0  0  0  0  0  0  0  0  0  0
   23.1201   -5.7248  -14.8159 C   0  0  0  0  0  0  0  0  0  0  0  0
   22.9294   -6.9549  -14.2333 C   0  0  0  0  0  0  0  0  0  0  0  0
   22.0338   -7.1653  -13.2079 C   0  0  0  0  0  0  0  0  0  0  0  0
   21.2622   -6.1142  -12.7034 C   0  0  0  0  0  0  0  0  0  0  0  0
   20.3209   -6.2558  -11.5876 C   0  0  0  0  0  0  0  0  0  0  0  0
   18.9832   -6.8104  -11.8858 C   0  0  2  0  0  0  0  0  0  0  0  0
   18.8053   -7.1965  -13.2641 N   0  0  0  0  0  0  0  0  0  0  0  0
   17.8342   -6.0209  -11.4269 C   0  0  0  0  0  0  0  0  0  0  0  0
   17.1735   -5.3692  -12.3116 O   0  0  0  0  0  0  0  0  0  0  0  0
   21.4670   -4.8857  -13.2998 C   0  0  0  0  0  0  0  0  0  0  0  0
   22.3635   -4.6741  -14.3264 C   0  0  0  0  0  0  0  0  0  0  0  0
   14.6248   -4.6554   -8.0830 O   0  0  0  0  0  0  0  0  0  0  0  0
   15.6952   -5.4864   -8.4471 C   0  0  0  0  0  0  0  0  0  0  0  0
   16.2510   -5.0867   -9.7877 C   0  0  2  0  0  0  0  0  0  0  0  0
   17.3868   -5.9201  -10.0817 N   0  0  0  0  0  0  0  0  0  0  0  0
   16.6907   -3.6656   -9.7111 C   0  0  0  0  0  0  0  0  0  0  0  0
   15.8307   -2.7555   -9.6270 O   0  0  0  0  0  0  0  0  0  0  0  0
   18.0335   -3.2762   -9.7273 O   0  0  0  0  0  0  0  0  0  0  0  0
  2  1  1  1
  2  3  1  0
  3  4  1  0
  5  6  2  0
  5  4  1  0
  7  8  2  0
  7  2  1  0
  9  5  1  0
 10 11  1  0
 11 12  2  0
 12 13  1  0
 14 13  2  0
 14 15  1  0
 16 15  1  6
 16 17  1  0
 17  7  1  0
 18 19  2  0
 18 16  1  0
 20 14  1  0
 21 11  1  0
 21 20  2  0
 23 22  1  0
 24 25  1  0
 24 23  1  1
 25 18  1  0
 26 24  1  0
 27 26  2  0
 28 26  1  0
M  END
$$$$
