EYS.pdb
     RDKit          3D

 28 28  0  0  1  0  0  0  0  0999 V2000
   18.7313  -13.8145  -16.3592 N   0  0  0  0  0  0  0  0  0  0  0  0
   18.5332  -12.3571  -16.3583 C   0  0  1  0  0  0  0  0  0  0  0  0
   17.3661  -12.1034  -15.4387 C   0  0  0  0  0  0  0  0  0  0  0  0
   16.0493  -12.6081  -15.9782 C   0  0  0  0  0  0  0  0  0  0  0  0
   14.9088  -12.3388  -15.0780 C   0  0  0  0  0  0  0  0  0  0  0  0
   13.9323  -11.6417  -15.4839 O   0  0  0  0  0  0  0  0  0  0  0  0
   19.7856  -11.7043  -15.8864 C   0  0  0  0  0  0  0  0  0  0  0  0
   20.5604  -12.4019  -15.1703 O   0  0  0  0  0  0  0  0  0  0  0  0
   14.8482  -12.8189  -13.7771 O   0  0  0  0  0  0  0  0  0  0  0  0
   27.3882   -7.4586  -16.2793 O   0  0  0  0  0  0  0  0  0  0  0  0
   26.2087   -8.1905  -16.3457 C   0  0  0  0  0  0  0  0  0  0  0  0
   25.9239   -9.2507  -15.5187 C   0  0  0  0  0  0  0  0  0  0  0  0
   24.7494   -9.9662  -15.5985 C   0  0  0  0  0  0  0  0  0  0  0  0
   23.7737   -9.6388  -16.5448 C   0  0  0  0  0  0  0  0  0  0  0  0
   22.4846  -10.3288  -16.6595 C   0  0  0  0  0  0  0  0  0  0  0  0
   21.3500   -9.7961  -15.8754 C   0  0  2  0  0  0  0  0  0  0  0  0
   20.0730  -10.3586  -16.2404 N   0  0  0  0  0  0  0  0  0  0  0  0
   21.2533   -8.3347  -15.7810 C   0  0  0  0  0  0  0  0  0  0  0  0
   20.8739   -7.6986  -16.8276 O   0  0  0  0  0  0  0  0  0  0  0  0
   24.0759   -8.5710  -17.3666 C   0  0  0  0  0  0  0  0  0  0  0  0
   25.2516   -7.8540  -17.2874 C   0  0  0  0  0  0  0  0  0  0  0  0
   19.0362   -6.4047  -14.3763 O   0  0  0  0  0  0  0  0  0  0  0  0
   20.1747   -5.7358  -13.9016 C   0  0  0  0  0  0  0  0  0  0  0  0
   21.3951   -6.1316  -14.6890 C   0  0  2  0  0  0  0  0  0  0  0  0
   21.5408   -7.5618  -14.6234 N   0  0  0  0  0  0  0  0  0  0  0  0
   22.5860   -5.4871  -14.0685 C   0  0  0  0  0  0  0  0  0  0  0  0
   23.4814   -6.2030  -13.5580 O   0  0  0  0  0  0  0  0  0  0  0  0
   22.7702   -4.1020  -14.0197 O   0  0  0  0  0  0  0  0  0  0  0  0
  2  1  1  1
  2  3  1  0
  3  4  1  0
  5  6  2  0
  5  4  1  0
  7  8  2  0
  7  2  1  0
  9  5  1  0
 10 11  1  0
 11 12  2  0
 12 13  1  0
 14 13  2  0
 14 15  1  0
 16 15  1  6
 16 17  1  0
 17  7  1  0
 18 19  2  0
 18 16  1  0
 20 14  1  0
 21 11  1  0
 21 20  2  0
 23 22  1  0
 24 25  1  0
 24 23  1  1
 25 18  1  0
 26 24  1  0
 27 26  2  0
 28 26  1  0
M  END
$$$$
