EYS.pdb
     RDKit          3D

 28 28  0  0  1  0  0  0  0  0999 V2000
   28.8321  -21.2623  -19.0042 N   0  0  0  0  0  0  0  0  0  0  0  0
   28.1296  -20.1508  -18.3452 C   0  0  1  0  0  0  0  0  0  0  0  0
   27.1301  -19.6435  -19.3531 C   0  0  0  0  0  0  0  0  0  0  0  0
   27.6897  -18.5975  -20.2871 C   0  0  0  0  0  0  0  0  0  0  0  0
   27.9214  -17.2939  -19.6311 C   0  0  0  0  0  0  0  0  0  0  0  0
   29.0796  -16.9893  -19.2186 O   0  0  0  0  0  0  0  0  0  0  0  0
   27.4824  -20.6618  -17.1053 C   0  0  0  0  0  0  0  0  0  0  0  0
   27.0909  -21.8645  -17.1174 O   0  0  0  0  0  0  0  0  0  0  0  0
   26.9125  -16.3611  -19.4349 O   0  0  0  0  0  0  0  0  0  0  0  0
   24.4759  -21.2482   -8.7641 O   0  0  0  0  0  0  0  0  0  0  0  0
   25.1836  -20.9188   -9.9139 C   0  0  0  0  0  0  0  0  0  0  0  0
   26.3170  -21.5788  -10.3246 C   0  0  0  0  0  0  0  0  0  0  0  0
   27.0071  -21.2387  -11.4674 C   0  0  0  0  0  0  0  0  0  0  0  0
   26.5759  -20.1842  -12.2779 C   0  0  0  0  0  0  0  0  0  0  0  0
   27.2358  -19.7938  -13.5281 C   0  0  0  0  0  0  0  0  0  0  0  0
   26.6927  -20.3413  -14.7896 C   0  0  2  0  0  0  0  0  0  0  0  0
   27.3259  -19.8161  -15.9743 N   0  0  0  0  0  0  0  0  0  0  0  0
   25.2328  -20.3102  -14.9374 C   0  0  0  0  0  0  0  0  0  0  0  0
   24.7003  -19.2067  -15.3150 O   0  0  0  0  0  0  0  0  0  0  0  0
   25.4356  -19.5329  -11.8508 C   0  0  0  0  0  0  0  0  0  0  0  0
   24.7440  -19.8727  -10.7068 C   0  0  0  0  0  0  0  0  0  0  0  0
   20.8828  -22.3472  -15.2236 O   0  0  0  0  0  0  0  0  0  0  0  0
   22.2711  -22.5069  -15.0975 C   0  0  0  0  0  0  0  0  0  0  0  0
   22.9365  -21.1898  -14.7997 C   0  0  2  0  0  0  0  0  0  0  0  0
   24.3561  -21.4037  -14.7012 N   0  0  0  0  0  0  0  0  0  0  0  0
   22.4233  -20.6869  -13.4948 C   0  0  0  0  0  0  0  0  0  0  0  0
   22.9291  -21.1092  -12.4267 O   0  0  0  0  0  0  0  0  0  0  0  0
   21.3894  -19.7519  -13.3862 O   0  0  0  0  0  0  0  0  0  0  0  0
  2  1  1  6
  2  3  1  0
  3  4  1  0
  5  6  2  0
  5  4  1  0
  7  8  2  0
  7  2  1  0
  9  5  1  0
 10 11  1  0
 11 12  2  0
 12 13  1  0
 14 13  2  0
 14 15  1  0
 16 15  1  1
 16 17  1  0
 17  7  1  0
 18 19  2  0
 18 16  1  0
 20 14  1  0
 21 11  1  0
 21 20  2  0
 23 22  1  0
 24 25  1  0
 24 23  1  1
 25 18  1  0
 26 24  1  0
 27 26  2  0
 28 26  1  0
M  END
$$$$
