EYS.pdb
     RDKit          3D

 28 28  0  0  1  0  0  0  0  0999 V2000
   26.9852  -26.9511  -15.7887 N   0  0  0  0  0  0  0  0  0  0  0  0
   27.8970  -26.9833  -16.9424 C   0  0  1  0  0  0  0  0  0  0  0  0
   28.5239  -25.6140  -17.0068 C   0  0  0  0  0  0  0  0  0  0  0  0
   27.5280  -24.4858  -16.8851 C   0  0  0  0  0  0  0  0  0  0  0  0
   28.1351  -23.1504  -17.0631 C   0  0  0  0  0  0  0  0  0  0  0  0
   29.3874  -23.0392  -17.2171 O   0  0  0  0  0  0  0  0  0  0  0  0
   28.9007  -28.0624  -16.7290 C   0  0  0  0  0  0  0  0  0  0  0  0
   29.2267  -28.3131  -15.5329 O   0  0  0  0  0  0  0  0  0  0  0  0
   27.3889  -21.9800  -17.0688 O   0  0  0  0  0  0  0  0  0  0  0  0
   25.5558  -32.7125  -14.1195 O   0  0  0  0  0  0  0  0  0  0  0  0
   26.5087  -32.3316  -15.0567 C   0  0  0  0  0  0  0  0  0  0  0  0
   26.2259  -31.5602  -16.1585 C   0  0  0  0  0  0  0  0  0  0  0  0
   27.1830  -31.1921  -17.0784 C   0  0  0  0  0  0  0  0  0  0  0  0
   28.5133  -31.5955  -16.9292 C   0  0  0  0  0  0  0  0  0  0  0  0
   29.5910  -31.2073  -17.8450 C   0  0  0  0  0  0  0  0  0  0  0  0
   30.2749  -29.9211  -17.5925 C   0  0  2  0  0  0  0  0  0  0  0  0
   29.4497  -28.7635  -17.8362 N   0  0  0  0  0  0  0  0  0  0  0  0
   31.5901  -29.7489  -18.2206 C   0  0  0  0  0  0  0  0  0  0  0  0
   31.6488  -29.0334  -19.2830 O   0  0  0  0  0  0  0  0  0  0  0  0
   28.7795  -32.3691  -15.8167 C   0  0  0  0  0  0  0  0  0  0  0  0
   27.8220  -32.7381  -14.8951 C   0  0  0  0  0  0  0  0  0  0  0  0
   36.3807  -30.4578  -18.4190 O   0  0  0  0  0  0  0  0  0  0  0  0
   35.1615  -30.7390  -17.7837 C   0  0  0  0  0  0  0  0  0  0  0  0
   34.0288  -30.0055  -18.4509 C   0  0  2  0  0  0  0  0  0  0  0  0
   32.8095  -30.3057  -17.7481 N   0  0  0  0  0  0  0  0  0  0  0  0
   33.9179  -30.4874  -19.8560 C   0  0  0  0  0  0  0  0  0  0  0  0
   33.2703  -31.5339  -20.1019 O   0  0  0  0  0  0  0  0  0  0  0  0
   34.5046  -29.8292  -20.9411 O   0  0  0  0  0  0  0  0  0  0  0  0
  2  1  1  1
  2  3  1  0
  3  4  1  0
  5  6  2  0
  5  4  1  0
  7  8  2  0
  7  2  1  0
  9  5  1  0
 10 11  1  0
 11 12  2  0
 12 13  1  0
 14 13  2  0
 14 15  1  0
 16 15  1  6
 16 17  1  0
 17  7  1  0
 18 19  2  0
 18 16  1  0
 20 14  1  0
 21 11  1  0
 21 20  2  0
 23 22  1  0
 24 25  1  0
 24 23  1  1
 25 18  1  0
 26 24  1  0
 27 26  2  0
 28 26  1  0
M  END
$$$$
