EYS.pdb
     RDKit          3D

 28 28  0  0  1  0  0  0  0  0999 V2000
   28.6081  -22.4896  -17.7951 N   0  0  0  0  0  0  0  0  0  0  0  0
   28.3341  -21.2150  -17.1143 C   0  0  1  0  0  0  0  0  0  0  0  0
   27.7149  -20.3193  -18.1566 C   0  0  0  0  0  0  0  0  0  0  0  0
   28.0712  -20.7020  -19.5730 C   0  0  0  0  0  0  0  0  0  0  0  0
   27.0323  -21.5177  -20.2355 C   0  0  0  0  0  0  0  0  0  0  0  0
   25.8072  -21.2860  -20.0127 O   0  0  0  0  0  0  0  0  0  0  0  0
   27.4215  -21.4722  -15.9661 C   0  0  0  0  0  0  0  0  0  0  0  0
   26.8084  -22.5785  -15.9585 O   0  0  0  0  0  0  0  0  0  0  0  0
   27.3334  -22.5527  -21.1101 O   0  0  0  0  0  0  0  0  0  0  0  0
   23.8513  -20.9120   -7.7826 O   0  0  0  0  0  0  0  0  0  0  0  0
   24.5593  -20.7236   -8.9635 C   0  0  0  0  0  0  0  0  0  0  0  0
   24.0694  -20.0248  -10.0408 C   0  0  0  0  0  0  0  0  0  0  0  0
   24.7848  -19.8479  -11.2047 C   0  0  0  0  0  0  0  0  0  0  0  0
   26.0688  -20.3829  -11.3451 C   0  0  0  0  0  0  0  0  0  0  0  0
   26.9031  -20.1994  -12.5372 C   0  0  0  0  0  0  0  0  0  0  0  0
   26.4410  -20.8167  -13.7987 C   0  0  2  0  0  0  0  0  0  0  0  0
   27.2666  -20.5028  -14.9390 N   0  0  0  0  0  0  0  0  0  0  0  0
   25.0234  -20.6335  -14.1319 C   0  0  0  0  0  0  0  0  0  0  0  0
   24.7023  -19.5818  -14.7913 O   0  0  0  0  0  0  0  0  0  0  0  0
   26.5454  -21.0811  -10.2532 C   0  0  0  0  0  0  0  0  0  0  0  0
   25.8300  -21.2587   -9.0874 C   0  0  0  0  0  0  0  0  0  0  0  0
   22.7014  -22.6390  -16.0708 O   0  0  0  0  0  0  0  0  0  0  0  0
   22.0162  -22.3699  -14.8761 C   0  0  0  0  0  0  0  0  0  0  0  0
   22.6248  -21.1917  -14.1639 C   0  0  2  0  0  0  0  0  0  0  0  0
   23.9730  -21.5273  -13.7889 N   0  0  0  0  0  0  0  0  0  0  0  0
   21.8263  -20.9191  -12.9362 C   0  0  0  0  0  0  0  0  0  0  0  0
   22.3753  -20.9991  -11.8106 O   0  0  0  0  0  0  0  0  0  0  0  0
   20.4723  -20.5718  -12.9635 O   0  0  0  0  0  0  0  0  0  0  0  0
  2  1  1  6
  2  3  1  0
  3  4  1  0
  5  6  2  0
  5  4  1  0
  7  8  2  0
  7  2  1  0
  9  5  1  0
 10 11  1  0
 11 12  2  0
 12 13  1  0
 14 13  2  0
 14 15  1  0
 16 15  1  1
 16 17  1  0
 17  7  1  0
 18 19  2  0
 18 16  1  0
 20 14  1  0
 21 11  1  0
 21 20  2  0
 23 22  1  0
 24 25  1  0
 24 23  1  1
 25 18  1  0
 26 24  1  0
 27 26  2  0
 28 26  1  0
M  END
$$$$
