EYS.pdb
     RDKit          3D

 28 28  0  0  1  0  0  0  0  0999 V2000
   19.5651  -12.7423  -15.8473 N   0  0  0  0  0  0  0  0  0  0  0  0
   19.0332  -11.5524  -16.5288 C   0  0  1  0  0  0  0  0  0  0  0  0
   17.5738  -11.4863  -16.1575 C   0  0  0  0  0  0  0  0  0  0  0  0
   16.7784  -12.6864  -16.6121 C   0  0  0  0  0  0  0  0  0  0  0  0
   16.4846  -13.6387  -15.5210 C   0  0  0  0  0  0  0  0  0  0  0  0
   15.6221  -13.3469  -14.6406 O   0  0  0  0  0  0  0  0  0  0  0  0
   19.7948  -10.3578  -16.0702 C   0  0  0  0  0  0  0  0  0  0  0  0
   20.1119  -10.3159  -14.8465 O   0  0  0  0  0  0  0  0  0  0  0  0
   17.1204  -14.8669  -15.4037 O   0  0  0  0  0  0  0  0  0  0  0  0
   24.8330   -3.0586  -16.8352 O   0  0  0  0  0  0  0  0  0  0  0  0
   24.2277   -4.3091  -16.8003 C   0  0  0  0  0  0  0  0  0  0  0  0
   24.1591   -5.0896  -15.6711 C   0  0  0  0  0  0  0  0  0  0  0  0
   23.5556   -6.3278  -15.6541 C   0  0  0  0  0  0  0  0  0  0  0  0
   22.9734   -6.8572  -16.8097 C   0  0  0  0  0  0  0  0  0  0  0  0
   22.2786   -8.1481  -16.8551 C   0  0  0  0  0  0  0  0  0  0  0  0
   20.8428   -8.1662  -16.5028 C   0  0  2  0  0  0  0  0  0  0  0  0
   20.1377   -9.3278  -16.9868 N   0  0  0  0  0  0  0  0  0  0  0  0
   20.0829   -6.9477  -16.8057 C   0  0  0  0  0  0  0  0  0  0  0  0
   19.7844   -6.7268  -18.0329 O   0  0  0  0  0  0  0  0  0  0  0  0
   23.0509   -6.0597  -17.9343 C   0  0  0  0  0  0  0  0  0  0  0  0
   23.6549   -4.8198  -17.9523 C   0  0  0  0  0  0  0  0  0  0  0  0
   17.6177   -5.0587  -14.4119 O   0  0  0  0  0  0  0  0  0  0  0  0
   17.6424   -4.6838  -15.7638 C   0  0  0  0  0  0  0  0  0  0  0  0
   19.0393   -4.7708  -16.3179 C   0  0  2  0  0  0  0  0  0  0  0  0
   19.6440   -5.9904  -15.8513 N   0  0  0  0  0  0  0  0  0  0  0  0
   19.8210   -3.6088  -15.8102 C   0  0  0  0  0  0  0  0  0  0  0  0
   20.8226   -3.8080  -15.0809 O   0  0  0  0  0  0  0  0  0  0  0  0
   19.4987   -2.2804  -16.1042 O   0  0  0  0  0  0  0  0  0  0  0  0
  2  1  1  1
  2  3  1  0
  3  4  1  0
  5  6  2  0
  5  4  1  0
  7  8  2  0
  7  2  1  0
  9  5  1  0
 10 11  1  0
 11 12  2  0
 12 13  1  0
 14 13  2  0
 14 15  1  0
 16 15  1  6
 16 17  1  0
 17  7  1  0
 18 19  2  0
 18 16  1  0
 20 14  1  0
 21 11  1  0
 21 20  2  0
 23 22  1  0
 24 25  1  0
 24 23  1  1
 25 18  1  0
 26 24  1  0
 27 26  2  0
 28 26  1  0
M  END
$$$$
