EYS.pdb
     RDKit          3D

 28 28  0  0  1  0  0  0  0  0999 V2000
   28.7736  -22.2157  -18.1000 N   0  0  0  0  0  0  0  0  0  0  0  0
   27.8398  -21.1309  -17.7619 C   0  0  1  0  0  0  0  0  0  0  0  0
   26.8706  -21.0515  -18.9136 C   0  0  0  0  0  0  0  0  0  0  0  0
   27.4620  -20.4414  -20.1617 C   0  0  0  0  0  0  0  0  0  0  0  0
   27.5350  -18.9664  -20.1116 C   0  0  0  0  0  0  0  0  0  0  0  0
   27.7515  -18.3064  -21.1707 O   0  0  0  0  0  0  0  0  0  0  0  0
   27.1706  -21.4599  -16.4729 C   0  0  0  0  0  0  0  0  0  0  0  0
   27.0425  -22.6861  -16.1907 O   0  0  0  0  0  0  0  0  0  0  0  0
   27.3773  -18.2454  -18.9360 O   0  0  0  0  0  0  0  0  0  0  0  0
   24.3238  -20.8654   -8.1108 O   0  0  0  0  0  0  0  0  0  0  0  0
   24.9372  -20.6665   -9.3418 C   0  0  0  0  0  0  0  0  0  0  0  0
   26.0951  -21.2997   -9.7258 C   0  0  0  0  0  0  0  0  0  0  0  0
   26.6905  -21.0904  -10.9503 C   0  0  0  0  0  0  0  0  0  0  0  0
   26.1316  -20.2053  -11.8771 C   0  0  0  0  0  0  0  0  0  0  0  0
   26.6870  -19.9649  -13.2130 C   0  0  0  0  0  0  0  0  0  0  0  0
   26.1553  -20.7724  -14.3316 C   0  0  2  0  0  0  0  0  0  0  0  0
   26.7082  -20.4240  -15.6174 N   0  0  0  0  0  0  0  0  0  0  0  0
   24.6943  -20.8809  -14.4192 C   0  0  0  0  0  0  0  0  0  0  0  0
   24.0673  -19.9428  -15.0281 O   0  0  0  0  0  0  0  0  0  0  0  0
   24.9686  -19.5785  -11.4751 C   0  0  0  0  0  0  0  0  0  0  0  0
   24.3717  -19.7875  -10.2494 C   0  0  0  0  0  0  0  0  0  0  0  0
   22.3749  -23.9753  -15.2048 O   0  0  0  0  0  0  0  0  0  0  0  0
   21.9482  -23.2977  -14.0525 C   0  0  0  0  0  0  0  0  0  0  0  0
   22.4814  -21.8902  -14.0310 C   0  0  2  0  0  0  0  0  0  0  0  0
   23.9125  -21.9427  -13.8888 N   0  0  0  0  0  0  0  0  0  0  0  0
   21.8964  -21.1823  -12.8582 C   0  0  0  0  0  0  0  0  0  0  0  0
   22.6514  -20.7698  -11.9447 O   0  0  0  0  0  0  0  0  0  0  0  0
   20.5264  -20.9445  -12.7111 O   0  0  0  0  0  0  0  0  0  0  0  0
  2  1  1  6
  2  3  1  0
  3  4  1  0
  5  6  2  0
  5  4  1  0
  7  8  2  0
  7  2  1  0
  9  5  1  0
 10 11  1  0
 11 12  2  0
 12 13  1  0
 14 13  2  0
 14 15  1  0
 16 15  1  1
 16 17  1  0
 17  7  1  0
 18 19  2  0
 18 16  1  0
 20 14  1  0
 21 11  1  0
 21 20  2  0
 23 22  1  0
 24 25  1  0
 24 23  1  1
 25 18  1  0
 26 24  1  0
 27 26  2  0
 28 26  1  0
M  END
$$$$
