EYS.pdb
     RDKit          3D

 28 28  0  0  1  0  0  0  0  0999 V2000
   18.7972   -9.7428  -20.5653 N   0  0  0  0  0  0  0  0  0  0  0  0
   19.8176   -8.7904  -20.1017 C   0  0  1  0  0  0  0  0  0  0  0  0
   19.5714   -7.5191  -20.8733 C   0  0  0  0  0  0  0  0  0  0  0  0
   20.1472   -7.5366  -22.2689 C   0  0  0  0  0  0  0  0  0  0  0  0
   21.6232   -7.6041  -22.2900 C   0  0  0  0  0  0  0  0  0  0  0  0
   22.2103   -8.3809  -23.0999 O   0  0  0  0  0  0  0  0  0  0  0  0
   19.6671   -8.6056  -18.6318 C   0  0  0  0  0  0  0  0  0  0  0  0
   18.4883   -8.5963  -18.1735 O   0  0  0  0  0  0  0  0  0  0  0  0
   22.4225   -6.8442  -21.4472 O   0  0  0  0  0  0  0  0  0  0  0  0
   16.9284  -13.6199  -15.9716 O   0  0  0  0  0  0  0  0  0  0  0  0
   17.9243  -12.6524  -15.9116 C   0  0  0  0  0  0  0  0  0  0  0  0
   19.0340  -12.6520  -16.7225 C   0  0  0  0  0  0  0  0  0  0  0  0
   20.0125  -11.6851  -16.6494 C   0  0  0  0  0  0  0  0  0  0  0  0
   19.9185  -10.6386  -15.7270 C   0  0  0  0  0  0  0  0  0  0  0  0
   20.8997   -9.5537  -15.6215 C   0  0  0  0  0  0  0  0  0  0  0  0
   20.6339   -8.3131  -16.3805 C   0  0  2  0  0  0  0  0  0  0  0  0
   20.8123   -8.4509  -17.8052 N   0  0  0  0  0  0  0  0  0  0  0  0
   21.3044   -7.0994  -15.8994 C   0  0  0  0  0  0  0  0  0  0  0  0
   22.5644   -6.9959  -16.1132 O   0  0  0  0  0  0  0  0  0  0  0  0
   18.7973  -10.6543  -14.9211 C   0  0  0  0  0  0  0  0  0  0  0  0
   17.8170  -11.6219  -14.9936 C   0  0  0  0  0  0  0  0  0  0  0  0
   20.1174   -3.4109  -16.1272 O   0  0  0  0  0  0  0  0  0  0  0  0
   20.6006   -3.6635  -14.8342 C   0  0  0  0  0  0  0  0  0  0  0  0
   21.4692   -4.8927  -14.8180 C   0  0  2  0  0  0  0  0  0  0  0  0
   20.6737   -6.0232  -15.2183 N   0  0  0  0  0  0  0  0  0  0  0  0
   21.9602   -5.1047  -13.4277 C   0  0  0  0  0  0  0  0  0  0  0  0
   21.6387   -6.1490  -12.8104 O   0  0  0  0  0  0  0  0  0  0  0  0
   22.7758   -4.1900  -12.7546 O   0  0  0  0  0  0  0  0  0  0  0  0
  2  1  1  6
  2  3  1  0
  3  4  1  0
  5  6  2  0
  5  4  1  0
  7  8  2  0
  7  2  1  0
  9  5  1  0
 10 11  1  0
 11 12  2  0
 12 13  1  0
 14 13  2  0
 14 15  1  0
 16 15  1  1
 16 17  1  0
 17  7  1  0
 18 19  2  0
 18 16  1  0
 20 14  1  0
 21 11  1  0
 21 20  2  0
 23 22  1  0
 24 25  1  0
 24 23  1  1
 25 18  1  0
 26 24  1  0
 27 26  2  0
 28 26  1  0
M  END
$$$$
