EYS.pdb
     RDKit          3D

 28 28  0  0  1  0  0  0  0  0999 V2000
   23.6460  -31.4365   -8.9632 N   0  0  0  0  0  0  0  0  0  0  0  0
   22.4774  -31.5451   -9.8496 C   0  0  1  0  0  0  0  0  0  0  0  0
   21.7835  -32.8244   -9.4571 C   0  0  0  0  0  0  0  0  0  0  0  0
   22.4854  -34.0686   -9.9461 C   0  0  0  0  0  0  0  0  0  0  0  0
   22.4919  -34.1939  -11.4184 C   0  0  0  0  0  0  0  0  0  0  0  0
   21.3996  -34.1885  -12.0595 O   0  0  0  0  0  0  0  0  0  0  0  0
   21.6170  -30.3452   -9.6562 C   0  0  0  0  0  0  0  0  0  0  0  0
   21.4579  -29.9399   -8.4687 O   0  0  0  0  0  0  0  0  0  0  0  0
   23.6602  -34.3229  -12.1567 O   0  0  0  0  0  0  0  0  0  0  0  0
   17.4743  -22.6357  -11.1791 O   0  0  0  0  0  0  0  0  0  0  0  0
   18.2088  -23.8105  -11.2881 C   0  0  0  0  0  0  0  0  0  0  0  0
   18.1877  -24.6204  -12.3983 C   0  0  0  0  0  0  0  0  0  0  0  0
   18.9219  -25.7825  -12.4895 C   0  0  0  0  0  0  0  0  0  0  0  0
   19.7388  -26.1989  -11.4340 C   0  0  0  0  0  0  0  0  0  0  0  0
   20.5785  -27.4005  -11.4775 C   0  0  0  0  0  0  0  0  0  0  0  0
   20.2394  -28.5071  -10.5575 C   0  0  2  0  0  0  0  0  0  0  0  0
   21.0158  -29.7035  -10.7723 N   0  0  0  0  0  0  0  0  0  0  0  0
   18.8151  -28.8403  -10.4373 C   0  0  0  0  0  0  0  0  0  0  0  0
   18.2641  -29.4451  -11.4245 O   0  0  0  0  0  0  0  0  0  0  0  0
   19.7484  -25.3732  -10.3272 C   0  0  0  0  0  0  0  0  0  0  0  0
   19.0137  -24.2095  -10.2350 C   0  0  0  0  0  0  0  0  0  0  0  0
   14.6785  -29.1742   -7.9556 O   0  0  0  0  0  0  0  0  0  0  0  0
   16.0076  -28.7255   -7.9909 C   0  0  0  0  0  0  0  0  0  0  0  0
   16.6013  -28.9187   -9.3606 C   0  0  2  0  0  0  0  0  0  0  0  0
   17.9924  -28.5530   -9.3145 N   0  0  0  0  0  0  0  0  0  0  0  0
   15.8888  -28.0230  -10.3139 C   0  0  0  0  0  0  0  0  0  0  0  0
   15.1558  -28.5221  -11.2019 O   0  0  0  0  0  0  0  0  0  0  0  0
   15.9899  -26.6289  -10.2780 O   0  0  0  0  0  0  0  0  0  0  0  0
  2  1  1  1
  2  3  1  0
  3  4  1  0
  5  6  2  0
  5  4  1  0
  7  8  2  0
  7  2  1  0
  9  5  1  0
 10 11  1  0
 11 12  2  0
 12 13  1  0
 14 13  2  0
 14 15  1  0
 16 15  1  6
 16 17  1  0
 17  7  1  0
 18 19  2  0
 18 16  1  0
 20 14  1  0
 21 11  1  0
 21 20  2  0
 23 22  1  0
 24 25  1  0
 24 23  1  1
 25 18  1  0
 26 24  1  0
 27 26  2  0
 28 26  1  0
M  END
$$$$
