EYS.pdb
     RDKit          3D

 28 28  0  0  1  0  0  0  0  0999 V2000
   14.8062  -10.9393  -12.4016 N   0  0  0  0  0  0  0  0  0  0  0  0
   16.0182  -10.2006  -12.0162 C   0  0  1  0  0  0  0  0  0  0  0  0
   16.8813  -10.1578  -13.2512 C   0  0  0  0  0  0  0  0  0  0  0  0
   17.3475  -11.5180  -13.7117 C   0  0  0  0  0  0  0  0  0  0  0  0
   18.1183  -11.4746  -14.9716 C   0  0  0  0  0  0  0  0  0  0  0  0
   18.3314  -10.3660  -15.5460 O   0  0  0  0  0  0  0  0  0  0  0  0
   15.6227   -8.8436  -11.5474 C   0  0  0  0  0  0  0  0  0  0  0  0
   14.5069   -8.4022  -11.9471 O   0  0  0  0  0  0  0  0  0  0  0  0
   18.6334  -12.6123  -15.5774 O   0  0  0  0  0  0  0  0  0  0  0  0
   11.1103   -7.9126   -6.2950 O   0  0  0  0  0  0  0  0  0  0  0  0
   12.2829   -7.5365   -6.9392 C   0  0  0  0  0  0  0  0  0  0  0  0
   12.5159   -6.2685   -7.4155 C   0  0  0  0  0  0  0  0  0  0  0  0
   13.6844   -5.9126   -8.0525 C   0  0  0  0  0  0  0  0  0  0  0  0
   14.7074   -6.8454   -8.2472 C   0  0  0  0  0  0  0  0  0  0  0  0
   15.9922   -6.5271   -8.8789 C   0  0  0  0  0  0  0  0  0  0  0  0
   16.1139   -6.7513  -10.3352 C   0  0  2  0  0  0  0  0  0  0  0  0
   16.4781   -8.1012  -10.6896 N   0  0  0  0  0  0  0  0  0  0  0  0
   16.9416   -5.7909  -11.0746 C   0  0  0  0  0  0  0  0  0  0  0  0
   18.2125   -5.8661  -10.9230 O   0  0  0  0  0  0  0  0  0  0  0  0
   14.4567   -8.1137   -7.7620 C   0  0  0  0  0  0  0  0  0  0  0  0
   13.2872   -8.4710   -7.1240 C   0  0  0  0  0  0  0  0  0  0  0  0
   18.2615   -3.3989  -14.7855 O   0  0  0  0  0  0  0  0  0  0  0  0
   17.4059   -4.2598  -14.0815 C   0  0  0  0  0  0  0  0  0  0  0  0
   17.3968   -3.9233  -12.6143 C   0  0  2  0  0  0  0  0  0  0  0  0
   16.4535   -4.7840  -11.9509 N   0  0  0  0  0  0  0  0  0  0  0  0
   16.9640   -2.5065  -12.4583 C   0  0  0  0  0  0  0  0  0  0  0  0
   15.7837   -2.2544  -12.1145 O   0  0  0  0  0  0  0  0  0  0  0  0
   17.8125   -1.4169  -12.6766 O   0  0  0  0  0  0  0  0  0  0  0  0
  2  1  1  6
  2  3  1  0
  3  4  1  0
  5  6  2  0
  5  4  1  0
  7  8  2  0
  7  2  1  0
  9  5  1  0
 10 11  1  0
 11 12  2  0
 12 13  1  0
 14 13  2  0
 14 15  1  0
 16 15  1  1
 16 17  1  0
 17  7  1  0
 18 19  2  0
 18 16  1  0
 20 14  1  0
 21 11  1  0
 21 20  2  0
 23 22  1  0
 24 25  1  0
 24 23  1  6
 25 18  1  0
 26 24  1  0
 27 26  2  0
 28 26  1  0
M  END
$$$$
