EYS.pdb
     RDKit          3D

 28 28  0  0  1  0  0  0  0  0999 V2000
   31.2833  -34.9156   -5.5931 N   0  0  0  0  0  0  0  0  0  0  0  0
   30.5427  -34.2087   -4.5371 C   0  0  1  0  0  0  0  0  0  0  0  0
   29.1125  -34.6680   -4.6627 C   0  0  0  0  0  0  0  0  0  0  0  0
   28.4283  -34.1812   -5.9175 C   0  0  0  0  0  0  0  0  0  0  0  0
   27.0194  -34.6153   -6.0193 C   0  0  0  0  0  0  0  0  0  0  0  0
   26.3297  -34.2958   -7.0324 O   0  0  0  0  0  0  0  0  0  0  0  0
   31.1412  -34.5559   -3.2185 C   0  0  0  0  0  0  0  0  0  0  0  0
   31.7173  -35.6783   -3.1287 O   0  0  0  0  0  0  0  0  0  0  0  0
   26.3933  -35.3723   -5.0386 O   0  0  0  0  0  0  0  0  0  0  0  0
   38.1779  -33.8868   -1.1524 O   0  0  0  0  0  0  0  0  0  0  0  0
   36.8226  -33.6895   -0.9169 C   0  0  0  0  0  0  0  0  0  0  0  0
   36.2355  -33.8381    0.3170 C   0  0  0  0  0  0  0  0  0  0  0  0
   34.8896  -33.6391    0.5329 C   0  0  0  0  0  0  0  0  0  0  0  0
   34.0424  -33.2692   -0.5160 C   0  0  0  0  0  0  0  0  0  0  0  0
   32.6100  -33.0006   -0.3516 C   0  0  0  0  0  0  0  0  0  0  0  0
   31.6601  -34.0085   -0.8690 C   0  0  2  0  0  0  0  0  0  0  0  0
   31.0557  -33.6487   -2.1283 N   0  0  0  0  0  0  0  0  0  0  0  0
   30.6353  -34.4796    0.0701 C   0  0  0  0  0  0  0  0  0  0  0  0
   29.4742  -33.9407   -0.0026 O   0  0  0  0  0  0  0  0  0  0  0  0
   34.6489  -33.1238   -1.7480 C   0  0  0  0  0  0  0  0  0  0  0  0
   35.9964  -33.3227   -1.9652 C   0  0  0  0  0  0  0  0  0  0  0  0
   28.0564  -37.5402    2.2177 O   0  0  0  0  0  0  0  0  0  0  0  0
   29.0326  -37.0542    1.3346 C   0  0  0  0  0  0  0  0  0  0  0  0
   29.7131  -35.8389    1.9053 C   0  0  2  0  0  0  0  0  0  0  0  0
   30.8192  -35.4888    1.0539 N   0  0  0  0  0  0  0  0  0  0  0  0
   30.2255  -36.1790    3.2621 C   0  0  0  0  0  0  0  0  0  0  0  0
   31.4593  -36.1333    3.4869 O   0  0  0  0  0  0  0  0  0  0  0  0
   29.3960  -36.5542    4.3233 O   0  0  0  0  0  0  0  0  0  0  0  0
  2  1  1  6
  2  3  1  0
  3  4  1  0
  5  6  2  0
  5  4  1  0
  7  8  2  0
  7  2  1  0
  9  5  1  0
 10 11  1  0
 11 12  2  0
 12 13  1  0
 14 13  2  0
 14 15  1  0
 16 15  1  1
 16 17  1  0
 17  7  1  0
 18 19  2  0
 18 16  1  0
 20 14  1  0
 21 11  1  0
 21 20  2  0
 23 22  1  0
 24 25  1  0
 24 23  1  6
 25 18  1  0
 26 24  1  0
 27 26  2  0
 28 26  1  0
M  END
$$$$
