SSS.pdb
     RDKit          3D

 19 18  0  0  1  0  0  0  0  0999 V2000
   19.3037   -9.3001  -15.4992 O   0  0  0  0  0  0  0  0  0  0  0  0
   18.5773   -9.3203  -14.3102 C   0  0  0  0  0  0  0  0  0  0  0  0
   18.2730   -7.9128  -13.8682 C   0  0  2  0  0  0  0  0  0  0  0  0
   19.4723   -7.1760  -13.6062 N   0  0  0  0  0  0  0  0  0  0  0  0
   17.4409   -7.8818  -12.6366 C   0  0  0  0  0  0  0  0  0  0  0  0
   16.5494   -8.7354  -12.5135 O   0  0  0  0  0  0  0  0  0  0  0  0
   16.6286   -6.0523   -8.1873 O   0  0  0  0  0  0  0  0  0  0  0  0
   17.4330   -5.9929   -9.3238 C   0  0  0  0  0  0  0  0  0  0  0  0
   16.8397   -6.8439  -10.4114 C   0  0  2  0  0  0  0  0  0  0  0  0
   17.6187   -6.9244  -11.5994 N   0  0  0  0  0  0  0  0  0  0  0  0
   15.4120   -6.5195  -10.6705 C   0  0  0  0  0  0  0  0  0  0  0  0
   15.1013   -5.4802  -11.3083 O   0  0  0  0  0  0  0  0  0  0  0  0
   12.3449   -9.2732  -10.2634 O   0  0  0  0  0  0  0  0  0  0  0  0
   12.2137   -8.1651  -11.0954 C   0  0  0  0  0  0  0  0  0  0  0  0
   12.9498   -6.9938  -10.4837 C   0  0  2  0  0  0  0  0  0  0  0  0
   14.3385   -7.3459  -10.2227 N   0  0  0  0  0  0  0  0  0  0  0  0
   12.2941   -6.5530   -9.2215 C   0  0  0  0  0  0  0  0  0  0  0  0
   10.9730   -6.1045   -9.2593 O   0  0  0  0  0  0  0  0  0  0  0  0
   12.8815   -6.5673   -8.1175 O   0  0  0  0  0  0  0  0  0  0  0  0
  2  3  1  0
  2  1  1  0
  3  4  1  1
  5  6  2  0
  5  3  1  0
  7  8  1  0
  9  8  1  1
  9 10  1  0
 10  5  1  0
 11 12  2  0
 11  9  1  0
 13 14  1  0
 15 16  1  0
 15 14  1  1
 16 11  1  0
 17 15  1  0
 18 17  1  0
 19 17  2  0
M  END
$$$$
