SSS.pdb
     RDKit          3D

 19 18  0  0  1  0  0  0  0  0999 V2000
   15.7558   -8.3802  -19.4405 O   0  0  0  0  0  0  0  0  0  0  0  0
   16.4404   -8.0225  -18.2807 C   0  0  0  0  0  0  0  0  0  0  0  0
   16.8491   -9.2579  -17.5218 C   0  0  2  0  0  0  0  0  0  0  0  0
   15.7149   -9.9221  -16.9539 N   0  0  0  0  0  0  0  0  0  0  0  0
   17.7953   -8.9475  -16.4178 C   0  0  0  0  0  0  0  0  0  0  0  0
   17.3379   -8.4380  -15.3836 O   0  0  0  0  0  0  0  0  0  0  0  0
   22.2518   -9.1313  -14.4876 O   0  0  0  0  0  0  0  0  0  0  0  0
   21.4065   -9.6116  -15.4861 C   0  0  0  0  0  0  0  0  0  0  0  0
   20.1614   -8.7721  -15.5453 C   0  0  2  0  0  0  0  0  0  0  0  0
   19.1922   -9.2063  -16.4925 N   0  0  0  0  0  0  0  0  0  0  0  0
   20.4608   -7.3189  -15.6410 C   0  0  0  0  0  0  0  0  0  0  0  0
   20.7655   -6.8036  -16.7478 O   0  0  0  0  0  0  0  0  0  0  0  0
   19.8959   -2.8526  -14.1502 O   0  0  0  0  0  0  0  0  0  0  0  0
   19.5898   -4.2051  -14.0300 C   0  0  0  0  0  0  0  0  0  0  0  0
   20.7041   -5.0237  -14.6435 C   0  0  2  0  0  0  0  0  0  0  0  0
   20.4214   -6.4463  -14.5128 N   0  0  0  0  0  0  0  0  0  0  0  0
   22.0114   -4.7071  -14.0047 C   0  0  0  0  0  0  0  0  0  0  0  0
   22.7175   -3.5768  -14.4191 O   0  0  0  0  0  0  0  0  0  0  0  0
   22.5096   -5.4171  -13.1038 O   0  0  0  0  0  0  0  0  0  0  0  0
  2  3  1  0
  2  1  1  0
  3  4  1  1
  5  6  2  0
  5  3  1  0
  7  8  1  0
  9  8  1  6
  9 10  1  0
 10  5  1  0
 11 12  2  0
 11  9  1  0
 13 14  1  0
 15 16  1  0
 15 14  1  1
 16 11  1  0
 17 15  1  0
 18 17  1  0
 19 17  2  0
M  END
$$$$
