SSS.pdb
     RDKit          3D

 19 18  0  0  1  0  0  0  0  0999 V2000
   18.9212  -12.3139  -17.0241 O   0  0  0  0  0  0  0  0  0  0  0  0
   18.0356  -11.4124  -17.6114 C   0  0  0  0  0  0  0  0  0  0  0  0
   18.7317  -10.1023  -17.8728 C   0  0  2  0  0  0  0  0  0  0  0  0
   19.8152  -10.2605  -18.7952 N   0  0  0  0  0  0  0  0  0  0  0  0
   19.2777   -9.5019  -16.6271 C   0  0  0  0  0  0  0  0  0  0  0  0
   18.4756   -9.1518  -15.7482 O   0  0  0  0  0  0  0  0  0  0  0  0
   22.1899   -9.9762  -13.5680 O   0  0  0  0  0  0  0  0  0  0  0  0
   22.4861   -9.2691  -14.7319 C   0  0  0  0  0  0  0  0  0  0  0  0
   21.2343   -8.6413  -15.2775 C   0  0  2  0  0  0  0  0  0  0  0  0
   20.6689   -9.3117  -16.3981 N   0  0  0  0  0  0  0  0  0  0  0  0
   21.3787   -7.1762  -15.4857 C   0  0  0  0  0  0  0  0  0  0  0  0
   21.9241   -6.7326  -16.5293 O   0  0  0  0  0  0  0  0  0  0  0  0
   19.9221   -2.7025  -14.6280 O   0  0  0  0  0  0  0  0  0  0  0  0
   19.7801   -4.0628  -14.3697 C   0  0  0  0  0  0  0  0  0  0  0  0
   21.0417   -4.7834  -14.7906 C   0  0  2  0  0  0  0  0  0  0  0  0
   20.9192   -6.2125  -14.5391 N   0  0  0  0  0  0  0  0  0  0  0  0
   22.2286   -4.2434  -14.0716 C   0  0  0  0  0  0  0  0  0  0  0  0
   22.9045   -3.1428  -14.6006 O   0  0  0  0  0  0  0  0  0  0  0  0
   22.6507   -4.7379  -13.0033 O   0  0  0  0  0  0  0  0  0  0  0  0
  2  3  1  0
  2  1  1  0
  3  4  1  6
  5  6  2  0
  5  3  1  0
  7  8  1  0
  9  8  1  6
  9 10  1  0
 10  5  1  0
 11 12  2  0
 11  9  1  0
 13 14  1  0
 15 16  1  0
 15 14  1  1
 16 11  1  0
 17 15  1  0
 18 17  1  0
 19 17  2  0
M  END
$$$$
