SSS.pdb
     RDKit          3D

 19 18  0  0  1  0  0  0  0  0999 V2000
   19.1327   -9.0546  -21.9827 O   0  0  0  0  0  0  0  0  0  0  0  0
   19.1487   -8.5663  -20.6776 C   0  0  0  0  0  0  0  0  0  0  0  0
   19.4752   -9.6783  -19.7153 C   0  0  2  0  0  0  0  0  0  0  0  0
   18.4056  -10.6261  -19.6287 N   0  0  0  0  0  0  0  0  0  0  0  0
   19.7452   -9.1694  -18.3447 C   0  0  0  0  0  0  0  0  0  0  0  0
   18.9170   -8.3996  -17.8349 O   0  0  0  0  0  0  0  0  0  0  0  0
   22.3802   -9.3543  -14.2539 O   0  0  0  0  0  0  0  0  0  0  0  0
   22.2129   -9.8724  -15.5368 C   0  0  0  0  0  0  0  0  0  0  0  0
   21.2214   -9.0369  -16.2969 C   0  0  2  0  0  0  0  0  0  0  0  0
   20.9022   -9.5223  -17.5959 N   0  0  0  0  0  0  0  0  0  0  0  0
   21.5690   -7.5913  -16.2831 C   0  0  0  0  0  0  0  0  0  0  0  0
   22.3829   -7.1246  -17.1216 O   0  0  0  0  0  0  0  0  0  0  0  0
   20.6321   -3.0434  -15.4166 O   0  0  0  0  0  0  0  0  0  0  0  0
   20.2132   -4.3707  -15.4270 C   0  0  0  0  0  0  0  0  0  0  0  0
   21.4211   -5.2745  -15.3175 C   0  0  2  0  0  0  0  0  0  0  0  0
   21.0144   -6.6725  -15.3429 N   0  0  0  0  0  0  0  0  0  0  0  0
   22.1858   -4.9928  -14.0712 C   0  0  0  0  0  0  0  0  0  0  0  0
   22.1091   -5.8911  -13.0057 O   0  0  0  0  0  0  0  0  0  0  0  0
   22.9013   -3.9761  -13.9360 O   0  0  0  0  0  0  0  0  0  0  0  0
  2  3  1  0
  2  1  1  0
  3  4  1  1
  5  6  2  0
  5  3  1  0
  7  8  1  0
  9  8  1  6
  9 10  1  0
 10  5  1  0
 11 12  2  0
 11  9  1  0
 13 14  1  0
 15 16  1  0
 15 14  1  1
 16 11  1  0
 17 15  1  0
 18 17  1  0
 19 17  2  0
M  END
$$$$
