SSS.pdb
     RDKit          3D

 19 18  0  0  1  0  0  0  0  0999 V2000
   16.4409  -12.3810  -14.3784 O   0  0  0  0  0  0  0  0  0  0  0  0
   16.0411  -11.0669  -14.6138 C   0  0  0  0  0  0  0  0  0  0  0  0
   16.0933  -10.7690  -16.0895 C   0  0  2  0  0  0  0  0  0  0  0  0
   15.9128  -11.9560  -16.8695 N   0  0  0  0  0  0  0  0  0  0  0  0
   17.3860  -10.1531  -16.4894 C   0  0  0  0  0  0  0  0  0  0  0  0
   18.0552  -10.7197  -17.3666 O   0  0  0  0  0  0  0  0  0  0  0  0
   18.3101   -7.0674  -18.1220 O   0  0  0  0  0  0  0  0  0  0  0  0
   19.2590   -8.0131  -17.7379 C   0  0  0  0  0  0  0  0  0  0  0  0
   19.1099   -8.3169  -16.2735 C   0  0  2  0  0  0  0  0  0  0  0  0
   17.8875   -8.9515  -15.9161 N   0  0  0  0  0  0  0  0  0  0  0  0
   19.4325   -7.1462  -15.4155 C   0  0  0  0  0  0  0  0  0  0  0  0
   18.5498   -6.2896  -15.1501 O   0  0  0  0  0  0  0  0  0  0  0  0
   21.8599   -7.2338  -12.3042 O   0  0  0  0  0  0  0  0  0  0  0  0
   22.1618   -6.1079  -13.0648 C   0  0  0  0  0  0  0  0  0  0  0  0
   20.9984   -5.8000  -13.9812 C   0  0  2  0  0  0  0  0  0  0  0  0
   20.7278   -6.9311  -14.8574 N   0  0  0  0  0  0  0  0  0  0  0  0
   21.2694   -4.5830  -14.7954 C   0  0  0  0  0  0  0  0  0  0  0  0
   21.0958   -3.3237  -14.2193 O   0  0  0  0  0  0  0  0  0  0  0  0
   21.6497   -4.6406  -15.9854 O   0  0  0  0  0  0  0  0  0  0  0  0
  2  3  1  0
  2  1  1  0
  3  4  1  6
  5  6  2  0
  5  3  1  0
  7  8  1  0
  9  8  1  6
  9 10  1  0
 10  5  1  0
 11 12  2  0
 11  9  1  0
 13 14  1  0
 15 16  1  0
 15 14  1  6
 16 11  1  0
 17 15  1  0
 18 17  1  0
 19 17  2  0
M  END
$$$$
