SSS.pdb
     RDKit          3D

 19 18  0  0  1  0  0  0  0  0999 V2000
   22.1758  -13.1903  -15.9324 O   0  0  0  0  0  0  0  0  0  0  0  0
   22.2416  -11.7984  -15.9460 C   0  0  0  0  0  0  0  0  0  0  0  0
   22.1727  -11.2930  -17.3633 C   0  0  2  0  0  0  0  0  0  0  0  0
   23.3448  -11.6507  -18.1038 N   0  0  0  0  0  0  0  0  0  0  0  0
   22.0298   -9.8144  -17.4226 C   0  0  0  0  0  0  0  0  0  0  0  0
   23.0140   -9.1471  -17.7752 O   0  0  0  0  0  0  0  0  0  0  0  0
   18.6105   -7.7535  -15.9094 O   0  0  0  0  0  0  0  0  0  0  0  0
   19.2045   -7.2746  -17.0756 C   0  0  0  0  0  0  0  0  0  0  0  0
   20.6374   -7.7239  -17.1376 C   0  0  2  0  0  0  0  0  0  0  0  0
   20.8240   -9.1339  -17.0956 N   0  0  0  0  0  0  0  0  0  0  0  0
   21.5037   -6.9915  -16.1765 C   0  0  0  0  0  0  0  0  0  0  0  0
   21.8208   -7.5169  -15.0779 O   0  0  0  0  0  0  0  0  0  0  0  0
   24.1804   -3.0586  -15.1218 O   0  0  0  0  0  0  0  0  0  0  0  0
   23.3346   -3.6734  -16.0404 C   0  0  0  0  0  0  0  0  0  0  0  0
   22.8739   -5.0013  -15.4813 C   0  0  2  0  0  0  0  0  0  0  0  0
   22.0130   -5.6844  -16.4367 N   0  0  0  0  0  0  0  0  0  0  0  0
   22.1513   -4.8147  -14.1927 C   0  0  0  0  0  0  0  0  0  0  0  0
   22.8376   -5.0024  -12.9920 O   0  0  0  0  0  0  0  0  0  0  0  0
   20.9438   -4.4938  -14.1387 O   0  0  0  0  0  0  0  0  0  0  0  0
  2  3  1  0
  2  1  1  0
  3  4  1  6
  5  6  2  0
  5  3  1  0
  7  8  1  0
  9  8  1  1
  9 10  1  0
 10  5  1  0
 11 12  2  0
 11  9  1  0
 13 14  1  0
 15 16  1  0
 15 14  1  6
 16 11  1  0
 17 15  1  0
 18 17  1  0
 19 17  2  0
M  END
$$$$
