SSS.pdb
     RDKit          3D

 19 18  0  0  1  0  0  0  0  0999 V2000
   16.5409   -9.2961  -17.0963 O   0  0  0  0  0  0  0  0  0  0  0  0
   17.4383  -10.2082  -17.6484 C   0  0  0  0  0  0  0  0  0  0  0  0
   18.1572  -10.9513  -16.5529 C   0  0  2  0  0  0  0  0  0  0  0  0
   17.2462  -11.7111  -15.7511 N   0  0  0  0  0  0  0  0  0  0  0  0
   18.9016  -10.0333  -15.6510 C   0  0  0  0  0  0  0  0  0  0  0  0
   18.2476   -9.3259  -14.8699 O   0  0  0  0  0  0  0  0  0  0  0  0
   23.1627   -9.4219  -15.8875 O   0  0  0  0  0  0  0  0  0  0  0  0
   22.5187   -9.4135  -14.6516 C   0  0  0  0  0  0  0  0  0  0  0  0
   21.0755   -9.0353  -14.8331 C   0  0  2  0  0  0  0  0  0  0  0  0
   20.3205   -9.9295  -15.6426 N   0  0  0  0  0  0  0  0  0  0  0  0
   20.9070   -7.6106  -15.2237 C   0  0  0  0  0  0  0  0  0  0  0  0
   20.8190   -7.2898  -16.4373 O   0  0  0  0  0  0  0  0  0  0  0  0
   19.6054   -3.1171  -14.3232 O   0  0  0  0  0  0  0  0  0  0  0  0
   19.7322   -4.4189  -13.8472 C   0  0  0  0  0  0  0  0  0  0  0  0
   20.7487   -5.1591  -14.6879 C   0  0  2  0  0  0  0  0  0  0  0  0
   20.8371   -6.5514  -14.2704 N   0  0  0  0  0  0  0  0  0  0  0  0
   22.0885   -4.5164  -14.5921 C   0  0  0  0  0  0  0  0  0  0  0  0
   22.4637   -3.5744  -15.5511 O   0  0  0  0  0  0  0  0  0  0  0  0
   22.9008   -4.7865  -13.6803 O   0  0  0  0  0  0  0  0  0  0  0  0
  2  3  1  0
  2  1  1  0
  3  4  1  1
  5  6  2  0
  5  3  1  0
  7  8  1  0
  9  8  1  6
  9 10  1  0
 10  5  1  0
 11 12  2  0
 11  9  1  0
 13 14  1  0
 15 16  1  0
 15 14  1  1
 16 11  1  0
 17 15  1  0
 18 17  1  0
 19 17  2  0
M  END
$$$$
