SSS.pdb
     RDKit          3D

 19 18  0  0  1  0  0  0  0  0999 V2000
   16.1989   -9.9901  -14.2817 O   0  0  0  0  0  0  0  0  0  0  0  0
   16.9001   -8.8314  -14.6101 C   0  0  0  0  0  0  0  0  0  0  0  0
   18.2939   -9.1829  -15.0605 C   0  0  2  0  0  0  0  0  0  0  0  0
   19.0573   -9.7615  -13.9963 N   0  0  0  0  0  0  0  0  0  0  0  0
   19.0355   -7.9949  -15.5597 C   0  0  0  0  0  0  0  0  0  0  0  0
   19.8741   -7.4733  -14.8093 O   0  0  0  0  0  0  0  0  0  0  0  0
   20.2867   -7.4169  -19.2563 O   0  0  0  0  0  0  0  0  0  0  0  0
   19.6621   -6.2419  -18.8422 C   0  0  0  0  0  0  0  0  0  0  0  0
   19.4711   -6.2659  -17.3517 C   0  0  2  0  0  0  0  0  0  0  0  0
   18.8290   -7.4325  -16.8501 N   0  0  0  0  0  0  0  0  0  0  0  0
   18.8764   -5.0047  -16.8355 C   0  0  0  0  0  0  0  0  0  0  0  0
   17.6296   -4.8964  -16.7041 O   0  0  0  0  0  0  0  0  0  0  0  0
   19.5033   -0.4976  -15.0897 O   0  0  0  0  0  0  0  0  0  0  0  0
   20.1096   -1.6224  -15.6417 C   0  0  0  0  0  0  0  0  0  0  0  0
   19.0522   -2.6626  -15.9379 C   0  0  2  0  0  0  0  0  0  0  0  0
   19.6639   -3.8730  -16.4685 N   0  0  0  0  0  0  0  0  0  0  0  0
   18.0461   -2.1395  -16.9031 C   0  0  0  0  0  0  0  0  0  0  0  0
   16.8862   -1.5333  -16.4185 O   0  0  0  0  0  0  0  0  0  0  0  0
   18.1966   -2.2205  -18.1420 O   0  0  0  0  0  0  0  0  0  0  0  0
  2  3  1  0
  2  1  1  0
  3  4  1  1
  5  6  2  0
  5  3  1  0
  7  8  1  0
  9  8  1  6
  9 10  1  0
 10  5  1  0
 11 12  2  0
 11  9  1  0
 13 14  1  0
 15 16  1  0
 15 14  1  6
 16 11  1  0
 17 15  1  0
 18 17  1  0
 19 17  2  0
M  END
$$$$
