SSS.pdb
     RDKit          3D

 19 18  0  0  1  0  0  0  0  0999 V2000
   18.6298   -5.4654  -17.0696 O   0  0  0  0  0  0  0  0  0  0  0  0
   17.7023   -6.4940  -17.2243 C   0  0  0  0  0  0  0  0  0  0  0  0
   16.8817   -6.6408  -15.9696 C   0  0  2  0  0  0  0  0  0  0  0  0
   16.0348   -5.5051  -15.7625 N   0  0  0  0  0  0  0  0  0  0  0  0
   17.7329   -6.8009  -14.7613 C   0  0  0  0  0  0  0  0  0  0  0  0
   17.7532   -5.8756  -13.9355 O   0  0  0  0  0  0  0  0  0  0  0  0
   20.5923  -10.0035  -14.2213 O   0  0  0  0  0  0  0  0  0  0  0  0
   19.8138   -9.5610  -13.1534 C   0  0  0  0  0  0  0  0  0  0  0  0
   19.3825   -8.1413  -13.3929 C   0  0  2  0  0  0  0  0  0  0  0  0
   18.5203   -7.9589  -14.5100 N   0  0  0  0  0  0  0  0  0  0  0  0
   20.5256   -7.1906  -13.3764 C   0  0  0  0  0  0  0  0  0  0  0  0
   21.2601   -7.0964  -12.3590 O   0  0  0  0  0  0  0  0  0  0  0  0
   23.6041   -4.3393  -15.7790 O   0  0  0  0  0  0  0  0  0  0  0  0
   22.5478   -5.2438  -15.8379 C   0  0  0  0  0  0  0  0  0  0  0  0
   21.9921   -5.4509  -14.4464 C   0  0  2  0  0  0  0  0  0  0  0  0
   20.8483   -6.3514  -14.4842 N   0  0  0  0  0  0  0  0  0  0  0  0
   21.5943   -4.1536  -13.8331 C   0  0  0  0  0  0  0  0  0  0  0  0
   22.4921   -3.4914  -12.9945 O   0  0  0  0  0  0  0  0  0  0  0  0
   20.4793   -3.6259  -14.0388 O   0  0  0  0  0  0  0  0  0  0  0  0
  2  3  1  0
  2  1  1  0
  3  4  1  1
  5  6  2  0
  5  3  1  0
  7  8  1  0
  9  8  1  6
  9 10  1  0
 10  5  1  0
 11 12  2  0
 11  9  1  0
 13 14  1  0
 15 16  1  0
 15 14  1  6
 16 11  1  0
 17 15  1  0
 18 17  1  0
 19 17  2  0
M  END
$$$$
