SSS.pdb
     RDKit          3D

 19 18  0  0  1  0  0  0  0  0999 V2000
   18.5468   -8.5284  -19.0814 O   0  0  0  0  0  0  0  0  0  0  0  0
   19.2081   -9.7506  -19.1856 C   0  0  0  0  0  0  0  0  0  0  0  0
   19.0962  -10.5093  -17.8891 C   0  0  2  0  0  0  0  0  0  0  0  0
   17.7601  -10.9742  -17.6687 N   0  0  0  0  0  0  0  0  0  0  0  0
   19.4882   -9.6783  -16.7202 C   0  0  0  0  0  0  0  0  0  0  0  0
   18.6169   -8.9759  -16.1856 O   0  0  0  0  0  0  0  0  0  0  0  0
   23.5453   -9.2900  -15.4347 O   0  0  0  0  0  0  0  0  0  0  0  0
   22.5371   -9.2760  -14.4726 C   0  0  0  0  0  0  0  0  0  0  0  0
   21.2413   -8.8455  -15.1006 C   0  0  2  0  0  0  0  0  0  0  0  0
   20.8081   -9.6518  -16.1900 N   0  0  0  0  0  0  0  0  0  0  0  0
   21.2139   -7.3902  -15.4044 C   0  0  0  0  0  0  0  0  0  0  0  0
   21.4789   -6.9771  -16.5631 O   0  0  0  0  0  0  0  0  0  0  0  0
   18.6015   -4.8116  -14.9835 O   0  0  0  0  0  0  0  0  0  0  0  0
   19.6841   -4.2901  -14.2811 C   0  0  0  0  0  0  0  0  0  0  0  0
   20.9509   -4.9809  -14.7351 C   0  0  2  0  0  0  0  0  0  0  0  0
   20.8940   -6.4027  -14.4256 N   0  0  0  0  0  0  0  0  0  0  0  0
   22.1489   -4.3714  -14.0943 C   0  0  0  0  0  0  0  0  0  0  0  0
   22.4953   -3.0560  -14.4071 O   0  0  0  0  0  0  0  0  0  0  0  0
   22.8658   -4.9930  -13.2796 O   0  0  0  0  0  0  0  0  0  0  0  0
  2  3  1  0
  2  1  1  0
  3  4  1  1
  5  6  2  0
  5  3  1  0
  7  8  1  0
  9  8  1  6
  9 10  1  0
 10  5  1  0
 11 12  2  0
 11  9  1  0
 13 14  1  0
 15 16  1  0
 15 14  1  1
 16 11  1  0
 17 15  1  0
 18 17  1  0
 19 17  2  0
M  END
$$$$
