SSS.pdb
     RDKit          3D

 19 18  0  0  1  0  0  0  0  0999 V2000
   26.0622  -32.4936  -13.0908 O   0  0  0  0  0  0  0  0  0  0  0  0
   26.7122  -33.6217  -13.5877 C   0  0  0  0  0  0  0  0  0  0  0  0
   25.7616  -34.7896  -13.6252 C   0  0  2  0  0  0  0  0  0  0  0  0
   24.6178  -34.5072  -14.4388 N   0  0  0  0  0  0  0  0  0  0  0  0
   25.2763  -35.1583  -12.2691 C   0  0  0  0  0  0  0  0  0  0  0  0
   24.1292  -34.8141  -11.9467 O   0  0  0  0  0  0  0  0  0  0  0  0
   27.7851  -36.9785   -9.2761 O   0  0  0  0  0  0  0  0  0  0  0  0
   26.4410  -37.3339   -9.3729 C   0  0  0  0  0  0  0  0  0  0  0  0
   25.6633  -36.2139  -10.0050 C   0  0  2  0  0  0  0  0  0  0  0  0
   26.0620  -35.8830  -11.3303 N   0  0  0  0  0  0  0  0  0  0  0  0
   25.5522  -35.0277   -9.1155 C   0  0  0  0  0  0  0  0  0  0  0  0
   26.3237  -34.0451   -9.2662 O   0  0  0  0  0  0  0  0  0  0  0  0
   23.1769  -32.6343   -5.6163 O   0  0  0  0  0  0  0  0  0  0  0  0
   23.2849  -33.8226   -6.3329 C   0  0  0  0  0  0  0  0  0  0  0  0
   24.5313  -33.7758   -7.1888 C   0  0  2  0  0  0  0  0  0  0  0  0
   24.5895  -34.9363   -8.0665 N   0  0  0  0  0  0  0  0  0  0  0  0
   25.7559  -33.7191   -6.3435 C   0  0  0  0  0  0  0  0  0  0  0  0
   26.0294  -32.5603   -5.6152 O   0  0  0  0  0  0  0  0  0  0  0  0
   26.5585  -34.6742   -6.2568 O   0  0  0  0  0  0  0  0  0  0  0  0
  2  3  1  0
  2  1  1  0
  3  4  1  6
  5  6  2  0
  5  3  1  0
  7  8  1  0
  9  8  1  1
  9 10  1  0
 10  5  1  0
 11 12  2  0
 11  9  1  0
 13 14  1  0
 15 16  1  0
 15 14  1  1
 16 11  1  0
 17 15  1  0
 18 17  1  0
 19 17  2  0
M  END
$$$$
