SSS.pdb
     RDKit          3D

 19 18  0  0  1  0  0  0  0  0999 V2000
   18.5819  -12.8115  -14.4721 O   0  0  0  0  0  0  0  0  0  0  0  0
   19.1104  -11.7010  -15.1274 C   0  0  0  0  0  0  0  0  0  0  0  0
   18.0020  -10.8992  -15.7582 C   0  0  2  0  0  0  0  0  0  0  0  0
   17.5100  -11.5305  -16.9454 N   0  0  0  0  0  0  0  0  0  0  0  0
   18.4428   -9.5265  -16.1212 C   0  0  0  0  0  0  0  0  0  0  0  0
   19.0852   -9.3790  -17.1718 O   0  0  0  0  0  0  0  0  0  0  0  0
   18.0661   -4.7576  -15.8089 O   0  0  0  0  0  0  0  0  0  0  0  0
   17.5608   -5.9920  -15.4048 C   0  0  0  0  0  0  0  0  0  0  0  0
   18.6022   -7.0572  -15.6038 C   0  0  2  0  0  0  0  0  0  0  0  0
   18.1635   -8.3816  -15.3241 N   0  0  0  0  0  0  0  0  0  0  0  0
   19.8926   -6.7188  -14.9473 C   0  0  0  0  0  0  0  0  0  0  0  0
   20.0687   -6.9649  -13.7259 O   0  0  0  0  0  0  0  0  0  0  0  0
   24.4292   -4.9842  -15.2849 O   0  0  0  0  0  0  0  0  0  0  0  0
   23.2299   -5.2245  -15.9491 C   0  0  0  0  0  0  0  0  0  0  0  0
   22.2068   -5.7360  -14.9593 C   0  0  2  0  0  0  0  0  0  0  0  0
   20.9784   -6.1112  -15.6455 N   0  0  0  0  0  0  0  0  0  0  0  0
   21.9127   -4.7111  -13.9199 C   0  0  0  0  0  0  0  0  0  0  0  0
   22.5506   -4.7926  -12.6812 O   0  0  0  0  0  0  0  0  0  0  0  0
   21.1106   -3.7706  -14.1102 O   0  0  0  0  0  0  0  0  0  0  0  0
  2  3  1  0
  2  1  1  0
  3  4  1  6
  5  6  2  0
  5  3  1  0
  7  8  1  0
  9  8  1  1
  9 10  1  0
 10  5  1  0
 11 12  2  0
 11  9  1  0
 13 14  1  0
 15 16  1  0
 15 14  1  6
 16 11  1  0
 17 15  1  0
 18 17  1  0
 19 17  2  0
M  END
$$$$
