PCQ.pdb
     RDKit          3D

 23 23  0  0  1  0  0  0  0  0999 V2000
    7.4240  -15.1676   19.6724 N   0  0  0  0  0  0  0  0  0  0  0  0
    6.5041  -14.1778   19.2080 C   0  0  0  0  0  0  0  0  0  0  0  0
    7.3337  -13.3013   18.2957 C   0  0  0  0  0  0  0  0  0  0  0  0
    8.6441  -13.2234   19.0909 C   0  0  0  0  0  0  0  0  0  0  0  0
    8.7549  -14.6441   19.5875 C   0  0  1  0  0  0  0  0  0  0  0  0
    9.3974  -14.7394   20.9150 C   0  0  0  0  0  0  0  0  0  0  0  0
   10.6149  -14.4549   21.0381 O   0  0  0  0  0  0  0  0  0  0  0  0
    8.6826  -15.1458   22.0734 N   0  0  0  0  0  0  0  0  0  0  0  0
    9.2872  -15.2707   23.3731 C   0  0  1  0  0  0  0  0  0  0  0  0
    8.2943  -15.1710   24.4994 C   0  0  0  0  0  0  0  0  0  0  0  0
    7.4486  -13.5958   24.5762 S   0  0  0  0  0  0  0  0  0  0  0  0
   10.1093  -16.5198   23.4566 C   0  0  0  0  0  0  0  0  0  0  0  0
    9.6603  -17.6326   23.0639 O   0  0  0  0  0  0  0  0  0  0  0  0
   16.4778  -16.2291   23.6886 N   0  0  0  0  0  0  0  0  0  0  0  0
   16.1824  -17.6084   23.6802 C   0  0  0  0  0  0  0  0  0  0  0  0
   17.1709  -18.4168   23.6262 O   0  0  0  0  0  0  0  0  0  0  0  0
   14.8215  -18.1222   23.7374 C   0  0  0  0  0  0  0  0  0  0  0  0
   13.7133  -17.1604   23.7968 C   0  0  0  0  0  0  0  0  0  0  0  0
   12.3123  -17.6728   23.9524 C   0  0  2  0  0  0  0  0  0  0  0  0
   11.4115  -16.4787   23.9794 N   0  0  0  0  0  0  0  0  0  0  0  0
   12.0985  -18.4052   25.1836 C   0  0  0  0  0  0  0  0  0  0  0  0
   11.8168  -17.7541   26.3749 O   0  0  0  0  0  0  0  0  0  0  0  0
   12.1666  -19.6595   25.2291 O   0  0  0  0  0  0  0  0  0  0  0  0
  1  2  1  0
  1  5  1  0
  3  4  1  0
  3  2  1  0
  4  5  1  0
  6  7  2  0
  5  6  1  1
  8  6  1  0
  9 12  1  0
  9  8  1  0
  9 10  1  1
 11 10  1  0
 12 20  1  0
 13 12  2  0
 15 14  1  0
 15 16  2  0
 17 15  1  0
 18 17  1  0
 19 18  1  1
 20 19  1  0
 21 22  1  0
 21 19  1  0
 23 21  2  0
M  END
$$$$
