PCQ.pdb
     RDKit          3D

 23 23  0  0  1  0  0  0  0  0999 V2000
    7.4258  -14.9668   20.2483 N   0  0  0  0  0  0  0  0  0  0  0  0
    6.5625  -14.3580   19.2861 C   0  0  0  0  0  0  0  0  0  0  0  0
    7.4764  -13.4524   18.4903 C   0  0  0  0  0  0  0  0  0  0  0  0
    8.3619  -12.8878   19.6095 C   0  0  0  0  0  0  0  0  0  0  0  0
    8.5632  -14.1208   20.4559 C   0  0  1  0  0  0  0  0  0  0  0  0
    8.6812  -13.8147   21.8970 C   0  0  0  0  0  0  0  0  0  0  0  0
    9.7149  -13.2460   22.3289 O   0  0  0  0  0  0  0  0  0  0  0  0
    7.6576  -14.1426   22.8258 N   0  0  0  0  0  0  0  0  0  0  0  0
    7.7275  -13.8213   24.2265 C   0  0  1  0  0  0  0  0  0  0  0  0
    6.3752  -13.7243   24.8793 C   0  0  0  0  0  0  0  0  0  0  0  0
    6.4229  -13.0550   26.5383 S   0  0  0  0  0  0  0  0  0  0  0  0
    8.6316  -14.7757   24.9440 C   0  0  0  0  0  0  0  0  0  0  0  0
    8.6829  -15.9978   24.6311 O   0  0  0  0  0  0  0  0  0  0  0  0
   11.2699  -17.3021   30.1205 N   0  0  0  0  0  0  0  0  0  0  0  0
   11.1054  -15.9109   29.9543 C   0  0  0  0  0  0  0  0  0  0  0  0
   10.3563  -15.3070   30.7955 O   0  0  0  0  0  0  0  0  0  0  0  0
   11.7530  -15.1639   28.8857 C   0  0  0  0  0  0  0  0  0  0  0  0
   10.9070  -14.4742   27.9032 C   0  0  0  0  0  0  0  0  0  0  0  0
   10.3398  -15.2555   26.7553 C   0  0  2  0  0  0  0  0  0  0  0  0
    9.4505  -14.3257   25.9918 N   0  0  0  0  0  0  0  0  0  0  0  0
    9.5334  -16.3857   27.1680 C   0  0  0  0  0  0  0  0  0  0  0  0
   10.0513  -17.6713   27.2038 O   0  0  0  0  0  0  0  0  0  0  0  0
    8.3292  -16.2535   27.5033 O   0  0  0  0  0  0  0  0  0  0  0  0
  1  2  1  0
  1  5  1  0
  3  4  1  0
  3  2  1  0
  4  5  1  0
  6  7  2  0
  5  6  1  1
  8  6  1  0
  9 12  1  0
  9  8  1  0
  9 10  1  1
 11 10  1  0
 12 20  1  0
 13 12  2  0
 15 14  1  0
 15 16  2  0
 17 15  1  0
 18 17  1  0
 19 18  1  1
 20 19  1  0
 21 22  1  0
 21 19  1  0
 23 21  2  0
M  END
$$$$
