PCQ.pdb
     RDKit          3D

 23 23  0  0  1  0  0  0  0  0999 V2000
    5.9163  -18.6473   18.4276 N   0  0  0  0  0  0  0  0  0  0  0  0
    5.9891  -20.0740   18.4535 C   0  0  0  0  0  0  0  0  0  0  0  0
    5.3541  -20.4527   19.7733 C   0  0  0  0  0  0  0  0  0  0  0  0
    5.9219  -19.3575   20.6864 C   0  0  0  0  0  0  0  0  0  0  0  0
    5.8375  -18.1597   19.7724 C   0  0  1  0  0  0  0  0  0  0  0  0
    6.9274  -17.1874   19.9986 C   0  0  0  0  0  0  0  0  0  0  0  0
    8.0039  -17.5709   20.5206 O   0  0  0  0  0  0  0  0  0  0  0  0
    6.8039  -15.8174   19.6441 N   0  0  0  0  0  0  0  0  0  0  0  0
    7.7717  -14.8160   20.0058 C   0  0  1  0  0  0  0  0  0  0  0  0
    7.3612  -13.4248   19.6057 C   0  0  0  0  0  0  0  0  0  0  0  0
    8.5672  -12.1702   20.0228 S   0  0  0  0  0  0  0  0  0  0  0  0
    8.1080  -14.9066   21.4624 C   0  0  0  0  0  0  0  0  0  0  0  0
    7.2333  -14.7225   22.3541 O   0  0  0  0  0  0  0  0  0  0  0  0
    7.5020  -18.7894   24.8692 N   0  0  0  0  0  0  0  0  0  0  0  0
    7.2656  -17.4830   25.3460 C   0  0  0  0  0  0  0  0  0  0  0  0
    6.3487  -17.3394   26.2248 O   0  0  0  0  0  0  0  0  0  0  0  0
    8.0207  -16.3275   24.8833 C   0  0  0  0  0  0  0  0  0  0  0  0
    9.0385  -16.5285   23.8439 C   0  0  0  0  0  0  0  0  0  0  0  0
    9.7837  -15.3390   23.3154 C   0  0  2  0  0  0  0  0  0  0  0  0
    9.4182  -15.2015   21.8712 N   0  0  0  0  0  0  0  0  0  0  0  0
   11.2234  -15.4808   23.3867 C   0  0  0  0  0  0  0  0  0  0  0  0
   11.9087  -15.3275   24.5822 O   0  0  0  0  0  0  0  0  0  0  0  0
   11.9151  -15.7403   22.3697 O   0  0  0  0  0  0  0  0  0  0  0  0
  1  2  1  0
  1  5  1  0
  3  4  1  0
  3  2  1  0
  4  5  1  0
  6  7  2  0
  5  6  1  1
  8  6  1  0
  9 12  1  0
  9  8  1  0
  9 10  1  1
 11 10  1  0
 12 20  1  0
 13 12  2  0
 15 14  1  0
 15 16  2  0
 17 15  1  0
 18 17  1  0
 19 18  1  6
 20 19  1  0
 21 22  1  0
 21 19  1  0
 23 21  2  0
M  END
$$$$
