PCQ.pdb
     RDKit          3D

 23 23  0  0  1  0  0  0  0  0999 V2000
    9.0268  -14.9099   18.3387 N   0  0  0  0  0  0  0  0  0  0  0  0
    8.2877  -14.6217   17.1503 C   0  0  0  0  0  0  0  0  0  0  0  0
    7.9730  -13.1460   17.2595 C   0  0  0  0  0  0  0  0  0  0  0  0
    7.6395  -13.0364   18.7536 C   0  0  0  0  0  0  0  0  0  0  0  0
    8.6915  -13.9441   19.3424 C   0  0  1  0  0  0  0  0  0  0  0  0
    8.2273  -14.6491   20.5556 C   0  0  0  0  0  0  0  0  0  0  0  0
    7.7799  -13.9879   21.5257 O   0  0  0  0  0  0  0  0  0  0  0  0
    8.2678  -16.0644   20.6696 N   0  0  0  0  0  0  0  0  0  0  0  0
    7.7808  -16.7800   21.8189 C   0  0  1  0  0  0  0  0  0  0  0  0
    7.8328  -18.2745   21.6510 C   0  0  0  0  0  0  0  0  0  0  0  0
    7.4361  -19.1809   23.1421 S   0  0  0  0  0  0  0  0  0  0  0  0
    8.4850  -16.3285   23.0611 C   0  0  0  0  0  0  0  0  0  0  0  0
    9.7447  -16.2672   23.1202 O   0  0  0  0  0  0  0  0  0  0  0  0
    5.4410  -12.0328   26.4579 N   0  0  0  0  0  0  0  0  0  0  0  0
    6.6304  -12.2276   27.1908 C   0  0  0  0  0  0  0  0  0  0  0  0
    6.8276  -11.4648   28.1972 O   0  0  0  0  0  0  0  0  0  0  0  0
    7.6085  -13.2496   26.8469 C   0  0  0  0  0  0  0  0  0  0  0  0
    7.3286  -14.1281   25.7038 C   0  0  0  0  0  0  0  0  0  0  0  0
    8.3535  -15.1461   25.3002 C   0  0  2  0  0  0  0  0  0  0  0  0
    7.7503  -15.9596   24.1991 N   0  0  0  0  0  0  0  0  0  0  0  0
    8.7129  -16.0583   26.3664 C   0  0  0  0  0  0  0  0  0  0  0  0
    8.0464  -17.2605   26.5473 O   0  0  0  0  0  0  0  0  0  0  0  0
    9.6367  -15.7981   27.1781 O   0  0  0  0  0  0  0  0  0  0  0  0
  1  2  1  0
  1  5  1  0
  3  4  1  0
  3  2  1  0
  4  5  1  0
  6  7  2  0
  5  6  1  1
  8  6  1  0
  9 12  1  0
  9  8  1  0
  9 10  1  6
 11 10  1  0
 12 20  1  0
 13 12  2  0
 15 14  1  0
 15 16  2  0
 17 15  1  0
 18 17  1  0
 19 18  1  1
 20 19  1  0
 21 22  1  0
 21 19  1  0
 23 21  2  0
M  END
$$$$
