PCQ.pdb
     RDKit          3D

 23 23  0  0  1  0  0  0  0  0999 V2000
    7.1510  -14.6736   20.6898 N   0  0  0  0  0  0  0  0  0  0  0  0
    6.5140  -13.7972   19.7583 C   0  0  0  0  0  0  0  0  0  0  0  0
    7.6503  -13.2705   18.9097 C   0  0  0  0  0  0  0  0  0  0  0  0
    8.7293  -13.0573   19.9802 C   0  0  0  0  0  0  0  0  0  0  0  0
    8.5221  -14.2839   20.8345 C   0  0  1  0  0  0  0  0  0  0  0  0
    8.8076  -14.0423   22.2643 C   0  0  0  0  0  0  0  0  0  0  0  0
    9.9925  -13.8574   22.6389 O   0  0  0  0  0  0  0  0  0  0  0  0
    7.7807  -14.0105   23.2454 N   0  0  0  0  0  0  0  0  0  0  0  0
    8.0269  -13.7603   24.6407 C   0  0  1  0  0  0  0  0  0  0  0  0
    6.9438  -12.9468   25.2959 C   0  0  0  0  0  0  0  0  0  0  0  0
    7.2568  -12.5872   27.0208 S   0  0  0  0  0  0  0  0  0  0  0  0
    8.2874  -15.0420   25.3704 C   0  0  0  0  0  0  0  0  0  0  0  0
    7.4218  -15.9597   25.4217 O   0  0  0  0  0  0  0  0  0  0  0  0
   12.0355  -20.4133   25.3437 N   0  0  0  0  0  0  0  0  0  0  0  0
   11.1973  -19.6818   26.2112 C   0  0  0  0  0  0  0  0  0  0  0  0
   10.0895  -20.2236   26.5468 O   0  0  0  0  0  0  0  0  0  0  0  0
   11.5527  -18.3673   26.7260 C   0  0  0  0  0  0  0  0  0  0  0  0
   10.9476  -17.1847   26.0999 C   0  0  0  0  0  0  0  0  0  0  0  0
    9.7990  -16.5057   26.7851 C   0  0  2  0  0  0  0  0  0  0  0  0
    9.5140  -15.2520   26.0201 N   0  0  0  0  0  0  0  0  0  0  0  0
   10.0861  -16.1236   28.1524 C   0  0  0  0  0  0  0  0  0  0  0  0
   10.2248  -14.7938   28.5196 O   0  0  0  0  0  0  0  0  0  0  0  0
   10.2302  -16.9779   29.0631 O   0  0  0  0  0  0  0  0  0  0  0  0
  1  2  1  0
  1  5  1  0
  3  4  1  0
  3  2  1  0
  4  5  1  0
  6  7  2  0
  5  6  1  1
  8  6  1  0
  9 12  1  0
  9  8  1  0
  9 10  1  1
 11 10  1  0
 12 20  1  0
 13 12  2  0
 15 14  1  0
 15 16  2  0
 17 15  1  0
 18 17  1  0
 19 18  1  6
 20 19  1  0
 21 22  1  0
 21 19  1  0
 23 21  2  0
M  END
$$$$
