PCQ.pdb
     RDKit          3D

 23 23  0  0  1  0  0  0  0  0999 V2000
    8.1950  -13.9288   17.7466 N   0  0  0  0  0  0  0  0  0  0  0  0
    6.9349  -13.3625   18.1114 C   0  0  0  0  0  0  0  0  0  0  0  0
    7.3005  -12.1309   18.9102 C   0  0  0  0  0  0  0  0  0  0  0  0
    8.4860  -12.6633   19.7267 C   0  0  0  0  0  0  0  0  0  0  0  0
    9.1882  -13.5014   18.6865 C   0  0  1  0  0  0  0  0  0  0  0  0
    9.8535  -14.6897   19.2605 C   0  0  0  0  0  0  0  0  0  0  0  0
    9.2261  -15.4274   20.0609 O   0  0  0  0  0  0  0  0  0  0  0  0
   11.1932  -15.0355   18.9384 N   0  0  0  0  0  0  0  0  0  0  0  0
   11.8784  -16.1642   19.5098 C   0  0  1  0  0  0  0  0  0  0  0  0
   12.8095  -16.8429   18.5421 C   0  0  0  0  0  0  0  0  0  0  0  0
   13.5694  -18.3262   19.1939 S   0  0  0  0  0  0  0  0  0  0  0  0
   12.5716  -15.7755   20.7792 C   0  0  0  0  0  0  0  0  0  0  0  0
   13.2050  -14.6878   20.8786 O   0  0  0  0  0  0  0  0  0  0  0  0
   11.8370  -19.0753   26.2832 N   0  0  0  0  0  0  0  0  0  0  0  0
   12.7833  -18.0718   26.5789 C   0  0  0  0  0  0  0  0  0  0  0  0
   13.2635  -18.0530   27.7632 O   0  0  0  0  0  0  0  0  0  0  0  0
   13.2212  -17.0892   25.5980 C   0  0  0  0  0  0  0  0  0  0  0  0
   12.6646  -17.1607   24.2409 C   0  0  0  0  0  0  0  0  0  0  0  0
   13.2476  -16.2892   23.1683 C   0  0  2  0  0  0  0  0  0  0  0  0
   12.5311  -16.6225   21.8980 N   0  0  0  0  0  0  0  0  0  0  0  0
   14.6599  -16.5177   22.9424 C   0  0  0  0  0  0  0  0  0  0  0  0
   15.1069  -17.5531   22.1358 O   0  0  0  0  0  0  0  0  0  0  0  0
   15.5414  -15.7949   23.4722 O   0  0  0  0  0  0  0  0  0  0  0  0
  1  2  1  0
  1  5  1  0
  3  4  1  0
  3  2  1  0
  4  5  1  0
  6  7  2  0
  5  6  1  1
  8  6  1  0
  9 12  1  0
  9  8  1  0
  9 10  1  6
 11 10  1  0
 12 20  1  0
 13 12  2  0
 15 14  1  0
 15 16  2  0
 17 15  1  0
 18 17  1  0
 19 18  1  1
 20 19  1  0
 21 22  1  0
 21 19  1  0
 23 21  2  0
M  END
$$$$
