PCQ.pdb
     RDKit          3D

 23 23  0  0  1  0  0  0  0  0999 V2000
    7.2112  -14.9384   20.9484 N   0  0  0  0  0  0  0  0  0  0  0  0
    6.3769  -14.2835   19.9910 C   0  0  0  0  0  0  0  0  0  0  0  0
    7.3469  -13.5206   19.1159 C   0  0  0  0  0  0  0  0  0  0  0  0
    8.3362  -13.0056   20.1703 C   0  0  0  0  0  0  0  0  0  0  0  0
    8.4409  -14.2133   21.0692 C   0  0  1  0  0  0  0  0  0  0  0  0
    8.6542  -13.8563   22.4874 C   0  0  0  0  0  0  0  0  0  0  0  0
    9.7770  -13.4329   22.8596 O   0  0  0  0  0  0  0  0  0  0  0  0
    7.6254  -13.9746   23.4597 N   0  0  0  0  0  0  0  0  0  0  0  0
    7.8027  -13.6301   24.8454 C   0  0  1  0  0  0  0  0  0  0  0  0
    6.6055  -12.9402   25.4412 C   0  0  0  0  0  0  0  0  0  0  0  0
    6.7376  -12.6633   27.2043 S   0  0  0  0  0  0  0  0  0  0  0  0
    8.2142  -14.8304   25.6408 C   0  0  0  0  0  0  0  0  0  0  0  0
    7.4016  -15.7620   25.8977 O   0  0  0  0  0  0  0  0  0  0  0  0
   11.8938  -18.1434   23.1495 N   0  0  0  0  0  0  0  0  0  0  0  0
   12.3425  -17.4753   24.3080 C   0  0  0  0  0  0  0  0  0  0  0  0
   13.4779  -17.8238   24.7801 O   0  0  0  0  0  0  0  0  0  0  0  0
   11.5731  -16.4242   24.9582 C   0  0  0  0  0  0  0  0  0  0  0  0
   11.3120  -16.5387   26.3989 C   0  0  0  0  0  0  0  0  0  0  0  0
    9.9724  -16.1240   26.9309 C   0  0  2  0  0  0  0  0  0  0  0  0
    9.5276  -14.9460   26.1230 N   0  0  0  0  0  0  0  0  0  0  0  0
   10.0046  -15.7107   28.3187 C   0  0  0  0  0  0  0  0  0  0  0  0
    9.7696  -14.3954   28.6891 O   0  0  0  0  0  0  0  0  0  0  0  0
   10.2546  -16.5215   29.2462 O   0  0  0  0  0  0  0  0  0  0  0  0
  1  2  1  0
  1  5  1  0
  3  4  1  0
  3  2  1  0
  4  5  1  0
  6  7  2  0
  5  6  1  1
  8  6  1  0
  9 12  1  0
  9  8  1  0
  9 10  1  1
 11 10  1  0
 12 20  1  0
 13 12  2  0
 15 14  1  0
 15 16  2  0
 17 15  1  0
 18 17  1  0
 19 18  1  6
 20 19  1  0
 21 22  1  0
 21 19  1  0
 23 21  2  0
M  END
$$$$
