PCQ.pdb
     RDKit          3D

 23 23  0  0  1  0  0  0  0  0999 V2000
    6.8796  -14.4705   21.1331 N   0  0  0  0  0  0  0  0  0  0  0  0
    6.3363  -13.3934   20.3673 C   0  0  0  0  0  0  0  0  0  0  0  0
    7.5083  -12.8904   19.5537 C   0  0  0  0  0  0  0  0  0  0  0  0
    8.6333  -12.9734   20.5943 C   0  0  0  0  0  0  0  0  0  0  0  0
    8.2927  -14.2786   21.2710 C   0  0  1  0  0  0  0  0  0  0  0  0
    8.6441  -14.2895   22.7065 C   0  0  0  0  0  0  0  0  0  0  0  0
    9.8523  -14.3132   23.0504 O   0  0  0  0  0  0  0  0  0  0  0  0
    7.6559  -14.2742   23.7268 N   0  0  0  0  0  0  0  0  0  0  0  0
    7.9681  -14.2946   25.1312 C   0  0  1  0  0  0  0  0  0  0  0  0
    6.8478  -13.7796   25.9938 C   0  0  0  0  0  0  0  0  0  0  0  0
    6.3262  -12.1184   25.5806 S   0  0  0  0  0  0  0  0  0  0  0  0
    8.4218  -15.6582   25.5529 C   0  0  0  0  0  0  0  0  0  0  0  0
    7.7400  -16.6892   25.2956 O   0  0  0  0  0  0  0  0  0  0  0  0
   11.8986  -19.4288   23.6844 N   0  0  0  0  0  0  0  0  0  0  0  0
   12.3689  -19.6220   25.0003 C   0  0  0  0  0  0  0  0  0  0  0  0
   13.0483  -20.6803   25.2278 O   0  0  0  0  0  0  0  0  0  0  0  0
   12.1152  -18.6724   26.0742 C   0  0  0  0  0  0  0  0  0  0  0  0
   11.3026  -17.4852   25.7797 C   0  0  0  0  0  0  0  0  0  0  0  0
   10.1306  -17.1686   26.6607 C   0  0  2  0  0  0  0  0  0  0  0  0
    9.6288  -15.8200   26.2512 N   0  0  0  0  0  0  0  0  0  0  0  0
   10.4680  -17.0970   28.0674 C   0  0  0  0  0  0  0  0  0  0  0  0
   10.6745  -18.2413   28.8226 O   0  0  0  0  0  0  0  0  0  0  0  0
   10.5803  -15.9980   28.6671 O   0  0  0  0  0  0  0  0  0  0  0  0
  1  2  1  0
  1  5  1  0
  3  4  1  0
  3  2  1  0
  4  5  1  0
  6  7  2  0
  5  6  1  1
  8  6  1  0
  9 12  1  0
  9  8  1  0
  9 10  1  1
 11 10  1  0
 12 20  1  0
 13 12  2  0
 15 14  1  0
 15 16  2  0
 17 15  1  0
 18 17  1  0
 19 18  1  6
 20 19  1  0
 21 22  1  0
 21 19  1  0
 23 21  2  0
M  END
$$$$
