PCQ.pdb
     RDKit          3D

 23 23  0  0  1  0  0  0  0  0999 V2000
    8.1340  -15.1379   20.4940 N   0  0  0  0  0  0  0  0  0  0  0  0
    7.7227  -16.2500   19.6967 C   0  0  0  0  0  0  0  0  0  0  0  0
    6.2332  -16.3497   19.9418 C   0  0  0  0  0  0  0  0  0  0  0  0
    6.1730  -16.0606   21.4479 C   0  0  0  0  0  0  0  0  0  0  0  0
    7.1964  -14.9575   21.5622 C   0  0  1  0  0  0  0  0  0  0  0  0
    7.9211  -14.9781   22.8501 C   0  0  0  0  0  0  0  0  0  0  0  0
    9.0147  -15.5903   22.9381 O   0  0  0  0  0  0  0  0  0  0  0  0
    7.4228  -14.3241   24.0084 N   0  0  0  0  0  0  0  0  0  0  0  0
    8.0966  -14.3434   25.2796 C   0  0  1  0  0  0  0  0  0  0  0  0
    7.6714  -13.2246   26.1915 C   0  0  0  0  0  0  0  0  0  0  0  0
    8.5268  -13.2122   27.7633 S   0  0  0  0  0  0  0  0  0  0  0  0
    7.9579  -15.6845   25.9318 C   0  0  0  0  0  0  0  0  0  0  0  0
    6.8250  -16.1872   26.1723 O   0  0  0  0  0  0  0  0  0  0  0  0
    6.3271  -18.7471   24.2779 N   0  0  0  0  0  0  0  0  0  0  0  0
    7.3254  -19.4094   25.0226 C   0  0  0  0  0  0  0  0  0  0  0  0
    6.9493  -20.3665   25.7815 O   0  0  0  0  0  0  0  0  0  0  0  0
    8.7336  -19.0478   24.9473 C   0  0  0  0  0  0  0  0  0  0  0  0
    9.4588  -18.7976   26.1996 C   0  0  0  0  0  0  0  0  0  0  0  0
    9.0057  -17.6806   27.0922 C   0  0  2  0  0  0  0  0  0  0  0  0
    9.0983  -16.4189   26.2936 N   0  0  0  0  0  0  0  0  0  0  0  0
    9.8322  -17.5103   28.2694 C   0  0  0  0  0  0  0  0  0  0  0  0
    9.9314  -18.5003   29.2350 O   0  0  0  0  0  0  0  0  0  0  0  0
   10.4882  -16.4574   28.4721 O   0  0  0  0  0  0  0  0  0  0  0  0
  1  2  1  0
  1  5  1  0
  3  4  1  0
  3  2  1  0
  4  5  1  0
  6  7  2  0
  5  6  1  1
  8  6  1  0
  9 12  1  0
  9  8  1  0
  9 10  1  1
 11 10  1  0
 12 20  1  0
 13 12  2  0
 15 14  1  0
 15 16  2  0
 17 15  1  0
 18 17  1  0
 19 18  1  6
 20 19  1  0
 21 22  1  0
 21 19  1  0
 23 21  2  0
M  END
$$$$
