PCQ.pdb
     RDKit          3D

 23 23  0  0  1  0  0  0  0  0999 V2000
    7.1955  -14.5176   20.8416 N   0  0  0  0  0  0  0  0  0  0  0  0
    6.7751  -13.4807   19.9529 C   0  0  0  0  0  0  0  0  0  0  0  0
    8.0339  -13.1032   19.2035 C   0  0  0  0  0  0  0  0  0  0  0  0
    9.0666  -13.1567   20.3376 C   0  0  0  0  0  0  0  0  0  0  0  0
    8.6017  -14.3845   21.0817 C   0  0  1  0  0  0  0  0  0  0  0  0
    8.8371  -14.2964   22.5380 C   0  0  0  0  0  0  0  0  0  0  0  0
   10.0056  -14.4065   22.9865 O   0  0  0  0  0  0  0  0  0  0  0  0
    7.7796  -14.0893   23.4636 N   0  0  0  0  0  0  0  0  0  0  0  0
    7.9577  -14.1306   24.8908 C   0  0  1  0  0  0  0  0  0  0  0  0
    6.9917  -13.2475   25.6332 C   0  0  0  0  0  0  0  0  0  0  0  0
    5.3198  -13.8843   25.6746 S   0  0  0  0  0  0  0  0  0  0  0  0
    7.9249  -15.5431   25.3876 C   0  0  0  0  0  0  0  0  0  0  0  0
    7.1300  -16.3952   24.9016 O   0  0  0  0  0  0  0  0  0  0  0  0
   11.3583  -18.6222   22.9157 N   0  0  0  0  0  0  0  0  0  0  0  0
   11.6231  -19.2317   24.1600 C   0  0  0  0  0  0  0  0  0  0  0  0
   12.5134  -20.1483   24.1833 O   0  0  0  0  0  0  0  0  0  0  0  0
   10.9349  -18.8512   25.3852 C   0  0  0  0  0  0  0  0  0  0  0  0
    9.9643  -17.7506   25.3285 C   0  0  0  0  0  0  0  0  0  0  0  0
    9.2102  -17.3805   26.5711 C   0  0  2  0  0  0  0  0  0  0  0  0
    8.7875  -15.9537   26.4162 N   0  0  0  0  0  0  0  0  0  0  0  0
   10.0065  -17.4682   27.7779 C   0  0  0  0  0  0  0  0  0  0  0  0
   10.3341  -18.6912   28.3430 O   0  0  0  0  0  0  0  0  0  0  0  0
   10.4282  -16.4426   28.3698 O   0  0  0  0  0  0  0  0  0  0  0  0
  1  2  1  0
  1  5  1  0
  3  4  1  0
  3  2  1  0
  4  5  1  0
  6  7  2  0
  5  6  1  1
  8  6  1  0
  9 12  1  0
  9  8  1  0
  9 10  1  1
 11 10  1  0
 12 20  1  0
 13 12  2  0
 15 14  1  0
 15 16  2  0
 17 15  1  0
 18 17  1  0
 19 18  1  6
 20 19  1  0
 21 22  1  0
 21 19  1  0
 23 21  2  0
M  END
$$$$
