PCQ.pdb
     RDKit          3D

 23 23  0  0  1  0  0  0  0  0999 V2000
    7.3295  -15.1598   19.8300 N   0  0  0  0  0  0  0  0  0  0  0  0
    6.3291  -14.2865   19.3026 C   0  0  0  0  0  0  0  0  0  0  0  0
    7.1070  -13.2989   18.4611 C   0  0  0  0  0  0  0  0  0  0  0  0
    8.3338  -13.0689   19.3542 C   0  0  0  0  0  0  0  0  0  0  0  0
    8.5860  -14.4718   19.8497 C   0  0  1  0  0  0  0  0  0  0  0  0
    9.1344  -14.5060   21.2217 C   0  0  0  0  0  0  0  0  0  0  0  0
   10.2706  -14.0205   21.4491 O   0  0  0  0  0  0  0  0  0  0  0  0
    8.4173  -15.0740   22.3084 N   0  0  0  0  0  0  0  0  0  0  0  0
    8.9066  -15.0820   23.6615 C   0  0  1  0  0  0  0  0  0  0  0  0
    7.8079  -15.1481   24.6874 C   0  0  0  0  0  0  0  0  0  0  0  0
    6.7565  -16.5871   24.5247 S   0  0  0  0  0  0  0  0  0  0  0  0
    9.9201  -16.1682   23.8515 C   0  0  0  0  0  0  0  0  0  0  0  0
    9.7454  -17.3243   23.3750 O   0  0  0  0  0  0  0  0  0  0  0  0
   15.8387  -16.0705   23.0723 N   0  0  0  0  0  0  0  0  0  0  0  0
   15.8296  -16.9253   24.1944 C   0  0  0  0  0  0  0  0  0  0  0  0
   16.8890  -17.6038   24.4200 O   0  0  0  0  0  0  0  0  0  0  0  0
   14.6820  -17.0470   25.0820 C   0  0  0  0  0  0  0  0  0  0  0  0
   13.4724  -16.2749   24.7699 C   0  0  0  0  0  0  0  0  0  0  0  0
   12.1449  -16.9731   24.7630 C   0  0  2  0  0  0  0  0  0  0  0  0
   11.0993  -15.9204   24.5718 N   0  0  0  0  0  0  0  0  0  0  0  0
   11.8470  -17.6601   26.0029 C   0  0  0  0  0  0  0  0  0  0  0  0
   12.3334  -18.9323   26.2618 O   0  0  0  0  0  0  0  0  0  0  0  0
   11.1295  -17.1387   26.8937 O   0  0  0  0  0  0  0  0  0  0  0  0
  1  2  1  0
  1  5  1  0
  3  4  1  0
  3  2  1  0
  4  5  1  0
  6  7  2  0
  5  6  1  1
  8  6  1  0
  9 12  1  0
  9  8  1  0
  9 10  1  1
 11 10  1  0
 12 20  1  0
 13 12  2  0
 15 14  1  0
 15 16  2  0
 17 15  1  0
 18 17  1  0
 19 18  1  1
 20 19  1  0
 21 22  1  0
 21 19  1  0
 23 21  2  0
M  END
$$$$
