PCQ.pdb
     RDKit          3D

 23 23  0  0  1  0  0  0  0  0999 V2000
    6.9474  -14.5936   20.7033 N   0  0  0  0  0  0  0  0  0  0  0  0
    6.3150  -13.6297   19.8591 C   0  0  0  0  0  0  0  0  0  0  0  0
    7.4447  -13.0774   19.0180 C   0  0  0  0  0  0  0  0  0  0  0  0
    8.5596  -12.9798   20.0683 C   0  0  0  0  0  0  0  0  0  0  0  0
    8.3344  -14.2599   20.8351 C   0  0  1  0  0  0  0  0  0  0  0  0
    8.6675  -14.1358   22.2696 C   0  0  0  0  0  0  0  0  0  0  0  0
    9.8707  -14.0666   22.6245 O   0  0  0  0  0  0  0  0  0  0  0  0
    7.6669  -14.0909   23.2769 N   0  0  0  0  0  0  0  0  0  0  0  0
    7.9609  -13.9560   24.6789 C   0  0  1  0  0  0  0  0  0  0  0  0
    6.9296  -13.1535   25.4250 C   0  0  0  0  0  0  0  0  0  0  0  0
    7.2761  -12.9828   27.1724 S   0  0  0  0  0  0  0  0  0  0  0  0
    8.1894  -15.2980   25.3033 C   0  0  0  0  0  0  0  0  0  0  0  0
    7.4004  -16.2628   25.1010 O   0  0  0  0  0  0  0  0  0  0  0  0
   11.4648  -19.3211   23.3029 N   0  0  0  0  0  0  0  0  0  0  0  0
   11.8641  -19.4316   24.6514 C   0  0  0  0  0  0  0  0  0  0  0  0
   12.9239  -20.1038   24.8932 O   0  0  0  0  0  0  0  0  0  0  0  0
   11.1274  -18.8122   25.7437 C   0  0  0  0  0  0  0  0  0  0  0  0
   10.5300  -17.4891   25.5218 C   0  0  0  0  0  0  0  0  0  0  0  0
    9.6840  -16.8822   26.6014 C   0  0  2  0  0  0  0  0  0  0  0  0
    9.2987  -15.5135   26.1362 N   0  0  0  0  0  0  0  0  0  0  0  0
   10.3785  -16.7317   27.8636 C   0  0  0  0  0  0  0  0  0  0  0  0
   10.5333  -17.7969   28.7374 O   0  0  0  0  0  0  0  0  0  0  0  0
   10.8633  -15.6300   28.2261 O   0  0  0  0  0  0  0  0  0  0  0  0
  1  2  1  0
  1  5  1  0
  3  4  1  0
  3  2  1  0
  4  5  1  0
  6  7  2  0
  5  6  1  1
  8  6  1  0
  9 12  1  0
  9  8  1  0
  9 10  1  1
 11 10  1  0
 12 20  1  0
 13 12  2  0
 15 14  1  0
 15 16  2  0
 17 15  1  0
 18 17  1  0
 19 18  1  6
 20 19  1  0
 21 22  1  0
 21 19  1  0
 23 21  2  0
M  END
$$$$
