PCQ.pdb
     RDKit          3D

 23 23  0  0  1  0  0  0  0  0999 V2000
    7.2148  -15.1104   19.8637 N   0  0  0  0  0  0  0  0  0  0  0  0
    6.2819  -14.1590   19.3477 C   0  0  0  0  0  0  0  0  0  0  0  0
    7.1385  -13.1889   18.5643 C   0  0  0  0  0  0  0  0  0  0  0  0
    8.3534  -13.0673   19.4944 C   0  0  0  0  0  0  0  0  0  0  0  0
    8.5090  -14.5007   19.9400 C   0  0  1  0  0  0  0  0  0  0  0  0
    9.0187  -14.6198   21.3221 C   0  0  0  0  0  0  0  0  0  0  0  0
   10.2108  -14.3131   21.5735 O   0  0  0  0  0  0  0  0  0  0  0  0
    8.2024  -15.0738   22.3924 N   0  0  0  0  0  0  0  0  0  0  0  0
    8.6427  -15.1134   23.7616 C   0  0  1  0  0  0  0  0  0  0  0  0
    7.5099  -15.0417   24.7495 C   0  0  0  0  0  0  0  0  0  0  0  0
    6.7440  -13.4274   24.8508 S   0  0  0  0  0  0  0  0  0  0  0  0
    9.5231  -16.3012   24.0004 C   0  0  0  0  0  0  0  0  0  0  0  0
    9.1714  -17.4634   23.6544 O   0  0  0  0  0  0  0  0  0  0  0  0
   15.7551  -15.7430   23.7104 N   0  0  0  0  0  0  0  0  0  0  0  0
   15.5782  -17.0555   24.1962 C   0  0  0  0  0  0  0  0  0  0  0  0
   16.6282  -17.7681   24.3484 O   0  0  0  0  0  0  0  0  0  0  0  0
   14.2703  -17.6029   24.5267 C   0  0  0  0  0  0  0  0  0  0  0  0
   13.0923  -16.7397   24.3725 C   0  0  0  0  0  0  0  0  0  0  0  0
   11.7421  -17.2779   24.7426 C   0  0  2  0  0  0  0  0  0  0  0  0
   10.7725  -16.1451   24.6212 N   0  0  0  0  0  0  0  0  0  0  0  0
   11.6686  -17.7675   26.1038 C   0  0  0  0  0  0  0  0  0  0  0  0
   11.9847  -19.0799   26.4203 O   0  0  0  0  0  0  0  0  0  0  0  0
   11.3082  -17.0293   27.0552 O   0  0  0  0  0  0  0  0  0  0  0  0
  1  2  1  0
  1  5  1  0
  3  4  1  0
  3  2  1  0
  4  5  1  0
  6  7  2  0
  5  6  1  1
  8  6  1  0
  9 12  1  0
  9  8  1  0
  9 10  1  1
 11 10  1  0
 12 20  1  0
 13 12  2  0
 15 14  1  0
 15 16  2  0
 17 15  1  0
 18 17  1  0
 19 18  1  1
 20 19  1  0
 21 22  1  0
 21 19  1  0
 23 21  2  0
M  END
$$$$
