PCQ.pdb
     RDKit          3D

 23 23  0  0  1  0  0  0  0  0999 V2000
    7.8152  -14.8986   18.9406 N   0  0  0  0  0  0  0  0  0  0  0  0
    6.8027  -14.0831   18.3478 C   0  0  0  0  0  0  0  0  0  0  0  0
    7.5653  -12.9166   17.7592 C   0  0  0  0  0  0  0  0  0  0  0  0
    8.5989  -12.6655   18.8656 C   0  0  0  0  0  0  0  0  0  0  0  0
    8.9528  -14.0826   19.2447 C   0  0  1  0  0  0  0  0  0  0  0  0
    9.2826  -14.2279   20.6780 C   0  0  0  0  0  0  0  0  0  0  0  0
   10.3419  -13.7226   21.1263 O   0  0  0  0  0  0  0  0  0  0  0  0
    8.4372  -14.9260   21.5812 N   0  0  0  0  0  0  0  0  0  0  0  0
    8.7102  -15.0456   22.9889 C   0  0  1  0  0  0  0  0  0  0  0  0
    7.4645  -15.0774   23.8324 C   0  0  0  0  0  0  0  0  0  0  0  0
    7.7842  -15.2814   25.5813 S   0  0  0  0  0  0  0  0  0  0  0  0
    9.6017  -16.2188   23.2573 C   0  0  0  0  0  0  0  0  0  0  0  0
    9.3747  -17.3506   22.7459 O   0  0  0  0  0  0  0  0  0  0  0  0
   15.4272  -15.3277   22.3262 N   0  0  0  0  0  0  0  0  0  0  0  0
   15.4648  -16.6010   22.9321 C   0  0  0  0  0  0  0  0  0  0  0  0
   16.5925  -17.2017   22.9588 O   0  0  0  0  0  0  0  0  0  0  0  0
   14.2892  -17.2289   23.5179 C   0  0  0  0  0  0  0  0  0  0  0  0
   13.0245  -16.4824   23.5167 C   0  0  0  0  0  0  0  0  0  0  0  0
   11.8087  -17.1094   24.1317 C   0  0  2  0  0  0  0  0  0  0  0  0
   10.7214  -16.0825   24.0931 N   0  0  0  0  0  0  0  0  0  0  0  0
   11.9940  -17.4929   25.5161 C   0  0  0  0  0  0  0  0  0  0  0  0
   11.4772  -16.7329   26.5542 O   0  0  0  0  0  0  0  0  0  0  0  0
   12.6366  -18.5241   25.8380 O   0  0  0  0  0  0  0  0  0  0  0  0
  1  2  1  0
  1  5  1  0
  3  4  1  0
  3  2  1  0
  4  5  1  0
  6  7  2  0
  5  6  1  1
  8  6  1  0
  9 12  1  0
  9  8  1  0
  9 10  1  1
 11 10  1  0
 12 20  1  0
 13 12  2  0
 15 14  1  0
 15 16  2  0
 17 15  1  0
 18 17  1  0
 19 18  1  1
 20 19  1  0
 21 22  1  0
 21 19  1  0
 23 21  2  0
M  END
$$$$
