PCQ.pdb
     RDKit          3D

 23 23  0  0  1  0  0  0  0  0999 V2000
    7.1376  -14.8493   20.0253 N   0  0  0  0  0  0  0  0  0  0  0  0
    6.3326  -13.8707   19.3649 C   0  0  0  0  0  0  0  0  0  0  0  0
    7.3209  -13.0724   18.5436 C   0  0  0  0  0  0  0  0  0  0  0  0
    8.4941  -12.9733   19.5280 C   0  0  0  0  0  0  0  0  0  0  0  0
    8.4815  -14.3618   20.1189 C   0  0  1  0  0  0  0  0  0  0  0  0
    8.9073  -14.3872   21.5340 C   0  0  0  0  0  0  0  0  0  0  0  0
   10.1194  -14.2234   21.8213 O   0  0  0  0  0  0  0  0  0  0  0  0
    7.9873  -14.5923   22.5967 N   0  0  0  0  0  0  0  0  0  0  0  0
    8.3702  -14.6042   23.9836 C   0  0  1  0  0  0  0  0  0  0  0  0
    7.3116  -14.0437   24.8943 C   0  0  0  0  0  0  0  0  0  0  0  0
    7.7645  -14.0678   26.6254 S   0  0  0  0  0  0  0  0  0  0  0  0
    8.8034  -15.9756   24.4014 C   0  0  0  0  0  0  0  0  0  0  0  0
    8.0786  -16.9883   24.1936 O   0  0  0  0  0  0  0  0  0  0  0  0
   14.4575  -18.1874   23.5279 N   0  0  0  0  0  0  0  0  0  0  0  0
   13.9175  -19.1193   24.4388 C   0  0  0  0  0  0  0  0  0  0  0  0
   14.6444  -20.1250   24.7448 O   0  0  0  0  0  0  0  0  0  0  0  0
   12.5954  -18.9677   25.0291 C   0  0  0  0  0  0  0  0  0  0  0  0
   11.8654  -17.7150   24.7955 C   0  0  0  0  0  0  0  0  0  0  0  0
   10.5230  -17.5244   25.4371 C   0  0  2  0  0  0  0  0  0  0  0  0
   10.0389  -16.1656   25.0403 N   0  0  0  0  0  0  0  0  0  0  0  0
   10.5634  -17.5649   26.8844 C   0  0  0  0  0  0  0  0  0  0  0  0
   10.5839  -18.7665   27.5758 O   0  0  0  0  0  0  0  0  0  0  0  0
   10.5734  -16.5158   27.5768 O   0  0  0  0  0  0  0  0  0  0  0  0
  1  2  1  0
  1  5  1  0
  3  4  1  0
  3  2  1  0
  4  5  1  0
  6  7  2  0
  5  6  1  1
  8  6  1  0
  9 12  1  0
  9  8  1  0
  9 10  1  1
 11 10  1  0
 12 20  1  0
 13 12  2  0
 15 14  1  0
 15 16  2  0
 17 15  1  0
 18 17  1  0
 19 18  1  6
 20 19  1  0
 21 22  1  0
 21 19  1  0
 23 21  2  0
M  END
$$$$
