EQV.pdb
     RDKit          3D

 26 25  0  0  1  0  0  0  0  0999 V2000
   27.0073  -22.0576  -14.0935 N   0  0  0  0  0  0  0  0  0  0  0  0
   27.6459  -20.7497  -14.0475 C   0  0  1  0  0  0  0  0  0  0  0  0
   27.4452  -20.0931  -15.3767 C   0  0  0  0  0  0  0  0  0  0  0  0
   26.8511  -20.9565  -16.4384 C   0  0  0  0  0  0  0  0  0  0  0  0
   25.3620  -20.9336  -16.2730 C   0  0  0  0  0  0  0  0  0  0  0  0
   24.7562  -19.8506  -16.0967 O   0  0  0  0  0  0  0  0  0  0  0  0
   27.1111  -19.9549  -12.8989 C   0  0  0  0  0  0  0  0  0  0  0  0
   27.2975  -18.7251  -12.8691 O   0  0  0  0  0  0  0  0  0  0  0  0
   24.6098  -22.1023  -16.3092 O   0  0  0  0  0  0  0  0  0  0  0  0
   21.9631  -20.9837  -10.3688 N   0  0  0  0  0  0  0  0  0  0  0  0
   22.4551  -20.8692  -11.6931 C   0  0  0  0  0  0  0  0  0  0  0  0
   21.8204  -21.4399  -12.6092 O   0  0  0  0  0  0  0  0  0  0  0  0
   23.6810  -20.1089  -12.0442 C   0  0  0  0  0  0  0  0  0  0  0  0
   24.3386  -19.5770  -10.8089 C   0  0  0  0  0  0  0  0  0  0  0  0
   25.7839  -19.9793  -10.7107 C   0  0  2  0  0  0  0  0  0  0  0  0
   26.4023  -20.5397  -11.8440 N   0  0  0  0  0  0  0  0  0  0  0  0
   26.1015  -20.7237   -9.4861 C   0  0  0  0  0  0  0  0  0  0  0  0
   26.0417  -22.0065   -9.5240 O   0  0  0  0  0  0  0  0  0  0  0  0
   29.0305  -20.1193   -6.9340 C   0  0  0  0  0  0  0  0  0  0  0  0
   27.7460  -20.2412   -6.1500 C   0  0  1  0  0  0  0  0  0  0  0  0
   27.3820  -18.8184   -5.7108 C   0  0  0  0  0  0  0  0  0  0  0  0
   26.6971  -20.8411   -7.0088 C   0  0  2  0  0  0  0  0  0  0  0  0
   26.4739  -20.1536   -8.2489 N   0  0  0  0  0  0  0  0  0  0  0  0
   25.4771  -21.1453   -6.2359 C   0  0  0  0  0  0  0  0  0  0  0  0
   25.5481  -21.9201   -5.1001 O   0  0  0  0  0  0  0  0  0  0  0  0
   24.3688  -20.7116   -6.5920 O   0  0  0  0  0  0  0  0  0  0  0  0
  2  1  1  6
  2  3  1  0
  3  4  1  0
  4  5  1  0
  5  9  1  0
  5  6  2  0
  7  8  2  0
  7  2  1  0
 10 11  1  0
 11 12  2  0
 13 11  1  0
 13 14  1  0
 15 14  1  6
 15 16  1  0
 15 17  1  0
 16  7  1  0
 17 23  1  0
 17 18  2  0
 20 19  1  6
 20 22  1  0
 21 20  1  0
 22 24  1  0
 22 23  1  6
 24 26  2  0
 24 25  1  0
M  END
$$$$
