EQV.pdb
     RDKit          3D

 26 25  0  0  1  0  0  0  0  0999 V2000
   15.3111  -11.1659  -16.8084 N   0  0  0  0  0  0  0  0  0  0  0  0
   16.3451  -10.9481  -15.8066 C   0  0  1  0  0  0  0  0  0  0  0  0
   17.1893  -12.1814  -15.7414 C   0  0  0  0  0  0  0  0  0  0  0  0
   16.5262  -13.3859  -15.1624 C   0  0  0  0  0  0  0  0  0  0  0  0
   17.5107  -14.5152  -15.1937 C   0  0  0  0  0  0  0  0  0  0  0  0
   17.4452  -15.3944  -16.0845 O   0  0  0  0  0  0  0  0  0  0  0  0
   17.1185   -9.7080  -16.1250 C   0  0  0  0  0  0  0  0  0  0  0  0
   17.5728   -9.5505  -17.2725 O   0  0  0  0  0  0  0  0  0  0  0  0
   18.5204  -14.6240  -14.2441 O   0  0  0  0  0  0  0  0  0  0  0  0
   15.5624   -3.8916  -15.4848 N   0  0  0  0  0  0  0  0  0  0  0  0
   16.9732   -3.7894  -15.5739 C   0  0  0  0  0  0  0  0  0  0  0  0
   17.4728   -2.6531  -15.7379 O   0  0  0  0  0  0  0  0  0  0  0  0
   17.8825   -4.9594  -15.4824 C   0  0  0  0  0  0  0  0  0  0  0  0
   17.0959   -6.2209  -15.3055 C   0  0  0  0  0  0  0  0  0  0  0  0
   17.9703   -7.4438  -15.2894 C   0  0  2  0  0  0  0  0  0  0  0  0
   17.3565   -8.7055  -15.1787 N   0  0  0  0  0  0  0  0  0  0  0  0
   19.1342   -7.3186  -14.4039 C   0  0  0  0  0  0  0  0  0  0  0  0
   18.9400   -7.3806  -13.1354 O   0  0  0  0  0  0  0  0  0  0  0  0
   22.3846   -9.3017  -14.6978 C   0  0  0  0  0  0  0  0  0  0  0  0
   22.7943   -7.8619  -14.5014 C   0  0  1  0  0  0  0  0  0  0  0  0
   23.2582   -7.3631  -15.8746 C   0  0  0  0  0  0  0  0  0  0  0  0
   21.6401   -7.0844  -13.9905 C   0  0  2  0  0  0  0  0  0  0  0  0
   20.4707   -7.1341  -14.8212 N   0  0  0  0  0  0  0  0  0  0  0  0
   22.0479   -5.7303  -13.5678 C   0  0  0  0  0  0  0  0  0  0  0  0
   22.9629   -5.5643  -12.5527 O   0  0  0  0  0  0  0  0  0  0  0  0
   21.5768   -4.7196  -14.1154 O   0  0  0  0  0  0  0  0  0  0  0  0
  2  1  1  6
  2  3  1  0
  3  4  1  0
  4  5  1  0
  5  9  1  0
  5  6  2  0
  7  8  2  0
  7  2  1  0
 10 11  1  0
 11 12  2  0
 13 11  1  0
 13 14  1  0
 15 14  1  1
 15 16  1  0
 15 17  1  0
 16  7  1  0
 17 23  1  0
 17 18  2  0
 20 19  1  6
 20 22  1  0
 21 20  1  0
 22 24  1  0
 22 23  1  6
 24 26  2  0
 24 25  1  0
M  END
$$$$
