EQV.pdb
     RDKit          3D

 26 25  0  0  1  0  0  0  0  0999 V2000
   14.2729  -11.1966  -15.8747 N   0  0  0  0  0  0  0  0  0  0  0  0
   15.2029  -11.3623  -14.7666 C   0  0  1  0  0  0  0  0  0  0  0  0
   16.2617  -12.3282  -15.1956 C   0  0  0  0  0  0  0  0  0  0  0  0
   15.8307  -13.7528  -15.2980 C   0  0  0  0  0  0  0  0  0  0  0  0
   16.4966  -14.5174  -14.1945 C   0  0  0  0  0  0  0  0  0  0  0  0
   17.3562  -13.9682  -13.4663 O   0  0  0  0  0  0  0  0  0  0  0  0
   15.7404  -10.0328  -14.3414 C   0  0  0  0  0  0  0  0  0  0  0  0
   15.9198   -9.1462  -15.1956 O   0  0  0  0  0  0  0  0  0  0  0  0
   16.1858  -15.8491  -13.9443 O   0  0  0  0  0  0  0  0  0  0  0  0
   15.1055   -7.4350   -8.5042 N   0  0  0  0  0  0  0  0  0  0  0  0
   16.0729   -6.6319   -9.1585 C   0  0  0  0  0  0  0  0  0  0  0  0
   16.4807   -5.6041   -8.5709 O   0  0  0  0  0  0  0  0  0  0  0  0
   16.6230   -6.9493  -10.5003 C   0  0  0  0  0  0  0  0  0  0  0  0
   16.0022   -8.2011  -11.0376 C   0  0  0  0  0  0  0  0  0  0  0  0
   16.5254   -8.5608  -12.4005 C   0  0  2  0  0  0  0  0  0  0  0  0
   16.0541   -9.7386  -13.0102 N   0  0  0  0  0  0  0  0  0  0  0  0
   17.9815   -8.4227  -12.5227 C   0  0  0  0  0  0  0  0  0  0  0  0
   18.7193   -8.9611  -11.6190 O   0  0  0  0  0  0  0  0  0  0  0  0
   20.0734   -9.6720  -15.1614 C   0  0  0  0  0  0  0  0  0  0  0  0
   20.5498   -8.2441  -15.0448 C   0  0  1  0  0  0  0  0  0  0  0  0
   19.9659   -7.5035  -16.2533 C   0  0  0  0  0  0  0  0  0  0  0  0
   20.0793   -7.6687  -13.7622 C   0  0  2  0  0  0  0  0  0  0  0  0
   18.6605   -7.7432  -13.5579 N   0  0  0  0  0  0  0  0  0  0  0  0
   20.6759   -6.3412  -13.5166 C   0  0  0  0  0  0  0  0  0  0  0  0
   19.8718   -5.2332  -13.3712 O   0  0  0  0  0  0  0  0  0  0  0  0
   21.9072   -6.1974  -13.4368 O   0  0  0  0  0  0  0  0  0  0  0  0
  2  1  1  6
  2  3  1  0
  3  4  1  0
  4  5  1  0
  5  9  1  0
  5  6  2  0
  7  8  2  0
  7  2  1  0
 10 11  1  0
 11 12  2  0
 13 11  1  0
 13 14  1  0
 15 14  1  1
 15 16  1  0
 15 17  1  0
 16  7  1  0
 17 23  1  0
 17 18  2  0
 20 19  1  6
 20 22  1  0
 21 20  1  0
 22 24  1  0
 22 23  1  6
 24 26  2  0
 24 25  1  0
M  END
$$$$
