EQV.pdb
     RDKit          3D

 26 25  0  0  1  0  0  0  0  0999 V2000
   19.2721  -10.7920  -17.2447 N   0  0  0  0  0  0  0  0  0  0  0  0
   19.8148   -9.5682  -17.8176 C   0  0  1  0  0  0  0  0  0  0  0  0
   19.2828   -9.4369  -19.2097 C   0  0  0  0  0  0  0  0  0  0  0  0
   19.7816  -10.4469  -20.1878 C   0  0  0  0  0  0  0  0  0  0  0  0
   19.2011  -10.1169  -21.5292 C   0  0  0  0  0  0  0  0  0  0  0  0
   19.7390   -9.2546  -22.2627 O   0  0  0  0  0  0  0  0  0  0  0  0
   19.4927   -8.4009  -16.9396 C   0  0  0  0  0  0  0  0  0  0  0  0
   18.3601   -8.3139  -16.4320 O   0  0  0  0  0  0  0  0  0  0  0  0
   18.0568  -10.7505  -22.0005 O   0  0  0  0  0  0  0  0  0  0  0  0
   22.1830   -6.5238  -12.0083 N   0  0  0  0  0  0  0  0  0  0  0  0
   21.0009   -7.2589  -12.2752 C   0  0  0  0  0  0  0  0  0  0  0  0
   20.5459   -7.9930  -11.3687 O   0  0  0  0  0  0  0  0  0  0  0  0
   20.2801   -7.2004  -13.5718 C   0  0  0  0  0  0  0  0  0  0  0  0
   20.9562   -6.2433  -14.5036 C   0  0  0  0  0  0  0  0  0  0  0  0
   20.3259   -6.2309  -15.8685 C   0  0  2  0  0  0  0  0  0  0  0  0
   20.4193   -7.3906  -16.6607 N   0  0  0  0  0  0  0  0  0  0  0  0
   20.6190   -5.0150  -16.6366 C   0  0  0  0  0  0  0  0  0  0  0  0
   21.6038   -5.0417  -17.4614 O   0  0  0  0  0  0  0  0  0  0  0  0
   18.1014   -1.4243  -16.6536 C   0  0  0  0  0  0  0  0  0  0  0  0
   18.8911   -1.9579  -17.8245 C   0  0  1  0  0  0  0  0  0  0  0  0
   19.1979   -0.7480  -18.7143 C   0  0  0  0  0  0  0  0  0  0  0  0
   20.1274   -2.6105  -17.3312 C   0  0  2  0  0  0  0  0  0  0  0  0
   19.9083   -3.7973  -16.5544 N   0  0  0  0  0  0  0  0  0  0  0  0
   21.0489   -1.6296  -16.7251 C   0  0  0  0  0  0  0  0  0  0  0  0
   21.8644   -0.8571  -17.5209 O   0  0  0  0  0  0  0  0  0  0  0  0
   21.1074   -1.4825  -15.4929 O   0  0  0  0  0  0  0  0  0  0  0  0
  2  1  1  1
  2  3  1  0
  3  4  1  0
  4  5  1  0
  5  9  1  0
  5  6  2  0
  7  8  2  0
  7  2  1  0
 10 11  1  0
 11 12  2  0
 13 11  1  0
 13 14  1  0
 15 14  1  1
 15 16  1  0
 15 17  1  0
 16  7  1  0
 17 23  1  0
 17 18  2  0
 20 19  1  1
 20 22  1  0
 21 20  1  0
 22 24  1  0
 22 23  1  1
 24 26  2  0
 24 25  1  0
M  END
$$$$
