EQV.pdb
     RDKit          3D

 26 25  0  0  1  0  0  0  0  0999 V2000
   17.8282  -12.3473  -16.9901 N   0  0  0  0  0  0  0  0  0  0  0  0
   17.6527  -10.9018  -16.9987 C   0  0  1  0  0  0  0  0  0  0  0  0
   16.5644  -10.5650  -16.0291 C   0  0  0  0  0  0  0  0  0  0  0  0
   15.1966  -11.0210  -16.4121 C   0  0  0  0  0  0  0  0  0  0  0  0
   14.2332   -9.9226  -16.0791 C   0  0  0  0  0  0  0  0  0  0  0  0
   13.0063  -10.0631  -16.2936 O   0  0  0  0  0  0  0  0  0  0  0  0
   18.9520  -10.2230  -16.7018 C   0  0  0  0  0  0  0  0  0  0  0  0
   19.7650  -10.7707  -15.9356 O   0  0  0  0  0  0  0  0  0  0  0  0
   14.6644   -8.7222  -15.5262 O   0  0  0  0  0  0  0  0  0  0  0  0
   22.2624   -6.6969  -20.7020 N   0  0  0  0  0  0  0  0  0  0  0  0
   21.8424   -8.0489  -20.6337 C   0  0  0  0  0  0  0  0  0  0  0  0
   22.0084   -8.7694  -21.6441 O   0  0  0  0  0  0  0  0  0  0  0  0
   21.2182   -8.6485  -19.4276 C   0  0  0  0  0  0  0  0  0  0  0  0
   21.0979   -7.6283  -18.3386 C   0  0  0  0  0  0  0  0  0  0  0  0
   20.4447   -8.1832  -17.1033 C   0  0  2  0  0  0  0  0  0  0  0  0
   19.2978   -8.9849  -17.2538 N   0  0  0  0  0  0  0  0  0  0  0  0
   20.2874   -7.1937  -16.0306 C   0  0  0  0  0  0  0  0  0  0  0  0
   19.2430   -6.4454  -16.0447 O   0  0  0  0  0  0  0  0  0  0  0  0
   20.0528   -7.8098  -12.4471 C   0  0  0  0  0  0  0  0  0  0  0  0
   21.0905   -6.7160  -12.5261 C   0  0  1  0  0  0  0  0  0  0  0  0
   22.4409   -7.3951  -12.2712 C   0  0  0  0  0  0  0  0  0  0  0  0
   21.0354   -6.0772  -13.8627 C   0  0  2  0  0  0  0  0  0  0  0  0
   21.1904   -6.9829  -14.9654 N   0  0  0  0  0  0  0  0  0  0  0  0
   21.8876   -4.8735  -13.9198 C   0  0  0  0  0  0  0  0  0  0  0  0
   21.5966   -3.7774  -13.1392 O   0  0  0  0  0  0  0  0  0  0  0  0
   22.8778   -4.8249  -14.6684 O   0  0  0  0  0  0  0  0  0  0  0  0
  2  1  1  1
  2  3  1  0
  3  4  1  0
  4  5  1  0
  5  9  1  0
  5  6  2  0
  7  8  2  0
  7  2  1  0
 10 11  1  0
 11 12  2  0
 13 11  1  0
 13 14  1  0
 15 14  1  6
 15 16  1  0
 15 17  1  0
 16  7  1  0
 17 23  1  0
 17 18  2  0
 20 19  1  6
 20 22  1  0
 21 20  1  0
 22 24  1  0
 22 23  1  6
 24 26  2  0
 24 25  1  0
M  END
$$$$
