EQV.pdb
     RDKit          3D

 26 25  0  0  1  0  0  0  0  0999 V2000
   16.3429  -11.3179  -14.9971 N   0  0  0  0  0  0  0  0  0  0  0  0
   17.1422  -10.2114  -14.4900 C   0  0  1  0  0  0  0  0  0  0  0  0
   18.0462   -9.7547  -15.5911 C   0  0  0  0  0  0  0  0  0  0  0  0
   19.1322  -10.7053  -15.9687 C   0  0  0  0  0  0  0  0  0  0  0  0
   20.2896  -10.4750  -15.0452 C   0  0  0  0  0  0  0  0  0  0  0  0
   20.2261   -9.6021  -14.1480 O   0  0  0  0  0  0  0  0  0  0  0  0
   16.2518   -9.1332  -13.9588 C   0  0  0  0  0  0  0  0  0  0  0  0
   15.1934   -8.8671  -14.5561 O   0  0  0  0  0  0  0  0  0  0  0  0
   21.4617  -11.2150  -15.1521 O   0  0  0  0  0  0  0  0  0  0  0  0
   15.5155   -7.4983   -7.8460 N   0  0  0  0  0  0  0  0  0  0  0  0
   14.8844   -6.4595   -8.5750 C   0  0  0  0  0  0  0  0  0  0  0  0
   14.2218   -5.6100   -7.9371 O   0  0  0  0  0  0  0  0  0  0  0  0
   14.9708   -6.3313  -10.0516 C   0  0  0  0  0  0  0  0  0  0  0  0
   15.7589   -7.4651  -10.6300 C   0  0  0  0  0  0  0  0  0  0  0  0
   15.8576   -7.3885  -12.1283 C   0  0  2  0  0  0  0  0  0  0  0  0
   16.5601   -8.4021  -12.8066 N   0  0  0  0  0  0  0  0  0  0  0  0
   16.2064   -6.0515  -12.6235 C   0  0  0  0  0  0  0  0  0  0  0  0
   17.4320   -5.6750  -12.5402 O   0  0  0  0  0  0  0  0  0  0  0  0
   15.4873   -2.2435  -15.5951 C   0  0  0  0  0  0  0  0  0  0  0  0
   14.9508   -3.5391  -15.0357 C   0  0  1  0  0  0  0  0  0  0  0  0
   15.2401   -4.6090  -16.0947 C   0  0  0  0  0  0  0  0  0  0  0  0
   15.6224   -3.8381  -13.7484 C   0  0  2  0  0  0  0  0  0  0  0  0
   15.3071   -5.1237  -13.1936 N   0  0  0  0  0  0  0  0  0  0  0  0
   15.5088   -2.7074  -12.8065 C   0  0  0  0  0  0  0  0  0  0  0  0
   16.5683   -1.8486  -12.6193 O   0  0  0  0  0  0  0  0  0  0  0  0
   14.4621   -2.5092  -12.1674 O   0  0  0  0  0  0  0  0  0  0  0  0
  2  1  1  6
  2  3  1  0
  3  4  1  0
  4  5  1  0
  5  9  1  0
  5  6  2  0
  7  8  2  0
  7  2  1  0
 10 11  1  0
 11 12  2  0
 13 11  1  0
 13 14  1  0
 15 14  1  1
 15 16  1  0
 15 17  1  0
 16  7  1  0
 17 23  1  0
 17 18  2  0
 20 19  1  6
 20 22  1  0
 21 20  1  0
 22 24  1  0
 22 23  1  1
 24 26  2  0
 24 25  1  0
M  END
$$$$
