EQV.pdb
     RDKit          3D

 26 25  0  0  1  0  0  0  0  0999 V2000
   14.8115  -13.1132  -14.0740 N   0  0  0  0  0  0  0  0  0  0  0  0
   14.6751  -11.6636  -14.0856 C   0  0  1  0  0  0  0  0  0  0  0  0
   13.2409  -11.3346  -13.8151 C   0  0  0  0  0  0  0  0  0  0  0  0
   12.2783  -11.7204  -14.8876 C   0  0  0  0  0  0  0  0  0  0  0  0
   10.9103  -11.2834  -14.4595 C   0  0  0  0  0  0  0  0  0  0  0  0
   10.4212  -10.2104  -14.8843 O   0  0  0  0  0  0  0  0  0  0  0  0
   15.6262  -11.0483  -13.1088 C   0  0  0  0  0  0  0  0  0  0  0  0
   16.0985  -11.7476  -12.1946 O   0  0  0  0  0  0  0  0  0  0  0  0
   10.1453  -12.0467  -13.5849 O   0  0  0  0  0  0  0  0  0  0  0  0
   20.8698   -8.2421  -14.0695 N   0  0  0  0  0  0  0  0  0  0  0  0
   20.5488   -7.7712  -12.7717 C   0  0  0  0  0  0  0  0  0  0  0  0
   21.4453   -7.1935  -12.1158 O   0  0  0  0  0  0  0  0  0  0  0  0
   19.2073   -7.9295  -12.1560 C   0  0  0  0  0  0  0  0  0  0  0  0
   18.3090   -8.7209  -13.0548 C   0  0  0  0  0  0  0  0  0  0  0  0
   16.9581   -8.9670  -12.4424 C   0  0  2  0  0  0  0  0  0  0  0  0
   16.0128   -9.7056  -13.1784 N   0  0  0  0  0  0  0  0  0  0  0  0
   16.3667   -7.7706  -11.8314 C   0  0  0  0  0  0  0  0  0  0  0  0
   15.9334   -6.8441  -12.6090 O   0  0  0  0  0  0  0  0  0  0  0  0
   13.5368   -7.5773   -9.4619 C   0  0  0  0  0  0  0  0  0  0  0  0
   14.5845   -6.6980   -8.8227 C   0  0  1  0  0  0  0  0  0  0  0  0
   15.1317   -7.4907   -7.6303 C   0  0  0  0  0  0  0  0  0  0  0  0
   15.6422   -6.3881   -9.8141 C   0  0  2  0  0  0  0  0  0  0  0  0
   16.2253   -7.5376  -10.4457 N   0  0  0  0  0  0  0  0  0  0  0  0
   16.6111   -5.4111   -9.2801 C   0  0  0  0  0  0  0  0  0  0  0  0
   16.1906   -4.1645   -8.8746 O   0  0  0  0  0  0  0  0  0  0  0  0
   17.8177   -5.6917   -9.1865 O   0  0  0  0  0  0  0  0  0  0  0  0
  2  1  1  1
  2  3  1  0
  3  4  1  0
  4  5  1  0
  5  9  1  0
  5  6  2  0
  7  8  2  0
  7  2  1  0
 10 11  1  0
 11 12  2  0
 13 11  1  0
 13 14  1  0
 15 14  1  6
 15 16  1  0
 15 17  1  0
 16  7  1  0
 17 23  1  0
 17 18  2  0
 20 19  1  6
 20 22  1  0
 21 20  1  0
 22 24  1  0
 22 23  1  1
 24 26  2  0
 24 25  1  0
M  END
$$$$
