EQV.pdb
     RDKit          3D

 26 25  0  0  1  0  0  0  0  0999 V2000
   27.2730  -22.7956  -16.8577 N   0  0  0  0  0  0  0  0  0  0  0  0
   26.9948  -21.5683  -16.1253 C   0  0  1  0  0  0  0  0  0  0  0  0
   26.5325  -20.5405  -17.1092 C   0  0  0  0  0  0  0  0  0  0  0  0
   27.2805  -20.5016  -18.3994 C   0  0  0  0  0  0  0  0  0  0  0  0
   28.6349  -19.9193  -18.1308 C   0  0  0  0  0  0  0  0  0  0  0  0
   28.7731  -18.6889  -17.9355 O   0  0  0  0  0  0  0  0  0  0  0  0
   26.0127  -21.8335  -15.0288 C   0  0  0  0  0  0  0  0  0  0  0  0
   25.0028  -22.5199  -15.2676 O   0  0  0  0  0  0  0  0  0  0  0  0
   29.7726  -20.7172  -18.0897 O   0  0  0  0  0  0  0  0  0  0  0  0
   26.7932  -20.4017   -8.7030 N   0  0  0  0  0  0  0  0  0  0  0  0
   25.4374  -20.7775   -8.8747 C   0  0  0  0  0  0  0  0  0  0  0  0
   24.7252  -20.8981   -7.8520 O   0  0  0  0  0  0  0  0  0  0  0  0
   24.8245  -21.0336  -10.2024 C   0  0  0  0  0  0  0  0  0  0  0  0
   25.8592  -20.9502  -11.2812 C   0  0  0  0  0  0  0  0  0  0  0  0
   25.2952  -21.2565  -12.6408 C   0  0  2  0  0  0  0  0  0  0  0  0
   26.1812  -21.3383  -13.7313 N   0  0  0  0  0  0  0  0  0  0  0  0
   24.0945  -20.4769  -12.9647 C   0  0  0  0  0  0  0  0  0  0  0  0
   24.2068  -19.2001  -13.0539 O   0  0  0  0  0  0  0  0  0  0  0  0
   22.1256  -20.5370  -15.9142 C   0  0  0  0  0  0  0  0  0  0  0  0
   21.0459  -20.6219  -14.8624 C   0  0  1  0  0  0  0  0  0  0  0  0
   20.5256  -22.0631  -14.9058 C   0  0  0  0  0  0  0  0  0  0  0  0
   21.6171  -20.2789  -13.5381 C   0  0  2  0  0  0  0  0  0  0  0  0
   22.8052  -21.0063  -13.1927 N   0  0  0  0  0  0  0  0  0  0  0  0
   20.5755  -20.2531  -12.4927 C   0  0  0  0  0  0  0  0  0  0  0  0
   19.5107  -19.3861  -12.5927 O   0  0  0  0  0  0  0  0  0  0  0  0
   20.6379  -21.0077  -11.5079 O   0  0  0  0  0  0  0  0  0  0  0  0
  2  1  1  6
  2  3  1  0
  3  4  1  0
  4  5  1  0
  5  9  1  0
  5  6  2  0
  7  8  2  0
  7  2  1  0
 10 11  1  0
 11 12  2  0
 13 11  1  0
 13 14  1  0
 15 14  1  1
 15 16  1  0
 15 17  1  0
 16  7  1  0
 17 23  1  0
 17 18  2  0
 20 19  1  6
 20 22  1  0
 21 20  1  0
 22 24  1  0
 22 23  1  1
 24 26  2  0
 24 25  1  0
M  END
$$$$
