EQV.pdb
     RDKit          3D

 26 25  0  0  1  0  0  0  0  0999 V2000
   18.5901  -11.6580  -15.7143 N   0  0  0  0  0  0  0  0  0  0  0  0
   19.1963  -10.4902  -15.0906 C   0  0  1  0  0  0  0  0  0  0  0  0
   20.2886  -10.0036  -15.9897 C   0  0  0  0  0  0  0  0  0  0  0  0
   21.4648  -10.9115  -16.1237 C   0  0  0  0  0  0  0  0  0  0  0  0
   22.7051  -10.0727  -16.0626 C   0  0  0  0  0  0  0  0  0  0  0  0
   23.8384  -10.6038  -16.1296 O   0  0  0  0  0  0  0  0  0  0  0  0
   18.1519   -9.4588  -14.8031 C   0  0  0  0  0  0  0  0  0  0  0  0
   17.1425   -9.3947  -15.5276 O   0  0  0  0  0  0  0  0  0  0  0  0
   22.6403   -8.6903  -15.9308 O   0  0  0  0  0  0  0  0  0  0  0  0
   16.4878   -7.2294   -9.1749 N   0  0  0  0  0  0  0  0  0  0  0  0
   16.0522   -8.3442   -9.9342 C   0  0  0  0  0  0  0  0  0  0  0  0
   15.4281   -9.2535   -9.3414 O   0  0  0  0  0  0  0  0  0  0  0  0
   16.2992   -8.4846  -11.3913 C   0  0  0  0  0  0  0  0  0  0  0  0
   17.0961   -7.3243  -11.9011 C   0  0  0  0  0  0  0  0  0  0  0  0
   17.4517   -7.4681  -13.3548 C   0  0  2  0  0  0  0  0  0  0  0  0
   18.2609   -8.5523  -13.7430 N   0  0  0  0  0  0  0  0  0  0  0  0
   17.8803   -6.2106  -13.9789 C   0  0  0  0  0  0  0  0  0  0  0  0
   19.1069   -5.8534  -13.8421 O   0  0  0  0  0  0  0  0  0  0  0  0
   17.7534   -5.2973  -17.5245 C   0  0  0  0  0  0  0  0  0  0  0  0
   17.1394   -4.0971  -16.8450 C   0  0  1  0  0  0  0  0  0  0  0  0
   15.6317   -4.1885  -17.1063 C   0  0  0  0  0  0  0  0  0  0  0  0
   17.4538   -4.1337  -15.3967 C   0  0  2  0  0  0  0  0  0  0  0  0
   17.0583   -5.3413  -14.7292 N   0  0  0  0  0  0  0  0  0  0  0  0
   17.0419   -2.8859  -14.7246 C   0  0  0  0  0  0  0  0  0  0  0  0
   17.7404   -1.7186  -14.9359 O   0  0  0  0  0  0  0  0  0  0  0  0
   16.0635   -2.8637  -13.9594 O   0  0  0  0  0  0  0  0  0  0  0  0
  2  1  1  6
  2  3  1  0
  3  4  1  0
  4  5  1  0
  5  9  1  0
  5  6  2  0
  7  8  2  0
  7  2  1  0
 10 11  1  0
 11 12  2  0
 13 11  1  0
 13 14  1  0
 15 14  1  1
 15 16  1  0
 15 17  1  0
 16  7  1  0
 17 23  1  0
 17 18  2  0
 20 19  1  6
 20 22  1  0
 21 20  1  0
 22 24  1  0
 22 23  1  1
 24 26  2  0
 24 25  1  0
M  END
$$$$
