EQV.pdb
     RDKit          3D

 26 25  0  0  1  0  0  0  0  0999 V2000
   19.0473  -11.9267  -15.1845 N   0  0  0  0  0  0  0  0  0  0  0  0
   18.3146  -11.0671  -16.1035 C   0  0  1  0  0  0  0  0  0  0  0  0
   17.0000  -11.7193  -16.3940 C   0  0  0  0  0  0  0  0  0  0  0  0
   17.0726  -13.1326  -16.8663 C   0  0  0  0  0  0  0  0  0  0  0  0
   15.6744  -13.6662  -16.9436 C   0  0  0  0  0  0  0  0  0  0  0  0
   14.9355  -13.3809  -17.9150 O   0  0  0  0  0  0  0  0  0  0  0  0
   18.1881   -9.6906  -15.5320 C   0  0  0  0  0  0  0  0  0  0  0  0
   17.6052   -8.8090  -16.1885 O   0  0  0  0  0  0  0  0  0  0  0  0
   15.1553  -14.4878  -15.9496 O   0  0  0  0  0  0  0  0  0  0  0  0
   16.3997   -7.8871   -9.9123 N   0  0  0  0  0  0  0  0  0  0  0  0
   17.1167   -6.7550  -10.3741 C   0  0  0  0  0  0  0  0  0  0  0  0
   17.0144   -5.6882   -9.7267 O   0  0  0  0  0  0  0  0  0  0  0  0
   17.9789   -6.7735  -11.5825 C   0  0  0  0  0  0  0  0  0  0  0  0
   17.9287   -8.1173  -12.2405 C   0  0  0  0  0  0  0  0  0  0  0  0
   18.6644   -8.1411  -13.5515 C   0  0  2  0  0  0  0  0  0  0  0  0
   18.7023   -9.3464  -14.2772 N   0  0  0  0  0  0  0  0  0  0  0  0
   19.9791   -7.4909  -13.4958 C   0  0  0  0  0  0  0  0  0  0  0  0
   20.9390   -8.1138  -12.9114 O   0  0  0  0  0  0  0  0  0  0  0  0
   22.1190   -6.4282  -16.2415 C   0  0  0  0  0  0  0  0  0  0  0  0
   22.0934   -5.2036  -15.3589 C   0  0  1  0  0  0  0  0  0  0  0  0
   21.1885   -4.1898  -16.0683 C   0  0  0  0  0  0  0  0  0  0  0  0
   21.5723   -5.5694  -14.0201 C   0  0  2  0  0  0  0  0  0  0  0  0
   20.2950   -6.2239  -14.0338 N   0  0  0  0  0  0  0  0  0  0  0  0
   21.6863   -4.4439  -13.0720 C   0  0  0  0  0  0  0  0  0  0  0  0
   22.9241   -3.9645  -12.7068 O   0  0  0  0  0  0  0  0  0  0  0  0
   20.6747   -3.9101  -12.5873 O   0  0  0  0  0  0  0  0  0  0  0  0
  2  1  1  1
  2  3  1  0
  3  4  1  0
  4  5  1  0
  5  9  1  0
  5  6  2  0
  7  8  2  0
  7  2  1  0
 10 11  1  0
 11 12  2  0
 13 11  1  0
 13 14  1  0
 15 14  1  1
 15 16  1  0
 15 17  1  0
 16  7  1  0
 17 23  1  0
 17 18  2  0
 20 19  1  6
 20 22  1  0
 21 20  1  0
 22 24  1  0
 22 23  1  6
 24 26  2  0
 24 25  1  0
M  END
$$$$
