EQV.pdb
     RDKit          3D

 26 25  0  0  1  0  0  0  0  0999 V2000
   20.0899  -15.1728  -16.7192 N   0  0  0  0  0  0  0  0  0  0  0  0
   19.7626  -13.9567  -17.4503 C   0  0  1  0  0  0  0  0  0  0  0  0
   18.3028  -13.9943  -17.7751 C   0  0  0  0  0  0  0  0  0  0  0  0
   17.8983  -14.9918  -18.8082 C   0  0  0  0  0  0  0  0  0  0  0  0
   16.4370  -14.8056  -19.0830 C   0  0  0  0  0  0  0  0  0  0  0  0
   15.7342  -15.7661  -19.4760 O   0  0  0  0  0  0  0  0  0  0  0  0
   20.1705  -12.7543  -16.6596 C   0  0  0  0  0  0  0  0  0  0  0  0
   19.8170  -12.6577  -15.4706 O   0  0  0  0  0  0  0  0  0  0  0  0
   15.8181  -13.5724  -18.9128 O   0  0  0  0  0  0  0  0  0  0  0  0
   25.3787   -9.1162  -17.3710 N   0  0  0  0  0  0  0  0  0  0  0  0
   24.4964   -8.3364  -16.5822 C   0  0  0  0  0  0  0  0  0  0  0  0
   24.9298   -7.2675  -16.0950 O   0  0  0  0  0  0  0  0  0  0  0  0
   23.0900   -8.7243  -16.3073 C   0  0  0  0  0  0  0  0  0  0  0  0
   22.7739  -10.0379  -16.9522 C   0  0  0  0  0  0  0  0  0  0  0  0
   21.3699  -10.4934  -16.6663 C   0  0  2  0  0  0  0  0  0  0  0  0
   20.9408  -11.7212  -17.2042 N   0  0  0  0  0  0  0  0  0  0  0  0
   20.3661   -9.4365  -16.8382 C   0  0  0  0  0  0  0  0  0  0  0  0
   20.0707   -9.0700  -18.0337 O   0  0  0  0  0  0  0  0  0  0  0  0
   17.4722   -8.3188  -13.9105 C   0  0  0  0  0  0  0  0  0  0  0  0
   17.3726   -8.0407  -15.3911 C   0  0  1  0  0  0  0  0  0  0  0  0
   16.4010   -6.8639  -15.5360 C   0  0  0  0  0  0  0  0  0  0  0  0
   18.7172   -7.7179  -15.9254 C   0  0  2  0  0  0  0  0  0  0  0  0
   19.6814   -8.7733  -15.7962 N   0  0  0  0  0  0  0  0  0  0  0  0
   19.1765   -6.3934  -15.4634 C   0  0  0  0  0  0  0  0  0  0  0  0
   20.1650   -6.2934  -14.5103 O   0  0  0  0  0  0  0  0  0  0  0  0
   18.6837   -5.3492  -15.9215 O   0  0  0  0  0  0  0  0  0  0  0  0
  2  1  1  1
  2  3  1  0
  3  4  1  0
  4  5  1  0
  5  9  1  0
  5  6  2  0
  7  8  2  0
  7  2  1  0
 10 11  1  0
 11 12  2  0
 13 11  1  0
 13 14  1  0
 15 14  1  6
 15 16  1  0
 15 17  1  0
 16  7  1  0
 17 23  1  0
 17 18  2  0
 20 19  1  1
 20 22  1  0
 21 20  1  0
 22 24  1  0
 22 23  1  1
 24 26  2  0
 24 25  1  0
M  END
$$$$
