TPY.pdb
     RDKit          3D

 27 28  0  0  1  0  0  0  0  0999 V2000
   23.8431  -17.2166  -16.7780 C   0  0  0  0  0  0  0  0  0  0  0  0
   23.4942  -18.3805  -17.6606 C   0  0  1  0  0  0  0  0  0  0  0  0
   22.9533  -17.8713  -18.8400 O   0  0  0  0  0  0  0  0  0  0  0  0
   24.7412  -19.1606  -18.0711 C   0  0  2  0  0  0  0  0  0  0  0  0
   24.3730  -20.1030  -19.0713 N   0  0  0  0  0  0  0  0  0  0  0  0
   25.4472  -19.7144  -16.9316 C   0  0  0  0  0  0  0  0  0  0  0  0
   24.8945  -20.6331  -16.2754 O   0  0  0  0  0  0  0  0  0  0  0  0
   26.7324  -19.2810  -16.5108 N   0  0  0  0  0  0  0  0  0  0  0  0
   27.5700  -18.3551  -17.2017 C   0  0  0  0  0  0  0  0  0  0  0  0
   28.4350  -17.7302  -16.1144 C   0  0  0  0  0  0  0  0  0  0  0  0
   28.7295  -18.9919  -15.2915 C   0  0  0  0  0  0  0  0  0  0  0  0
   27.4312  -19.7378  -15.3183 C   0  0  1  0  0  0  0  0  0  0  0  0
   26.6192  -19.4988  -14.0945 C   0  0  0  0  0  0  0  0  0  0  0  0
   25.8163  -18.5264  -13.9881 O   0  0  0  0  0  0  0  0  0  0  0  0
   20.9165  -20.6152   -7.7655 O   0  0  0  0  0  0  0  0  0  0  0  0
   21.8906  -20.7524   -8.7626 C   0  0  0  0  0  0  0  0  0  0  0  0
   21.5776  -20.3441  -10.0443 C   0  0  0  0  0  0  0  0  0  0  0  0
   22.4941  -20.4547  -11.0644 C   0  0  0  0  0  0  0  0  0  0  0  0
   23.7440  -20.9753  -10.8281 C   0  0  0  0  0  0  0  0  0  0  0  0
   24.7005  -21.0817  -11.9555 C   0  0  0  0  0  0  0  0  0  0  0  0
   25.9374  -20.2257  -11.7678 C   0  0  2  0  0  0  0  0  0  0  0  0
   26.7227  -20.3680  -12.9921 N   0  0  0  0  0  0  0  0  0  0  0  0
   26.7216  -20.5877  -10.5765 C   0  0  0  0  0  0  0  0  0  0  0  0
   26.6002  -19.8752   -9.3945 O   0  0  0  0  0  0  0  0  0  0  0  0
   24.0506  -21.3805   -9.5511 C   0  0  0  0  0  0  0  0  0  0  0  0
   23.1371  -21.2688   -8.5405 C   0  0  0  0  0  0  0  0  0  0  0  0
   27.5405  -21.5545  -10.5598 O   0  0  0  0  0  0  0  0  0  0  0  0
  2  1  1  1
  2  3  1  0
  4  2  1  0
  4  5  1  6
  6  7  2  0
  6  4  1  0
  8  6  1  0
  9  8  1  0
 10  9  1  0
 11 10  1  0
 11 12  1  0
 12  8  1  0
 13 22  1  0
 12 13  1  1
 14 13  2  0
 16 15  1  0
 17 16  2  0
 18 17  1  0
 19 25  1  0
 19 18  2  0
 21 20  1  6
 20 19  1  0
 21 22  1  0
 23 21  1  0
 24 23  1  0
 25 26  2  0
 26 16  1  0
 27 23  2  0
M  END
$$$$
