TPY.pdb
     RDKit          3D

 27 28  0  0  1  0  0  0  0  0999 V2000
   18.1287  -10.6798  -17.9994 C   0  0  0  0  0  0  0  0  0  0  0  0
   18.1243  -10.1058  -16.6116 C   0  0  1  0  0  0  0  0  0  0  0  0
   16.9396  -10.5014  -15.9928 O   0  0  0  0  0  0  0  0  0  0  0  0
   19.2558  -10.6864  -15.7662 C   0  0  2  0  0  0  0  0  0  0  0  0
   19.2347  -12.1028  -15.8985 N   0  0  0  0  0  0  0  0  0  0  0  0
   19.2358  -10.1938  -14.4021 C   0  0  0  0  0  0  0  0  0  0  0  0
   18.5428  -10.8111  -13.5542 O   0  0  0  0  0  0  0  0  0  0  0  0
   19.9564   -9.0516  -13.9633 N   0  0  0  0  0  0  0  0  0  0  0  0
   20.9318   -8.3367  -14.7208 C   0  0  0  0  0  0  0  0  0  0  0  0
   20.8992   -6.9221  -14.1562 C   0  0  0  0  0  0  0  0  0  0  0  0
   20.7810   -7.2647  -12.6648 C   0  0  0  0  0  0  0  0  0  0  0  0
   19.8490   -8.4368  -12.6481 C   0  0  1  0  0  0  0  0  0  0  0  0
   18.4462   -8.0366  -12.3546 C   0  0  0  0  0  0  0  0  0  0  0  0
   17.6275   -7.7060  -13.2613 O   0  0  0  0  0  0  0  0  0  0  0  0
   11.2087   -7.0230   -7.2615 O   0  0  0  0  0  0  0  0  0  0  0  0
   12.5006   -7.2761   -7.7399 C   0  0  0  0  0  0  0  0  0  0  0  0
   12.6977   -8.3863   -8.5373 C   0  0  0  0  0  0  0  0  0  0  0  0
   13.9446   -8.6854   -9.0360 C   0  0  0  0  0  0  0  0  0  0  0  0
   15.0231   -7.8828   -8.7499 C   0  0  0  0  0  0  0  0  0  0  0  0
   16.3504   -8.2426   -9.3029 C   0  0  0  0  0  0  0  0  0  0  0  0
   16.6252   -7.6050  -10.6504 C   0  0  2  0  0  0  0  0  0  0  0  0
   17.9768   -8.0130  -11.0277 N   0  0  0  0  0  0  0  0  0  0  0  0
   16.4844   -6.1404  -10.6419 C   0  0  0  0  0  0  0  0  0  0  0  0
   15.2893   -5.5329  -10.9919 O   0  0  0  0  0  0  0  0  0  0  0  0
   14.8219   -6.7793   -7.9557 C   0  0  0  0  0  0  0  0  0  0  0  0
   13.5814   -6.4858   -7.4624 C   0  0  0  0  0  0  0  0  0  0  0  0
   17.4298   -5.3603  -10.3203 O   0  0  0  0  0  0  0  0  0  0  0  0
  2  1  1  6
  2  3  1  0
  4  2  1  0
  4  5  1  1
  6  7  2  0
  6  4  1  0
  8  6  1  0
  9  8  1  0
 10  9  1  0
 11 10  1  0
 11 12  1  0
 12  8  1  0
 13 22  1  0
 12 13  1  6
 14 13  2  0
 16 15  1  0
 17 16  2  0
 18 17  1  0
 19 25  1  0
 19 18  2  0
 21 20  1  1
 20 19  1  0
 21 22  1  0
 23 21  1  0
 24 23  1  0
 25 26  2  0
 26 16  1  0
 27 23  2  0
M  END
$$$$
