TPY.pdb
     RDKit          3D

 27 28  0  0  1  0  0  0  0  0999 V2000
   25.9617  -16.7760  -15.5854 C   0  0  0  0  0  0  0  0  0  0  0  0
   24.9914  -17.5203  -16.4573 C   0  0  1  0  0  0  0  0  0  0  0  0
   24.8242  -16.7848  -17.6295 O   0  0  0  0  0  0  0  0  0  0  0  0
   25.5538  -18.8740  -16.8855 C   0  0  2  0  0  0  0  0  0  0  0  0
   24.7105  -19.4114  -17.8975 N   0  0  0  0  0  0  0  0  0  0  0  0
   25.8008  -19.7520  -15.7578 C   0  0  0  0  0  0  0  0  0  0  0  0
   24.8128  -20.2367  -15.1504 O   0  0  0  0  0  0  0  0  0  0  0  0
   27.0978  -20.1007  -15.2965 N   0  0  0  0  0  0  0  0  0  0  0  0
   28.3269  -19.8149  -15.9629 C   0  0  0  0  0  0  0  0  0  0  0  0
   29.3656  -19.7562  -14.8500 C   0  0  0  0  0  0  0  0  0  0  0  0
   28.8844  -20.9495  -14.0133 C   0  0  0  0  0  0  0  0  0  0  0  0
   27.3920  -20.8443  -14.0801 C   0  0  1  0  0  0  0  0  0  0  0  0
   26.8213  -20.1667  -12.8845 C   0  0  0  0  0  0  0  0  0  0  0  0
   27.0027  -18.9371  -12.6461 O   0  0  0  0  0  0  0  0  0  0  0  0
   19.8733  -21.2292  -13.7652 O   0  0  0  0  0  0  0  0  0  0  0  0
   20.9965  -20.7433  -13.0838 C   0  0  0  0  0  0  0  0  0  0  0  0
   22.0530  -20.2552  -13.8273 C   0  0  0  0  0  0  0  0  0  0  0  0
   23.1823  -19.7653  -13.2128 C   0  0  0  0  0  0  0  0  0  0  0  0
   23.2823  -19.7513  -11.8421 C   0  0  0  0  0  0  0  0  0  0  0  0
   24.5179  -19.2193  -11.2195 C   0  0  0  0  0  0  0  0  0  0  0  0
   25.4640  -20.3079  -10.7527 C   0  0  2  0  0  0  0  0  0  0  0  0
   26.0442  -20.8908  -11.9607 N   0  0  0  0  0  0  0  0  0  0  0  0
   24.8114  -21.3292   -9.9184 C   0  0  0  0  0  0  0  0  0  0  0  0
   24.3255  -21.0218   -8.6578 O   0  0  0  0  0  0  0  0  0  0  0  0
   22.2285  -20.2384  -11.1066 C   0  0  0  0  0  0  0  0  0  0  0  0
   21.1083  -20.7242  -11.7211 C   0  0  0  0  0  0  0  0  0  0  0  0
   24.6574  -22.5292  -10.2948 O   0  0  0  0  0  0  0  0  0  0  0  0
  2  1  1  1
  2  3  1  0
  4  2  1  0
  4  5  1  6
  6  7  2  0
  6  4  1  0
  8  6  1  0
  9  8  1  0
 10  9  1  0
 11 10  1  0
 11 12  1  0
 12  8  1  0
 13 22  1  0
 12 13  1  1
 14 13  2  0
 16 15  1  0
 17 16  2  0
 18 17  1  0
 19 25  1  0
 19 18  2  0
 21 20  1  6
 20 19  1  0
 21 22  1  0
 23 21  1  0
 24 23  1  0
 25 26  2  0
 26 16  1  0
 27 23  2  0
M  END
$$$$
