TPY.pdb
     RDKit          3D

 27 28  0  0  1  0  0  0  0  0999 V2000
   23.4780  -17.4783  -15.4050 C   0  0  0  0  0  0  0  0  0  0  0  0
   23.0521  -18.4669  -16.4522 C   0  0  1  0  0  0  0  0  0  0  0  0
   22.4608  -17.7534  -17.4935 O   0  0  0  0  0  0  0  0  0  0  0  0
   24.2547  -19.1839  -17.0619 C   0  0  2  0  0  0  0  0  0  0  0  0
   23.8320  -19.8379  -18.2526 N   0  0  0  0  0  0  0  0  0  0  0  0
   24.9389  -20.0300  -16.1030 C   0  0  0  0  0  0  0  0  0  0  0  0
   24.3580  -21.0707  -15.7033 O   0  0  0  0  0  0  0  0  0  0  0  0
   26.2325  -19.7539  -15.5864 N   0  0  0  0  0  0  0  0  0  0  0  0
   27.1400  -18.7724  -16.0858 C   0  0  0  0  0  0  0  0  0  0  0  0
   28.0046  -18.4002  -14.8880 C   0  0  0  0  0  0  0  0  0  0  0  0
   28.2047  -19.8018  -14.2954 C   0  0  0  0  0  0  0  0  0  0  0  0
   26.8690  -20.4533  -14.4797 C   0  0  1  0  0  0  0  0  0  0  0  0
   26.0346  -20.3849  -13.2494 C   0  0  0  0  0  0  0  0  0  0  0  0
   25.3254  -19.3771  -12.9616 O   0  0  0  0  0  0  0  0  0  0  0  0
   26.6545  -19.1267   -4.9256 O   0  0  0  0  0  0  0  0  0  0  0  0
   26.7206  -19.6019   -6.2415 C   0  0  0  0  0  0  0  0  0  0  0  0
   27.5271  -18.9315   -7.1401 C   0  0  0  0  0  0  0  0  0  0  0  0
   27.6316  -19.3522   -8.4458 C   0  0  0  0  0  0  0  0  0  0  0  0
   26.9332  -20.4520   -8.8841 C   0  0  0  0  0  0  0  0  0  0  0  0
   27.0698  -20.8696  -10.2998 C   0  0  0  0  0  0  0  0  0  0  0  0
   25.7602  -21.3224  -10.9144 C   0  0  2  0  0  0  0  0  0  0  0  0
   26.0090  -21.4653  -12.3474 N   0  0  0  0  0  0  0  0  0  0  0  0
   24.6425  -20.4033  -10.6480 C   0  0  0  0  0  0  0  0  0  0  0  0
   23.4430  -20.8642  -10.1300 O   0  0  0  0  0  0  0  0  0  0  0  0
   26.1318  -21.1156   -7.9863 C   0  0  0  0  0  0  0  0  0  0  0  0
   26.0309  -20.6942   -6.6899 C   0  0  0  0  0  0  0  0  0  0  0  0
   24.7077  -19.1579  -10.8723 O   0  0  0  0  0  0  0  0  0  0  0  0
  2  1  1  1
  2  3  1  0
  4  2  1  0
  4  5  1  6
  6  7  2  0
  6  4  1  0
  8  6  1  0
  9  8  1  0
 10  9  1  0
 11 10  1  0
 11 12  1  0
 12  8  1  0
 13 22  1  0
 12 13  1  1
 14 13  2  0
 16 15  1  0
 17 16  2  0
 18 17  1  0
 19 25  1  0
 19 18  2  0
 21 20  1  1
 20 19  1  0
 21 22  1  0
 23 21  1  0
 24 23  1  0
 25 26  2  0
 26 16  1  0
 27 23  2  0
M  END
$$$$
