TPY.pdb
     RDKit          3D

 27 28  0  0  1  0  0  0  0  0999 V2000
   25.6301  -22.5284   -9.9962 C   0  0  0  0  0  0  0  0  0  0  0  0
   25.3957  -21.8520  -11.3165 C   0  0  1  0  0  0  0  0  0  0  0  0
   24.0540  -22.0280  -11.6508 O   0  0  0  0  0  0  0  0  0  0  0  0
   25.6104  -20.3436  -11.2144 C   0  0  2  0  0  0  0  0  0  0  0  0
   24.5911  -19.7995  -10.3843 N   0  0  0  0  0  0  0  0  0  0  0  0
   25.7482  -19.7153  -12.5144 C   0  0  0  0  0  0  0  0  0  0  0  0
   24.7417  -19.1537  -13.0161 O   0  0  0  0  0  0  0  0  0  0  0  0
   26.9576  -19.6943  -13.2583 N   0  0  0  0  0  0  0  0  0  0  0  0
   28.2529  -20.0225  -12.7574 C   0  0  0  0  0  0  0  0  0  0  0  0
   29.0314  -20.4953  -13.9786 C   0  0  0  0  0  0  0  0  0  0  0  0
   28.5368  -19.4547  -14.9925 C   0  0  0  0  0  0  0  0  0  0  0  0
   27.0868  -19.2970  -14.6527 C   0  0  1  0  0  0  0  0  0  0  0  0
   26.2103  -20.1199  -15.5297 C   0  0  0  0  0  0  0  0  0  0  0  0
   26.2218  -21.3852  -15.5109 O   0  0  0  0  0  0  0  0  0  0  0  0
   17.9404  -22.0269  -16.4701 O   0  0  0  0  0  0  0  0  0  0  0  0
   19.2243  -21.5168  -16.2395 C   0  0  0  0  0  0  0  0  0  0  0  0
   20.2828  -22.4028  -16.1959 C   0  0  0  0  0  0  0  0  0  0  0  0
   21.5661  -21.9597  -15.9728 C   0  0  0  0  0  0  0  0  0  0  0  0
   21.8218  -20.6219  -15.7883 C   0  0  0  0  0  0  0  0  0  0  0  0
   23.2177  -20.1863  -15.5460 C   0  0  0  0  0  0  0  0  0  0  0  0
   24.0327  -20.0685  -16.8187 C   0  0  2  0  0  0  0  0  0  0  0  0
   25.3211  -19.5003  -16.4280 N   0  0  0  0  0  0  0  0  0  0  0  0
   23.3769  -19.2593  -17.8580 C   0  0  0  0  0  0  0  0  0  0  0  0
   22.6902  -19.8549  -18.9037 O   0  0  0  0  0  0  0  0  0  0  0  0
   20.7652  -19.7442  -15.8322 C   0  0  0  0  0  0  0  0  0  0  0  0
   19.4918  -20.1886  -16.0542 C   0  0  0  0  0  0  0  0  0  0  0  0
   23.4002  -17.9924  -17.8600 O   0  0  0  0  0  0  0  0  0  0  0  0
  2  1  1  1
  2  3  1  0
  4  2  1  0
  4  5  1  6
  6  7  2  0
  6  4  1  0
  8  6  1  0
  9  8  1  0
 10  9  1  0
 11 10  1  0
 11 12  1  0
 12  8  1  0
 13 22  1  0
 12 13  1  6
 14 13  2  0
 16 15  1  0
 17 16  2  0
 18 17  1  0
 19 25  1  0
 19 18  2  0
 21 20  1  1
 20 19  1  0
 21 22  1  0
 23 21  1  0
 24 23  1  0
 25 26  2  0
 26 16  1  0
 27 23  2  0
M  END
$$$$
