TPY.pdb
     RDKit          3D

 27 28  0  0  1  0  0  0  0  0999 V2000
   26.5286  -20.7472  -19.4766 C   0  0  0  0  0  0  0  0  0  0  0  0
   27.5873  -21.8100  -19.4051 C   0  0  1  0  0  0  0  0  0  0  0  0
   28.2486  -21.8331  -20.6319 O   0  0  0  0  0  0  0  0  0  0  0  0
   28.6479  -21.4690  -18.3607 C   0  0  2  0  0  0  0  0  0  0  0  0
   29.6969  -22.4254  -18.4563 N   0  0  0  0  0  0  0  0  0  0  0  0
   28.0848  -21.3014  -17.0347 C   0  0  0  0  0  0  0  0  0  0  0  0
   27.7370  -22.3287  -16.3992 O   0  0  0  0  0  0  0  0  0  0  0  0
   27.9029  -20.0410  -16.4063 N   0  0  0  0  0  0  0  0  0  0  0  0
   28.3358  -18.7814  -16.9185 C   0  0  0  0  0  0  0  0  0  0  0  0
   27.3810  -17.7655  -16.3045 C   0  0  0  0  0  0  0  0  0  0  0  0
   27.3005  -18.3435  -14.8850 C   0  0  0  0  0  0  0  0  0  0  0  0
   27.2749  -19.8237  -15.1111 C   0  0  1  0  0  0  0  0  0  0  0  0
   25.8924  -20.3735  -15.0849 C   0  0  0  0  0  0  0  0  0  0  0  0
   25.1206  -20.3261  -16.0867 O   0  0  0  0  0  0  0  0  0  0  0  0
   25.9613  -20.2216   -7.8222 O   0  0  0  0  0  0  0  0  0  0  0  0
   25.5526  -20.8020   -9.0297 C   0  0  0  0  0  0  0  0  0  0  0  0
   24.2080  -20.7806   -9.3445 C   0  0  0  0  0  0  0  0  0  0  0  0
   23.7481  -21.3353  -10.5165 C   0  0  0  0  0  0  0  0  0  0  0  0
   24.6201  -21.9238  -11.4010 C   0  0  0  0  0  0  0  0  0  0  0  0
   24.0834  -22.5141  -12.6503 C   0  0  0  0  0  0  0  0  0  0  0  0
   24.0418  -21.5296  -13.8023 C   0  0  2  0  0  0  0  0  0  0  0  0
   25.3898  -20.9770  -13.9166 N   0  0  0  0  0  0  0  0  0  0  0  0
   23.0354  -20.4704  -13.6279 C   0  0  0  0  0  0  0  0  0  0  0  0
   21.6909  -20.7141  -13.8569 O   0  0  0  0  0  0  0  0  0  0  0  0
   25.9570  -21.9430  -11.0832 C   0  0  0  0  0  0  0  0  0  0  0  0
   26.4098  -21.3907   -9.9177 C   0  0  0  0  0  0  0  0  0  0  0  0
   23.3318  -19.2932  -13.2647 O   0  0  0  0  0  0  0  0  0  0  0  0
  2  1  1  6
  2  3  1  0
  4  2  1  0
  4  5  1  1
  6  7  2  0
  6  4  1  0
  8  6  1  0
  9  8  1  0
 10  9  1  0
 11 10  1  0
 11 12  1  0
 12  8  1  0
 13 22  1  0
 12 13  1  6
 14 13  2  0
 16 15  1  0
 17 16  2  0
 18 17  1  0
 19 25  1  0
 19 18  2  0
 21 20  1  1
 20 19  1  0
 21 22  1  0
 23 21  1  0
 24 23  1  0
 25 26  2  0
 26 16  1  0
 27 23  2  0
M  END
$$$$
