TPY.pdb
     RDKit          3D

 27 28  0  0  1  0  0  0  0  0999 V2000
   25.0083   -9.5787  -22.8689 C   0  0  0  0  0  0  0  0  0  0  0  0
   24.7762   -8.7060  -21.6690 C   0  0  1  0  0  0  0  0  0  0  0  0
   23.8851   -9.3700  -20.8276 O   0  0  0  0  0  0  0  0  0  0  0  0
   26.0586   -8.5184  -20.8613 C   0  0  2  0  0  0  0  0  0  0  0  0
   26.6633   -9.7927  -20.6755 N   0  0  0  0  0  0  0  0  0  0  0  0
   25.8409   -7.7560  -19.6469 C   0  0  0  0  0  0  0  0  0  0  0  0
   25.6730   -8.3827  -18.5701 O   0  0  0  0  0  0  0  0  0  0  0  0
   25.8071   -6.3372  -19.5994 N   0  0  0  0  0  0  0  0  0  0  0  0
   26.1155   -5.4571  -20.6794 C   0  0  0  0  0  0  0  0  0  0  0  0
   25.3251   -4.1890  -20.3828 C   0  0  0  0  0  0  0  0  0  0  0  0
   25.5654   -4.1085  -18.8690 C   0  0  0  0  0  0  0  0  0  0  0  0
   25.4873   -5.5369  -18.4261 C   0  0  1  0  0  0  0  0  0  0  0  0
   24.1454   -5.8864  -17.8863 C   0  0  0  0  0  0  0  0  0  0  0  0
   23.3402   -6.6458  -18.5000 O   0  0  0  0  0  0  0  0  0  0  0  0
   18.0809   -9.3128  -12.9628 O   0  0  0  0  0  0  0  0  0  0  0  0
   19.2259   -8.7854  -13.5734 C   0  0  0  0  0  0  0  0  0  0  0  0
   19.2676   -8.7340  -14.9528 C   0  0  0  0  0  0  0  0  0  0  0  0
   20.3660   -8.2265  -15.6078 C   0  0  0  0  0  0  0  0  0  0  0  0
   21.4476   -7.7588  -14.9005 C   0  0  0  0  0  0  0  0  0  0  0  0
   22.6131   -7.2244  -15.6443 C   0  0  0  0  0  0  0  0  0  0  0  0
   22.4743   -5.7550  -15.9899 C   0  0  2  0  0  0  0  0  0  0  0  0
   23.7214   -5.3701  -16.6473 N   0  0  0  0  0  0  0  0  0  0  0  0
   22.1935   -4.9054  -14.8218 C   0  0  0  0  0  0  0  0  0  0  0  0
   23.2203   -4.3702  -14.0610 O   0  0  0  0  0  0  0  0  0  0  0  0
   21.4015   -7.8124  -13.5279 C   0  0  0  0  0  0  0  0  0  0  0  0
   20.3083   -8.3172  -12.8812 C   0  0  0  0  0  0  0  0  0  0  0  0
   21.0177   -4.6174  -14.4474 O   0  0  0  0  0  0  0  0  0  0  0  0
  2  1  1  6
  2  3  1  0
  4  2  1  0
  4  5  1  1
  6  7  2  0
  6  4  1  0
  8  6  1  0
  9  8  1  0
 10  9  1  0
 11 10  1  0
 11 12  1  0
 12  8  1  0
 13 22  1  0
 12 13  1  6
 14 13  2  0
 16 15  1  0
 17 16  2  0
 18 17  1  0
 19 25  1  0
 19 18  2  0
 21 20  1  1
 20 19  1  0
 21 22  1  0
 23 21  1  0
 24 23  1  0
 25 26  2  0
 26 16  1  0
 27 23  2  0
M  END
$$$$
