TPY.pdb
     RDKit          3D

 27 28  0  0  1  0  0  0  0  0999 V2000
   15.9599   -4.1819  -19.7741 C   0  0  0  0  0  0  0  0  0  0  0  0
   16.2776   -5.6496  -19.7903 C   0  0  1  0  0  0  0  0  0  0  0  0
   15.2936   -6.2882  -20.5432 O   0  0  0  0  0  0  0  0  0  0  0  0
   17.5994   -5.9247  -20.5038 C   0  0  2  0  0  0  0  0  0  0  0  0
   17.6843   -7.3195  -20.7711 N   0  0  0  0  0  0  0  0  0  0  0  0
   18.7356   -5.3612  -19.8001 C   0  0  0  0  0  0  0  0  0  0  0  0
   19.0312   -5.8292  -18.6715 O   0  0  0  0  0  0  0  0  0  0  0  0
   19.5397   -4.3085  -20.3116 N   0  0  0  0  0  0  0  0  0  0  0  0
   19.4901   -3.7882  -21.6395 C   0  0  0  0  0  0  0  0  0  0  0  0
   19.9792   -2.3512  -21.5104 C   0  0  0  0  0  0  0  0  0  0  0  0
   21.1300   -2.5804  -20.5211 C   0  0  0  0  0  0  0  0  0  0  0  0
   20.5804   -3.6044  -19.5765 C   0  0  1  0  0  0  0  0  0  0  0  0
   20.0393   -2.9907  -18.3335 C   0  0  0  0  0  0  0  0  0  0  0  0
   18.8032   -2.7844  -18.1571 O   0  0  0  0  0  0  0  0  0  0  0  0
   22.4831   -7.9046  -14.2809 O   0  0  0  0  0  0  0  0  0  0  0  0
   21.8035   -6.7005  -14.5051 C   0  0  0  0  0  0  0  0  0  0  0  0
   20.8404   -6.6665  -15.4944 C   0  0  0  0  0  0  0  0  0  0  0  0
   20.1407   -5.5120  -15.7595 C   0  0  0  0  0  0  0  0  0  0  0  0
   20.3865   -4.3652  -15.0429 C   0  0  0  0  0  0  0  0  0  0  0  0
   19.6140   -3.1412  -15.3630 C   0  0  0  0  0  0  0  0  0  0  0  0
   20.4548   -2.0620  -16.0159 C   0  0  2  0  0  0  0  0  0  0  0  0
   20.9073   -2.6122  -17.2919 N   0  0  0  0  0  0  0  0  0  0  0  0
   21.5862   -1.6217  -15.1846 C   0  0  0  0  0  0  0  0  0  0  0  0
   22.8950   -1.7949  -15.6050 O   0  0  0  0  0  0  0  0  0  0  0  0
   21.3460   -4.4039  -14.0597 C   0  0  0  0  0  0  0  0  0  0  0  0
   22.0388   -5.5531  -13.7995 C   0  0  0  0  0  0  0  0  0  0  0  0
   21.4352   -1.0680  -14.0548 O   0  0  0  0  0  0  0  0  0  0  0  0
  2  1  1  6
  2  3  1  0
  4  2  1  0
  4  5  1  1
  6  7  2  0
  6  4  1  0
  8  6  1  0
  9  8  1  0
 10  9  1  0
 11 10  1  0
 11 12  1  0
 12  8  1  0
 13 22  1  0
 12 13  1  1
 14 13  2  0
 16 15  1  0
 17 16  2  0
 18 17  1  0
 19 25  1  0
 19 18  2  0
 21 20  1  1
 20 19  1  0
 21 22  1  0
 23 21  1  0
 24 23  1  0
 25 26  2  0
 26 16  1  0
 27 23  2  0
M  END
$$$$
