TPY.pdb
     RDKit          3D

 27 28  0  0  1  0  0  0  0  0999 V2000
   28.8933  -17.9388  -16.8662 C   0  0  0  0  0  0  0  0  0  0  0  0
   28.4442  -18.6092  -15.5997 C   0  0  1  0  0  0  0  0  0  0  0  0
   27.0612  -18.4603  -15.5084 O   0  0  0  0  0  0  0  0  0  0  0  0
   28.7043  -20.1132  -15.6441 C   0  0  2  0  0  0  0  0  0  0  0  0
   28.2034  -20.6200  -16.8755 N   0  0  0  0  0  0  0  0  0  0  0  0
   28.2240  -20.7930  -14.4563 C   0  0  0  0  0  0  0  0  0  0  0  0
   27.0499  -21.2420  -14.4586 O   0  0  0  0  0  0  0  0  0  0  0  0
   29.0039  -20.9847  -13.2851 N   0  0  0  0  0  0  0  0  0  0  0  0
   30.4170  -20.8135  -13.1846 C   0  0  0  0  0  0  0  0  0  0  0  0
   30.6619  -20.4711  -11.7204 C   0  0  0  0  0  0  0  0  0  0  0  0
   29.6818  -21.4624  -11.0781 C   0  0  0  0  0  0  0  0  0  0  0  0
   28.4974  -21.4261  -11.9938 C   0  0  1  0  0  0  0  0  0  0  0  0
   27.4288  -20.5178  -11.4963 C   0  0  0  0  0  0  0  0  0  0  0  0
   27.4856  -19.2606  -11.6301 O   0  0  0  0  0  0  0  0  0  0  0  0
   21.5772  -23.9158  -13.9643 O   0  0  0  0  0  0  0  0  0  0  0  0
   22.2236  -22.8715  -13.2908 C   0  0  0  0  0  0  0  0  0  0  0  0
   23.5030  -22.5315  -13.6842 C   0  0  0  0  0  0  0  0  0  0  0  0
   24.1871  -21.5144  -13.0594 C   0  0  0  0  0  0  0  0  0  0  0  0
   23.6094  -20.8136  -12.0278 C   0  0  0  0  0  0  0  0  0  0  0  0
   24.3821  -19.7282  -11.3781 C   0  0  0  0  0  0  0  0  0  0  0  0
   25.2528  -20.2189  -10.2385 C   0  0  2  0  0  0  0  0  0  0  0  0
   26.2958  -21.0425  -10.8463 N   0  0  0  0  0  0  0  0  0  0  0  0
   24.5053  -20.9625   -9.2121 C   0  0  0  0  0  0  0  0  0  0  0  0
   23.5226  -20.3469   -8.4539 O   0  0  0  0  0  0  0  0  0  0  0  0
   22.3362  -21.1559  -11.6397 C   0  0  0  0  0  0  0  0  0  0  0  0
   21.6600  -22.1670  -12.2632 C   0  0  0  0  0  0  0  0  0  0  0  0
   24.7112  -22.1879   -8.9638 O   0  0  0  0  0  0  0  0  0  0  0  0
  2  1  1  6
  2  3  1  0
  4  2  1  0
  4  5  1  6
  6  7  2  0
  6  4  1  0
  8  6  1  0
  9  8  1  0
 10  9  1  0
 11 10  1  0
 11 12  1  0
 12  8  1  0
 13 22  1  0
 12 13  1  1
 14 13  2  0
 16 15  1  0
 17 16  2  0
 18 17  1  0
 19 25  1  0
 19 18  2  0
 21 20  1  6
 20 19  1  0
 21 22  1  0
 23 21  1  0
 24 23  1  0
 25 26  2  0
 26 16  1  0
 27 23  2  0
M  END
$$$$
