TPY.pdb
     RDKit          3D

 27 28  0  0  1  0  0  0  0  0999 V2000
   27.1416  -16.4895  -15.8523 C   0  0  0  0  0  0  0  0  0  0  0  0
   27.0155  -16.5250  -17.3484 C   0  0  1  0  0  0  0  0  0  0  0  0
   27.9586  -15.6436  -17.8745 O   0  0  0  0  0  0  0  0  0  0  0  0
   27.3701  -17.9026  -17.9038 C   0  0  2  0  0  0  0  0  0  0  0  0
   27.4751  -17.8033  -19.3192 N   0  0  0  0  0  0  0  0  0  0  0  0
   26.4774  -18.9395  -17.4227 C   0  0  0  0  0  0  0  0  0  0  0  0
   25.2609  -18.8712  -17.7319 O   0  0  0  0  0  0  0  0  0  0  0  0
   26.8963  -20.0339  -16.6206 N   0  0  0  0  0  0  0  0  0  0  0  0
   28.2479  -20.4042  -16.3518 C   0  0  0  0  0  0  0  0  0  0  0  0
   28.1924  -21.1233  -15.0099 C   0  0  0  0  0  0  0  0  0  0  0  0
   26.9106  -21.9382  -15.2305 C   0  0  0  0  0  0  0  0  0  0  0  0
   26.0148  -20.9890  -15.9649 C   0  0  1  0  0  0  0  0  0  0  0  0
   25.0575  -20.3015  -15.0566 C   0  0  0  0  0  0  0  0  0  0  0  0
   25.4350  -19.5675  -14.0972 O   0  0  0  0  0  0  0  0  0  0  0  0
   21.3880  -16.5730  -19.8070 O   0  0  0  0  0  0  0  0  0  0  0  0
   21.6879  -17.0135  -18.5116 C   0  0  0  0  0  0  0  0  0  0  0  0
   23.0060  -16.9879  -18.1001 C   0  0  0  0  0  0  0  0  0  0  0  0
   23.3604  -17.4084  -16.8389 C   0  0  0  0  0  0  0  0  0  0  0  0
   22.4070  -17.8640  -15.9600 C   0  0  0  0  0  0  0  0  0  0  0  0
   22.8311  -18.3124  -14.6123 C   0  0  0  0  0  0  0  0  0  0  0  0
   22.6634  -19.8043  -14.4026 C   0  0  2  0  0  0  0  0  0  0  0  0
   23.6700  -20.4508  -15.2418 N   0  0  0  0  0  0  0  0  0  0  0  0
   21.3087  -20.2878  -14.7123 C   0  0  0  0  0  0  0  0  0  0  0  0
   21.0789  -21.1439  -15.7772 O   0  0  0  0  0  0  0  0  0  0  0  0
   21.0968  -17.8879  -16.3743 C   0  0  0  0  0  0  0  0  0  0  0  0
   20.7490  -17.4691  -17.6281 C   0  0  0  0  0  0  0  0  0  0  0  0
   20.2890  -19.9568  -14.0368 O   0  0  0  0  0  0  0  0  0  0  0  0
  2  1  1  1
  2  3  1  0
  4  2  1  0
  4  5  1  6
  6  7  2  0
  6  4  1  0
  8  6  1  0
  9  8  1  0
 10  9  1  0
 11 10  1  0
 11 12  1  0
 12  8  1  0
 13 22  1  0
 12 13  1  1
 14 13  2  0
 16 15  1  0
 17 16  2  0
 18 17  1  0
 19 25  1  0
 19 18  2  0
 21 20  1  6
 20 19  1  0
 21 22  1  0
 23 21  1  0
 24 23  1  0
 25 26  2  0
 26 16  1  0
 27 23  2  0
M  END
$$$$
