YCA.pdb
     RDKit          3D

 24 24  0  0  1  0  0  0  0  0999 V2000
   22.5585   -6.4871  -26.0721 O   0  0  0  0  0  0  0  0  0  0  0  0
   22.0508   -6.7328  -24.7835 C   0  0  0  0  0  0  0  0  0  0  0  0
   22.8338   -6.4478  -23.6845 C   0  0  0  0  0  0  0  0  0  0  0  0
   22.3451   -6.6852  -22.4114 C   0  0  0  0  0  0  0  0  0  0  0  0
   21.0742   -7.2082  -22.2037 C   0  0  0  0  0  0  0  0  0  0  0  0
   20.5704   -7.4553  -20.8186 C   0  0  0  0  0  0  0  0  0  0  0  0
   21.1674   -8.7608  -20.3463 C   0  0  2  0  0  0  0  0  0  0  0  0
   20.4561   -9.8270  -20.9909 N   0  0  0  0  0  0  0  0  0  0  0  0
   21.1723   -8.8736  -18.8700 C   0  0  0  0  0  0  0  0  0  0  0  0
   20.1461   -9.3229  -18.2988 O   0  0  0  0  0  0  0  0  0  0  0  0
   20.3207   -7.4805  -23.3272 C   0  0  0  0  0  0  0  0  0  0  0  0
   20.7912   -7.2501  -24.6113 C   0  0  0  0  0  0  0  0  0  0  0  0
   22.2546   -8.5108  -18.0426 N   0  0  0  0  0  0  0  0  0  0  0  0
   22.3100   -8.6243  -16.6253 C   0  0  1  0  0  0  0  0  0  0  0  0
   23.6022   -9.1732  -16.0933 C   0  0  0  0  0  0  0  0  0  0  0  0
   23.6305   -9.3561  -14.3172 S   0  0  0  0  0  0  0  0  0  0  0  0
   21.9310   -7.3531  -15.9601 C   0  0  0  0  0  0  0  0  0  0  0  0
   22.5346   -6.3080  -16.3112 O   0  0  0  0  0  0  0  0  0  0  0  0
   19.3723   -6.1745  -13.3961 C   0  0  0  0  0  0  0  0  0  0  0  0
   20.5711   -6.0462  -14.2949 C   0  0  2  0  0  0  0  0  0  0  0  0
   20.9274   -7.2725  -14.9570 N   0  0  0  0  0  0  0  0  0  0  0  0
   21.7270   -5.4236  -13.6014 C   0  0  0  0  0  0  0  0  0  0  0  0
   22.4829   -6.1753  -12.9377 O   0  0  0  0  0  0  0  0  0  0  0  0
   21.9971   -4.0826  -13.6561 O   0  0  0  0  0  0  0  0  0  0  0  0
  1  2  1  0
  2  3  2  0
  3  4  1  0
  5  4  2  0
  5  6  1  0
  6  7  1  0
  7  8  1  6
  9  7  1  0
  9 13  1  0
 10  9  2  0
 11  5  1  0
 12  2  1  0
 12 11  2  0
 14 13  1  0
 14 17  1  0
 14 15  1  6
 16 15  1  0
 17 18  2  0
 20 19  1  1
 21 17  1  0
 21 20  1  0
 22 20  1  0
 22 24  1  0
 23 22  2  0
M  END
$$$$
