YCA.pdb
     RDKit          3D

 24 24  0  0  1  0  0  0  0  0999 V2000
   24.7092  -11.6383  -14.6872 O   0  0  0  0  0  0  0  0  0  0  0  0
   23.9007  -10.5786  -15.1367 C   0  0  0  0  0  0  0  0  0  0  0  0
   23.5546  -10.5131  -16.4701 C   0  0  0  0  0  0  0  0  0  0  0  0
   22.7594   -9.4750  -16.9243 C   0  0  0  0  0  0  0  0  0  0  0  0
   22.2933   -8.4846  -16.0678 C   0  0  0  0  0  0  0  0  0  0  0  0
   21.4362   -7.3744  -16.5836 C   0  0  0  0  0  0  0  0  0  0  0  0
   20.0424   -7.5891  -16.0404 C   0  0  2  0  0  0  0  0  0  0  0  0
   19.5398   -8.8136  -16.5938 N   0  0  0  0  0  0  0  0  0  0  0  0
   19.1572   -6.4296  -16.2934 C   0  0  0  0  0  0  0  0  0  0  0  0
   18.5135   -6.3899  -17.3728 O   0  0  0  0  0  0  0  0  0  0  0  0
   22.6604   -8.5840  -14.7413 C   0  0  0  0  0  0  0  0  0  0  0  0
   23.4561   -9.6155  -14.2657 C   0  0  0  0  0  0  0  0  0  0  0  0
   18.9773   -5.3502  -15.4044 N   0  0  0  0  0  0  0  0  0  0  0  0
   18.1124   -4.2361  -15.5918 C   0  0  1  0  0  0  0  0  0  0  0  0
   16.8511   -4.2816  -14.7788 C   0  0  0  0  0  0  0  0  0  0  0  0
   15.8988   -5.7746  -15.0091 S   0  0  0  0  0  0  0  0  0  0  0  0
   18.8340   -2.9501  -15.4257 C   0  0  0  0  0  0  0  0  0  0  0  0
   19.5799   -2.8247  -14.4219 O   0  0  0  0  0  0  0  0  0  0  0  0
   19.3620    0.2473  -17.4184 C   0  0  0  0  0  0  0  0  0  0  0  0
   19.4360   -0.6337  -16.2020 C   0  0  2  0  0  0  0  0  0  0  0  0
   18.7164   -1.8712  -16.3435 N   0  0  0  0  0  0  0  0  0  0  0  0
   19.0684    0.0933  -14.9607 C   0  0  0  0  0  0  0  0  0  0  0  0
   19.8257    1.0204  -14.5817 O   0  0  0  0  0  0  0  0  0  0  0  0
   17.9530   -0.2030  -14.2240 O   0  0  0  0  0  0  0  0  0  0  0  0
  1  2  1  0
  2  3  2  0
  3  4  1  0
  5  4  2  0
  5  6  1  0
  6  7  1  0
  7  8  1  6
  9  7  1  0
  9 13  1  0
 10  9  2  0
 11  5  1  0
 12  2  1  0
 12 11  2  0
 14 13  1  0
 14 17  1  0
 14 15  1  1
 16 15  1  0
 17 18  2  0
 20 19  1  6
 21 17  1  0
 21 20  1  0
 22 20  1  0
 22 24  1  0
 23 22  2  0
M  END
$$$$
