YCA.pdb
     RDKit          3D

 24 24  0  0  1  0  0  0  0  0999 V2000
   20.2756  -15.4093  -20.5496 O   0  0  0  0  0  0  0  0  0  0  0  0
   19.8277  -14.3091  -19.7961 C   0  0  0  0  0  0  0  0  0  0  0  0
   20.5138  -13.1152  -19.8725 C   0  0  0  0  0  0  0  0  0  0  0  0
   20.0826  -12.0256  -19.1357 C   0  0  0  0  0  0  0  0  0  0  0  0
   18.9660  -12.0982  -18.3113 C   0  0  0  0  0  0  0  0  0  0  0  0
   18.5213  -10.9070  -17.5261 C   0  0  0  0  0  0  0  0  0  0  0  0
   19.6608  -10.5153  -16.6140 C   0  0  2  0  0  0  0  0  0  0  0  0
   19.9118  -11.6158  -15.7284 N   0  0  0  0  0  0  0  0  0  0  0  0
   19.3980   -9.2438  -15.9025 C   0  0  0  0  0  0  0  0  0  0  0  0
   19.0581   -8.2381  -16.5763 O   0  0  0  0  0  0  0  0  0  0  0  0
   18.3058  -13.3090  -18.2610 C   0  0  0  0  0  0  0  0  0  0  0  0
   18.7210  -14.4127  -18.9908 C   0  0  0  0  0  0  0  0  0  0  0  0
   19.5009   -9.0707  -14.5071 N   0  0  0  0  0  0  0  0  0  0  0  0
   19.2169   -7.8812  -13.7799 C   0  0  1  0  0  0  0  0  0  0  0  0
   18.4898   -8.1001  -12.4848 C   0  0  0  0  0  0  0  0  0  0  0  0
   16.9873   -9.0505  -12.6536 S   0  0  0  0  0  0  0  0  0  0  0  0
   20.4313   -7.0472  -13.6008 C   0  0  0  0  0  0  0  0  0  0  0  0
   21.3789   -7.5320  -12.9324 O   0  0  0  0  0  0  0  0  0  0  0  0
   22.5509   -4.9020  -15.3310 C   0  0  0  0  0  0  0  0  0  0  0  0
   21.7680   -4.9632  -14.0485 C   0  0  2  0  0  0  0  0  0  0  0  0
   20.5624   -5.7417  -14.1473 N   0  0  0  0  0  0  0  0  0  0  0  0
   21.5229   -3.6148  -13.4771 C   0  0  0  0  0  0  0  0  0  0  0  0
   20.3565   -3.1550  -13.5465 O   0  0  0  0  0  0  0  0  0  0  0  0
   22.5039   -2.8643  -12.8864 O   0  0  0  0  0  0  0  0  0  0  0  0
  1  2  1  0
  2  3  2  0
  3  4  1  0
  5  4  2  0
  5  6  1  0
  6  7  1  0
  7  8  1  1
  9  7  1  0
  9 13  1  0
 10  9  2  0
 11  5  1  0
 12  2  1  0
 12 11  2  0
 14 13  1  0
 14 17  1  0
 14 15  1  1
 16 15  1  0
 17 18  2  0
 20 19  1  6
 21 17  1  0
 21 20  1  0
 22 20  1  0
 22 24  1  0
 23 22  2  0
M  END
$$$$
