YCA.pdb
     RDKit          3D

 24 24  0  0  1  0  0  0  0  0999 V2000
   23.0968  -21.3549   -8.2289 O   0  0  0  0  0  0  0  0  0  0  0  0
   23.9123  -21.0131   -9.3230 C   0  0  0  0  0  0  0  0  0  0  0  0
   25.2814  -21.1315   -9.2063 C   0  0  0  0  0  0  0  0  0  0  0  0
   26.0943  -20.7982  -10.2761 C   0  0  0  0  0  0  0  0  0  0  0  0
   25.5671  -20.3425  -11.4787 C   0  0  0  0  0  0  0  0  0  0  0  0
   26.4669  -19.9892  -12.6183 C   0  0  0  0  0  0  0  0  0  0  0  0
   25.9649  -20.7285  -13.8370 C   0  0  2  0  0  0  0  0  0  0  0  0
   26.3829  -22.0962  -13.7233 N   0  0  0  0  0  0  0  0  0  0  0  0
   26.4010  -20.0898  -15.0996 C   0  0  0  0  0  0  0  0  0  0  0  0
   27.5782  -20.2853  -15.4959 O   0  0  0  0  0  0  0  0  0  0  0  0
   24.1935  -20.2374  -11.5573 C   0  0  0  0  0  0  0  0  0  0  0  0
   23.3611  -20.5659  -10.4978 C   0  0  0  0  0  0  0  0  0  0  0  0
   25.5864  -19.2669  -15.9040 N   0  0  0  0  0  0  0  0  0  0  0  0
   25.9499  -18.6713  -17.1439 C   0  0  1  0  0  0  0  0  0  0  0  0
   25.2135  -19.2117  -18.3354 C   0  0  0  0  0  0  0  0  0  0  0  0
   25.1709  -20.9955  -18.4081 S   0  0  0  0  0  0  0  0  0  0  0  0
   25.8877  -17.1901  -17.0776 C   0  0  0  0  0  0  0  0  0  0  0  0
   24.8388  -16.6698  -16.6206 O   0  0  0  0  0  0  0  0  0  0  0  0
   28.2263  -14.2481  -17.6398 C   0  0  0  0  0  0  0  0  0  0  0  0
   26.8906  -14.9135  -17.4544 C   0  0  2  0  0  0  0  0  0  0  0  0
   26.9517  -16.3499  -17.5042 N   0  0  0  0  0  0  0  0  0  0  0  0
   25.8582  -14.3614  -18.3676 C   0  0  0  0  0  0  0  0  0  0  0  0
   25.6924  -14.9322  -19.4737 O   0  0  0  0  0  0  0  0  0  0  0  0
   25.0915  -13.2707  -18.0560 O   0  0  0  0  0  0  0  0  0  0  0  0
  1  2  1  0
  2  3  2  0
  3  4  1  0
  5  4  2  0
  5  6  1  0
  6  7  1  0
  7  8  1  1
  9  7  1  0
  9 13  1  0
 10  9  2  0
 11  5  1  0
 12  2  1  0
 12 11  2  0
 14 13  1  0
 14 17  1  0
 14 15  1  6
 16 15  1  0
 17 18  2  0
 20 19  1  6
 21 17  1  0
 21 20  1  0
 22 20  1  0
 22 24  1  0
 23 22  2  0
M  END
$$$$
