YCA.pdb
     RDKit          3D

 24 24  0  0  1  0  0  0  0  0999 V2000
   17.2390  -20.6704  -18.6183 O   0  0  0  0  0  0  0  0  0  0  0  0
   17.5365  -21.6264  -17.6302 C   0  0  0  0  0  0  0  0  0  0  0  0
   17.0747  -21.4338  -16.3450 C   0  0  0  0  0  0  0  0  0  0  0  0
   17.3610  -22.3676  -15.3640 C   0  0  0  0  0  0  0  0  0  0  0  0
   18.1084  -23.5070  -15.6374 C   0  0  0  0  0  0  0  0  0  0  0  0
   18.4036  -24.4998  -14.5601 C   0  0  0  0  0  0  0  0  0  0  0  0
   19.3430  -23.8370  -13.5792 C   0  0  2  0  0  0  0  0  0  0  0  0
   20.5595  -23.5308  -14.2754 N   0  0  0  0  0  0  0  0  0  0  0  0
   19.5576  -24.6580  -12.3660 C   0  0  0  0  0  0  0  0  0  0  0  0
   20.4593  -25.5342  -12.3859 O   0  0  0  0  0  0  0  0  0  0  0  0
   18.5529  -23.6649  -16.9343 C   0  0  0  0  0  0  0  0  0  0  0  0
   18.2774  -22.7417  -17.9318 C   0  0  0  0  0  0  0  0  0  0  0  0
   18.8183  -24.5316  -11.1722 N   0  0  0  0  0  0  0  0  0  0  0  0
   18.9930  -25.2963   -9.9850 C   0  0  1  0  0  0  0  0  0  0  0  0
   18.3473  -24.7087   -8.7637 C   0  0  0  0  0  0  0  0  0  0  0  0
   16.9003  -23.7235   -9.1168 S   0  0  0  0  0  0  0  0  0  0  0  0
   18.6093  -26.7154  -10.1877 C   0  0  0  0  0  0  0  0  0  0  0  0
   17.6291  -26.9536  -10.9375 O   0  0  0  0  0  0  0  0  0  0  0  0
   19.9365  -29.9994  -10.4757 C   0  0  0  0  0  0  0  0  0  0  0  0
   18.9113  -29.1742   -9.7481 C   0  0  2  0  0  0  0  0  0  0  0  0
   19.2964  -27.7990   -9.5764 N   0  0  0  0  0  0  0  0  0  0  0  0
   18.4879  -29.8046   -8.4721 C   0  0  0  0  0  0  0  0  0  0  0  0
   18.7169  -29.1784   -7.4081 O   0  0  0  0  0  0  0  0  0  0  0  0
   17.8672  -31.0233   -8.4109 O   0  0  0  0  0  0  0  0  0  0  0  0
  1  2  1  0
  2  3  2  0
  3  4  1  0
  5  4  2  0
  5  6  1  0
  6  7  1  0
  7  8  1  6
  9  7  1  0
  9 13  1  0
 10  9  2  0
 11  5  1  0
 12  2  1  0
 12 11  2  0
 14 13  1  0
 14 17  1  0
 14 15  1  1
 16 15  1  0
 17 18  2  0
 20 19  1  1
 21 17  1  0
 21 20  1  0
 22 20  1  0
 22 24  1  0
 23 22  2  0
M  END
$$$$
