YCA.pdb
     RDKit          3D

 24 24  0  0  1  0  0  0  0  0999 V2000
   25.3198  -13.6415  -22.6508 O   0  0  0  0  0  0  0  0  0  0  0  0
   24.3996  -12.9260  -21.8633 C   0  0  0  0  0  0  0  0  0  0  0  0
   23.0728  -13.3024  -21.8673 C   0  0  0  0  0  0  0  0  0  0  0  0
   22.1579  -12.6059  -21.0964 C   0  0  0  0  0  0  0  0  0  0  0  0
   22.5396  -11.5261  -20.3091 C   0  0  0  0  0  0  0  0  0  0  0  0
   21.5319  -10.7910  -19.4861 C   0  0  0  0  0  0  0  0  0  0  0  0
   21.5102  -11.4326  -18.1180 C   0  0  2  0  0  0  0  0  0  0  0  0
   21.0556  -12.7843  -18.2747 N   0  0  0  0  0  0  0  0  0  0  0  0
   20.7053  -10.6567  -17.1473 C   0  0  0  0  0  0  0  0  0  0  0  0
   19.5178  -11.0105  -16.9336 O   0  0  0  0  0  0  0  0  0  0  0  0
   23.8751  -11.1795  -20.3312 C   0  0  0  0  0  0  0  0  0  0  0  0
   24.8079  -11.8636  -21.0962 C   0  0  0  0  0  0  0  0  0  0  0  0
   21.1742   -9.5351  -16.4333 N   0  0  0  0  0  0  0  0  0  0  0  0
   20.4442   -8.7774  -15.4755 C   0  0  1  0  0  0  0  0  0  0  0  0
   19.8729   -9.5843  -14.3457 C   0  0  0  0  0  0  0  0  0  0  0  0
   19.2407   -8.5942  -13.0006 S   0  0  0  0  0  0  0  0  0  0  0  0
   21.2264   -7.6147  -14.9874 C   0  0  0  0  0  0  0  0  0  0  0  0
   22.3362   -7.8445  -14.4439 O   0  0  0  0  0  0  0  0  0  0  0  0
   21.0760   -3.8361  -15.3029 C   0  0  0  0  0  0  0  0  0  0  0  0
   21.5758   -5.1358  -14.7351 C   0  0  2  0  0  0  0  0  0  0  0  0
   20.7765   -6.2719  -15.1087 N   0  0  0  0  0  0  0  0  0  0  0  0
   21.7951   -5.0588  -13.2686 C   0  0  0  0  0  0  0  0  0  0  0  0
   20.9035   -5.5292  -12.5199 O   0  0  0  0  0  0  0  0  0  0  0  0
   22.9143   -4.5034  -12.7088 O   0  0  0  0  0  0  0  0  0  0  0  0
  1  2  1  0
  2  3  2  0
  3  4  1  0
  5  4  2  0
  5  6  1  0
  6  7  1  0
  7  8  1  6
  9  7  1  0
  9 13  1  0
 10  9  2  0
 11  5  1  0
 12  2  1  0
 12 11  2  0
 14 13  1  0
 14 17  1  0
 14 15  1  1
 16 15  1  0
 17 18  2  0
 20 19  1  1
 21 17  1  0
 21 20  1  0
 22 20  1  0
 22 24  1  0
 23 22  2  0
M  END
$$$$
