YCA.pdb
     RDKit          3D

 24 24  0  0  1  0  0  0  0  0999 V2000
   22.5844  -10.6405    6.3822 O   0  0  0  0  0  0  0  0  0  0  0  0
   21.3860  -11.3259    6.6519 C   0  0  0  0  0  0  0  0  0  0  0  0
   20.2808  -11.0883    5.8618 C   0  0  0  0  0  0  0  0  0  0  0  0
   19.0959  -11.7567    6.1174 C   0  0  0  0  0  0  0  0  0  0  0  0
   18.9840  -12.6710    7.1582 C   0  0  0  0  0  0  0  0  0  0  0  0
   17.6930  -13.3793    7.4130 C   0  0  0  0  0  0  0  0  0  0  0  0
   17.5748  -14.4861    6.3909 C   0  0  2  0  0  0  0  0  0  0  0  0
   16.4916  -14.1558    5.5101 N   0  0  0  0  0  0  0  0  0  0  0  0
   17.4274  -15.8178    7.0208 C   0  0  0  0  0  0  0  0  0  0  0  0
   16.2683  -16.2654    7.2141 O   0  0  0  0  0  0  0  0  0  0  0  0
   20.1107  -12.8821    7.9265 C   0  0  0  0  0  0  0  0  0  0  0  0
   21.3073  -12.2231    7.6876 C   0  0  0  0  0  0  0  0  0  0  0  0
   18.5019  -16.6353    7.4268 N   0  0  0  0  0  0  0  0  0  0  0  0
   18.4075  -17.9460    7.9722 C   0  0  1  0  0  0  0  0  0  0  0  0
   18.0670  -19.0143    6.9739 C   0  0  0  0  0  0  0  0  0  0  0  0
   18.9130  -18.8365    5.4113 S   0  0  0  0  0  0  0  0  0  0  0  0
   19.6098  -18.2939    8.7695 C   0  0  0  0  0  0  0  0  0  0  0  0
   20.7334  -17.9955    8.2918 O   0  0  0  0  0  0  0  0  0  0  0  0
   20.4033  -19.5848   12.2473 C   0  0  0  0  0  0  0  0  0  0  0  0
   20.7044  -19.2918   10.8033 C   0  0  2  0  0  0  0  0  0  0  0  0
   19.5413  -18.9415   10.0329 N   0  0  0  0  0  0  0  0  0  0  0  0
   21.4979  -20.3730   10.1662 C   0  0  0  0  0  0  0  0  0  0  0  0
   20.8861  -21.1959    9.4414 O   0  0  0  0  0  0  0  0  0  0  0  0
   22.8500  -20.5061   10.3352 O   0  0  0  0  0  0  0  0  0  0  0  0
  1  2  1  0
  2  3  2  0
  3  4  1  0
  5  4  2  0
  5  6  1  0
  6  7  1  0
  7  8  1  6
  9  7  1  0
  9 13  1  0
 10  9  2  0
 11  5  1  0
 12  2  1  0
 12 11  2  0
 14 13  1  0
 14 17  1  0
 14 15  1  6
 16 15  1  0
 17 18  2  0
 20 19  1  1
 21 17  1  0
 21 20  1  0
 22 20  1  0
 22 24  1  0
 23 22  2  0
M  END
$$$$
