YCA.pdb
     RDKit          3D

 24 24  0  0  1  0  0  0  0  0999 V2000
   18.8417  -24.8272  -12.9933 O   0  0  0  0  0  0  0  0  0  0  0  0
   19.7527  -25.5262  -13.8059 C   0  0  0  0  0  0  0  0  0  0  0  0
   21.0706  -25.6240  -13.4116 C   0  0  0  0  0  0  0  0  0  0  0  0
   21.9764  -26.3093  -14.2029 C   0  0  0  0  0  0  0  0  0  0  0  0
   21.5942  -26.9091  -15.3969 C   0  0  0  0  0  0  0  0  0  0  0  0
   22.5920  -27.6431  -16.2330 C   0  0  0  0  0  0  0  0  0  0  0  0
   23.3365  -26.6163  -17.0546 C   0  0  2  0  0  0  0  0  0  0  0  0
   22.4106  -26.0507  -17.9934 N   0  0  0  0  0  0  0  0  0  0  0  0
   24.5448  -27.1812  -17.6972 C   0  0  0  0  0  0  0  0  0  0  0  0
   24.5025  -27.4481  -18.9253 O   0  0  0  0  0  0  0  0  0  0  0  0
   20.2677  -26.7898  -15.7580 C   0  0  0  0  0  0  0  0  0  0  0  0
   19.3442  -26.1079  -14.9801 C   0  0  0  0  0  0  0  0  0  0  0  0
   25.7574  -27.4469  -17.0290 N   0  0  0  0  0  0  0  0  0  0  0  0
   26.9734  -27.8825  -17.6258 C   0  0  1  0  0  0  0  0  0  0  0  0
   28.1516  -26.9894  -17.3645 C   0  0  0  0  0  0  0  0  0  0  0  0
   28.3319  -26.5169  -15.6519 S   0  0  0  0  0  0  0  0  0  0  0  0
   27.2668  -29.2994  -17.2966 C   0  0  0  0  0  0  0  0  0  0  0  0
   26.7020  -29.7934  -16.2883 O   0  0  0  0  0  0  0  0  0  0  0  0
   28.8168  -31.6911  -16.3034 C   0  0  0  0  0  0  0  0  0  0  0  0
   28.4431  -31.4780  -17.7443 C   0  0  2  0  0  0  0  0  0  0  0  0
   28.1481  -30.1072  -18.0653 N   0  0  0  0  0  0  0  0  0  0  0  0
   27.3706  -32.4041  -18.1876 C   0  0  0  0  0  0  0  0  0  0  0  0
   27.5721  -33.6364  -18.0545 O   0  0  0  0  0  0  0  0  0  0  0  0
   26.1883  -31.9740  -18.7277 O   0  0  0  0  0  0  0  0  0  0  0  0
  1  2  1  0
  2  3  2  0
  3  4  1  0
  5  4  2  0
  5  6  1  0
  6  7  1  0
  7  8  1  6
  9  7  1  0
  9 13  1  0
 10  9  2  0
 11  5  1  0
 12  2  1  0
 12 11  2  0
 14 13  1  0
 14 17  1  0
 14 15  1  1
 16 15  1  0
 17 18  2  0
 20 19  1  1
 21 17  1  0
 21 20  1  0
 22 20  1  0
 22 24  1  0
 23 22  2  0
M  END
$$$$
