YCA.pdb
     RDKit          3D

 24 24  0  0  1  0  0  0  0  0999 V2000
   34.9365  -36.3670   -3.2150 O   0  0  0  0  0  0  0  0  0  0  0  0
   33.7840  -35.8350   -3.8213 C   0  0  0  0  0  0  0  0  0  0  0  0
   32.9895  -34.9614   -3.1088 C   0  0  0  0  0  0  0  0  0  0  0  0
   31.8529  -34.4312   -3.6947 C   0  0  0  0  0  0  0  0  0  0  0  0
   31.4831  -34.7560   -4.9945 C   0  0  0  0  0  0  0  0  0  0  0  0
   30.2508  -34.1697   -5.6038 C   0  0  0  0  0  0  0  0  0  0  0  0
   29.1000  -35.0915   -5.2726 C   0  0  2  0  0  0  0  0  0  0  0  0
   27.9241  -34.5709   -5.9086 N   0  0  0  0  0  0  0  0  0  0  0  0
   28.9363  -35.2826   -3.8136 C   0  0  0  0  0  0  0  0  0  0  0  0
   28.2340  -34.4577   -3.1752 O   0  0  0  0  0  0  0  0  0  0  0  0
   32.3027  -35.6329   -5.6754 C   0  0  0  0  0  0  0  0  0  0  0  0
   33.4456  -36.1753   -5.1072 C   0  0  0  0  0  0  0  0  0  0  0  0
   29.5156  -36.3334   -3.0734 N   0  0  0  0  0  0  0  0  0  0  0  0
   29.3209  -36.5997   -1.6893 C   0  0  1  0  0  0  0  0  0  0  0  0
   28.0740  -37.3735   -1.3722 C   0  0  0  0  0  0  0  0  0  0  0  0
   26.6094  -36.3597   -1.2454 S   0  0  0  0  0  0  0  0  0  0  0  0
   30.5255  -37.2119   -1.0759 C   0  0  0  0  0  0  0  0  0  0  0  0
   31.1484  -38.0732   -1.7467 O   0  0  0  0  0  0  0  0  0  0  0  0
   33.3704  -37.3991   -0.1472 C   0  0  0  0  0  0  0  0  0  0  0  0
   32.1974  -37.4107    0.7937 C   0  0  2  0  0  0  0  0  0  0  0  0
   30.9950  -36.8676    0.2206 N   0  0  0  0  0  0  0  0  0  0  0  0
   32.5250  -36.7952    2.1047 C   0  0  0  0  0  0  0  0  0  0  0  0
   33.5033  -37.2608    2.7394 O   0  0  0  0  0  0  0  0  0  0  0  0
   31.8131  -35.7558    2.6405 O   0  0  0  0  0  0  0  0  0  0  0  0
  1  2  1  0
  2  3  2  0
  3  4  1  0
  5  4  2  0
  5  6  1  0
  6  7  1  0
  7  8  1  1
  9  7  1  0
  9 13  1  0
 10  9  2  0
 11  5  1  0
 12  2  1  0
 12 11  2  0
 14 13  1  0
 14 17  1  0
 14 15  1  6
 16 15  1  0
 17 18  2  0
 20 19  1  6
 21 17  1  0
 21 20  1  0
 22 20  1  0
 22 24  1  0
 23 22  2  0
M  END
$$$$
