YCA.pdb
     RDKit          3D

 24 24  0  0  1  0  0  0  0  0999 V2000
   24.0211  -20.9299   -7.7600 O   0  0  0  0  0  0  0  0  0  0  0  0
   24.5224  -20.7351   -9.0598 C   0  0  0  0  0  0  0  0  0  0  0  0
   23.6503  -20.7502  -10.1281 C   0  0  0  0  0  0  0  0  0  0  0  0
   24.1317  -20.5596  -11.4119 C   0  0  0  0  0  0  0  0  0  0  0  0
   25.4831  -20.3510  -11.6607 C   0  0  0  0  0  0  0  0  0  0  0  0
   25.9772  -20.1480  -13.0564 C   0  0  0  0  0  0  0  0  0  0  0  0
   25.7091  -21.4236  -13.8212 C   0  0  2  0  0  0  0  0  0  0  0  0
   26.7033  -22.3834  -13.4355 N   0  0  0  0  0  0  0  0  0  0  0  0
   25.6531  -21.1993  -15.2837 C   0  0  0  0  0  0  0  0  0  0  0  0
   26.7257  -20.9650  -15.8965 O   0  0  0  0  0  0  0  0  0  0  0  0
   26.3244  -20.3426  -10.5669 C   0  0  0  0  0  0  0  0  0  0  0  0
   25.8629  -20.5315   -9.2729 C   0  0  0  0  0  0  0  0  0  0  0  0
   24.4726  -21.2287  -16.0539 N   0  0  0  0  0  0  0  0  0  0  0  0
   24.3873  -21.1627  -17.4726 C   0  0  1  0  0  0  0  0  0  0  0  0
   23.9263  -22.4313  -18.1297 C   0  0  0  0  0  0  0  0  0  0  0  0
   24.7262  -23.8996  -17.5026 S   0  0  0  0  0  0  0  0  0  0  0  0
   23.5980  -19.9878  -17.9184 C   0  0  0  0  0  0  0  0  0  0  0  0
   22.6060  -19.6531  -17.2229 O   0  0  0  0  0  0  0  0  0  0  0  0
   23.7655  -16.7822  -19.1749 C   0  0  0  0  0  0  0  0  0  0  0  0
   23.1453  -18.1063  -19.5264 C   0  0  2  0  0  0  0  0  0  0  0  0
   23.9152  -19.2377  -19.0833 N   0  0  0  0  0  0  0  0  0  0  0  0
   22.7910  -18.1944  -20.9656 C   0  0  0  0  0  0  0  0  0  0  0  0
   23.5440  -18.8678  -21.7115 O   0  0  0  0  0  0  0  0  0  0  0  0
   21.6923  -17.5796  -21.5034 O   0  0  0  0  0  0  0  0  0  0  0  0
  1  2  1  0
  2  3  2  0
  3  4  1  0
  5  4  2  0
  5  6  1  0
  6  7  1  0
  7  8  1  6
  9  7  1  0
  9 13  1  0
 10  9  2  0
 11  5  1  0
 12  2  1  0
 12 11  2  0
 14 13  1  0
 14 17  1  0
 14 15  1  1
 16 15  1  0
 17 18  2  0
 20 19  1  6
 21 17  1  0
 21 20  1  0
 22 20  1  0
 22 24  1  0
 23 22  2  0
M  END
$$$$
