YCA.pdb
     RDKit          3D

 24 24  0  0  1  0  0  0  0  0999 V2000
   18.0568  -16.5558  -16.0072 O   0  0  0  0  0  0  0  0  0  0  0  0
   18.7664  -15.3530  -16.1765 C   0  0  0  0  0  0  0  0  0  0  0  0
   18.2182  -14.1757  -15.7125 C   0  0  0  0  0  0  0  0  0  0  0  0
   18.9070  -12.9858  -15.8733 C   0  0  0  0  0  0  0  0  0  0  0  0
   20.1490  -12.9402  -16.4955 C   0  0  0  0  0  0  0  0  0  0  0  0
   20.8719  -11.6423  -16.6566 C   0  0  0  0  0  0  0  0  0  0  0  0
   20.2723  -10.9357  -17.8504 C   0  0  2  0  0  0  0  0  0  0  0  0
   20.5079  -11.7515  -19.0068 N   0  0  0  0  0  0  0  0  0  0  0  0
   20.7831   -9.5540  -17.9991 C   0  0  0  0  0  0  0  0  0  0  0  0
   21.4031   -9.2531  -19.0508 O   0  0  0  0  0  0  0  0  0  0  0  0
   20.6648  -14.1381  -16.9463 C   0  0  0  0  0  0  0  0  0  0  0  0
   19.9914  -15.3410  -16.7954 C   0  0  0  0  0  0  0  0  0  0  0  0
   20.6259   -8.5342  -17.0384 N   0  0  0  0  0  0  0  0  0  0  0  0
   20.9713   -7.1631  -17.1971 C   0  0  1  0  0  0  0  0  0  0  0  0
   20.3552   -6.4989  -18.3942 C   0  0  0  0  0  0  0  0  0  0  0  0
   20.6050   -4.7314  -18.4459 S   0  0  0  0  0  0  0  0  0  0  0  0
   20.7348   -6.3922  -15.9513 C   0  0  0  0  0  0  0  0  0  0  0  0
   19.5764   -6.4115  -15.4640 O   0  0  0  0  0  0  0  0  0  0  0  0
   22.7146   -4.0683  -13.6702 C   0  0  0  0  0  0  0  0  0  0  0  0
   21.5178   -4.8645  -14.1118 C   0  0  2  0  0  0  0  0  0  0  0  0
   21.7516   -5.6445  -15.2976 N   0  0  0  0  0  0  0  0  0  0  0  0
   20.2966   -4.0269  -14.2198 C   0  0  0  0  0  0  0  0  0  0  0  0
   19.5015   -4.0268  -13.2480 O   0  0  0  0  0  0  0  0  0  0  0  0
   20.0077   -3.2660  -15.3207 O   0  0  0  0  0  0  0  0  0  0  0  0
  1  2  1  0
  2  3  2  0
  3  4  1  0
  5  4  2  0
  5  6  1  0
  6  7  1  0
  7  8  1  6
  9  7  1  0
  9 13  1  0
 10  9  2  0
 11  5  1  0
 12  2  1  0
 12 11  2  0
 14 13  1  0
 14 17  1  0
 14 15  1  6
 16 15  1  0
 17 18  2  0
 20 19  1  6
 21 17  1  0
 21 20  1  0
 22 20  1  0
 22 24  1  0
 23 22  2  0
M  END
$$$$
