YCA.pdb
     RDKit          3D

 24 24  0  0  1  0  0  0  0  0999 V2000
   18.9534  -13.6789  -20.3341 O   0  0  0  0  0  0  0  0  0  0  0  0
   18.7618  -12.6076  -19.4427 C   0  0  0  0  0  0  0  0  0  0  0  0
   17.7230  -12.6614  -18.5372 C   0  0  0  0  0  0  0  0  0  0  0  0
   17.5244  -11.6133  -17.6550 C   0  0  0  0  0  0  0  0  0  0  0  0
   18.3495  -10.4948  -17.6535 C   0  0  0  0  0  0  0  0  0  0  0  0
   18.1134   -9.3767  -16.6906 C   0  0  0  0  0  0  0  0  0  0  0  0
   18.8510   -9.7143  -15.4156 C   0  0  2  0  0  0  0  0  0  0  0  0
   18.0457  -10.6429  -14.6757 N   0  0  0  0  0  0  0  0  0  0  0  0
   19.2091   -8.5062  -14.6381 C   0  0  0  0  0  0  0  0  0  0  0  0
   18.4136   -8.1061  -13.7503 O   0  0  0  0  0  0  0  0  0  0  0  0
   19.3777  -10.4773  -18.5737 C   0  0  0  0  0  0  0  0  0  0  0  0
   19.5942  -11.5165  -19.4661 C   0  0  0  0  0  0  0  0  0  0  0  0
   20.3905   -7.7584  -14.8188 N   0  0  0  0  0  0  0  0  0  0  0  0
   20.7406   -6.5553  -14.1446 C   0  0  1  0  0  0  0  0  0  0  0  0
   22.0122   -6.6326  -13.3502 C   0  0  0  0  0  0  0  0  0  0  0  0
   22.5834   -5.0511  -12.7488 S   0  0  0  0  0  0  0  0  0  0  0  0
   20.7304   -5.3907  -15.0643 C   0  0  0  0  0  0  0  0  0  0  0  0
   21.5921   -5.3615  -15.9788 O   0  0  0  0  0  0  0  0  0  0  0  0
   18.5877   -2.2963  -15.6496 C   0  0  0  0  0  0  0  0  0  0  0  0
   19.7642   -3.2086  -15.8614 C   0  0  2  0  0  0  0  0  0  0  0  0
   19.7983   -4.3235  -14.9530 N   0  0  0  0  0  0  0  0  0  0  0  0
   21.0499   -2.4666  -15.8916 C   0  0  0  0  0  0  0  0  0  0  0  0
   21.4629   -2.0604  -17.0057 O   0  0  0  0  0  0  0  0  0  0  0  0
   21.7918   -2.2116  -14.7696 O   0  0  0  0  0  0  0  0  0  0  0  0
  1  2  1  0
  2  3  2  0
  3  4  1  0
  5  4  2  0
  5  6  1  0
  6  7  1  0
  7  8  1  1
  9  7  1  0
  9 13  1  0
 10  9  2  0
 11  5  1  0
 12  2  1  0
 12 11  2  0
 14 13  1  0
 14 17  1  0
 14 15  1  6
 16 15  1  0
 17 18  2  0
 20 19  1  1
 21 17  1  0
 21 20  1  0
 22 20  1  0
 22 24  1  0
 23 22  2  0
M  END
$$$$
