GCY.pdb
     RDKit          3D

 23 23  0  0  1  0  0  0  0  0999 V2000
   26.8491  -22.1209  -15.0932 N   0  0  0  0  0  0  0  0  0  0  0  0
   25.5775  -21.9767  -15.7617 C   0  0  0  0  0  0  0  0  0  0  0  0
   24.5326  -21.4215  -14.8699 C   0  0  0  0  0  0  0  0  0  0  0  0
   24.7436  -21.1236  -13.6865 O   0  0  0  0  0  0  0  0  0  0  0  0
   23.2363  -21.2287  -15.4132 N   0  0  0  0  0  0  0  0  0  0  0  0
   22.1772  -20.6529  -14.6144 C   0  0  1  0  0  0  0  0  0  0  0  0
   21.3842  -19.6955  -15.4960 C   0  0  0  0  0  0  0  0  0  0  0  0
   22.3088  -18.1320  -15.5312 S   0  0  0  0  0  0  0  0  0  0  0  0
   21.2830  -21.7253  -14.0994 C   0  0  0  0  0  0  0  0  0  0  0  0
   20.9661  -22.6978  -14.8179 O   0  0  0  0  0  0  0  0  0  0  0  0
   16.6635  -26.8154   -8.5734 O   0  0  0  0  0  0  0  0  0  0  0  0
   17.5093  -25.8513   -9.1139 C   0  0  0  0  0  0  0  0  0  0  0  0
   17.0723  -24.5545   -9.1650 C   0  0  0  0  0  0  0  0  0  0  0  0
   17.8767  -23.5657   -9.6921 C   0  0  0  0  0  0  0  0  0  0  0  0
   19.1515  -23.8472  -10.1874 C   0  0  0  0  0  0  0  0  0  0  0  0
   20.0057  -22.7898  -10.7626 C   0  0  0  0  0  0  0  0  0  0  0  0
   19.9632  -22.7346  -12.2759 C   0  0  2  0  0  0  0  0  0  0  0  0
   20.7732  -21.6641  -12.7831 N   0  0  0  0  0  0  0  0  0  0  0  0
   18.5887  -22.5445  -12.7943 C   0  0  0  0  0  0  0  0  0  0  0  0
   18.0625  -21.3984  -12.8699 O   0  0  0  0  0  0  0  0  0  0  0  0
   19.5613  -25.1594  -10.1220 C   0  0  0  0  0  0  0  0  0  0  0  0
   18.7591  -26.1631   -9.5929 C   0  0  0  0  0  0  0  0  0  0  0  0
   17.8193  -23.6023  -13.2191 O   0  0  0  0  0  0  0  0  0  0  0  0
  2  1  1  0
  3  2  1  0
  3  5  1  0
  4  3  2  0
  6  5  1  0
  6  7  1  6
  7  8  1  0
  9  6  1  0
  9 18  1  0
 10  9  2  0
 11 12  1  0
 12 22  2  0
 13 14  2  0
 13 12  1  0
 14 15  1  0
 15 16  1  0
 15 21  2  0
 17 18  1  0
 17 16  1  1
 19 17  1  0
 20 19  2  0
 22 21  1  0
 23 19  1  0
M  END
$$$$
