GCY.pdb
     RDKit          3D

 23 23  0  0  1  0  0  0  0  0999 V2000
   30.0329  -25.8451  -18.5318 N   0  0  0  0  0  0  0  0  0  0  0  0
   29.6789  -26.7680  -17.4794 C   0  0  0  0  0  0  0  0  0  0  0  0
   28.6178  -27.7150  -17.8947 C   0  0  0  0  0  0  0  0  0  0  0  0
   28.0479  -27.6513  -18.9924 O   0  0  0  0  0  0  0  0  0  0  0  0
   28.2501  -28.7356  -16.9804 N   0  0  0  0  0  0  0  0  0  0  0  0
   27.2593  -29.7268  -17.3370 C   0  0  1  0  0  0  0  0  0  0  0  0
   27.8973  -31.1046  -17.2059 C   0  0  0  0  0  0  0  0  0  0  0  0
   29.0452  -31.2828  -18.6027 S   0  0  0  0  0  0  0  0  0  0  0  0
   26.0834  -29.6250  -16.4305 C   0  0  0  0  0  0  0  0  0  0  0  0
   26.2303  -29.5802  -15.1901 O   0  0  0  0  0  0  0  0  0  0  0  0
   25.9317  -23.3803  -15.3354 O   0  0  0  0  0  0  0  0  0  0  0  0
   25.1824  -24.5290  -15.5724 C   0  0  0  0  0  0  0  0  0  0  0  0
   25.3615  -25.1920  -16.7572 C   0  0  0  0  0  0  0  0  0  0  0  0
   24.6406  -26.3348  -17.0349 C   0  0  0  0  0  0  0  0  0  0  0  0
   23.7125  -26.8517  -16.1288 C   0  0  0  0  0  0  0  0  0  0  0  0
   22.9330  -28.0677  -16.4332 C   0  0  0  0  0  0  0  0  0  0  0  0
   23.6560  -29.3525  -16.0849 C   0  0  2  0  0  0  0  0  0  0  0  0
   24.7732  -29.5768  -16.9573 N   0  0  0  0  0  0  0  0  0  0  0  0
   22.7718  -30.5377  -16.1710 C   0  0  0  0  0  0  0  0  0  0  0  0
   22.8873  -31.3834  -17.1025 O   0  0  0  0  0  0  0  0  0  0  0  0
   23.5556  -26.1627  -14.9479 C   0  0  0  0  0  0  0  0  0  0  0  0
   24.2766  -25.0108  -14.6581 C   0  0  0  0  0  0  0  0  0  0  0  0
   21.7848  -30.7770  -15.2437 O   0  0  0  0  0  0  0  0  0  0  0  0
  2  1  1  0
  3  2  1  0
  3  5  1  0
  4  3  2  0
  6  5  1  0
  6  7  1  1
  7  8  1  0
  9  6  1  0
  9 18  1  0
 10  9  2  0
 11 12  1  0
 12 22  2  0
 13 14  2  0
 13 12  1  0
 14 15  1  0
 15 16  1  0
 15 21  2  0
 17 18  1  0
 17 16  1  6
 19 17  1  0
 20 19  2  0
 22 21  1  0
 23 19  1  0
M  END
$$$$
