GCY.pdb
     RDKit          3D

 23 23  0  0  1  0  0  0  0  0999 V2000
   18.5359  -13.3226  -16.2106 N   0  0  0  0  0  0  0  0  0  0  0  0
   18.3223  -12.2457  -15.2730 C   0  0  0  0  0  0  0  0  0  0  0  0
   18.3054  -10.9195  -15.9336 C   0  0  0  0  0  0  0  0  0  0  0  0
   19.1027  -10.5993  -16.8255 O   0  0  0  0  0  0  0  0  0  0  0  0
   17.3239   -9.9856  -15.5125 N   0  0  0  0  0  0  0  0  0  0  0  0
   17.2460   -8.6724  -16.1133 C   0  0  1  0  0  0  0  0  0  0  0  0
   15.7841   -8.2418  -16.1259 C   0  0  0  0  0  0  0  0  0  0  0  0
   14.8907   -9.4595  -17.1357 S   0  0  0  0  0  0  0  0  0  0  0  0
   18.0533   -7.7005  -15.3268 C   0  0  0  0  0  0  0  0  0  0  0  0
   17.9835   -7.6681  -14.0793 O   0  0  0  0  0  0  0  0  0  0  0  0
   23.3772  -11.2715  -14.7977 O   0  0  0  0  0  0  0  0  0  0  0  0
   22.8410   -9.9987  -14.9693 C   0  0  0  0  0  0  0  0  0  0  0  0
   22.7753   -9.4837  -16.2365 C   0  0  0  0  0  0  0  0  0  0  0  0
   22.2515   -8.2263  -16.4541 C   0  0  0  0  0  0  0  0  0  0  0  0
   21.7745   -7.4412  -15.4026 C   0  0  0  0  0  0  0  0  0  0  0  0
   21.2260   -6.0909  -15.6360 C   0  0  0  0  0  0  0  0  0  0  0  0
   19.7804   -5.9431  -15.2078 C   0  0  2  0  0  0  0  0  0  0  0  0
   18.9174   -6.7921  -15.9783 N   0  0  0  0  0  0  0  0  0  0  0  0
   19.2899   -4.5528  -15.3507 C   0  0  0  0  0  0  0  0  0  0  0  0
   19.7958   -3.6014  -14.6911 O   0  0  0  0  0  0  0  0  0  0  0  0
   21.8547   -7.9868  -14.1416 C   0  0  0  0  0  0  0  0  0  0  0  0
   22.3803   -9.2523  -13.9113 C   0  0  0  0  0  0  0  0  0  0  0  0
   18.2636   -4.2284  -16.2067 O   0  0  0  0  0  0  0  0  0  0  0  0
  2  1  1  0
  3  2  1  0
  3  5  1  0
  4  3  2  0
  6  5  1  0
  6  7  1  1
  7  8  1  0
  9  6  1  0
  9 18  1  0
 10  9  2  0
 11 12  1  0
 12 22  2  0
 13 14  2  0
 13 12  1  0
 14 15  1  0
 15 16  1  0
 15 21  2  0
 17 18  1  0
 17 16  1  6
 19 17  1  0
 20 19  2  0
 22 21  1  0
 23 19  1  0
M  END
$$$$
