GCY.pdb
     RDKit          3D

 23 23  0  0  1  0  0  0  0  0999 V2000
   30.7541  -26.0431  -16.6026 N   0  0  0  0  0  0  0  0  0  0  0  0
   30.1124  -25.1562  -17.5439 C   0  0  0  0  0  0  0  0  0  0  0  0
   29.4943  -23.9839  -16.8812 C   0  0  0  0  0  0  0  0  0  0  0  0
   29.5426  -23.7966  -15.6580 O   0  0  0  0  0  0  0  0  0  0  0  0
   28.8200  -23.0426  -17.7010 N   0  0  0  0  0  0  0  0  0  0  0  0
   28.1729  -21.8863  -17.1217 C   0  0  1  0  0  0  0  0  0  0  0  0
   28.2214  -20.7544  -18.1412 C   0  0  0  0  0  0  0  0  0  0  0  0
   29.6971  -19.7677  -17.7550 S   0  0  0  0  0  0  0  0  0  0  0  0
   26.7585  -22.2052  -16.7861 C   0  0  0  0  0  0  0  0  0  0  0  0
   26.0174  -22.7836  -17.6098 O   0  0  0  0  0  0  0  0  0  0  0  0
   19.1967  -23.0436  -12.2867 O   0  0  0  0  0  0  0  0  0  0  0  0
   20.5138  -22.7654  -12.6396 C   0  0  0  0  0  0  0  0  0  0  0  0
   21.3507  -23.8136  -12.9157 C   0  0  0  0  0  0  0  0  0  0  0  0
   22.6642  -23.5853  -13.2698 C   0  0  0  0  0  0  0  0  0  0  0  0
   23.1830  -22.2920  -13.3587 C   0  0  0  0  0  0  0  0  0  0  0  0
   24.5922  -22.0503  -13.7255 C   0  0  0  0  0  0  0  0  0  0  0  0
   24.8597  -22.1724  -15.2116 C   0  0  2  0  0  0  0  0  0  0  0  0
   26.2245  -21.8585  -15.5248 N   0  0  0  0  0  0  0  0  0  0  0  0
   23.9954  -21.2773  -16.0151 C   0  0  0  0  0  0  0  0  0  0  0  0
   22.9277  -21.6918  -16.5483 O   0  0  0  0  0  0  0  0  0  0  0  0
   22.3171  -21.2605  -13.0751 C   0  0  0  0  0  0  0  0  0  0  0  0
   20.9923  -21.4794  -12.7176 C   0  0  0  0  0  0  0  0  0  0  0  0
   24.3099  -19.9541  -16.2193 O   0  0  0  0  0  0  0  0  0  0  0  0
  2  1  1  0
  3  2  1  0
  3  5  1  0
  4  3  2  0
  6  5  1  0
  6  7  1  6
  7  8  1  0
  9  6  1  0
  9 18  1  0
 10  9  2  0
 11 12  1  0
 12 22  2  0
 13 14  2  0
 13 12  1  0
 14 15  1  0
 15 16  1  0
 15 21  2  0
 17 18  1  0
 17 16  1  1
 19 17  1  0
 20 19  2  0
 22 21  1  0
 23 19  1  0
M  END
$$$$
