GCY.pdb
     RDKit          3D

 23 23  0  0  1  0  0  0  0  0999 V2000
   29.7717  -20.7083  -21.3783 N   0  0  0  0  0  0  0  0  0  0  0  0
   28.6632  -20.0501  -20.7283 C   0  0  0  0  0  0  0  0  0  0  0  0
   29.0103  -19.5736  -19.3689 C   0  0  0  0  0  0  0  0  0  0  0  0
   30.0871  -19.8356  -18.8161 O   0  0  0  0  0  0  0  0  0  0  0  0
   28.0531  -18.7819  -18.6834 N   0  0  0  0  0  0  0  0  0  0  0  0
   28.3303  -18.2656  -17.3613 C   0  0  1  0  0  0  0  0  0  0  0  0
   27.9810  -16.7822  -17.3479 C   0  0  0  0  0  0  0  0  0  0  0  0
   26.2514  -16.6489  -17.8878 S   0  0  0  0  0  0  0  0  0  0  0  0
   27.5135  -18.9872  -16.3478 C   0  0  0  0  0  0  0  0  0  0  0  0
   26.4247  -19.5164  -16.6586 O   0  0  0  0  0  0  0  0  0  0  0  0
   24.4528  -21.4991   -8.4614 O   0  0  0  0  0  0  0  0  0  0  0  0
   25.2898  -21.1286   -9.5097 C   0  0  0  0  0  0  0  0  0  0  0  0
   25.6115  -19.8050   -9.6513 C   0  0  0  0  0  0  0  0  0  0  0  0
   26.4379  -19.3919  -10.6756 C   0  0  0  0  0  0  0  0  0  0  0  0
   26.9708  -20.2975  -11.5952 C   0  0  0  0  0  0  0  0  0  0  0  0
   27.8447  -19.8518  -12.6981 C   0  0  0  0  0  0  0  0  0  0  0  0
   27.1248  -19.7196  -14.0244 C   0  0  2  0  0  0  0  0  0  0  0  0
   27.9555  -19.0881  -15.0096 N   0  0  0  0  0  0  0  0  0  0  0  0
   25.8777  -18.9284  -13.9121 C   0  0  0  0  0  0  0  0  0  0  0  0
   24.7712  -19.4726  -13.6369 O   0  0  0  0  0  0  0  0  0  0  0  0
   26.6286  -21.6197  -11.4260 C   0  0  0  0  0  0  0  0  0  0  0  0
   25.7972  -22.0465  -10.3977 C   0  0  0  0  0  0  0  0  0  0  0  0
   25.8617  -17.5661  -14.0997 O   0  0  0  0  0  0  0  0  0  0  0  0
  2  1  1  0
  3  2  1  0
  3  5  1  0
  4  3  2  0
  6  5  1  0
  6  7  1  6
  7  8  1  0
  9  6  1  0
  9 18  1  0
 10  9  2  0
 11 12  1  0
 12 22  2  0
 13 14  2  0
 13 12  1  0
 14 15  1  0
 15 16  1  0
 15 21  2  0
 17 18  1  0
 17 16  1  1
 19 17  1  0
 20 19  2  0
 22 21  1  0
 23 19  1  0
M  END
$$$$
