GCY.pdb
     RDKit          3D

 23 23  0  0  1  0  0  0  0  0999 V2000
   29.4464  -32.0739  -16.5040 N   0  0  0  0  0  0  0  0  0  0  0  0
   28.8980  -33.1566  -15.7219 C   0  0  0  0  0  0  0  0  0  0  0  0
   27.6533  -32.7682  -15.0182 C   0  0  0  0  0  0  0  0  0  0  0  0
   27.1829  -31.6234  -15.0605 O   0  0  0  0  0  0  0  0  0  0  0  0
   26.9822  -33.7666  -14.2660 N   0  0  0  0  0  0  0  0  0  0  0  0
   25.7639  -33.4598  -13.5499 C   0  0  1  0  0  0  0  0  0  0  0  0
   24.6163  -34.2005  -14.2259 C   0  0  0  0  0  0  0  0  0  0  0  0
   23.0952  -33.6994  -13.3681 S   0  0  0  0  0  0  0  0  0  0  0  0
   25.8804  -33.8936  -12.1311 C   0  0  0  0  0  0  0  0  0  0  0  0
   26.1805  -35.0719  -11.8420 O   0  0  0  0  0  0  0  0  0  0  0  0
   26.9408  -33.7395   -3.4017 O   0  0  0  0  0  0  0  0  0  0  0  0
   26.6769  -33.3547   -4.7129 C   0  0  0  0  0  0  0  0  0  0  0  0
   27.5490  -33.7427   -5.6949 C   0  0  0  0  0  0  0  0  0  0  0  0
   27.3275  -33.3843   -7.0084 C   0  0  0  0  0  0  0  0  0  0  0  0
   26.2189  -32.6217   -7.3809 C   0  0  0  0  0  0  0  0  0  0  0  0
   25.9904  -32.2287   -8.7852 C   0  0  0  0  0  0  0  0  0  0  0  0
   25.7760  -33.4051   -9.7153 C   0  0  2  0  0  0  0  0  0  0  0  0
   25.6531  -32.9776  -11.0796 N   0  0  0  0  0  0  0  0  0  0  0  0
   24.5599  -34.1788   -9.3739 C   0  0  0  0  0  0  0  0  0  0  0  0
   23.4035  -33.7465   -9.6423 O   0  0  0  0  0  0  0  0  0  0  0  0
   25.3617  -32.2476   -6.3713 C   0  0  0  0  0  0  0  0  0  0  0  0
   25.5754  -32.6032   -5.0451 C   0  0  0  0  0  0  0  0  0  0  0  0
   24.6283  -35.4031   -8.7512 O   0  0  0  0  0  0  0  0  0  0  0  0
  2  1  1  0
  3  2  1  0
  3  5  1  0
  4  3  2  0
  6  5  1  0
  6  7  1  6
  7  8  1  0
  9  6  1  0
  9 18  1  0
 10  9  2  0
 11 12  1  0
 12 22  2  0
 13 14  2  0
 13 12  1  0
 14 15  1  0
 15 16  1  0
 15 21  2  0
 17 18  1  0
 17 16  1  1
 19 17  1  0
 20 19  2  0
 22 21  1  0
 23 19  1  0
M  END
$$$$
