GCY.pdb
     RDKit          3D

 23 23  0  0  1  0  0  0  0  0999 V2000
   22.4734  -12.8055  -17.8863 N   0  0  0  0  0  0  0  0  0  0  0  0
   22.2986  -11.5273  -18.5347 C   0  0  0  0  0  0  0  0  0  0  0  0
   21.5118  -10.5808  -17.7099 C   0  0  0  0  0  0  0  0  0  0  0  0
   20.2846  -10.4522  -17.8151 O   0  0  0  0  0  0  0  0  0  0  0  0
   22.2129   -9.7932  -16.7606 N   0  0  0  0  0  0  0  0  0  0  0  0
   21.5199   -8.8082  -15.9600 C   0  0  1  0  0  0  0  0  0  0  0  0
   22.1126   -8.8349  -14.5562 C   0  0  0  0  0  0  0  0  0  0  0  0
   20.7725   -8.3826  -13.4158 S   0  0  0  0  0  0  0  0  0  0  0  0
   21.6879   -7.4544  -16.5548 C   0  0  0  0  0  0  0  0  0  0  0  0
   22.8241   -7.0040  -16.8164 O   0  0  0  0  0  0  0  0  0  0  0  0
   14.6135   -5.8486  -19.2343 O   0  0  0  0  0  0  0  0  0  0  0  0
   15.9884   -5.6648  -19.1223 C   0  0  0  0  0  0  0  0  0  0  0  0
   16.8101   -6.7393  -19.3361 C   0  0  0  0  0  0  0  0  0  0  0  0
   18.1791   -6.6037  -19.2359 C   0  0  0  0  0  0  0  0  0  0  0  0
   18.7709   -5.3800  -18.9164 C   0  0  0  0  0  0  0  0  0  0  0  0
   20.2355   -5.2399  -18.7973 C   0  0  0  0  0  0  0  0  0  0  0  0
   20.7374   -5.3292  -17.3708 C   0  0  2  0  0  0  0  0  0  0  0  0
   20.5614   -6.6492  -16.8361 N   0  0  0  0  0  0  0  0  0  0  0  0
   20.0431   -4.3813  -16.4689 C   0  0  0  0  0  0  0  0  0  0  0  0
   19.2316   -4.7808  -15.5869 O   0  0  0  0  0  0  0  0  0  0  0  0
   17.9185   -4.3200  -18.7073 C   0  0  0  0  0  0  0  0  0  0  0  0
   16.5382   -4.4456  -18.8059 C   0  0  0  0  0  0  0  0  0  0  0  0
   20.2473   -3.0234  -16.5450 O   0  0  0  0  0  0  0  0  0  0  0  0
  2  1  1  0
  3  2  1  0
  3  5  1  0
  4  3  2  0
  6  5  1  0
  6  7  1  1
  7  8  1  0
  9  6  1  0
  9 18  1  0
 10  9  2  0
 11 12  1  0
 12 22  2  0
 13 14  2  0
 13 12  1  0
 14 15  1  0
 15 16  1  0
 15 21  2  0
 17 18  1  0
 17 16  1  6
 19 17  1  0
 20 19  2  0
 22 21  1  0
 23 19  1  0
M  END
$$$$
