GCY.pdb
     RDKit          3D

 23 23  0  0  1  0  0  0  0  0999 V2000
   17.6164  -12.3102  -16.1925 N   0  0  0  0  0  0  0  0  0  0  0  0
   17.7236  -10.9093  -16.5251 C   0  0  0  0  0  0  0  0  0  0  0  0
   19.0374  -10.3395  -16.1447 C   0  0  0  0  0  0  0  0  0  0  0  0
   19.5104  -10.4358  -15.0043 O   0  0  0  0  0  0  0  0  0  0  0  0
   19.7741   -9.6553  -17.1458 N   0  0  0  0  0  0  0  0  0  0  0  0
   21.0263   -9.0052  -16.8287 C   0  0  1  0  0  0  0  0  0  0  0  0
   21.8129   -8.8327  -18.1226 C   0  0  0  0  0  0  0  0  0  0  0  0
   22.8213  -10.3305  -18.3234 S   0  0  0  0  0  0  0  0  0  0  0  0
   20.7712   -7.6758  -16.2102 C   0  0  0  0  0  0  0  0  0  0  0  0
   19.8089   -6.9690  -16.5801 O   0  0  0  0  0  0  0  0  0  0  0  0
   16.7361   -8.8733  -11.1529 O   0  0  0  0  0  0  0  0  0  0  0  0
   17.8756   -8.2122  -11.6016 C   0  0  0  0  0  0  0  0  0  0  0  0
   17.7247   -7.0046  -12.2296 C   0  0  0  0  0  0  0  0  0  0  0  0
   18.8260   -6.3137  -12.6907 C   0  0  0  0  0  0  0  0  0  0  0  0
   20.1202   -6.8142  -12.5358 C   0  0  0  0  0  0  0  0  0  0  0  0
   21.2964   -6.0793  -13.0411 C   0  0  0  0  0  0  0  0  0  0  0  0
   21.3179   -5.9359  -14.5490 C   0  0  2  0  0  0  0  0  0  0  0  0
   21.6155   -7.1854  -15.1889 N   0  0  0  0  0  0  0  0  0  0  0  0
   22.3197   -4.9453  -15.0065 C   0  0  0  0  0  0  0  0  0  0  0  0
   22.2871   -3.7435  -14.6182 O   0  0  0  0  0  0  0  0  0  0  0  0
   20.2384   -8.0296  -11.9010 C   0  0  0  0  0  0  0  0  0  0  0  0
   19.1358   -8.7337  -11.4327 C   0  0  0  0  0  0  0  0  0  0  0  0
   23.3329   -5.2831  -15.8728 O   0  0  0  0  0  0  0  0  0  0  0  0
  2  1  1  0
  3  2  1  0
  3  5  1  0
  4  3  2  0
  6  5  1  0
  6  7  1  6
  7  8  1  0
  9  6  1  0
  9 18  1  0
 10  9  2  0
 11 12  1  0
 12 22  2  0
 13 14  2  0
 13 12  1  0
 14 15  1  0
 15 16  1  0
 15 21  2  0
 17 18  1  0
 17 16  1  1
 19 17  1  0
 20 19  2  0
 22 21  1  0
 23 19  1  0
M  END
$$$$
