GCY.pdb
     RDKit          3D

 23 23  0  0  1  0  0  0  0  0999 V2000
   31.0377  -31.1738  -17.6810 N   0  0  0  0  0  0  0  0  0  0  0  0
   30.8150  -31.9752  -16.5009 C   0  0  0  0  0  0  0  0  0  0  0  0
   29.7654  -33.0006  -16.7068 C   0  0  0  0  0  0  0  0  0  0  0  0
   29.1627  -33.1439  -17.7791 O   0  0  0  0  0  0  0  0  0  0  0  0
   29.4490  -33.8488  -15.6145 N   0  0  0  0  0  0  0  0  0  0  0  0
   28.4809  -34.9131  -15.7602 C   0  0  1  0  0  0  0  0  0  0  0  0
   29.0326  -36.1550  -15.0702 C   0  0  0  0  0  0  0  0  0  0  0  0
   30.4834  -36.6824  -16.0281 S   0  0  0  0  0  0  0  0  0  0  0  0
   27.1885  -34.5192  -15.1360 C   0  0  0  0  0  0  0  0  0  0  0  0
   27.1529  -34.0307  -13.9861 O   0  0  0  0  0  0  0  0  0  0  0  0
   26.5093  -28.4999  -17.5230 O   0  0  0  0  0  0  0  0  0  0  0  0
   25.8910  -29.7135  -17.2369 C   0  0  0  0  0  0  0  0  0  0  0  0
   25.1594  -29.8172  -16.0839 C   0  0  0  0  0  0  0  0  0  0  0  0
   24.5292  -31.0006  -15.7596 C   0  0  0  0  0  0  0  0  0  0  0  0
   24.6130  -32.1234  -16.5853 C   0  0  0  0  0  0  0  0  0  0  0  0
   23.9483  -33.3927  -16.2303 C   0  0  0  0  0  0  0  0  0  0  0  0
   24.7406  -34.2378  -15.2541 C   0  0  2  0  0  0  0  0  0  0  0  0
   25.9724  -34.6907  -15.8345 N   0  0  0  0  0  0  0  0  0  0  0  0
   23.9888  -35.4317  -14.8033 C   0  0  0  0  0  0  0  0  0  0  0  0
   22.9162  -35.3283  -14.1437 O   0  0  0  0  0  0  0  0  0  0  0  0
   25.3555  -31.9872  -17.7361 C   0  0  0  0  0  0  0  0  0  0  0  0
   25.9942  -30.7998  -18.0722 C   0  0  0  0  0  0  0  0  0  0  0  0
   24.4182  -36.7085  -15.0803 O   0  0  0  0  0  0  0  0  0  0  0  0
  2  1  1  0
  3  2  1  0
  3  5  1  0
  4  3  2  0
  6  5  1  0
  6  7  1  1
  7  8  1  0
  9  6  1  0
  9 18  1  0
 10  9  2  0
 11 12  1  0
 12 22  2  0
 13 14  2  0
 13 12  1  0
 14 15  1  0
 15 16  1  0
 15 21  2  0
 17 18  1  0
 17 16  1  6
 19 17  1  0
 20 19  2  0
 22 21  1  0
 23 19  1  0
M  END
$$$$
