GCY.pdb
     RDKit          3D

 23 23  0  0  1  0  0  0  0  0999 V2000
   23.3763  -17.8053  -15.3120 N   0  0  0  0  0  0  0  0  0  0  0  0
   23.3130  -19.2469  -15.3605 C   0  0  0  0  0  0  0  0  0  0  0  0
   21.9312  -19.7554  -15.1955 C   0  0  0  0  0  0  0  0  0  0  0  0
   20.9273  -19.0526  -15.3745 O   0  0  0  0  0  0  0  0  0  0  0  0
   21.7691  -21.1124  -14.8145 N   0  0  0  0  0  0  0  0  0  0  0  0
   20.4520  -21.7019  -14.7191 C   0  0  1  0  0  0  0  0  0  0  0  0
   20.1873  -22.4828  -16.0009 C   0  0  0  0  0  0  0  0  0  0  0  0
   18.5554  -23.2584  -15.8113 S   0  0  0  0  0  0  0  0  0  0  0  0
   20.3833  -22.6156  -13.5464 C   0  0  0  0  0  0  0  0  0  0  0  0
   21.3307  -23.3843  -13.2744 O   0  0  0  0  0  0  0  0  0  0  0  0
   18.0661  -26.0706   -5.7765 O   0  0  0  0  0  0  0  0  0  0  0  0
   18.2461  -25.2823   -6.9093 C   0  0  0  0  0  0  0  0  0  0  0  0
   18.9395  -24.1081   -6.7837 C   0  0  0  0  0  0  0  0  0  0  0  0
   19.1423  -23.2951   -7.8795 C   0  0  0  0  0  0  0  0  0  0  0  0
   18.6536  -23.6353   -9.1424 C   0  0  0  0  0  0  0  0  0  0  0  0
   18.8608  -22.7579  -10.3111 C   0  0  0  0  0  0  0  0  0  0  0  0
   19.1886  -23.5123  -11.5832 C   0  0  2  0  0  0  0  0  0  0  0  0
   19.2411  -22.6315  -12.7148 N   0  0  0  0  0  0  0  0  0  0  0  0
   18.1966  -24.5711  -11.8817 C   0  0  0  0  0  0  0  0  0  0  0  0
   17.0695  -24.2994  -12.3836 O   0  0  0  0  0  0  0  0  0  0  0  0
   17.9611  -24.8210   -9.2356 C   0  0  0  0  0  0  0  0  0  0  0  0
   17.7513  -25.6473   -8.1383 C   0  0  0  0  0  0  0  0  0  0  0  0
   18.4523  -25.8987  -11.6297 O   0  0  0  0  0  0  0  0  0  0  0  0
  2  1  1  0
  3  2  1  0
  3  5  1  0
  4  3  2  0
  6  5  1  0
  6  7  1  6
  7  8  1  0
  9  6  1  0
  9 18  1  0
 10  9  2  0
 11 12  1  0
 12 22  2  0
 13 14  2  0
 13 12  1  0
 14 15  1  0
 15 16  1  0
 15 21  2  0
 17 18  1  0
 17 16  1  1
 19 17  1  0
 20 19  2  0
 22 21  1  0
 23 19  1  0
M  END
$$$$
