GCY.pdb
     RDKit          3D

 23 23  0  0  1  0  0  0  0  0999 V2000
   25.4732  -18.8371  -16.9901 N   0  0  0  0  0  0  0  0  0  0  0  0
   24.6792  -18.5059  -15.8306 C   0  0  0  0  0  0  0  0  0  0  0  0
   23.4566  -19.3368  -15.7298 C   0  0  0  0  0  0  0  0  0  0  0  0
   23.1626  -20.2088  -16.5586 O   0  0  0  0  0  0  0  0  0  0  0  0
   22.5941  -19.1096  -14.6264 N   0  0  0  0  0  0  0  0  0  0  0  0
   21.4188  -19.9277  -14.4251 C   0  0  1  0  0  0  0  0  0  0  0  0
   21.5716  -20.6602  -13.0974 C   0  0  0  0  0  0  0  0  0  0  0  0
   22.7368  -22.0240  -13.3854 S   0  0  0  0  0  0  0  0  0  0  0  0
   20.1996  -19.0747  -14.3953 C   0  0  0  0  0  0  0  0  0  0  0  0
   19.9884  -18.2887  -13.4467 O   0  0  0  0  0  0  0  0  0  0  0  0
   20.0757  -12.1844  -15.0936 O   0  0  0  0  0  0  0  0  0  0  0  0
   19.6281  -13.4504  -15.4592 C   0  0  0  0  0  0  0  0  0  0  0  0
   18.2809  -13.6499  -15.6027 C   0  0  0  0  0  0  0  0  0  0  0  0
   17.7919  -14.8882  -15.9638 C   0  0  0  0  0  0  0  0  0  0  0  0
   18.6426  -15.9713  -16.1935 C   0  0  0  0  0  0  0  0  0  0  0  0
   18.1165  -17.2988  -16.5675 C   0  0  0  0  0  0  0  0  0  0  0  0
   18.0981  -18.2873  -15.4197 C   0  0  2  0  0  0  0  0  0  0  0  0
   19.2539  -19.1375  -15.4432 N   0  0  0  0  0  0  0  0  0  0  0  0
   16.8987  -19.1561  -15.4436 C   0  0  0  0  0  0  0  0  0  0  0  0
   15.7355  -18.6823  -15.3081 O   0  0  0  0  0  0  0  0  0  0  0  0
   19.9904  -15.7387  -16.0409 C   0  0  0  0  0  0  0  0  0  0  0  0
   20.4935  -14.4954  -15.6777 C   0  0  0  0  0  0  0  0  0  0  0  0
   16.9907  -20.5175  -15.6153 O   0  0  0  0  0  0  0  0  0  0  0  0
  2  1  1  0
  3  2  1  0
  3  5  1  0
  4  3  2  0
  6  5  1  0
  6  7  1  1
  7  8  1  0
  9  6  1  0
  9 18  1  0
 10  9  2  0
 11 12  1  0
 12 22  2  0
 13 14  2  0
 13 12  1  0
 14 15  1  0
 15 16  1  0
 15 21  2  0
 17 18  1  0
 17 16  1  6
 19 17  1  0
 20 19  2  0
 22 21  1  0
 23 19  1  0
M  END
$$$$
