GCY.pdb
     RDKit          3D

 23 23  0  0  1  0  0  0  0  0999 V2000
   28.3423  -20.5585  -17.6635 N   0  0  0  0  0  0  0  0  0  0  0  0
   28.5236  -19.7424  -16.4864 C   0  0  0  0  0  0  0  0  0  0  0  0
   28.3563  -20.5162  -15.2339 C   0  0  0  0  0  0  0  0  0  0  0  0
   27.6589  -21.5368  -15.1589 O   0  0  0  0  0  0  0  0  0  0  0  0
   29.0337  -20.0523  -14.0768 N   0  0  0  0  0  0  0  0  0  0  0  0
   28.7996  -20.6637  -12.7874 C   0  0  1  0  0  0  0  0  0  0  0  0
   29.9231  -20.2387  -11.8493 C   0  0  0  0  0  0  0  0  0  0  0  0
   29.6489  -21.1103  -10.2790 S   0  0  0  0  0  0  0  0  0  0  0  0
   27.4885  -20.2203  -12.2405 C   0  0  0  0  0  0  0  0  0  0  0  0
   27.1220  -19.0292  -12.3362 O   0  0  0  0  0  0  0  0  0  0  0  0
   20.1257  -18.3767  -13.9926 O   0  0  0  0  0  0  0  0  0  0  0  0
   21.1512  -19.1439  -13.4479 C   0  0  0  0  0  0  0  0  0  0  0  0
   20.9249  -19.7867  -12.2600 C   0  0  0  0  0  0  0  0  0  0  0  0
   21.9123  -20.5581  -11.6832 C   0  0  0  0  0  0  0  0  0  0  0  0
   23.1644  -20.7104  -12.2822 C   0  0  0  0  0  0  0  0  0  0  0  0
   24.2239  -21.5261  -11.6570 C   0  0  0  0  0  0  0  0  0  0  0  0
   25.3623  -20.7050  -11.0872 C   0  0  2  0  0  0  0  0  0  0  0  0
   26.6295  -21.1413  -11.5999 N   0  0  0  0  0  0  0  0  0  0  0  0
   25.4247  -20.7779   -9.6091 C   0  0  0  0  0  0  0  0  0  0  0  0
   26.1134  -21.6571   -9.0184 O   0  0  0  0  0  0  0  0  0  0  0  0
   23.3604  -20.0518  -13.4746 C   0  0  0  0  0  0  0  0  0  0  0  0
   22.3727  -19.2724  -14.0643 C   0  0  0  0  0  0  0  0  0  0  0  0
   24.7397  -19.8944   -8.8081 O   0  0  0  0  0  0  0  0  0  0  0  0
  2  1  1  0
  3  2  1  0
  3  5  1  0
  4  3  2  0
  6  5  1  0
  6  7  1  1
  7  8  1  0
  9  6  1  0
  9 18  1  0
 10  9  2  0
 11 12  1  0
 12 22  2  0
 13 14  2  0
 13 12  1  0
 14 15  1  0
 15 16  1  0
 15 21  2  0
 17 18  1  0
 17 16  1  6
 19 17  1  0
 20 19  2  0
 22 21  1  0
 23 19  1  0
M  END
$$$$
