WEH.pdb
     RDKit          3D

 34 36  0  0  1  0  0  0  0  0999 V2000
   25.5548  -22.9716  -13.4533 N   0  0  0  0  0  0  0  0  0  0  0  0
   25.1454  -21.7464  -12.8330 C   0  0  1  0  0  0  0  0  0  0  0  0
   25.9715  -20.5782  -13.3342 C   0  0  0  0  0  0  0  0  0  0  0  0
   27.2894  -20.6815  -12.6155 C   0  0  0  0  0  0  0  0  0  0  0  0
   28.5344  -20.9035  -13.1930 C   0  0  0  0  0  0  0  0  0  0  0  0
   29.4765  -20.9378  -12.2546 N   0  0  0  0  0  0  0  0  0  0  0  0
   28.8850  -20.7440  -11.0715 C   0  0  0  0  0  0  0  0  0  0  0  0
   29.3896  -20.6875   -9.7957 C   0  0  0  0  0  0  0  0  0  0  0  0
   28.5816  -20.4738   -8.6991 C   0  0  0  0  0  0  0  0  0  0  0  0
   27.2313  -20.3126   -8.8922 C   0  0  0  0  0  0  0  0  0  0  0  0
   26.7070  -20.3680  -10.1839 C   0  0  0  0  0  0  0  0  0  0  0  0
   27.5237  -20.5811  -11.2612 C   0  0  0  0  0  0  0  0  0  0  0  0
   23.7009  -21.5518  -12.9830 C   0  0  0  0  0  0  0  0  0  0  0  0
   23.1054  -22.1199  -13.9348 O   0  0  0  0  0  0  0  0  0  0  0  0
   22.8986  -20.7607  -12.1286 N   0  0  0  0  0  0  0  0  0  0  0  0
   21.4528  -20.6188  -12.3465 C   0  0  1  0  0  0  0  0  0  0  0  0
   20.8097  -20.3855  -11.0288 C   0  0  0  0  0  0  0  0  0  0  0  0
   19.3165  -20.3470  -11.1820 C   0  0  0  0  0  0  0  0  0  0  0  0
   18.7103  -21.6135  -11.5897 C   0  0  0  0  0  0  0  0  0  0  0  0
   19.1498  -22.7306  -11.2627 O   0  0  0  0  0  0  0  0  0  0  0  0
   21.1820  -19.5289  -13.3249 C   0  0  0  0  0  0  0  0  0  0  0  0
   21.7167  -18.4192  -13.1123 O   0  0  0  0  0  0  0  0  0  0  0  0
   17.5717  -21.6124  -12.3922 O   0  0  0  0  0  0  0  0  0  0  0  0
   20.3703  -19.6826  -14.4546 N   0  0  0  0  0  0  0  0  0  0  0  0
   20.0590  -18.5080  -15.3196 C   0  0  1  0  0  0  0  0  0  0  0  0
   20.2951  -18.9464  -16.7132 C   0  0  0  0  0  0  0  0  0  0  0  0
   21.6685  -18.8240  -17.2288 C   0  0  0  0  0  0  0  0  0  0  0  0
   22.8571  -19.2957  -16.7321 C   0  0  0  0  0  0  0  0  0  0  0  0
   23.8787  -18.9968  -17.5648 N   0  0  0  0  0  0  0  0  0  0  0  0
   23.3200  -18.3357  -18.5863 C   0  0  0  0  0  0  0  0  0  0  0  0
   22.0153  -18.2207  -18.4115 N   0  0  0  0  0  0  0  0  0  0  0  0
   18.6267  -18.2240  -15.0269 C   0  0  0  0  0  0  0  0  0  0  0  0
   18.1020  -16.9690  -15.3578 O   0  0  0  0  0  0  0  0  0  0  0  0
   17.8387  -19.0263  -14.5010 O   0  0  0  0  0  0  0  0  0  0  0  0
  2  1  1  6
  2  3  1  0
  4  3  1  0
  5  4  2  0
  6  5  1  0
  7  6  1  0
  7 12  2  0
  8  7  1  0
  9  8  2  0
  9 10  1  0
 10 11  2  0
 11 12  1  0
 12  4  1  0
 13 14  2  0
 13  2  1  0
 15 13  1  0
 16 15  1  0
 17 18  1  0
 16 17  1  1
 19 18  1  0
 20 19  2  0
 21 16  1  0
 21 24  1  0
 22 21  2  0
 23 19  1  0
 25 24  1  0
 25 32  1  0
 26 27  1  0
 25 26  1  6
 27 31  1  0
 28 27  2  0
 28 29  1  0
 29 30  1  0
 31 30  2  0
 32 34  2  0
 32 33  1  0
M  END
$$$$
