WEH.pdb
     RDKit          3D

 34 36  0  0  1  0  0  0  0  0999 V2000
   22.5549  -18.4724  -15.6895 N   0  0  0  0  0  0  0  0  0  0  0  0
   21.3084  -18.5243  -16.3946 C   0  0  1  0  0  0  0  0  0  0  0  0
   21.1929  -19.8001  -17.2056 C   0  0  0  0  0  0  0  0  0  0  0  0
   22.2809  -19.7165  -18.2414 C   0  0  0  0  0  0  0  0  0  0  0  0
   23.4858  -20.4102  -18.2372 C   0  0  0  0  0  0  0  0  0  0  0  0
   24.2052  -20.0877  -19.3086 N   0  0  0  0  0  0  0  0  0  0  0  0
   23.5057  -19.1984  -20.0205 C   0  0  0  0  0  0  0  0  0  0  0  0
   23.7831  -18.5492  -21.1984 C   0  0  0  0  0  0  0  0  0  0  0  0
   22.9004  -17.6541  -21.7648 C   0  0  0  0  0  0  0  0  0  0  0  0
   21.7083  -17.4066  -21.1292 C   0  0  0  0  0  0  0  0  0  0  0  0
   21.4153  -18.0603  -19.9320 C   0  0  0  0  0  0  0  0  0  0  0  0
   22.3031  -18.9458  -19.3837 C   0  0  0  0  0  0  0  0  0  0  0  0
   20.1882  -18.3093  -15.4749 C   0  0  0  0  0  0  0  0  0  0  0  0
   20.2913  -18.7076  -14.2858 O   0  0  0  0  0  0  0  0  0  0  0  0
   18.9708  -17.6767  -15.8175 N   0  0  0  0  0  0  0  0  0  0  0  0
   17.9062  -17.4718  -14.8263 C   0  0  1  0  0  0  0  0  0  0  0  0
   17.3562  -16.1061  -15.0175 C   0  0  0  0  0  0  0  0  0  0  0  0
   16.1948  -16.1449  -15.9684 C   0  0  0  0  0  0  0  0  0  0  0  0
   15.1364  -15.1779  -15.6815 C   0  0  0  0  0  0  0  0  0  0  0  0
   15.3460  -14.0089  -15.3104 O   0  0  0  0  0  0  0  0  0  0  0  0
   16.8718  -18.5361  -14.9512 C   0  0  0  0  0  0  0  0  0  0  0  0
   16.6937  -19.0351  -16.0835 O   0  0  0  0  0  0  0  0  0  0  0  0
   13.8007  -15.5482  -15.8198 O   0  0  0  0  0  0  0  0  0  0  0  0
   16.0999  -18.9994  -13.8797 N   0  0  0  0  0  0  0  0  0  0  0  0
   15.0918  -20.0779  -14.0928 C   0  0  1  0  0  0  0  0  0  0  0  0
   15.4295  -21.1548  -13.1355 C   0  0  0  0  0  0  0  0  0  0  0  0
   16.6180  -21.9692  -13.4377 C   0  0  0  0  0  0  0  0  0  0  0  0
   16.8672  -22.8433  -14.4651 C   0  0  0  0  0  0  0  0  0  0  0  0
   18.1232  -23.3356  -14.3837 N   0  0  0  0  0  0  0  0  0  0  0  0
   18.6578  -22.7620  -13.2985 C   0  0  0  0  0  0  0  0  0  0  0  0
   17.7887  -21.9505  -12.7221 N   0  0  0  0  0  0  0  0  0  0  0  0
   13.7938  -19.4115  -13.7947 C   0  0  0  0  0  0  0  0  0  0  0  0
   12.6162  -20.1672  -13.8413 O   0  0  0  0  0  0  0  0  0  0  0  0
   13.6643  -18.2123  -13.5009 O   0  0  0  0  0  0  0  0  0  0  0  0
  2  1  1  1
  2  3  1  0
  4  3  1  0
  5  4  2  0
  6  5  1  0
  7  6  1  0
  7 12  2  0
  8  7  1  0
  9  8  2  0
  9 10  1  0
 10 11  2  0
 11 12  1  0
 12  4  1  0
 13 14  2  0
 13  2  1  0
 15 13  1  0
 16 15  1  0
 17 18  1  0
 16 17  1  6
 19 18  1  0
 20 19  2  0
 21 16  1  0
 21 24  1  0
 22 21  2  0
 23 19  1  0
 25 24  1  0
 25 32  1  0
 26 27  1  0
 25 26  1  1
 27 31  1  0
 28 27  2  0
 28 29  1  0
 29 30  1  0
 31 30  2  0
 32 34  2  0
 32 33  1  0
M  END
$$$$
