WEH.pdb
     RDKit          3D

 34 36  0  0  1  0  0  0  0  0999 V2000
   26.9056  -22.2164  -12.4939 N   0  0  0  0  0  0  0  0  0  0  0  0
   25.9830  -21.2870  -11.9120 C   0  0  1  0  0  0  0  0  0  0  0  0
   26.6771  -19.9931  -11.5341 C   0  0  0  0  0  0  0  0  0  0  0  0
   27.7509  -20.3852  -10.5558 C   0  0  0  0  0  0  0  0  0  0  0  0
   29.0370  -20.8148  -10.8631 C   0  0  0  0  0  0  0  0  0  0  0  0
   29.7124  -21.0775   -9.7477 N   0  0  0  0  0  0  0  0  0  0  0  0
   28.9047  -20.8320   -8.7111 C   0  0  0  0  0  0  0  0  0  0  0  0
   29.0992  -20.9379   -7.3559 C   0  0  0  0  0  0  0  0  0  0  0  0
   28.1082  -20.6267   -6.4490 C   0  0  0  0  0  0  0  0  0  0  0  0
   26.8908  -20.1979   -6.9188 C   0  0  0  0  0  0  0  0  0  0  0  0
   26.6816  -20.0863   -8.2936 C   0  0  0  0  0  0  0  0  0  0  0  0
   27.6764  -20.3995   -9.1798 C   0  0  0  0  0  0  0  0  0  0  0  0
   24.8232  -21.0976  -12.7870 C   0  0  0  0  0  0  0  0  0  0  0  0
   25.0126  -20.8987  -14.0149 O   0  0  0  0  0  0  0  0  0  0  0  0
   23.4755  -21.1201  -12.3594 N   0  0  0  0  0  0  0  0  0  0  0  0
   22.3653  -20.9788  -13.3109 C   0  0  1  0  0  0  0  0  0  0  0  0
   21.2996  -21.9357  -12.9199 C   0  0  0  0  0  0  0  0  0  0  0  0
   20.6819  -21.5174  -11.6168 C   0  0  0  0  0  0  0  0  0  0  0  0
   19.6527  -22.4232  -11.1088 C   0  0  0  0  0  0  0  0  0  0  0  0
   18.6000  -22.6885  -11.7166 O   0  0  0  0  0  0  0  0  0  0  0  0
   21.8921  -19.5670  -13.3471 C   0  0  0  0  0  0  0  0  0  0  0  0
   22.2074  -18.8299  -12.3880 O   0  0  0  0  0  0  0  0  0  0  0  0
   19.8230  -23.0463   -9.8747 O   0  0  0  0  0  0  0  0  0  0  0  0
   21.1229  -19.0315  -14.3864 N   0  0  0  0  0  0  0  0  0  0  0  0
   20.6897  -17.6048  -14.3405 C   0  0  1  0  0  0  0  0  0  0  0  0
   21.5115  -16.8906  -15.3428 C   0  0  0  0  0  0  0  0  0  0  0  0
   21.1634  -15.4862  -15.6142 C   0  0  0  0  0  0  0  0  0  0  0  0
   20.2912  -14.6403  -14.9773 C   0  0  0  0  0  0  0  0  0  0  0  0
   20.3250  -13.4082  -15.5315 N   0  0  0  0  0  0  0  0  0  0  0  0
   21.2256  -13.4896  -16.5189 C   0  0  0  0  0  0  0  0  0  0  0  0
   21.7352  -14.7068  -16.5882 N   0  0  0  0  0  0  0  0  0  0  0  0
   19.2452  -17.6631  -14.6978 C   0  0  0  0  0  0  0  0  0  0  0  0
   18.7136  -18.8639  -15.1829 O   0  0  0  0  0  0  0  0  0  0  0  0
   18.4523  -16.7129  -14.5992 O   0  0  0  0  0  0  0  0  0  0  0  0
  2  1  1  6
  2  3  1  0
  4  3  1  0
  5  4  2  0
  6  5  1  0
  7  6  1  0
  7 12  2  0
  8  7  1  0
  9  8  2  0
  9 10  1  0
 10 11  2  0
 11 12  1  0
 12  4  1  0
 13 14  2  0
 13  2  1  0
 15 13  1  0
 16 15  1  0
 17 18  1  0
 16 17  1  1
 19 18  1  0
 20 19  2  0
 21 16  1  0
 21 24  1  0
 22 21  2  0
 23 19  1  0
 25 24  1  0
 25 32  1  0
 26 27  1  0
 25 26  1  6
 27 31  1  0
 28 27  2  0
 28 29  1  0
 29 30  1  0
 31 30  2  0
 32 34  2  0
 32 33  1  0
M  END
$$$$
