WEH.pdb
     RDKit          3D

 34 36  0  0  1  0  0  0  0  0999 V2000
   26.0849  -22.5963  -13.5118 N   0  0  0  0  0  0  0  0  0  0  0  0
   25.3664  -21.7042  -12.6507 C   0  0  1  0  0  0  0  0  0  0  0  0
   26.0479  -20.3521  -12.5745 C   0  0  0  0  0  0  0  0  0  0  0  0
   27.1587  -20.5189  -11.5733 C   0  0  0  0  0  0  0  0  0  0  0  0
   28.4613  -20.9256  -11.8391 C   0  0  0  0  0  0  0  0  0  0  0  0
   29.1694  -20.9631  -10.7137 N   0  0  0  0  0  0  0  0  0  0  0  0
   28.3672  -20.5913   -9.7111 C   0  0  0  0  0  0  0  0  0  0  0  0
   28.5905  -20.4598   -8.3626 C   0  0  0  0  0  0  0  0  0  0  0  0
   27.5994  -20.0544   -7.4939 C   0  0  0  0  0  0  0  0  0  0  0  0
   26.3519  -19.7743   -7.9960 C   0  0  0  0  0  0  0  0  0  0  0  0
   26.1132  -19.9043   -9.3643 C   0  0  0  0  0  0  0  0  0  0  0  0
   27.1086  -20.3080  -10.2124 C   0  0  0  0  0  0  0  0  0  0  0  0
   23.9577  -21.6306  -13.0469 C   0  0  0  0  0  0  0  0  0  0  0  0
   23.6637  -21.7056  -14.2680 O   0  0  0  0  0  0  0  0  0  0  0  0
   22.8731  -21.4789  -12.1524 N   0  0  0  0  0  0  0  0  0  0  0  0
   21.4852  -21.4226  -12.6305 C   0  0  1  0  0  0  0  0  0  0  0  0
   20.6044  -21.9258  -11.5465 C   0  0  0  0  0  0  0  0  0  0  0  0
   19.2015  -22.0917  -12.0555 C   0  0  0  0  0  0  0  0  0  0  0  0
   18.2360  -22.5403  -11.0534 C   0  0  0  0  0  0  0  0  0  0  0  0
   17.7191  -21.7927  -10.2037 O   0  0  0  0  0  0  0  0  0  0  0  0
   21.1424  -20.0384  -13.0605 C   0  0  0  0  0  0  0  0  0  0  0  0
   21.9483  -19.1289  -12.7675 O   0  0  0  0  0  0  0  0  0  0  0  0
   17.8454  -23.8769  -11.0141 O   0  0  0  0  0  0  0  0  0  0  0  0
   19.9797  -19.7094  -13.7665 N   0  0  0  0  0  0  0  0  0  0  0  0
   20.0397  -18.7436  -14.9017 C   0  0  1  0  0  0  0  0  0  0  0  0
   21.1386  -19.2044  -15.7792 C   0  0  0  0  0  0  0  0  0  0  0  0
   21.3134  -18.4977  -17.0587 C   0  0  0  0  0  0  0  0  0  0  0  0
   21.3107  -17.1569  -17.3491 C   0  0  0  0  0  0  0  0  0  0  0  0
   21.5659  -16.9482  -18.6597 N   0  0  0  0  0  0  0  0  0  0  0  0
   21.7293  -18.1682  -19.1864 C   0  0  0  0  0  0  0  0  0  0  0  0
   21.5851  -19.1005  -18.2611 N   0  0  0  0  0  0  0  0  0  0  0  0
   18.6957  -18.8572  -15.5330 C   0  0  0  0  0  0  0  0  0  0  0  0
   18.0977  -20.1190  -15.6344 O   0  0  0  0  0  0  0  0  0  0  0  0
   18.0441  -17.9037  -15.9883 O   0  0  0  0  0  0  0  0  0  0  0  0
  2  1  1  6
  2  3  1  0
  4  3  1  0
  5  4  2  0
  6  5  1  0
  7  6  1  0
  7 12  2  0
  8  7  1  0
  9  8  2  0
  9 10  1  0
 10 11  2  0
 11 12  1  0
 12  4  1  0
 13 14  2  0
 13  2  1  0
 15 13  1  0
 16 15  1  0
 17 18  1  0
 16 17  1  1
 19 18  1  0
 20 19  2  0
 21 16  1  0
 21 24  1  0
 22 21  2  0
 23 19  1  0
 25 24  1  0
 25 32  1  0
 26 27  1  0
 25 26  1  6
 27 31  1  0
 28 27  2  0
 28 29  1  0
 29 30  1  0
 31 30  2  0
 32 34  2  0
 32 33  1  0
M  END
$$$$
