WEH.pdb
     RDKit          3D

 34 36  0  0  1  0  0  0  0  0999 V2000
   24.5129  -12.5426  -15.8689 N   0  0  0  0  0  0  0  0  0  0  0  0
   23.4071  -11.8102  -16.4114 C   0  0  1  0  0  0  0  0  0  0  0  0
   22.1050  -12.2198  -15.7516 C   0  0  0  0  0  0  0  0  0  0  0  0
   21.9323  -13.6787  -16.0768 C   0  0  0  0  0  0  0  0  0  0  0  0
   21.9355  -14.7362  -15.1742 C   0  0  0  0  0  0  0  0  0  0  0  0
   21.7584  -15.8880  -15.8156 N   0  0  0  0  0  0  0  0  0  0  0  0
   21.6383  -15.6179  -17.1193 C   0  0  0  0  0  0  0  0  0  0  0  0
   21.4428  -16.4326  -18.2073 C   0  0  0  0  0  0  0  0  0  0  0  0
   21.3470  -15.9309  -19.4880 C   0  0  0  0  0  0  0  0  0  0  0  0
   21.4505  -14.5745  -19.6779 C   0  0  0  0  0  0  0  0  0  0  0  0
   21.6491  -13.7368  -18.5802 C   0  0  0  0  0  0  0  0  0  0  0  0
   21.7420  -14.2518  -17.3156 C   0  0  0  0  0  0  0  0  0  0  0  0
   23.6670  -10.3694  -16.3539 C   0  0  0  0  0  0  0  0  0  0  0  0
   24.1190   -9.8740  -15.2893 O   0  0  0  0  0  0  0  0  0  0  0  0
   23.4481   -9.4652  -17.4189 N   0  0  0  0  0  0  0  0  0  0  0  0
   23.5783   -8.0138  -17.2332 C   0  0  1  0  0  0  0  0  0  0  0  0
   23.7013   -7.3877  -18.5738 C   0  0  0  0  0  0  0  0  0  0  0  0
   25.0051   -7.7773  -19.2086 C   0  0  0  0  0  0  0  0  0  0  0  0
   25.2350   -7.2057  -20.5345 C   0  0  0  0  0  0  0  0  0  0  0  0
   26.1239   -6.3724  -20.7867 O   0  0  0  0  0  0  0  0  0  0  0  0
   22.4254   -7.4873  -16.4510 C   0  0  0  0  0  0  0  0  0  0  0  0
   21.3458   -8.1131  -16.5256 O   0  0  0  0  0  0  0  0  0  0  0  0
   24.4325   -7.5908  -21.6060 O   0  0  0  0  0  0  0  0  0  0  0  0
   22.4889   -6.3430  -15.6476 N   0  0  0  0  0  0  0  0  0  0  0  0
   21.3464   -5.9880  -14.7567 C   0  0  1  0  0  0  0  0  0  0  0  0
   21.2681   -7.0585  -13.7379 C   0  0  0  0  0  0  0  0  0  0  0  0
   20.3752   -8.1925  -14.0273 C   0  0  0  0  0  0  0  0  0  0  0  0
   19.6330   -8.4862  -15.1430 C   0  0  0  0  0  0  0  0  0  0  0  0
   18.9948   -9.6687  -14.9985 N   0  0  0  0  0  0  0  0  0  0  0  0
   19.3443  -10.1128  -13.7847 C   0  0  0  0  0  0  0  0  0  0  0  0
   20.1593   -9.2587  -13.1909 N   0  0  0  0  0  0  0  0  0  0  0  0
   21.7366   -4.6662  -14.1925 C   0  0  0  0  0  0  0  0  0  0  0  0
   22.8945   -4.0398  -14.6687 O   0  0  0  0  0  0  0  0  0  0  0  0
   21.1059   -4.0572  -13.3135 O   0  0  0  0  0  0  0  0  0  0  0  0
  2  1  1  1
  2  3  1  0
  4  3  1  0
  5  4  2  0
  6  5  1  0
  7  6  1  0
  7 12  2  0
  8  7  1  0
  9  8  2  0
  9 10  1  0
 10 11  2  0
 11 12  1  0
 12  4  1  0
 13 14  2  0
 13  2  1  0
 15 13  1  0
 16 15  1  0
 17 18  1  0
 16 17  1  6
 19 18  1  0
 20 19  2  0
 21 16  1  0
 21 24  1  0
 22 21  2  0
 23 19  1  0
 25 24  1  0
 25 32  1  0
 26 27  1  0
 25 26  1  1
 27 31  1  0
 28 27  2  0
 28 29  1  0
 29 30  1  0
 31 30  2  0
 32 34  2  0
 32 33  1  0
M  END
$$$$
