WEH.pdb
     RDKit          3D

 34 36  0  0  1  0  0  0  0  0999 V2000
   28.4083  -21.0852   -9.9807 N   0  0  0  0  0  0  0  0  0  0  0  0
   27.0005  -21.1713   -9.7271 C   0  0  1  0  0  0  0  0  0  0  0  0
   26.5777  -20.1855   -8.6556 C   0  0  0  0  0  0  0  0  0  0  0  0
   27.8187  -19.9129   -7.8496 C   0  0  0  0  0  0  0  0  0  0  0  0
   29.0796  -19.6031   -8.3465 C   0  0  0  0  0  0  0  0  0  0  0  0
   29.9377  -19.4282   -7.3452 N   0  0  0  0  0  0  0  0  0  0  0  0
   29.2751  -19.6147   -6.1992 C   0  0  0  0  0  0  0  0  0  0  0  0
   29.6808  -19.5547   -4.8887 C   0  0  0  0  0  0  0  0  0  0  0  0
   28.8121  -19.7874   -3.8435 C   0  0  0  0  0  0  0  0  0  0  0  0
   27.5018  -20.0879   -4.1251 C   0  0  0  0  0  0  0  0  0  0  0  0
   27.0780  -20.1517   -5.4528 C   0  0  0  0  0  0  0  0  0  0  0  0
   27.9538  -19.9179   -6.4781 C   0  0  0  0  0  0  0  0  0  0  0  0
   26.2444  -21.0422  -10.9755 C   0  0  0  0  0  0  0  0  0  0  0  0
   26.0995  -19.9007  -11.4846 O   0  0  0  0  0  0  0  0  0  0  0  0
   25.6488  -22.1172  -11.6749 N   0  0  0  0  0  0  0  0  0  0  0  0
   24.9051  -21.9032  -12.9235 C   0  0  1  0  0  0  0  0  0  0  0  0
   25.0108  -23.1388  -13.7396 C   0  0  0  0  0  0  0  0  0  0  0  0
   24.2959  -22.9573  -15.0475 C   0  0  0  0  0  0  0  0  0  0  0  0
   23.8061  -24.1942  -15.6540 C   0  0  0  0  0  0  0  0  0  0  0  0
   23.0453  -24.2313  -16.6378 O   0  0  0  0  0  0  0  0  0  0  0  0
   23.4958  -21.5230  -12.6270 C   0  0  0  0  0  0  0  0  0  0  0  0
   23.1971  -21.3087  -11.4322 O   0  0  0  0  0  0  0  0  0  0  0  0
   24.1910  -25.4256  -15.1286 O   0  0  0  0  0  0  0  0  0  0  0  0
   22.5030  -21.3952  -13.6051 N   0  0  0  0  0  0  0  0  0  0  0  0
   21.3274  -20.5080  -13.3689 C   0  0  1  0  0  0  0  0  0  0  0  0
   21.8676  -19.1398  -13.2075 C   0  0  0  0  0  0  0  0  0  0  0  0
   20.8926  -18.0381  -13.1543 C   0  0  0  0  0  0  0  0  0  0  0  0
   19.5256  -18.0456  -13.2692 C   0  0  0  0  0  0  0  0  0  0  0  0
   19.0221  -16.8026  -13.1019 N   0  0  0  0  0  0  0  0  0  0  0  0
   20.0843  -16.0181  -12.8805 C   0  0  0  0  0  0  0  0  0  0  0  0
   21.2010  -16.7242  -12.9064 N   0  0  0  0  0  0  0  0  0  0  0  0
   20.5064  -20.6749  -14.6001 C   0  0  0  0  0  0  0  0  0  0  0  0
   19.1835  -20.2169  -14.6012 O   0  0  0  0  0  0  0  0  0  0  0  0
   20.9060  -21.1989  -15.6522 O   0  0  0  0  0  0  0  0  0  0  0  0
  2  1  1  6
  2  3  1  0
  4  3  1  0
  5  4  2  0
  6  5  1  0
  7  6  1  0
  7 12  2  0
  8  7  1  0
  9  8  2  0
  9 10  1  0
 10 11  2  0
 11 12  1  0
 12  4  1  0
 13 14  2  0
 13  2  1  0
 15 13  1  0
 16 15  1  0
 17 18  1  0
 16 17  1  6
 19 18  1  0
 20 19  2  0
 21 16  1  0
 21 24  1  0
 22 21  2  0
 23 19  1  0
 25 24  1  0
 25 32  1  0
 26 27  1  0
 25 26  1  6
 27 31  1  0
 28 27  2  0
 28 29  1  0
 29 30  1  0
 31 30  2  0
 32 34  2  0
 32 33  1  0
M  END
$$$$
