WEH.pdb
     RDKit          3D

 34 36  0  0  1  0  0  0  0  0999 V2000
   24.7889   -4.5417  -23.0671 N   0  0  0  0  0  0  0  0  0  0  0  0
   23.9967   -3.8650  -22.0831 C   0  0  1  0  0  0  0  0  0  0  0  0
   22.5322   -3.8541  -22.4749 C   0  0  0  0  0  0  0  0  0  0  0  0
   22.4385   -2.9192  -23.6501 C   0  0  0  0  0  0  0  0  0  0  0  0
   22.5684   -3.2577  -24.9923 C   0  0  0  0  0  0  0  0  0  0  0  0
   22.4301   -2.1762  -25.7542 N   0  0  0  0  0  0  0  0  0  0  0  0
   22.2120   -1.1317  -24.9490 C   0  0  0  0  0  0  0  0  0  0  0  0
   22.0051    0.1996  -25.2146 C   0  0  0  0  0  0  0  0  0  0  0  0
   21.7970    1.1213  -24.2104 C   0  0  0  0  0  0  0  0  0  0  0  0
   21.7971    0.6915  -22.9059 C   0  0  0  0  0  0  0  0  0  0  0  0
   22.0061   -0.6587  -22.6237 C   0  0  0  0  0  0  0  0  0  0  0  0
   22.2112   -1.5601  -23.6329 C   0  0  0  0  0  0  0  0  0  0  0  0
   24.2445   -4.4230  -20.7511 C   0  0  0  0  0  0  0  0  0  0  0  0
   24.4068   -5.6650  -20.6317 O   0  0  0  0  0  0  0  0  0  0  0  0
   24.3188   -3.6666  -19.5587 N   0  0  0  0  0  0  0  0  0  0  0  0
   24.5177   -4.3092  -18.2528 C   0  0  1  0  0  0  0  0  0  0  0  0
   25.6819   -3.6640  -17.5951 C   0  0  0  0  0  0  0  0  0  0  0  0
   26.9621   -4.2063  -18.1622 C   0  0  0  0  0  0  0  0  0  0  0  0
   28.1730   -3.7627  -17.4732 C   0  0  0  0  0  0  0  0  0  0  0  0
   28.1704   -3.0378  -16.4620 O   0  0  0  0  0  0  0  0  0  0  0  0
   23.2724   -4.2246  -17.4401 C   0  0  0  0  0  0  0  0  0  0  0  0
   22.4406   -3.3452  -17.7520 O   0  0  0  0  0  0  0  0  0  0  0  0
   29.4239   -4.1533  -17.9455 O   0  0  0  0  0  0  0  0  0  0  0  0
   22.9904   -5.0687  -16.3599 N   0  0  0  0  0  0  0  0  0  0  0  0
   21.7000   -4.9381  -15.6232 C   0  0  1  0  0  0  0  0  0  0  0  0
   20.6294   -5.1083  -16.6306 C   0  0  0  0  0  0  0  0  0  0  0  0
   19.2552   -5.2628  -16.1260 C   0  0  0  0  0  0  0  0  0  0  0  0
   18.7494   -5.1504  -14.8558 C   0  0  0  0  0  0  0  0  0  0  0  0
   17.4086   -5.3193  -14.8553 N   0  0  0  0  0  0  0  0  0  0  0  0
   17.0795   -5.5371  -16.1347 C   0  0  0  0  0  0  0  0  0  0  0  0
   18.1527   -5.5086  -16.9052 N   0  0  0  0  0  0  0  0  0  0  0  0
   21.7500   -6.0425  -14.6255 C   0  0  0  0  0  0  0  0  0  0  0  0
   20.6704   -6.2172  -13.7514 O   0  0  0  0  0  0  0  0  0  0  0  0
   22.6916   -6.8418  -14.5002 O   0  0  0  0  0  0  0  0  0  0  0  0
  2  1  1  6
  2  3  1  0
  4  3  1  0
  5  4  2  0
  6  5  1  0
  7  6  1  0
  7 12  2  0
  8  7  1  0
  9  8  2  0
  9 10  1  0
 10 11  2  0
 11 12  1  0
 12  4  1  0
 13 14  2  0
 13  2  1  0
 15 13  1  0
 16 15  1  0
 17 18  1  0
 16 17  1  1
 19 18  1  0
 20 19  2  0
 21 16  1  0
 21 24  1  0
 22 21  2  0
 23 19  1  0
 25 24  1  0
 25 32  1  0
 26 27  1  0
 25 26  1  6
 27 31  1  0
 28 27  2  0
 28 29  1  0
 29 30  1  0
 31 30  2  0
 32 34  2  0
 32 33  1  0
M  END
$$$$
