WEH.pdb
     RDKit          3D

 34 36  0  0  1  0  0  0  0  0999 V2000
   27.4038  -22.1108  -11.7518 N   0  0  0  0  0  0  0  0  0  0  0  0
   26.2811  -21.3118  -11.3585 C   0  0  1  0  0  0  0  0  0  0  0  0
   26.7314  -19.9834  -10.7831 C   0  0  0  0  0  0  0  0  0  0  0  0
   27.8237  -20.3201   -9.8046 C   0  0  0  0  0  0  0  0  0  0  0  0
   29.0047  -20.9999  -10.0806 C   0  0  0  0  0  0  0  0  0  0  0  0
   29.7343  -21.1207   -8.9750 N   0  0  0  0  0  0  0  0  0  0  0  0
   29.0651  -20.5375   -7.9755 C   0  0  0  0  0  0  0  0  0  0  0  0
   29.3638  -20.3811   -6.6443 C   0  0  0  0  0  0  0  0  0  0  0  0
   28.5112  -19.7336   -5.7753 C   0  0  0  0  0  0  0  0  0  0  0  0
   27.3281  -19.2308   -6.2591 C   0  0  0  0  0  0  0  0  0  0  0  0
   27.0138  -19.3836   -7.6097 C   0  0  0  0  0  0  0  0  0  0  0  0
   27.8718  -20.0292   -8.4584 C   0  0  0  0  0  0  0  0  0  0  0  0
   25.3305  -21.1804  -12.4657 C   0  0  0  0  0  0  0  0  0  0  0  0
   25.7647  -20.8876  -13.6098 O   0  0  0  0  0  0  0  0  0  0  0  0
   23.9321  -21.3592  -12.3562 N   0  0  0  0  0  0  0  0  0  0  0  0
   23.0585  -21.3241  -13.5367 C   0  0  1  0  0  0  0  0  0  0  0  0
   23.1037  -22.6602  -14.1825 C   0  0  0  0  0  0  0  0  0  0  0  0
   22.2720  -22.6585  -15.4327 C   0  0  0  0  0  0  0  0  0  0  0  0
   21.4352  -23.8439  -15.6125 C   0  0  0  0  0  0  0  0  0  0  0  0
   20.4583  -23.8939  -16.3814 O   0  0  0  0  0  0  0  0  0  0  0  0
   21.6803  -20.9144  -13.1479 C   0  0  0  0  0  0  0  0  0  0  0  0
   21.3079  -21.1801  -11.9846 O   0  0  0  0  0  0  0  0  0  0  0  0
   21.7150  -25.0068  -14.8986 O   0  0  0  0  0  0  0  0  0  0  0  0
   20.7936  -20.2558  -14.0074 N   0  0  0  0  0  0  0  0  0  0  0  0
   19.4208  -19.9036  -13.5424 C   0  0  1  0  0  0  0  0  0  0  0  0
   19.0290  -18.6891  -14.2917 C   0  0  0  0  0  0  0  0  0  0  0  0
   19.5812  -17.4075  -13.8232 C   0  0  0  0  0  0  0  0  0  0  0  0
   19.5195  -16.8014  -12.5940 C   0  0  0  0  0  0  0  0  0  0  0  0
   20.2197  -15.6455  -12.5920 N   0  0  0  0  0  0  0  0  0  0  0  0
   20.7207  -15.5339  -13.8287 C   0  0  0  0  0  0  0  0  0  0  0  0
   20.3578  -16.5622  -14.5751 N   0  0  0  0  0  0  0  0  0  0  0  0
   18.6100  -21.1012  -13.8975 C   0  0  0  0  0  0  0  0  0  0  0  0
   17.5202  -21.4472  -13.0896 O   0  0  0  0  0  0  0  0  0  0  0  0
   18.8239  -21.8372  -14.8741 O   0  0  0  0  0  0  0  0  0  0  0  0
  2  1  1  6
  2  3  1  0
  4  3  1  0
  5  4  2  0
  6  5  1  0
  7  6  1  0
  7 12  2  0
  8  7  1  0
  9  8  2  0
  9 10  1  0
 10 11  2  0
 11 12  1  0
 12  4  1  0
 13 14  2  0
 13  2  1  0
 15 13  1  0
 16 15  1  0
 17 18  1  0
 16 17  1  1
 19 18  1  0
 20 19  2  0
 21 16  1  0
 21 24  1  0
 22 21  2  0
 23 19  1  0
 25 24  1  0
 25 32  1  0
 26 27  1  0
 25 26  1  6
 27 31  1  0
 28 27  2  0
 28 29  1  0
 29 30  1  0
 31 30  2  0
 32 34  2  0
 32 33  1  0
M  END
$$$$
