WEH.pdb
     RDKit          3D

 34 36  0  0  1  0  0  0  0  0999 V2000
   20.5931  -17.3618  -19.0392 N   0  0  0  0  0  0  0  0  0  0  0  0
   20.0204  -16.3698  -18.1780 C   0  0  1  0  0  0  0  0  0  0  0  0
   19.3779  -15.2556  -18.9806 C   0  0  0  0  0  0  0  0  0  0  0  0
   20.5129  -14.5624  -19.6843 C   0  0  0  0  0  0  0  0  0  0  0  0
   21.2424  -15.0502  -20.7626 C   0  0  0  0  0  0  0  0  0  0  0  0
   22.1714  -14.1698  -21.1246 N   0  0  0  0  0  0  0  0  0  0  0  0
   22.0738  -13.1124  -20.3125 C   0  0  0  0  0  0  0  0  0  0  0  0
   22.7836  -11.9385  -20.2512 C   0  0  0  0  0  0  0  0  0  0  0  0
   22.5082  -10.9663  -19.3129 C   0  0  0  0  0  0  0  0  0  0  0  0
   21.4924  -11.1817  -18.4139 C   0  0  0  0  0  0  0  0  0  0  0  0
   20.7643  -12.3706  -18.4665 C   0  0  0  0  0  0  0  0  0  0  0  0
   21.0511  -13.3250  -19.4045 C   0  0  0  0  0  0  0  0  0  0  0  0
   19.1159  -16.9918  -17.2076 C   0  0  0  0  0  0  0  0  0  0  0  0
   18.3161  -17.8793  -17.6022 O   0  0  0  0  0  0  0  0  0  0  0  0
   19.0634  -16.6723  -15.8311 N   0  0  0  0  0  0  0  0  0  0  0  0
   18.0757  -17.2902  -14.9363 C   0  0  1  0  0  0  0  0  0  0  0  0
   18.7403  -17.5657  -13.6376 C   0  0  0  0  0  0  0  0  0  0  0  0
   19.4410  -18.8929  -13.6867 C   0  0  0  0  0  0  0  0  0  0  0  0
   20.1131  -19.2762  -12.4461 C   0  0  0  0  0  0  0  0  0  0  0  0
   19.7463  -18.9087  -11.3155 O   0  0  0  0  0  0  0  0  0  0  0  0
   16.8802  -16.4123  -14.8010 C   0  0  0  0  0  0  0  0  0  0  0  0
   17.0657  -15.1769  -14.8468 O   0  0  0  0  0  0  0  0  0  0  0  0
   21.2349  -20.1009  -12.4898 O   0  0  0  0  0  0  0  0  0  0  0  0
   15.5777  -16.8941  -14.6279 N   0  0  0  0  0  0  0  0  0  0  0  0
   14.4365  -15.9418  -14.5017 C   0  0  1  0  0  0  0  0  0  0  0  0
   13.6712  -16.0436  -15.7642 C   0  0  0  0  0  0  0  0  0  0  0  0
   12.3685  -15.3597  -15.8132 C   0  0  0  0  0  0  0  0  0  0  0  0
   11.1054  -15.8179  -15.5366 C   0  0  0  0  0  0  0  0  0  0  0  0
   10.1962  -14.8257  -15.6599 N   0  0  0  0  0  0  0  0  0  0  0  0
   10.9003  -13.7434  -16.0145 C   0  0  0  0  0  0  0  0  0  0  0  0
   12.1859  -14.0328  -16.1116 N   0  0  0  0  0  0  0  0  0  0  0  0
   13.6868  -16.4445  -13.3172 C   0  0  0  0  0  0  0  0  0  0  0  0
   13.9878  -17.7151  -12.8123 O   0  0  0  0  0  0  0  0  0  0  0  0
   12.7951  -15.8162  -12.7244 O   0  0  0  0  0  0  0  0  0  0  0  0
  2  1  1  6
  2  3  1  0
  4  3  1  0
  5  4  2  0
  6  5  1  0
  7  6  1  0
  7 12  2  0
  8  7  1  0
  9  8  2  0
  9 10  1  0
 10 11  2  0
 11 12  1  0
 12  4  1  0
 13 14  2  0
 13  2  1  0
 15 13  1  0
 16 15  1  0
 17 18  1  0
 16 17  1  1
 19 18  1  0
 20 19  2  0
 21 16  1  0
 21 24  1  0
 22 21  2  0
 23 19  1  0
 25 24  1  0
 25 32  1  0
 26 27  1  0
 25 26  1  6
 27 31  1  0
 28 27  2  0
 28 29  1  0
 29 30  1  0
 31 30  2  0
 32 34  2  0
 32 33  1  0
M  END
$$$$
