WEH.pdb
     RDKit          3D

 34 36  0  0  1  0  0  0  0  0999 V2000
   24.7460  -20.0714   -8.6467 N   0  0  0  0  0  0  0  0  0  0  0  0
   25.9985  -20.3100   -9.3009 C   0  0  1  0  0  0  0  0  0  0  0  0
   26.7546  -21.4431   -8.6354 C   0  0  0  0  0  0  0  0  0  0  0  0
   26.9704  -21.0004   -7.2137 C   0  0  0  0  0  0  0  0  0  0  0  0
   26.0490  -21.0675   -6.1747 C   0  0  0  0  0  0  0  0  0  0  0  0
   26.5825  -20.5848   -5.0558 N   0  0  0  0  0  0  0  0  0  0  0  0
   27.8333  -20.2006   -5.3296 C   0  0  0  0  0  0  0  0  0  0  0  0
   28.8107  -19.6420   -4.5433 C   0  0  0  0  0  0  0  0  0  0  0  0
   30.0543  -19.3182   -5.0431 C   0  0  0  0  0  0  0  0  0  0  0  0
   30.3204  -19.5633   -6.3682 C   0  0  0  0  0  0  0  0  0  0  0  0
   29.3352  -20.1306   -7.1768 C   0  0  0  0  0  0  0  0  0  0  0  0
   28.1060  -20.4457   -6.6642 C   0  0  0  0  0  0  0  0  0  0  0  0
   25.7986  -20.5023  -10.7396 C   0  0  0  0  0  0  0  0  0  0  0  0
   24.6249  -20.5769  -11.1869 O   0  0  0  0  0  0  0  0  0  0  0  0
   26.8375  -20.6138  -11.6924 N   0  0  0  0  0  0  0  0  0  0  0  0
   26.7381  -19.9815  -13.0147 C   0  0  1  0  0  0  0  0  0  0  0  0
   28.1050  -19.8963  -13.5879 C   0  0  0  0  0  0  0  0  0  0  0  0
   28.0538  -19.2836  -14.9577 C   0  0  0  0  0  0  0  0  0  0  0  0
   28.3259  -20.2120  -16.0539 C   0  0  0  0  0  0  0  0  0  0  0  0
   29.0826  -21.1951  -15.9595 O   0  0  0  0  0  0  0  0  0  0  0  0
   25.7926  -20.7397  -13.8804 C   0  0  0  0  0  0  0  0  0  0  0  0
   25.8356  -21.9878  -13.8240 O   0  0  0  0  0  0  0  0  0  0  0  0
   27.7214  -20.0193  -17.2940 O   0  0  0  0  0  0  0  0  0  0  0  0
   24.8711  -20.1337  -14.7420 N   0  0  0  0  0  0  0  0  0  0  0  0
   23.4766  -20.6550  -14.8353 C   0  0  1  0  0  0  0  0  0  0  0  0
   22.9330  -20.6310  -13.4590 C   0  0  0  0  0  0  0  0  0  0  0  0
   21.5006  -20.9312  -13.3008 C   0  0  0  0  0  0  0  0  0  0  0  0
   20.5414  -21.2376  -14.2325 C   0  0  0  0  0  0  0  0  0  0  0  0
   19.3569  -21.4972  -13.6358 N   0  0  0  0  0  0  0  0  0  0  0  0
   19.5828  -21.3519  -12.3241 C   0  0  0  0  0  0  0  0  0  0  0  0
   20.8416  -21.0178  -12.1003 N   0  0  0  0  0  0  0  0  0  0  0  0
   22.8014  -19.6946  -15.7514 C   0  0  0  0  0  0  0  0  0  0  0  0
   21.5171  -19.9933  -16.2217 O   0  0  0  0  0  0  0  0  0  0  0  0
   23.2934  -18.6242  -16.1431 O   0  0  0  0  0  0  0  0  0  0  0  0
  2  1  1  1
  2  3  1  0
  4  3  1  0
  5  4  2  0
  6  5  1  0
  7  6  1  0
  7 12  2  0
  8  7  1  0
  9  8  2  0
  9 10  1  0
 10 11  2  0
 11 12  1  0
 12  4  1  0
 13 14  2  0
 13  2  1  0
 15 13  1  0
 16 15  1  0
 17 18  1  0
 16 17  1  6
 19 18  1  0
 20 19  2  0
 21 16  1  0
 21 24  1  0
 22 21  2  0
 23 19  1  0
 25 24  1  0
 25 32  1  0
 26 27  1  0
 25 26  1  1
 27 31  1  0
 28 27  2  0
 28 29  1  0
 29 30  1  0
 31 30  2  0
 32 34  2  0
 32 33  1  0
M  END
$$$$
