DNH.pdb
     RDKit          3D

 27 27  0  0  1  0  0  0  0  0999 V2000
   16.2959  -10.0896  -12.9001 N   0  0  0  0  0  0  0  0  0  0  0  0
   16.3165   -9.5010  -11.5980 C   0  0  1  0  0  0  0  0  0  0  0  0
   16.7462  -10.5236  -10.5334 C   0  0  0  0  0  0  0  0  0  0  0  0
   15.8741  -11.7154  -10.5896 C   0  0  0  0  0  0  0  0  0  0  0  0
   14.7175  -11.6463  -10.0998 O   0  0  0  0  0  0  0  0  0  0  0  0
   17.3184   -8.3968  -11.4881 C   0  0  0  0  0  0  0  0  0  0  0  0
   17.6997   -8.0203  -10.3471 O   0  0  0  0  0  0  0  0  0  0  0  0
   16.2526  -12.9106  -11.1509 O   0  0  0  0  0  0  0  0  0  0  0  0
   22.0222   -7.0125  -12.9186 N   0  0  0  0  0  0  0  0  0  0  0  0
   21.5262   -8.3127  -12.4716 C   0  0  0  0  0  0  0  0  0  0  0  0
   22.4144   -9.1561  -12.2447 O   0  0  0  0  0  0  0  0  0  0  0  0
   20.0886   -8.4181  -12.3630 C   0  0  0  0  0  0  0  0  0  0  0  0
   19.2440   -7.2254  -12.6726 C   0  0  2  0  0  0  0  0  0  0  0  0
   17.8547   -7.7591  -12.6095 N   0  0  0  0  0  0  0  0  0  0  0  0
   19.4008   -6.7089  -14.0486 C   0  0  0  0  0  0  0  0  0  0  0  0
   20.4775   -6.0501  -14.3009 O   0  0  0  0  0  0  0  0  0  0  0  0
   18.5148   -6.8560  -15.1175 N   0  0  0  0  0  0  0  0  0  0  0  0
   18.7184   -6.1606  -16.4039 C   0  0  1  0  0  0  0  0  0  0  0  0
   18.2095   -7.0134  -17.5186 C   0  0  0  0  0  0  0  0  0  0  0  0
   18.3431   -6.3793  -18.8416 C   0  0  0  0  0  0  0  0  0  0  0  0
   19.4400   -5.7224  -19.3975 C   0  0  0  0  0  0  0  0  0  0  0  0
   19.1358   -5.2899  -20.6329 N   0  0  0  0  0  0  0  0  0  0  0  0
   17.8646   -5.6599  -20.8734 C   0  0  0  0  0  0  0  0  0  0  0  0
   17.3941   -6.3139  -19.7935 N   0  0  0  0  0  0  0  0  0  0  0  0
   18.0502   -4.8519  -16.4044 C   0  0  0  0  0  0  0  0  0  0  0  0
   16.9376   -4.6676  -15.8561 O   0  0  0  0  0  0  0  0  0  0  0  0
   18.6735   -3.7860  -17.0332 O   0  0  0  0  0  0  0  0  0  0  0  0
  2  1  1  6
  2  3  1  0
  4  3  1  0
  4  5  2  0
  6  2  1  0
  7  6  2  0
  8  4  1  0
 10  9  1  0
 11 10  2  0
 12 10  1  0
 13 12  1  6
 13 14  1  0
 14  6  1  0
 15 13  1  0
 15 16  2  0
 17 15  1  0
 18 17  1  0
 18 19  1  6
 19 20  1  0
 20 21  2  0
 21 22  1  0
 23 22  1  0
 24 20  1  0
 24 23  2  0
 25 18  1  0
 26 25  2  0
 27 25  1  0
M  END
$$$$
