DNH.pdb
     RDKit          3D

 27 27  0  0  1  0  0  0  0  0999 V2000
   18.3528  -13.1356  -15.5782 N   0  0  0  0  0  0  0  0  0  0  0  0
   18.0123  -11.8265  -16.0393 C   0  0  1  0  0  0  0  0  0  0  0  0
   16.5053  -11.5606  -15.8920 C   0  0  0  0  0  0  0  0  0  0  0  0
   15.7355  -12.5211  -16.7101 C   0  0  0  0  0  0  0  0  0  0  0  0
   15.0046  -13.3649  -16.1303 O   0  0  0  0  0  0  0  0  0  0  0  0
   18.6668  -10.7508  -15.2332 C   0  0  0  0  0  0  0  0  0  0  0  0
   18.4780  -10.7112  -13.9876 O   0  0  0  0  0  0  0  0  0  0  0  0
   15.7687  -12.5506  -18.0830 O   0  0  0  0  0  0  0  0  0  0  0  0
   23.5021   -7.3739  -15.7841 N   0  0  0  0  0  0  0  0  0  0  0  0
   22.4480   -7.7516  -14.8445 C   0  0  0  0  0  0  0  0  0  0  0  0
   22.4706   -7.1323  -13.7639 O   0  0  0  0  0  0  0  0  0  0  0  0
   21.5473   -8.7809  -15.3124 C   0  0  0  0  0  0  0  0  0  0  0  0
   20.0827   -8.6424  -15.0522 C   0  0  2  0  0  0  0  0  0  0  0  0
   19.4873   -9.7783  -15.8101 N   0  0  0  0  0  0  0  0  0  0  0  0
   19.4738   -7.4262  -15.6311 C   0  0  0  0  0  0  0  0  0  0  0  0
   18.7990   -7.5766  -16.7168 O   0  0  0  0  0  0  0  0  0  0  0  0
   19.5402   -6.1235  -15.1333 N   0  0  0  0  0  0  0  0  0  0  0  0
   18.9025   -4.9872  -15.8275 C   0  0  1  0  0  0  0  0  0  0  0  0
   17.4204   -5.1668  -15.8221 C   0  0  0  0  0  0  0  0  0  0  0  0
   16.6992   -4.0579  -16.4705 C   0  0  0  0  0  0  0  0  0  0  0  0
   17.1527   -3.1524  -17.4289 C   0  0  0  0  0  0  0  0  0  0  0  0
   16.1680   -2.2968  -17.7513 N   0  0  0  0  0  0  0  0  0  0  0  0
   15.0956   -2.6415  -17.0152 C   0  0  0  0  0  0  0  0  0  0  0  0
   15.4213   -3.7001  -16.2479 N   0  0  0  0  0  0  0  0  0  0  0  0
   19.2736   -3.7124  -15.1980 C   0  0  0  0  0  0  0  0  0  0  0  0
   19.4832   -3.6098  -13.9659 O   0  0  0  0  0  0  0  0  0  0  0  0
   19.3957   -2.5861  -15.9958 O   0  0  0  0  0  0  0  0  0  0  0  0
  2  1  1  1
  2  3  1  0
  4  3  1  0
  4  5  2  0
  6  2  1  0
  7  6  2  0
  8  4  1  0
 10  9  1  0
 11 10  2  0
 12 10  1  0
 13 12  1  6
 13 14  1  0
 14  6  1  0
 15 13  1  0
 15 16  2  0
 17 15  1  0
 18 17  1  0
 18 19  1  1
 19 20  1  0
 20 21  2  0
 21 22  1  0
 23 22  1  0
 24 20  1  0
 24 23  2  0
 25 18  1  0
 26 25  2  0
 27 25  1  0
M  END
$$$$
