DNH.pdb
     RDKit          3D

 27 27  0  0  1  0  0  0  0  0999 V2000
   22.1046  -19.5250  -17.3140 N   0  0  0  0  0  0  0  0  0  0  0  0
   22.8371  -20.4406  -16.4972 C   0  0  1  0  0  0  0  0  0  0  0  0
   24.1422  -19.8079  -15.9873 C   0  0  0  0  0  0  0  0  0  0  0  0
   25.0207  -19.4640  -17.1249 C   0  0  0  0  0  0  0  0  0  0  0  0
   24.6397  -19.7377  -18.2921 O   0  0  0  0  0  0  0  0  0  0  0  0
   22.0915  -20.8204  -15.2581 C   0  0  0  0  0  0  0  0  0  0  0  0
   22.6624  -21.5308  -14.3874 O   0  0  0  0  0  0  0  0  0  0  0  0
   26.2444  -18.8556  -16.9857 O   0  0  0  0  0  0  0  0  0  0  0  0
   21.8422  -20.0458  -11.8053 N   0  0  0  0  0  0  0  0  0  0  0  0
   20.7531  -19.0981  -12.0339 C   0  0  0  0  0  0  0  0  0  0  0  0
   20.7555  -18.1123  -11.2723 O   0  0  0  0  0  0  0  0  0  0  0  0
   19.8460  -19.4501  -13.1029 C   0  0  0  0  0  0  0  0  0  0  0  0
   20.0086  -20.7640  -13.7950 C   0  0  2  0  0  0  0  0  0  0  0  0
   20.7750  -20.4158  -15.0239 N   0  0  0  0  0  0  0  0  0  0  0  0
   18.7444  -21.3576  -14.2794 C   0  0  0  0  0  0  0  0  0  0  0  0
   18.1280  -20.7238  -15.2149 O   0  0  0  0  0  0  0  0  0  0  0  0
   18.1370  -22.5363  -13.8425 N   0  0  0  0  0  0  0  0  0  0  0  0
   16.8140  -22.9650  -14.3383 C   0  0  1  0  0  0  0  0  0  0  0  0
   16.5921  -24.4001  -13.9922 C   0  0  0  0  0  0  0  0  0  0  0  0
   17.4109  -25.3240  -14.7960 C   0  0  0  0  0  0  0  0  0  0  0  0
   18.2678  -25.0445  -15.8598 C   0  0  0  0  0  0  0  0  0  0  0  0
   18.8206  -26.1826  -16.3125 N   0  0  0  0  0  0  0  0  0  0  0  0
   18.3308  -27.1818  -15.5559 C   0  0  0  0  0  0  0  0  0  0  0  0
   17.4846  -26.6594  -14.6468 N   0  0  0  0  0  0  0  0  0  0  0  0
   15.7465  -22.1245  -13.7788 C   0  0  0  0  0  0  0  0  0  0  0  0
   15.9493  -21.3238  -12.8353 O   0  0  0  0  0  0  0  0  0  0  0  0
   14.4722  -22.2220  -14.3143 O   0  0  0  0  0  0  0  0  0  0  0  0
  2  1  1  1
  2  3  1  0
  4  3  1  0
  4  5  2  0
  6  2  1  0
  7  6  2  0
  8  4  1  0
 10  9  1  0
 11 10  2  0
 12 10  1  0
 13 12  1  6
 13 14  1  0
 14  6  1  0
 15 13  1  0
 15 16  2  0
 17 15  1  0
 18 17  1  0
 18 19  1  1
 19 20  1  0
 20 21  2  0
 21 22  1  0
 23 22  1  0
 24 20  1  0
 24 23  2  0
 25 18  1  0
 26 25  2  0
 27 25  1  0
M  END
$$$$
