DNH.pdb
     RDKit          3D

 27 27  0  0  1  0  0  0  0  0999 V2000
   18.2651  -13.8425  -15.9861 N   0  0  0  0  0  0  0  0  0  0  0  0
   18.2972  -12.6663  -16.7970 C   0  0  1  0  0  0  0  0  0  0  0  0
   16.9553  -11.9180  -16.7428 C   0  0  0  0  0  0  0  0  0  0  0  0
   15.8757  -12.7665  -17.2893 C   0  0  0  0  0  0  0  0  0  0  0  0
   14.8846  -13.0332  -16.5619 O   0  0  0  0  0  0  0  0  0  0  0  0
   19.3048  -11.6713  -16.3174 C   0  0  0  0  0  0  0  0  0  0  0  0
   19.2529  -11.2657  -15.1251 O   0  0  0  0  0  0  0  0  0  0  0  0
   15.8867  -13.2896  -18.5593 O   0  0  0  0  0  0  0  0  0  0  0  0
   23.4452   -8.3414  -16.6959 N   0  0  0  0  0  0  0  0  0  0  0  0
   23.6387   -9.5501  -17.4947 C   0  0  0  0  0  0  0  0  0  0  0  0
   24.7624   -9.6477  -18.0233 O   0  0  0  0  0  0  0  0  0  0  0  0
   22.5011  -10.4406  -17.5477 C   0  0  0  0  0  0  0  0  0  0  0  0
   21.2979  -10.1378  -16.7156 C   0  0  2  0  0  0  0  0  0  0  0  0
   20.3115  -11.1681  -17.1451 N   0  0  0  0  0  0  0  0  0  0  0  0
   20.6605   -8.8386  -17.0171 C   0  0  0  0  0  0  0  0  0  0  0  0
   19.9007   -8.7931  -18.0551 O   0  0  0  0  0  0  0  0  0  0  0  0
   20.7818   -7.6463  -16.3010 N   0  0  0  0  0  0  0  0  0  0  0  0
   20.1267   -6.3987  -16.7418 C   0  0  1  0  0  0  0  0  0  0  0  0
   18.6620   -6.4788  -16.4641 C   0  0  0  0  0  0  0  0  0  0  0  0
   17.9232   -5.2797  -16.8964 C   0  0  0  0  0  0  0  0  0  0  0  0
   17.7927   -4.0471  -16.2581 C   0  0  0  0  0  0  0  0  0  0  0  0
   17.0276   -3.2276  -16.9988 N   0  0  0  0  0  0  0  0  0  0  0  0
   16.6686   -3.9166  -18.0975 C   0  0  0  0  0  0  0  0  0  0  0  0
   17.2099   -5.1487  -18.0299 N   0  0  0  0  0  0  0  0  0  0  0  0
   20.7189   -5.2311  -16.0748 C   0  0  0  0  0  0  0  0  0  0  0  0
   20.4218   -4.0553  -16.3938 O   0  0  0  0  0  0  0  0  0  0  0  0
   21.6372   -5.4392  -15.0583 O   0  0  0  0  0  0  0  0  0  0  0  0
  2  1  1  1
  2  3  1  0
  4  3  1  0
  4  5  2  0
  6  2  1  0
  7  6  2  0
  8  4  1  0
 10  9  1  0
 11 10  2  0
 12 10  1  0
 13 12  1  6
 13 14  1  0
 14  6  1  0
 15 13  1  0
 15 16  2  0
 17 15  1  0
 18 17  1  0
 18 19  1  1
 19 20  1  0
 20 21  2  0
 21 22  1  0
 23 22  1  0
 24 20  1  0
 24 23  2  0
 25 18  1  0
 26 25  2  0
 27 25  1  0
M  END
$$$$
