DNH.pdb
     RDKit          3D

 27 27  0  0  1  0  0  0  0  0999 V2000
   18.4866  -14.6857  -15.8758 N   0  0  0  0  0  0  0  0  0  0  0  0
   17.9959  -13.3524  -16.0298 C   0  0  1  0  0  0  0  0  0  0  0  0
   16.5835  -13.2092  -15.4396 C   0  0  0  0  0  0  0  0  0  0  0  0
   15.6271  -14.0432  -16.1973 C   0  0  0  0  0  0  0  0  0  0  0  0
   15.8533  -14.2763  -17.4126 O   0  0  0  0  0  0  0  0  0  0  0  0
   18.8205  -12.3526  -15.2844 C   0  0  0  0  0  0  0  0  0  0  0  0
   19.3639  -12.6878  -14.1976 O   0  0  0  0  0  0  0  0  0  0  0  0
   14.4908  -14.5873  -15.6501 O   0  0  0  0  0  0  0  0  0  0  0  0
   22.6323   -8.4322  -15.0053 N   0  0  0  0  0  0  0  0  0  0  0  0
   21.3605   -8.1677  -15.6753 C   0  0  0  0  0  0  0  0  0  0  0  0
   21.1091   -6.9605  -15.8521 O   0  0  0  0  0  0  0  0  0  0  0  0
   20.5947   -9.3423  -16.0268 C   0  0  0  0  0  0  0  0  0  0  0  0
   19.7493  -10.0008  -14.9859 C   0  0  2  0  0  0  0  0  0  0  0  0
   19.0153  -11.0492  -15.7481 N   0  0  0  0  0  0  0  0  0  0  0  0
   18.7012   -9.1302  -14.4126 C   0  0  0  0  0  0  0  0  0  0  0  0
   17.4808   -9.4380  -14.6827 O   0  0  0  0  0  0  0  0  0  0  0  0
   18.8789   -8.0072  -13.6024 N   0  0  0  0  0  0  0  0  0  0  0  0
   17.7985   -7.4835  -12.7431 C   0  0  1  0  0  0  0  0  0  0  0  0
   17.3883   -8.5315  -11.7622 C   0  0  0  0  0  0  0  0  0  0  0  0
   16.3623   -8.0672  -10.8123 C   0  0  0  0  0  0  0  0  0  0  0  0
   15.2523   -7.2553  -11.0411 C   0  0  0  0  0  0  0  0  0  0  0  0
   14.5742   -7.0746   -9.8951 N   0  0  0  0  0  0  0  0  0  0  0  0
   15.2329   -7.7572   -8.9407 C   0  0  0  0  0  0  0  0  0  0  0  0
   16.3061   -8.3512   -9.4982 N   0  0  0  0  0  0  0  0  0  0  0  0
   18.2260   -6.2611  -12.0490 C   0  0  0  0  0  0  0  0  0  0  0  0
   19.4348   -5.9573  -11.9106 O   0  0  0  0  0  0  0  0  0  0  0  0
   17.2579   -5.4163  -11.5303 O   0  0  0  0  0  0  0  0  0  0  0  0
  2  1  1  1
  2  3  1  0
  4  3  1  0
  4  5  2  0
  6  2  1  0
  7  6  2  0
  8  4  1  0
 10  9  1  0
 11 10  2  0
 12 10  1  0
 13 12  1  6
 13 14  1  0
 14  6  1  0
 15 13  1  0
 15 16  2  0
 17 15  1  0
 18 17  1  0
 18 19  1  1
 19 20  1  0
 20 21  2  0
 21 22  1  0
 23 22  1  0
 24 20  1  0
 24 23  2  0
 25 18  1  0
 26 25  2  0
 27 25  1  0
M  END
$$$$
