DNH.pdb
     RDKit          3D

 27 27  0  0  1  0  0  0  0  0999 V2000
   13.9923  -10.3154  -10.3777 N   0  0  0  0  0  0  0  0  0  0  0  0
   15.3528  -10.2203  -10.8047 C   0  0  1  0  0  0  0  0  0  0  0  0
   15.5740  -10.9752  -12.1256 C   0  0  0  0  0  0  0  0  0  0  0  0
   15.4138  -12.4292  -11.9152 C   0  0  0  0  0  0  0  0  0  0  0  0
   14.6724  -13.0788  -12.6967 O   0  0  0  0  0  0  0  0  0  0  0  0
   15.7596   -8.8124  -11.1008 C   0  0  0  0  0  0  0  0  0  0  0  0
   15.0641   -8.1227  -11.8942 O   0  0  0  0  0  0  0  0  0  0  0  0
   16.0324  -13.1256  -10.9056 O   0  0  0  0  0  0  0  0  0  0  0  0
   15.0038   -5.3050   -9.8736 N   0  0  0  0  0  0  0  0  0  0  0  0
   16.0341   -5.4945   -8.8543 C   0  0  0  0  0  0  0  0  0  0  0  0
   15.7816   -4.9619   -7.7569 O   0  0  0  0  0  0  0  0  0  0  0  0
   17.1812   -6.2667   -9.2758 C   0  0  0  0  0  0  0  0  0  0  0  0
   17.2383   -6.7837  -10.6762 C   0  0  2  0  0  0  0  0  0  0  0  0
   16.8901   -8.2244  -10.5281 N   0  0  0  0  0  0  0  0  0  0  0  0
   18.5893   -6.7690  -11.2760 C   0  0  0  0  0  0  0  0  0  0  0  0
   19.5223   -7.3621  -10.6166 O   0  0  0  0  0  0  0  0  0  0  0  0
   18.9758   -6.1877  -12.4850 N   0  0  0  0  0  0  0  0  0  0  0  0
   20.3586   -6.2852  -12.9933 C   0  0  1  0  0  0  0  0  0  0  0  0
   20.3528   -6.9427  -14.3335 C   0  0  0  0  0  0  0  0  0  0  0  0
   19.7949   -8.3060  -14.3085 C   0  0  0  0  0  0  0  0  0  0  0  0
   18.5942   -8.7769  -14.8381 C   0  0  0  0  0  0  0  0  0  0  0  0
   18.4704  -10.0920  -14.5913 N   0  0  0  0  0  0  0  0  0  0  0  0
   19.5710  -10.4668  -13.9138 C   0  0  0  0  0  0  0  0  0  0  0  0
   20.3626   -9.3893  -13.7472 N   0  0  0  0  0  0  0  0  0  0  0  0
   20.9848   -4.9581  -13.0684 C   0  0  0  0  0  0  0  0  0  0  0  0
   22.1868   -4.8018  -13.3896 O   0  0  0  0  0  0  0  0  0  0  0  0
   20.2182   -3.8421  -12.7735 O   0  0  0  0  0  0  0  0  0  0  0  0
  2  1  1  6
  2  3  1  0
  4  3  1  0
  4  5  2  0
  6  2  1  0
  7  6  2  0
  8  4  1  0
 10  9  1  0
 11 10  2  0
 12 10  1  0
 13 12  1  1
 13 14  1  0
 14  6  1  0
 15 13  1  0
 15 16  2  0
 17 15  1  0
 18 17  1  0
 18 19  1  6
 19 20  1  0
 20 21  2  0
 21 22  1  0
 23 22  1  0
 24 20  1  0
 24 23  2  0
 25 18  1  0
 26 25  2  0
 27 25  1  0
M  END
$$$$
