DNH.pdb
     RDKit          3D

 27 27  0  0  1  0  0  0  0  0999 V2000
   12.7389  -10.9784  -10.2045 N   0  0  0  0  0  0  0  0  0  0  0  0
   14.0796  -10.5866   -9.9024 C   0  0  1  0  0  0  0  0  0  0  0  0
   15.0889  -11.3285  -10.7937 C   0  0  0  0  0  0  0  0  0  0  0  0
   14.9824  -12.7870  -10.5801 C   0  0  0  0  0  0  0  0  0  0  0  0
   14.4630  -13.2093   -9.5150 O   0  0  0  0  0  0  0  0  0  0  0  0
   14.3252   -9.1377  -10.1778 C   0  0  0  0  0  0  0  0  0  0  0  0
   13.9905   -8.6560  -11.2935 O   0  0  0  0  0  0  0  0  0  0  0  0
   15.4210  -13.7234  -11.4842 O   0  0  0  0  0  0  0  0  0  0  0  0
   15.9571   -4.1944   -8.9963 N   0  0  0  0  0  0  0  0  0  0  0  0
   15.2476   -4.8445   -7.8961 C   0  0  0  0  0  0  0  0  0  0  0  0
   15.0357   -4.1117   -6.9113 O   0  0  0  0  0  0  0  0  0  0  0  0
   14.9038   -6.2306   -8.1201 C   0  0  0  0  0  0  0  0  0  0  0  0
   15.1400   -6.8327   -9.4667 C   0  0  2  0  0  0  0  0  0  0  0  0
   14.9161   -8.2878   -9.2397 N   0  0  0  0  0  0  0  0  0  0  0  0
   16.5337   -6.7232   -9.9467 C   0  0  0  0  0  0  0  0  0  0  0  0
   17.4082   -7.4640   -9.3607 O   0  0  0  0  0  0  0  0  0  0  0  0
   17.0177   -5.9084  -10.9720 N   0  0  0  0  0  0  0  0  0  0  0  0
   18.3370   -6.1350  -11.5947 C   0  0  1  0  0  0  0  0  0  0  0  0
   18.4330   -7.5503  -12.0601 C   0  0  0  0  0  0  0  0  0  0  0  0
   19.6925   -7.8449  -12.7652 C   0  0  0  0  0  0  0  0  0  0  0  0
   20.8905   -8.3460  -12.2576 C   0  0  0  0  0  0  0  0  0  0  0  0
   21.7919   -8.4648  -13.2470 N   0  0  0  0  0  0  0  0  0  0  0  0
   21.1892   -8.0482  -14.3756 C   0  0  0  0  0  0  0  0  0  0  0  0
   19.9282   -7.6771  -14.0794 N   0  0  0  0  0  0  0  0  0  0  0  0
   18.5571   -5.2050  -12.7108 C   0  0  0  0  0  0  0  0  0  0  0  0
   17.6135   -4.6075  -13.2809 O   0  0  0  0  0  0  0  0  0  0  0  0
   19.8534   -4.9823  -13.1466 O   0  0  0  0  0  0  0  0  0  0  0  0
  2  1  1  6
  2  3  1  0
  4  3  1  0
  4  5  2  0
  6  2  1  0
  7  6  2  0
  8  4  1  0
 10  9  1  0
 11 10  2  0
 12 10  1  0
 13 12  1  1
 13 14  1  0
 14  6  1  0
 15 13  1  0
 15 16  2  0
 17 15  1  0
 18 17  1  0
 18 19  1  6
 19 20  1  0
 20 21  2  0
 21 22  1  0
 23 22  1  0
 24 20  1  0
 24 23  2  0
 25 18  1  0
 26 25  2  0
 27 25  1  0
M  END
$$$$
