DNH.pdb
     RDKit          3D

 27 27  0  0  1  0  0  0  0  0999 V2000
   12.6258   -9.6497   -9.5462 N   0  0  0  0  0  0  0  0  0  0  0  0
   14.0468   -9.4987   -9.5555 C   0  0  1  0  0  0  0  0  0  0  0  0
   14.6962  -10.4221  -10.5991 C   0  0  0  0  0  0  0  0  0  0  0  0
   14.4213  -11.8365  -10.2702 C   0  0  0  0  0  0  0  0  0  0  0  0
   14.5020  -12.2089   -9.0714 O   0  0  0  0  0  0  0  0  0  0  0  0
   14.4704   -8.1212   -9.9533 C   0  0  0  0  0  0  0  0  0  0  0  0
   13.9469   -7.5824  -10.9655 O   0  0  0  0  0  0  0  0  0  0  0  0
   14.0784  -12.7832  -11.2046 O   0  0  0  0  0  0  0  0  0  0  0  0
   17.1759   -3.5499   -9.5766 N   0  0  0  0  0  0  0  0  0  0  0  0
   16.5044   -3.9586   -8.3444 C   0  0  0  0  0  0  0  0  0  0  0  0
   16.5265   -3.1072   -7.4353 O   0  0  0  0  0  0  0  0  0  0  0  0
   15.9218   -5.2813   -8.3713 C   0  0  0  0  0  0  0  0  0  0  0  0
   15.9269   -6.0551   -9.6492 C   0  0  2  0  0  0  0  0  0  0  0  0
   15.4322   -7.3998   -9.2418 N   0  0  0  0  0  0  0  0  0  0  0  0
   17.2727   -6.2895  -10.2137 C   0  0  0  0  0  0  0  0  0  0  0  0
   18.0568   -7.0582   -9.5419 O   0  0  0  0  0  0  0  0  0  0  0  0
   17.7972   -5.7759  -11.4013 N   0  0  0  0  0  0  0  0  0  0  0  0
   19.0124   -6.3351  -12.0262 C   0  0  1  0  0  0  0  0  0  0  0  0
   18.7870   -7.7732  -12.3574 C   0  0  0  0  0  0  0  0  0  0  0  0
   19.9098   -8.3824  -13.0913 C   0  0  0  0  0  0  0  0  0  0  0  0
   21.2573   -8.4533  -12.7403 C   0  0  0  0  0  0  0  0  0  0  0  0
   21.9456   -9.0975  -13.6978 N   0  0  0  0  0  0  0  0  0  0  0  0
   21.0604   -9.4379  -14.6523 C   0  0  0  0  0  0  0  0  0  0  0  0
   19.8392   -9.0054  -14.2819 N   0  0  0  0  0  0  0  0  0  0  0  0
   19.3802   -5.5763  -13.2295 C   0  0  0  0  0  0  0  0  0  0  0  0
   18.5320   -4.9628  -13.9198 O   0  0  0  0  0  0  0  0  0  0  0  0
   20.7113   -5.5389  -13.6125 O   0  0  0  0  0  0  0  0  0  0  0  0
  2  1  1  6
  2  3  1  0
  4  3  1  0
  4  5  2  0
  6  2  1  0
  7  6  2  0
  8  4  1  0
 10  9  1  0
 11 10  2  0
 12 10  1  0
 13 12  1  1
 13 14  1  0
 14  6  1  0
 15 13  1  0
 15 16  2  0
 17 15  1  0
 18 17  1  0
 18 19  1  6
 19 20  1  0
 20 21  2  0
 21 22  1  0
 23 22  1  0
 24 20  1  0
 24 23  2  0
 25 18  1  0
 26 25  2  0
 27 25  1  0
M  END
$$$$
