DNH.pdb
     RDKit          3D

 27 27  0  0  1  0  0  0  0  0999 V2000
   25.4726  -24.0869  -17.4518 N   0  0  0  0  0  0  0  0  0  0  0  0
   25.6201  -24.1122  -16.0306 C   0  0  1  0  0  0  0  0  0  0  0  0
   26.9983  -24.6599  -15.6253 C   0  0  0  0  0  0  0  0  0  0  0  0
   27.1177  -26.0802  -16.0160 C   0  0  0  0  0  0  0  0  0  0  0  0
   26.1463  -26.6371  -16.5891 O   0  0  0  0  0  0  0  0  0  0  0  0
   25.5642  -22.7451  -15.4279 C   0  0  0  0  0  0  0  0  0  0  0  0
   25.7426  -22.6094  -14.1875 O   0  0  0  0  0  0  0  0  0  0  0  0
   28.2387  -26.8410  -15.7893 O   0  0  0  0  0  0  0  0  0  0  0  0
   28.0422  -20.1228  -16.3425 N   0  0  0  0  0  0  0  0  0  0  0  0
   27.1326  -19.3876  -17.2191 C   0  0  0  0  0  0  0  0  0  0  0  0
   27.6773  -18.8648  -18.2099 O   0  0  0  0  0  0  0  0  0  0  0  0
   25.7484  -19.3807  -16.8023 C   0  0  0  0  0  0  0  0  0  0  0  0
   25.3330  -20.2181  -15.6370 C   0  0  2  0  0  0  0  0  0  0  0  0
   25.3199  -21.6007  -16.1912 N   0  0  0  0  0  0  0  0  0  0  0  0
   23.9519  -19.9717  -15.1717 C   0  0  0  0  0  0  0  0  0  0  0  0
   23.7278  -18.8435  -14.5939 O   0  0  0  0  0  0  0  0  0  0  0  0
   22.8511  -20.8223  -15.2897 N   0  0  0  0  0  0  0  0  0  0  0  0
   21.5069  -20.4322  -14.8196 C   0  0  1  0  0  0  0  0  0  0  0  0
   20.7715  -19.7466  -15.9231 C   0  0  0  0  0  0  0  0  0  0  0  0
   20.5762  -18.3063  -15.6828 C   0  0  0  0  0  0  0  0  0  0  0  0
   20.8857  -17.5513  -14.5522 C   0  0  0  0  0  0  0  0  0  0  0  0
   20.5408  -16.2679  -14.7513 N   0  0  0  0  0  0  0  0  0  0  0  0
   20.0173  -16.1923  -15.9885 C   0  0  0  0  0  0  0  0  0  0  0  0
   20.0414  -17.4201  -16.5428 N   0  0  0  0  0  0  0  0  0  0  0  0
   20.7570  -21.6030  -14.3445 C   0  0  0  0  0  0  0  0  0  0  0  0
   20.9008  -22.7413  -14.8507 O   0  0  0  0  0  0  0  0  0  0  0  0
   19.8603  -21.4410  -13.3006 O   0  0  0  0  0  0  0  0  0  0  0  0
  2  1  1  6
  2  3  1  0
  4  3  1  0
  4  5  2  0
  6  2  1  0
  7  6  2  0
  8  4  1  0
 10  9  1  0
 11 10  2  0
 12 10  1  0
 13 12  1  6
 13 14  1  0
 14  6  1  0
 15 13  1  0
 15 16  2  0
 17 15  1  0
 18 17  1  0
 18 19  1  6
 19 20  1  0
 20 21  2  0
 21 22  1  0
 23 22  1  0
 24 20  1  0
 24 23  2  0
 25 18  1  0
 26 25  2  0
 27 25  1  0
M  END
$$$$
