DNH.pdb
     RDKit          3D

 27 27  0  0  1  0  0  0  0  0999 V2000
   16.1448  -12.6853  -15.8720 N   0  0  0  0  0  0  0  0  0  0  0  0
   17.4798  -12.4150  -15.4398 C   0  0  1  0  0  0  0  0  0  0  0  0
   18.4546  -13.4928  -15.9416 C   0  0  0  0  0  0  0  0  0  0  0  0
   18.1217  -14.8013  -15.3406 C   0  0  0  0  0  0  0  0  0  0  0  0
   17.9680  -14.8767  -14.0944 O   0  0  0  0  0  0  0  0  0  0  0  0
   18.0111  -11.1344  -15.9993 C   0  0  0  0  0  0  0  0  0  0  0  0
   17.8350  -10.8738  -17.2200 O   0  0  0  0  0  0  0  0  0  0  0  0
   17.9674  -15.9564  -16.0677 O   0  0  0  0  0  0  0  0  0  0  0  0
   17.8968   -5.5513  -15.3925 N   0  0  0  0  0  0  0  0  0  0  0  0
   18.9227   -6.5108  -14.9881 C   0  0  0  0  0  0  0  0  0  0  0  0
   20.0344   -6.0068  -14.7393 O   0  0  0  0  0  0  0  0  0  0  0  0
   18.4904   -7.8894  -14.9403 C   0  0  0  0  0  0  0  0  0  0  0  0
   19.2293   -8.9140  -15.7379 C   0  0  2  0  0  0  0  0  0  0  0  0
   18.7014  -10.2056  -15.2166 N   0  0  0  0  0  0  0  0  0  0  0  0
   20.6840   -8.9545  -15.4786 C   0  0  0  0  0  0  0  0  0  0  0  0
   21.0763   -9.6810  -14.4910 O   0  0  0  0  0  0  0  0  0  0  0  0
   21.6919   -8.2970  -16.1864 N   0  0  0  0  0  0  0  0  0  0  0  0
   23.1231   -8.5368  -15.9145 C   0  0  1  0  0  0  0  0  0  0  0  0
   23.4367   -9.9807  -16.1273 C   0  0  0  0  0  0  0  0  0  0  0  0
   24.8614  -10.3001  -15.9309 C   0  0  0  0  0  0  0  0  0  0  0  0
   25.4871  -10.9043  -14.8412 C   0  0  0  0  0  0  0  0  0  0  0  0
   26.8068  -11.0080  -15.0719 N   0  0  0  0  0  0  0  0  0  0  0  0
   27.0325  -10.4805  -16.2890 C   0  0  0  0  0  0  0  0  0  0  0  0
   25.8597  -10.0571  -16.7998 N   0  0  0  0  0  0  0  0  0  0  0  0
   23.9683   -7.6903  -16.7678 C   0  0  0  0  0  0  0  0  0  0  0  0
   23.5403   -7.1629  -17.8219 O   0  0  0  0  0  0  0  0  0  0  0  0
   25.2835   -7.4688  -16.3924 O   0  0  0  0  0  0  0  0  0  0  0  0
  2  1  1  6
  2  3  1  0
  4  3  1  0
  4  5  2  0
  6  2  1  0
  7  6  2  0
  8  4  1  0
 10  9  1  0
 11 10  2  0
 12 10  1  0
 13 12  1  1
 13 14  1  0
 14  6  1  0
 15 13  1  0
 15 16  2  0
 17 15  1  0
 18 17  1  0
 18 19  1  6
 19 20  1  0
 20 21  2  0
 21 22  1  0
 23 22  1  0
 24 20  1  0
 24 23  2  0
 25 18  1  0
 26 25  2  0
 27 25  1  0
M  END
$$$$
