DNH.pdb
     RDKit          3D

 27 27  0  0  1  0  0  0  0  0999 V2000
   15.8625  -12.2258  -14.6015 N   0  0  0  0  0  0  0  0  0  0  0  0
   16.3861  -11.4111  -15.6523 C   0  0  1  0  0  0  0  0  0  0  0  0
   15.2659  -10.6343  -16.3631 C   0  0  0  0  0  0  0  0  0  0  0  0
   14.3386  -11.5722  -17.0300 C   0  0  0  0  0  0  0  0  0  0  0  0
   14.7612  -12.7075  -17.3688 O   0  0  0  0  0  0  0  0  0  0  0  0
   17.3155  -10.3555  -15.1451 C   0  0  0  0  0  0  0  0  0  0  0  0
   17.0215   -9.7281  -14.0922 O   0  0  0  0  0  0  0  0  0  0  0  0
   13.0258  -11.2777  -17.3070 O   0  0  0  0  0  0  0  0  0  0  0  0
   21.7774   -7.7463  -14.3162 N   0  0  0  0  0  0  0  0  0  0  0  0
   21.9235   -9.1709  -14.6087 C   0  0  0  0  0  0  0  0  0  0  0  0
   23.0765   -9.6163  -14.4535 O   0  0  0  0  0  0  0  0  0  0  0  0
   20.7132   -9.8391  -15.0312 C   0  0  0  0  0  0  0  0  0  0  0  0
   19.4843   -9.0295  -15.2883 C   0  0  2  0  0  0  0  0  0  0  0  0
   18.5084  -10.0333  -15.7971 N   0  0  0  0  0  0  0  0  0  0  0  0
   19.6252   -8.0375  -16.3751 C   0  0  0  0  0  0  0  0  0  0  0  0
   19.9656   -8.4893  -17.5314 O   0  0  0  0  0  0  0  0  0  0  0  0
   19.4266   -6.6577  -16.2970 N   0  0  0  0  0  0  0  0  0  0  0  0
   19.7029   -5.7617  -17.4374 C   0  0  1  0  0  0  0  0  0  0  0  0
   18.9481   -4.4854  -17.2640 C   0  0  0  0  0  0  0  0  0  0  0  0
   17.5151   -4.6111  -17.5820 C   0  0  0  0  0  0  0  0  0  0  0  0
   16.8178   -5.7061  -18.0906 C   0  0  0  0  0  0  0  0  0  0  0  0
   15.5187   -5.3940  -18.2343 N   0  0  0  0  0  0  0  0  0  0  0  0
   15.3765   -4.1196  -17.8264 C   0  0  0  0  0  0  0  0  0  0  0  0
   16.5795   -3.6550  -17.4358 N   0  0  0  0  0  0  0  0  0  0  0  0
   21.1434   -5.5005  -17.5625 C   0  0  0  0  0  0  0  0  0  0  0  0
   21.9538   -5.7607  -16.6415 O   0  0  0  0  0  0  0  0  0  0  0  0
   21.6204   -4.9474  -18.7400 O   0  0  0  0  0  0  0  0  0  0  0  0
  2  1  1  1
  2  3  1  0
  4  3  1  0
  4  5  2  0
  6  2  1  0
  7  6  2  0
  8  4  1  0
 10  9  1  0
 11 10  2  0
 12 10  1  0
 13 12  1  6
 13 14  1  0
 14  6  1  0
 15 13  1  0
 15 16  2  0
 17 15  1  0
 18 17  1  0
 18 19  1  1
 19 20  1  0
 20 21  2  0
 21 22  1  0
 23 22  1  0
 24 20  1  0
 24 23  2  0
 25 18  1  0
 26 25  2  0
 27 25  1  0
M  END
$$$$
