DNH.pdb
     RDKit          3D

 27 27  0  0  1  0  0  0  0  0999 V2000
  -65.4427   -6.8676  -16.9810 N   0  0  0  0  0  0  0  0  0  0  0  0
  -66.0604   -7.8116  -17.8583 C   0  0  1  0  0  0  0  0  0  0  0  0
  -67.2022   -7.1624  -18.6572 C   0  0  0  0  0  0  0  0  0  0  0  0
  -66.9237   -5.7267  -18.8701 C   0  0  0  0  0  0  0  0  0  0  0  0
  -67.8847   -4.9485  -19.1012 O   0  0  0  0  0  0  0  0  0  0  0  0
  -65.1162   -8.3255  -18.8974 C   0  0  0  0  0  0  0  0  0  0  0  0
  -64.1114   -7.6339  -19.2149 O   0  0  0  0  0  0  0  0  0  0  0  0
  -65.6637   -5.1811  -18.8309 O   0  0  0  0  0  0  0  0  0  0  0  0
  -62.5014   -7.8536  -20.9849 N   0  0  0  0  0  0  0  0  0  0  0  0
  -63.2839   -8.4162  -22.0838 C   0  0  0  0  0  0  0  0  0  0  0  0
  -62.8320   -8.1738  -23.2191 O   0  0  0  0  0  0  0  0  0  0  0  0
  -64.4558   -9.1627  -21.6849 C   0  0  0  0  0  0  0  0  0  0  0  0
  -64.3581  -10.1173  -20.5399 C   0  0  2  0  0  0  0  0  0  0  0  0
  -65.3042   -9.5533  -19.5370 N   0  0  0  0  0  0  0  0  0  0  0  0
  -63.0412  -10.1304  -19.8688 C   0  0  0  0  0  0  0  0  0  0  0  0
  -62.0030  -10.1160  -20.6298 O   0  0  0  0  0  0  0  0  0  0  0  0
  -62.7872  -10.1519  -18.4962 N   0  0  0  0  0  0  0  0  0  0  0  0
  -61.5181  -10.6653  -17.9432 C   0  0  1  0  0  0  0  0  0  0  0  0
  -61.7699  -11.9491  -17.2241 C   0  0  0  0  0  0  0  0  0  0  0  0
  -63.0985  -12.0081  -16.5901 C   0  0  0  0  0  0  0  0  0  0  0  0
  -63.4309  -12.2810  -15.2638 C   0  0  0  0  0  0  0  0  0  0  0  0
  -64.7648  -12.2350  -15.1083 N   0  0  0  0  0  0  0  0  0  0  0  0
  -65.2876  -11.9377  -16.3120 C   0  0  0  0  0  0  0  0  0  0  0  0
  -64.2813  -11.8026  -17.1979 N   0  0  0  0  0  0  0  0  0  0  0  0
  -60.5203  -10.8518  -19.0055 C   0  0  0  0  0  0  0  0  0  0  0  0
  -59.3126  -11.0808  -18.7574 O   0  0  0  0  0  0  0  0  0  0  0  0
  -60.9308  -10.7714  -20.3265 O   0  0  0  0  0  0  0  0  0  0  0  0
  2  1  1  1
  2  3  1  0
  4  3  1  0
  4  5  2  0
  6  2  1  0
  7  6  2  0
  8  4  1  0
 10  9  1  0
 11 10  2  0
 12 10  1  0
 13 12  1  6
 13 14  1  0
 14  6  1  0
 15 13  1  0
 15 16  2  0
 17 15  1  0
 18 17  1  0
 18 19  1  6
 19 20  1  0
 20 21  2  0
 21 22  1  0
 23 22  1  0
 24 20  1  0
 24 23  2  0
 25 18  1  0
 26 25  2  0
 27 25  1  0
M  END
$$$$
