DNH.pdb
     RDKit          3D

 27 27  0  0  1  0  0  0  0  0999 V2000
   16.6167  -11.4284  -17.0658 N   0  0  0  0  0  0  0  0  0  0  0  0
   17.1433  -10.8197  -15.8850 C   0  0  1  0  0  0  0  0  0  0  0  0
   18.3304  -11.6227  -15.3287 C   0  0  0  0  0  0  0  0  0  0  0  0
   17.8767  -12.9524  -14.8702 C   0  0  0  0  0  0  0  0  0  0  0  0
   18.5410  -13.9686  -15.1994 O   0  0  0  0  0  0  0  0  0  0  0  0
   17.6981   -9.4561  -16.1463 C   0  0  0  0  0  0  0  0  0  0  0  0
   18.3714   -9.2536  -17.1924 O   0  0  0  0  0  0  0  0  0  0  0  0
   16.7594  -13.1510  -14.0962 O   0  0  0  0  0  0  0  0  0  0  0  0
   14.4377   -5.8831  -15.2080 N   0  0  0  0  0  0  0  0  0  0  0  0
   15.7385   -5.8706  -15.8745 C   0  0  0  0  0  0  0  0  0  0  0  0
   15.6932   -5.6249  -17.0949 O   0  0  0  0  0  0  0  0  0  0  0  0
   16.8706   -6.1445  -15.0184 C   0  0  0  0  0  0  0  0  0  0  0  0
   17.9818   -7.0021  -15.5299 C   0  0  2  0  0  0  0  0  0  0  0  0
   17.4985   -8.3869  -15.2695 N   0  0  0  0  0  0  0  0  0  0  0  0
   19.2439   -6.8806  -14.7701 C   0  0  0  0  0  0  0  0  0  0  0  0
   19.3232   -7.5425  -13.6689 O   0  0  0  0  0  0  0  0  0  0  0  0
   20.3715   -6.1308  -15.1101 N   0  0  0  0  0  0  0  0  0  0  0  0
   21.6029   -6.1567  -14.2960 C   0  0  1  0  0  0  0  0  0  0  0  0
   22.7463   -6.6232  -15.1348 C   0  0  0  0  0  0  0  0  0  0  0  0
   22.6222   -8.0299  -15.5543 C   0  0  0  0  0  0  0  0  0  0  0  0
   21.5960   -8.9386  -15.2987 C   0  0  0  0  0  0  0  0  0  0  0  0
   21.8816  -10.1222  -15.8673 N   0  0  0  0  0  0  0  0  0  0  0  0
   23.0714   -9.9832  -16.4803 C   0  0  0  0  0  0  0  0  0  0  0  0
   23.5109   -8.7241  -16.2885 N   0  0  0  0  0  0  0  0  0  0  0  0
   21.8832   -4.8316  -13.7262 C   0  0  0  0  0  0  0  0  0  0  0  0
   21.2560   -3.8045  -14.0789 O   0  0  0  0  0  0  0  0  0  0  0  0
   22.8754   -4.7157  -12.7660 O   0  0  0  0  0  0  0  0  0  0  0  0
  2  1  1  6
  2  3  1  0
  4  3  1  0
  4  5  2  0
  6  2  1  0
  7  6  2  0
  8  4  1  0
 10  9  1  0
 11 10  2  0
 12 10  1  0
 13 12  1  1
 13 14  1  0
 14  6  1  0
 15 13  1  0
 15 16  2  0
 17 15  1  0
 18 17  1  0
 18 19  1  6
 19 20  1  0
 20 21  2  0
 21 22  1  0
 23 22  1  0
 24 20  1  0
 24 23  2  0
 25 18  1  0
 26 25  2  0
 27 25  1  0
M  END
$$$$
