DNH.pdb
     RDKit          3D

 27 27  0  0  1  0  0  0  0  0999 V2000
   19.0945  -15.0061  -18.2479 N   0  0  0  0  0  0  0  0  0  0  0  0
   19.0884  -14.5038  -16.9100 C   0  0  1  0  0  0  0  0  0  0  0  0
   20.5044  -14.5020  -16.3113 C   0  0  0  0  0  0  0  0  0  0  0  0
   21.0095  -15.8857  -16.1920 C   0  0  0  0  0  0  0  0  0  0  0  0
   22.1250  -16.1718  -16.6981 O   0  0  0  0  0  0  0  0  0  0  0  0
   18.6459  -13.0774  -16.8394 C   0  0  0  0  0  0  0  0  0  0  0  0
   18.9084  -12.3014  -17.7974 O   0  0  0  0  0  0  0  0  0  0  0  0
   20.3277  -16.8932  -15.5541 O   0  0  0  0  0  0  0  0  0  0  0  0
   14.8783  -11.9684  -16.4360 N   0  0  0  0  0  0  0  0  0  0  0  0
   15.0360  -11.6325  -15.0222 C   0  0  0  0  0  0  0  0  0  0  0  0
   13.9942  -11.7315  -14.3466 O   0  0  0  0  0  0  0  0  0  0  0  0
   16.3702  -11.2388  -14.6290 C   0  0  0  0  0  0  0  0  0  0  0  0
   17.4443  -11.1645  -15.6648 C   0  0  2  0  0  0  0  0  0  0  0  0
   17.9464  -12.5647  -15.7442 N   0  0  0  0  0  0  0  0  0  0  0  0
   18.6149  -10.3526  -15.2709 C   0  0  0  0  0  0  0  0  0  0  0  0
   19.6206  -10.9870  -14.7780 O   0  0  0  0  0  0  0  0  0  0  0  0
   18.7626   -8.9682  -15.3752 N   0  0  0  0  0  0  0  0  0  0  0  0
   20.0903   -8.3258  -15.4420 C   0  0  1  0  0  0  0  0  0  0  0  0
   20.8495   -8.8685  -16.6073 C   0  0  0  0  0  0  0  0  0  0  0  0
   22.1568   -8.2178  -16.8017 C   0  0  0  0  0  0  0  0  0  0  0  0
   23.3026   -8.2877  -16.0104 C   0  0  0  0  0  0  0  0  0  0  0  0
   24.2777   -7.5376  -16.5509 N   0  0  0  0  0  0  0  0  0  0  0  0
   23.7732   -6.9913  -17.6724 C   0  0  0  0  0  0  0  0  0  0  0  0
   22.4987   -7.4039  -17.8174 N   0  0  0  0  0  0  0  0  0  0  0  0
   19.9622   -6.8653  -15.5399 C   0  0  0  0  0  0  0  0  0  0  0  0
   19.0349   -6.3157  -16.1806 O   0  0  0  0  0  0  0  0  0  0  0  0
   20.9000   -6.0701  -14.9012 O   0  0  0  0  0  0  0  0  0  0  0  0
  2  1  1  6
  2  3  1  0
  4  3  1  0
  4  5  2  0
  6  2  1  0
  7  6  2  0
  8  4  1  0
 10  9  1  0
 11 10  2  0
 12 10  1  0
 13 12  1  1
 13 14  1  0
 14  6  1  0
 15 13  1  0
 15 16  2  0
 17 15  1  0
 18 17  1  0
 18 19  1  6
 19 20  1  0
 20 21  2  0
 21 22  1  0
 23 22  1  0
 24 20  1  0
 24 23  2  0
 25 18  1  0
 26 25  2  0
 27 25  1  0
M  END
$$$$
