MCS.pdb
     RDKit          3D

 21 20  0  0  1  0  0  0  0  0999 V2000
   25.0185  -19.2990  -22.7134 C   0  0  0  0  0  0  0  0  0  0  0  0
   26.5915  -18.5395  -23.1258 S   0  0  0  0  0  0  0  0  0  0  0  0
   27.3091  -17.6310  -21.7351 C   0  0  0  0  0  0  0  0  0  0  0  0
   26.8057  -18.1706  -20.4001 C   0  0  0  0  0  0  0  0  0  0  0  0
   27.3820  -17.2753  -19.3295 C   0  0  2  0  0  0  0  0  0  0  0  0
   28.8091  -17.5195  -19.2930 N   0  0  0  0  0  0  0  0  0  0  0  0
   26.7423  -17.4712  -18.0132 C   0  0  0  0  0  0  0  0  0  0  0  0
   27.0970  -18.4683  -17.3318 O   0  0  0  0  0  0  0  0  0  0  0  0
   25.7658  -16.6373  -17.4500 N   0  0  0  0  0  0  0  0  0  0  0  0
   25.0819  -16.8671  -16.2005 C   0  0  1  0  0  0  0  0  0  0  0  0
   25.0341  -15.6657  -15.3111 C   0  0  0  0  0  0  0  0  0  0  0  0
   26.7404  -15.1784  -14.8679 S   0  0  0  0  0  0  0  0  0  0  0  0
   23.6980  -17.3613  -16.4086 C   0  0  0  0  0  0  0  0  0  0  0  0
   22.9220  -16.8462  -17.2657 O   0  0  0  0  0  0  0  0  0  0  0  0
   22.1613  -20.0565  -13.6545 O   0  0  0  0  0  0  0  0  0  0  0  0
   21.7468  -20.2274  -14.9670 C   0  0  0  0  0  0  0  0  0  0  0  0
   21.8562  -18.9517  -15.7693 C   0  0  2  0  0  0  0  0  0  0  0  0
   23.2147  -18.4456  -15.6291 N   0  0  0  0  0  0  0  0  0  0  0  0
   20.8664  -17.9808  -15.2338 C   0  0  0  0  0  0  0  0  0  0  0  0
   19.5053  -18.2254  -15.3415 O   0  0  0  0  0  0  0  0  0  0  0  0
   21.2067  -16.9128  -14.6689 O   0  0  0  0  0  0  0  0  0  0  0  0
  2  1  1  0
  3  4  1  0
  3  2  1  0
  4  5  1  0
  5  7  1  0
  5  6  1  1
  7  8  2  0
  9 10  1  0
  9  7  1  0
 10 13  1  0
 10 11  1  6
 12 11  1  0
 13 14  2  0
 13 18  1  0
 16 15  1  0
 17 16  1  1
 18 17  1  0
 19 20  1  0
 19 17  1  0
 21 19  2  0
M  END
$$$$
