MCS.pdb
     RDKit          3D

 21 20  0  0  1  0  0  0  0  0999 V2000
   26.1179  -14.6287  -14.4258 C   0  0  0  0  0  0  0  0  0  0  0  0
   24.7128  -15.5058  -15.1168 S   0  0  0  0  0  0  0  0  0  0  0  0
   23.3781  -14.3919  -15.6188 C   0  0  0  0  0  0  0  0  0  0  0  0
   23.8606  -12.9469  -15.6974 C   0  0  0  0  0  0  0  0  0  0  0  0
   22.6575  -12.1111  -16.0636 C   0  0  2  0  0  0  0  0  0  0  0  0
   22.1318  -12.6421  -17.3042 N   0  0  0  0  0  0  0  0  0  0  0  0
   22.9667  -10.6701  -16.1527 C   0  0  0  0  0  0  0  0  0  0  0  0
   23.4839  -10.1183  -15.1466 O   0  0  0  0  0  0  0  0  0  0  0  0
   22.7331   -9.8545  -17.2691 N   0  0  0  0  0  0  0  0  0  0  0  0
   23.0366   -8.4469  -17.3613 C   0  0  1  0  0  0  0  0  0  0  0  0
   23.2909   -7.9765  -18.7580 C   0  0  0  0  0  0  0  0  0  0  0  0
   24.5770   -9.0293  -19.5213 S   0  0  0  0  0  0  0  0  0  0  0  0
   21.9674   -7.6089  -16.7635 C   0  0  0  0  0  0  0  0  0  0  0  0
   20.7401   -7.8872  -16.8995 O   0  0  0  0  0  0  0  0  0  0  0  0
   20.3056   -6.0714  -13.0015 O   0  0  0  0  0  0  0  0  0  0  0  0
   21.0506   -6.7026  -13.9865 C   0  0  0  0  0  0  0  0  0  0  0  0
   21.3610   -5.7818  -15.1435 C   0  0  2  0  0  0  0  0  0  0  0  0
   22.3164   -6.4553  -16.0124 N   0  0  0  0  0  0  0  0  0  0  0  0
   21.9321   -4.5240  -14.5949 C   0  0  0  0  0  0  0  0  0  0  0  0
   21.1028   -3.5092  -14.1407 O   0  0  0  0  0  0  0  0  0  0  0  0
   23.1685   -4.3222  -14.5171 O   0  0  0  0  0  0  0  0  0  0  0  0
  2  1  1  0
  3  4  1  0
  3  2  1  0
  4  5  1  0
  5  7  1  0
  5  6  1  6
  7  8  2  0
  9 10  1  0
  9  7  1  0
 10 13  1  0
 10 11  1  6
 12 11  1  0
 13 14  2  0
 13 18  1  0
 16 15  1  0
 17 16  1  1
 18 17  1  0
 19 20  1  0
 19 17  1  0
 21 19  2  0
M  END
$$$$
