MCS.pdb
     RDKit          3D

 21 20  0  0  1  0  0  0  0  0999 V2000
   16.9417  -11.0519  -20.7520 C   0  0  0  0  0  0  0  0  0  0  0  0
   17.7845  -12.4999  -21.3956 S   0  0  0  0  0  0  0  0  0  0  0  0
   19.4006  -12.7620  -20.6249 C   0  0  0  0  0  0  0  0  0  0  0  0
   19.4613  -12.1358  -19.2352 C   0  0  0  0  0  0  0  0  0  0  0  0
   20.8549  -12.3864  -18.7111 C   0  0  2  0  0  0  0  0  0  0  0  0
   21.0305  -13.8221  -18.6375 N   0  0  0  0  0  0  0  0  0  0  0  0
   21.1093  -11.7199  -17.4183 C   0  0  0  0  0  0  0  0  0  0  0  0
   20.5382  -12.1841  -16.3972 O   0  0  0  0  0  0  0  0  0  0  0  0
   21.9382  -10.6055  -17.2257 N   0  0  0  0  0  0  0  0  0  0  0  0
   22.2000   -9.9597  -15.9623 C   0  0  1  0  0  0  0  0  0  0  0  0
   23.5868  -10.1825  -15.4487 C   0  0  0  0  0  0  0  0  0  0  0  0
   23.7637   -9.3642  -13.8226 S   0  0  0  0  0  0  0  0  0  0  0  0
   21.9430   -8.4992  -16.0224 C   0  0  0  0  0  0  0  0  0  0  0  0
   22.4831   -7.7569  -16.8938 O   0  0  0  0  0  0  0  0  0  0  0  0
   18.4254   -6.9919  -15.1043 O   0  0  0  0  0  0  0  0  0  0  0  0
   19.4177   -6.2670  -14.4612 C   0  0  0  0  0  0  0  0  0  0  0  0
   20.7744   -6.4739  -15.0933 C   0  0  2  0  0  0  0  0  0  0  0  0
   21.0657   -7.9009  -15.0793 N   0  0  0  0  0  0  0  0  0  0  0  0
   21.7765   -5.7162  -14.2991 C   0  0  0  0  0  0  0  0  0  0  0  0
   21.6942   -4.3361  -14.1874 O   0  0  0  0  0  0  0  0  0  0  0  0
   22.7276   -6.2768  -13.7021 O   0  0  0  0  0  0  0  0  0  0  0  0
  2  1  1  0
  3  4  1  0
  3  2  1  0
  4  5  1  0
  5  7  1  0
  5  6  1  1
  7  8  2  0
  9 10  1  0
  9  7  1  0
 10 13  1  0
 10 11  1  6
 12 11  1  0
 13 14  2  0
 13 18  1  0
 16 15  1  0
 17 16  1  1
 18 17  1  0
 19 20  1  0
 19 17  1  0
 21 19  2  0
M  END
$$$$
