MCS.pdb
     RDKit          3D

 21 20  0  0  1  0  0  0  0  0999 V2000
   19.7542  -10.1943  -22.2389 C   0  0  0  0  0  0  0  0  0  0  0  0
   19.0235  -11.6514  -21.4879 S   0  0  0  0  0  0  0  0  0  0  0  0
   19.7781  -12.0638  -19.8957 C   0  0  0  0  0  0  0  0  0  0  0  0
   19.3540  -11.0810  -18.8089 C   0  0  0  0  0  0  0  0  0  0  0  0
   20.5504  -10.8948  -17.9068 C   0  0  2  0  0  0  0  0  0  0  0  0
   20.8551  -12.1884  -17.3312 N   0  0  0  0  0  0  0  0  0  0  0  0
   20.3370   -9.8562  -16.8792 C   0  0  0  0  0  0  0  0  0  0  0  0
   19.3181   -9.9567  -16.1471 O   0  0  0  0  0  0  0  0  0  0  0  0
   21.1766   -8.7579  -16.6446 N   0  0  0  0  0  0  0  0  0  0  0  0
   20.9866   -7.7564  -15.6234 C   0  0  1  0  0  0  0  0  0  0  0  0
   22.1543   -7.6094  -14.7005 C   0  0  0  0  0  0  0  0  0  0  0  0
   22.3348   -9.1379  -13.7123 S   0  0  0  0  0  0  0  0  0  0  0  0
   20.6666   -6.4279  -16.2023 C   0  0  0  0  0  0  0  0  0  0  0  0
   21.3520   -5.9190  -17.1369 O   0  0  0  0  0  0  0  0  0  0  0  0
   17.2688   -3.0188  -16.6539 O   0  0  0  0  0  0  0  0  0  0  0  0
   17.6993   -4.2607  -16.2113 C   0  0  0  0  0  0  0  0  0  0  0  0
   19.2054   -4.3797  -16.2257 C   0  0  2  0  0  0  0  0  0  0  0  0
   19.5593   -5.6922  -15.7027 N   0  0  0  0  0  0  0  0  0  0  0  0
   19.7643   -3.2970  -15.3745 C   0  0  0  0  0  0  0  0  0  0  0  0
   19.8994   -2.0076  -15.8675 O   0  0  0  0  0  0  0  0  0  0  0  0
   20.1342   -3.4922  -14.1911 O   0  0  0  0  0  0  0  0  0  0  0  0
  2  1  1  0
  3  4  1  0
  3  2  1  0
  4  5  1  0
  5  7  1  0
  5  6  1  1
  7  8  2  0
  9 10  1  0
  9  7  1  0
 10 13  1  0
 10 11  1  6
 12 11  1  0
 13 14  2  0
 13 18  1  0
 16 15  1  0
 17 16  1  1
 18 17  1  0
 19 20  1  0
 19 17  1  0
 21 19  2  0
M  END
$$$$
