MCS.pdb
     RDKit          3D

 21 20  0  0  1  0  0  0  0  0999 V2000
   27.4393  -10.2840  -16.0327 C   0  0  0  0  0  0  0  0  0  0  0  0
   26.8549  -11.9789  -16.1163 S   0  0  0  0  0  0  0  0  0  0  0  0
   25.0556  -12.1006  -15.9674 C   0  0  0  0  0  0  0  0  0  0  0  0
   24.3879  -10.7454  -16.1789 C   0  0  0  0  0  0  0  0  0  0  0  0
   22.9010  -11.0025  -16.2331 C   0  0  2  0  0  0  0  0  0  0  0  0
   22.6445  -11.7660  -17.4367 N   0  0  0  0  0  0  0  0  0  0  0  0
   22.1025   -9.7621  -16.1710 C   0  0  0  0  0  0  0  0  0  0  0  0
   22.2582   -8.9181  -17.0918 O   0  0  0  0  0  0  0  0  0  0  0  0
   21.1777   -9.4380  -15.1680 N   0  0  0  0  0  0  0  0  0  0  0  0
   20.4024   -8.2231  -15.0988 C   0  0  1  0  0  0  0  0  0  0  0  0
   19.0761   -8.3933  -14.4291 C   0  0  0  0  0  0  0  0  0  0  0  0
   18.1648   -9.7564  -15.2393 S   0  0  0  0  0  0  0  0  0  0  0  0
   21.1428   -7.1309  -14.4194 C   0  0  0  0  0  0  0  0  0  0  0  0
   22.1740   -7.3519  -13.7193 O   0  0  0  0  0  0  0  0  0  0  0  0
   23.6151   -3.7956  -15.4254 O   0  0  0  0  0  0  0  0  0  0  0  0
   22.6423   -4.7795  -15.5209 C   0  0  0  0  0  0  0  0  0  0  0  0
   21.5997   -4.6568  -14.4342 C   0  0  2  0  0  0  0  0  0  0  0  0
   20.6924   -5.7903  -14.5493 N   0  0  0  0  0  0  0  0  0  0  0  0
   20.8772   -3.3723  -14.6276 C   0  0  0  0  0  0  0  0  0  0  0  0
   21.1835   -2.2642  -13.8517 O   0  0  0  0  0  0  0  0  0  0  0  0
   19.9723   -3.2301  -15.4857 O   0  0  0  0  0  0  0  0  0  0  0  0
  2  1  1  0
  3  4  1  0
  3  2  1  0
  4  5  1  0
  5  7  1  0
  5  6  1  6
  7  8  2  0
  9 10  1  0
  9  7  1  0
 10 13  1  0
 10 11  1  1
 12 11  1  0
 13 14  2  0
 13 18  1  0
 16 15  1  0
 17 16  1  6
 18 17  1  0
 19 20  1  0
 19 17  1  0
 21 19  2  0
M  END
$$$$
