MCS.pdb
     RDKit          3D

 21 20  0  0  1  0  0  0  0  0999 V2000
   19.6871  -17.6201  -19.3638 C   0  0  0  0  0  0  0  0  0  0  0  0
   19.7223  -16.4313  -18.0197 S   0  0  0  0  0  0  0  0  0  0  0  0
   20.4417  -14.8462  -18.5141 C   0  0  0  0  0  0  0  0  0  0  0  0
   20.4204  -13.8439  -17.3643 C   0  0  0  0  0  0  0  0  0  0  0  0
   20.9873  -12.5541  -17.9076 C   0  0  2  0  0  0  0  0  0  0  0  0
   22.3360  -12.8363  -18.3535 N   0  0  0  0  0  0  0  0  0  0  0  0
   20.9360  -11.4490  -16.9298 C   0  0  0  0  0  0  0  0  0  0  0  0
   19.8328  -11.2099  -16.3729 O   0  0  0  0  0  0  0  0  0  0  0  0
   22.0172  -10.6349  -16.5633 N   0  0  0  0  0  0  0  0  0  0  0  0
   21.9568   -9.5127  -15.6583 C   0  0  1  0  0  0  0  0  0  0  0  0
   23.2944   -9.0759  -15.1516 C   0  0  0  0  0  0  0  0  0  0  0  0
   23.9797  -10.3785  -14.0659 S   0  0  0  0  0  0  0  0  0  0  0  0
   21.2737   -8.3447  -16.2682 C   0  0  0  0  0  0  0  0  0  0  0  0
   21.4818   -7.9946  -17.4667 O   0  0  0  0  0  0  0  0  0  0  0  0
   17.4328   -5.8908  -16.8652 O   0  0  0  0  0  0  0  0  0  0  0  0
   18.2390   -6.9289  -16.4228 C   0  0  0  0  0  0  0  0  0  0  0  0
   19.6257   -6.4556  -16.0541 C   0  0  2  0  0  0  0  0  0  0  0  0
   20.3547   -7.5861  -15.4957 N   0  0  0  0  0  0  0  0  0  0  0  0
   19.4924   -5.3610  -15.0576 C   0  0  0  0  0  0  0  0  0  0  0  0
   19.5238   -4.0329  -15.4565 O   0  0  0  0  0  0  0  0  0  0  0  0
   19.3477   -5.5801  -13.8302 O   0  0  0  0  0  0  0  0  0  0  0  0
  2  1  1  0
  3  4  1  0
  3  2  1  0
  4  5  1  0
  5  7  1  0
  5  6  1  1
  7  8  2  0
  9 10  1  0
  9  7  1  0
 10 13  1  0
 10 11  1  6
 12 11  1  0
 13 14  2  0
 13 18  1  0
 16 15  1  0
 17 16  1  1
 18 17  1  0
 19 20  1  0
 19 17  1  0
 21 19  2  0
M  END
$$$$
