MCS.pdb
     RDKit          3D

 21 20  0  0  1  0  0  0  0  0999 V2000
   11.2082   -8.5934   -7.7119 C   0  0  0  0  0  0  0  0  0  0  0  0
   11.2084   -9.6279   -9.1785 S   0  0  0  0  0  0  0  0  0  0  0  0
   12.8693   -9.8754   -9.8528 C   0  0  0  0  0  0  0  0  0  0  0  0
   13.6463   -8.5639   -9.9108 C   0  0  0  0  0  0  0  0  0  0  0  0
   14.9876   -8.8855  -10.5252 C   0  0  2  0  0  0  0  0  0  0  0  0
   15.6477   -9.8227   -9.6401 N   0  0  0  0  0  0  0  0  0  0  0  0
   15.8033   -7.6820  -10.7824 C   0  0  0  0  0  0  0  0  0  0  0  0
   15.3505   -6.8284  -11.5891 O   0  0  0  0  0  0  0  0  0  0  0  0
   17.0491   -7.4032  -10.2022 N   0  0  0  0  0  0  0  0  0  0  0  0
   17.8602   -6.2400  -10.4690 C   0  0  1  0  0  0  0  0  0  0  0  0
   18.1368   -5.4088   -9.2569 C   0  0  0  0  0  0  0  0  0  0  0  0
   16.5529   -4.8137   -8.5626 S   0  0  0  0  0  0  0  0  0  0  0  0
   19.1519   -6.5990  -11.1056 C   0  0  0  0  0  0  0  0  0  0  0  0
   19.8840   -7.5313  -10.6616 O   0  0  0  0  0  0  0  0  0  0  0  0
   19.6455   -5.7216  -14.9897 O   0  0  0  0  0  0  0  0  0  0  0  0
   20.4487   -6.6581  -14.3561 C   0  0  0  0  0  0  0  0  0  0  0  0
   20.8196   -6.2346  -12.9539 C   0  0  2  0  0  0  0  0  0  0  0  0
   19.5941   -5.8832  -12.2497 N   0  0  0  0  0  0  0  0  0  0  0  0
   21.7348   -5.0673  -13.0488 C   0  0  0  0  0  0  0  0  0  0  0  0
   23.0304   -5.2201  -13.5199 O   0  0  0  0  0  0  0  0  0  0  0  0
   21.3871   -3.9086  -12.7140 O   0  0  0  0  0  0  0  0  0  0  0  0
  2  1  1  0
  3  4  1  0
  3  2  1  0
  4  5  1  0
  5  7  1  0
  5  6  1  1
  7  8  2  0
  9 10  1  0
  9  7  1  0
 10 13  1  0
 10 11  1  1
 12 11  1  0
 13 14  2  0
 13 18  1  0
 16 15  1  0
 17 16  1  6
 18 17  1  0
 19 20  1  0
 19 17  1  0
 21 19  2  0
M  END
$$$$
