MCS.pdb
     RDKit          3D

 21 20  0  0  1  0  0  0  0  0999 V2000
   11.1905  -10.7808   -7.7298 C   0  0  0  0  0  0  0  0  0  0  0  0
   10.9017  -10.2059   -9.4053 S   0  0  0  0  0  0  0  0  0  0  0  0
   12.3247  -10.4822  -10.4886 C   0  0  0  0  0  0  0  0  0  0  0  0
   13.5532   -9.7239   -9.9961 C   0  0  0  0  0  0  0  0  0  0  0  0
   14.6563  -10.0007  -10.9893 C   0  0  2  0  0  0  0  0  0  0  0  0
   15.0627  -11.3781  -10.8014 N   0  0  0  0  0  0  0  0  0  0  0  0
   15.7860   -9.0577  -10.8685 C   0  0  0  0  0  0  0  0  0  0  0  0
   16.9478   -9.5388  -10.8147 O   0  0  0  0  0  0  0  0  0  0  0  0
   15.6780   -7.6610  -10.8080 N   0  0  0  0  0  0  0  0  0  0  0  0
   16.7801   -6.7299  -10.8323 C   0  0  1  0  0  0  0  0  0  0  0  0
   17.7397   -6.9630  -11.9554 C   0  0  0  0  0  0  0  0  0  0  0  0
   19.0926   -5.7364  -11.8536 S   0  0  0  0  0  0  0  0  0  0  0  0
   16.3150   -5.3216  -10.8875 C   0  0  0  0  0  0  0  0  0  0  0  0
   15.3642   -4.9566  -11.6391 O   0  0  0  0  0  0  0  0  0  0  0  0
   14.4405   -2.0314   -8.7836 O   0  0  0  0  0  0  0  0  0  0  0  0
   15.0318   -3.2338   -9.1414 C   0  0  0  0  0  0  0  0  0  0  0  0
   16.3526   -3.0313   -9.8466 C   0  0  2  0  0  0  0  0  0  0  0  0
   16.9465   -4.3410  -10.0772 N   0  0  0  0  0  0  0  0  0  0  0  0
   17.2206   -2.1970   -8.9750 C   0  0  0  0  0  0  0  0  0  0  0  0
   16.9359   -0.8553   -8.7688 O   0  0  0  0  0  0  0  0  0  0  0  0
   18.2339   -2.6566   -8.3940 O   0  0  0  0  0  0  0  0  0  0  0  0
  2  1  1  0
  3  4  1  0
  3  2  1  0
  4  5  1  0
  5  7  1  0
  5  6  1  1
  7  8  2  0
  9 10  1  0
  9  7  1  0
 10 13  1  0
 10 11  1  6
 12 11  1  0
 13 14  2  0
 13 18  1  0
 16 15  1  0
 17 16  1  1
 18 17  1  0
 19 20  1  0
 19 17  1  0
 21 19  2  0
M  END
$$$$
