MCS.pdb
     RDKit          3D

 21 20  0  0  1  0  0  0  0  0999 V2000
   27.5824  -12.3730  -14.4536 C   0  0  0  0  0  0  0  0  0  0  0  0
   27.0334  -14.0364  -14.8449 S   0  0  0  0  0  0  0  0  0  0  0  0
   25.2855  -14.0990  -15.3090 C   0  0  0  0  0  0  0  0  0  0  0  0
   24.8269  -12.7812  -15.9254 C   0  0  0  0  0  0  0  0  0  0  0  0
   23.3497  -12.9267  -16.2017 C   0  0  2  0  0  0  0  0  0  0  0  0
   23.1834  -14.1139  -17.0144 N   0  0  0  0  0  0  0  0  0  0  0  0
   22.7634  -11.7262  -16.8302 C   0  0  0  0  0  0  0  0  0  0  0  0
   22.7053  -11.6917  -18.0871 O   0  0  0  0  0  0  0  0  0  0  0  0
   22.2610  -10.6109  -16.1447 N   0  0  0  0  0  0  0  0  0  0  0  0
   21.5288   -9.5181  -16.7377 C   0  0  1  0  0  0  0  0  0  0  0  0
   20.2897   -9.9451  -17.4580 C   0  0  0  0  0  0  0  0  0  0  0  0
   19.4211   -8.4641  -18.0883 S   0  0  0  0  0  0  0  0  0  0  0  0
   21.1655   -8.4856  -15.7354 C   0  0  0  0  0  0  0  0  0  0  0  0
   20.5494   -8.7726  -14.6676 O   0  0  0  0  0  0  0  0  0  0  0  0
   22.5253   -4.8891  -13.2725 O   0  0  0  0  0  0  0  0  0  0  0  0
   22.6240   -5.8640  -14.2541 C   0  0  0  0  0  0  0  0  0  0  0  0
   21.3086   -6.0962  -14.9604 C   0  0  2  0  0  0  0  0  0  0  0  0
   21.5133   -7.1284  -15.9674 N   0  0  0  0  0  0  0  0  0  0  0  0
   20.8857   -4.8159  -15.5858 C   0  0  0  0  0  0  0  0  0  0  0  0
   20.0706   -3.9281  -14.8993 O   0  0  0  0  0  0  0  0  0  0  0  0
   21.2383   -4.4817  -16.7431 O   0  0  0  0  0  0  0  0  0  0  0  0
  2  1  1  0
  3  4  1  0
  3  2  1  0
  4  5  1  0
  5  7  1  0
  5  6  1  6
  7  8  2  0
  9 10  1  0
  9  7  1  0
 10 13  1  0
 10 11  1  1
 12 11  1  0
 13 14  2  0
 13 18  1  0
 16 15  1  0
 17 16  1  6
 18 17  1  0
 19 20  1  0
 19 17  1  0
 21 19  2  0
M  END
$$$$
