MCS.pdb
     RDKit          3D

 21 20  0  0  1  0  0  0  0  0999 V2000
   19.7426  -14.5572  -19.0188 C   0  0  0  0  0  0  0  0  0  0  0  0
   21.1553  -15.4718  -19.6427 S   0  0  0  0  0  0  0  0  0  0  0  0
   22.7275  -14.6529  -19.2793 C   0  0  0  0  0  0  0  0  0  0  0  0
   22.6413  -13.8284  -17.9987 C   0  0  0  0  0  0  0  0  0  0  0  0
   23.9686  -13.1238  -17.8508 C   0  0  2  0  0  0  0  0  0  0  0  0
   24.9475  -14.1301  -17.4948 N   0  0  0  0  0  0  0  0  0  0  0  0
   23.9223  -12.0131  -16.8791 C   0  0  0  0  0  0  0  0  0  0  0  0
   23.7985  -12.3047  -15.6610 O   0  0  0  0  0  0  0  0  0  0  0  0
   24.0049  -10.6497  -17.1962 N   0  0  0  0  0  0  0  0  0  0  0  0
   23.9797   -9.5622  -16.2482 C   0  0  1  0  0  0  0  0  0  0  0  0
   25.2702   -8.8117  -16.1592 C   0  0  0  0  0  0  0  0  0  0  0  0
   26.5353   -9.8823  -15.3855 S   0  0  0  0  0  0  0  0  0  0  0  0
   22.8877   -8.5997  -16.5376 C   0  0  0  0  0  0  0  0  0  0  0  0
   22.5918   -8.2539  -17.7187 O   0  0  0  0  0  0  0  0  0  0  0  0
   19.0331   -6.3195  -14.6456 O   0  0  0  0  0  0  0  0  0  0  0  0
   20.1194   -7.1706  -14.5069 C   0  0  0  0  0  0  0  0  0  0  0  0
   21.0541   -7.0986  -15.6917 C   0  0  2  0  0  0  0  0  0  0  0  0
   22.1420   -8.0405  -15.4661 N   0  0  0  0  0  0  0  0  0  0  0  0
   21.5653   -5.7068  -15.7952 C   0  0  0  0  0  0  0  0  0  0  0  0
   20.8342   -4.7317  -16.4574 O   0  0  0  0  0  0  0  0  0  0  0  0
   22.6621   -5.3523  -15.2983 O   0  0  0  0  0  0  0  0  0  0  0  0
  2  1  1  0
  3  4  1  0
  3  2  1  0
  4  5  1  0
  5  7  1  0
  5  6  1  1
  7  8  2  0
  9 10  1  0
  9  7  1  0
 10 13  1  0
 10 11  1  6
 12 11  1  0
 13 14  2  0
 13 18  1  0
 16 15  1  0
 17 16  1  1
 18 17  1  0
 19 20  1  0
 19 17  1  0
 21 19  2  0
M  END
$$$$
