MCS.pdb
     RDKit          3D

 21 20  0  0  1  0  0  0  0  0999 V2000
   27.4436  -10.3206  -15.3111 C   0  0  0  0  0  0  0  0  0  0  0  0
   26.9337  -11.9800  -15.7666 S   0  0  0  0  0  0  0  0  0  0  0  0
   25.1350  -12.1505  -15.8662 C   0  0  0  0  0  0  0  0  0  0  0  0
   24.4966  -10.9287  -16.5194 C   0  0  0  0  0  0  0  0  0  0  0  0
   23.0081  -11.1813  -16.5416 C   0  0  2  0  0  0  0  0  0  0  0  0
   22.7755  -12.2749  -17.4622 N   0  0  0  0  0  0  0  0  0  0  0  0
   22.2277   -9.9767  -16.8877 C   0  0  0  0  0  0  0  0  0  0  0  0
   22.0590   -9.7182  -18.1080 O   0  0  0  0  0  0  0  0  0  0  0  0
   21.6525   -9.0871  -15.9691 N   0  0  0  0  0  0  0  0  0  0  0  0
   20.9227   -7.8879  -16.3028 C   0  0  1  0  0  0  0  0  0  0  0  0
   19.4750   -8.1257  -16.5925 C   0  0  0  0  0  0  0  0  0  0  0  0
   18.8352   -9.4010  -15.4481 S   0  0  0  0  0  0  0  0  0  0  0  0
   21.0331   -6.8579  -15.2399 C   0  0  0  0  0  0  0  0  0  0  0  0
   20.9067   -7.1418  -14.0129 O   0  0  0  0  0  0  0  0  0  0  0  0
   23.1449   -3.5854  -16.1687 O   0  0  0  0  0  0  0  0  0  0  0  0
   22.9544   -3.9486  -14.8438 C   0  0  0  0  0  0  0  0  0  0  0  0
   21.5640   -4.4847  -14.5945 C   0  0  2  0  0  0  0  0  0  0  0  0
   21.2885   -5.5067  -15.5950 N   0  0  0  0  0  0  0  0  0  0  0  0
   20.6045   -3.3551  -14.7064 C   0  0  0  0  0  0  0  0  0  0  0  0
   19.6668   -3.3215  -15.7278 O   0  0  0  0  0  0  0  0  0  0  0  0
   20.5956   -2.3950  -13.8979 O   0  0  0  0  0  0  0  0  0  0  0  0
  2  1  1  0
  3  4  1  0
  3  2  1  0
  4  5  1  0
  5  7  1  0
  5  6  1  6
  7  8  2  0
  9 10  1  0
  9  7  1  0
 10 13  1  0
 10 11  1  1
 12 11  1  0
 13 14  2  0
 13 18  1  0
 16 15  1  0
 17 16  1  6
 18 17  1  0
 19 20  1  0
 19 17  1  0
 21 19  2  0
M  END
$$$$
