MCS.pdb
     RDKit          3D

 21 20  0  0  1  0  0  0  0  0999 V2000
   11.2878   -7.7906   -7.5116 C   0  0  0  0  0  0  0  0  0  0  0  0
   11.2180   -9.3126   -8.4602 S   0  0  0  0  0  0  0  0  0  0  0  0
   12.7675   -9.6614   -9.3274 C   0  0  0  0  0  0  0  0  0  0  0  0
   13.6087   -8.3994   -9.4908 C   0  0  0  0  0  0  0  0  0  0  0  0
   14.8679   -8.8126  -10.2145 C   0  0  2  0  0  0  0  0  0  0  0  0
   15.6584   -9.5906   -9.2831 N   0  0  0  0  0  0  0  0  0  0  0  0
   15.6144   -7.6646  -10.7665 C   0  0  0  0  0  0  0  0  0  0  0  0
   15.0005   -6.8831  -11.5390 O   0  0  0  0  0  0  0  0  0  0  0  0
   16.9589   -7.3651  -10.5040 N   0  0  0  0  0  0  0  0  0  0  0  0
   17.6762   -6.2139  -10.9961 C   0  0  1  0  0  0  0  0  0  0  0  0
   17.6991   -5.0651  -10.0390 C   0  0  0  0  0  0  0  0  0  0  0  0
   18.4747   -5.6038   -8.4727 S   0  0  0  0  0  0  0  0  0  0  0  0
   19.0723   -6.5494  -11.3714 C   0  0  0  0  0  0  0  0  0  0  0  0
   19.5751   -7.6881  -11.1418 O   0  0  0  0  0  0  0  0  0  0  0  0
   20.9933   -8.1577  -13.6851 O   0  0  0  0  0  0  0  0  0  0  0  0
   20.6388   -6.8353  -13.9067 C   0  0  0  0  0  0  0  0  0  0  0  0
   21.0686   -5.9331  -12.7735 C   0  0  2  0  0  0  0  0  0  0  0  0
   19.8824   -5.5726  -12.0090 N   0  0  0  0  0  0  0  0  0  0  0  0
   21.7135   -4.7287  -13.3587 C   0  0  0  0  0  0  0  0  0  0  0  0
   23.0936   -4.6495  -13.4725 O   0  0  0  0  0  0  0  0  0  0  0  0
   21.0541   -3.7433  -13.7706 O   0  0  0  0  0  0  0  0  0  0  0  0
  2  1  1  0
  3  4  1  0
  3  2  1  0
  4  5  1  0
  5  7  1  0
  5  6  1  1
  7  8  2  0
  9 10  1  0
  9  7  1  0
 10 13  1  0
 10 11  1  1
 12 11  1  0
 13 14  2  0
 13 18  1  0
 16 15  1  0
 17 16  1  6
 18 17  1  0
 19 20  1  0
 19 17  1  0
 21 19  2  0
M  END
$$$$
