LNV.pdb
     RDKit          3D

 24 23  0  0  1  0  0  0  0  0999 V2000
   19.2953  -17.4154  -14.0126 C   0  0  0  0  0  0  0  0  0  0  0  0
   19.8732  -17.6233  -15.4200 C   0  0  2  0  0  0  0  0  0  0  0  0
   21.2050  -18.2690  -15.2363 C   0  0  0  0  0  0  0  0  0  0  0  0
   19.8650  -16.2934  -16.0834 C   0  0  0  0  0  0  0  0  0  0  0  0
   18.5635  -15.6243  -16.2801 C   0  0  2  0  0  0  0  0  0  0  0  0
   17.6206  -16.3036  -17.1111 N   0  0  0  0  0  0  0  0  0  0  0  0
   18.7964  -14.2713  -16.8568 C   0  0  0  0  0  0  0  0  0  0  0  0
   18.7061  -14.0657  -18.0856 O   0  0  0  0  0  0  0  0  0  0  0  0
   19.3189   -9.2405  -17.7823 N   0  0  0  0  0  0  0  0  0  0  0  0
   18.1379  -10.0099  -17.9119 C   0  0  0  0  0  0  0  0  0  0  0  0
   17.1874   -9.5064  -18.5478 O   0  0  0  0  0  0  0  0  0  0  0  0
   18.0344  -11.3372  -17.3255 C   0  0  0  0  0  0  0  0  0  0  0  0
   19.2370  -11.7939  -16.5715 C   0  0  2  0  0  0  0  0  0  0  0  0
   19.1355  -13.1256  -16.0560 N   0  0  0  0  0  0  0  0  0  0  0  0
   19.7110  -10.8161  -15.5549 C   0  0  0  0  0  0  0  0  0  0  0  0
   18.9774  -10.6431  -14.5549 O   0  0  0  0  0  0  0  0  0  0  0  0
   22.9872  -11.1301  -13.9070 C   0  0  0  0  0  0  0  0  0  0  0  0
   22.9439   -9.6888  -14.3816 C   0  0  1  0  0  0  0  0  0  0  0  0
   23.7832   -9.6117  -15.6251 C   0  0  0  0  0  0  0  0  0  0  0  0
   21.5025   -9.3091  -14.5985 C   0  0  2  0  0  0  0  0  0  0  0  0
   20.9028  -10.1073  -15.6701 N   0  0  0  0  0  0  0  0  0  0  0  0
   21.3826   -7.8734  -14.8529 C   0  0  0  0  0  0  0  0  0  0  0  0
   21.4232   -6.9290  -13.8430 O   0  0  0  0  0  0  0  0  0  0  0  0
   21.2347   -7.4600  -16.0239 O   0  0  0  0  0  0  0  0  0  0  0  0
  2  1  1  1
  2  3  1  0
  4  2  1  0
  4  5  1  0
  5  7  1  0
  5  6  1  6
  7  8  2  0
  9 10  1  0
 10 11  2  0
 13 12  1  1
 12 10  1  0
 14 13  1  0
 14  7  1  0
 15 13  1  0
 16 15  2  0
 18 17  1  6
 19 18  1  0
 20 18  1  0
 20 21  1  6
 21 15  1  0
 22 23  1  0
 22 20  1  0
 24 22  2  0
M  END
$$$$
