LNV.pdb
     RDKit          3D

 24 23  0  0  1  0  0  0  0  0999 V2000
   26.9041  -20.5491  -22.6052 C   0  0  0  0  0  0  0  0  0  0  0  0
   26.3824  -20.0852  -21.2375 C   0  0  2  0  0  0  0  0  0  0  0  0
   25.6124  -21.2300  -20.6711 C   0  0  0  0  0  0  0  0  0  0  0  0
   25.6261  -18.8281  -21.4752 C   0  0  0  0  0  0  0  0  0  0  0  0
   26.3674  -17.6592  -21.9893 C   0  0  2  0  0  0  0  0  0  0  0  0
   27.4481  -17.1887  -21.1819 N   0  0  0  0  0  0  0  0  0  0  0  0
   25.4157  -16.5315  -22.1895 C   0  0  0  0  0  0  0  0  0  0  0  0
   24.2819  -16.7189  -22.6792 O   0  0  0  0  0  0  0  0  0  0  0  0
   22.8801  -12.0532  -22.3777 N   0  0  0  0  0  0  0  0  0  0  0  0
   22.4944  -13.2527  -21.7326 C   0  0  0  0  0  0  0  0  0  0  0  0
   21.2999  -13.3619  -21.3824 O   0  0  0  0  0  0  0  0  0  0  0  0
   23.4535  -14.3182  -21.4857 C   0  0  0  0  0  0  0  0  0  0  0  0
   24.8244  -14.0750  -22.0197 C   0  0  2  0  0  0  0  0  0  0  0  0
   25.7271  -15.1715  -21.8399 N   0  0  0  0  0  0  0  0  0  0  0  0
   25.4071  -12.7726  -21.5974 C   0  0  0  0  0  0  0  0  0  0  0  0
   25.5644  -12.5984  -20.3673 O   0  0  0  0  0  0  0  0  0  0  0  0
   28.6830  -11.5558  -22.8557 C   0  0  0  0  0  0  0  0  0  0  0  0
   27.7199  -10.4021  -23.0708 C   0  0  1  0  0  0  0  0  0  0  0  0
   27.3376  -10.4158  -24.5235 C   0  0  0  0  0  0  0  0  0  0  0  0
   26.5536  -10.5836  -22.1352 C   0  0  2  0  0  0  0  0  0  0  0  0
   25.7725  -11.7704  -22.4908 N   0  0  0  0  0  0  0  0  0  0  0  0
   25.7291   -9.3756  -22.1022 C   0  0  0  0  0  0  0  0  0  0  0  0
   26.1335   -8.2109  -21.4749 O   0  0  0  0  0  0  0  0  0  0  0  0
   24.6078   -9.3731  -22.6561 O   0  0  0  0  0  0  0  0  0  0  0  0
  2  1  1  6
  2  3  1  0
  4  2  1  0
  4  5  1  0
  5  7  1  0
  5  6  1  1
  7  8  2  0
  9 10  1  0
 10 11  2  0
 13 12  1  1
 12 10  1  0
 14 13  1  0
 14  7  1  0
 15 13  1  0
 16 15  2  0
 18 17  1  6
 19 18  1  0
 20 18  1  0
 20 21  1  6
 21 15  1  0
 22 23  1  0
 22 20  1  0
 24 22  2  0
M  END
$$$$
