LNV.pdb
     RDKit          3D

 24 23  0  0  1  0  0  0  0  0999 V2000
   30.6509  -21.5079  -19.1859 C   0  0  0  0  0  0  0  0  0  0  0  0
   29.4170  -20.8018  -19.7664 C   0  0  2  0  0  0  0  0  0  0  0  0
   29.9307  -19.7530  -20.6940 C   0  0  0  0  0  0  0  0  0  0  0  0
   28.6136  -20.3297  -18.6086 C   0  0  0  0  0  0  0  0  0  0  0  0
   28.2966  -21.3006  -17.5422 C   0  0  2  0  0  0  0  0  0  0  0  0
   27.8028  -22.5716  -17.9685 N   0  0  0  0  0  0  0  0  0  0  0  0
   27.2913  -20.6994  -16.6228 C   0  0  0  0  0  0  0  0  0  0  0  0
   27.5178  -19.6250  -16.0272 O   0  0  0  0  0  0  0  0  0  0  0  0
   22.9773  -19.4342  -14.0352 N   0  0  0  0  0  0  0  0  0  0  0  0
   22.6395  -20.0486  -15.2649 C   0  0  0  0  0  0  0  0  0  0  0  0
   21.4481  -19.9817  -15.6358 O   0  0  0  0  0  0  0  0  0  0  0  0
   23.6420  -20.7332  -16.0664 C   0  0  0  0  0  0  0  0  0  0  0  0
   25.0215  -20.7254  -15.5003 C   0  0  2  0  0  0  0  0  0  0  0  0
   26.0115  -21.3007  -16.3595 N   0  0  0  0  0  0  0  0  0  0  0  0
   25.0975  -21.2404  -14.1063 C   0  0  0  0  0  0  0  0  0  0  0  0
   24.7853  -22.4404  -13.9314 O   0  0  0  0  0  0  0  0  0  0  0  0
   26.6535  -20.8816   -9.4662 C   0  0  0  0  0  0  0  0  0  0  0  0
   26.7052  -20.3751  -10.8963 C   0  0  1  0  0  0  0  0  0  0  0  0
   28.0218  -20.8157  -11.4698 C   0  0  0  0  0  0  0  0  0  0  0  0
   25.5100  -20.9225  -11.6316 C   0  0  2  0  0  0  0  0  0  0  0  0
   25.4902  -20.4621  -13.0218 N   0  0  0  0  0  0  0  0  0  0  0  0
   24.2741  -20.5848  -10.9255 C   0  0  0  0  0  0  0  0  0  0  0  0
   23.7311  -21.3903   -9.9408 O   0  0  0  0  0  0  0  0  0  0  0  0
   23.6650  -19.5298  -11.2087 O   0  0  0  0  0  0  0  0  0  0  0  0
  2  1  1  1
  2  3  1  0
  4  2  1  0
  4  5  1  0
  5  7  1  0
  5  6  1  6
  7  8  2  0
  9 10  1  0
 10 11  2  0
 13 12  1  6
 12 10  1  0
 14 13  1  0
 14  7  1  0
 15 13  1  0
 16 15  2  0
 18 17  1  1
 19 18  1  0
 20 18  1  0
 20 21  1  6
 21 15  1  0
 22 23  1  0
 22 20  1  0
 24 22  2  0
M  END
$$$$
