LNV.pdb
     RDKit          3D

 24 23  0  0  1  0  0  0  0  0999 V2000
   24.8894  -21.6022  -14.9107 C   0  0  0  0  0  0  0  0  0  0  0  0
   24.1892  -20.5105  -14.0884 C   0  0  2  0  0  0  0  0  0  0  0  0
   23.2038  -19.8634  -15.0020 C   0  0  0  0  0  0  0  0  0  0  0  0
   25.2606  -19.6382  -13.5407 C   0  0  0  0  0  0  0  0  0  0  0  0
   26.2527  -20.2458  -12.6314 C   0  0  2  0  0  0  0  0  0  0  0  0
   26.4678  -21.6508  -12.7756 N   0  0  0  0  0  0  0  0  0  0  0  0
   25.8444  -19.9833  -11.2237 C   0  0  0  0  0  0  0  0  0  0  0  0
   25.5619  -18.8304  -10.8345 O   0  0  0  0  0  0  0  0  0  0  0  0
   22.5735  -21.2646   -6.5606 N   0  0  0  0  0  0  0  0  0  0  0  0
   23.9227  -21.4092   -6.9635 C   0  0  0  0  0  0  0  0  0  0  0  0
   24.8000  -21.3518   -6.0756 O   0  0  0  0  0  0  0  0  0  0  0  0
   24.2747  -21.6159   -8.3598 C   0  0  0  0  0  0  0  0  0  0  0  0
   25.4033  -20.7799   -8.8607 C   0  0  2  0  0  0  0  0  0  0  0  0
   25.7476  -21.0183  -10.2296 N   0  0  0  0  0  0  0  0  0  0  0  0
   26.5879  -20.7749   -7.9602 C   0  0  0  0  0  0  0  0  0  0  0  0
   27.5039  -21.5850   -8.2300 O   0  0  0  0  0  0  0  0  0  0  0  0
   29.4092  -18.6575   -4.5687 C   0  0  0  0  0  0  0  0  0  0  0  0
   28.3664  -18.5725   -5.6687 C   0  0  1  0  0  0  0  0  0  0  0  0
   29.0412  -17.9658   -6.8659 C   0  0  0  0  0  0  0  0  0  0  0  0
   27.8281  -19.9578   -5.9133 C   0  0  2  0  0  0  0  0  0  0  0  0
   26.7125  -19.9298   -6.8618 N   0  0  0  0  0  0  0  0  0  0  0  0
   27.4564  -20.5945   -4.6498 C   0  0  0  0  0  0  0  0  0  0  0  0
   28.3896  -20.9895   -3.7082 O   0  0  0  0  0  0  0  0  0  0  0  0
   26.2508  -20.8019   -4.3895 O   0  0  0  0  0  0  0  0  0  0  0  0
  2  1  1  6
  2  3  1  0
  4  2  1  0
  4  5  1  0
  5  7  1  0
  5  6  1  1
  7  8  2  0
  9 10  1  0
 10 11  2  0
 13 12  1  1
 12 10  1  0
 14 13  1  0
 14  7  1  0
 15 13  1  0
 16 15  2  0
 18 17  1  1
 19 18  1  0
 20 18  1  0
 20 21  1  6
 21 15  1  0
 22 23  1  0
 22 20  1  0
 24 22  2  0
M  END
$$$$
