LNV.pdb
     RDKit          3D

 24 23  0  0  1  0  0  0  0  0999 V2000
   26.5886  -19.9204   -6.7050 C   0  0  0  0  0  0  0  0  0  0  0  0
   27.3849  -20.6638   -7.7873 C   0  0  2  0  0  0  0  0  0  0  0  0
   28.8126  -20.2753   -7.6000 C   0  0  0  0  0  0  0  0  0  0  0  0
   26.7647  -20.3088   -9.0904 C   0  0  0  0  0  0  0  0  0  0  0  0
   26.8936  -21.2691  -10.2046 C   0  0  2  0  0  0  0  0  0  0  0  0
   28.2205  -21.5324  -10.6642 N   0  0  0  0  0  0  0  0  0  0  0  0
   26.0931  -20.7799  -11.3610 C   0  0  0  0  0  0  0  0  0  0  0  0
   26.5572  -19.9420  -12.1629 O   0  0  0  0  0  0  0  0  0  0  0  0
   24.1601  -20.9114  -16.2364 N   0  0  0  0  0  0  0  0  0  0  0  0
   23.4918  -21.5464  -15.1623 C   0  0  0  0  0  0  0  0  0  0  0  0
   22.2791  -21.8088  -15.3107 O   0  0  0  0  0  0  0  0  0  0  0  0
   24.1908  -21.8803  -13.9310 C   0  0  0  0  0  0  0  0  0  0  0  0
   24.0277  -20.8974  -12.8216 C   0  0  2  0  0  0  0  0  0  0  0  0
   24.7539  -21.2283  -11.6330 N   0  0  0  0  0  0  0  0  0  0  0  0
   22.6107  -20.5339  -12.5497 C   0  0  0  0  0  0  0  0  0  0  0  0
   22.0567  -21.1089  -11.5851 O   0  0  0  0  0  0  0  0  0  0  0  0
   18.8184  -17.4430  -13.3298 C   0  0  0  0  0  0  0  0  0  0  0  0
   20.2497  -17.8296  -13.6562 C   0  0  1  0  0  0  0  0  0  0  0  0
   21.1268  -16.7096  -13.1735 C   0  0  0  0  0  0  0  0  0  0  0  0
   20.5399  -19.1534  -12.9989 C   0  0  2  0  0  0  0  0  0  0  0  0
   21.8985  -19.6070  -13.3046 N   0  0  0  0  0  0  0  0  0  0  0  0
   19.5336  -20.1457  -13.3769 C   0  0  0  0  0  0  0  0  0  0  0  0
   18.4834  -20.4988  -12.5488 O   0  0  0  0  0  0  0  0  0  0  0  0
   19.6068  -20.7124  -14.4894 O   0  0  0  0  0  0  0  0  0  0  0  0
  2  1  1  1
  2  3  1  0
  4  2  1  0
  4  5  1  0
  5  7  1  0
  5  6  1  6
  7  8  2  0
  9 10  1  0
 10 11  2  0
 13 12  1  6
 12 10  1  0
 14 13  1  0
 14  7  1  0
 15 13  1  0
 16 15  2  0
 18 17  1  1
 19 18  1  0
 20 18  1  0
 20 21  1  6
 21 15  1  0
 22 23  1  0
 22 20  1  0
 24 22  2  0
M  END
$$$$
