LNV.pdb
     RDKit          3D

 24 23  0  0  1  0  0  0  0  0999 V2000
   28.9425  -22.1927  -11.5416 C   0  0  0  0  0  0  0  0  0  0  0  0
   28.6712  -20.8668  -12.2673 C   0  0  2  0  0  0  0  0  0  0  0  0
   29.7298  -19.9173  -11.8174 C   0  0  0  0  0  0  0  0  0  0  0  0
   27.2668  -20.4923  -11.9572 C   0  0  0  0  0  0  0  0  0  0  0  0
   26.1897  -21.3811  -12.4370 C   0  0  2  0  0  0  0  0  0  0  0  0
   26.4017  -22.0073  -13.7035 N   0  0  0  0  0  0  0  0  0  0  0  0
   24.9198  -20.6070  -12.5116 C   0  0  0  0  0  0  0  0  0  0  0  0
   24.9176  -19.3586  -12.4656 O   0  0  0  0  0  0  0  0  0  0  0  0
   20.3521  -19.0374  -14.2388 N   0  0  0  0  0  0  0  0  0  0  0  0
   21.5762  -19.0841  -14.9481 C   0  0  0  0  0  0  0  0  0  0  0  0
   21.6442  -18.4535  -16.0248 O   0  0  0  0  0  0  0  0  0  0  0  0
   22.7123  -19.8391  -14.4428 C   0  0  0  0  0  0  0  0  0  0  0  0
   22.4731  -20.5661  -13.1630 C   0  0  2  0  0  0  0  0  0  0  0  0
   23.6292  -21.2287  -12.6397 N   0  0  0  0  0  0  0  0  0  0  0  0
   21.2693  -21.4404  -13.1893 C   0  0  0  0  0  0  0  0  0  0  0  0
   21.3187  -22.4446  -13.9359 O   0  0  0  0  0  0  0  0  0  0  0  0
   17.7475  -23.2317  -10.3505 C   0  0  0  0  0  0  0  0  0  0  0  0
   18.7695  -22.1456  -10.6342 C   0  0  1  0  0  0  0  0  0  0  0  0
   19.9388  -22.3963   -9.7250 C   0  0  0  0  0  0  0  0  0  0  0  0
   19.1178  -22.1997  -12.0986 C   0  0  2  0  0  0  0  0  0  0  0  0
   20.1245  -21.1918  -12.4385 N   0  0  0  0  0  0  0  0  0  0  0  0
   17.9130  -22.0676  -12.9179 C   0  0  0  0  0  0  0  0  0  0  0  0
   17.3201  -23.1429  -13.5550 O   0  0  0  0  0  0  0  0  0  0  0  0
   17.3806  -20.9454  -13.0639 O   0  0  0  0  0  0  0  0  0  0  0  0
  2  1  1  1
  2  3  1  0
  4  2  1  0
  4  5  1  0
  5  7  1  0
  5  6  1  6
  7  8  2  0
  9 10  1  0
 10 11  2  0
 13 12  1  6
 12 10  1  0
 14 13  1  0
 14  7  1  0
 15 13  1  0
 16 15  2  0
 18 17  1  6
 19 18  1  0
 20 18  1  0
 20 21  1  6
 21 15  1  0
 22 23  1  0
 22 20  1  0
 24 22  2  0
M  END
$$$$
