LNV.pdb
     RDKit          3D

 24 23  0  0  1  0  0  0  0  0999 V2000
   26.8962  -18.7108   -6.3595 C   0  0  0  0  0  0  0  0  0  0  0  0
   27.3983  -20.1257   -6.6821 C   0  0  2  0  0  0  0  0  0  0  0  0
   28.7394  -20.2517   -6.0417 C   0  0  0  0  0  0  0  0  0  0  0  0
   27.3518  -20.2663   -8.1609 C   0  0  0  0  0  0  0  0  0  0  0  0
   26.0619  -20.0310   -8.8398 C   0  0  2  0  0  0  0  0  0  0  0  0
   24.9997  -20.9282   -8.5114 N   0  0  0  0  0  0  0  0  0  0  0  0
   26.2728  -20.0848  -10.3130 C   0  0  0  0  0  0  0  0  0  0  0  0
   27.2622  -19.5402  -10.8468 O   0  0  0  0  0  0  0  0  0  0  0  0
   27.9306  -22.0046  -14.8405 N   0  0  0  0  0  0  0  0  0  0  0  0
   26.5457  -21.9817  -14.5489 C   0  0  0  0  0  0  0  0  0  0  0  0
   25.7538  -21.9025  -15.5123 O   0  0  0  0  0  0  0  0  0  0  0  0
   26.0623  -22.0471  -13.1784 C   0  0  0  0  0  0  0  0  0  0  0  0
   25.5234  -20.7680  -12.6334 C   0  0  2  0  0  0  0  0  0  0  0  0
   25.3702  -20.7550  -11.2101 N   0  0  0  0  0  0  0  0  0  0  0  0
   24.3143  -20.2770  -13.3484 C   0  0  0  0  0  0  0  0  0  0  0  0
   23.2069  -20.6783  -12.9236 O   0  0  0  0  0  0  0  0  0  0  0  0
   24.2415  -16.5858  -14.9064 C   0  0  0  0  0  0  0  0  0  0  0  0
   23.5876  -17.5737  -15.8556 C   0  0  1  0  0  0  0  0  0  0  0  0
   24.5795  -17.8530  -16.9487 C   0  0  0  0  0  0  0  0  0  0  0  0
   23.1962  -18.7950  -15.0656 C   0  0  2  0  0  0  0  0  0  0  0  0
   24.3660  -19.4147  -14.4393 N   0  0  0  0  0  0  0  0  0  0  0  0
   22.4628  -19.7387  -15.9093 C   0  0  0  0  0  0  0  0  0  0  0  0
   21.0995  -19.6463  -16.1245 O   0  0  0  0  0  0  0  0  0  0  0  0
   23.0727  -20.6769  -16.4677 O   0  0  0  0  0  0  0  0  0  0  0  0
  2  1  1  6
  2  3  1  0
  4  2  1  0
  4  5  1  0
  5  7  1  0
  5  6  1  1
  7  8  2  0
  9 10  1  0
 10 11  2  0
 13 12  1  6
 12 10  1  0
 14 13  1  0
 14  7  1  0
 15 13  1  0
 16 15  2  0
 18 17  1  1
 19 18  1  0
 20 18  1  0
 20 21  1  6
 21 15  1  0
 22 23  1  0
 22 20  1  0
 24 22  2  0
M  END
$$$$
