LNV.pdb
     RDKit          3D

 24 23  0  0  1  0  0  0  0  0999 V2000
   21.4875  -18.1192  -19.3658 C   0  0  0  0  0  0  0  0  0  0  0  0
   22.2980  -17.3943  -20.4501 C   0  0  2  0  0  0  0  0  0  0  0  0
   22.0614  -18.1394  -21.7202 C   0  0  0  0  0  0  0  0  0  0  0  0
   23.7015  -17.3370  -19.9644 C   0  0  0  0  0  0  0  0  0  0  0  0
   23.9767  -16.5814  -18.7261 C   0  0  2  0  0  0  0  0  0  0  0  0
   22.9672  -16.6299  -17.7163 N   0  0  0  0  0  0  0  0  0  0  0  0
   24.2146  -15.1529  -19.0728 C   0  0  0  0  0  0  0  0  0  0  0  0
   25.0792  -14.8246  -19.9125 O   0  0  0  0  0  0  0  0  0  0  0  0
   23.4261  -10.2476  -21.4143 N   0  0  0  0  0  0  0  0  0  0  0  0
   23.0229  -10.7304  -20.1463 C   0  0  0  0  0  0  0  0  0  0  0  0
   22.7948   -9.8870  -19.2530 O   0  0  0  0  0  0  0  0  0  0  0  0
   22.8802  -12.1557  -19.8925 C   0  0  0  0  0  0  0  0  0  0  0  0
   23.7132  -12.6885  -18.7763 C   0  0  2  0  0  0  0  0  0  0  0  0
   23.4801  -14.0690  -18.4776 N   0  0  0  0  0  0  0  0  0  0  0  0
   23.7075  -11.8265  -17.5634 C   0  0  0  0  0  0  0  0  0  0  0  0
   22.7843  -12.0194  -16.7396 O   0  0  0  0  0  0  0  0  0  0  0  0
   26.5280  -11.3844  -15.2267 C   0  0  0  0  0  0  0  0  0  0  0  0
   26.0956   -9.9628  -15.5376 C   0  0  1  0  0  0  0  0  0  0  0  0
   27.1188   -9.3892  -16.4760 C   0  0  0  0  0  0  0  0  0  0  0  0
   24.7045  -10.0105  -16.1131 C   0  0  2  0  0  0  0  0  0  0  0  0
   24.6605  -10.8431  -17.3172 N   0  0  0  0  0  0  0  0  0  0  0  0
   24.2063   -8.6581  -16.3643 C   0  0  0  0  0  0  0  0  0  0  0  0
   23.8390   -7.7953  -15.3474 O   0  0  0  0  0  0  0  0  0  0  0  0
   24.0979   -8.2441  -17.5395 O   0  0  0  0  0  0  0  0  0  0  0  0
  2  1  1  1
  2  3  1  0
  4  2  1  0
  4  5  1  0
  5  7  1  0
  5  6  1  1
  7  8  2  0
  9 10  1  0
 10 11  2  0
 13 12  1  6
 12 10  1  0
 14 13  1  0
 14  7  1  0
 15 13  1  0
 16 15  2  0
 18 17  1  6
 19 18  1  0
 20 18  1  0
 20 21  1  6
 21 15  1  0
 22 23  1  0
 22 20  1  0
 24 22  2  0
M  END
$$$$
