LNV.pdb
     RDKit          3D

 24 23  0  0  1  0  0  0  0  0999 V2000
   27.3894  -21.2224   -7.2235 C   0  0  0  0  0  0  0  0  0  0  0  0
   27.9614  -19.9884   -7.9364 C   0  0  2  0  0  0  0  0  0  0  0  0
   27.5608  -18.8073   -7.1185 C   0  0  0  0  0  0  0  0  0  0  0  0
   27.4557  -20.0322   -9.3332 C   0  0  0  0  0  0  0  0  0  0  0  0
   27.8260  -21.1917  -10.1691 C   0  0  2  0  0  0  0  0  0  0  0  0
   29.1964  -21.2764  -10.5642 N   0  0  0  0  0  0  0  0  0  0  0  0
   26.9897  -21.1878  -11.4011 C   0  0  0  0  0  0  0  0  0  0  0  0
   27.2808  -20.4689  -12.3803 O   0  0  0  0  0  0  0  0  0  0  0  0
   23.8190  -22.5766  -15.2649 N   0  0  0  0  0  0  0  0  0  0  0  0
   24.1116  -23.6914  -14.4432 C   0  0  0  0  0  0  0  0  0  0  0  0
   23.8244  -24.8249  -14.8839 O   0  0  0  0  0  0  0  0  0  0  0  0
   24.7229  -23.5235  -13.1339 C   0  0  0  0  0  0  0  0  0  0  0  0
   25.0767  -22.1205  -12.7734 C   0  0  2  0  0  0  0  0  0  0  0  0
   25.8093  -21.9961  -11.5498 N   0  0  0  0  0  0  0  0  0  0  0  0
   23.9305  -21.1753  -12.8585 C   0  0  0  0  0  0  0  0  0  0  0  0
   23.3359  -20.9133  -11.7880 O   0  0  0  0  0  0  0  0  0  0  0  0
   23.7448  -17.9357  -15.1364 C   0  0  0  0  0  0  0  0  0  0  0  0
   22.4981  -18.7755  -15.3488 C   0  0  1  0  0  0  0  0  0  0  0  0
   22.6689  -19.4893  -16.6595 C   0  0  0  0  0  0  0  0  0  0  0  0
   22.3489  -19.7007  -14.1696 C   0  0  2  0  0  0  0  0  0  0  0  0
   23.5065  -20.5893  -14.0472 N   0  0  0  0  0  0  0  0  0  0  0  0
   21.0934  -20.4465  -14.2580 C   0  0  0  0  0  0  0  0  0  0  0  0
   19.8664  -19.8840  -13.9557 O   0  0  0  0  0  0  0  0  0  0  0  0
   21.1060  -21.6442  -14.6179 O   0  0  0  0  0  0  0  0  0  0  0  0
  2  1  1  1
  2  3  1  0
  4  2  1  0
  4  5  1  0
  5  7  1  0
  5  6  1  6
  7  8  2  0
  9 10  1  0
 10 11  2  0
 13 12  1  1
 12 10  1  0
 14 13  1  0
 14  7  1  0
 15 13  1  0
 16 15  2  0
 18 17  1  1
 19 18  1  0
 20 18  1  0
 20 21  1  6
 21 15  1  0
 22 23  1  0
 22 20  1  0
 24 22  2  0
M  END
$$$$
