LNV.pdb
     RDKit          3D

 24 23  0  0  1  0  0  0  0  0999 V2000
   26.0147  -21.2193  -16.0392 C   0  0  0  0  0  0  0  0  0  0  0  0
   25.0644  -20.2109  -15.3771 C   0  0  2  0  0  0  0  0  0  0  0  0
   24.5113  -19.3697  -16.4774 C   0  0  0  0  0  0  0  0  0  0  0  0
   25.8532  -19.5058  -14.3334 C   0  0  0  0  0  0  0  0  0  0  0  0
   26.5573  -20.3233  -13.3253 C   0  0  2  0  0  0  0  0  0  0  0  0
   26.4508  -21.7404  -13.4717 N   0  0  0  0  0  0  0  0  0  0  0  0
   26.0559  -19.9602  -11.9710 C   0  0  0  0  0  0  0  0  0  0  0  0
   25.8303  -18.7715  -11.6601 O   0  0  0  0  0  0  0  0  0  0  0  0
   22.2588  -20.0280   -7.9290 N   0  0  0  0  0  0  0  0  0  0  0  0
   23.4155  -20.8368   -8.0355 C   0  0  0  0  0  0  0  0  0  0  0  0
   23.9456  -21.2292   -6.9742 O   0  0  0  0  0  0  0  0  0  0  0  0
   23.9670  -21.1969   -9.3326 C   0  0  0  0  0  0  0  0  0  0  0  0
   25.3008  -20.6060   -9.6417 C   0  0  2  0  0  0  0  0  0  0  0  0
   25.8000  -20.9330  -10.9430 N   0  0  0  0  0  0  0  0  0  0  0  0
   26.3093  -20.8142   -8.5676 C   0  0  0  0  0  0  0  0  0  0  0  0
   26.9635  -21.8812   -8.6084 O   0  0  0  0  0  0  0  0  0  0  0  0
   29.0867  -18.9795   -4.9393 C   0  0  0  0  0  0  0  0  0  0  0  0
   28.2785  -18.7968   -6.2113 C   0  0  1  0  0  0  0  0  0  0  0  0
   29.2483  -18.4254   -7.2968 C   0  0  0  0  0  0  0  0  0  0  0  0
   27.5292  -20.0756   -6.4791 C   0  0  2  0  0  0  0  0  0  0  0  0
   26.5456  -19.8959   -7.5493 N   0  0  0  0  0  0  0  0  0  0  0  0
   26.9150  -20.5777   -5.2500 C   0  0  0  0  0  0  0  0  0  0  0  0
   25.5466  -20.7110   -5.0980 O   0  0  0  0  0  0  0  0  0  0  0  0
   27.6374  -20.9043   -4.2827 O   0  0  0  0  0  0  0  0  0  0  0  0
  2  1  1  6
  2  3  1  0
  4  2  1  0
  4  5  1  0
  5  7  1  0
  5  6  1  6
  7  8  2  0
  9 10  1  0
 10 11  2  0
 13 12  1  1
 12 10  1  0
 14 13  1  0
 14  7  1  0
 15 13  1  0
 16 15  2  0
 18 17  1  1
 19 18  1  0
 20 18  1  0
 20 21  1  6
 21 15  1  0
 22 23  1  0
 22 20  1  0
 24 22  2  0
M  END
$$$$
