LNV.pdb
     RDKit          3D

 24 23  0  0  1  0  0  0  0  0999 V2000
   25.3315  -12.8026  -16.2606 C   0  0  0  0  0  0  0  0  0  0  0  0
   24.8251  -12.7265  -17.7083 C   0  0  2  0  0  0  0  0  0  0  0  0
   26.0111  -12.4003  -18.5518 C   0  0  0  0  0  0  0  0  0  0  0  0
   23.7116  -11.7422  -17.7178 C   0  0  0  0  0  0  0  0  0  0  0  0
   22.4970  -12.0612  -16.9411 C   0  0  2  0  0  0  0  0  0  0  0  0
   21.8154  -13.2654  -17.2967 N   0  0  0  0  0  0  0  0  0  0  0  0
   21.5336  -10.9323  -17.0627 C   0  0  0  0  0  0  0  0  0  0  0  0
   20.7750  -10.8306  -18.0499 O   0  0  0  0  0  0  0  0  0  0  0  0
   21.8414   -8.3127  -13.7344 N   0  0  0  0  0  0  0  0  0  0  0  0
   20.4261   -8.2933  -13.7358 C   0  0  0  0  0  0  0  0  0  0  0  0
   19.8512   -8.0163  -12.6614 O   0  0  0  0  0  0  0  0  0  0  0  0
   19.6690   -8.5859  -14.9430 C   0  0  0  0  0  0  0  0  0  0  0  0
   20.4887   -8.8057  -16.1691 C   0  0  2  0  0  0  0  0  0  0  0  0
   21.4093   -9.8977  -16.0713 N   0  0  0  0  0  0  0  0  0  0  0  0
   21.1189   -7.5650  -16.6961 C   0  0  0  0  0  0  0  0  0  0  0  0
   22.3061   -7.3500  -16.3607 O   0  0  0  0  0  0  0  0  0  0  0  0
   21.4581   -6.5233  -20.2969 C   0  0  0  0  0  0  0  0  0  0  0  0
   20.7603   -5.3772  -19.5869 C   0  0  1  0  0  0  0  0  0  0  0  0
   19.2958   -5.4949  -19.8998 C   0  0  0  0  0  0  0  0  0  0  0  0
   21.0760   -5.4737  -18.1173 C   0  0  2  0  0  0  0  0  0  0  0  0
   20.4585   -6.6611  -17.5225 N   0  0  0  0  0  0  0  0  0  0  0  0
   20.6805   -4.2467  -17.4257 C   0  0  0  0  0  0  0  0  0  0  0  0
   21.3815   -3.0604  -17.5473 O   0  0  0  0  0  0  0  0  0  0  0  0
   19.6712   -4.2472  -16.6872 O   0  0  0  0  0  0  0  0  0  0  0  0
  2  1  1  1
  2  3  1  0
  4  2  1  0
  4  5  1  0
  5  7  1  0
  5  6  1  6
  7  8  2  0
  9 10  1  0
 10 11  2  0
 13 12  1  1
 12 10  1  0
 14 13  1  0
 14  7  1  0
 15 13  1  0
 16 15  2  0
 18 17  1  6
 19 18  1  0
 20 18  1  0
 20 21  1  1
 21 15  1  0
 22 23  1  0
 22 20  1  0
 24 22  2  0
M  END
$$$$
