APC.pdb
     RDKit          3D

 19 19  0  0  1  0  0  0  0  0999 V2000
    6.5228  -17.6882   18.7185 C   0  0  0  0  0  0  0  0  0  0  0  0
    7.5963  -16.7793   18.2222 C   0  0  2  0  0  0  0  0  0  0  0  0
    8.4378  -17.4922   17.2989 N   0  0  0  0  0  0  0  0  0  0  0  0
    8.4127  -16.1917   19.3180 C   0  0  0  0  0  0  0  0  0  0  0  0
    9.4093  -16.8300   19.7442 O   0  0  0  0  0  0  0  0  0  0  0  0
    8.1268  -14.9415   19.9132 N   0  0  0  0  0  0  0  0  0  0  0  0
    7.1780  -14.0044   19.3063 C   0  0  0  0  0  0  0  0  0  0  0  0
    7.5534  -12.6632   19.9451 C   0  0  0  0  0  0  0  0  0  0  0  0
    7.8217  -13.1416   21.3525 C   0  0  0  0  0  0  0  0  0  0  0  0
    8.6484  -14.3791   21.0983 C   0  0  1  0  0  0  0  0  0  0  0  0
    8.6618  -15.2741   22.2770 C   0  0  0  0  0  0  0  0  0  0  0  0
    7.6563  -15.9282   22.5698 O   0  0  0  0  0  0  0  0  0  0  0  0
    9.8587  -15.3452   23.0406 N   0  0  0  0  0  0  0  0  0  0  0  0
   10.0287  -16.2820   24.1346 C   0  0  1  0  0  0  0  0  0  0  0  0
   10.1607  -17.6669   23.4888 C   0  0  0  0  0  0  0  0  0  0  0  0
   10.3979  -18.8536   24.8228 S   0  0  0  0  0  0  0  0  0  0  0  0
   11.1789  -15.9832   24.9763 C   0  0  0  0  0  0  0  0  0  0  0  0
   12.3720  -15.5618   24.4294 O   0  0  0  0  0  0  0  0  0  0  0  0
   11.0989  -16.1061   26.2168 O   0  0  0  0  0  0  0  0  0  0  0  0
  2  1  1  1
  2  3  1  0
  4  5  2  0
  4  2  1  0
  6  4  1  0
  7  6  1  0
  8  7  1  0
  9  8  1  0
  9 10  1  0
 10  6  1  0
 10 11  1  1
 11 12  2  0
 13 11  1  0
 13 14  1  0
 14 15  1  6
 16 15  1  0
 17 14  1  0
 17 18  1  0
 19 17  2  0
M  END
$$$$
