APC.pdb
     RDKit          3D

 19 19  0  0  1  0  0  0  0  0999 V2000
   10.1317  -18.8679   21.1576 C   0  0  0  0  0  0  0  0  0  0  0  0
   10.1815  -17.4585   20.6716 C   0  0  2  0  0  0  0  0  0  0  0  0
   11.3326  -17.2842   19.8269 N   0  0  0  0  0  0  0  0  0  0  0  0
   10.1957  -16.4630   21.7767 C   0  0  0  0  0  0  0  0  0  0  0  0
   11.3008  -16.1048   22.2593 O   0  0  0  0  0  0  0  0  0  0  0  0
    9.0225  -15.8912   22.3203 N   0  0  0  0  0  0  0  0  0  0  0  0
    7.7150  -16.0795   21.6865 C   0  0  0  0  0  0  0  0  0  0  0  0
    6.8790  -14.9307   22.2601 C   0  0  0  0  0  0  0  0  0  0  0  0
    7.3845  -14.9617   23.6832 C   0  0  0  0  0  0  0  0  0  0  0  0
    8.8741  -15.0882   23.4719 C   0  0  1  0  0  0  0  0  0  0  0  0
    9.5542  -15.5858   24.6886 C   0  0  0  0  0  0  0  0  0  0  0  0
    9.8255  -16.7852   24.8002 O   0  0  0  0  0  0  0  0  0  0  0  0
    9.8743  -14.6410   25.7013 N   0  0  0  0  0  0  0  0  0  0  0  0
   10.4579  -15.0296   26.9709 C   0  0  1  0  0  0  0  0  0  0  0  0
   10.5835  -13.7395   27.7909 C   0  0  0  0  0  0  0  0  0  0  0  0
    8.9351  -13.0233   27.9086 S   0  0  0  0  0  0  0  0  0  0  0  0
    9.6756  -16.0304   27.6830 C   0  0  0  0  0  0  0  0  0  0  0  0
    8.3855  -16.3304   27.3016 O   0  0  0  0  0  0  0  0  0  0  0  0
   10.1681  -16.6360   28.6583 O   0  0  0  0  0  0  0  0  0  0  0  0
  2  1  1  1
  2  3  1  0
  4  5  2  0
  4  2  1  0
  6  4  1  0
  7  6  1  0
  8  7  1  0
  9  8  1  0
  9 10  1  0
 10  6  1  0
 10 11  1  1
 11 12  2  0
 13 11  1  0
 13 14  1  0
 14 15  1  1
 16 15  1  0
 17 14  1  0
 17 18  1  0
 19 17  2  0
M  END
$$$$
