APC.pdb
     RDKit          3D

 19 19  0  0  1  0  0  0  0  0999 V2000
    7.9607  -16.9656   21.7679 C   0  0  0  0  0  0  0  0  0  0  0  0
    8.2755  -15.5095   21.6918 C   0  0  2  0  0  0  0  0  0  0  0  0
    9.1710  -15.2705   20.5919 N   0  0  0  0  0  0  0  0  0  0  0  0
    8.8520  -14.9730   22.9537 C   0  0  0  0  0  0  0  0  0  0  0  0
   10.1016  -14.9668   23.0979 O   0  0  0  0  0  0  0  0  0  0  0  0
    8.0637  -14.4641   24.0115 N   0  0  0  0  0  0  0  0  0  0  0  0
    6.6282  -14.2215   23.8476 C   0  0  0  0  0  0  0  0  0  0  0  0
    6.3075  -13.2399   24.9795 C   0  0  0  0  0  0  0  0  0  0  0  0
    7.1657  -13.8461   26.0647 C   0  0  0  0  0  0  0  0  0  0  0  0
    8.4532  -14.1077   25.3207 C   0  0  1  0  0  0  0  0  0  0  0  0
    9.2965  -15.0976   26.0273 C   0  0  0  0  0  0  0  0  0  0  0  0
    9.2868  -16.2818   25.6777 O   0  0  0  0  0  0  0  0  0  0  0  0
   10.1009  -14.6338   27.1037 N   0  0  0  0  0  0  0  0  0  0  0  0
   10.9548  -15.5179   27.8736 C   0  0  1  0  0  0  0  0  0  0  0  0
   11.5974  -14.6455   28.9591 C   0  0  0  0  0  0  0  0  0  0  0  0
   10.2619  -13.7833   29.8060 S   0  0  0  0  0  0  0  0  0  0  0  0
   10.2406  -16.6438   28.4592 C   0  0  0  0  0  0  0  0  0  0  0  0
   10.9181  -17.7348   28.9600 O   0  0  0  0  0  0  0  0  0  0  0  0
    8.9927  -16.6358   28.5159 O   0  0  0  0  0  0  0  0  0  0  0  0
  2  1  1  1
  2  3  1  0
  4  5  2  0
  4  2  1  0
  6  4  1  0
  7  6  1  0
  8  7  1  0
  9  8  1  0
  9 10  1  0
 10  6  1  0
 10 11  1  1
 11 12  2  0
 13 11  1  0
 13 14  1  0
 14 15  1  1
 16 15  1  0
 17 14  1  0
 17 18  1  0
 19 17  2  0
M  END
$$$$
