APC.pdb
     RDKit          3D

 19 19  0  0  1  0  0  0  0  0999 V2000
    6.3211  -14.9409   22.2192 C   0  0  0  0  0  0  0  0  0  0  0  0
    7.4709  -14.0048   22.3825 C   0  0  2  0  0  0  0  0  0  0  0  0
    8.4391  -14.2512   21.3477 N   0  0  0  0  0  0  0  0  0  0  0  0
    8.1107  -14.0985   23.7220 C   0  0  0  0  0  0  0  0  0  0  0  0
    9.1416  -14.8066   23.8561 O   0  0  0  0  0  0  0  0  0  0  0  0
    7.6182  -13.4280   24.8652 N   0  0  0  0  0  0  0  0  0  0  0  0
    6.5476  -12.4326   24.7664 C   0  0  0  0  0  0  0  0  0  0  0  0
    6.6927  -11.6322   26.0648 C   0  0  0  0  0  0  0  0  0  0  0  0
    7.0012  -12.7709   27.0081 C   0  0  0  0  0  0  0  0  0  0  0  0
    8.0179  -13.5545   26.2132 C   0  0  1  0  0  0  0  0  0  0  0  0
    8.1454  -14.9416   26.7134 C   0  0  0  0  0  0  0  0  0  0  0  0
    7.2082  -15.7352   26.5850 O   0  0  0  0  0  0  0  0  0  0  0  0
    9.3692  -15.3113   27.3349 N   0  0  0  0  0  0  0  0  0  0  0  0
    9.5988  -16.6388   27.8719 C   0  0  1  0  0  0  0  0  0  0  0  0
   10.4083  -17.3911   26.8083 C   0  0  0  0  0  0  0  0  0  0  0  0
   11.8925  -16.4223   26.4882 S   0  0  0  0  0  0  0  0  0  0  0  0
   10.2930  -16.6310   29.1521 C   0  0  0  0  0  0  0  0  0  0  0  0
   10.7325  -15.4532   29.7173 O   0  0  0  0  0  0  0  0  0  0  0  0
   10.5013  -17.7019   29.7607 O   0  0  0  0  0  0  0  0  0  0  0  0
  2  1  1  1
  2  3  1  0
  4  5  2  0
  4  2  1  0
  6  4  1  0
  7  6  1  0
  8  7  1  0
  9  8  1  0
  9 10  1  0
 10  6  1  0
 10 11  1  1
 11 12  2  0
 13 11  1  0
 13 14  1  0
 14 15  1  6
 16 15  1  0
 17 14  1  0
 17 18  1  0
 19 17  2  0
M  END
$$$$
