APC.pdb
     RDKit          3D

 19 19  0  0  1  0  0  0  0  0999 V2000
   10.1027  -18.6046   21.1240 C   0  0  0  0  0  0  0  0  0  0  0  0
   10.2235  -17.1975   20.6440 C   0  0  2  0  0  0  0  0  0  0  0  0
   11.4398  -17.0519   19.8901 N   0  0  0  0  0  0  0  0  0  0  0  0
   10.1769  -16.2011   21.7475 C   0  0  0  0  0  0  0  0  0  0  0  0
   11.2462  -15.8896   22.3321 O   0  0  0  0  0  0  0  0  0  0  0  0
    8.9835  -15.5784   22.1800 N   0  0  0  0  0  0  0  0  0  0  0  0
    7.7399  -15.6924   21.4137 C   0  0  0  0  0  0  0  0  0  0  0  0
    6.9066  -14.5107   21.9207 C   0  0  0  0  0  0  0  0  0  0  0  0
    7.2622  -14.5860   23.3869 C   0  0  0  0  0  0  0  0  0  0  0  0
    8.7576  -14.7843   23.3251 C   0  0  1  0  0  0  0  0  0  0  0  0
    9.2851  -15.3316   24.5951 C   0  0  0  0  0  0  0  0  0  0  0  0
    9.4366  -16.5496   24.7294 O   0  0  0  0  0  0  0  0  0  0  0  0
    9.6028  -14.4116   25.6311 N   0  0  0  0  0  0  0  0  0  0  0  0
   10.0659  -14.8403   26.9369 C   0  0  1  0  0  0  0  0  0  0  0  0
    9.9860  -13.6038   27.8408 C   0  0  0  0  0  0  0  0  0  0  0  0
   10.7335  -14.0503   29.4174 S   0  0  0  0  0  0  0  0  0  0  0  0
    9.2938  -15.9449   27.4886 C   0  0  0  0  0  0  0  0  0  0  0  0
    9.9135  -17.0033   28.1178 O   0  0  0  0  0  0  0  0  0  0  0  0
    8.0479  -15.9480   27.3981 O   0  0  0  0  0  0  0  0  0  0  0  0
  2  1  1  1
  2  3  1  0
  4  5  2  0
  4  2  1  0
  6  4  1  0
  7  6  1  0
  8  7  1  0
  9  8  1  0
  9 10  1  0
 10  6  1  0
 10 11  1  1
 11 12  2  0
 13 11  1  0
 13 14  1  0
 14 15  1  1
 16 15  1  0
 17 14  1  0
 17 18  1  0
 19 17  2  0
M  END
$$$$
