APC.pdb
     RDKit          3D

 19 19  0  0  1  0  0  0  0  0999 V2000
    9.4441  -18.5107   21.0118 C   0  0  0  0  0  0  0  0  0  0  0  0
    9.7944  -17.0972   20.6891 C   0  0  2  0  0  0  0  0  0  0  0  0
   11.0009  -17.0700   19.9064 N   0  0  0  0  0  0  0  0  0  0  0  0
    9.9438  -16.2449   21.8990 C   0  0  0  0  0  0  0  0  0  0  0  0
   11.0762  -16.1457   22.4377 O   0  0  0  0  0  0  0  0  0  0  0  0
    8.8712  -15.5326   22.4830 N   0  0  0  0  0  0  0  0  0  0  0  0
    7.5970  -15.3575   21.7813 C   0  0  0  0  0  0  0  0  0  0  0  0
    6.9648  -14.1592   22.4969 C   0  0  0  0  0  0  0  0  0  0  0  0
    7.3592  -14.4992   23.9149 C   0  0  0  0  0  0  0  0  0  0  0  0
    8.8062  -14.8929   23.7397 C   0  0  1  0  0  0  0  0  0  0  0  0
    9.2942  -15.6900   24.8873 C   0  0  0  0  0  0  0  0  0  0  0  0
    9.3952  -16.9168   24.7914 O   0  0  0  0  0  0  0  0  0  0  0  0
    9.6342  -14.9945   26.0795 N   0  0  0  0  0  0  0  0  0  0  0  0
   10.1537  -15.6703   27.2529 C   0  0  1  0  0  0  0  0  0  0  0  0
   10.2213  -14.6082   28.3573 C   0  0  0  0  0  0  0  0  0  0  0  0
   10.7611  -13.0734   27.5847 S   0  0  0  0  0  0  0  0  0  0  0  0
    9.3457  -16.8087   27.6678 C   0  0  0  0  0  0  0  0  0  0  0  0
    9.8728  -17.8056   28.4604 O   0  0  0  0  0  0  0  0  0  0  0  0
    8.1530  -16.8976   27.3074 O   0  0  0  0  0  0  0  0  0  0  0  0
  2  1  1  1
  2  3  1  0
  4  5  2  0
  4  2  1  0
  6  4  1  0
  7  6  1  0
  8  7  1  0
  9  8  1  0
  9 10  1  0
 10  6  1  0
 10 11  1  1
 11 12  2  0
 13 11  1  0
 13 14  1  0
 14 15  1  1
 16 15  1  0
 17 14  1  0
 17 18  1  0
 19 17  2  0
M  END
$$$$
