APC.pdb
     RDKit          3D

 19 19  0  0  1  0  0  0  0  0999 V2000
    6.4729  -17.5387   18.0402 C   0  0  0  0  0  0  0  0  0  0  0  0
    7.5873  -16.6508   17.5988 C   0  0  2  0  0  0  0  0  0  0  0  0
    8.3623  -17.3216   16.5897 N   0  0  0  0  0  0  0  0  0  0  0  0
    8.4632  -16.2168   18.7199 C   0  0  0  0  0  0  0  0  0  0  0  0
    9.4499  -16.9313   19.0334 O   0  0  0  0  0  0  0  0  0  0  0  0
    8.2451  -15.0323   19.4605 N   0  0  0  0  0  0  0  0  0  0  0  0
    7.2344  -14.0520   19.0555 C   0  0  0  0  0  0  0  0  0  0  0  0
    7.6783  -12.7739   19.7745 C   0  0  0  0  0  0  0  0  0  0  0  0
    8.1021  -13.3814   21.0909 C   0  0  0  0  0  0  0  0  0  0  0  0
    8.8956  -14.5799   20.6289 C   0  0  1  0  0  0  0  0  0  0  0  0
    9.0405  -15.5831   21.7074 C   0  0  0  0  0  0  0  0  0  0  0  0
    8.0675  -16.2545   22.0640 O   0  0  0  0  0  0  0  0  0  0  0  0
   10.3228  -15.7356   22.3017 N   0  0  0  0  0  0  0  0  0  0  0  0
   10.5870  -16.7117   23.3412 C   0  0  1  0  0  0  0  0  0  0  0  0
   11.4091  -17.8237   22.6780 C   0  0  0  0  0  0  0  0  0  0  0  0
   11.7939  -19.0329   23.9562 S   0  0  0  0  0  0  0  0  0  0  0  0
   11.2872  -16.1551   24.4905 C   0  0  0  0  0  0  0  0  0  0  0  0
   11.0178  -16.5925   25.7696 O   0  0  0  0  0  0  0  0  0  0  0  0
   12.1495  -15.2655   24.3308 O   0  0  0  0  0  0  0  0  0  0  0  0
  2  1  1  1
  2  3  1  0
  4  5  2  0
  4  2  1  0
  6  4  1  0
  7  6  1  0
  8  7  1  0
  9  8  1  0
  9 10  1  0
 10  6  1  0
 10 11  1  1
 11 12  2  0
 13 11  1  0
 13 14  1  0
 14 15  1  6
 16 15  1  0
 17 14  1  0
 17 18  1  0
 19 17  2  0
M  END
$$$$
