APC.pdb
     RDKit          3D

 19 19  0  0  1  0  0  0  0  0999 V2000
    9.8310  -17.4417   17.8191 C   0  0  0  0  0  0  0  0  0  0  0  0
   10.3223  -16.0346   17.7599 C   0  0  2  0  0  0  0  0  0  0  0  0
   11.7038  -16.0267   17.3596 N   0  0  0  0  0  0  0  0  0  0  0  0
   10.1523  -15.3053   19.0452 C   0  0  0  0  0  0  0  0  0  0  0  0
   11.0692  -15.3639   19.9043 O   0  0  0  0  0  0  0  0  0  0  0  0
    9.0042  -14.5415   19.3573 N   0  0  0  0  0  0  0  0  0  0  0  0
    8.0184  -14.1882   18.3325 C   0  0  0  0  0  0  0  0  0  0  0  0
    7.2820  -12.9956   18.9513 C   0  0  0  0  0  0  0  0  0  0  0  0
    7.2028  -13.4846   20.3783 C   0  0  0  0  0  0  0  0  0  0  0  0
    8.6043  -14.0013   20.5987 C   0  0  1  0  0  0  0  0  0  0  0  0
    8.6650  -14.9313   21.7485 C   0  0  0  0  0  0  0  0  0  0  0  0
    8.5195  -16.1447   21.5723 O   0  0  0  0  0  0  0  0  0  0  0  0
    8.8933  -14.3766   23.0372 N   0  0  0  0  0  0  0  0  0  0  0  0
    9.0384  -15.1987   24.2231 C   0  0  1  0  0  0  0  0  0  0  0  0
    9.2466  -14.2249   25.3897 C   0  0  0  0  0  0  0  0  0  0  0  0
    7.7287  -13.2709   25.5615 S   0  0  0  0  0  0  0  0  0  0  0  0
    7.8968  -16.0702   24.4639 C   0  0  0  0  0  0  0  0  0  0  0  0
    7.9917  -17.1502   25.3151 O   0  0  0  0  0  0  0  0  0  0  0  0
    6.8060  -15.8484   23.8969 O   0  0  0  0  0  0  0  0  0  0  0  0
  2  1  1  1
  2  3  1  0
  4  5  2  0
  4  2  1  0
  6  4  1  0
  7  6  1  0
  8  7  1  0
  9  8  1  0
  9 10  1  0
 10  6  1  0
 10 11  1  1
 11 12  2  0
 13 11  1  0
 13 14  1  0
 14 15  1  1
 16 15  1  0
 17 14  1  0
 17 18  1  0
 19 17  2  0
M  END
$$$$
