APC.pdb
     RDKit          3D

 19 19  0  0  1  0  0  0  0  0999 V2000
    6.9994  -17.4546   17.6646 C   0  0  0  0  0  0  0  0  0  0  0  0
    8.0639  -16.4885   17.2663 C   0  0  2  0  0  0  0  0  0  0  0  0
    8.9494  -17.1151   16.3218 N   0  0  0  0  0  0  0  0  0  0  0  0
    8.8332  -15.9614   18.4251 C   0  0  0  0  0  0  0  0  0  0  0  0
    9.8560  -16.5839   18.8108 O   0  0  0  0  0  0  0  0  0  0  0  0
    8.4739  -14.7862   19.1244 N   0  0  0  0  0  0  0  0  0  0  0  0
    7.4897  -13.8451   18.5839 C   0  0  0  0  0  0  0  0  0  0  0  0
    7.7854  -12.5511   19.3493 C   0  0  0  0  0  0  0  0  0  0  0  0
    8.0530  -13.1423   20.7133 C   0  0  0  0  0  0  0  0  0  0  0  0
    8.9456  -14.3096   20.3667 C   0  0  1  0  0  0  0  0  0  0  0  0
    8.9837  -15.3067   21.4597 C   0  0  0  0  0  0  0  0  0  0  0  0
    7.9760  -15.9662   21.7322 O   0  0  0  0  0  0  0  0  0  0  0  0
   10.2064  -15.4676   22.1667 N   0  0  0  0  0  0  0  0  0  0  0  0
   10.3501  -16.3977   23.2702 C   0  0  1  0  0  0  0  0  0  0  0  0
   10.5432  -17.7804   22.6352 C   0  0  0  0  0  0  0  0  0  0  0  0
   10.8136  -18.9481   23.9796 S   0  0  0  0  0  0  0  0  0  0  0  0
   11.4547  -16.0698   24.1607 C   0  0  0  0  0  0  0  0  0  0  0  0
   11.4236  -16.4196   25.4936 O   0  0  0  0  0  0  0  0  0  0  0  0
   12.4546  -15.4614   23.7242 O   0  0  0  0  0  0  0  0  0  0  0  0
  2  1  1  1
  2  3  1  0
  4  5  2  0
  4  2  1  0
  6  4  1  0
  7  6  1  0
  8  7  1  0
  9  8  1  0
  9 10  1  0
 10  6  1  0
 10 11  1  1
 11 12  2  0
 13 11  1  0
 13 14  1  0
 14 15  1  6
 16 15  1  0
 17 14  1  0
 17 18  1  0
 19 17  2  0
M  END
$$$$
