APC.pdb
     RDKit          3D

 19 19  0  0  1  0  0  0  0  0999 V2000
    6.4506  -14.6034   20.5364 C   0  0  0  0  0  0  0  0  0  0  0  0
    7.4413  -13.5581   20.9247 C   0  0  2  0  0  0  0  0  0  0  0  0
    8.3454  -13.3259   19.8304 N   0  0  0  0  0  0  0  0  0  0  0  0
    8.1991  -13.9050   22.1568 C   0  0  0  0  0  0  0  0  0  0  0  0
    9.3269  -14.4507   22.0445 O   0  0  0  0  0  0  0  0  0  0  0  0
    7.7160  -13.6521   23.4613 N   0  0  0  0  0  0  0  0  0  0  0  0
    6.5530  -12.7916   23.6930 C   0  0  0  0  0  0  0  0  0  0  0  0
    6.7008  -12.3919   25.1647 C   0  0  0  0  0  0  0  0  0  0  0  0
    7.1709  -13.7156   25.7203 C   0  0  0  0  0  0  0  0  0  0  0  0
    8.2066  -14.1209   24.6992 C   0  0  1  0  0  0  0  0  0  0  0  0
    8.4933  -15.5715   24.7637 C   0  0  0  0  0  0  0  0  0  0  0  0
    7.6509  -16.3874   24.3774 O   0  0  0  0  0  0  0  0  0  0  0  0
    9.7551  -15.9746   25.2795 N   0  0  0  0  0  0  0  0  0  0  0  0
   10.1319  -17.3688   25.4113 C   0  0  1  0  0  0  0  0  0  0  0  0
   11.5788  -17.4649   24.9115 C   0  0  0  0  0  0  0  0  0  0  0  0
   12.0887  -19.1830   25.0907 S   0  0  0  0  0  0  0  0  0  0  0  0
   10.0120  -17.8725   26.7724 C   0  0  0  0  0  0  0  0  0  0  0  0
   10.3646  -17.0942   27.8540 O   0  0  0  0  0  0  0  0  0  0  0  0
    9.5838  -19.0276   26.9798 O   0  0  0  0  0  0  0  0  0  0  0  0
  2  1  1  6
  2  3  1  0
  4  5  2  0
  4  2  1  0
  6  4  1  0
  7  6  1  0
  8  7  1  0
  9  8  1  0
  9 10  1  0
 10  6  1  0
 10 11  1  6
 11 12  2  0
 13 11  1  0
 13 14  1  0
 14 15  1  1
 16 15  1  0
 17 14  1  0
 17 18  1  0
 19 17  2  0
M  END
$$$$
