APC.pdb
     RDKit          3D

 19 19  0  0  1  0  0  0  0  0999 V2000
    7.3055  -16.5915   21.9840 C   0  0  0  0  0  0  0  0  0  0  0  0
    8.0657  -15.3081   21.9711 C   0  0  2  0  0  0  0  0  0  0  0  0
    8.9858  -15.3082   20.8654 N   0  0  0  0  0  0  0  0  0  0  0  0
    8.7883  -15.0480   23.2450 C   0  0  0  0  0  0  0  0  0  0  0  0
    9.9727  -15.4536   23.3668 O   0  0  0  0  0  0  0  0  0  0  0  0
    8.2104  -14.3625   24.3382 N   0  0  0  0  0  0  0  0  0  0  0  0
    6.9491  -13.6297   24.2014 C   0  0  0  0  0  0  0  0  0  0  0  0
    6.9722  -12.6674   25.3935 C   0  0  0  0  0  0  0  0  0  0  0  0
    7.5541  -13.5964   26.4326 C   0  0  0  0  0  0  0  0  0  0  0  0
    8.6818  -14.2415   25.6634 C   0  0  1  0  0  0  0  0  0  0  0  0
    9.1222  -15.5022   26.3015 C   0  0  0  0  0  0  0  0  0  0  0  0
    8.4936  -16.5472   26.1079 O   0  0  0  0  0  0  0  0  0  0  0  0
   10.2766  -15.4569   27.1296 N   0  0  0  0  0  0  0  0  0  0  0  0
   10.7614  -16.6171   27.8522 C   0  0  1  0  0  0  0  0  0  0  0  0
   12.2883  -16.5970   27.7087 C   0  0  0  0  0  0  0  0  0  0  0  0
   12.9255  -18.0113   28.6241 S   0  0  0  0  0  0  0  0  0  0  0  0
   10.3658  -16.6306   29.2536 C   0  0  0  0  0  0  0  0  0  0  0  0
   10.1776  -17.8169   29.9297 O   0  0  0  0  0  0  0  0  0  0  0  0
   10.1900  -15.5569   29.8675 O   0  0  0  0  0  0  0  0  0  0  0  0
  2  1  1  1
  2  3  1  0
  4  5  2  0
  4  2  1  0
  6  4  1  0
  7  6  1  0
  8  7  1  0
  9  8  1  0
  9 10  1  0
 10  6  1  0
 10 11  1  1
 11 12  2  0
 13 11  1  0
 13 14  1  0
 14 15  1  1
 16 15  1  0
 17 14  1  0
 17 18  1  0
 19 17  2  0
M  END
$$$$
