APC.pdb
     RDKit          3D

 19 19  0  0  1  0  0  0  0  0999 V2000
   11.3957  -17.6700   21.3774 C   0  0  0  0  0  0  0  0  0  0  0  0
   10.0254  -17.3614   20.8756 C   0  0  2  0  0  0  0  0  0  0  0  0
   10.1200  -16.7023   19.6006 N   0  0  0  0  0  0  0  0  0  0  0  0
    9.2306  -16.5378   21.8256 C   0  0  0  0  0  0  0  0  0  0  0  0
    9.4441  -15.2996   21.8840 O   0  0  0  0  0  0  0  0  0  0  0  0
    8.2375  -17.0764   22.6757 N   0  0  0  0  0  0  0  0  0  0  0  0
    7.9046  -18.5031   22.6554 C   0  0  0  0  0  0  0  0  0  0  0  0
    6.5131  -18.5471   23.2952 C   0  0  0  0  0  0  0  0  0  0  0  0
    6.7234  -17.5204   24.3830 C   0  0  0  0  0  0  0  0  0  0  0  0
    7.4273  -16.4193   23.6269 C   0  0  1  0  0  0  0  0  0  0  0  0
    8.1378  -15.5001   24.5438 C   0  0  0  0  0  0  0  0  0  0  0  0
    9.3221  -15.7018   24.8286 O   0  0  0  0  0  0  0  0  0  0  0  0
    7.4108  -14.3980   25.0707 N   0  0  0  0  0  0  0  0  0  0  0  0
    7.9938  -13.4594   26.0102 C   0  0  1  0  0  0  0  0  0  0  0  0
    6.9845  -12.3123   26.1434 C   0  0  0  0  0  0  0  0  0  0  0  0
    5.4718  -13.0135   26.8246 S   0  0  0  0  0  0  0  0  0  0  0  0
    8.2906  -14.0511   27.3074 C   0  0  0  0  0  0  0  0  0  0  0  0
    9.1169  -13.4148   28.2086 O   0  0  0  0  0  0  0  0  0  0  0  0
    7.7956  -15.1535   27.6235 O   0  0  0  0  0  0  0  0  0  0  0  0
  2  1  1  1
  2  3  1  0
  4  5  2  0
  4  2  1  0
  6  4  1  0
  7  6  1  0
  8  7  1  0
  9  8  1  0
  9 10  1  0
 10  6  1  0
 10 11  1  1
 11 12  2  0
 13 11  1  0
 13 14  1  0
 14 15  1  1
 16 15  1  0
 17 14  1  0
 17 18  1  0
 19 17  2  0
M  END
$$$$
