APC.pdb
     RDKit          3D

 19 19  0  0  1  0  0  0  0  0999 V2000
    6.3154  -17.7761   18.3528 C   0  0  0  0  0  0  0  0  0  0  0  0
    7.3749  -16.9179   17.7478 C   0  0  2  0  0  0  0  0  0  0  0  0
    8.0898  -17.6708   16.7522 N   0  0  0  0  0  0  0  0  0  0  0  0
    8.3196  -16.3645   18.7546 C   0  0  0  0  0  0  0  0  0  0  0  0
    9.3322  -17.0388   19.0746 O   0  0  0  0  0  0  0  0  0  0  0  0
    8.1398  -15.1085   19.3786 N   0  0  0  0  0  0  0  0  0  0  0  0
    7.1449  -14.1487   18.8933 C   0  0  0  0  0  0  0  0  0  0  0  0
    7.6287  -12.8174   19.4776 C   0  0  0  0  0  0  0  0  0  0  0  0
    8.0596  -13.3035   20.8413 C   0  0  0  0  0  0  0  0  0  0  0  0
    8.8186  -14.5599   20.4881 C   0  0  1  0  0  0  0  0  0  0  0  0
    8.9582  -15.4562   21.6576 C   0  0  0  0  0  0  0  0  0  0  0  0
    7.9790  -16.0761   22.0836 O   0  0  0  0  0  0  0  0  0  0  0  0
   10.2428  -15.5689   22.2557 N   0  0  0  0  0  0  0  0  0  0  0  0
   10.4906  -16.4053   23.4143 C   0  0  1  0  0  0  0  0  0  0  0  0
   10.7313  -17.8193   22.8714 C   0  0  0  0  0  0  0  0  0  0  0  0
   11.0981  -18.8745   24.2843 S   0  0  0  0  0  0  0  0  0  0  0  0
   11.6156  -15.9540   24.2215 C   0  0  0  0  0  0  0  0  0  0  0  0
   11.5784  -16.0227   25.5976 O   0  0  0  0  0  0  0  0  0  0  0  0
   12.6389  -15.4943   23.6721 O   0  0  0  0  0  0  0  0  0  0  0  0
  2  1  1  1
  2  3  1  0
  4  5  2  0
  4  2  1  0
  6  4  1  0
  7  6  1  0
  8  7  1  0
  9  8  1  0
  9 10  1  0
 10  6  1  0
 10 11  1  1
 11 12  2  0
 13 11  1  0
 13 14  1  0
 14 15  1  6
 16 15  1  0
 17 14  1  0
 17 18  1  0
 19 17  2  0
M  END
$$$$
