CEA.pdb
     RDKit          3D

 21 20  0  0  1  0  0  0  0  0999 V2000
   16.8871  -11.2336  -13.7805 N   0  0  0  0  0  0  0  0  0  0  0  0
   17.0449  -10.2744  -14.8316 C   0  0  1  0  0  0  0  0  0  0  0  0
   15.8106  -10.1785  -15.7184 C   0  0  0  0  0  0  0  0  0  0  0  0
   15.5467  -11.7157  -16.6215 S   0  0  0  0  0  0  0  0  0  0  0  0
   17.3039   -8.8971  -14.2989 C   0  0  0  0  0  0  0  0  0  0  0  0
   16.9429   -8.6614  -13.1197 O   0  0  0  0  0  0  0  0  0  0  0  0
   17.9340   -7.9659  -15.1605 N   0  0  0  0  0  0  0  0  0  0  0  0
   18.3433   -6.6789  -14.5596 C   0  0  1  0  0  0  0  0  0  0  0  0
   19.7971   -6.7374  -14.3485 C   0  0  0  0  0  0  0  0  0  0  0  0
   20.4999   -5.5026  -13.9094 C   0  0  0  0  0  0  0  0  0  0  0  0
   21.9559   -5.6463  -13.7168 C   0  0  0  0  0  0  0  0  0  0  0  0
   22.5131   -6.7553  -13.8034 O   0  0  0  0  0  0  0  0  0  0  0  0
   17.7907   -5.6112  -15.3695 C   0  0  0  0  0  0  0  0  0  0  0  0
   18.0749   -5.5932  -16.6176 O   0  0  0  0  0  0  0  0  0  0  0  0
   22.7105   -4.5265  -13.4354 O   0  0  0  0  0  0  0  0  0  0  0  0
   15.3321   -2.8098  -15.2684 C   0  0  0  0  0  0  0  0  0  0  0  0
   16.5736   -3.4574  -15.8373 C   0  0  2  0  0  0  0  0  0  0  0  0
   16.9495   -4.5504  -14.9532 N   0  0  0  0  0  0  0  0  0  0  0  0
   17.6768   -2.4532  -15.7738 C   0  0  0  0  0  0  0  0  0  0  0  0
   18.7369   -2.6677  -14.9145 O   0  0  0  0  0  0  0  0  0  0  0  0
   17.6905   -1.4087  -16.4713 O   0  0  0  0  0  0  0  0  0  0  0  0
  2  1  1  1
  3  2  1  0
  4  3  1  0
  5  7  1  0
  5  2  1  0
  6  5  2  0
  8  9  1  6
  8  7  1  0
 10  9  1  0
 11 10  1  0
 11 15  1  0
 12 11  2  0
 13  8  1  0
 13 18  1  0
 14 13  2  0
 17 18  1  0
 17 16  1  1
 19 17  1  0
 20 19  1  0
 21 19  2  0
M  END
$$$$
