CEA.pdb
     RDKit          3D

 21 20  0  0  1  0  0  0  0  0999 V2000
   18.7387  -12.2850  -15.8329 N   0  0  0  0  0  0  0  0  0  0  0  0
   18.3215  -10.9468  -16.1245 C   0  0  1  0  0  0  0  0  0  0  0  0
   17.2207  -10.4662  -15.1883 C   0  0  0  0  0  0  0  0  0  0  0  0
   15.6865  -11.3642  -15.4853 S   0  0  0  0  0  0  0  0  0  0  0  0
   19.4513   -9.9687  -16.0032 C   0  0  0  0  0  0  0  0  0  0  0  0
   20.3253  -10.2075  -15.1341 O   0  0  0  0  0  0  0  0  0  0  0  0
   19.4507   -8.8512  -16.8736 N   0  0  0  0  0  0  0  0  0  0  0  0
   20.5834   -7.9103  -16.7448 C   0  0  1  0  0  0  0  0  0  0  0  0
   20.8595   -7.3721  -18.0848 C   0  0  0  0  0  0  0  0  0  0  0  0
   21.8791   -6.2980  -18.2212 C   0  0  0  0  0  0  0  0  0  0  0  0
   22.0297   -5.7475  -19.5820 C   0  0  0  0  0  0  0  0  0  0  0  0
   21.3894   -4.7458  -19.9486 O   0  0  0  0  0  0  0  0  0  0  0  0
   20.2817   -6.9921  -15.6645 C   0  0  0  0  0  0  0  0  0  0  0  0
   19.0804   -6.5631  -15.5565 O   0  0  0  0  0  0  0  0  0  0  0  0
   22.8987   -6.3584  -20.4618 O   0  0  0  0  0  0  0  0  0  0  0  0
   21.6125   -5.7042  -12.4582 C   0  0  0  0  0  0  0  0  0  0  0  0
   20.7534   -5.5079  -13.6862 C   0  0  2  0  0  0  0  0  0  0  0  0
   21.1655   -6.4896  -14.6783 N   0  0  0  0  0  0  0  0  0  0  0  0
   21.0737   -4.1637  -14.2517 C   0  0  0  0  0  0  0  0  0  0  0  0
   21.7551   -4.0799  -15.4503 O   0  0  0  0  0  0  0  0  0  0  0  0
   20.7508   -3.0899  -13.6854 O   0  0  0  0  0  0  0  0  0  0  0  0
  2  1  1  1
  3  2  1  0
  4  3  1  0
  5  7  1  0
  5  2  1  0
  6  5  2  0
  8  9  1  6
  8  7  1  0
 10  9  1  0
 11 10  1  0
 11 15  1  0
 12 11  2  0
 13  8  1  0
 13 18  1  0
 14 13  2  0
 17 18  1  0
 17 16  1  1
 19 17  1  0
 20 19  1  0
 21 19  2  0
M  END
$$$$
