CEA.pdb
     RDKit          3D

 21 20  0  0  1  0  0  0  0  0999 V2000
   28.5391  -21.7897  -16.7784 N   0  0  0  0  0  0  0  0  0  0  0  0
   27.9062  -20.7494  -16.0255 C   0  0  1  0  0  0  0  0  0  0  0  0
   27.3064  -19.6711  -16.9182 C   0  0  0  0  0  0  0  0  0  0  0  0
   28.5999  -18.6670  -17.6712 S   0  0  0  0  0  0  0  0  0  0  0  0
   26.7914  -21.2745  -15.1716 C   0  0  0  0  0  0  0  0  0  0  0  0
   26.1801  -22.2893  -15.5874 O   0  0  0  0  0  0  0  0  0  0  0  0
   26.5098  -20.5910  -13.9633 N   0  0  0  0  0  0  0  0  0  0  0  0
   25.4316  -21.1506  -13.1212 C   0  0  1  0  0  0  0  0  0  0  0  0
   25.7659  -20.8454  -11.7224 C   0  0  0  0  0  0  0  0  0  0  0  0
   24.7774  -21.1894  -10.6659 C   0  0  0  0  0  0  0  0  0  0  0  0
   25.1946  -20.8629   -9.2886 C   0  0  0  0  0  0  0  0  0  0  0  0
   26.2488  -20.2421   -9.0624 O   0  0  0  0  0  0  0  0  0  0  0  0
   24.1636  -20.6975  -13.6581 C   0  0  0  0  0  0  0  0  0  0  0  0
   24.0564  -19.4662  -13.9917 O   0  0  0  0  0  0  0  0  0  0  0  0
   24.3972  -21.2554   -8.2339 O   0  0  0  0  0  0  0  0  0  0  0  0
   21.3241  -21.7785  -15.5673 C   0  0  0  0  0  0  0  0  0  0  0  0
   21.7765  -20.8835  -14.4365 C   0  0  2  0  0  0  0  0  0  0  0  0
   22.9884  -21.4585  -13.8723 N   0  0  0  0  0  0  0  0  0  0  0  0
   20.7344  -20.9427  -13.3688 C   0  0  0  0  0  0  0  0  0  0  0  0
   19.5213  -20.3142  -13.5732 O   0  0  0  0  0  0  0  0  0  0  0  0
   20.9065  -21.5430  -12.2789 O   0  0  0  0  0  0  0  0  0  0  0  0
  2  1  1  6
  3  2  1  0
  4  3  1  0
  5  7  1  0
  5  2  1  0
  6  5  2  0
  8  9  1  1
  8  7  1  0
 10  9  1  0
 11 10  1  0
 11 15  1  0
 12 11  2  0
 13  8  1  0
 13 18  1  0
 14 13  2  0
 17 18  1  0
 17 16  1  6
 19 17  1  0
 20 19  1  0
 21 19  2  0
M  END
$$$$
