CEA.pdb
     RDKit          3D

 21 20  0  0  1  0  0  0  0  0999 V2000
   15.1718  -11.9470  -10.5051 N   0  0  0  0  0  0  0  0  0  0  0  0
   14.6840  -10.6014  -10.5412 C   0  0  1  0  0  0  0  0  0  0  0  0
   13.5807  -10.3577   -9.5202 C   0  0  0  0  0  0  0  0  0  0  0  0
   12.1721  -11.4399   -9.8249 S   0  0  0  0  0  0  0  0  0  0  0  0
   15.7670   -9.6049  -10.2551 C   0  0  0  0  0  0  0  0  0  0  0  0
   16.6312   -9.9265   -9.4030 O   0  0  0  0  0  0  0  0  0  0  0  0
   15.7370   -8.3787  -10.9636 N   0  0  0  0  0  0  0  0  0  0  0  0
   16.8372   -7.4296  -10.6924 C   0  0  1  0  0  0  0  0  0  0  0  0
   17.8791   -7.6676  -11.7020 C   0  0  0  0  0  0  0  0  0  0  0  0
   19.0707   -6.7778  -11.7144 C   0  0  0  0  0  0  0  0  0  0  0  0
   20.0904   -7.1118  -12.7274 C   0  0  0  0  0  0  0  0  0  0  0  0
   19.9328   -8.0624  -13.5144 O   0  0  0  0  0  0  0  0  0  0  0  0
   16.2643   -6.1038  -10.5694 C   0  0  0  0  0  0  0  0  0  0  0  0
   15.6140   -5.6338  -11.5670 O   0  0  0  0  0  0  0  0  0  0  0  0
   21.2397   -6.3526  -12.8000 O   0  0  0  0  0  0  0  0  0  0  0  0
   15.7105   -3.3724   -8.0725 C   0  0  0  0  0  0  0  0  0  0  0  0
   15.7934   -3.8760   -9.4951 C   0  0  2  0  0  0  0  0  0  0  0  0
   16.3273   -5.2292   -9.4571 N   0  0  0  0  0  0  0  0  0  0  0  0
   16.7978   -3.0368  -10.2138 C   0  0  0  0  0  0  0  0  0  0  0  0
   16.4785   -1.7335  -10.5419 O   0  0  0  0  0  0  0  0  0  0  0  0
   17.9343   -3.4611  -10.5399 O   0  0  0  0  0  0  0  0  0  0  0  0
  2  1  1  1
  3  2  1  0
  4  3  1  0
  5  7  1  0
  5  2  1  0
  6  5  2  0
  8  9  1  6
  8  7  1  0
 10  9  1  0
 11 10  1  0
 11 15  1  0
 12 11  2  0
 13  8  1  0
 13 18  1  0
 14 13  2  0
 17 18  1  0
 17 16  1  1
 19 17  1  0
 20 19  1  0
 21 19  2  0
M  END
$$$$
