CEA.pdb
     RDKit          3D

 21 20  0  0  1  0  0  0  0  0999 V2000
   17.3191  -11.9936  -17.4000 N   0  0  0  0  0  0  0  0  0  0  0  0
   16.9602  -10.6668  -16.9993 C   0  0  1  0  0  0  0  0  0  0  0  0
   16.2670  -10.6387  -15.6436 C   0  0  0  0  0  0  0  0  0  0  0  0
   14.7096  -11.5441  -15.6989 S   0  0  0  0  0  0  0  0  0  0  0  0
   18.1573   -9.7706  -16.8927 C   0  0  0  0  0  0  0  0  0  0  0  0
   19.2693  -10.3202  -16.6984 O   0  0  0  0  0  0  0  0  0  0  0  0
   17.9481   -8.3753  -17.0181 N   0  0  0  0  0  0  0  0  0  0  0  0
   19.1555   -7.5339  -17.1564 C   0  0  1  0  0  0  0  0  0  0  0  0
   18.7945   -6.3861  -18.0011 C   0  0  0  0  0  0  0  0  0  0  0  0
   19.8174   -5.3339  -18.2424 C   0  0  0  0  0  0  0  0  0  0  0  0
   19.3836   -4.2289  -19.1189 C   0  0  0  0  0  0  0  0  0  0  0  0
   19.4892   -3.0415  -18.7627 O   0  0  0  0  0  0  0  0  0  0  0  0
   19.6876   -7.2934  -15.8296 C   0  0  0  0  0  0  0  0  0  0  0  0
   18.8783   -6.9025  -14.9180 O   0  0  0  0  0  0  0  0  0  0  0  0
   18.8511   -4.5223  -20.3570 O   0  0  0  0  0  0  0  0  0  0  0  0
   22.5702   -8.0779  -13.6720 C   0  0  0  0  0  0  0  0  0  0  0  0
   21.4383   -7.1413  -14.0266 C   0  0  2  0  0  0  0  0  0  0  0  0
   21.0262   -7.4386  -15.3903 N   0  0  0  0  0  0  0  0  0  0  0  0
   21.9867   -5.7526  -14.0355 C   0  0  0  0  0  0  0  0  0  0  0  0
   22.2862   -5.1367  -12.8358 O   0  0  0  0  0  0  0  0  0  0  0  0
   22.1927   -5.1064  -15.0929 O   0  0  0  0  0  0  0  0  0  0  0  0
  2  1  1  1
  3  2  1  0
  4  3  1  0
  5  7  1  0
  5  2  1  0
  6  5  2  0
  8  9  1  1
  8  7  1  0
 10  9  1  0
 11 10  1  0
 11 15  1  0
 12 11  2  0
 13  8  1  0
 13 18  1  0
 14 13  2  0
 17 18  1  0
 17 16  1  6
 19 17  1  0
 20 19  1  0
 21 19  2  0
M  END
$$$$
