CEA.pdb
     RDKit          3D

 21 20  0  0  1  0  0  0  0  0999 V2000
   14.5260  -13.8079  -11.9077 N   0  0  0  0  0  0  0  0  0  0  0  0
   13.9919  -12.4844  -11.7937 C   0  0  1  0  0  0  0  0  0  0  0  0
   12.6721  -12.4558  -11.0345 C   0  0  0  0  0  0  0  0  0  0  0  0
   11.4678  -13.5588  -11.7968 S   0  0  0  0  0  0  0  0  0  0  0  0
   14.9278  -11.5629  -11.0707 C   0  0  0  0  0  0  0  0  0  0  0  0
   15.5248  -12.0240  -10.0671 O   0  0  0  0  0  0  0  0  0  0  0  0
   15.0701  -10.2450  -11.5700 N   0  0  0  0  0  0  0  0  0  0  0  0
   16.1106   -9.4059  -10.9388 C   0  0  1  0  0  0  0  0  0  0  0  0
   17.1506   -9.1646  -11.9495 C   0  0  0  0  0  0  0  0  0  0  0  0
   18.2512   -8.2195  -11.6225 C   0  0  0  0  0  0  0  0  0  0  0  0
   19.1379   -7.8770  -12.7513 C   0  0  0  0  0  0  0  0  0  0  0  0
   20.0871   -7.0851  -12.6105 O   0  0  0  0  0  0  0  0  0  0  0  0
   15.4550   -8.2724  -10.3170 C   0  0  0  0  0  0  0  0  0  0  0  0
   14.5077   -7.6982  -10.9587 O   0  0  0  0  0  0  0  0  0  0  0  0
   18.9063   -8.4481  -13.9852 O   0  0  0  0  0  0  0  0  0  0  0  0
   15.1510   -6.4891   -7.0638 C   0  0  0  0  0  0  0  0  0  0  0  0
   15.0440   -6.5053   -8.5713 C   0  0  2  0  0  0  0  0  0  0  0  0
   15.7287   -7.6958   -9.0526 N   0  0  0  0  0  0  0  0  0  0  0  0
   15.8055   -5.3309   -9.0911 C   0  0  0  0  0  0  0  0  0  0  0  0
   15.2791   -4.0629   -8.9380 O   0  0  0  0  0  0  0  0  0  0  0  0
   16.9159   -5.4381   -9.6686 O   0  0  0  0  0  0  0  0  0  0  0  0
  2  1  1  1
  3  2  1  0
  4  3  1  0
  5  7  1  0
  5  2  1  0
  6  5  2  0
  8  9  1  6
  8  7  1  0
 10  9  1  0
 11 10  1  0
 11 15  1  0
 12 11  2  0
 13  8  1  0
 13 18  1  0
 14 13  2  0
 17 18  1  0
 17 16  1  1
 19 17  1  0
 20 19  1  0
 21 19  2  0
M  END
$$$$
