CEA.pdb
     RDKit          3D

 21 20  0  0  1  0  0  0  0  0999 V2000
   16.6209  -28.7734   -8.9211 N   0  0  0  0  0  0  0  0  0  0  0  0
   15.8972  -28.5785   -7.7012 C   0  0  1  0  0  0  0  0  0  0  0  0
   15.5842  -29.8921   -6.9972 C   0  0  0  0  0  0  0  0  0  0  0  0
   14.5024  -30.9209   -8.0070 S   0  0  0  0  0  0  0  0  0  0  0  0
   16.6612  -27.7350   -6.7252 C   0  0  0  0  0  0  0  0  0  0  0  0
   17.9139  -27.7575   -6.8060 O   0  0  0  0  0  0  0  0  0  0  0  0
   15.9179  -26.9775   -5.7871 N   0  0  0  0  0  0  0  0  0  0  0  0
   16.6824  -26.0398   -4.9380 C   0  0  1  0  0  0  0  0  0  0  0  0
   15.7885  -24.9201   -4.6081 C   0  0  0  0  0  0  0  0  0  0  0  0
   15.0797  -24.9403   -3.3009 C   0  0  0  0  0  0  0  0  0  0  0  0
   14.1931  -23.7872   -3.0520 C   0  0  0  0  0  0  0  0  0  0  0  0
   13.0225  -23.9443   -2.6609 O   0  0  0  0  0  0  0  0  0  0  0  0
   17.2860  -26.8008   -3.8620 C   0  0  0  0  0  0  0  0  0  0  0  0
   16.6220  -27.7784   -3.3696 O   0  0  0  0  0  0  0  0  0  0  0  0
   14.6755  -22.5116   -3.2583 O   0  0  0  0  0  0  0  0  0  0  0  0
   20.4202  -26.9430   -1.7971 C   0  0  0  0  0  0  0  0  0  0  0  0
   19.0535  -27.4535   -2.1920 C   0  0  2  0  0  0  0  0  0  0  0  0
   18.5541  -26.6038   -3.2627 N   0  0  0  0  0  0  0  0  0  0  0  0
   18.1429  -27.2560   -1.0252 C   0  0  0  0  0  0  0  0  0  0  0  0
   18.1300  -28.1946   -0.0118 O   0  0  0  0  0  0  0  0  0  0  0  0
   17.3771  -26.2662   -0.9164 O   0  0  0  0  0  0  0  0  0  0  0  0
  2  1  1  6
  3  2  1  0
  4  3  1  0
  5  7  1  0
  5  2  1  0
  6  5  2  0
  8  9  1  1
  8  7  1  0
 10  9  1  0
 11 10  1  0
 11 15  1  0
 12 11  2  0
 13  8  1  0
 13 18  1  0
 14 13  2  0
 17 18  1  0
 17 16  1  1
 19 17  1  0
 20 19  1  0
 21 19  2  0
M  END
$$$$
