CEA.pdb
     RDKit          3D

 21 20  0  0  1  0  0  0  0  0999 V2000
   26.1139  -13.8160  -15.7878 N   0  0  0  0  0  0  0  0  0  0  0  0
   25.2321  -14.8268  -16.2884 C   0  0  1  0  0  0  0  0  0  0  0  0
   25.4240  -15.0768  -17.7783 C   0  0  0  0  0  0  0  0  0  0  0  0
   27.1424  -15.4764  -18.1470 S   0  0  0  0  0  0  0  0  0  0  0  0
   25.4378  -16.1417  -15.5982 C   0  0  0  0  0  0  0  0  0  0  0  0
   26.5055  -16.2904  -14.9548 O   0  0  0  0  0  0  0  0  0  0  0  0
   24.4174  -17.1164  -15.7216 N   0  0  0  0  0  0  0  0  0  0  0  0
   24.6065  -18.3729  -14.9663 C   0  0  1  0  0  0  0  0  0  0  0  0
   23.3016  -18.7429  -14.3990 C   0  0  0  0  0  0  0  0  0  0  0  0
   22.4028  -19.6168  -15.1992 C   0  0  0  0  0  0  0  0  0  0  0  0
   21.0875  -19.8885  -14.5879 C   0  0  0  0  0  0  0  0  0  0  0  0
   20.2019  -19.0157  -14.5449 O   0  0  0  0  0  0  0  0  0  0  0  0
   25.2930  -19.3143  -15.8287 C   0  0  0  0  0  0  0  0  0  0  0  0
   24.9314  -19.3821  -17.0548 O   0  0  0  0  0  0  0  0  0  0  0  0
   20.8388  -21.1360  -14.0546 O   0  0  0  0  0  0  0  0  0  0  0  0
   28.3476  -21.4565  -15.8806 C   0  0  0  0  0  0  0  0  0  0  0  0
   27.0284  -21.0200  -16.4752 C   0  0  2  0  0  0  0  0  0  0  0  0
   26.3460  -20.1979  -15.4872 N   0  0  0  0  0  0  0  0  0  0  0  0
   26.1934  -22.2426  -16.6688 C   0  0  0  0  0  0  0  0  0  0  0  0
   26.5847  -23.1880  -17.5969 O   0  0  0  0  0  0  0  0  0  0  0  0
   25.1385  -22.4587  -16.0220 O   0  0  0  0  0  0  0  0  0  0  0  0
  2  1  1  1
  3  2  1  0
  4  3  1  0
  5  7  1  0
  5  2  1  0
  6  5  2  0
  8  9  1  6
  8  7  1  0
 10  9  1  0
 11 10  1  0
 11 15  1  0
 12 11  2  0
 13  8  1  0
 13 18  1  0
 14 13  2  0
 17 18  1  0
 17 16  1  1
 19 17  1  0
 20 19  1  0
 21 19  2  0
M  END
$$$$
