CEA.pdb
     RDKit          3D

 21 20  0  0  1  0  0  0  0  0999 V2000
   16.6696  -11.4278  -15.3819 N   0  0  0  0  0  0  0  0  0  0  0  0
   16.5416  -10.1059  -14.8471 C   0  0  1  0  0  0  0  0  0  0  0  0
   16.2470  -10.1115  -13.3530 C   0  0  0  0  0  0  0  0  0  0  0  0
   14.6627  -10.9007  -13.0130 S   0  0  0  0  0  0  0  0  0  0  0  0
   17.7913   -9.3002  -15.0394 C   0  0  0  0  0  0  0  0  0  0  0  0
   18.8861   -9.8938  -14.8801 O   0  0  0  0  0  0  0  0  0  0  0  0
   17.6470   -7.9343  -15.3853 N   0  0  0  0  0  0  0  0  0  0  0  0
   18.8677   -7.2317  -15.8337 C   0  0  1  0  0  0  0  0  0  0  0  0
   18.5777   -6.6486  -17.1517 C   0  0  0  0  0  0  0  0  0  0  0  0
   18.6778   -7.5223  -18.3510 C   0  0  0  0  0  0  0  0  0  0  0  0
   20.0386   -7.6766  -18.9008 C   0  0  0  0  0  0  0  0  0  0  0  0
   20.8331   -6.7199  -18.9380 O   0  0  0  0  0  0  0  0  0  0  0  0
   19.3042   -6.3626  -14.7587 C   0  0  0  0  0  0  0  0  0  0  0  0
   18.4276   -5.6259  -14.1863 O   0  0  0  0  0  0  0  0  0  0  0  0
   20.4335   -8.9074  -19.3820 O   0  0  0  0  0  0  0  0  0  0  0  0
   22.1089   -5.9730  -12.3804 C   0  0  0  0  0  0  0  0  0  0  0  0
   20.9031   -5.3856  -13.0770 C   0  0  2  0  0  0  0  0  0  0  0  0
   20.6128   -6.2144  -14.2375 N   0  0  0  0  0  0  0  0  0  0  0  0
   21.2913   -4.0402  -13.5951 C   0  0  0  0  0  0  0  0  0  0  0  0
   21.3742   -3.8396  -14.9593 O   0  0  0  0  0  0  0  0  0  0  0  0
   21.5501   -3.0675  -12.8435 O   0  0  0  0  0  0  0  0  0  0  0  0
  2  1  1  1
  3  2  1  0
  4  3  1  0
  5  7  1  0
  5  2  1  0
  6  5  2  0
  8  9  1  6
  8  7  1  0
 10  9  1  0
 11 10  1  0
 11 15  1  0
 12 11  2  0
 13  8  1  0
 13 18  1  0
 14 13  2  0
 17 18  1  0
 17 16  1  6
 19 17  1  0
 20 19  1  0
 21 19  2  0
M  END
$$$$
