NRM.pdb
     RDKit          3D

 28 27  0  0  1  0  0  0  0  0999 V2000
   30.3659  -19.6449  -17.7438 N   0  0  0  0  0  0  0  0  0  0  0  0
   29.4663  -18.5525  -17.7160 C   0  0  0  0  0  0  0  0  0  0  0  0
   29.5866  -17.6845  -18.6123 O   0  0  0  0  0  0  0  0  0  0  0  0
   28.4213  -18.4050  -16.6970 C   0  0  0  0  0  0  0  0  0  0  0  0
   28.4952  -19.5589  -15.7365 C   0  0  2  0  0  0  0  0  0  0  0  0
   27.9300  -20.7369  -16.3751 N   0  0  0  0  0  0  0  0  0  0  0  0
   27.7204  -19.3137  -14.4951 C   0  0  0  0  0  0  0  0  0  0  0  0
   27.9803  -18.3324  -13.7541 O   0  0  0  0  0  0  0  0  0  0  0  0
   19.2153  -19.4796  -13.6589 N   0  0  0  0  0  0  0  0  0  0  0  0
   19.5972  -20.8695  -13.6852 C   0  0  0  0  0  0  0  0  0  0  0  0
   18.7097  -21.7870  -13.8905 N   0  0  0  0  0  0  0  0  0  0  0  0
   20.9402  -21.2514  -13.4886 N   0  0  0  0  0  0  0  0  0  0  0  0
   21.8973  -20.1517  -13.1646 C   0  0  0  0  0  0  0  0  0  0  0  0
   23.2316  -20.7785  -13.2005 C   0  0  0  0  0  0  0  0  0  0  0  0
   24.3773  -20.1538  -13.8480 C   0  0  0  0  0  0  0  0  0  0  0  0
   25.6152  -19.7668  -13.1427 C   0  0  2  0  0  0  0  0  0  0  0  0
   26.6883  -20.1769  -14.1364 N   0  0  0  0  0  0  0  0  0  0  0  0
   25.9865  -20.4602  -11.9134 C   0  0  0  0  0  0  0  0  0  0  0  0
   26.3779  -21.6381  -11.8895 O   0  0  0  0  0  0  0  0  0  0  0  0
   18.9757  -22.7914  -13.8511 C   0  0  0  0  0  0  0  0  0  0  0  0
   29.4549  -18.8153   -6.9190 S   0  0  0  0  0  0  0  0  0  0  0  0
   28.0573  -19.4482   -5.9892 C   0  0  0  0  0  0  0  0  0  0  0  0
   27.0044  -20.4523   -7.0803 C   0  0  0  0  0  0  0  0  0  0  0  0
   26.9097  -19.8187   -8.4391 C   0  0  1  0  0  0  0  0  0  0  0  0
   26.0961  -20.6311   -9.3886 N   0  0  0  0  0  0  0  0  0  0  0  0
   25.9281  -19.8310  -10.6213 C   0  0  0  0  0  0  0  0  0  0  0  0
   24.7469  -20.8621   -8.8520 O   0  0  0  0  0  0  0  0  0  0  0  0
   24.4511  -21.8257   -7.9084 O   0  0  0  0  0  0  0  0  0  0  0  0
  1  2  1  0
  2  3  2  0
  4  2  1  0
  5  4  1  0
  5  6  1  6
  7  8  2  0
  7  5  1  0
  9 10  1  0
 10 12  1  0
 11 10  2  0
 12 13  1  0
 14 13  1  0
 15 14  1  0
 16 15  1  6
 16 17  1  0
 17  7  1  0
 18 19  2  0
 18 16  1  0
 20 21  1  0
 22 21  1  0
 24 23  1  6
 23 22  1  0
 24 25  1  0
 25 18  1  0
 26 24  1  0
 27 26  1  0
 28 26  2  0
M  END
$$$$
