NRM.pdb
     RDKit          3D

 28 27  0  0  1  0  0  0  0  0999 V2000
   28.5862  -23.5336  -16.7957 N   0  0  0  0  0  0  0  0  0  0  0  0
   29.3196  -22.4858  -16.1895 C   0  0  0  0  0  0  0  0  0  0  0  0
   30.5685  -22.5247  -16.2887 O   0  0  0  0  0  0  0  0  0  0  0  0
   28.6821  -21.3806  -15.4653 C   0  0  0  0  0  0  0  0  0  0  0  0
   27.1932  -21.5867  -15.4514 C   0  0  2  0  0  0  0  0  0  0  0  0
   26.6446  -21.1247  -16.7166 N   0  0  0  0  0  0  0  0  0  0  0  0
   26.5246  -20.8187  -14.3722 C   0  0  0  0  0  0  0  0  0  0  0  0
   26.7681  -19.5976  -14.2017 O   0  0  0  0  0  0  0  0  0  0  0  0
   18.7633  -22.0278  -13.5056 N   0  0  0  0  0  0  0  0  0  0  0  0
   19.8868  -21.9743  -14.4075 C   0  0  0  0  0  0  0  0  0  0  0  0
   19.8808  -22.6657  -15.5001 N   0  0  0  0  0  0  0  0  0  0  0  0
   21.0074  -21.1700  -14.1154 N   0  0  0  0  0  0  0  0  0  0  0  0
   20.9312  -20.3648  -12.8599 C   0  0  0  0  0  0  0  0  0  0  0  0
   22.3308  -20.0512  -12.5173 C   0  0  0  0  0  0  0  0  0  0  0  0
   23.4419  -20.9249  -12.8695 C   0  0  0  0  0  0  0  0  0  0  0  0
   24.8425  -20.6822  -12.4702 C   0  0  2  0  0  0  0  0  0  0  0  0
   25.6126  -21.4502  -13.5305 N   0  0  0  0  0  0  0  0  0  0  0  0
   25.3334  -21.2290  -11.2094 C   0  0  0  0  0  0  0  0  0  0  0  0
   25.5787  -22.4343  -11.0413 O   0  0  0  0  0  0  0  0  0  0  0  0
   20.6921  -22.6267  -16.1492 C   0  0  0  0  0  0  0  0  0  0  0  0
   28.7989  -18.3811   -6.7567 S   0  0  0  0  0  0  0  0  0  0  0  0
   27.8436  -19.3596   -5.5956 C   0  0  0  0  0  0  0  0  0  0  0  0
   26.7981  -20.5363   -6.5064 C   0  0  0  0  0  0  0  0  0  0  0  0
   26.6504  -20.1019   -7.9368 C   0  0  1  0  0  0  0  0  0  0  0  0
   25.7909  -21.0302   -8.7260 N   0  0  0  0  0  0  0  0  0  0  0  0
   25.5739  -20.4105  -10.0514 C   0  0  0  0  0  0  0  0  0  0  0  0
   24.4652  -21.1664   -8.1051 O   0  0  0  0  0  0  0  0  0  0  0  0
   24.2138  -21.9515   -6.9974 O   0  0  0  0  0  0  0  0  0  0  0  0
  1  2  1  0
  2  3  2  0
  4  2  1  0
  5  4  1  0
  5  6  1  6
  7  8  2  0
  7  5  1  0
  9 10  1  0
 10 12  1  0
 11 10  2  0
 12 13  1  0
 14 13  1  0
 15 14  1  0
 16 15  1  6
 16 17  1  0
 17  7  1  0
 18 19  2  0
 18 16  1  0
 20 21  1  0
 22 21  1  0
 24 23  1  6
 23 22  1  0
 24 25  1  0
 25 18  1  0
 26 24  1  0
 27 26  1  0
 28 26  2  0
M  END
$$$$
