NRM.pdb
     RDKit          3D

 28 27  0  0  1  0  0  0  0  0999 V2000
   18.2462  -24.3093  -13.8478 N   0  0  0  0  0  0  0  0  0  0  0  0
   17.6866  -23.1613  -14.4579 C   0  0  0  0  0  0  0  0  0  0  0  0
   16.6739  -23.3274  -15.1775 O   0  0  0  0  0  0  0  0  0  0  0  0
   18.2392  -21.8139  -14.2807 C   0  0  0  0  0  0  0  0  0  0  0  0
   19.4142  -21.8760  -13.3453 C   0  0  2  0  0  0  0  0  0  0  0  0
   18.9515  -21.6055  -11.9933 N   0  0  0  0  0  0  0  0  0  0  0  0
   20.4506  -20.8648  -13.6690 C   0  0  0  0  0  0  0  0  0  0  0  0
   20.1563  -19.6472  -13.7703 O   0  0  0  0  0  0  0  0  0  0  0  0
   28.4347  -21.0626  -15.3042 N   0  0  0  0  0  0  0  0  0  0  0  0
   27.6701  -22.2688  -15.1068 C   0  0  0  0  0  0  0  0  0  0  0  0
   27.8444  -23.2871  -15.8841 N   0  0  0  0  0  0  0  0  0  0  0  0
   26.7228  -22.3590  -14.0664 N   0  0  0  0  0  0  0  0  0  0  0  0
   26.5921  -21.1581  -13.1883 C   0  0  0  0  0  0  0  0  0  0  0  0
   25.4212  -20.4268  -13.7066 C   0  0  0  0  0  0  0  0  0  0  0  0
   24.0607  -20.9337  -13.5873 C   0  0  0  0  0  0  0  0  0  0  0  0
   22.8732  -20.2499  -14.1369 C   0  0  2  0  0  0  0  0  0  0  0  0
   21.7714  -21.2597  -13.8654 N   0  0  0  0  0  0  0  0  0  0  0  0
   22.7863  -20.0078  -15.5734 C   0  0  0  0  0  0  0  0  0  0  0  0
   22.5277  -20.8989  -16.3982 O   0  0  0  0  0  0  0  0  0  0  0  0
   27.2417  -24.1289  -15.7879 C   0  0  0  0  0  0  0  0  0  0  0  0
   22.9051  -14.5527  -21.3392 S   0  0  0  0  0  0  0  0  0  0  0  0
   22.8902  -14.9187  -19.5830 C   0  0  0  0  0  0  0  0  0  0  0  0
   22.8324  -16.7196  -19.3366 C   0  0  0  0  0  0  0  0  0  0  0  0
   22.8800  -17.0460  -17.8711 C   0  0  1  0  0  0  0  0  0  0  0  0
   22.8952  -18.5151  -17.6170 N   0  0  0  0  0  0  0  0  0  0  0  0
   22.9952  -18.7085  -16.1540 C   0  0  0  0  0  0  0  0  0  0  0  0
   24.0937  -19.1323  -18.2040 O   0  0  0  0  0  0  0  0  0  0  0  0
   24.1039  -19.7809  -19.4229 O   0  0  0  0  0  0  0  0  0  0  0  0
  1  2  1  0
  2  3  2  0
  4  2  1  0
  5  4  1  0
  5  6  1  1
  7  8  2  0
  7  5  1  0
  9 10  1  0
 10 12  1  0
 11 10  2  0
 12 13  1  0
 14 13  1  0
 15 14  1  0
 16 15  1  6
 16 17  1  0
 17  7  1  0
 18 19  2  0
 18 16  1  0
 20 21  1  0
 22 21  1  0
 24 23  1  1
 23 22  1  0
 24 25  1  0
 25 18  1  0
 26 24  1  0
 27 26  1  0
 28 26  2  0
M  END
$$$$
