NRM.pdb
     RDKit          3D

 28 27  0  0  1  0  0  0  0  0999 V2000
   21.9941  -24.1531  -16.2248 N   0  0  0  0  0  0  0  0  0  0  0  0
   22.0267  -24.3876  -14.8294 C   0  0  0  0  0  0  0  0  0  0  0  0
   20.9864  -24.8413  -14.2973 O   0  0  0  0  0  0  0  0  0  0  0  0
   23.2098  -24.1236  -14.0032 C   0  0  0  0  0  0  0  0  0  0  0  0
   24.3218  -23.6100  -14.8744 C   0  0  2  0  0  0  0  0  0  0  0  0
   24.8856  -24.7241  -15.6200 N   0  0  0  0  0  0  0  0  0  0  0  0
   25.4231  -23.0012  -14.0881 C   0  0  0  0  0  0  0  0  0  0  0  0
   26.3646  -23.7043  -13.6427 O   0  0  0  0  0  0  0  0  0  0  0  0
   27.5687  -16.9011  -17.8390 N   0  0  0  0  0  0  0  0  0  0  0  0
   26.3329  -17.2981  -17.2114 C   0  0  0  0  0  0  0  0  0  0  0  0
   25.2166  -17.2187  -17.8589 N   0  0  0  0  0  0  0  0  0  0  0  0
   26.3199  -17.7783  -15.8858 N   0  0  0  0  0  0  0  0  0  0  0  0
   27.6500  -17.9097  -15.2196 C   0  0  0  0  0  0  0  0  0  0  0  0
   27.6297  -19.2365  -14.5762 C   0  0  0  0  0  0  0  0  0  0  0  0
   26.6012  -19.6339  -13.6243 C   0  0  0  0  0  0  0  0  0  0  0  0
   26.5168  -20.9741  -13.0108 C   0  0  2  0  0  0  0  0  0  0  0  0
   25.4231  -21.6320  -13.8344 N   0  0  0  0  0  0  0  0  0  0  0  0
   26.0507  -21.1040  -11.6340 C   0  0  0  0  0  0  0  0  0  0  0  0
   24.8916  -21.4351  -11.3374 O   0  0  0  0  0  0  0  0  0  0  0  0
   24.3245  -17.4933  -17.4007 C   0  0  0  0  0  0  0  0  0  0  0  0
   27.6254  -19.4048   -4.0591 S   0  0  0  0  0  0  0  0  0  0  0  0
   28.1512  -19.3658   -5.7738 C   0  0  0  0  0  0  0  0  0  0  0  0
   26.8653  -20.1102   -6.8223 C   0  0  0  0  0  0  0  0  0  0  0  0
   27.3667  -20.2647   -8.2300 C   0  0  1  0  0  0  0  0  0  0  0  0
   26.3529  -20.8880   -9.1284 N   0  0  0  0  0  0  0  0  0  0  0  0
   26.9022  -20.8568  -10.5013 C   0  0  0  0  0  0  0  0  0  0  0  0
   25.1184  -20.0897   -9.1528 O   0  0  0  0  0  0  0  0  0  0  0  0
   24.9478  -18.9644   -9.9346 O   0  0  0  0  0  0  0  0  0  0  0  0
  1  2  1  0
  2  3  2  0
  4  2  1  0
  5  4  1  0
  5  6  1  1
  7  8  2  0
  7  5  1  0
  9 10  1  0
 10 12  1  0
 11 10  2  0
 12 13  1  0
 14 13  1  0
 15 14  1  0
 16 15  1  6
 16 17  1  0
 17  7  1  0
 18 19  2  0
 18 16  1  0
 20 21  1  0
 22 21  1  0
 24 23  1  1
 23 22  1  0
 24 25  1  0
 25 18  1  0
 26 24  1  0
 27 26  1  0
 28 26  2  0
M  END
$$$$
