NRM.pdb
     RDKit          3D

 28 27  0  0  1  0  0  0  0  0999 V2000
   19.4584  -22.2137  -14.0579 N   0  0  0  0  0  0  0  0  0  0  0  0
   19.8049  -21.8865  -12.7252 C   0  0  0  0  0  0  0  0  0  0  0  0
   19.0680  -22.3296  -11.8132 O   0  0  0  0  0  0  0  0  0  0  0  0
   20.9711  -21.0649  -12.3826 C   0  0  0  0  0  0  0  0  0  0  0  0
   21.6508  -20.6132  -13.6449 C   0  0  2  0  0  0  0  0  0  0  0  0
   22.2445  -21.7697  -14.2969 N   0  0  0  0  0  0  0  0  0  0  0  0
   22.7426  -19.6427  -13.3848 C   0  0  0  0  0  0  0  0  0  0  0  0
   22.5221  -18.5730  -12.7631 O   0  0  0  0  0  0  0  0  0  0  0  0
   30.7507  -22.0849  -11.6087 N   0  0  0  0  0  0  0  0  0  0  0  0
   29.7827  -21.5059  -10.7108 C   0  0  0  0  0  0  0  0  0  0  0  0
   29.8928  -21.6758   -9.4338 N   0  0  0  0  0  0  0  0  0  0  0  0
   28.7032  -20.7468  -11.2073 N   0  0  0  0  0  0  0  0  0  0  0  0
   28.7368  -20.4294  -12.6662 C   0  0  0  0  0  0  0  0  0  0  0  0
   27.6331  -19.4749  -12.8789 C   0  0  0  0  0  0  0  0  0  0  0  0
   26.2958  -19.8941  -13.2762 C   0  0  0  0  0  0  0  0  0  0  0  0
   25.1863  -18.9609  -13.5556 C   0  0  2  0  0  0  0  0  0  0  0  0
   24.0339  -19.9111  -13.8315 N   0  0  0  0  0  0  0  0  0  0  0  0
   25.2422  -18.1164  -14.7445 C   0  0  0  0  0  0  0  0  0  0  0  0
   24.8680  -18.4960  -15.8657 O   0  0  0  0  0  0  0  0  0  0  0  0
   29.1655  -21.3031   -8.7911 C   0  0  0  0  0  0  0  0  0  0  0  0
   24.2918  -12.1906  -18.6889 S   0  0  0  0  0  0  0  0  0  0  0  0
   24.2421  -13.1776  -17.1917 C   0  0  0  0  0  0  0  0  0  0  0  0
   25.9379  -13.5579  -16.6564 C   0  0  0  0  0  0  0  0  0  0  0  0
   25.9156  -14.5130  -15.4970 C   0  0  1  0  0  0  0  0  0  0  0  0
   25.6975  -15.9237  -15.9280 N   0  0  0  0  0  0  0  0  0  0  0  0
   25.7392  -16.7670  -14.7135 C   0  0  0  0  0  0  0  0  0  0  0  0
   26.7961  -16.3794  -16.7924 O   0  0  0  0  0  0  0  0  0  0  0  0
   26.7201  -16.4240  -18.1704 O   0  0  0  0  0  0  0  0  0  0  0  0
  1  2  1  0
  2  3  2  0
  4  2  1  0
  5  4  1  0
  5  6  1  1
  7  8  2  0
  7  5  1  0
  9 10  1  0
 10 12  1  0
 11 10  2  0
 12 13  1  0
 14 13  1  0
 15 14  1  0
 16 15  1  6
 16 17  1  0
 17  7  1  0
 18 19  2  0
 18 16  1  0
 20 21  1  0
 22 21  1  0
 24 23  1  1
 23 22  1  0
 24 25  1  0
 25 18  1  0
 26 24  1  0
 27 26  1  0
 28 26  2  0
M  END
$$$$
