NRM.pdb
     RDKit          3D

 28 27  0  0  1  0  0  0  0  0999 V2000
   17.8425  -22.2325  -13.0538 N   0  0  0  0  0  0  0  0  0  0  0  0
   17.6990  -21.9169  -11.6816 C   0  0  0  0  0  0  0  0  0  0  0  0
   17.8595  -20.7198  -11.3463 O   0  0  0  0  0  0  0  0  0  0  0  0
   17.3759  -22.9203  -10.6614 C   0  0  0  0  0  0  0  0  0  0  0  0
   17.2031  -24.2613  -11.3182 C   0  0  2  0  0  0  0  0  0  0  0  0
   15.9098  -24.2945  -11.9825 N   0  0  0  0  0  0  0  0  0  0  0  0
   17.2280  -25.3783  -10.3418 C   0  0  0  0  0  0  0  0  0  0  0  0
   16.2337  -25.6216   -9.6127 O   0  0  0  0  0  0  0  0  0  0  0  0
   23.5985  -30.0629   -8.6368 N   0  0  0  0  0  0  0  0  0  0  0  0
   22.6805  -31.0836   -8.1962 C   0  0  0  0  0  0  0  0  0  0  0  0
   23.0034  -31.8794   -7.2297 N   0  0  0  0  0  0  0  0  0  0  0  0
   21.4193  -31.2314   -8.8090 N   0  0  0  0  0  0  0  0  0  0  0  0
   21.0619  -30.2080   -9.8362 C   0  0  0  0  0  0  0  0  0  0  0  0
   20.0782  -29.3282   -9.1783 C   0  0  0  0  0  0  0  0  0  0  0  0
   19.4551  -28.1992   -9.8558 C   0  0  0  0  0  0  0  0  0  0  0  0
   18.4261  -27.3345   -9.2449 C   0  0  2  0  0  0  0  0  0  0  0  0
   18.3642  -26.1745  -10.2235 N   0  0  0  0  0  0  0  0  0  0  0  0
   18.6950  -26.6995   -7.9587 C   0  0  0  0  0  0  0  0  0  0  0  0
   19.3566  -25.6556   -7.8415 O   0  0  0  0  0  0  0  0  0  0  0  0
   22.3426  -32.6187   -6.9168 C   0  0  0  0  0  0  0  0  0  0  0  0
   15.4403  -23.2544   -4.0169 S   0  0  0  0  0  0  0  0  0  0  0  0
   15.4248  -23.7611   -5.7378 C   0  0  0  0  0  0  0  0  0  0  0  0
   16.2892  -25.3516   -5.9122 C   0  0  0  0  0  0  0  0  0  0  0  0
   17.7396  -25.1977   -5.5527 C   0  0  1  0  0  0  0  0  0  0  0  0
   18.4401  -26.5096   -5.4457 N   0  0  0  0  0  0  0  0  0  0  0  0
   18.2125  -27.2355   -6.7142 C   0  0  0  0  0  0  0  0  0  0  0  0
   17.8465  -27.3311   -4.3806 O   0  0  0  0  0  0  0  0  0  0  0  0
   17.1119  -28.4766   -4.6144 O   0  0  0  0  0  0  0  0  0  0  0  0
  1  2  1  0
  2  3  2  0
  4  2  1  0
  5  4  1  0
  5  6  1  1
  7  8  2  0
  7  5  1  0
  9 10  1  0
 10 12  1  0
 11 10  2  0
 12 13  1  0
 14 13  1  0
 15 14  1  0
 16 15  1  6
 16 17  1  0
 17  7  1  0
 18 19  2  0
 18 16  1  0
 20 21  1  0
 22 21  1  0
 24 23  1  6
 23 22  1  0
 24 25  1  0
 25 18  1  0
 26 24  1  0
 27 26  1  0
 28 26  2  0
M  END
$$$$
