NRM.pdb
     RDKit          3D

 28 27  0  0  1  0  0  0  0  0999 V2000
   17.5853  -22.3264  -15.9231 N   0  0  0  0  0  0  0  0  0  0  0  0
   17.9846  -22.5135  -14.5781 C   0  0  0  0  0  0  0  0  0  0  0  0
   17.0918  -22.4609  -13.6998 O   0  0  0  0  0  0  0  0  0  0  0  0
   19.3763  -22.7615  -14.1859 C   0  0  0  0  0  0  0  0  0  0  0  0
   19.9704  -23.8056  -15.0894 C   0  0  2  0  0  0  0  0  0  0  0  0
   19.3666  -25.0918  -14.7794 N   0  0  0  0  0  0  0  0  0  0  0  0
   21.4357  -23.9483  -14.9042 C   0  0  0  0  0  0  0  0  0  0  0  0
   21.9290  -25.0100  -14.4472 O   0  0  0  0  0  0  0  0  0  0  0  0
   27.0854  -27.8321  -16.1309 N   0  0  0  0  0  0  0  0  0  0  0  0
   25.6497  -27.9221  -16.2279 C   0  0  0  0  0  0  0  0  0  0  0  0
   25.0246  -28.9418  -15.7370 N   0  0  0  0  0  0  0  0  0  0  0  0
   24.9050  -26.9035  -16.8571 N   0  0  0  0  0  0  0  0  0  0  0  0
   25.6771  -25.7105  -17.3163 C   0  0  0  0  0  0  0  0  0  0  0  0
   25.4124  -24.6680  -16.3076 C   0  0  0  0  0  0  0  0  0  0  0  0
   24.0792  -24.1382  -16.0546 C   0  0  0  0  0  0  0  0  0  0  0  0
   23.7947  -23.0257  -15.1265 C   0  0  2  0  0  0  0  0  0  0  0  0
   22.2854  -22.8970  -15.2384 N   0  0  0  0  0  0  0  0  0  0  0  0
   24.2889  -21.6883  -15.4379 C   0  0  0  0  0  0  0  0  0  0  0  0
   23.5498  -20.7573  -15.7959 O   0  0  0  0  0  0  0  0  0  0  0  0
   23.9855  -28.9752  -15.7498 C   0  0  0  0  0  0  0  0  0  0  0  0
   25.7216  -20.5835   -8.8772 S   0  0  0  0  0  0  0  0  0  0  0  0
   25.1775  -21.3236  -10.4182 C   0  0  0  0  0  0  0  0  0  0  0  0
   26.4596  -21.0984  -11.6881 C   0  0  0  0  0  0  0  0  0  0  0  0
   25.9919  -21.6527  -13.0036 C   0  0  2  0  0  0  0  0  0  0  0  0
   26.2258  -20.7077  -14.1331 N   0  0  0  0  0  0  0  0  0  0  0  0
   25.6816  -21.3384  -15.3553 C   0  0  0  0  0  0  0  0  0  0  0  0
   27.6656  -20.5195  -14.3643 O   0  0  0  0  0  0  0  0  0  0  0  0
   28.4714  -19.7219  -13.5763 O   0  0  0  0  0  0  0  0  0  0  0  0
  1  2  1  0
  2  3  2  0
  4  2  1  0
  5  4  1  0
  5  6  1  1
  7  8  2  0
  7  5  1  0
  9 10  1  0
 10 12  1  0
 11 10  2  0
 12 13  1  0
 14 13  1  0
 15 14  1  0
 16 15  1  6
 16 17  1  0
 17  7  1  0
 18 19  2  0
 18 16  1  0
 20 21  1  0
 22 21  1  0
 24 23  1  1
 23 22  1  0
 24 25  1  0
 25 18  1  0
 26 24  1  0
 27 26  1  0
 28 26  2  0
M  END
$$$$
