NRM.pdb
     RDKit          3D

 28 27  0  0  1  0  0  0  0  0999 V2000
   20.5442  -20.8379  -17.5967 N   0  0  0  0  0  0  0  0  0  0  0  0
   20.2957  -20.9259  -16.2061 C   0  0  0  0  0  0  0  0  0  0  0  0
   19.3225  -21.6250  -15.8382 O   0  0  0  0  0  0  0  0  0  0  0  0
   21.1199  -20.2424  -15.2033 C   0  0  0  0  0  0  0  0  0  0  0  0
   22.2243  -19.4917  -15.8933 C   0  0  2  0  0  0  0  0  0  0  0  0
   22.9684  -20.4186  -16.7312 N   0  0  0  0  0  0  0  0  0  0  0  0
   23.1856  -18.8908  -14.9360 C   0  0  0  0  0  0  0  0  0  0  0  0
   22.8039  -18.0646  -14.0694 O   0  0  0  0  0  0  0  0  0  0  0  0
   26.8287  -20.0573   -9.2725 N   0  0  0  0  0  0  0  0  0  0  0  0
   26.0103  -20.8536  -10.1526 C   0  0  0  0  0  0  0  0  0  0  0  0
   24.7986  -21.1585   -9.8201 N   0  0  0  0  0  0  0  0  0  0  0  0
   26.5147  -21.3120  -11.3869 N   0  0  0  0  0  0  0  0  0  0  0  0
   27.8518  -20.7827  -11.7898 C   0  0  0  0  0  0  0  0  0  0  0  0
   27.5820  -19.8703  -12.9164 C   0  0  0  0  0  0  0  0  0  0  0  0
   26.3352  -19.8969  -13.6694 C   0  0  0  0  0  0  0  0  0  0  0  0
   25.5376  -18.6964  -13.9894 C   0  0  2  0  0  0  0  0  0  0  0  0
   24.5325  -19.2404  -14.9898 N   0  0  0  0  0  0  0  0  0  0  0  0
   26.1685  -17.5827  -14.6905 C   0  0  0  0  0  0  0  0  0  0  0  0
   27.0717  -16.8911  -14.1934 O   0  0  0  0  0  0  0  0  0  0  0  0
   24.2056  -21.7228  -10.4612 C   0  0  0  0  0  0  0  0  0  0  0  0
   30.2159  -14.8939  -20.4196 S   0  0  0  0  0  0  0  0  0  0  0  0
   29.4632  -16.1948  -19.4402 C   0  0  0  0  0  0  0  0  0  0  0  0
   28.1215  -15.4977  -18.4297 C   0  0  0  0  0  0  0  0  0  0  0  0
   27.4867  -16.5729  -17.5944 C   0  0  1  0  0  0  0  0  0  0  0  0
   26.4401  -16.0361  -16.6780 N   0  0  0  0  0  0  0  0  0  0  0  0
   25.7922  -17.1932  -16.0230 C   0  0  0  0  0  0  0  0  0  0  0  0
   25.3896  -15.3424  -17.4376 O   0  0  0  0  0  0  0  0  0  0  0  0
   24.4982  -15.9831  -18.2752 O   0  0  0  0  0  0  0  0  0  0  0  0
  1  2  1  0
  2  3  2  0
  4  2  1  0
  5  4  1  0
  5  6  1  6
  7  8  2  0
  7  5  1  0
  9 10  1  0
 10 12  1  0
 11 10  2  0
 12 13  1  0
 14 13  1  0
 15 14  1  0
 16 15  1  6
 16 17  1  0
 17  7  1  0
 18 19  2  0
 18 16  1  0
 20 21  1  0
 22 21  1  0
 24 23  1  1
 23 22  1  0
 24 25  1  0
 25 18  1  0
 26 24  1  0
 27 26  1  0
 28 26  2  0
M  END
$$$$
