NRM.pdb
     RDKit          3D

 28 27  0  0  1  0  0  0  0  0999 V2000
   25.7595  -26.0849  -15.7570 N   0  0  0  0  0  0  0  0  0  0  0  0
   24.3926  -26.4404  -15.8492 C   0  0  0  0  0  0  0  0  0  0  0  0
   24.1248  -27.6047  -16.2282 O   0  0  0  0  0  0  0  0  0  0  0  0
   23.3032  -25.5134  -15.5235 C   0  0  0  0  0  0  0  0  0  0  0  0
   23.8806  -24.2385  -14.9750 C   0  0  2  0  0  0  0  0  0  0  0  0
   24.3957  -24.4941  -13.6393 N   0  0  0  0  0  0  0  0  0  0  0  0
   22.8674  -23.1607  -14.8600 C   0  0  0  0  0  0  0  0  0  0  0  0
   22.3600  -22.6386  -15.8843 O   0  0  0  0  0  0  0  0  0  0  0  0
   19.3211  -24.9165   -8.7437 N   0  0  0  0  0  0  0  0  0  0  0  0
   18.3890  -25.1007   -9.8280 C   0  0  0  0  0  0  0  0  0  0  0  0
   17.7356  -26.2100   -9.9463 N   0  0  0  0  0  0  0  0  0  0  0  0
   18.1741  -24.0781  -10.7747 N   0  0  0  0  0  0  0  0  0  0  0  0
   18.9652  -22.8260  -10.5832 C   0  0  0  0  0  0  0  0  0  0  0  0
   19.5002  -22.4999  -11.9181 C   0  0  0  0  0  0  0  0  0  0  0  0
   20.8377  -21.9590  -12.1191 C   0  0  0  0  0  0  0  0  0  0  0  0
   21.4079  -21.6358  -13.4421 C   0  0  2  0  0  0  0  0  0  0  0  0
   22.4658  -22.7136  -13.6038 N   0  0  0  0  0  0  0  0  0  0  0  0
   22.1430  -20.3877  -13.6202 C   0  0  0  0  0  0  0  0  0  0  0  0
   22.9613  -19.9571  -12.7919 O   0  0  0  0  0  0  0  0  0  0  0  0
   17.0594  -26.3392  -10.7254 C   0  0  0  0  0  0  0  0  0  0  0  0
   26.7515  -20.3297  -17.4077 S   0  0  0  0  0  0  0  0  0  0  0  0
   26.9395  -19.2740  -15.9695 C   0  0  0  0  0  0  0  0  0  0  0  0
   25.4080  -18.3306  -15.7020 C   0  0  0  0  0  0  0  0  0  0  0  0
   24.2983  -19.2497  -15.2771 C   0  0  1  0  0  0  0  0  0  0  0  0
   22.9982  -18.5362  -15.1224 N   0  0  0  0  0  0  0  0  0  0  0  0
   21.9776  -19.5496  -14.7774 C   0  0  0  0  0  0  0  0  0  0  0  0
   22.5788  -17.9365  -16.3976 O   0  0  0  0  0  0  0  0  0  0  0  0
   21.5348  -18.4152  -17.1640 O   0  0  0  0  0  0  0  0  0  0  0  0
  1  2  1  0
  2  3  2  0
  4  2  1  0
  5  4  1  0
  5  6  1  1
  7  8  2  0
  7  5  1  0
  9 10  1  0
 10 12  1  0
 11 10  2  0
 12 13  1  0
 14 13  1  0
 15 14  1  0
 16 15  1  1
 16 17  1  0
 17  7  1  0
 18 19  2  0
 18 16  1  0
 20 21  1  0
 22 21  1  0
 24 23  1  1
 23 22  1  0
 24 25  1  0
 25 18  1  0
 26 24  1  0
 27 26  1  0
 28 26  2  0
M  END
$$$$
