NRM.pdb
     RDKit          3D

 28 27  0  0  1  0  0  0  0  0999 V2000
   26.6254  -18.4027  -19.4665 N   0  0  0  0  0  0  0  0  0  0  0  0
   25.9084  -19.5955  -19.7239 C   0  0  0  0  0  0  0  0  0  0  0  0
   25.7063  -19.8984  -20.9234 O   0  0  0  0  0  0  0  0  0  0  0  0
   25.4051  -20.4698  -18.6588 C   0  0  0  0  0  0  0  0  0  0  0  0
   25.7936  -19.9019  -17.3224 C   0  0  2  0  0  0  0  0  0  0  0  0
   27.2105  -20.1458  -17.1037 N   0  0  0  0  0  0  0  0  0  0  0  0
   25.0571  -20.5359  -16.2012 C   0  0  0  0  0  0  0  0  0  0  0  0
   24.1233  -21.3484  -16.4187 O   0  0  0  0  0  0  0  0  0  0  0  0
   28.6452  -20.6435   -8.5725 N   0  0  0  0  0  0  0  0  0  0  0  0
   28.7516  -21.3664   -9.8153 C   0  0  0  0  0  0  0  0  0  0  0  0
   29.8802  -21.8849  -10.1748 N   0  0  0  0  0  0  0  0  0  0  0  0
   27.6312  -21.5204  -10.6573 N   0  0  0  0  0  0  0  0  0  0  0  0
   26.3488  -20.9381  -10.1607 C   0  0  0  0  0  0  0  0  0  0  0  0
   25.3806  -21.1499  -11.2526 C   0  0  0  0  0  0  0  0  0  0  0  0
   25.5858  -20.6308  -12.5981 C   0  0  0  0  0  0  0  0  0  0  0  0
   24.6326  -20.8177  -13.7100 C   0  0  2  0  0  0  0  0  0  0  0  0
   25.3972  -20.2334  -14.8852 N   0  0  0  0  0  0  0  0  0  0  0  0
   23.3726  -20.0814  -13.7053 C   0  0  0  0  0  0  0  0  0  0  0  0
   23.3101  -18.8416  -13.7140 O   0  0  0  0  0  0  0  0  0  0  0  0
   29.9711  -22.3526  -11.0989 C   0  0  0  0  0  0  0  0  0  0  0  0
   18.1692  -20.4812  -17.4905 S   0  0  0  0  0  0  0  0  0  0  0  0
   18.5141  -18.8547  -16.8168 C   0  0  0  0  0  0  0  0  0  0  0  0
   19.0629  -19.0144  -15.0903 C   0  0  0  0  0  0  0  0  0  0  0  0
   20.3747  -19.7435  -15.0268 C   0  0  1  0  0  0  0  0  0  0  0  0
   20.8445  -19.9456  -13.6261 N   0  0  0  0  0  0  0  0  0  0  0  0
   22.0924  -20.7370  -13.6896 C   0  0  0  0  0  0  0  0  0  0  0  0
   19.8773  -20.7487  -12.8637 O   0  0  0  0  0  0  0  0  0  0  0  0
   19.9858  -22.1135  -12.6842 O   0  0  0  0  0  0  0  0  0  0  0  0
  1  2  1  0
  2  3  2  0
  4  2  1  0
  5  4  1  0
  5  6  1  1
  7  8  2  0
  7  5  1  0
  9 10  1  0
 10 12  1  0
 11 10  2  0
 12 13  1  0
 14 13  1  0
 15 14  1  0
 16 15  1  1
 16 17  1  0
 17  7  1  0
 18 19  2  0
 18 16  1  0
 20 21  1  0
 22 21  1  0
 24 23  1  6
 23 22  1  0
 24 25  1  0
 25 18  1  0
 26 24  1  0
 27 26  1  0
 28 26  2  0
M  END
$$$$
