NRM.pdb
     RDKit          3D

 28 27  0  0  1  0  0  0  0  0999 V2000
   18.5206  -34.1358   -3.5470 N   0  0  0  0  0  0  0  0  0  0  0  0
   19.1113  -33.7795   -2.3110 C   0  0  0  0  0  0  0  0  0  0  0  0
   18.9246  -34.5502   -1.3403 O   0  0  0  0  0  0  0  0  0  0  0  0
   19.9164  -32.5664   -2.1316 C   0  0  0  0  0  0  0  0  0  0  0  0
   19.9564  -31.7990   -3.4234 C   0  0  2  0  0  0  0  0  0  0  0  0
   21.0792  -32.2744   -4.2162 N   0  0  0  0  0  0  0  0  0  0  0  0
   20.1488  -30.3430   -3.2122 C   0  0  0  0  0  0  0  0  0  0  0  0
   21.2751  -29.8777   -2.9049 O   0  0  0  0  0  0  0  0  0  0  0  0
   17.7216  -23.8475   -7.7716 N   0  0  0  0  0  0  0  0  0  0  0  0
   18.1280  -25.2236   -7.9121 C   0  0  0  0  0  0  0  0  0  0  0  0
   18.8232  -25.5980   -8.9359 N   0  0  0  0  0  0  0  0  0  0  0  0
   17.7761  -26.1817   -6.9393 N   0  0  0  0  0  0  0  0  0  0  0  0
   17.1636  -25.6522   -5.6844 C   0  0  0  0  0  0  0  0  0  0  0  0
   18.0637  -26.0896   -4.6014 C   0  0  0  0  0  0  0  0  0  0  0  0
   18.4029  -27.4883   -4.3768 C   0  0  0  0  0  0  0  0  0  0  0  0
   19.2506  -27.9647   -3.2658 C   0  0  2  0  0  0  0  0  0  0  0  0
   19.0727  -29.4706   -3.3539 N   0  0  0  0  0  0  0  0  0  0  0  0
   18.8786  -27.6434   -1.8917 C   0  0  0  0  0  0  0  0  0  0  0  0
   17.9610  -28.2179   -1.2842 O   0  0  0  0  0  0  0  0  0  0  0  0
   19.1462  -26.5829   -9.0181 C   0  0  0  0  0  0  0  0  0  0  0  0
   20.4871  -23.2601    4.5282 S   0  0  0  0  0  0  0  0  0  0  0  0
   21.0244  -23.8935    2.9381 C   0  0  0  0  0  0  0  0  0  0  0  0
   19.6672  -24.8231    2.1627 C   0  0  0  0  0  0  0  0  0  0  0  0
   20.1048  -25.3720    0.8346 C   0  0  1  0  0  0  0  0  0  0  0  0
   19.0999  -26.3035    0.2464 N   0  0  0  0  0  0  0  0  0  0  0  0
   19.5492  -26.6279   -1.1249 C   0  0  0  0  0  0  0  0  0  0  0  0
   17.7931  -25.6428    0.1138 O   0  0  0  0  0  0  0  0  0  0  0  0
   16.8966  -25.4999    1.1542 O   0  0  0  0  0  0  0  0  0  0  0  0
  1  2  1  0
  2  3  2  0
  4  2  1  0
  5  4  1  0
  5  6  1  6
  7  8  2  0
  7  5  1  0
  9 10  1  0
 10 12  1  0
 11 10  2  0
 12 13  1  0
 14 13  1  0
 15 14  1  0
 16 15  1  6
 16 17  1  0
 17  7  1  0
 18 19  2  0
 18 16  1  0
 20 21  1  0
 22 21  1  0
 24 23  1  1
 23 22  1  0
 24 25  1  0
 25 18  1  0
 26 24  1  0
 27 26  1  0
 28 26  2  0
M  END
$$$$
