CCR.pdb
     RDKit          3D

 24 23  0  0  1  0  0  0  0  0999 V2000
    7.4733  -11.2963   26.0717 N   0  0  0  0  0  0  0  0  0  0  0  0
    7.3458  -12.5850   26.6777 C   0  0  1  0  0  0  0  0  0  0  0  0
    6.1043  -13.2840   26.1301 C   0  0  0  0  0  0  0  0  0  0  0  0
    4.5994  -12.4021   26.5956 S   0  0  0  0  0  0  0  0  0  0  0  0
    8.4830  -13.4964   26.3883 C   0  0  0  0  0  0  0  0  0  0  0  0
    9.0452  -13.3898   25.2766 O   0  0  0  0  0  0  0  0  0  0  0  0
    8.9736  -14.4816   27.2937 N   0  0  0  0  0  0  0  0  0  0  0  0
   10.1232  -15.3043   27.0069 C   0  0  1  0  0  0  0  0  0  0  0  0
   10.6438  -15.8436   28.3237 C   0  0  0  0  0  0  0  0  0  0  0  0
   10.8583  -14.4979   29.5004 S   0  0  0  0  0  0  0  0  0  0  0  0
    9.8843  -16.3754   26.0403 C   0  0  0  0  0  0  0  0  0  0  0  0
    8.7053  -16.8487   26.0025 O   0  0  0  0  0  0  0  0  0  0  0  0
    7.9380  -12.5711   19.7603 N   0  0  0  0  0  0  0  0  0  0  0  0
    8.1320  -13.7689   19.0381 C   0  0  0  0  0  0  0  0  0  0  0  0
    7.7646  -13.8669   17.8108 N   0  0  0  0  0  0  0  0  0  0  0  0
    8.7419  -14.8536   19.7095 N   0  0  0  0  0  0  0  0  0  0  0  0
    8.9641  -14.6493   21.1805 C   0  0  0  0  0  0  0  0  0  0  0  0
    9.7378  -15.7920   21.7043 C   0  0  0  0  0  0  0  0  0  0  0  0
   10.0401  -15.9601   23.1205 C   0  0  0  0  0  0  0  0  0  0  0  0
   10.5058  -17.2184   23.7238 C   0  0  2  0  0  0  0  0  0  0  0  0
   10.8413  -16.9161   25.1616 N   0  0  0  0  0  0  0  0  0  0  0  0
   11.7323  -17.8147   23.2140 C   0  0  0  0  0  0  0  0  0  0  0  0
   12.9907  -17.7335   23.7604 O   0  0  0  0  0  0  0  0  0  0  0  0
   11.6615  -18.4974   22.1206 O   0  0  0  0  0  0  0  0  0  0  0  0
  2  3  1  0
  2  1  1  6
  4  3  1  0
  5  2  1  0
  5  6  2  0
  7  5  1  0
  8 11  1  0
  8  7  1  0
  8  9  1  1
 10  9  1  0
 11 21  1  0
 12 11  2  0
 14 13  1  0
 15 14  2  0
 16 14  1  0
 17 16  1  0
 18 17  1  0
 19 18  1  0
 20 19  1  6
 21 20  1  0
 22 23  1  0
 22 20  1  0
 24 22  2  0
M  END
$$$$
