CCR.pdb
     RDKit          3D

 24 23  0  0  1  0  0  0  0  0999 V2000
    5.1708  -13.5025   26.5320 N   0  0  0  0  0  0  0  0  0  0  0  0
    6.3483  -13.1786   25.7885 C   0  0  1  0  0  0  0  0  0  0  0  0
    6.8575  -11.8044   26.2154 C   0  0  0  0  0  0  0  0  0  0  0  0
    5.6264  -10.5233   25.8956 S   0  0  0  0  0  0  0  0  0  0  0  0
    7.4771  -14.1169   26.0187 C   0  0  0  0  0  0  0  0  0  0  0  0
    8.2283  -13.8948   26.9932 O   0  0  0  0  0  0  0  0  0  0  0  0
    7.7582  -15.2512   25.2029 N   0  0  0  0  0  0  0  0  0  0  0  0
    8.9024  -16.1034   25.4156 C   0  0  1  0  0  0  0  0  0  0  0  0
    8.4915  -17.1927   26.3854 C   0  0  0  0  0  0  0  0  0  0  0  0
    6.7440  -17.5746   26.1806 S   0  0  0  0  0  0  0  0  0  0  0  0
    9.4885  -16.6579   24.1959 C   0  0  0  0  0  0  0  0  0  0  0  0
    8.6908  -17.2573   23.4085 O   0  0  0  0  0  0  0  0  0  0  0  0
    8.6321  -12.7961   18.7703 N   0  0  0  0  0  0  0  0  0  0  0  0
    7.7598  -13.6553   19.4736 C   0  0  0  0  0  0  0  0  0  0  0  0
    6.4958  -13.6463   19.2427 N   0  0  0  0  0  0  0  0  0  0  0  0
    8.3226  -14.5227   20.4381 N   0  0  0  0  0  0  0  0  0  0  0  0
    9.8061  -14.3886   20.6278 C   0  0  0  0  0  0  0  0  0  0  0  0
   10.4041  -15.7379   20.6431 C   0  0  0  0  0  0  0  0  0  0  0  0
   11.4654  -16.1226   21.5656 C   0  0  0  0  0  0  0  0  0  0  0  0
   11.3506  -17.2059   22.5542 C   0  0  2  0  0  0  0  0  0  0  0  0
   10.8451  -16.5824   23.8296 N   0  0  0  0  0  0  0  0  0  0  0  0
   12.5668  -17.8864   22.9754 C   0  0  0  0  0  0  0  0  0  0  0  0
   13.1336  -17.8858   24.2274 O   0  0  0  0  0  0  0  0  0  0  0  0
   13.2122  -18.5702   22.0909 O   0  0  0  0  0  0  0  0  0  0  0  0
  2  3  1  0
  2  1  1  1
  4  3  1  0
  5  2  1  0
  5  6  2  0
  7  5  1  0
  8 11  1  0
  8  7  1  0
  8  9  1  1
 10  9  1  0
 11 21  1  0
 12 11  2  0
 14 13  1  0
 15 14  2  0
 16 14  1  0
 17 16  1  0
 18 17  1  0
 19 18  1  0
 20 19  1  6
 21 20  1  0
 22 23  1  0
 22 20  1  0
 24 22  2  0
M  END
$$$$
