CCR.pdb
     RDKit          3D

 24 23  0  0  1  0  0  0  0  0999 V2000
    4.9707  -13.8914   26.2456 N   0  0  0  0  0  0  0  0  0  0  0  0
    5.7851  -13.0901   25.3861 C   0  0  1  0  0  0  0  0  0  0  0  0
    6.7756  -12.2881   26.2262 C   0  0  0  0  0  0  0  0  0  0  0  0
    6.0089  -10.7954   26.8919 S   0  0  0  0  0  0  0  0  0  0  0  0
    6.6092  -13.8810   24.4358 C   0  0  0  0  0  0  0  0  0  0  0  0
    7.0833  -14.9650   24.8402 O   0  0  0  0  0  0  0  0  0  0  0  0
    6.8932  -13.4853   23.0965 N   0  0  0  0  0  0  0  0  0  0  0  0
    7.6547  -14.3029   22.1842 C   0  0  1  0  0  0  0  0  0  0  0  0
    7.8008  -13.5326   20.8875 C   0  0  0  0  0  0  0  0  0  0  0  0
    8.6649  -14.5357   19.6675 S   0  0  0  0  0  0  0  0  0  0  0  0
    8.9494  -14.7498   22.6966 C   0  0  0  0  0  0  0  0  0  0  0  0
    9.7243  -13.8444   23.1389 O   0  0  0  0  0  0  0  0  0  0  0  0
   11.7768  -17.5167   29.4129 N   0  0  0  0  0  0  0  0  0  0  0  0
   11.3627  -16.2037   29.0994 C   0  0  0  0  0  0  0  0  0  0  0  0
   11.3406  -15.2858   29.9983 N   0  0  0  0  0  0  0  0  0  0  0  0
   10.9740  -15.9342   27.7668 N   0  0  0  0  0  0  0  0  0  0  0  0
   10.6304  -17.1436   26.9458 C   0  0  0  0  0  0  0  0  0  0  0  0
   10.1720  -16.6968   25.6158 C   0  0  0  0  0  0  0  0  0  0  0  0
   10.7463  -17.1958   24.3723 C   0  0  0  0  0  0  0  0  0  0  0  0
   10.8167  -16.4213   23.1236 C   0  0  2  0  0  0  0  0  0  0  0  0
    9.3997  -16.0824   22.7386 N   0  0  0  0  0  0  0  0  0  0  0  0
   11.3370  -17.0786   21.9332 C   0  0  0  0  0  0  0  0  0  0  0  0
   12.6546  -17.2763   21.5963 O   0  0  0  0  0  0  0  0  0  0  0  0
   10.4863  -17.5310   21.0739 O   0  0  0  0  0  0  0  0  0  0  0  0
  2  3  1  0
  2  1  1  1
  4  3  1  0
  5  2  1  0
  5  6  2  0
  7  5  1  0
  8 11  1  0
  8  7  1  0
  8  9  1  6
 10  9  1  0
 11 21  1  0
 12 11  2  0
 14 13  1  0
 15 14  2  0
 16 14  1  0
 17 16  1  0
 18 17  1  0
 19 18  1  0
 20 19  1  1
 21 20  1  0
 22 23  1  0
 22 20  1  0
 24 22  2  0
M  END
$$$$
