CCR.pdb
     RDKit          3D

 24 23  0  0  1  0  0  0  0  0999 V2000
    7.7787  -12.5734   19.4760 N   0  0  0  0  0  0  0  0  0  0  0  0
    7.1809  -13.2842   20.5630 C   0  0  1  0  0  0  0  0  0  0  0  0
    6.9170  -14.7277   20.1429 C   0  0  0  0  0  0  0  0  0  0  0  0
    5.6917  -14.8094   18.8196 S   0  0  0  0  0  0  0  0  0  0  0  0
    8.0439  -13.3662   21.7697 C   0  0  0  0  0  0  0  0  0  0  0  0
    9.2638  -13.5799   21.5987 O   0  0  0  0  0  0  0  0  0  0  0  0
    7.5723  -13.2169   23.1063 N   0  0  0  0  0  0  0  0  0  0  0  0
    8.4124  -13.4263   24.2601 C   0  0  1  0  0  0  0  0  0  0  0  0
    7.8034  -12.6621   25.4181 C   0  0  0  0  0  0  0  0  0  0  0  0
    6.0254  -12.9395   25.4741 S   0  0  0  0  0  0  0  0  0  0  0  0
    8.6464  -14.8290   24.6011 C   0  0  0  0  0  0  0  0  0  0  0  0
    7.6138  -15.5605   24.7206 O   0  0  0  0  0  0  0  0  0  0  0  0
   13.5046  -14.1822   20.6152 N   0  0  0  0  0  0  0  0  0  0  0  0
   13.7845  -15.3119   21.4147 C   0  0  0  0  0  0  0  0  0  0  0  0
   14.9555  -15.8407   21.4239 N   0  0  0  0  0  0  0  0  0  0  0  0
   12.7355  -15.8401   22.2021 N   0  0  0  0  0  0  0  0  0  0  0  0
   11.7632  -16.7152   21.4648 C   0  0  0  0  0  0  0  0  0  0  0  0
   10.7738  -17.2375   22.4276 C   0  0  0  0  0  0  0  0  0  0  0  0
   11.0288  -17.3140   23.8609 C   0  0  0  0  0  0  0  0  0  0  0  0
   10.0601  -16.9213   24.8961 C   0  0  2  0  0  0  0  0  0  0  0  0
    9.9048  -15.4251   24.8047 N   0  0  0  0  0  0  0  0  0  0  0  0
   10.4179  -17.1343   26.2912 C   0  0  0  0  0  0  0  0  0  0  0  0
   10.5893  -16.1797   27.2650 O   0  0  0  0  0  0  0  0  0  0  0  0
   10.6100  -18.3484   26.6856 O   0  0  0  0  0  0  0  0  0  0  0  0
  2  3  1  0
  2  1  1  6
  4  3  1  0
  5  2  1  0
  5  6  2  0
  7  5  1  0
  8 11  1  0
  8  7  1  0
  8  9  1  1
 10  9  1  0
 11 21  1  0
 12 11  2  0
 14 13  1  0
 15 14  2  0
 16 14  1  0
 17 16  1  0
 18 17  1  0
 19 18  1  0
 20 19  1  6
 21 20  1  0
 22 23  1  0
 22 20  1  0
 24 22  2  0
M  END
$$$$
