CCR.pdb
     RDKit          3D

 24 23  0  0  1  0  0  0  0  0999 V2000
    4.3318  -21.5581   23.4186 N   0  0  0  0  0  0  0  0  0  0  0  0
    5.6851  -21.3740   23.8416 C   0  0  1  0  0  0  0  0  0  0  0  0
    6.6309  -21.8346   22.7356 C   0  0  0  0  0  0  0  0  0  0  0  0
    6.6349  -23.6337   22.5869 S   0  0  0  0  0  0  0  0  0  0  0  0
    6.0391  -19.9563   24.1111 C   0  0  0  0  0  0  0  0  0  0  0  0
    5.4041  -19.0715   23.4969 O   0  0  0  0  0  0  0  0  0  0  0  0
    7.0529  -19.5406   25.0225 N   0  0  0  0  0  0  0  0  0  0  0  0
    7.3670  -18.1536   25.2636 C   0  0  1  0  0  0  0  0  0  0  0  0
    7.7158  -18.0086   26.7310 C   0  0  0  0  0  0  0  0  0  0  0  0
    8.1927  -16.3094   27.0872 S   0  0  0  0  0  0  0  0  0  0  0  0
    8.4129  -17.6036   24.4021 C   0  0  0  0  0  0  0  0  0  0  0  0
    9.4652  -18.3048   24.2741 O   0  0  0  0  0  0  0  0  0  0  0  0
    7.1614  -14.8516   17.9047 N   0  0  0  0  0  0  0  0  0  0  0  0
    7.7672  -13.5777   17.9669 C   0  0  0  0  0  0  0  0  0  0  0  0
    8.1533  -12.9772   16.8986 N   0  0  0  0  0  0  0  0  0  0  0  0
    7.9346  -12.9874   19.2409 N   0  0  0  0  0  0  0  0  0  0  0  0
    7.2927  -13.7302   20.3771 C   0  0  0  0  0  0  0  0  0  0  0  0
    8.2023  -14.8093   20.8095 C   0  0  0  0  0  0  0  0  0  0  0  0
    8.9517  -14.7592   22.0590 C   0  0  0  0  0  0  0  0  0  0  0  0
    9.4459  -15.9448   22.7759 C   0  0  2  0  0  0  0  0  0  0  0  0
    8.3486  -16.3779   23.7136 N   0  0  0  0  0  0  0  0  0  0  0  0
   10.5944  -15.7885   23.6570 C   0  0  0  0  0  0  0  0  0  0  0  0
   11.9192  -15.9790   23.3448 O   0  0  0  0  0  0  0  0  0  0  0  0
   10.3728  -15.4389   24.8798 O   0  0  0  0  0  0  0  0  0  0  0  0
  2  3  1  0
  2  1  1  6
  4  3  1  0
  5  2  1  0
  5  6  2  0
  7  5  1  0
  8 11  1  0
  8  7  1  0
  8  9  1  1
 10  9  1  0
 11 21  1  0
 12 11  2  0
 14 13  1  0
 15 14  2  0
 16 14  1  0
 17 16  1  0
 18 17  1  0
 19 18  1  0
 20 19  1  1
 21 20  1  0
 22 23  1  0
 22 20  1  0
 24 22  2  0
M  END
$$$$
