CCR.pdb
     RDKit          3D

 24 23  0  0  1  0  0  0  0  0999 V2000
    8.1304  -12.6832   20.0727 N   0  0  0  0  0  0  0  0  0  0  0  0
    7.2548  -13.3209   21.0059 C   0  0  1  0  0  0  0  0  0  0  0  0
    7.0663  -14.7828   20.6093 C   0  0  0  0  0  0  0  0  0  0  0  0
    6.1340  -14.9270   19.0701 S   0  0  0  0  0  0  0  0  0  0  0  0
    7.7780  -13.3441   22.3964 C   0  0  0  0  0  0  0  0  0  0  0  0
    9.0072  -13.5112   22.5523 O   0  0  0  0  0  0  0  0  0  0  0  0
    6.9715  -13.1881   23.5610 N   0  0  0  0  0  0  0  0  0  0  0  0
    7.5108  -13.2363   24.8980 C   0  0  1  0  0  0  0  0  0  0  0  0
    6.5091  -12.5751   25.8229 C   0  0  0  0  0  0  0  0  0  0  0  0
    7.0567  -12.7211   27.5318 S   0  0  0  0  0  0  0  0  0  0  0  0
    7.8760  -14.5736   25.3635 C   0  0  0  0  0  0  0  0  0  0  0  0
    6.9740  -15.4655   25.2819 O   0  0  0  0  0  0  0  0  0  0  0  0
   11.1704  -20.3135   21.4488 N   0  0  0  0  0  0  0  0  0  0  0  0
   12.1722  -19.4546   21.9511 C   0  0  0  0  0  0  0  0  0  0  0  0
   13.4022  -19.6048   21.6112 N   0  0  0  0  0  0  0  0  0  0  0  0
   11.7772  -18.4270   22.8386 N   0  0  0  0  0  0  0  0  0  0  0  0
   10.4057  -18.5865   23.4287 C   0  0  0  0  0  0  0  0  0  0  0  0
   10.4681  -18.2532   24.8653 C   0  0  0  0  0  0  0  0  0  0  0  0
   10.4306  -16.8831   25.3619 C   0  0  0  0  0  0  0  0  0  0  0  0
    9.4167  -16.3684   26.2953 C   0  0  2  0  0  0  0  0  0  0  0  0
    9.1278  -14.9469   25.8870 N   0  0  0  0  0  0  0  0  0  0  0  0
    9.7736  -16.2450   27.7014 C   0  0  0  0  0  0  0  0  0  0  0  0
    9.9160  -17.2579   28.6193 O   0  0  0  0  0  0  0  0  0  0  0  0
    9.9785  -15.0594   28.1695 O   0  0  0  0  0  0  0  0  0  0  0  0
  2  3  1  0
  2  1  1  6
  4  3  1  0
  5  2  1  0
  5  6  2  0
  7  5  1  0
  8 11  1  0
  8  7  1  0
  8  9  1  1
 10  9  1  0
 11 21  1  0
 12 11  2  0
 14 13  1  0
 15 14  2  0
 16 14  1  0
 17 16  1  0
 18 17  1  0
 19 18  1  0
 20 19  1  6
 21 20  1  0
 22 23  1  0
 22 20  1  0
 24 22  2  0
M  END
$$$$
