CCR.pdb
     RDKit          3D

 24 23  0  0  1  0  0  0  0  0999 V2000
    8.1043  -14.3510   19.9058 N   0  0  0  0  0  0  0  0  0  0  0  0
    7.3043  -14.6309   21.0572 C   0  0  1  0  0  0  0  0  0  0  0  0
    6.9246  -16.1093   21.0657 C   0  0  0  0  0  0  0  0  0  0  0  0
    5.9525  -16.5425   19.6075 S   0  0  0  0  0  0  0  0  0  0  0  0
    8.0043  -14.3864   22.3448 C   0  0  0  0  0  0  0  0  0  0  0  0
    9.2322  -14.6171   22.3920 O   0  0  0  0  0  0  0  0  0  0  0  0
    7.3683  -13.9067   23.5266 N   0  0  0  0  0  0  0  0  0  0  0  0
    8.0355  -13.8455   24.8040 C   0  0  1  0  0  0  0  0  0  0  0  0
    7.1883  -12.9919   25.7258 C   0  0  0  0  0  0  0  0  0  0  0  0
    7.9215  -12.9432   27.3694 S   0  0  0  0  0  0  0  0  0  0  0  0
    8.3399  -15.1462   25.3991 C   0  0  0  0  0  0  0  0  0  0  0  0
    7.3886  -15.9885   25.4315 O   0  0  0  0  0  0  0  0  0  0  0  0
   12.5003  -22.5216   25.5211 N   0  0  0  0  0  0  0  0  0  0  0  0
   11.4335  -22.3459   26.4293 C   0  0  0  0  0  0  0  0  0  0  0  0
   11.0755  -23.2943   27.2189 N   0  0  0  0  0  0  0  0  0  0  0  0
   10.7742  -21.0951   26.4399 N   0  0  0  0  0  0  0  0  0  0  0  0
   11.1750  -20.1538   25.3408 C   0  0  0  0  0  0  0  0  0  0  0  0
   11.4346  -18.8249   25.9285 C   0  0  0  0  0  0  0  0  0  0  0  0
   10.6625  -17.6396   25.5764 C   0  0  0  0  0  0  0  0  0  0  0  0
    9.7951  -16.9082   26.5129 C   0  0  2  0  0  0  0  0  0  0  0  0
    9.5836  -15.5343   25.9311 N   0  0  0  0  0  0  0  0  0  0  0  0
   10.3032  -16.6296   27.8486 C   0  0  0  0  0  0  0  0  0  0  0  0
   10.5656  -15.3998   28.4030 O   0  0  0  0  0  0  0  0  0  0  0  0
   10.5522  -17.6340   28.6205 O   0  0  0  0  0  0  0  0  0  0  0  0
  2  3  1  0
  2  1  1  6
  4  3  1  0
  5  2  1  0
  5  6  2  0
  7  5  1  0
  8 11  1  0
  8  7  1  0
  8  9  1  1
 10  9  1  0
 11 21  1  0
 12 11  2  0
 14 13  1  0
 15 14  2  0
 16 14  1  0
 17 16  1  0
 18 17  1  0
 19 18  1  0
 20 19  1  6
 21 20  1  0
 22 23  1  0
 22 20  1  0
 24 22  2  0
M  END
$$$$
