CCR.pdb
     RDKit          3D

 24 23  0  0  1  0  0  0  0  0999 V2000
    2.2477  -20.2528   19.5556 N   0  0  0  0  0  0  0  0  0  0  0  0
    2.4839  -19.1421   20.4243 C   0  0  1  0  0  0  0  0  0  0  0  0
    1.5515  -19.2316   21.6295 C   0  0  0  0  0  0  0  0  0  0  0  0
    1.6064  -20.8739   22.3772 S   0  0  0  0  0  0  0  0  0  0  0  0
    3.8608  -19.1015   20.9812 C   0  0  0  0  0  0  0  0  0  0  0  0
    4.5420  -20.1484   20.9246 O   0  0  0  0  0  0  0  0  0  0  0  0
    4.4541  -17.9492   21.5740 N   0  0  0  0  0  0  0  0  0  0  0  0
    5.7876  -17.9512   22.1238 C   0  0  1  0  0  0  0  0  0  0  0  0
    6.1671  -16.5140   22.4175 C   0  0  0  0  0  0  0  0  0  0  0  0
    7.8184  -16.4449   23.1314 S   0  0  0  0  0  0  0  0  0  0  0  0
    5.9659  -18.8079   23.2955 C   0  0  0  0  0  0  0  0  0  0  0  0
    5.0959  -18.6943   24.2152 O   0  0  0  0  0  0  0  0  0  0  0  0
    3.3274  -24.7964   24.5924 N   0  0  0  0  0  0  0  0  0  0  0  0
    4.0611  -25.4064   25.6332 C   0  0  0  0  0  0  0  0  0  0  0  0
    3.4650  -26.0485   26.5730 N   0  0  0  0  0  0  0  0  0  0  0  0
    5.4698  -25.2866   25.6065 N   0  0  0  0  0  0  0  0  0  0  0  0
    6.0163  -24.4347   24.4972 C   0  0  0  0  0  0  0  0  0  0  0  0
    6.2488  -23.0734   25.0181 C   0  0  0  0  0  0  0  0  0  0  0  0
    6.8276  -22.0058   24.2114 C   0  0  0  0  0  0  0  0  0  0  0  0
    7.0517  -20.6337   24.6922 C   0  0  2  0  0  0  0  0  0  0  0  0
    7.0083  -19.7343   23.4838 N   0  0  0  0  0  0  0  0  0  0  0  0
    8.3376  -20.3167   25.2971 C   0  0  0  0  0  0  0  0  0  0  0  0
    8.7096  -20.4912   26.6086 O   0  0  0  0  0  0  0  0  0  0  0  0
    9.2498  -19.8046   24.5407 O   0  0  0  0  0  0  0  0  0  0  0  0
  2  3  1  0
  2  1  1  6
  4  3  1  0
  5  2  1  0
  5  6  2  0
  7  5  1  0
  8 11  1  0
  8  7  1  0
  8  9  1  1
 10  9  1  0
 11 21  1  0
 12 11  2  0
 14 13  1  0
 15 14  2  0
 16 14  1  0
 17 16  1  0
 18 17  1  0
 19 18  1  0
 20 19  1  6
 21 20  1  0
 22 23  1  0
 22 20  1  0
 24 22  2  0
M  END
$$$$
