CCR.pdb
     RDKit          3D

 24 23  0  0  1  0  0  0  0  0999 V2000
    5.0761  -22.1399   25.4725 N   0  0  0  0  0  0  0  0  0  0  0  0
    5.6845  -21.5284   24.3323 C   0  0  1  0  0  0  0  0  0  0  0  0
    4.7111  -21.5620   23.1571 C   0  0  0  0  0  0  0  0  0  0  0  0
    4.6980  -23.1848   22.3661 S   0  0  0  0  0  0  0  0  0  0  0  0
    6.0255  -20.0962   24.5333 C   0  0  0  0  0  0  0  0  0  0  0  0
    5.1108  -19.3268   24.9004 O   0  0  0  0  0  0  0  0  0  0  0  0
    7.3244  -19.5441   24.3357 N   0  0  0  0  0  0  0  0  0  0  0  0
    7.6208  -18.1479   24.5440 C   0  0  1  0  0  0  0  0  0  0  0  0
    7.5446  -17.8779   26.0330 C   0  0  0  0  0  0  0  0  0  0  0  0
    8.7198  -18.9220   26.9107 S   0  0  0  0  0  0  0  0  0  0  0  0
    8.8926  -17.7004   23.9775 C   0  0  0  0  0  0  0  0  0  0  0  0
    9.8386  -18.5494   23.9741 O   0  0  0  0  0  0  0  0  0  0  0  0
    7.2993  -12.6687   19.8092 N   0  0  0  0  0  0  0  0  0  0  0  0
    7.7497  -13.5056   18.7649 C   0  0  0  0  0  0  0  0  0  0  0  0
    7.8230  -13.0733   17.5571 N   0  0  0  0  0  0  0  0  0  0  0  0
    8.1156  -14.8316   19.0923 N   0  0  0  0  0  0  0  0  0  0  0  0
    8.3773  -15.0794   20.5500 C   0  0  0  0  0  0  0  0  0  0  0  0
    9.7373  -14.6054   20.8729 C   0  0  0  0  0  0  0  0  0  0  0  0
   10.3423  -14.7738   22.1885 C   0  0  0  0  0  0  0  0  0  0  0  0
   10.4964  -16.0688   22.8692 C   0  0  2  0  0  0  0  0  0  0  0  0
    9.1493  -16.4239   23.4438 N   0  0  0  0  0  0  0  0  0  0  0  0
   11.3802  -16.1395   24.0241 C   0  0  0  0  0  0  0  0  0  0  0  0
   12.7491  -16.2614   24.0224 O   0  0  0  0  0  0  0  0  0  0  0  0
   10.8438  -16.0924   25.1974 O   0  0  0  0  0  0  0  0  0  0  0  0
  2  3  1  0
  2  1  1  1
  4  3  1  0
  5  2  1  0
  5  6  2  0
  7  5  1  0
  8 11  1  0
  8  7  1  0
  8  9  1  1
 10  9  1  0
 11 21  1  0
 12 11  2  0
 14 13  1  0
 15 14  2  0
 16 14  1  0
 17 16  1  0
 18 17  1  0
 19 18  1  0
 20 19  1  1
 21 20  1  0
 22 23  1  0
 22 20  1  0
 24 22  2  0
M  END
$$$$
