CCR.pdb
     RDKit          3D

 24 23  0  0  1  0  0  0  0  0999 V2000
    8.3361  -12.7153   19.7377 N   0  0  0  0  0  0  0  0  0  0  0  0
    7.4571  -13.3575   20.6646 C   0  0  1  0  0  0  0  0  0  0  0  0
    7.3124  -14.8305   20.2914 C   0  0  0  0  0  0  0  0  0  0  0  0
    6.0244  -15.0659   19.0484 S   0  0  0  0  0  0  0  0  0  0  0  0
    7.9518  -13.3427   22.0656 C   0  0  0  0  0  0  0  0  0  0  0  0
    9.1483  -13.6474   22.2629 O   0  0  0  0  0  0  0  0  0  0  0  0
    7.1530  -13.0042   23.1962 N   0  0  0  0  0  0  0  0  0  0  0  0
    7.6406  -13.0865   24.5513 C   0  0  1  0  0  0  0  0  0  0  0  0
    6.6584  -12.3504   25.4398 C   0  0  0  0  0  0  0  0  0  0  0  0
    7.1108  -12.5635   27.1693 S   0  0  0  0  0  0  0  0  0  0  0  0
    7.8908  -14.4451   25.0310 C   0  0  0  0  0  0  0  0  0  0  0  0
    6.8836  -15.2185   25.0861 O   0  0  0  0  0  0  0  0  0  0  0  0
   14.5074  -20.4472   24.3585 N   0  0  0  0  0  0  0  0  0  0  0  0
   13.5606  -19.9837   23.4192 C   0  0  0  0  0  0  0  0  0  0  0  0
   13.4060  -20.5766   22.2898 N   0  0  0  0  0  0  0  0  0  0  0  0
   12.7911  -18.8481   23.7623 N   0  0  0  0  0  0  0  0  0  0  0  0
   11.3585  -19.1306   24.1124 C   0  0  0  0  0  0  0  0  0  0  0  0
   10.9758  -18.2809   25.2571 C   0  0  0  0  0  0  0  0  0  0  0  0
   10.4501  -16.9304   25.0990 C   0  0  0  0  0  0  0  0  0  0  0  0
    9.3011  -16.3966   25.8467 C   0  0  2  0  0  0  0  0  0  0  0  0
    9.1390  -14.9573   25.4307 N   0  0  0  0  0  0  0  0  0  0  0  0
    9.4003  -16.3149   27.2970 C   0  0  0  0  0  0  0  0  0  0  0  0
    9.1902  -17.3231   28.2070 O   0  0  0  0  0  0  0  0  0  0  0  0
    9.7124  -15.1750   27.8165 O   0  0  0  0  0  0  0  0  0  0  0  0
  2  3  1  0
  2  1  1  6
  4  3  1  0
  5  2  1  0
  5  6  2  0
  7  5  1  0
  8 11  1  0
  8  7  1  0
  8  9  1  1
 10  9  1  0
 11 21  1  0
 12 11  2  0
 14 13  1  0
 15 14  2  0
 16 14  1  0
 17 16  1  0
 18 17  1  0
 19 18  1  0
 20 19  1  6
 21 20  1  0
 22 23  1  0
 22 20  1  0
 24 22  2  0
M  END
$$$$
