CCR.pdb
     RDKit          3D

 24 23  0  0  1  0  0  0  0  0999 V2000
    8.1378  -12.4330   19.9012 N   0  0  0  0  0  0  0  0  0  0  0  0
    7.4162  -13.2041   20.8650 C   0  0  1  0  0  0  0  0  0  0  0  0
    7.2751  -14.6396   20.3657 C   0  0  0  0  0  0  0  0  0  0  0  0
    6.2598  -14.7157   18.8749 S   0  0  0  0  0  0  0  0  0  0  0  0
    8.0956  -13.3000   22.1830 C   0  0  0  0  0  0  0  0  0  0  0  0
    9.3447  -13.3548   22.1906 O   0  0  0  0  0  0  0  0  0  0  0  0
    7.4174  -13.3332   23.4360 N   0  0  0  0  0  0  0  0  0  0  0  0
    8.0954  -13.5739   24.6862 C   0  0  1  0  0  0  0  0  0  0  0  0
    7.3742  -12.7855   25.7606 C   0  0  0  0  0  0  0  0  0  0  0  0
    5.6095  -13.1376   25.7052 S   0  0  0  0  0  0  0  0  0  0  0  0
    8.2298  -14.9843   25.0487 C   0  0  0  0  0  0  0  0  0  0  0  0
    7.3684  -15.7783   24.5554 O   0  0  0  0  0  0  0  0  0  0  0  0
   13.2327  -19.3388   20.8428 N   0  0  0  0  0  0  0  0  0  0  0  0
   13.2316  -20.2691   21.9049 C   0  0  0  0  0  0  0  0  0  0  0  0
   13.7181  -21.4483   21.7505 N   0  0  0  0  0  0  0  0  0  0  0  0
   12.6782  -19.8606   23.1403 N   0  0  0  0  0  0  0  0  0  0  0  0
   12.0592  -18.4925   23.1404 C   0  0  0  0  0  0  0  0  0  0  0  0
   11.4699  -18.2409   24.4700 C   0  0  0  0  0  0  0  0  0  0  0  0
   10.7147  -17.0345   24.7853 C   0  0  0  0  0  0  0  0  0  0  0  0
    9.6365  -16.9701   25.7840 C   0  0  2  0  0  0  0  0  0  0  0  0
    9.2219  -15.5250   25.8876 N   0  0  0  0  0  0  0  0  0  0  0  0
    9.9499  -17.3260   27.1606 C   0  0  0  0  0  0  0  0  0  0  0  0
    9.9624  -16.4961   28.2560 O   0  0  0  0  0  0  0  0  0  0  0  0
   10.2630  -18.5534   27.4096 O   0  0  0  0  0  0  0  0  0  0  0  0
  2  3  1  0
  2  1  1  6
  4  3  1  0
  5  2  1  0
  5  6  2  0
  7  5  1  0
  8 11  1  0
  8  7  1  0
  8  9  1  1
 10  9  1  0
 11 21  1  0
 12 11  2  0
 14 13  1  0
 15 14  2  0
 16 14  1  0
 17 16  1  0
 18 17  1  0
 19 18  1  0
 20 19  1  6
 21 20  1  0
 22 23  1  0
 22 20  1  0
 24 22  2  0
M  END
$$$$
