NGR.pdb
     RDKit          3D

 24 23  0  0  1  0  0  0  0  0999 V2000
   28.3550  -17.4728  -19.4184 N   0  0  0  0  0  0  0  0  0  0  0  0
   27.0168  -17.5454  -18.9310 C   0  0  0  0  0  0  0  0  0  0  0  0
   26.5312  -16.4703  -18.4968 O   0  0  0  0  0  0  0  0  0  0  0  0
   26.2538  -18.8231  -18.9416 C   0  0  0  0  0  0  0  0  0  0  0  0
   25.3468  -18.8184  -17.7343 C   0  0  2  0  0  0  0  0  0  0  0  0
   26.1798  -19.0368  -16.5688 N   0  0  0  0  0  0  0  0  0  0  0  0
   24.2656  -19.8010  -17.7819 C   0  0  0  0  0  0  0  0  0  0  0  0
   23.2626  -19.5449  -18.5190 O   0  0  0  0  0  0  0  0  0  0  0  0
   24.2648  -21.0230  -17.0571 N   0  0  0  0  0  0  0  0  0  0  0  0
   23.1200  -21.8603  -17.0819 C   0  0  0  0  0  0  0  0  0  0  0  0
   22.4154  -22.0617  -15.8196 C   0  0  0  0  0  0  0  0  0  0  0  0
   22.1903  -23.2830  -15.5061 O   0  0  0  0  0  0  0  0  0  0  0  0
   26.5297  -20.5817   -9.0500 N   0  0  0  0  0  0  0  0  0  0  0  0
   26.9551  -21.0831  -10.3254 C   0  0  0  0  0  0  0  0  0  0  0  0
   28.1852  -21.5170  -10.4564 N   0  0  0  0  0  0  0  0  0  0  0  0
   26.0931  -21.1276  -11.4516 N   0  0  0  0  0  0  0  0  0  0  0  0
   24.6990  -20.7575  -11.3185 C   0  0  0  0  0  0  0  0  0  0  0  0
   24.0319  -20.8548  -12.6656 C   0  0  0  0  0  0  0  0  0  0  0  0
   22.5901  -20.4297  -12.6281 C   0  0  0  0  0  0  0  0  0  0  0  0
   21.7437  -21.2981  -13.5016 C   0  0  2  0  0  0  0  0  0  0  0  0
   21.9555  -21.0954  -14.9117 N   0  0  0  0  0  0  0  0  0  0  0  0
   20.2907  -21.0051  -13.2371 C   0  0  0  0  0  0  0  0  0  0  0  0
   19.7700  -21.2459  -12.1213 O   0  0  0  0  0  0  0  0  0  0  0  0
   19.4934  -20.4587  -14.2299 O   0  0  0  0  0  0  0  0  0  0  0  0
  1  2  1  0
  2  4  1  0
  3  2  2  0
  5  4  1  0
  5  7  1  0
  5  6  1  1
  7  8  2  0
  9 10  1  0
  9  7  1  0
 10 11  1  0
 11 12  2  0
 11 21  1  0
 13 14  1  0
 14 15  2  0
 16 17  1  0
 16 14  1  0
 17 18  1  0
 19 18  1  0
 20 19  1  1
 21 20  1  0
 22 20  1  0
 22 24  1  0
 23 22  2  0
M  END
$$$$
