NGR.pdb
     RDKit          3D

 24 23  0  0  1  0  0  0  0  0999 V2000
   22.6881  -21.1304   -8.6096 N   0  0  0  0  0  0  0  0  0  0  0  0
   23.9344  -20.8878   -7.9605 C   0  0  0  0  0  0  0  0  0  0  0  0
   23.9236  -20.9607   -6.7057 O   0  0  0  0  0  0  0  0  0  0  0  0
   25.1648  -20.5686   -8.7344 C   0  0  0  0  0  0  0  0  0  0  0  0
   24.7687  -20.4542  -10.1871 C   0  0  2  0  0  0  0  0  0  0  0  0
   24.1942  -21.7259  -10.5784 N   0  0  0  0  0  0  0  0  0  0  0  0
   25.8595  -20.0866  -11.0881 C   0  0  0  0  0  0  0  0  0  0  0  0
   27.0399  -20.4238  -10.7597 O   0  0  0  0  0  0  0  0  0  0  0  0
   25.6840  -19.3769  -12.3064 N   0  0  0  0  0  0  0  0  0  0  0  0
   26.7320  -19.3400  -13.2616 C   0  0  0  0  0  0  0  0  0  0  0  0
   26.4782  -18.6104  -14.5000 C   0  0  0  0  0  0  0  0  0  0  0  0
   25.2638  -18.2465  -14.6830 O   0  0  0  0  0  0  0  0  0  0  0  0
   30.4206  -14.5132  -21.2037 N   0  0  0  0  0  0  0  0  0  0  0  0
   29.0322  -14.1512  -21.2165 C   0  0  0  0  0  0  0  0  0  0  0  0
   28.5642  -13.4742  -22.2369 N   0  0  0  0  0  0  0  0  0  0  0  0
   28.1452  -14.4992  -20.1650 N   0  0  0  0  0  0  0  0  0  0  0  0
   28.6395  -15.1919  -18.9928 C   0  0  0  0  0  0  0  0  0  0  0  0
   27.8521  -16.4618  -18.8015 C   0  0  0  0  0  0  0  0  0  0  0  0
   28.2546  -17.2097  -17.5607 C   0  0  0  0  0  0  0  0  0  0  0  0
   27.0642  -17.5691  -16.7315 C   0  0  2  0  0  0  0  0  0  0  0  0
   27.3877  -18.2591  -15.5095 N   0  0  0  0  0  0  0  0  0  0  0  0
   26.1665  -18.4854  -17.5197 C   0  0  0  0  0  0  0  0  0  0  0  0
   26.3309  -19.7292  -17.5058 O   0  0  0  0  0  0  0  0  0  0  0  0
   25.1319  -17.9681  -18.2825 O   0  0  0  0  0  0  0  0  0  0  0  0
  1  2  1  0
  2  4  1  0
  3  2  2  0
  5  4  1  0
  5  7  1  0
  5  6  1  6
  7  8  2  0
  9 10  1  0
  9  7  1  0
 10 11  1  0
 11 12  2  0
 11 21  1  0
 13 14  1  0
 14 15  2  0
 16 17  1  0
 16 14  1  0
 17 18  1  0
 19 18  1  0
 20 19  1  6
 21 20  1  0
 22 20  1  0
 22 24  1  0
 23 22  2  0
M  END
$$$$
