NGR.pdb
     RDKit          3D

 24 23  0  0  1  0  0  0  0  0999 V2000
   25.6912  -22.8076  -18.9135 N   0  0  0  0  0  0  0  0  0  0  0  0
   26.8186  -22.8196  -18.0403 C   0  0  0  0  0  0  0  0  0  0  0  0
   27.9411  -22.9358  -18.5940 O   0  0  0  0  0  0  0  0  0  0  0  0
   26.6607  -22.7011  -16.5653 C   0  0  0  0  0  0  0  0  0  0  0  0
   26.4473  -21.2400  -16.2490 C   0  0  2  0  0  0  0  0  0  0  0  0
   27.4414  -20.8628  -15.2643 N   0  0  0  0  0  0  0  0  0  0  0  0
   25.1050  -20.9102  -15.7734 C   0  0  0  0  0  0  0  0  0  0  0  0
   24.1382  -21.0395  -16.5878 O   0  0  0  0  0  0  0  0  0  0  0  0
   24.8129  -20.4546  -14.4597 N   0  0  0  0  0  0  0  0  0  0  0  0
   24.5880  -21.3917  -13.4189 C   0  0  0  0  0  0  0  0  0  0  0  0
   23.2423  -21.9442  -13.3002 C   0  0  0  0  0  0  0  0  0  0  0  0
   22.9170  -22.7940  -14.2017 O   0  0  0  0  0  0  0  0  0  0  0  0
   18.0833  -25.0038   -6.8385 N   0  0  0  0  0  0  0  0  0  0  0  0
   17.6809  -25.3730   -8.1654 C   0  0  0  0  0  0  0  0  0  0  0  0
   17.0628  -26.5151   -8.3443 N   0  0  0  0  0  0  0  0  0  0  0  0
   17.9268  -24.5472   -9.2927 N   0  0  0  0  0  0  0  0  0  0  0  0
   19.1275  -23.7395   -9.3574 C   0  0  0  0  0  0  0  0  0  0  0  0
   19.1430  -22.9821  -10.6595 C   0  0  0  0  0  0  0  0  0  0  0  0
   20.3786  -22.1413  -10.8239 C   0  0  0  0  0  0  0  0  0  0  0  0
   21.0363  -22.3918  -12.1423 C   0  0  2  0  0  0  0  0  0  0  0  0
   22.2654  -21.6654  -12.3319 N   0  0  0  0  0  0  0  0  0  0  0  0
   20.1090  -21.9675  -13.2501 C   0  0  0  0  0  0  0  0  0  0  0  0
   20.0398  -20.7703  -13.6192 O   0  0  0  0  0  0  0  0  0  0  0  0
   19.3072  -22.8994  -13.8892 O   0  0  0  0  0  0  0  0  0  0  0  0
  1  2  1  0
  2  4  1  0
  3  2  2  0
  5  4  1  0
  5  7  1  0
  5  6  1  1
  7  8  2  0
  9 10  1  0
  9  7  1  0
 10 11  1  0
 11 12  2  0
 11 21  1  0
 13 14  1  0
 14 15  2  0
 16 17  1  0
 16 14  1  0
 17 18  1  0
 19 18  1  0
 20 19  1  1
 21 20  1  0
 22 20  1  0
 22 24  1  0
 23 22  2  0
M  END
$$$$
