NGR.pdb
     RDKit          3D

 24 23  0  0  1  0  0  0  0  0999 V2000
   27.3970  -16.4334  -17.4868 N   0  0  0  0  0  0  0  0  0  0  0  0
   28.3789  -17.4655  -17.5526 C   0  0  0  0  0  0  0  0  0  0  0  0
   29.2054  -17.3781  -18.4957 O   0  0  0  0  0  0  0  0  0  0  0  0
   28.4109  -18.5725  -16.5586 C   0  0  0  0  0  0  0  0  0  0  0  0
   27.2116  -18.4053  -15.6564 C   0  0  2  0  0  0  0  0  0  0  0  0
   27.4516  -17.2373  -14.8328 N   0  0  0  0  0  0  0  0  0  0  0  0
   26.9115  -19.5672  -14.8217 C   0  0  0  0  0  0  0  0  0  0  0  0
   26.2935  -20.5396  -15.3577 O   0  0  0  0  0  0  0  0  0  0  0  0
   27.2665  -19.6783  -13.4504 N   0  0  0  0  0  0  0  0  0  0  0  0
   26.7957  -20.7749  -12.6837 C   0  0  0  0  0  0  0  0  0  0  0  0
   25.4928  -20.6281  -12.0426 C   0  0  0  0  0  0  0  0  0  0  0  0
   24.9954  -19.4482  -12.0752 O   0  0  0  0  0  0  0  0  0  0  0  0
   20.0280  -23.4494   -6.8227 N   0  0  0  0  0  0  0  0  0  0  0  0
   19.4072  -22.6223   -7.8175 C   0  0  0  0  0  0  0  0  0  0  0  0
   18.1498  -22.8344   -8.1217 N   0  0  0  0  0  0  0  0  0  0  0  0
   20.1038  -21.5818   -8.4849 N   0  0  0  0  0  0  0  0  0  0  0  0
   21.4972  -21.3261   -8.1829 C   0  0  0  0  0  0  0  0  0  0  0  0
   22.0197  -20.2701   -9.1216 C   0  0  0  0  0  0  0  0  0  0  0  0
   23.4187  -20.5569   -9.5923 C   0  0  0  0  0  0  0  0  0  0  0  0
   23.4159  -21.4059  -10.8222 C   0  0  2  0  0  0  0  0  0  0  0  0
   24.7203  -21.6071  -11.3988 N   0  0  0  0  0  0  0  0  0  0  0  0
   22.5733  -20.7459  -11.8812 C   0  0  0  0  0  0  0  0  0  0  0  0
   21.5072  -21.2695  -12.2857 O   0  0  0  0  0  0  0  0  0  0  0  0
   22.9624  -19.5366  -12.4343 O   0  0  0  0  0  0  0  0  0  0  0  0
  1  2  1  0
  2  4  1  0
  3  2  2  0
  5  4  1  0
  5  7  1  0
  5  6  1  1
  7  8  2  0
  9 10  1  0
  9  7  1  0
 10 11  1  0
 11 12  2  0
 11 21  1  0
 13 14  1  0
 14 15  2  0
 16 17  1  0
 16 14  1  0
 17 18  1  0
 19 18  1  0
 20 19  1  1
 21 20  1  0
 22 20  1  0
 22 24  1  0
 23 22  2  0
M  END
$$$$
