NGR.pdb
     RDKit          3D

 24 23  0  0  1  0  0  0  0  0999 V2000
   34.3243  -14.8676  -19.9811 N   0  0  0  0  0  0  0  0  0  0  0  0
   33.0802  -14.6913  -19.3067 C   0  0  0  0  0  0  0  0  0  0  0  0
   32.3498  -15.7111  -19.2260 O   0  0  0  0  0  0  0  0  0  0  0  0
   32.6839  -13.3743  -18.7382 C   0  0  0  0  0  0  0  0  0  0  0  0
   31.1771  -13.2924  -18.7941 C   0  0  2  0  0  0  0  0  0  0  0  0
   30.8043  -13.1619  -20.1884 N   0  0  0  0  0  0  0  0  0  0  0  0
   30.5972  -12.2067  -18.0056 C   0  0  0  0  0  0  0  0  0  0  0  0
   30.8918  -12.1468  -16.7709 O   0  0  0  0  0  0  0  0  0  0  0  0
   29.7260  -11.2151  -18.5314 N   0  0  0  0  0  0  0  0  0  0  0  0
   29.0965  -10.2909  -17.6587 C   0  0  0  0  0  0  0  0  0  0  0  0
   28.3065   -9.2281  -18.2726 C   0  0  0  0  0  0  0  0  0  0  0  0
   28.3583   -9.1751  -19.5512 O   0  0  0  0  0  0  0  0  0  0  0  0
   21.6181   -7.6193  -17.9711 N   0  0  0  0  0  0  0  0  0  0  0  0
   21.6666   -8.0368  -16.5992 C   0  0  0  0  0  0  0  0  0  0  0  0
   20.7899   -8.9135  -16.1733 N   0  0  0  0  0  0  0  0  0  0  0  0
   22.6293   -7.5363  -15.6849 N   0  0  0  0  0  0  0  0  0  0  0  0
   23.6516   -6.6136  -16.1342 C   0  0  0  0  0  0  0  0  0  0  0  0
   24.6198   -7.3462  -17.0259 C   0  0  0  0  0  0  0  0  0  0  0  0
   25.8005   -6.5001  -17.4146 C   0  0  0  0  0  0  0  0  0  0  0  0
   26.7324   -7.2462  -18.3138 C   0  0  2  0  0  0  0  0  0  0  0  0
   27.5032   -8.2630  -17.6458 N   0  0  0  0  0  0  0  0  0  0  0  0
   27.7198   -6.2831  -18.9175 C   0  0  0  0  0  0  0  0  0  0  0  0
   28.8351   -6.0726  -18.3826 O   0  0  0  0  0  0  0  0  0  0  0  0
   27.4132   -5.6048  -20.0861 O   0  0  0  0  0  0  0  0  0  0  0  0
  1  2  1  0
  2  4  1  0
  3  2  2  0
  5  4  1  0
  5  7  1  0
  5  6  1  6
  7  8  2  0
  9 10  1  0
  9  7  1  0
 10 11  1  0
 11 12  2  0
 11 21  1  0
 13 14  1  0
 14 15  2  0
 16 17  1  0
 16 14  1  0
 17 18  1  0
 19 18  1  0
 20 19  1  1
 21 20  1  0
 22 20  1  0
 22 24  1  0
 23 22  2  0
M  END
$$$$
