NGR.pdb
     RDKit          3D

 24 23  0  0  1  0  0  0  0  0999 V2000
   27.1796  -19.1883  -17.7155 N   0  0  0  0  0  0  0  0  0  0  0  0
   27.0541  -17.9956  -16.9440 C   0  0  0  0  0  0  0  0  0  0  0  0
   27.9813  -17.1569  -17.0743 O   0  0  0  0  0  0  0  0  0  0  0  0
   25.8908  -17.7712  -16.0433 C   0  0  0  0  0  0  0  0  0  0  0  0
   25.0016  -18.9877  -16.1411 C   0  0  2  0  0  0  0  0  0  0  0  0
   24.4388  -19.0037  -17.4765 N   0  0  0  0  0  0  0  0  0  0  0  0
   23.9403  -19.0477  -15.1378 C   0  0  0  0  0  0  0  0  0  0  0  0
   23.8333  -18.0745  -14.3277 O   0  0  0  0  0  0  0  0  0  0  0  0
   23.0215  -20.1240  -15.0107 N   0  0  0  0  0  0  0  0  0  0  0  0
   21.9627  -20.0440  -14.0702 C   0  0  0  0  0  0  0  0  0  0  0  0
   21.0437  -21.1760  -14.0049 C   0  0  0  0  0  0  0  0  0  0  0  0
   21.3514  -22.1755  -14.7445 O   0  0  0  0  0  0  0  0  0  0  0  0
   19.3741  -24.6972   -7.6741 N   0  0  0  0  0  0  0  0  0  0  0  0
   18.1636  -24.7219   -8.4443 C   0  0  0  0  0  0  0  0  0  0  0  0
   17.0137  -24.7385   -7.8151 N   0  0  0  0  0  0  0  0  0  0  0  0
   18.1644  -24.7285   -9.8632 N   0  0  0  0  0  0  0  0  0  0  0  0
   19.4160  -24.7122  -10.5922 C   0  0  0  0  0  0  0  0  0  0  0  0
   19.6114  -23.3506  -11.2063 C   0  0  0  0  0  0  0  0  0  0  0  0
   18.4463  -22.9285  -12.0579 C   0  0  0  0  0  0  0  0  0  0  0  0
   18.9029  -22.3655  -13.3649 C   0  0  2  0  0  0  0  0  0  0  0  0
   19.8738  -21.3090  -13.2411 N   0  0  0  0  0  0  0  0  0  0  0  0
   17.7225  -21.7832  -14.0960 C   0  0  0  0  0  0  0  0  0  0  0  0
   17.3239  -20.6162  -13.8650 O   0  0  0  0  0  0  0  0  0  0  0  0
   17.0477  -22.5317  -15.0470 O   0  0  0  0  0  0  0  0  0  0  0  0
  1  2  1  0
  2  4  1  0
  3  2  2  0
  5  4  1  0
  5  7  1  0
  5  6  1  6
  7  8  2  0
  9 10  1  0
  9  7  1  0
 10 11  1  0
 11 12  2  0
 11 21  1  0
 13 14  1  0
 14 15  2  0
 16 17  1  0
 16 14  1  0
 17 18  1  0
 19 18  1  0
 20 19  1  1
 21 20  1  0
 22 20  1  0
 22 24  1  0
 23 22  2  0
M  END
$$$$
