NGR.pdb
     RDKit          3D

 24 23  0  0  1  0  0  0  0  0999 V2000
   25.9731  -12.7328  -20.6222 N   0  0  0  0  0  0  0  0  0  0  0  0
   24.8511  -12.8244  -19.7469 C   0  0  0  0  0  0  0  0  0  0  0  0
   23.7558  -12.4210  -20.2137 O   0  0  0  0  0  0  0  0  0  0  0  0
   24.9835  -13.3663  -18.3673 C   0  0  0  0  0  0  0  0  0  0  0  0
   25.3626  -14.8230  -18.4878 C   0  0  2  0  0  0  0  0  0  0  0  0
   24.1521  -15.5593  -18.7926 N   0  0  0  0  0  0  0  0  0  0  0  0
   26.0172  -15.3812  -17.3060 C   0  0  0  0  0  0  0  0  0  0  0  0
   27.1888  -15.8536  -17.4438 O   0  0  0  0  0  0  0  0  0  0  0  0
   25.4274  -15.4291  -16.0143 N   0  0  0  0  0  0  0  0  0  0  0  0
   26.1662  -15.9410  -14.9170 C   0  0  0  0  0  0  0  0  0  0  0  0
   26.0432  -17.3688  -14.6401 C   0  0  0  0  0  0  0  0  0  0  0  0
   25.4704  -18.0575  -15.5555 O   0  0  0  0  0  0  0  0  0  0  0  0
   28.8221  -23.2158  -10.8795 N   0  0  0  0  0  0  0  0  0  0  0  0
   28.9248  -21.9803  -10.1570 C   0  0  0  0  0  0  0  0  0  0  0  0
   30.1130  -21.5427   -9.8176 N   0  0  0  0  0  0  0  0  0  0  0  0
   27.7871  -21.2131   -9.7958 N   0  0  0  0  0  0  0  0  0  0  0  0
   26.4556  -21.6934  -10.1035 C   0  0  0  0  0  0  0  0  0  0  0  0
   26.0827  -21.2556  -11.4958 C   0  0  0  0  0  0  0  0  0  0  0  0
   26.4883  -19.8365  -11.7831 C   0  0  0  0  0  0  0  0  0  0  0  0
   26.0804  -19.4218  -13.1597 C   0  0  2  0  0  0  0  0  0  0  0  0
   26.4688  -18.0791  -13.5069 N   0  0  0  0  0  0  0  0  0  0  0  0
   24.5801  -19.4799  -13.2734 C   0  0  0  0  0  0  0  0  0  0  0  0
   23.8488  -18.6548  -12.6748 O   0  0  0  0  0  0  0  0  0  0  0  0
   23.9727  -20.4547  -14.0486 O   0  0  0  0  0  0  0  0  0  0  0  0
  1  2  1  0
  2  4  1  0
  3  2  2  0
  5  4  1  0
  5  7  1  0
  5  6  1  1
  7  8  2  0
  9 10  1  0
  9  7  1  0
 10 11  1  0
 11 12  2  0
 11 21  1  0
 13 14  1  0
 14 15  2  0
 16 17  1  0
 16 14  1  0
 17 18  1  0
 19 18  1  0
 20 19  1  1
 21 20  1  0
 22 20  1  0
 22 24  1  0
 23 22  2  0
M  END
$$$$
