NGR.pdb
     RDKit          3D

 24 23  0  0  1  0  0  0  0  0999 V2000
   26.0628  -17.8536  -19.6251 N   0  0  0  0  0  0  0  0  0  0  0  0
   25.2599  -16.6832  -19.4865 C   0  0  0  0  0  0  0  0  0  0  0  0
   25.6979  -15.6470  -20.0473 O   0  0  0  0  0  0  0  0  0  0  0  0
   23.9837  -16.7022  -18.7213 C   0  0  0  0  0  0  0  0  0  0  0  0
   23.8034  -18.0990  -18.1765 C   0  0  2  0  0  0  0  0  0  0  0  0
   23.2208  -18.9016  -19.2331 N   0  0  0  0  0  0  0  0  0  0  0  0
   22.9896  -18.1792  -16.9649 C   0  0  0  0  0  0  0  0  0  0  0  0
   23.5842  -18.4002  -15.8638 O   0  0  0  0  0  0  0  0  0  0  0  0
   21.5773  -18.0259  -16.9401 N   0  0  0  0  0  0  0  0  0  0  0  0
   20.7459  -19.1562  -16.7319 C   0  0  0  0  0  0  0  0  0  0  0  0
   21.1412  -20.0884  -15.6807 C   0  0  0  0  0  0  0  0  0  0  0  0
   21.5879  -21.2174  -16.0886 O   0  0  0  0  0  0  0  0  0  0  0  0
   26.9717  -19.8817  -12.2819 N   0  0  0  0  0  0  0  0  0  0  0  0
   26.8656  -21.0306  -11.4288 C   0  0  0  0  0  0  0  0  0  0  0  0
   27.8924  -21.8389  -11.3256 N   0  0  0  0  0  0  0  0  0  0  0  0
   25.6897  -21.3247  -10.6912 N   0  0  0  0  0  0  0  0  0  0  0  0
   24.5444  -20.4406  -10.7609 C   0  0  0  0  0  0  0  0  0  0  0  0
   23.4726  -21.0867  -11.5992 C   0  0  0  0  0  0  0  0  0  0  0  0
   22.8500  -20.1302  -12.5781 C   0  0  0  0  0  0  0  0  0  0  0  0
   21.7102  -20.7636  -13.3084 C   0  0  2  0  0  0  0  0  0  0  0  0
   21.0945  -19.9079  -14.2897 N   0  0  0  0  0  0  0  0  0  0  0  0
   20.6334  -21.1359  -12.3241 C   0  0  0  0  0  0  0  0  0  0  0  0
   19.6868  -20.3535  -12.0670 O   0  0  0  0  0  0  0  0  0  0  0  0
   20.6672  -22.3610  -11.6776 O   0  0  0  0  0  0  0  0  0  0  0  0
  1  2  1  0
  2  4  1  0
  3  2  2  0
  5  4  1  0
  5  7  1  0
  5  6  1  6
  7  8  2  0
  9 10  1  0
  9  7  1  0
 10 11  1  0
 11 12  2  0
 11 21  1  0
 13 14  1  0
 14 15  2  0
 16 17  1  0
 16 14  1  0
 17 18  1  0
 19 18  1  0
 20 19  1  1
 21 20  1  0
 22 20  1  0
 22 24  1  0
 23 22  2  0
M  END
$$$$
