NGR.pdb
     RDKit          3D

 24 23  0  0  1  0  0  0  0  0999 V2000
   23.4644  -21.3719   -7.1909 N   0  0  0  0  0  0  0  0  0  0  0  0
   22.8411  -20.8041   -8.3409 C   0  0  0  0  0  0  0  0  0  0  0  0
   21.5861  -20.7396   -8.3100 O   0  0  0  0  0  0  0  0  0  0  0  0
   23.6403  -20.3219   -9.4999 C   0  0  0  0  0  0  0  0  0  0  0  0
   25.0859  -20.6606   -9.2250 C   0  0  2  0  0  0  0  0  0  0  0  0
   25.3908  -20.1940   -7.8872 N   0  0  0  0  0  0  0  0  0  0  0  0
   26.0347  -20.1063  -10.1889 C   0  0  0  0  0  0  0  0  0  0  0  0
   26.7517  -19.1245   -9.8190 O   0  0  0  0  0  0  0  0  0  0  0  0
   26.2061  -20.5950  -11.5120 N   0  0  0  0  0  0  0  0  0  0  0  0
   27.2304  -20.0626  -12.3364 C   0  0  0  0  0  0  0  0  0  0  0  0
   27.4241  -20.6848  -13.6424 C   0  0  0  0  0  0  0  0  0  0  0  0
   27.6243  -21.9497  -13.6229 O   0  0  0  0  0  0  0  0  0  0  0  0
   24.2112  -24.6584  -17.9194 N   0  0  0  0  0  0  0  0  0  0  0  0
   24.5081  -24.5771  -16.5179 C   0  0  0  0  0  0  0  0  0  0  0  0
   24.9805  -25.6374  -15.9087 N   0  0  0  0  0  0  0  0  0  0  0  0
   24.3100  -23.3904  -15.7657 N   0  0  0  0  0  0  0  0  0  0  0  0
   23.5018  -22.3139  -16.3005 C   0  0  0  0  0  0  0  0  0  0  0  0
   24.4076  -21.2416  -16.8474 C   0  0  0  0  0  0  0  0  0  0  0  0
   25.1527  -20.5085  -15.7666 C   0  0  0  0  0  0  0  0  0  0  0  0
   26.6227  -20.4893  -16.0356 C   0  0  2  0  0  0  0  0  0  0  0  0
   27.4197  -20.0789  -14.9083 N   0  0  0  0  0  0  0  0  0  0  0  0
   26.9131  -19.5156  -17.1466 C   0  0  0  0  0  0  0  0  0  0  0  0
   26.8187  -18.2771  -16.9690 O   0  0  0  0  0  0  0  0  0  0  0  0
   27.2939  -19.9726  -18.3980 O   0  0  0  0  0  0  0  0  0  0  0  0
  1  2  1  0
  2  4  1  0
  3  2  2  0
  5  4  1  0
  5  7  1  0
  5  6  1  1
  7  8  2  0
  9 10  1  0
  9  7  1  0
 10 11  1  0
 11 12  2  0
 11 21  1  0
 13 14  1  0
 14 15  2  0
 16 17  1  0
 16 14  1  0
 17 18  1  0
 19 18  1  0
 20 19  1  1
 21 20  1  0
 22 20  1  0
 22 24  1  0
 23 22  2  0
M  END
$$$$
