NGR.pdb
     RDKit          3D

 24 23  0  0  1  0  0  0  0  0999 V2000
   28.8223  -22.0593  -17.7597 N   0  0  0  0  0  0  0  0  0  0  0  0
   28.6154  -20.7665  -17.1947 C   0  0  0  0  0  0  0  0  0  0  0  0
   29.6268  -20.0219  -17.1416 O   0  0  0  0  0  0  0  0  0  0  0  0
   27.2781  -20.3384  -16.7018 C   0  0  0  0  0  0  0  0  0  0  0  0
   26.3617  -21.5359  -16.7821 C   0  0  2  0  0  0  0  0  0  0  0  0
   25.1254  -21.0920  -17.3943 N   0  0  0  0  0  0  0  0  0  0  0  0
   26.0937  -22.1841  -15.4996 C   0  0  0  0  0  0  0  0  0  0  0  0
   26.9083  -21.9748  -14.5469 O   0  0  0  0  0  0  0  0  0  0  0  0
   24.9815  -23.0325  -15.2506 N   0  0  0  0  0  0  0  0  0  0  0  0
   24.1942  -22.8444  -14.0858 C   0  0  0  0  0  0  0  0  0  0  0  0
   22.8789  -22.2370  -14.2625 C   0  0  0  0  0  0  0  0  0  0  0  0
   22.6278  -21.8064  -15.4424 O   0  0  0  0  0  0  0  0  0  0  0  0
   16.9903  -25.3582   -9.4061 N   0  0  0  0  0  0  0  0  0  0  0  0
   17.9517  -24.4857   -8.7951 C   0  0  0  0  0  0  0  0  0  0  0  0
   18.1475  -24.5668   -7.5014 N   0  0  0  0  0  0  0  0  0  0  0  0
   18.7000  -23.5373   -9.5395 N   0  0  0  0  0  0  0  0  0  0  0  0
   18.5134  -23.4224  -10.9713 C   0  0  0  0  0  0  0  0  0  0  0  0
   19.5383  -22.4688  -11.5275 C   0  0  0  0  0  0  0  0  0  0  0  0
   19.4288  -22.3082  -13.0185 C   0  0  0  0  0  0  0  0  0  0  0  0
   20.5607  -21.4987  -13.5635 C   0  0  2  0  0  0  0  0  0  0  0  0
   21.8609  -22.0649  -13.3119 N   0  0  0  0  0  0  0  0  0  0  0  0
   20.5522  -20.1361  -12.9231 C   0  0  0  0  0  0  0  0  0  0  0  0
   21.4151  -19.8104  -12.0725 O   0  0  0  0  0  0  0  0  0  0  0  0
   19.5825  -19.2070  -13.2640 O   0  0  0  0  0  0  0  0  0  0  0  0
  1  2  1  0
  2  4  1  0
  3  2  2  0
  5  4  1  0
  5  7  1  0
  5  6  1  1
  7  8  2  0
  9 10  1  0
  9  7  1  0
 10 11  1  0
 11 12  2  0
 11 21  1  0
 13 14  1  0
 14 15  2  0
 16 17  1  0
 16 14  1  0
 17 18  1  0
 19 18  1  0
 20 19  1  1
 21 20  1  0
 22 20  1  0
 22 24  1  0
 23 22  2  0
M  END
$$$$
