NGR.pdb
     RDKit          3D

 24 23  0  0  1  0  0  0  0  0999 V2000
   26.4099  -22.6367  -15.5226 N   0  0  0  0  0  0  0  0  0  0  0  0
   26.6400  -21.3376  -14.9816 C   0  0  0  0  0  0  0  0  0  0  0  0
   27.8360  -20.9509  -14.9709 O   0  0  0  0  0  0  0  0  0  0  0  0
   25.5226  -20.5017  -14.4645 C   0  0  0  0  0  0  0  0  0  0  0  0
   24.2398  -21.2601  -14.7084 C   0  0  2  0  0  0  0  0  0  0  0  0
   24.0292  -21.3005  -16.1417 N   0  0  0  0  0  0  0  0  0  0  0  0
   23.0674  -20.7053  -14.0344 C   0  0  0  0  0  0  0  0  0  0  0  0
   22.9127  -19.4442  -14.0540 O   0  0  0  0  0  0  0  0  0  0  0  0
   22.0907  -21.4857  -13.3593 N   0  0  0  0  0  0  0  0  0  0  0  0
   20.9459  -20.8603  -12.8022 C   0  0  0  0  0  0  0  0  0  0  0  0
   19.8957  -21.7329  -12.2864 C   0  0  0  0  0  0  0  0  0  0  0  0
   19.1085  -22.2245  -13.1691 O   0  0  0  0  0  0  0  0  0  0  0  0
   17.4817  -25.8693   -4.4902 N   0  0  0  0  0  0  0  0  0  0  0  0
   17.3462  -26.7380   -5.6242 C   0  0  0  0  0  0  0  0  0  0  0  0
   17.0499  -27.9991   -5.4232 N   0  0  0  0  0  0  0  0  0  0  0  0
   17.5205  -26.2828   -6.9567 N   0  0  0  0  0  0  0  0  0  0  0  0
   18.2416  -25.0543   -7.2196 C   0  0  0  0  0  0  0  0  0  0  0  0
   18.1740  -24.7482   -8.6930 C   0  0  0  0  0  0  0  0  0  0  0  0
   18.9629  -23.5234   -9.0652 C   0  0  0  0  0  0  0  0  0  0  0  0
   18.8741  -23.2432  -10.5305 C   0  0  2  0  0  0  0  0  0  0  0  0
   19.6392  -22.0996  -10.9562 N   0  0  0  0  0  0  0  0  0  0  0  0
   17.4409  -22.9648  -10.8985 C   0  0  0  0  0  0  0  0  0  0  0  0
   16.9374  -21.8262  -10.7422 O   0  0  0  0  0  0  0  0  0  0  0  0
   16.6433  -23.9696  -11.4218 O   0  0  0  0  0  0  0  0  0  0  0  0
  1  2  1  0
  2  4  1  0
  3  2  2  0
  5  4  1  0
  5  7  1  0
  5  6  1  6
  7  8  2  0
  9 10  1  0
  9  7  1  0
 10 11  1  0
 11 12  2  0
 11 21  1  0
 13 14  1  0
 14 15  2  0
 16 17  1  0
 16 14  1  0
 17 18  1  0
 19 18  1  0
 20 19  1  1
 21 20  1  0
 22 20  1  0
 22 24  1  0
 23 22  2  0
M  END
$$$$
