TDG.pdb
     RDKit          3D

 20 19  0  0  1  0  0  0  0  0999 V2000
   26.5032  -10.2534  -14.9741 C   0  0  0  0  0  0  0  0  0  0  0  0
   26.5346  -10.9015  -16.3214 C   0  0  1  0  0  0  0  0  0  0  0  0
   27.4887  -11.8983  -16.3476 O   0  0  0  0  0  0  0  0  0  0  0  0
   25.1887  -11.4667  -16.7279 C   0  0  2  0  0  0  0  0  0  0  0  0
   25.3559  -12.0833  -18.0564 N   0  0  0  0  0  0  0  0  0  0  0  0
   24.1228  -10.4326  -16.7784 C   0  0  0  0  0  0  0  0  0  0  0  0
   24.0907   -9.6596  -17.7445 O   0  0  0  0  0  0  0  0  0  0  0  0
   23.1505  -10.3075  -15.7616 N   0  0  0  0  0  0  0  0  0  0  0  0
   22.1021   -9.3302  -15.7967 C   0  0  1  0  0  0  0  0  0  0  0  0
   20.7753   -9.8480  -15.3584 C   0  0  0  0  0  0  0  0  0  0  0  0
   20.2920  -11.0089  -16.1344 C   0  0  0  0  0  0  0  0  0  0  0  0
   19.7148  -11.9706  -15.5777 O   0  0  0  0  0  0  0  0  0  0  0  0
   22.4694   -8.1471  -14.9854 C   0  0  0  0  0  0  0  0  0  0  0  0
   22.7000   -8.2401  -13.7560 O   0  0  0  0  0  0  0  0  0  0  0  0
   20.4494  -11.0990  -17.5177 O   0  0  0  0  0  0  0  0  0  0  0  0
   22.5722   -6.8671  -15.5787 N   0  0  0  0  0  0  0  0  0  0  0  0
   23.0066   -5.7003  -14.8708 C   0  0  0  0  0  0  0  0  0  0  0  0
   21.8525   -4.9245  -14.3441 C   0  0  0  0  0  0  0  0  0  0  0  0
   22.0038   -3.7656  -13.6106 O   0  0  0  0  0  0  0  0  0  0  0  0
   20.6957   -5.3517  -14.5833 O   0  0  0  0  0  0  0  0  0  0  0  0
  2  1  1  1
  3  2  1  0
  4  5  1  6
  4  2  1  0
  6  4  1  0
  7  6  2  0
  8  6  1  0
  9 10  1  1
  9  8  1  0
 10 11  1  0
 11 12  2  0
 13 16  1  0
 13  9  1  0
 14 13  2  0
 15 11  1  0
 17 16  1  0
 18 17  1  0
 19 18  1  0
 20 18  2  0
M  END
$$$$
