TDG.pdb
     RDKit          3D

 20 19  0  0  1  0  0  0  0  0999 V2000
   16.0539   -5.0735   -9.7528 C   0  0  0  0  0  0  0  0  0  0  0  0
   15.5850   -6.2496   -8.9572 C   0  0  1  0  0  0  0  0  0  0  0  0
   14.3575   -5.9795   -8.3872 O   0  0  0  0  0  0  0  0  0  0  0  0
   15.5007   -7.5167   -9.7841 C   0  0  2  0  0  0  0  0  0  0  0  0
   15.0829   -8.6030   -8.8795 N   0  0  0  0  0  0  0  0  0  0  0  0
   16.7905   -7.8652  -10.4345 C   0  0  0  0  0  0  0  0  0  0  0  0
   17.6659   -8.4199   -9.7579 O   0  0  0  0  0  0  0  0  0  0  0  0
   17.0445   -7.5835  -11.7950 N   0  0  0  0  0  0  0  0  0  0  0  0
   18.2637   -7.9479  -12.4557 C   0  0  1  0  0  0  0  0  0  0  0  0
   18.0731   -8.4547  -13.8441 C   0  0  0  0  0  0  0  0  0  0  0  0
   17.2189   -9.6567  -13.9379 C   0  0  0  0  0  0  0  0  0  0  0  0
   16.0699   -9.6029  -14.4328 O   0  0  0  0  0  0  0  0  0  0  0  0
   19.2084   -6.8075  -12.4654 C   0  0  0  0  0  0  0  0  0  0  0  0
   18.8051   -5.6216  -12.5315 O   0  0  0  0  0  0  0  0  0  0  0  0
   17.6393  -10.9075  -13.4851 O   0  0  0  0  0  0  0  0  0  0  0  0
   20.6046   -7.0246  -12.3992 N   0  0  0  0  0  0  0  0  0  0  0  0
   21.5694   -5.9662  -12.3868 C   0  0  0  0  0  0  0  0  0  0  0  0
   21.6269   -5.2694  -13.6992 C   0  0  0  0  0  0  0  0  0  0  0  0
   22.4897   -4.2227  -13.9520 O   0  0  0  0  0  0  0  0  0  0  0  0
   20.8527   -5.6587  -14.6086 O   0  0  0  0  0  0  0  0  0  0  0  0
  2  1  1  6
  3  2  1  0
  4  5  1  1
  4  2  1  0
  6  4  1  0
  7  6  2  0
  8  6  1  0
  9 10  1  6
  9  8  1  0
 10 11  1  0
 11 12  2  0
 13 16  1  0
 13  9  1  0
 14 13  2  0
 15 11  1  0
 17 16  1  0
 18 17  1  0
 19 18  1  0
 20 18  2  0
M  END
$$$$
