TDG.pdb
     RDKit          3D

 20 19  0  0  1  0  0  0  0  0999 V2000
   21.4181   -9.1958  -19.8947 C   0  0  0  0  0  0  0  0  0  0  0  0
   22.5720  -10.1045  -19.6139 C   0  0  1  0  0  0  0  0  0  0  0  0
   23.1787  -10.4818  -20.7948 O   0  0  0  0  0  0  0  0  0  0  0  0
   23.5947   -9.4787  -18.6871 C   0  0  2  0  0  0  0  0  0  0  0  0
   24.6740  -10.4645  -18.4966 N   0  0  0  0  0  0  0  0  0  0  0  0
   23.0193   -9.0950  -17.3719 C   0  0  0  0  0  0  0  0  0  0  0  0
   22.7455   -9.9883  -16.5602 O   0  0  0  0  0  0  0  0  0  0  0  0
   22.7777   -7.7478  -17.0234 N   0  0  0  0  0  0  0  0  0  0  0  0
   22.2656   -7.3495  -15.7449 C   0  0  1  0  0  0  0  0  0  0  0  0
   22.7764   -6.0324  -15.2704 C   0  0  0  0  0  0  0  0  0  0  0  0
   22.3966   -5.7004  -13.8816 C   0  0  0  0  0  0  0  0  0  0  0  0
   21.9364   -6.5693  -13.1061 O   0  0  0  0  0  0  0  0  0  0  0  0
   20.7849   -7.3344  -15.7617 C   0  0  0  0  0  0  0  0  0  0  0  0
   20.1449   -6.5595  -16.5122 O   0  0  0  0  0  0  0  0  0  0  0  0
   22.5277   -4.4132  -13.3600 O   0  0  0  0  0  0  0  0  0  0  0  0
   20.0434   -8.2013  -14.9253 N   0  0  0  0  0  0  0  0  0  0  0  0
   18.6130   -8.2730  -14.9310 C   0  0  0  0  0  0  0  0  0  0  0  0
   18.1216   -9.2220  -15.9650 C   0  0  0  0  0  0  0  0  0  0  0  0
   16.8857   -9.8314  -15.8926 O   0  0  0  0  0  0  0  0  0  0  0  0
   18.8718   -9.4719  -16.9410 O   0  0  0  0  0  0  0  0  0  0  0  0
  2  1  1  6
  3  2  1  0
  4  5  1  1
  4  2  1  0
  6  4  1  0
  7  6  2  0
  8  6  1  0
  9 10  1  6
  9  8  1  0
 10 11  1  0
 11 12  2  0
 13 16  1  0
 13  9  1  0
 14 13  2  0
 15 11  1  0
 17 16  1  0
 18 17  1  0
 19 18  1  0
 20 18  2  0
M  END
$$$$
