TDG.pdb
     RDKit          3D

 20 19  0  0  1  0  0  0  0  0999 V2000
   23.2781   -9.4533  -18.2620 C   0  0  0  0  0  0  0  0  0  0  0  0
   22.1193  -10.3085  -18.6646 C   0  0  1  0  0  0  0  0  0  0  0  0
   22.5683  -11.4569  -19.2845 O   0  0  0  0  0  0  0  0  0  0  0  0
   21.2277  -10.6707  -17.4940 C   0  0  2  0  0  0  0  0  0  0  0  0
   20.2147  -11.6187  -17.9921 N   0  0  0  0  0  0  0  0  0  0  0  0
   20.5623   -9.4868  -16.8909 C   0  0  0  0  0  0  0  0  0  0  0  0
   19.8848   -8.7509  -17.6198 O   0  0  0  0  0  0  0  0  0  0  0  0
   20.6795   -9.1794  -15.5173 N   0  0  0  0  0  0  0  0  0  0  0  0
   20.1148   -8.0009  -14.9277 C   0  0  1  0  0  0  0  0  0  0  0  0
   19.0649   -8.2769  -13.9067 C   0  0  0  0  0  0  0  0  0  0  0  0
   17.8889   -9.0033  -14.4288 C   0  0  0  0  0  0  0  0  0  0  0  0
   17.3633   -8.6928  -15.5221 O   0  0  0  0  0  0  0  0  0  0  0  0
   21.1781   -7.1574  -14.3354 C   0  0  0  0  0  0  0  0  0  0  0  0
   22.1132   -7.6554  -13.6639 O   0  0  0  0  0  0  0  0  0  0  0  0
   17.3026  -10.0659  -13.7406 O   0  0  0  0  0  0  0  0  0  0  0  0
   21.1701   -5.7539  -14.5119 N   0  0  0  0  0  0  0  0  0  0  0  0
   22.1538   -4.8805  -13.9457 C   0  0  0  0  0  0  0  0  0  0  0  0
   21.8519   -3.4560  -14.2469 C   0  0  0  0  0  0  0  0  0  0  0  0
   20.7975   -3.0692  -15.0486 O   0  0  0  0  0  0  0  0  0  0  0  0
   22.5947   -2.5762  -13.7448 O   0  0  0  0  0  0  0  0  0  0  0  0
  2  1  1  1
  3  2  1  0
  4  5  1  6
  4  2  1  0
  6  4  1  0
  7  6  2  0
  8  6  1  0
  9 10  1  1
  9  8  1  0
 10 11  1  0
 11 12  2  0
 13 16  1  0
 13  9  1  0
 14 13  2  0
 15 11  1  0
 17 16  1  0
 18 17  1  0
 19 18  1  0
 20 18  2  0
M  END
$$$$
