TDG.pdb
     RDKit          3D

 20 19  0  0  1  0  0  0  0  0999 V2000
   19.0472  -11.2605  -17.6911 C   0  0  0  0  0  0  0  0  0  0  0  0
   20.4783  -11.2274  -17.2587 C   0  0  1  0  0  0  0  0  0  0  0  0
   21.1346  -12.3587  -17.6991 O   0  0  0  0  0  0  0  0  0  0  0  0
   21.2053   -9.9893  -17.7436 C   0  0  2  0  0  0  0  0  0  0  0  0
   22.6496  -10.2780  -17.6837 N   0  0  0  0  0  0  0  0  0  0  0  0
   20.8939   -8.7849  -16.9309 C   0  0  0  0  0  0  0  0  0  0  0  0
   19.7087   -8.4638  -16.7752 O   0  0  0  0  0  0  0  0  0  0  0  0
   21.9057   -8.0010  -16.3338 N   0  0  0  0  0  0  0  0  0  0  0  0
   21.6344   -6.8018  -15.5963 C   0  0  1  0  0  0  0  0  0  0  0  0
   22.2735   -6.7596  -14.2507 C   0  0  0  0  0  0  0  0  0  0  0  0
   21.9785   -5.5348  -13.4786 C   0  0  0  0  0  0  0  0  0  0  0  0
   20.8725   -5.3699  -12.9151 O   0  0  0  0  0  0  0  0  0  0  0  0
   22.0372   -5.6104  -16.3782 C   0  0  0  0  0  0  0  0  0  0  0  0
   21.8413   -4.4477  -15.9505 O   0  0  0  0  0  0  0  0  0  0  0  0
   22.9059   -4.5025  -13.3346 O   0  0  0  0  0  0  0  0  0  0  0  0
   22.6601   -5.7506  -17.6404 N   0  0  0  0  0  0  0  0  0  0  0  0
   23.0662   -4.6405  -18.4491 C   0  0  0  0  0  0  0  0  0  0  0  0
   22.0260   -4.2914  -19.4526 C   0  0  0  0  0  0  0  0  0  0  0  0
   20.8132   -3.7310  -19.1074 O   0  0  0  0  0  0  0  0  0  0  0  0
   22.2726   -4.5207  -20.6628 O   0  0  0  0  0  0  0  0  0  0  0  0
  2  1  1  6
  3  2  1  0
  4  5  1  1
  4  2  1  0
  6  4  1  0
  7  6  2  0
  8  6  1  0
  9 10  1  1
  9  8  1  0
 10 11  1  0
 11 12  2  0
 13 16  1  0
 13  9  1  0
 14 13  2  0
 15 11  1  0
 17 16  1  0
 18 17  1  0
 19 18  1  0
 20 18  2  0
M  END
$$$$
