TDG.pdb
     RDKit          3D

 20 19  0  0  1  0  0  0  0  0999 V2000
   25.4929   -9.8223  -15.0296 C   0  0  0  0  0  0  0  0  0  0  0  0
   25.9551  -10.2652  -16.3810 C   0  0  1  0  0  0  0  0  0  0  0  0
   26.9733  -11.1884  -16.2566 O   0  0  0  0  0  0  0  0  0  0  0  0
   24.8339  -10.8455  -17.2192 C   0  0  2  0  0  0  0  0  0  0  0  0
   25.4302  -11.3160  -18.4826 N   0  0  0  0  0  0  0  0  0  0  0  0
   23.7582   -9.8600  -17.5013 C   0  0  0  0  0  0  0  0  0  0  0  0
   23.9545   -8.9985  -18.3680 O   0  0  0  0  0  0  0  0  0  0  0  0
   22.5249   -9.8784  -16.8131 N   0  0  0  0  0  0  0  0  0  0  0  0
   21.4509   -8.9752  -17.1066 C   0  0  1  0  0  0  0  0  0  0  0  0
   20.1225   -9.6366  -17.2433 C   0  0  0  0  0  0  0  0  0  0  0  0
   19.7121  -10.4211  -16.0603 C   0  0  0  0  0  0  0  0  0  0  0  0
   20.2272  -11.5336  -15.8051 O   0  0  0  0  0  0  0  0  0  0  0  0
   21.3752   -7.9096  -16.0811 C   0  0  0  0  0  0  0  0  0  0  0  0
   20.5125   -7.0010  -16.1411 O   0  0  0  0  0  0  0  0  0  0  0  0
   18.7373   -9.9720  -15.1691 O   0  0  0  0  0  0  0  0  0  0  0  0
   22.2810   -7.8858  -14.9948 N   0  0  0  0  0  0  0  0  0  0  0  0
   22.1996   -6.9446  -13.9184 C   0  0  0  0  0  0  0  0  0  0  0  0
   22.5415   -5.5705  -14.3724 C   0  0  0  0  0  0  0  0  0  0  0  0
   22.7356   -5.2492  -15.7002 O   0  0  0  0  0  0  0  0  0  0  0  0
   22.6559   -4.6725  -13.5016 O   0  0  0  0  0  0  0  0  0  0  0  0
  2  1  1  1
  3  2  1  0
  4  5  1  6
  4  2  1  0
  6  4  1  0
  7  6  2  0
  8  6  1  0
  9 10  1  1
  9  8  1  0
 10 11  1  0
 11 12  2  0
 13 16  1  0
 13  9  1  0
 14 13  2  0
 15 11  1  0
 17 16  1  0
 18 17  1  0
 19 18  1  0
 20 18  2  0
M  END
$$$$
