TDG.pdb
     RDKit          3D

 20 19  0  0  1  0  0  0  0  0999 V2000
   16.9394   -8.0171  -17.1166 C   0  0  0  0  0  0  0  0  0  0  0  0
   16.5330   -9.2363  -16.3520 C   0  0  1  0  0  0  0  0  0  0  0  0
   15.3072   -9.6894  -16.7957 O   0  0  0  0  0  0  0  0  0  0  0  0
   17.5568  -10.3498  -16.4432 C   0  0  2  0  0  0  0  0  0  0  0  0
   17.0182  -11.5019  -15.6979 N   0  0  0  0  0  0  0  0  0  0  0  0
   18.8798   -9.9605  -15.8898 C   0  0  0  0  0  0  0  0  0  0  0  0
   19.0182   -9.9113  -14.6608 O   0  0  0  0  0  0  0  0  0  0  0  0
   19.9778   -9.6472  -16.7212 N   0  0  0  0  0  0  0  0  0  0  0  0
   21.2604   -9.2593  -16.2114 C   0  0  1  0  0  0  0  0  0  0  0  0
   22.4091   -9.7414  -17.0292 C   0  0  0  0  0  0  0  0  0  0  0  0
   22.4770  -11.2106  -17.1711 C   0  0  0  0  0  0  0  0  0  0  0  0
   22.7962  -11.9445  -16.2081 O   0  0  0  0  0  0  0  0  0  0  0  0
   21.3355   -7.7879  -16.0630 C   0  0  0  0  0  0  0  0  0  0  0  0
   21.1082   -7.0184  -17.0272 O   0  0  0  0  0  0  0  0  0  0  0  0
   22.1922  -11.8577  -18.3738 O   0  0  0  0  0  0  0  0  0  0  0  0
   21.6680   -7.2027  -14.8189 N   0  0  0  0  0  0  0  0  0  0  0  0
   21.7290   -5.7883  -14.6018 C   0  0  0  0  0  0  0  0  0  0  0  0
   21.9853   -5.4697  -13.1721 C   0  0  0  0  0  0  0  0  0  0  0  0
   21.9679   -6.4271  -12.1786 O   0  0  0  0  0  0  0  0  0  0  0  0
   22.2268   -4.2752  -12.8677 O   0  0  0  0  0  0  0  0  0  0  0  0
  2  1  1  6
  3  2  1  0
  4  5  1  1
  4  2  1  0
  6  4  1  0
  7  6  2  0
  8  6  1  0
  9 10  1  6
  9  8  1  0
 10 11  1  0
 11 12  2  0
 13 16  1  0
 13  9  1  0
 14 13  2  0
 15 11  1  0
 17 16  1  0
 18 17  1  0
 19 18  1  0
 20 18  2  0
M  END
$$$$
