TDG.pdb
     RDKit          3D

 20 19  0  0  1  0  0  0  0  0999 V2000
   19.6092   -8.6632  -18.8548 C   0  0  0  0  0  0  0  0  0  0  0  0
   19.1649   -9.5780  -17.7586 C   0  0  1  0  0  0  0  0  0  0  0  0
   19.2209  -10.8903  -18.1822 O   0  0  0  0  0  0  0  0  0  0  0  0
   19.9813   -9.4107  -16.4929 C   0  0  2  0  0  0  0  0  0  0  0  0
   19.5064  -10.4198  -15.5289 N   0  0  0  0  0  0  0  0  0  0  0  0
   19.8594   -8.0509  -15.9062 C   0  0  0  0  0  0  0  0  0  0  0  0
   18.7761   -7.7121  -15.4127 O   0  0  0  0  0  0  0  0  0  0  0  0
   20.9382   -7.1394  -15.8951 N   0  0  0  0  0  0  0  0  0  0  0  0
   20.8616   -5.8428  -15.2882 C   0  0  1  0  0  0  0  0  0  0  0  0
   21.9952   -5.5343  -14.3713 C   0  0  0  0  0  0  0  0  0  0  0  0
   21.8095   -6.0288  -12.9914 C   0  0  0  0  0  0  0  0  0  0  0  0
   22.7152   -5.9220  -12.1332 O   0  0  0  0  0  0  0  0  0  0  0  0
   20.7573   -4.7908  -16.3251 C   0  0  0  0  0  0  0  0  0  0  0  0
   21.4694   -4.8137  -17.3574 O   0  0  0  0  0  0  0  0  0  0  0  0
   20.6267   -6.6366  -12.5697 O   0  0  0  0  0  0  0  0  0  0  0  0
   19.8433   -3.7209  -16.1804 N   0  0  0  0  0  0  0  0  0  0  0  0
   19.7315   -2.6444  -17.1184 C   0  0  0  0  0  0  0  0  0  0  0  0
   18.6828   -1.6737  -16.7074 C   0  0  0  0  0  0  0  0  0  0  0  0
   17.8620   -1.8778  -15.6171 O   0  0  0  0  0  0  0  0  0  0  0  0
   18.5474   -0.6273  -17.3889 O   0  0  0  0  0  0  0  0  0  0  0  0
  2  1  1  6
  3  2  1  0
  4  5  1  1
  4  2  1  0
  6  4  1  0
  7  6  2  0
  8  6  1  0
  9 10  1  6
  9  8  1  0
 10 11  1  0
 11 12  2  0
 13 16  1  0
 13  9  1  0
 14 13  2  0
 15 11  1  0
 17 16  1  0
 18 17  1  0
 19 18  1  0
 20 18  2  0
M  END
$$$$
