TDG.pdb
     RDKit          3D

 20 19  0  0  1  0  0  0  0  0999 V2000
   13.2416  -10.7960   -8.9842 C   0  0  0  0  0  0  0  0  0  0  0  0
   14.0292   -9.8345   -9.8157 C   0  0  1  0  0  0  0  0  0  0  0  0
   13.4729   -9.7274  -11.0742 O   0  0  0  0  0  0  0  0  0  0  0  0
   14.1322   -8.4627   -9.1802 C   0  0  2  0  0  0  0  0  0  0  0  0
   12.7760   -7.8852   -9.1628 N   0  0  0  0  0  0  0  0  0  0  0  0
   15.0594   -7.5596   -9.9101 C   0  0  0  0  0  0  0  0  0  0  0  0
   14.5923   -6.7873  -10.7570 O   0  0  0  0  0  0  0  0  0  0  0  0
   16.4506   -7.5569   -9.6662 N   0  0  0  0  0  0  0  0  0  0  0  0
   17.3784   -6.7771  -10.4321 C   0  0  1  0  0  0  0  0  0  0  0  0
   17.8755   -5.5616   -9.7276 C   0  0  0  0  0  0  0  0  0  0  0  0
   16.8547   -4.5097   -9.5415 C   0  0  0  0  0  0  0  0  0  0  0  0
   16.2926   -3.9663  -10.5196 O   0  0  0  0  0  0  0  0  0  0  0  0
   18.5251   -7.6101  -10.8609 C   0  0  0  0  0  0  0  0  0  0  0  0
   19.1445   -8.3411  -10.0513 O   0  0  0  0  0  0  0  0  0  0  0  0
   16.4627   -4.0661   -8.2782 O   0  0  0  0  0  0  0  0  0  0  0  0
   18.9584   -7.6059  -12.2074 N   0  0  0  0  0  0  0  0  0  0  0  0
   20.1508   -8.2601  -12.6561 C   0  0  0  0  0  0  0  0  0  0  0  0
   20.3815   -8.0316  -14.1072 C   0  0  0  0  0  0  0  0  0  0  0  0
   21.5400   -8.4184  -14.7495 O   0  0  0  0  0  0  0  0  0  0  0  0
   19.4768   -7.4615  -14.7662 O   0  0  0  0  0  0  0  0  0  0  0  0
  2  1  1  1
  3  2  1  0
  4  5  1  6
  4  2  1  0
  6  4  1  0
  7  6  2  0
  8  6  1  0
  9 10  1  1
  9  8  1  0
 10 11  1  0
 11 12  2  0
 13 16  1  0
 13  9  1  0
 14 13  2  0
 15 11  1  0
 17 16  1  0
 18 17  1  0
 19 18  1  0
 20 18  2  0
M  END
$$$$
