TDG.pdb
     RDKit          3D

 20 19  0  0  1  0  0  0  0  0999 V2000
   26.1742  -10.0049  -14.7922 C   0  0  0  0  0  0  0  0  0  0  0  0
   26.3611  -10.6435  -16.1313 C   0  0  1  0  0  0  0  0  0  0  0  0
   27.4574  -11.4816  -16.1098 O   0  0  0  0  0  0  0  0  0  0  0  0
   25.1362  -11.4102  -16.5876 C   0  0  2  0  0  0  0  0  0  0  0  0
   25.4617  -12.0210  -17.8892 N   0  0  0  0  0  0  0  0  0  0  0  0
   23.9338  -10.5470  -16.7181 C   0  0  0  0  0  0  0  0  0  0  0  0
   23.7329   -9.9671  -17.7930 O   0  0  0  0  0  0  0  0  0  0  0  0
   23.0184  -10.3706  -15.6570 N   0  0  0  0  0  0  0  0  0  0  0  0
   21.8380   -9.5645  -15.7670 C   0  0  1  0  0  0  0  0  0  0  0  0
   20.5817  -10.2747  -15.3953 C   0  0  0  0  0  0  0  0  0  0  0  0
   20.2500  -11.4171  -16.2718 C   0  0  0  0  0  0  0  0  0  0  0  0
   20.5602  -12.5895  -15.9600 O   0  0  0  0  0  0  0  0  0  0  0  0
   21.9743   -8.3329  -14.9562 C   0  0  0  0  0  0  0  0  0  0  0  0
   22.5161   -8.3484  -13.8250 O   0  0  0  0  0  0  0  0  0  0  0  0
   19.5792  -11.2566  -17.4844 O   0  0  0  0  0  0  0  0  0  0  0  0
   21.4938   -7.0929  -15.4382 N   0  0  0  0  0  0  0  0  0  0  0  0
   21.5506   -5.8763  -14.6846 C   0  0  0  0  0  0  0  0  0  0  0  0
   22.8373   -5.1633  -14.9019 C   0  0  0  0  0  0  0  0  0  0  0  0
   23.8215   -5.6383  -15.7443 O   0  0  0  0  0  0  0  0  0  0  0  0
   23.0251   -4.0840  -14.2874 O   0  0  0  0  0  0  0  0  0  0  0  0
  2  1  1  1
  3  2  1  0
  4  5  1  6
  4  2  1  0
  6  4  1  0
  7  6  2  0
  8  6  1  0
  9 10  1  1
  9  8  1  0
 10 11  1  0
 11 12  2  0
 13 16  1  0
 13  9  1  0
 14 13  2  0
 15 11  1  0
 17 16  1  0
 18 17  1  0
 19 18  1  0
 20 18  2  0
M  END
$$$$
