TDG.pdb
     RDKit          3D

 20 19  0  0  1  0  0  0  0  0999 V2000
   17.4277  -11.0460  -13.4050 C   0  0  0  0  0  0  0  0  0  0  0  0
   17.3551  -11.8930  -14.6353 C   0  0  1  0  0  0  0  0  0  0  0  0
   16.3585  -12.8386  -14.5037 O   0  0  0  0  0  0  0  0  0  0  0  0
   17.1277  -11.0773  -15.8920 C   0  0  2  0  0  0  0  0  0  0  0  0
   17.1081  -12.0179  -17.0269 N   0  0  0  0  0  0  0  0  0  0  0  0
   18.1762  -10.0461  -16.1051 C   0  0  0  0  0  0  0  0  0  0  0  0
   19.2402  -10.3828  -16.6404 O   0  0  0  0  0  0  0  0  0  0  0  0
   17.9943   -8.7003  -15.7171 N   0  0  0  0  0  0  0  0  0  0  0  0
   18.9796   -7.6822  -15.9361 C   0  0  1  0  0  0  0  0  0  0  0  0
   18.4270   -6.4110  -16.4835 C   0  0  0  0  0  0  0  0  0  0  0  0
   17.6460   -6.5761  -17.7269 C   0  0  0  0  0  0  0  0  0  0  0  0
   16.3987   -6.4651  -17.7329 O   0  0  0  0  0  0  0  0  0  0  0  0
   19.7254   -7.4058  -14.6870 C   0  0  0  0  0  0  0  0  0  0  0  0
   19.1333   -7.2075  -13.5992 O   0  0  0  0  0  0  0  0  0  0  0  0
   18.2473   -6.8622  -18.9528 O   0  0  0  0  0  0  0  0  0  0  0  0
   21.1391   -7.3576  -14.6845 N   0  0  0  0  0  0  0  0  0  0  0  0
   21.9214   -7.1668  -13.5001 C   0  0  0  0  0  0  0  0  0  0  0  0
   21.9310   -5.7403  -13.0805 C   0  0  0  0  0  0  0  0  0  0  0  0
   22.6176   -5.2928  -11.9704 O   0  0  0  0  0  0  0  0  0  0  0  0
   21.2832   -4.9168  -13.7734 O   0  0  0  0  0  0  0  0  0  0  0  0
  2  1  1  1
  3  2  1  0
  4  5  1  6
  4  2  1  0
  6  4  1  0
  7  6  2  0
  8  6  1  0
  9 10  1  1
  9  8  1  0
 10 11  1  0
 11 12  2  0
 13 16  1  0
 13  9  1  0
 14 13  2  0
 15 11  1  0
 17 16  1  0
 18 17  1  0
 19 18  1  0
 20 18  2  0
M  END
$$$$
