TDG.pdb
     RDKit          3D

 20 19  0  0  1  0  0  0  0  0999 V2000
   28.5432  -11.4918  -16.7399 C   0  0  0  0  0  0  0  0  0  0  0  0
   27.2985  -10.9440  -17.3617 C   0  0  1  0  0  0  0  0  0  0  0  0
   26.4111  -11.9664  -17.6301 O   0  0  0  0  0  0  0  0  0  0  0  0
   26.6284   -9.8947  -16.4978 C   0  0  2  0  0  0  0  0  0  0  0  0
   26.2852  -10.5368  -15.2161 N   0  0  0  0  0  0  0  0  0  0  0  0
   25.4063   -9.3286  -17.1256 C   0  0  0  0  0  0  0  0  0  0  0  0
   25.5242   -8.6708  -18.1674 O   0  0  0  0  0  0  0  0  0  0  0  0
   24.1214   -9.5190  -16.5711 N   0  0  0  0  0  0  0  0  0  0  0  0
   22.9312   -8.9598  -17.1424 C   0  0  1  0  0  0  0  0  0  0  0  0
   21.8985   -9.9716  -17.5035 C   0  0  0  0  0  0  0  0  0  0  0  0
   22.3084  -10.8975  -18.5796 C   0  0  0  0  0  0  0  0  0  0  0  0
   22.3740  -12.1331  -18.3867 O   0  0  0  0  0  0  0  0  0  0  0  0
   22.3444   -7.9501  -16.2318 C   0  0  0  0  0  0  0  0  0  0  0  0
   21.2882   -7.3391  -16.5225 O   0  0  0  0  0  0  0  0  0  0  0  0
   22.6423  -10.4529  -19.8591 O   0  0  0  0  0  0  0  0  0  0  0  0
   22.9630   -7.6434  -14.9972 N   0  0  0  0  0  0  0  0  0  0  0  0
   22.3886   -6.7662  -14.0217 C   0  0  0  0  0  0  0  0  0  0  0  0
   22.6870   -5.3425  -14.3301 C   0  0  0  0  0  0  0  0  0  0  0  0
   22.4409   -4.3177  -13.4394 O   0  0  0  0  0  0  0  0  0  0  0  0
   23.1838   -5.0731  -15.4519 O   0  0  0  0  0  0  0  0  0  0  0  0
  2  1  1  1
  3  2  1  0
  4  5  1  1
  4  2  1  0
  6  4  1  0
  7  6  2  0
  8  6  1  0
  9 10  1  1
  9  8  1  0
 10 11  1  0
 11 12  2  0
 13 16  1  0
 13  9  1  0
 14 13  2  0
 15 11  1  0
 17 16  1  0
 18 17  1  0
 19 18  1  0
 20 18  2  0
M  END
$$$$
