TDG.pdb
     RDKit          3D

 20 19  0  0  1  0  0  0  0  0999 V2000
   25.4652  -10.4249  -14.8812 C   0  0  0  0  0  0  0  0  0  0  0  0
   25.0933  -11.3717  -15.9772 C   0  0  1  0  0  0  0  0  0  0  0  0
   25.7599  -12.5696  -15.8176 O   0  0  0  0  0  0  0  0  0  0  0  0
   23.6002  -11.6198  -16.0517 C   0  0  2  0  0  0  0  0  0  0  0  0
   23.3656  -12.5453  -17.1748 N   0  0  0  0  0  0  0  0  0  0  0  0
   22.8197  -10.3711  -16.2510 C   0  0  0  0  0  0  0  0  0  0  0  0
   22.8200   -9.8429  -17.3704 O   0  0  0  0  0  0  0  0  0  0  0  0
   22.0813   -9.7734  -15.2059 N   0  0  0  0  0  0  0  0  0  0  0  0
   21.3255   -8.5665  -15.3720 C   0  0  1  0  0  0  0  0  0  0  0  0
   19.8494   -8.7709  -15.3759 C   0  0  0  0  0  0  0  0  0  0  0  0
   19.3839   -9.8053  -16.3227 C   0  0  0  0  0  0  0  0  0  0  0  0
   19.4554   -9.6350  -17.5613 O   0  0  0  0  0  0  0  0  0  0  0  0
   21.6904   -7.5793  -14.3302 C   0  0  0  0  0  0  0  0  0  0  0  0
   21.9236   -7.9282  -13.1482 O   0  0  0  0  0  0  0  0  0  0  0  0
   18.8437  -11.0186  -15.8955 O   0  0  0  0  0  0  0  0  0  0  0  0
   21.7879   -6.2027  -14.6410 N   0  0  0  0  0  0  0  0  0  0  0  0
   22.1326   -5.1980  -13.6802 C   0  0  0  0  0  0  0  0  0  0  0  0
   22.2875   -3.8652  -14.3211 C   0  0  0  0  0  0  0  0  0  0  0  0
   22.1051   -3.6610  -15.6735 O   0  0  0  0  0  0  0  0  0  0  0  0
   22.5978   -2.8915  -13.5908 O   0  0  0  0  0  0  0  0  0  0  0  0
  2  1  1  1
  3  2  1  0
  4  5  1  6
  4  2  1  0
  6  4  1  0
  7  6  2  0
  8  6  1  0
  9 10  1  1
  9  8  1  0
 10 11  1  0
 11 12  2  0
 13 16  1  0
 13  9  1  0
 14 13  2  0
 15 11  1  0
 17 16  1  0
 18 17  1  0
 19 18  1  0
 20 18  2  0
M  END
$$$$
