TLK.pdb
     RDKit          3D

 25 24  0  0  1  0  0  0  0  0999 V2000
   28.8247  -19.5064  -17.3787 C   0  0  0  0  0  0  0  0  0  0  0  0
   27.6563  -19.8853  -16.5424 C   0  0  1  0  0  0  0  0  0  0  0  0
   26.5024  -19.9287  -17.3530 O   0  0  0  0  0  0  0  0  0  0  0  0
   27.7715  -21.2020  -15.8537 C   0  0  2  0  0  0  0  0  0  0  0  0
   27.8426  -22.2357  -16.8619 N   0  0  0  0  0  0  0  0  0  0  0  0
   26.7078  -21.5160  -14.9136 C   0  0  0  0  0  0  0  0  0  0  0  0
   25.6634  -22.1851  -15.2369 O   0  0  0  0  0  0  0  0  0  0  0  0
   24.5291  -21.9889   -9.7984 C   0  0  0  0  0  0  0  0  0  0  0  0
   25.1222  -20.6875  -10.1904 C   0  0  1  0  0  0  0  0  0  0  0  0
   25.7757  -20.1111   -8.9209 C   0  0  0  0  0  0  0  0  0  0  0  0
   26.1746  -20.6960  -11.2316 C   0  0  0  0  0  0  0  0  0  0  0  0
   25.7396  -21.1020  -12.6156 C   0  0  2  0  0  0  0  0  0  0  0  0
   26.8096  -21.0703  -13.5674 N   0  0  0  0  0  0  0  0  0  0  0  0
   24.5489  -20.3470  -13.0026 C   0  0  0  0  0  0  0  0  0  0  0  0
   24.5603  -19.1019  -13.1834 O   0  0  0  0  0  0  0  0  0  0  0  0
   23.3017  -21.0033  -13.1937 N   0  0  0  0  0  0  0  0  0  0  0  0
   22.1000  -20.2848  -13.6552 C   0  0  1  0  0  0  0  0  0  0  0  0
   21.6849  -20.7552  -15.0052 C   0  0  0  0  0  0  0  0  0  0  0  0
   20.4164  -20.1340  -15.5263 C   0  0  0  0  0  0  0  0  0  0  0  0
   20.0706  -20.7549  -16.8809 C   0  0  0  0  0  0  0  0  0  0  0  0
   18.8177  -20.0507  -17.3744 C   0  0  0  0  0  0  0  0  0  0  0  0
   19.1259  -18.7227  -17.8670 N   0  0  0  0  0  0  0  0  0  0  0  0
   21.0322  -20.5198  -12.6694 C   0  0  0  0  0  0  0  0  0  0  0  0
   20.0163  -19.6224  -12.3733 O   0  0  0  0  0  0  0  0  0  0  0  0
   20.9957  -21.6197  -12.0086 O   0  0  0  0  0  0  0  0  0  0  0  0
  2  1  1  6
  3  2  1  0
  4  6  1  0
  4  2  1  0
  4  5  1  6
  6  7  2  0
  9  8  1  1
  9 11  1  0
 10  9  1  0
 12 11  1  1
 13 12  1  0
 13  6  1  0
 14 15  2  0
 14 12  1  0
 16 14  1  0
 17 16  1  0
 17 18  1  6
 19 20  1  0
 19 18  1  0
 20 21  1  0
 21 22  1  0
 23 17  1  0
 23 24  1  0
 25 23  2  0
M  END
$$$$
