TLK.pdb
     RDKit          3D

 25 24  0  0  1  0  0  0  0  0999 V2000
   15.8255  -25.6079   -8.9125 C   0  0  0  0  0  0  0  0  0  0  0  0
   17.2544  -25.3388   -8.6057 C   0  0  1  0  0  0  0  0  0  0  0  0
   17.7941  -24.5075   -9.6097 O   0  0  0  0  0  0  0  0  0  0  0  0
   17.5065  -24.6796   -7.2930 C   0  0  2  0  0  0  0  0  0  0  0  0
   18.9264  -24.4355   -7.1741 N   0  0  0  0  0  0  0  0  0  0  0  0
   17.0414  -25.4072   -6.1234 C   0  0  0  0  0  0  0  0  0  0  0  0
   15.8013  -25.6235   -5.8815 O   0  0  0  0  0  0  0  0  0  0  0  0
   18.8113  -29.3131   -1.9180 C   0  0  0  0  0  0  0  0  0  0  0  0
   18.5452  -27.8557   -1.9814 C   0  0  1  0  0  0  0  0  0  0  0  0
   19.4549  -27.2043   -0.9236 C   0  0  0  0  0  0  0  0  0  0  0  0
   18.8272  -27.1590   -3.2569 C   0  0  0  0  0  0  0  0  0  0  0  0
   17.6561  -26.4813   -3.9193 C   0  0  2  0  0  0  0  0  0  0  0  0
   17.9885  -25.9116   -5.1908 N   0  0  0  0  0  0  0  0  0  0  0  0
   17.0199  -25.5598   -2.9793 C   0  0  0  0  0  0  0  0  0  0  0  0
   17.4575  -24.4009   -2.7593 O   0  0  0  0  0  0  0  0  0  0  0  0
   15.8555  -25.9445   -2.2589 N   0  0  0  0  0  0  0  0  0  0  0  0
   15.2050  -25.0499   -1.2842 C   0  0  1  0  0  0  0  0  0  0  0  0
   13.7541  -24.9028   -1.5834 C   0  0  0  0  0  0  0  0  0  0  0  0
   13.0056  -23.9972   -0.6420 C   0  0  0  0  0  0  0  0  0  0  0  0
   11.5342  -23.9444   -1.0567 C   0  0  0  0  0  0  0  0  0  0  0  0
   10.8349  -23.0325   -0.0623 C   0  0  0  0  0  0  0  0  0  0  0  0
    9.4404  -22.8504   -0.4134 N   0  0  0  0  0  0  0  0  0  0  0  0
   15.4060  -25.6263    0.0554 C   0  0  0  0  0  0  0  0  0  0  0  0
   15.4709  -26.9845    0.3316 O   0  0  0  0  0  0  0  0  0  0  0  0
   15.5345  -24.8574    1.0752 O   0  0  0  0  0  0  0  0  0  0  0  0
  2  1  1  6
  3  2  1  0
  4  6  1  0
  4  2  1  0
  4  5  1  1
  6  7  2  0
  9  8  1  6
  9 11  1  0
 10  9  1  0
 12 11  1  1
 13 12  1  0
 13  6  1  0
 14 15  2  0
 14 12  1  0
 16 14  1  0
 17 16  1  0
 17 18  1  6
 19 20  1  0
 19 18  1  0
 20 21  1  0
 21 22  1  0
 23 17  1  0
 23 24  1  0
 25 23  2  0
M  END
$$$$
