TLK.pdb
     RDKit          3D

 25 24  0  0  1  0  0  0  0  0999 V2000
   25.9731  -21.9434  -14.8506 C   0  0  0  0  0  0  0  0  0  0  0  0
   25.6668  -22.1200  -13.4073 C   0  0  1  0  0  0  0  0  0  0  0  0
   26.8061  -22.6334  -12.7525 O   0  0  0  0  0  0  0  0  0  0  0  0
   25.2578  -20.8788  -12.6907 C   0  0  2  0  0  0  0  0  0  0  0  0
   25.0792  -21.2010  -11.2927 N   0  0  0  0  0  0  0  0  0  0  0  0
   24.0593  -20.2274  -13.1936 C   0  0  0  0  0  0  0  0  0  0  0  0
   22.9166  -20.3267  -12.6213 O   0  0  0  0  0  0  0  0  0  0  0  0
   21.5283  -16.1748  -15.9322 C   0  0  0  0  0  0  0  0  0  0  0  0
   22.3128  -17.1210  -16.7618 C   0  0  1  0  0  0  0  0  0  0  0  0
   22.9639  -16.2810  -17.8759 C   0  0  0  0  0  0  0  0  0  0  0  0
   23.4125  -17.8638  -16.1056 C   0  0  0  0  0  0  0  0  0  0  0  0
   23.0113  -18.8235  -15.0159 C   0  0  2  0  0  0  0  0  0  0  0  0
   24.1346  -19.4383  -14.3738 N   0  0  0  0  0  0  0  0  0  0  0  0
   22.0053  -19.7560  -15.5220 C   0  0  0  0  0  0  0  0  0  0  0  0
   22.2771  -20.6761  -16.3358 O   0  0  0  0  0  0  0  0  0  0  0  0
   20.6486  -19.6582  -15.1065 N   0  0  0  0  0  0  0  0  0  0  0  0
   19.6488  -20.6877  -15.4442 C   0  0  1  0  0  0  0  0  0  0  0  0
   18.7510  -20.9566  -14.2876 C   0  0  0  0  0  0  0  0  0  0  0  0
   17.7051  -22.0111  -14.5340 C   0  0  0  0  0  0  0  0  0  0  0  0
   16.9430  -22.2783  -13.2348 C   0  0  0  0  0  0  0  0  0  0  0  0
   15.9987  -23.4354  -13.5152 C   0  0  0  0  0  0  0  0  0  0  0  0
   15.2290  -23.7776  -12.3354 N   0  0  0  0  0  0  0  0  0  0  0  0
   18.8788  -20.2011  -16.6007 C   0  0  0  0  0  0  0  0  0  0  0  0
   18.2733  -21.0144  -17.5478 O   0  0  0  0  0  0  0  0  0  0  0  0
   18.7293  -18.9405  -16.7912 O   0  0  0  0  0  0  0  0  0  0  0  0
  2  1  1  6
  3  2  1  0
  4  6  1  0
  4  2  1  0
  4  5  1  1
  6  7  2  0
  9  8  1  1
  9 11  1  0
 10  9  1  0
 12 11  1  6
 13 12  1  0
 13  6  1  0
 14 15  2  0
 14 12  1  0
 16 14  1  0
 17 16  1  0
 17 18  1  1
 19 20  1  0
 19 18  1  0
 20 21  1  0
 21 22  1  0
 23 17  1  0
 23 24  1  0
 25 23  2  0
M  END
$$$$
