TLK.pdb
     RDKit          3D

 25 24  0  0  1  0  0  0  0  0999 V2000
   17.3864  -11.4439  -13.9148 C   0  0  0  0  0  0  0  0  0  0  0  0
   16.0574  -11.9405  -13.4726 C   0  0  1  0  0  0  0  0  0  0  0  0
   16.1069  -13.3449  -13.3481 O   0  0  0  0  0  0  0  0  0  0  0  0
   15.5768  -11.3908  -12.1732 C   0  0  2  0  0  0  0  0  0  0  0  0
   14.3365  -12.0512  -11.8332 N   0  0  0  0  0  0  0  0  0  0  0  0
   15.3848   -9.9503  -12.1314 C   0  0  0  0  0  0  0  0  0  0  0  0
   14.6733   -9.3143  -12.9870 O   0  0  0  0  0  0  0  0  0  0  0  0
   15.0846   -6.7962   -7.4614 C   0  0  0  0  0  0  0  0  0  0  0  0
   14.9789   -7.2116   -8.8809 C   0  0  1  0  0  0  0  0  0  0  0  0
   14.0077   -6.2213   -9.5494 C   0  0  0  0  0  0  0  0  0  0  0  0
   16.2142   -7.1960   -9.6968 C   0  0  0  0  0  0  0  0  0  0  0  0
   16.1011   -7.7620  -11.0883 C   0  0  2  0  0  0  0  0  0  0  0  0
   16.0059   -9.1912  -11.1022 N   0  0  0  0  0  0  0  0  0  0  0  0
   17.1547   -7.2071  -11.9365 C   0  0  0  0  0  0  0  0  0  0  0  0
   18.3641   -7.5352  -11.8236 O   0  0  0  0  0  0  0  0  0  0  0  0
   16.8491   -6.2521  -12.9452 N   0  0  0  0  0  0  0  0  0  0  0  0
   17.8908   -5.6511  -13.7977 C   0  0  1  0  0  0  0  0  0  0  0  0
   17.6504   -5.9656  -15.2327 C   0  0  0  0  0  0  0  0  0  0  0  0
   18.6011   -5.2995  -16.1915 C   0  0  0  0  0  0  0  0  0  0  0  0
   18.1836   -5.6289  -17.6258 C   0  0  0  0  0  0  0  0  0  0  0  0
   19.1861   -4.9426  -18.5386 C   0  0  0  0  0  0  0  0  0  0  0  0
   19.0278   -5.3823  -19.9107 N   0  0  0  0  0  0  0  0  0  0  0  0
   17.8698   -4.1966  -13.5715 C   0  0  0  0  0  0  0  0  0  0  0  0
   18.9250   -3.3375  -13.8430 O   0  0  0  0  0  0  0  0  0  0  0  0
   16.8219   -3.6346  -13.0879 O   0  0  0  0  0  0  0  0  0  0  0  0
  2  1  1  1
  3  2  1  0
  4  6  1  0
  4  2  1  0
  4  5  1  6
  6  7  2  0
  9  8  1  1
  9 11  1  0
 10  9  1  0
 12 11  1  1
 13 12  1  0
 13  6  1  0
 14 15  2  0
 14 12  1  0
 16 14  1  0
 17 16  1  0
 17 18  1  6
 19 20  1  0
 19 18  1  0
 20 21  1  0
 21 22  1  0
 23 17  1  0
 23 24  1  0
 25 23  2  0
M  END
$$$$
