TLK.pdb
     RDKit          3D

 25 24  0  0  1  0  0  0  0  0999 V2000
   16.2743  -19.1090    3.6833 C   0  0  0  0  0  0  0  0  0  0  0  0
   14.9866  -19.8084    3.4361 C   0  0  1  0  0  0  0  0  0  0  0  0
   14.1735  -19.0022    2.6120 O   0  0  0  0  0  0  0  0  0  0  0  0
   15.1065  -21.1423    2.7822 C   0  0  2  0  0  0  0  0  0  0  0  0
   13.7760  -21.6175    2.4756 N   0  0  0  0  0  0  0  0  0  0  0  0
   15.8179  -22.1556    3.5444 C   0  0  0  0  0  0  0  0  0  0  0  0
   15.3852  -22.6281    4.6545 O   0  0  0  0  0  0  0  0  0  0  0  0
   19.7230  -26.0916    4.0748 C   0  0  0  0  0  0  0  0  0  0  0  0
   20.1642  -24.7146    3.7458 C   0  0  1  0  0  0  0  0  0  0  0  0
   21.3778  -24.8623    2.8097 C   0  0  0  0  0  0  0  0  0  0  0  0
   19.2039  -23.8329    3.0442 C   0  0  0  0  0  0  0  0  0  0  0  0
   18.0093  -23.3799    3.8424 C   0  0  2  0  0  0  0  0  0  0  0  0
   17.0534  -22.6606    3.0546 N   0  0  0  0  0  0  0  0  0  0  0  0
   18.4539  -22.6898    5.0522 C   0  0  0  0  0  0  0  0  0  0  0  0
   18.9586  -21.5375    5.0330 O   0  0  0  0  0  0  0  0  0  0  0  0
   18.3323  -23.3068    6.3279 N   0  0  0  0  0  0  0  0  0  0  0  0
   18.7415  -22.6267    7.5702 C   0  0  1  0  0  0  0  0  0  0  0  0
   17.5995  -21.8847    8.1712 C   0  0  0  0  0  0  0  0  0  0  0  0
   17.9116  -21.1943    9.4722 C   0  0  0  0  0  0  0  0  0  0  0  0
   16.6516  -20.4965    9.9874 C   0  0  0  0  0  0  0  0  0  0  0  0
   17.0527  -19.7522   11.2501 C   0  0  0  0  0  0  0  0  0  0  0  0
   15.9052  -19.1169   11.8674 N   0  0  0  0  0  0  0  0  0  0  0  0
   19.2429  -23.6538    8.4980 C   0  0  0  0  0  0  0  0  0  0  0  0
   20.0302  -23.3985    9.6117 O   0  0  0  0  0  0  0  0  0  0  0  0
   18.9593  -24.8907    8.3048 O   0  0  0  0  0  0  0  0  0  0  0  0
  2  1  1  6
  3  2  1  0
  4  6  1  0
  4  2  1  0
  4  5  1  1
  6  7  2  0
  9  8  1  6
  9 11  1  0
 10  9  1  0
 12 11  1  6
 13 12  1  0
 13  6  1  0
 14 15  2  0
 14 12  1  0
 16 14  1  0
 17 16  1  0
 17 18  1  1
 19 20  1  0
 19 18  1  0
 20 21  1  0
 21 22  1  0
 23 17  1  0
 23 24  1  0
 25 23  2  0
M  END
$$$$
