TLK.pdb
     RDKit          3D

 25 24  0  0  1  0  0  0  0  0999 V2000
   25.8677  -18.4086  -16.7289 C   0  0  0  0  0  0  0  0  0  0  0  0
   26.8309  -19.5367  -16.8177 C   0  0  1  0  0  0  0  0  0  0  0  0
   28.0245  -19.0794  -17.4148 O   0  0  0  0  0  0  0  0  0  0  0  0
   27.1919  -20.1645  -15.5151 C   0  0  2  0  0  0  0  0  0  0  0  0
   28.1805  -21.1895  -15.7649 N   0  0  0  0  0  0  0  0  0  0  0  0
   26.0858  -20.7330  -14.7621 C   0  0  0  0  0  0  0  0  0  0  0  0
   25.4262  -21.7594  -15.1551 O   0  0  0  0  0  0  0  0  0  0  0  0
   26.2308  -20.3916   -9.1904 C   0  0  0  0  0  0  0  0  0  0  0  0
   25.9986  -20.7583  -10.6083 C   0  0  1  0  0  0  0  0  0  0  0  0
   25.8880  -22.2937  -10.6445 C   0  0  0  0  0  0  0  0  0  0  0  0
   24.7766  -20.2387  -11.2628 C   0  0  0  0  0  0  0  0  0  0  0  0
   24.6040  -20.5808  -12.7198 C   0  0  2  0  0  0  0  0  0  0  0  0
   25.7002  -20.1392  -13.5292 N   0  0  0  0  0  0  0  0  0  0  0  0
   23.2857  -20.1459  -13.1785 C   0  0  0  0  0  0  0  0  0  0  0  0
   22.9580  -18.9338  -13.2593 O   0  0  0  0  0  0  0  0  0  0  0  0
   22.2981  -21.0958  -13.5594 N   0  0  0  0  0  0  0  0  0  0  0  0
   20.9650  -20.6909  -14.0412 C   0  0  1  0  0  0  0  0  0  0  0  0
   20.4115  -21.7002  -14.9851 C   0  0  0  0  0  0  0  0  0  0  0  0
   18.9961  -21.4397  -15.4272 C   0  0  0  0  0  0  0  0  0  0  0  0
   18.5439  -22.5654  -16.3589 C   0  0  0  0  0  0  0  0  0  0  0  0
   17.1397  -22.2108  -16.8191 C   0  0  0  0  0  0  0  0  0  0  0  0
   16.5386  -23.3078  -17.5516 N   0  0  0  0  0  0  0  0  0  0  0  0
   20.0912  -20.5408  -12.8660 C   0  0  0  0  0  0  0  0  0  0  0  0
   19.0045  -19.6813  -12.7917 O   0  0  0  0  0  0  0  0  0  0  0  0
   20.3104  -21.2329  -11.8073 O   0  0  0  0  0  0  0  0  0  0  0  0
  2  1  1  1
  3  2  1  0
  4  6  1  0
  4  2  1  0
  4  5  1  6
  6  7  2  0
  9  8  1  1
  9 11  1  0
 10  9  1  0
 12 11  1  1
 13 12  1  0
 13  6  1  0
 14 15  2  0
 14 12  1  0
 16 14  1  0
 17 16  1  0
 17 18  1  6
 19 20  1  0
 19 18  1  0
 20 21  1  0
 21 22  1  0
 23 17  1  0
 23 24  1  0
 25 23  2  0
M  END
$$$$
