TLK.pdb
     RDKit          3D

 25 24  0  0  1  0  0  0  0  0999 V2000
   22.4393  -35.2743  -13.7229 C   0  0  0  0  0  0  0  0  0  0  0  0
   23.8086  -35.2055  -14.2962 C   0  0  1  0  0  0  0  0  0  0  0  0
   23.7480  -34.5915  -15.5650 O   0  0  0  0  0  0  0  0  0  0  0  0
   24.7998  -34.4505  -13.4785 C   0  0  2  0  0  0  0  0  0  0  0  0
   26.0811  -34.5173  -14.1448 N   0  0  0  0  0  0  0  0  0  0  0  0
   24.9474  -34.8929  -12.1014 C   0  0  0  0  0  0  0  0  0  0  0  0
   25.5832  -35.9561  -11.7725 O   0  0  0  0  0  0  0  0  0  0  0  0
   25.3698  -31.1210   -7.9454 C   0  0  0  0  0  0  0  0  0  0  0  0
   25.4626  -32.3457   -8.7762 C   0  0  1  0  0  0  0  0  0  0  0  0
   26.6723  -33.1368   -8.2454 C   0  0  0  0  0  0  0  0  0  0  0  0
   24.3145  -33.2802   -8.7560 C   0  0  0  0  0  0  0  0  0  0  0  0
   24.4129  -34.4766   -9.6661 C   0  0  2  0  0  0  0  0  0  0  0  0
   24.3676  -34.1258  -11.0542 N   0  0  0  0  0  0  0  0  0  0  0  0
   23.4447  -35.4925   -9.2561 C   0  0  0  0  0  0  0  0  0  0  0  0
   22.2751  -35.5447   -9.7169 O   0  0  0  0  0  0  0  0  0  0  0  0
   23.7927  -36.4843   -8.2979 N   0  0  0  0  0  0  0  0  0  0  0  0
   22.8607  -37.5572   -7.9058 C   0  0  1  0  0  0  0  0  0  0  0  0
   22.7648  -38.5935   -8.9703 C   0  0  0  0  0  0  0  0  0  0  0  0
   21.7764  -39.6942   -8.6906 C   0  0  0  0  0  0  0  0  0  0  0  0
   21.8752  -40.7519   -9.7912 C   0  0  0  0  0  0  0  0  0  0  0  0
   20.8417  -41.8169   -9.4644 C   0  0  0  0  0  0  0  0  0  0  0  0
   20.9042  -42.9121  -10.4119 N   0  0  0  0  0  0  0  0  0  0  0  0
   23.3566  -38.1434   -6.6498 C   0  0  0  0  0  0  0  0  0  0  0  0
   22.7464  -39.1862   -5.9674 O   0  0  0  0  0  0  0  0  0  0  0  0
   24.4272  -37.6904   -6.1055 O   0  0  0  0  0  0  0  0  0  0  0  0
  2  1  1  1
  3  2  1  0
  4  6  1  0
  4  2  1  0
  4  5  1  6
  6  7  2  0
  9  8  1  1
  9 11  1  0
 10  9  1  0
 12 11  1  1
 13 12  1  0
 13  6  1  0
 14 15  2  0
 14 12  1  0
 16 14  1  0
 17 16  1  0
 17 18  1  6
 19 20  1  0
 19 18  1  0
 20 21  1  0
 21 22  1  0
 23 17  1  0
 23 24  1  0
 25 23  2  0
M  END
$$$$
