TLK.pdb
     RDKit          3D

 25 24  0  0  1  0  0  0  0  0999 V2000
   16.0849  -23.8076  -12.8952 C   0  0  0  0  0  0  0  0  0  0  0  0
   17.0307  -24.5700  -13.7511 C   0  0  1  0  0  0  0  0  0  0  0  0
   16.6350  -24.4478  -15.0997 O   0  0  0  0  0  0  0  0  0  0  0  0
   18.4546  -24.1393  -13.6598 C   0  0  2  0  0  0  0  0  0  0  0  0
   19.2368  -24.9704  -14.5473 N   0  0  0  0  0  0  0  0  0  0  0  0
   19.0380  -24.1710  -12.3285 C   0  0  0  0  0  0  0  0  0  0  0  0
   19.3956  -25.2560  -11.7471 O   0  0  0  0  0  0  0  0  0  0  0  0
   21.8792  -22.0100   -8.0864 C   0  0  0  0  0  0  0  0  0  0  0  0
   20.6411  -21.3092   -8.5046 C   0  0  1  0  0  0  0  0  0  0  0  0
   20.9187  -19.8042   -8.3355 C   0  0  0  0  0  0  0  0  0  0  0  0
   20.1842  -21.4925   -9.9008 C   0  0  0  0  0  0  0  0  0  0  0  0
   19.6745  -22.8637  -10.2607 C   0  0  2  0  0  0  0  0  0  0  0  0
   19.2301  -22.9538  -11.6195 N   0  0  0  0  0  0  0  0  0  0  0  0
   18.7015  -23.3084   -9.2642 C   0  0  0  0  0  0  0  0  0  0  0  0
   17.5625  -22.7876   -9.1439 O   0  0  0  0  0  0  0  0  0  0  0  0
   19.0099  -24.3704   -8.3698 N   0  0  0  0  0  0  0  0  0  0  0  0
   18.0067  -24.9384   -7.4510 C   0  0  1  0  0  0  0  0  0  0  0  0
   18.1735  -26.4124   -7.3268 C   0  0  0  0  0  0  0  0  0  0  0  0
   17.1555  -27.0897   -6.4485 C   0  0  0  0  0  0  0  0  0  0  0  0
   17.4582  -28.5880   -6.3891 C   0  0  0  0  0  0  0  0  0  0  0  0
   16.3179  -29.2314   -5.6177 C   0  0  0  0  0  0  0  0  0  0  0  0
   16.4057  -30.6775   -5.6673 N   0  0  0  0  0  0  0  0  0  0  0  0
   18.1749  -24.2820   -6.1441 C   0  0  0  0  0  0  0  0  0  0  0  0
   17.1766  -24.1510   -5.1894 O   0  0  0  0  0  0  0  0  0  0  0  0
   19.3089  -23.7770   -5.8176 O   0  0  0  0  0  0  0  0  0  0  0  0
  2  1  1  1
  3  2  1  0
  4  6  1  0
  4  2  1  0
  4  5  1  6
  6  7  2  0
  9  8  1  6
  9 11  1  0
 10  9  1  0
 12 11  1  1
 13 12  1  0
 13  6  1  0
 14 15  2  0
 14 12  1  0
 16 14  1  0
 17 16  1  0
 17 18  1  1
 19 20  1  0
 19 18  1  0
 20 21  1  0
 21 22  1  0
 23 17  1  0
 23 24  1  0
 25 23  2  0
M  END
$$$$
