TLK.pdb
     RDKit          3D

 25 24  0  0  1  0  0  0  0  0999 V2000
   28.6025  -18.8982  -15.0633 C   0  0  0  0  0  0  0  0  0  0  0  0
   27.3576  -19.3896  -14.4177 C   0  0  1  0  0  0  0  0  0  0  0  0
   26.3262  -19.4374  -15.3791 O   0  0  0  0  0  0  0  0  0  0  0  0
   27.4572  -20.7414  -13.7979 C   0  0  2  0  0  0  0  0  0  0  0  0
   27.6919  -21.7054  -14.8494 N   0  0  0  0  0  0  0  0  0  0  0  0
   26.3102  -21.1578  -13.0076 C   0  0  0  0  0  0  0  0  0  0  0  0
   25.4856  -22.0603  -13.3929 O   0  0  0  0  0  0  0  0  0  0  0  0
   26.4051  -19.7953   -7.5254 C   0  0  0  0  0  0  0  0  0  0  0  0
   26.1172  -20.5536   -8.7667 C   0  0  1  0  0  0  0  0  0  0  0  0
   25.7905  -21.9928   -8.3274 C   0  0  0  0  0  0  0  0  0  0  0  0
   24.9780  -20.1052   -9.5991 C   0  0  0  0  0  0  0  0  0  0  0  0
   24.8766  -20.7136  -10.9735 C   0  0  2  0  0  0  0  0  0  0  0  0
   26.0724  -20.5492  -11.7449 N   0  0  0  0  0  0  0  0  0  0  0  0
   23.6530  -20.2554  -11.6296 C   0  0  0  0  0  0  0  0  0  0  0  0
   23.4393  -19.0467  -11.9057 O   0  0  0  0  0  0  0  0  0  0  0  0
   22.6316  -21.1774  -11.9895 N   0  0  0  0  0  0  0  0  0  0  0  0
   21.4751  -20.7839  -12.8146 C   0  0  1  0  0  0  0  0  0  0  0  0
   21.4785  -21.5086  -14.1150 C   0  0  0  0  0  0  0  0  0  0  0  0
   20.3167  -21.1887  -15.0174 C   0  0  0  0  0  0  0  0  0  0  0  0
   20.4178  -22.0342  -16.2882 C   0  0  0  0  0  0  0  0  0  0  0  0
   19.2561  -21.6229  -17.1773 C   0  0  0  0  0  0  0  0  0  0  0  0
   19.2689  -22.3596  -18.4257 N   0  0  0  0  0  0  0  0  0  0  0  0
   20.2551  -21.0900  -12.0497 C   0  0  0  0  0  0  0  0  0  0  0  0
   18.9902  -20.6045  -12.3488 O   0  0  0  0  0  0  0  0  0  0  0  0
   20.3142  -21.8562  -11.0215 O   0  0  0  0  0  0  0  0  0  0  0  0
  2  1  1  6
  3  2  1  0
  4  6  1  0
  4  2  1  0
  4  5  1  6
  6  7  2  0
  9  8  1  1
  9 11  1  0
 10  9  1  0
 12 11  1  1
 13 12  1  0
 13  6  1  0
 14 15  2  0
 14 12  1  0
 16 14  1  0
 17 16  1  0
 17 18  1  6
 19 20  1  0
 19 18  1  0
 20 21  1  0
 21 22  1  0
 23 17  1  0
 23 24  1  0
 25 23  2  0
M  END
$$$$
