TLK.pdb
     RDKit          3D

 25 24  0  0  1  0  0  0  0  0999 V2000
   25.3343  -23.9538  -18.6118 C   0  0  0  0  0  0  0  0  0  0  0  0
   26.5196  -24.4787  -17.8854 C   0  0  1  0  0  0  0  0  0  0  0  0
   27.3893  -25.0988  -18.8071 O   0  0  0  0  0  0  0  0  0  0  0  0
   27.3087  -23.4572  -17.1403 C   0  0  2  0  0  0  0  0  0  0  0  0
   28.3542  -24.1373  -16.4092 N   0  0  0  0  0  0  0  0  0  0  0  0
   26.5493  -22.6170  -16.2286 C   0  0  0  0  0  0  0  0  0  0  0  0
   26.0755  -23.0419  -15.1160 O   0  0  0  0  0  0  0  0  0  0  0  0
   27.8261  -17.1797  -16.1975 C   0  0  0  0  0  0  0  0  0  0  0  0
   27.3879  -18.5399  -15.8014 C   0  0  1  0  0  0  0  0  0  0  0  0
   27.6365  -18.6493  -14.2858 C   0  0  0  0  0  0  0  0  0  0  0  0
   25.9668  -18.8951  -16.0155 C   0  0  0  0  0  0  0  0  0  0  0  0
   25.5901  -20.3286  -15.7458 C   0  0  2  0  0  0  0  0  0  0  0  0
   26.3088  -21.2570  -16.5664 N   0  0  0  0  0  0  0  0  0  0  0  0
   24.1358  -20.4741  -15.7804 C   0  0  0  0  0  0  0  0  0  0  0  0
   23.4771  -20.4837  -16.8524 O   0  0  0  0  0  0  0  0  0  0  0  0
   23.3898  -20.6128  -14.5774 N   0  0  0  0  0  0  0  0  0  0  0  0
   21.9194  -20.7181  -14.5742 C   0  0  1  0  0  0  0  0  0  0  0  0
   21.4283  -21.2656  -13.2798 C   0  0  0  0  0  0  0  0  0  0  0  0
   19.9310  -21.3794  -13.1715 C   0  0  0  0  0  0  0  0  0  0  0  0
   19.5776  -22.6329  -12.3691 C   0  0  0  0  0  0  0  0  0  0  0  0
   18.0636  -22.7580  -12.4032 C   0  0  0  0  0  0  0  0  0  0  0  0
   17.6071  -23.8074  -11.5134 N   0  0  0  0  0  0  0  0  0  0  0  0
   21.3740  -19.3715  -14.8119 C   0  0  0  0  0  0  0  0  0  0  0  0
   22.0752  -18.1889  -14.6254 O   0  0  0  0  0  0  0  0  0  0  0  0
   20.1658  -19.2284  -15.2210 O   0  0  0  0  0  0  0  0  0  0  0  0
  2  1  1  6
  3  2  1  0
  4  6  1  0
  4  2  1  0
  4  5  1  1
  6  7  2  0
  9  8  1  1
  9 11  1  0
 10  9  1  0
 12 11  1  6
 13 12  1  0
 13  6  1  0
 14 15  2  0
 14 12  1  0
 16 14  1  0
 17 16  1  0
 17 18  1  1
 19 20  1  0
 19 18  1  0
 20 21  1  0
 21 22  1  0
 23 17  1  0
 23 24  1  0
 25 23  2  0
M  END
$$$$
