TLK.pdb
     RDKit          3D

 25 24  0  0  1  0  0  0  0  0999 V2000
   21.7457  -22.0245  -13.1497 C   0  0  0  0  0  0  0  0  0  0  0  0
   22.2574  -21.4454  -11.8804 C   0  0  1  0  0  0  0  0  0  0  0  0
   21.8914  -22.2862  -10.8083 O   0  0  0  0  0  0  0  0  0  0  0  0
   23.7348  -21.2582  -11.8206 C   0  0  2  0  0  0  0  0  0  0  0  0
   24.0805  -20.8061  -10.4916 N   0  0  0  0  0  0  0  0  0  0  0  0
   24.2939  -20.3438  -12.8029 C   0  0  0  0  0  0  0  0  0  0  0  0
   24.1339  -19.0732  -12.7466 O   0  0  0  0  0  0  0  0  0  0  0  0
   28.1103  -19.4947  -13.8224 C   0  0  0  0  0  0  0  0  0  0  0  0
   28.0360  -20.0345  -15.2015 C   0  0  1  0  0  0  0  0  0  0  0  0
   29.0979  -21.1461  -15.2878 C   0  0  0  0  0  0  0  0  0  0  0  0
   26.7590  -20.6461  -15.6338 C   0  0  0  0  0  0  0  0  0  0  0  0
   25.5075  -20.0902  -15.0058 C   0  0  2  0  0  0  0  0  0  0  0  0
   25.0573  -20.8606  -13.8852 N   0  0  0  0  0  0  0  0  0  0  0  0
   24.4978  -19.8550  -16.0366 C   0  0  0  0  0  0  0  0  0  0  0  0
   23.7903  -20.7761  -16.5204 O   0  0  0  0  0  0  0  0  0  0  0  0
   24.2697  -18.5469  -16.5464 N   0  0  0  0  0  0  0  0  0  0  0  0
   23.2207  -18.2655  -17.5431 C   0  0  1  0  0  0  0  0  0  0  0  0
   22.2498  -17.2631  -17.0247 C   0  0  0  0  0  0  0  0  0  0  0  0
   20.8076  -17.6900  -17.0910 C   0  0  0  0  0  0  0  0  0  0  0  0
   19.9187  -16.5375  -16.6205 C   0  0  0  0  0  0  0  0  0  0  0  0
   18.4815  -17.0076  -16.7719 C   0  0  0  0  0  0  0  0  0  0  0  0
   17.5541  -16.0276  -16.2420 N   0  0  0  0  0  0  0  0  0  0  0  0
   23.8824  -17.7700  -18.7612 C   0  0  0  0  0  0  0  0  0  0  0  0
   23.2744  -17.6591  -20.0035 O   0  0  0  0  0  0  0  0  0  0  0  0
   25.1118  -17.4027  -18.7229 O   0  0  0  0  0  0  0  0  0  0  0  0
  2  1  1  6
  3  2  1  0
  4  6  1  0
  4  2  1  0
  4  5  1  1
  6  7  2  0
  9  8  1  1
  9 11  1  0
 10  9  1  0
 12 11  1  6
 13 12  1  0
 13  6  1  0
 14 15  2  0
 14 12  1  0
 16 14  1  0
 17 16  1  0
 17 18  1  1
 19 20  1  0
 19 18  1  0
 20 21  1  0
 21 22  1  0
 23 17  1  0
 23 24  1  0
 25 23  2  0
M  END
$$$$
