TLK.pdb
     RDKit          3D

 25 24  0  0  1  0  0  0  0  0999 V2000
   28.1543  -18.5899  -17.3384 C   0  0  0  0  0  0  0  0  0  0  0  0
   27.0232  -19.2870  -16.6727 C   0  0  1  0  0  0  0  0  0  0  0  0
   26.1898  -19.8595  -17.6566 O   0  0  0  0  0  0  0  0  0  0  0  0
   27.4158  -20.3722  -15.7295 C   0  0  2  0  0  0  0  0  0  0  0  0
   28.0566  -21.4224  -16.4888 N   0  0  0  0  0  0  0  0  0  0  0  0
   26.3365  -20.9384  -14.9368 C   0  0  0  0  0  0  0  0  0  0  0  0
   25.7411  -22.0310  -15.2448 O   0  0  0  0  0  0  0  0  0  0  0  0
   26.3228  -22.0975  -10.8230 C   0  0  0  0  0  0  0  0  0  0  0  0
   25.1574  -21.2200  -10.5573 C   0  0  1  0  0  0  0  0  0  0  0  0
   25.4652  -20.4798   -9.2427 C   0  0  0  0  0  0  0  0  0  0  0  0
   24.8397  -20.1754  -11.5571 C   0  0  0  0  0  0  0  0  0  0  0  0
   24.7529  -20.6295  -12.9909 C   0  0  2  0  0  0  0  0  0  0  0  0
   25.9047  -20.2659  -13.7610 N   0  0  0  0  0  0  0  0  0  0  0  0
   23.4733  -20.2170  -13.5651 C   0  0  0  0  0  0  0  0  0  0  0  0
   23.2358  -19.0337  -13.9210 O   0  0  0  0  0  0  0  0  0  0  0  0
   22.4213  -21.1565  -13.7480 N   0  0  0  0  0  0  0  0  0  0  0  0
   21.1378  -20.7855  -14.3712 C   0  0  1  0  0  0  0  0  0  0  0  0
   20.4486  -21.9839  -14.9233 C   0  0  0  0  0  0  0  0  0  0  0  0
   19.1844  -21.6882  -15.6854 C   0  0  0  0  0  0  0  0  0  0  0  0
   18.6124  -22.9944  -16.2390 C   0  0  0  0  0  0  0  0  0  0  0  0
   17.3552  -22.6263  -17.0092 C   0  0  0  0  0  0  0  0  0  0  0  0
   16.7427  -23.8003  -17.5989 N   0  0  0  0  0  0  0  0  0  0  0  0
   20.3112  -20.1366  -13.3402 C   0  0  0  0  0  0  0  0  0  0  0  0
   19.3674  -19.1499  -13.5872 O   0  0  0  0  0  0  0  0  0  0  0  0
   20.4365  -20.4727  -12.1077 O   0  0  0  0  0  0  0  0  0  0  0  0
  2  1  1  6
  3  2  1  0
  4  6  1  0
  4  2  1  0
  4  5  1  6
  6  7  2  0
  9  8  1  6
  9 11  1  0
 10  9  1  0
 12 11  1  1
 13 12  1  0
 13  6  1  0
 14 15  2  0
 14 12  1  0
 16 14  1  0
 17 16  1  0
 17 18  1  1
 19 20  1  0
 19 18  1  0
 20 21  1  0
 21 22  1  0
 23 17  1  0
 23 24  1  0
 25 23  2  0
M  END
$$$$
