TLK.pdb
     RDKit          3D

 25 24  0  0  1  0  0  0  0  0999 V2000
   20.1165  -22.2991  -14.2493 C   0  0  0  0  0  0  0  0  0  0  0  0
   21.5459  -21.9429  -14.0532 C   0  0  1  0  0  0  0  0  0  0  0  0
   22.1578  -21.7767  -15.3135 O   0  0  0  0  0  0  0  0  0  0  0  0
   21.7861  -20.6982  -13.2694 C   0  0  2  0  0  0  0  0  0  0  0  0
   21.1104  -19.6068  -13.9345 N   0  0  0  0  0  0  0  0  0  0  0  0
   23.1808  -20.3464  -13.0582 C   0  0  0  0  0  0  0  0  0  0  0  0
   23.7458  -19.3500  -13.6336 O   0  0  0  0  0  0  0  0  0  0  0  0
   25.1600  -20.7996   -7.9588 C   0  0  0  0  0  0  0  0  0  0  0  0
   24.9381  -20.4241   -9.3760 C   0  0  1  0  0  0  0  0  0  0  0  0
   25.3922  -18.9591   -9.5107 C   0  0  0  0  0  0  0  0  0  0  0  0
   25.6732  -21.1834  -10.4128 C   0  0  0  0  0  0  0  0  0  0  0  0
   25.3395  -20.8517  -11.8440 C   0  0  2  0  0  0  0  0  0  0  0  0
   23.9743  -21.1301  -12.1765 N   0  0  0  0  0  0  0  0  0  0  0  0
   26.3264  -21.4576  -12.7364 C   0  0  0  0  0  0  0  0  0  0  0  0
   26.9214  -22.5325  -12.4651 O   0  0  0  0  0  0  0  0  0  0  0  0
   26.6620  -20.8429  -13.9743 N   0  0  0  0  0  0  0  0  0  0  0  0
   27.1424  -21.6202  -15.1312 C   0  0  1  0  0  0  0  0  0  0  0  0
   26.1478  -22.6549  -15.5265 C   0  0  0  0  0  0  0  0  0  0  0  0
   26.5646  -23.5183  -16.6874 C   0  0  0  0  0  0  0  0  0  0  0  0
   27.4011  -24.6896  -16.1695 C   0  0  0  0  0  0  0  0  0  0  0  0
   27.8557  -25.4721  -17.3903 C   0  0  0  0  0  0  0  0  0  0  0  0
   28.7819  -26.5239  -17.0200 N   0  0  0  0  0  0  0  0  0  0  0  0
   27.3813  -20.6768  -16.2358 C   0  0  0  0  0  0  0  0  0  0  0  0
   26.8795  -19.3846  -16.2961 O   0  0  0  0  0  0  0  0  0  0  0  0
   28.0989  -21.0288  -17.2402 O   0  0  0  0  0  0  0  0  0  0  0  0
  2  1  1  6
  3  2  1  0
  4  6  1  0
  4  2  1  0
  4  5  1  6
  6  7  2  0
  9  8  1  1
  9 11  1  0
 10  9  1  0
 12 11  1  1
 13 12  1  0
 13  6  1  0
 14 15  2  0
 14 12  1  0
 16 14  1  0
 17 16  1  0
 17 18  1  6
 19 20  1  0
 19 18  1  0
 20 21  1  0
 21 22  1  0
 23 17  1  0
 23 24  1  0
 25 23  2  0
M  END
$$$$
