TLK.pdb
     RDKit          3D

 25 24  0  0  1  0  0  0  0  0999 V2000
   29.1680  -21.6300  -19.1935 C   0  0  0  0  0  0  0  0  0  0  0  0
   28.0203  -20.8530  -18.6576 C   0  0  1  0  0  0  0  0  0  0  0  0
   26.8575  -21.6503  -18.7103 O   0  0  0  0  0  0  0  0  0  0  0  0
   28.1773  -20.3797  -17.2531 C   0  0  2  0  0  0  0  0  0  0  0  0
   28.4629  -21.5251  -16.4185 N   0  0  0  0  0  0  0  0  0  0  0  0
   27.0451  -19.6516  -16.7037 C   0  0  0  0  0  0  0  0  0  0  0  0
   26.2886  -20.1252  -15.7837 O   0  0  0  0  0  0  0  0  0  0  0  0
   27.3260  -14.0242  -16.6574 C   0  0  0  0  0  0  0  0  0  0  0  0
   26.9570  -15.4045  -16.2606 C   0  0  1  0  0  0  0  0  0  0  0  0
   26.4796  -15.3205  -14.7991 C   0  0  0  0  0  0  0  0  0  0  0  0
   25.8708  -16.0705  -17.0143 C   0  0  0  0  0  0  0  0  0  0  0  0
   25.6630  -17.5352  -16.7297 C   0  0  2  0  0  0  0  0  0  0  0  0
   26.7442  -18.3518  -17.1947 N   0  0  0  0  0  0  0  0  0  0  0  0
   24.3382  -17.9470  -17.1909 C   0  0  0  0  0  0  0  0  0  0  0  0
   24.1211  -18.3594  -18.3595 O   0  0  0  0  0  0  0  0  0  0  0  0
   23.2160  -17.8962  -16.3185 N   0  0  0  0  0  0  0  0  0  0  0  0
   21.8502  -18.2064  -16.7787 C   0  0  1  0  0  0  0  0  0  0  0  0
   20.9316  -18.4020  -15.6237 C   0  0  0  0  0  0  0  0  0  0  0  0
   19.4972  -18.6659  -15.9974 C   0  0  0  0  0  0  0  0  0  0  0  0
   19.0970  -20.0587  -15.5079 C   0  0  0  0  0  0  0  0  0  0  0  0
   17.6210  -20.2246  -15.8290 C   0  0  0  0  0  0  0  0  0  0  0  0
   17.1217  -21.4962  -15.3440 N   0  0  0  0  0  0  0  0  0  0  0  0
   21.3976  -17.0879  -17.6221 C   0  0  0  0  0  0  0  0  0  0  0  0
   20.5767  -17.2159  -18.7334 O   0  0  0  0  0  0  0  0  0  0  0  0
   21.7632  -15.8876  -17.3517 O   0  0  0  0  0  0  0  0  0  0  0  0
  2  1  1  1
  3  2  1  0
  4  6  1  0
  4  2  1  0
  4  5  1  1
  6  7  2  0
  9  8  1  6
  9 11  1  0
 10  9  1  0
 12 11  1  6
 13 12  1  0
 13  6  1  0
 14 15  2  0
 14 12  1  0
 16 14  1  0
 17 16  1  0
 17 18  1  1
 19 20  1  0
 19 18  1  0
 20 21  1  0
 21 22  1  0
 23 17  1  0
 23 24  1  0
 25 23  2  0
M  END
$$$$
