TLK.pdb
     RDKit          3D

 25 24  0  0  1  0  0  0  0  0999 V2000
   26.0957  -12.7448  -15.2254 C   0  0  0  0  0  0  0  0  0  0  0  0
   25.8535  -13.6362  -16.3894 C   0  0  1  0  0  0  0  0  0  0  0  0
   26.7886  -14.6923  -16.3652 O   0  0  0  0  0  0  0  0  0  0  0  0
   24.4931  -14.2419  -16.4504 C   0  0  2  0  0  0  0  0  0  0  0  0
   24.4835  -15.2285  -17.5071 N   0  0  0  0  0  0  0  0  0  0  0  0
   23.3966  -13.3084  -16.6506 C   0  0  0  0  0  0  0  0  0  0  0  0
   23.1886  -12.7013  -17.7601 O   0  0  0  0  0  0  0  0  0  0  0  0
   18.3369  -14.2520  -14.6138 C   0  0  0  0  0  0  0  0  0  0  0  0
   19.4735  -13.7212  -15.4045 C   0  0  1  0  0  0  0  0  0  0  0  0
   18.8855  -13.2630  -16.7517 C   0  0  0  0  0  0  0  0  0  0  0  0
   20.2104  -12.5597  -14.8569 C   0  0  0  0  0  0  0  0  0  0  0  0
   21.4164  -12.1071  -15.6381 C   0  0  2  0  0  0  0  0  0  0  0  0
   22.5007  -13.0412  -15.5795 N   0  0  0  0  0  0  0  0  0  0  0  0
   21.7635  -10.7369  -15.2645 C   0  0  0  0  0  0  0  0  0  0  0  0
   22.3196  -10.4480  -14.1735 O   0  0  0  0  0  0  0  0  0  0  0  0
   21.4797   -9.6507  -16.1378 N   0  0  0  0  0  0  0  0  0  0  0  0
   21.9100   -8.2724  -15.8406 C   0  0  1  0  0  0  0  0  0  0  0  0
   21.6055   -7.3631  -16.9793 C   0  0  0  0  0  0  0  0  0  0  0  0
   22.0473   -5.9373  -16.7824 C   0  0  0  0  0  0  0  0  0  0  0  0
   21.5671   -5.0932  -17.9642 C   0  0  0  0  0  0  0  0  0  0  0  0
   22.0886   -3.6848  -17.7325 C   0  0  0  0  0  0  0  0  0  0  0  0
   21.6574   -2.7891  -18.7874 N   0  0  0  0  0  0  0  0  0  0  0  0
   21.2070   -7.8372  -14.6226 C   0  0  0  0  0  0  0  0  0  0  0  0
   19.8830   -8.1275  -14.3259 O   0  0  0  0  0  0  0  0  0  0  0  0
   21.8202   -7.1344  -13.7407 O   0  0  0  0  0  0  0  0  0  0  0  0
  2  1  1  1
  3  2  1  0
  4  6  1  0
  4  2  1  0
  4  5  1  6
  6  7  2  0
  9  8  1  1
  9 11  1  0
 10  9  1  0
 12 11  1  1
 13 12  1  0
 13  6  1  0
 14 15  2  0
 14 12  1  0
 16 14  1  0
 17 16  1  0
 17 18  1  6
 19 20  1  0
 19 18  1  0
 20 21  1  0
 21 22  1  0
 23 17  1  0
 23 24  1  0
 25 23  2  0
M  END
$$$$
