TLK.pdb
     RDKit          3D

 25 24  0  0  1  0  0  0  0  0999 V2000
   22.4632  -10.1580  -21.3885 C   0  0  0  0  0  0  0  0  0  0  0  0
   22.0366  -11.4289  -20.7473 C   0  0  1  0  0  0  0  0  0  0  0  0
   21.9423  -12.4346  -21.7322 O   0  0  0  0  0  0  0  0  0  0  0  0
   22.9423  -11.9324  -19.6762 C   0  0  2  0  0  0  0  0  0  0  0  0
   22.4465  -13.2150  -19.2297 N   0  0  0  0  0  0  0  0  0  0  0  0
   23.1115  -11.0540  -18.5301 C   0  0  0  0  0  0  0  0  0  0  0  0
   22.1857  -10.8406  -17.6696 O   0  0  0  0  0  0  0  0  0  0  0  0
   28.3283  -10.2681  -16.5819 C   0  0  0  0  0  0  0  0  0  0  0  0
   26.8558  -10.4075  -16.6864 C   0  0  1  0  0  0  0  0  0  0  0  0
   26.3619  -10.8295  -15.2904 C   0  0  0  0  0  0  0  0  0  0  0  0
   26.0749   -9.2055  -17.0569 C   0  0  0  0  0  0  0  0  0  0  0  0
   24.6057   -9.4181  -17.3131 C   0  0  2  0  0  0  0  0  0  0  0  0
   24.3533  -10.3900  -18.3347 N   0  0  0  0  0  0  0  0  0  0  0  0
   23.9457   -8.1290  -17.5134 C   0  0  0  0  0  0  0  0  0  0  0  0
   24.0834   -7.4485  -18.5628 O   0  0  0  0  0  0  0  0  0  0  0  0
   23.1033   -7.5790  -16.5080 N   0  0  0  0  0  0  0  0  0  0  0  0
   22.3684   -6.3163  -16.7050 C   0  0  1  0  0  0  0  0  0  0  0  0
   20.9363   -6.5776  -17.0166 C   0  0  0  0  0  0  0  0  0  0  0  0
   20.1308   -5.3509  -17.3526 C   0  0  0  0  0  0  0  0  0  0  0  0
   18.7119   -5.7704  -17.7409 C   0  0  0  0  0  0  0  0  0  0  0  0
   18.0144   -4.5212  -18.2530 C   0  0  0  0  0  0  0  0  0  0  0  0
   16.6580   -4.8159  -18.6710 N   0  0  0  0  0  0  0  0  0  0  0  0
   22.4980   -5.5260  -15.4698 C   0  0  0  0  0  0  0  0  0  0  0  0
   22.3128   -4.1535  -15.3847 O   0  0  0  0  0  0  0  0  0  0  0  0
   22.8047   -6.1027  -14.3648 O   0  0  0  0  0  0  0  0  0  0  0  0
  2  1  1  6
  3  2  1  0
  4  6  1  0
  4  2  1  0
  4  5  1  1
  6  7  2  0
  9  8  1  1
  9 11  1  0
 10  9  1  0
 12 11  1  6
 13 12  1  0
 13  6  1  0
 14 15  2  0
 14 12  1  0
 16 14  1  0
 17 16  1  0
 17 18  1  1
 19 20  1  0
 19 18  1  0
 20 21  1  0
 21 22  1  0
 23 17  1  0
 23 24  1  0
 25 23  2  0
M  END
$$$$
