TLK.pdb
     RDKit          3D

 25 24  0  0  1  0  0  0  0  0999 V2000
   26.1112  -18.8754  -16.6707 C   0  0  0  0  0  0  0  0  0  0  0  0
   26.9463  -20.0922  -16.8443 C   0  0  1  0  0  0  0  0  0  0  0  0
   28.1619  -19.7339  -17.4642 O   0  0  0  0  0  0  0  0  0  0  0  0
   27.2802  -20.8155  -15.5847 C   0  0  2  0  0  0  0  0  0  0  0  0
   28.1027  -21.9557  -15.9217 N   0  0  0  0  0  0  0  0  0  0  0  0
   26.1443  -21.2564  -14.7917 C   0  0  0  0  0  0  0  0  0  0  0  0
   25.4415  -22.2864  -15.0886 O   0  0  0  0  0  0  0  0  0  0  0  0
   26.3001  -20.3317   -9.2709 C   0  0  0  0  0  0  0  0  0  0  0  0
   26.0655  -20.8396  -10.6441 C   0  0  1  0  0  0  0  0  0  0  0  0
   25.9064  -22.3659  -10.5186 C   0  0  0  0  0  0  0  0  0  0  0  0
   24.8647  -20.3549  -11.3618 C   0  0  0  0  0  0  0  0  0  0  0  0
   24.6806  -20.8593  -12.7693 C   0  0  2  0  0  0  0  0  0  0  0  0
   25.7775  -20.5262  -13.6283 N   0  0  0  0  0  0  0  0  0  0  0  0
   23.3650  -20.4639  -13.2696 C   0  0  0  0  0  0  0  0  0  0  0  0
   23.0516  -19.2655  -13.4901 O   0  0  0  0  0  0  0  0  0  0  0  0
   22.3635  -21.4391  -13.5324 N   0  0  0  0  0  0  0  0  0  0  0  0
   21.0705  -21.0892  -14.1480 C   0  0  1  0  0  0  0  0  0  0  0  0
   20.5730  -22.1987  -15.0069 C   0  0  0  0  0  0  0  0  0  0  0  0
   19.2329  -21.9483  -15.6458 C   0  0  0  0  0  0  0  0  0  0  0  0
   18.8355  -23.1687  -16.4781 C   0  0  0  0  0  0  0  0  0  0  0  0
   17.5140  -22.8273  -17.1461 C   0  0  0  0  0  0  0  0  0  0  0  0
   16.9776  -23.9720  -17.8556 N   0  0  0  0  0  0  0  0  0  0  0  0
   20.1199  -20.8043  -13.0606 C   0  0  0  0  0  0  0  0  0  0  0  0
   19.0207  -19.9647  -13.1694 O   0  0  0  0  0  0  0  0  0  0  0  0
   20.2774  -21.3472  -11.9081 O   0  0  0  0  0  0  0  0  0  0  0  0
  2  1  1  1
  3  2  1  0
  4  6  1  0
  4  2  1  0
  4  5  1  6
  6  7  2  0
  9  8  1  1
  9 11  1  0
 10  9  1  0
 12 11  1  1
 13 12  1  0
 13  6  1  0
 14 15  2  0
 14 12  1  0
 16 14  1  0
 17 16  1  0
 17 18  1  1
 19 20  1  0
 19 18  1  0
 20 21  1  0
 21 22  1  0
 23 17  1  0
 23 24  1  0
 25 23  2  0
M  END
$$$$
