WAW.pdb
     RDKit          3D

 34 37  0  0  1  0  0  0  0  0999 V2000
   26.6313  -17.6835  -18.4051 N   0  0  0  0  0  0  0  0  0  0  0  0
   26.0622  -18.9602  -18.0039 C   0  0  1  0  0  0  0  0  0  0  0  0
   27.0662  -20.0762  -18.1907 C   0  0  0  0  0  0  0  0  0  0  0  0
   27.4335  -20.2830  -19.5916 C   0  0  0  0  0  0  0  0  0  0  0  0
   28.6933  -20.0989  -20.1276 C   0  0  0  0  0  0  0  0  0  0  0  0
   28.6756  -20.3585  -21.4433 N   0  0  0  0  0  0  0  0  0  0  0  0
   27.3940  -20.7140  -21.7724 C   0  0  0  0  0  0  0  0  0  0  0  0
   26.8382  -21.0689  -22.9748 C   0  0  0  0  0  0  0  0  0  0  0  0
   25.5001  -21.3851  -23.0515 C   0  0  0  0  0  0  0  0  0  0  0  0
   24.7088  -21.3493  -21.9285 C   0  0  0  0  0  0  0  0  0  0  0  0
   25.2614  -20.9949  -20.7168 C   0  0  0  0  0  0  0  0  0  0  0  0
   26.6090  -20.6699  -20.6110 C   0  0  0  0  0  0  0  0  0  0  0  0
   25.8523  -18.8169  -16.5173 C   0  0  0  0  0  0  0  0  0  0  0  0
   26.7652  -18.3432  -15.7825 O   0  0  0  0  0  0  0  0  0  0  0  0
   22.8195  -19.0926  -14.2800 C   0  0  0  0  0  0  0  0  0  0  0  0
   24.3145  -18.9844  -14.5248 C   0  0  2  0  0  0  0  0  0  0  0  0
   24.6518  -19.1969  -15.8943 N   0  0  0  0  0  0  0  0  0  0  0  0
   24.9306  -20.0961  -13.7319 C   0  0  0  0  0  0  0  0  0  0  0  0
   25.9582  -20.6800  -14.1619 O   0  0  0  0  0  0  0  0  0  0  0  0
   24.3532  -20.4884  -12.4968 N   0  0  0  0  0  0  0  0  0  0  0  0
   24.9977  -21.4455  -11.6632 C   0  0  1  0  0  0  0  0  0  0  0  0
   26.4049  -21.1464  -11.2774 C   0  0  0  0  0  0  0  0  0  0  0  0
   26.4333  -20.3250  -10.0203 C   0  0  0  0  0  0  0  0  0  0  0  0
   25.4024  -19.5649   -9.4967 C   0  0  0  0  0  0  0  0  0  0  0  0
   25.8172  -18.9730   -8.3569 N   0  0  0  0  0  0  0  0  0  0  0  0
   27.0845  -19.3407   -8.1496 C   0  0  0  0  0  0  0  0  0  0  0  0
   27.9282  -18.9770   -7.0996 C   0  0  0  0  0  0  0  0  0  0  0  0
   29.1970  -19.4822   -7.1003 C   0  0  0  0  0  0  0  0  0  0  0  0
   29.6259  -20.3210   -8.1037 C   0  0  0  0  0  0  0  0  0  0  0  0
   28.7919  -20.6800   -9.1406 C   0  0  0  0  0  0  0  0  0  0  0  0
   27.5064  -20.1872   -9.1689 C   0  0  0  0  0  0  0  0  0  0  0  0
   24.2015  -21.9291  -10.5105 C   0  0  0  0  0  0  0  0  0  0  0  0
   24.4905  -22.8926   -9.8244 O   0  0  0  0  0  0  0  0  0  0  0  0
   23.0344  -21.1933  -10.2235 O   0  0  0  0  0  0  0  0  0  0  0  0
  2  1  1  1
  2  3  1  0
  4  3  1  0
  5  4  2  0
  6  5  1  0
  7  6  1  0
  7 12  2  0
  8  9  2  0
  8  7  1  0
  9 10  1  0
 10 11  2  0
 12 11  1  0
 12  4  1  0
 13  2  1  0
 13 14  2  0
 16 15  1  6
 16 17  1  0
 17 13  1  0
 18 16  1  0
 19 18  2  0
 20 18  1  0
 21 22  1  1
 21 20  1  0
 22 23  1  0
 23 31  1  0
 24 25  1  0
 24 23  2  0
 25 26  1  0
 26 31  2  0
 26 27  1  0
 27 28  2  0
 28 29  1  0
 30 29  2  0
 31 30  1  0
 32 34  1  0
 32 21  1  0
 33 32  2  0
M  END
$$$$
