WAW.pdb
     RDKit          3D

 34 37  0  0  1  0  0  0  0  0999 V2000
   28.2133  -21.8863  -14.3394 N   0  0  0  0  0  0  0  0  0  0  0  0
   27.0321  -21.9292  -13.4922 C   0  0  1  0  0  0  0  0  0  0  0  0
   26.8610  -20.6248  -12.7457 C   0  0  0  0  0  0  0  0  0  0  0  0
   27.8102  -20.4711  -11.6431 C   0  0  0  0  0  0  0  0  0  0  0  0
   29.1453  -20.1408  -11.7723 C   0  0  0  0  0  0  0  0  0  0  0  0
   29.7282  -20.1019  -10.5651 N   0  0  0  0  0  0  0  0  0  0  0  0
   28.7682  -20.4106   -9.6376 C   0  0  0  0  0  0  0  0  0  0  0  0
   28.8353  -20.5142   -8.2718 C   0  0  0  0  0  0  0  0  0  0  0  0
   27.7126  -20.8480   -7.5477 C   0  0  0  0  0  0  0  0  0  0  0  0
   26.5160  -21.0802   -8.1824 C   0  0  0  0  0  0  0  0  0  0  0  0
   26.4413  -20.9764   -9.5546 C   0  0  0  0  0  0  0  0  0  0  0  0
   27.5593  -20.6420  -10.3102 C   0  0  0  0  0  0  0  0  0  0  0  0
   25.8848  -22.0188  -14.4671 C   0  0  0  0  0  0  0  0  0  0  0  0
   25.7254  -21.1328  -15.3544 O   0  0  0  0  0  0  0  0  0  0  0  0
   23.1961  -24.5293  -15.2996 C   0  0  0  0  0  0  0  0  0  0  0  0
   23.7034  -23.1104  -15.1093 C   0  0  2  0  0  0  0  0  0  0  0  0
   24.9585  -23.0744  -14.4327 N   0  0  0  0  0  0  0  0  0  0  0  0
   22.6961  -22.4412  -14.2253 C   0  0  0  0  0  0  0  0  0  0  0  0
   22.8624  -22.4313  -12.9787 O   0  0  0  0  0  0  0  0  0  0  0  0
   21.5558  -21.8197  -14.7963 N   0  0  0  0  0  0  0  0  0  0  0  0
   20.6766  -21.0362  -13.9966 C   0  0  1  0  0  0  0  0  0  0  0  0
   21.3117  -20.0024  -13.1328 C   0  0  0  0  0  0  0  0  0  0  0  0
   21.6365  -18.7799  -13.9426 C   0  0  0  0  0  0  0  0  0  0  0  0
   20.7470  -17.8305  -14.4138 C   0  0  0  0  0  0  0  0  0  0  0  0
   21.4230  -16.8860  -15.1012 N   0  0  0  0  0  0  0  0  0  0  0  0
   22.7169  -17.2173  -15.0756 C   0  0  0  0  0  0  0  0  0  0  0  0
   23.7925  -16.5417  -15.6529 C   0  0  0  0  0  0  0  0  0  0  0  0
   25.0384  -17.0777  -15.4934 C   0  0  0  0  0  0  0  0  0  0  0  0
   25.2235  -18.2444  -14.7869 C   0  0  0  0  0  0  0  0  0  0  0  0
   24.1605  -18.9111  -14.2167 C   0  0  0  0  0  0  0  0  0  0  0  0
   22.8914  -18.3965  -14.3598 C   0  0  0  0  0  0  0  0  0  0  0  0
   19.4763  -20.5125  -14.6907 C   0  0  0  0  0  0  0  0  0  0  0  0
   19.4288  -20.2293  -15.8739 O   0  0  0  0  0  0  0  0  0  0  0  0
   18.3312  -20.3445  -13.8867 O   0  0  0  0  0  0  0  0  0  0  0  0
  2  1  1  6
  2  3  1  0
  4  3  1  0
  5  4  2  0
  6  5  1  0
  7  6  1  0
  7 12  2  0
  8  9  2  0
  8  7  1  0
  9 10  1  0
 10 11  2  0
 12 11  1  0
 12  4  1  0
 13  2  1  0
 13 14  2  0
 16 15  1  1
 16 17  1  0
 17 13  1  0
 18 16  1  0
 19 18  2  0
 20 18  1  0
 21 22  1  6
 21 20  1  0
 22 23  1  0
 23 31  1  0
 24 25  1  0
 24 23  2  0
 25 26  1  0
 26 31  2  0
 26 27  1  0
 27 28  2  0
 28 29  1  0
 30 29  2  0
 31 30  1  0
 32 34  1  0
 32 21  1  0
 33 32  2  0
M  END
$$$$
