WAW.pdb
     RDKit          3D

 34 37  0  0  1  0  0  0  0  0999 V2000
   26.1714  -18.6714  -19.1793 N   0  0  0  0  0  0  0  0  0  0  0  0
   25.5942  -18.8542  -17.8571 C   0  0  1  0  0  0  0  0  0  0  0  0
   24.4262  -19.8140  -17.9107 C   0  0  0  0  0  0  0  0  0  0  0  0
   23.3561  -19.3594  -18.7986 C   0  0  0  0  0  0  0  0  0  0  0  0
   22.8327  -20.0749  -19.8582 C   0  0  0  0  0  0  0  0  0  0  0  0
   21.8798  -19.3575  -20.4714 N   0  0  0  0  0  0  0  0  0  0  0  0
   21.7789  -18.1620  -19.8096 C   0  0  0  0  0  0  0  0  0  0  0  0
   20.9701  -17.0765  -20.0288 C   0  0  0  0  0  0  0  0  0  0  0  0
   21.0609  -15.9707  -19.2132 C   0  0  0  0  0  0  0  0  0  0  0  0
   21.9592  -15.9417  -18.1736 C   0  0  0  0  0  0  0  0  0  0  0  0
   22.7740  -17.0299  -17.9470 C   0  0  0  0  0  0  0  0  0  0  0  0
   22.7041  -18.1588  -18.7554 C   0  0  0  0  0  0  0  0  0  0  0  0
   26.6821  -19.5462  -17.0747 C   0  0  0  0  0  0  0  0  0  0  0  0
   27.1199  -20.6735  -17.4427 O   0  0  0  0  0  0  0  0  0  0  0  0
   29.1440  -18.4771  -14.4624 C   0  0  0  0  0  0  0  0  0  0  0  0
   28.2959  -19.5419  -15.1360 C   0  0  2  0  0  0  0  0  0  0  0  0
   27.2480  -18.9770  -15.9217 N   0  0  0  0  0  0  0  0  0  0  0  0
   27.6574  -20.3096  -14.0194 C   0  0  0  0  0  0  0  0  0  0  0  0
   28.3710  -20.9753  -13.2261 O   0  0  0  0  0  0  0  0  0  0  0  0
   26.2480  -20.2842  -13.8589 N   0  0  0  0  0  0  0  0  0  0  0  0
   25.6277  -20.9507  -12.7646 C   0  0  1  0  0  0  0  0  0  0  0  0
   24.4940  -20.2384  -12.1122 C   0  0  0  0  0  0  0  0  0  0  0  0
   23.2859  -20.2624  -13.0043 C   0  0  0  0  0  0  0  0  0  0  0  0
   22.2147  -21.1356  -12.9350 C   0  0  0  0  0  0  0  0  0  0  0  0
   21.3307  -20.8376  -13.9104 N   0  0  0  0  0  0  0  0  0  0  0  0
   21.8189  -19.7985  -14.5934 C   0  0  0  0  0  0  0  0  0  0  0  0
   21.2555  -19.1444  -15.6894 C   0  0  0  0  0  0  0  0  0  0  0  0
   21.9467  -18.0970  -16.2280 C   0  0  0  0  0  0  0  0  0  0  0  0
   23.1574  -17.7024  -15.7054 C   0  0  0  0  0  0  0  0  0  0  0  0
   23.7133  -18.3490  -14.6225 C   0  0  0  0  0  0  0  0  0  0  0  0
   23.0412  -19.4092  -14.0568 C   0  0  0  0  0  0  0  0  0  0  0  0
   25.3270  -22.3863  -12.9775 C   0  0  0  0  0  0  0  0  0  0  0  0
   24.8896  -23.1364  -12.1238 O   0  0  0  0  0  0  0  0  0  0  0  0
   25.5806  -22.8772  -14.2738 O   0  0  0  0  0  0  0  0  0  0  0  0
  2  1  1  6
  2  3  1  0
  4  3  1  0
  5  4  2  0
  6  5  1  0
  7  6  1  0
  7 12  2  0
  8  9  2  0
  8  7  1  0
  9 10  1  0
 10 11  2  0
 12 11  1  0
 12  4  1  0
 13  2  1  0
 13 14  2  0
 16 15  1  1
 16 17  1  0
 17 13  1  0
 18 16  1  0
 19 18  2  0
 20 18  1  0
 21 22  1  6
 21 20  1  0
 22 23  1  0
 23 31  1  0
 24 25  1  0
 24 23  2  0
 25 26  1  0
 26 31  2  0
 26 27  1  0
 27 28  2  0
 28 29  1  0
 30 29  2  0
 31 30  1  0
 32 34  1  0
 32 21  1  0
 33 32  2  0
M  END
$$$$
