WAW.pdb
     RDKit          3D

 34 37  0  0  1  0  0  0  0  0999 V2000
   25.5538  -22.3664  -16.9457 N   0  0  0  0  0  0  0  0  0  0  0  0
   25.2308  -21.2928  -16.0196 C   0  0  1  0  0  0  0  0  0  0  0  0
   23.8159  -21.4375  -15.5044 C   0  0  0  0  0  0  0  0  0  0  0  0
   22.8079  -21.0610  -16.4956 C   0  0  0  0  0  0  0  0  0  0  0  0
   21.8202  -21.8896  -16.9920 C   0  0  0  0  0  0  0  0  0  0  0  0
   21.0801  -21.2319  -17.8967 N   0  0  0  0  0  0  0  0  0  0  0  0
   21.5875  -19.9630  -17.9951 C   0  0  0  0  0  0  0  0  0  0  0  0
   21.2067  -18.8982  -18.7709 C   0  0  0  0  0  0  0  0  0  0  0  0
   21.8904  -17.7055  -18.6916 C   0  0  0  0  0  0  0  0  0  0  0  0
   22.9581  -17.5682  -17.8373 C   0  0  0  0  0  0  0  0  0  0  0  0
   23.3450  -18.6340  -17.0538 C   0  0  0  0  0  0  0  0  0  0  0  0
   22.6733  -19.8497  -17.1145 C   0  0  0  0  0  0  0  0  0  0  0  0
   26.1423  -21.5369  -14.8430 C   0  0  0  0  0  0  0  0  0  0  0  0
   26.2848  -22.7012  -14.3718 O   0  0  0  0  0  0  0  0  0  0  0  0
   28.4383  -19.3419  -12.7624 C   0  0  0  0  0  0  0  0  0  0  0  0
   27.6525  -20.6099  -13.0478 C   0  0  2  0  0  0  0  0  0  0  0  0
   26.8619  -20.4978  -14.2298 N   0  0  0  0  0  0  0  0  0  0  0  0
   26.7134  -20.7667  -11.8914 C   0  0  0  0  0  0  0  0  0  0  0  0
   25.5015  -20.4555  -12.0195 O   0  0  0  0  0  0  0  0  0  0  0  0
   27.1931  -21.2660  -10.6532 N   0  0  0  0  0  0  0  0  0  0  0  0
   26.3400  -21.3334   -9.5156 C   0  0  1  0  0  0  0  0  0  0  0  0
   26.9823  -21.7194   -8.2284 C   0  0  0  0  0  0  0  0  0  0  0  0
   27.4736  -20.4964   -7.5082 C   0  0  0  0  0  0  0  0  0  0  0  0
   27.1644  -19.1785   -7.7949 C   0  0  0  0  0  0  0  0  0  0  0  0
   27.8037  -18.3693   -6.9243 N   0  0  0  0  0  0  0  0  0  0  0  0
   28.5091  -19.1448   -6.0963 C   0  0  0  0  0  0  0  0  0  0  0  0
   29.3278  -18.7550   -5.0359 C   0  0  0  0  0  0  0  0  0  0  0  0
   29.9555  -19.7370   -4.3241 C   0  0  0  0  0  0  0  0  0  0  0  0
   29.7845  -21.0647   -4.6441 C   0  0  0  0  0  0  0  0  0  0  0  0
   28.9754  -21.4491   -5.6916 C   0  0  0  0  0  0  0  0  0  0  0  0
   28.3286  -20.4828   -6.4290 C   0  0  0  0  0  0  0  0  0  0  0  0
   25.4085  -20.1932   -9.3462 C   0  0  0  0  0  0  0  0  0  0  0  0
   25.6804  -19.0332   -9.5977 O   0  0  0  0  0  0  0  0  0  0  0  0
   24.1280  -20.5189   -8.8562 O   0  0  0  0  0  0  0  0  0  0  0  0
  2  1  1  6
  2  3  1  0
  4  3  1  0
  5  4  2  0
  6  5  1  0
  7  6  1  0
  7 12  2  0
  8  9  2  0
  8  7  1  0
  9 10  1  0
 10 11  2  0
 12 11  1  0
 12  4  1  0
 13  2  1  0
 13 14  2  0
 16 15  1  1
 16 17  1  0
 17 13  1  0
 18 16  1  0
 19 18  2  0
 20 18  1  0
 21 22  1  1
 21 20  1  0
 22 23  1  0
 23 31  1  0
 24 25  1  0
 24 23  2  0
 25 26  1  0
 26 31  2  0
 26 27  1  0
 27 28  2  0
 28 29  1  0
 30 29  2  0
 31 30  1  0
 32 34  1  0
 32 21  1  0
 33 32  2  0
M  END
$$$$
