WAW.pdb
     RDKit          3D

 34 37  0  0  1  0  0  0  0  0999 V2000
   24.3574  -19.1221  -17.6590 N   0  0  0  0  0  0  0  0  0  0  0  0
   24.8926  -19.2023  -16.3093 C   0  0  1  0  0  0  0  0  0  0  0  0
   23.7945  -19.0158  -15.2858 C   0  0  0  0  0  0  0  0  0  0  0  0
   23.0358  -17.7806  -15.4835 C   0  0  0  0  0  0  0  0  0  0  0  0
   21.6732  -17.6997  -15.6956 C   0  0  0  0  0  0  0  0  0  0  0  0
   21.3080  -16.4192  -15.8559 N   0  0  0  0  0  0  0  0  0  0  0  0
   22.4403  -15.6550  -15.7495 C   0  0  0  0  0  0  0  0  0  0  0  0
   22.6236  -14.2989  -15.8390 C   0  0  0  0  0  0  0  0  0  0  0  0
   23.8832  -13.7607  -15.6980 C   0  0  0  0  0  0  0  0  0  0  0  0
   24.9675  -14.5727  -15.4666 C   0  0  0  0  0  0  0  0  0  0  0  0
   24.7900  -15.9362  -15.3742 C   0  0  0  0  0  0  0  0  0  0  0  0
   23.5297  -16.5063  -15.5135 C   0  0  0  0  0  0  0  0  0  0  0  0
   25.3574  -20.6316  -16.1835 C   0  0  0  0  0  0  0  0  0  0  0  0
   25.1345  -21.4631  -17.1091 O   0  0  0  0  0  0  0  0  0  0  0  0
   28.2365  -20.0149  -14.9094 C   0  0  0  0  0  0  0  0  0  0  0  0
   27.4538  -21.3155  -14.9589 C   0  0  2  0  0  0  0  0  0  0  0  0
   26.0478  -21.0937  -15.0507 N   0  0  0  0  0  0  0  0  0  0  0  0
   27.7182  -21.9910  -13.6482 C   0  0  0  0  0  0  0  0  0  0  0  0
   28.8958  -22.2869  -13.3201 O   0  0  0  0  0  0  0  0  0  0  0  0
   26.6391  -22.2958  -12.7792 N   0  0  0  0  0  0  0  0  0  0  0  0
   26.4955  -21.6229  -11.5329 C   0  0  1  0  0  0  0  0  0  0  0  0
   27.5655  -20.6491  -11.1793 C   0  0  0  0  0  0  0  0  0  0  0  0
   27.3167  -20.0812   -9.8113 C   0  0  0  0  0  0  0  0  0  0  0  0
   26.2503  -19.2929   -9.4163 C   0  0  0  0  0  0  0  0  0  0  0  0
   26.3842  -18.9808   -8.1101 N   0  0  0  0  0  0  0  0  0  0  0  0
   27.5094  -19.5523   -7.6722 C   0  0  0  0  0  0  0  0  0  0  0  0
   28.0593  -19.5057   -6.3908 C   0  0  0  0  0  0  0  0  0  0  0  0
   29.2314  -20.1734   -6.1780 C   0  0  0  0  0  0  0  0  0  0  0  0
   29.8467  -20.8678   -7.1948 C   0  0  0  0  0  0  0  0  0  0  0  0
   29.3029  -20.9136   -8.4604 C   0  0  0  0  0  0  0  0  0  0  0  0
   28.1217  -20.2503   -8.7073 C   0  0  0  0  0  0  0  0  0  0  0  0
   25.1444  -21.0840  -11.2490 C   0  0  0  0  0  0  0  0  0  0  0  0
   24.5446  -20.3044  -11.9667 O   0  0  0  0  0  0  0  0  0  0  0  0
   24.5482  -21.5307  -10.0528 O   0  0  0  0  0  0  0  0  0  0  0  0
  2  1  1  6
  2  3  1  0
  4  3  1  0
  5  4  2  0
  6  5  1  0
  7  6  1  0
  7 12  2  0
  8  9  2  0
  8  7  1  0
  9 10  1  0
 10 11  2  0
 12 11  1  0
 12  4  1  0
 13  2  1  0
 13 14  2  0
 16 15  1  1
 16 17  1  0
 17 13  1  0
 18 16  1  0
 19 18  2  0
 20 18  1  0
 21 22  1  6
 21 20  1  0
 22 23  1  0
 23 31  1  0
 24 25  1  0
 24 23  2  0
 25 26  1  0
 26 31  2  0
 26 27  1  0
 27 28  2  0
 28 29  1  0
 30 29  2  0
 31 30  1  0
 32 34  1  0
 32 21  1  0
 33 32  2  0
M  END
$$$$
