WAW.pdb
     RDKit          3D

 34 37  0  0  1  0  0  0  0  0999 V2000
   28.1372  -21.6467  -16.0970 N   0  0  0  0  0  0  0  0  0  0  0  0
   27.3820  -21.2473  -14.9202 C   0  0  1  0  0  0  0  0  0  0  0  0
   27.9958  -20.0215  -14.2807 C   0  0  0  0  0  0  0  0  0  0  0  0
   29.3366  -20.2674  -13.7497 C   0  0  0  0  0  0  0  0  0  0  0  0
   30.5215  -20.0426  -14.4235 C   0  0  0  0  0  0  0  0  0  0  0  0
   31.5620  -20.3923  -13.6530 N   0  0  0  0  0  0  0  0  0  0  0  0
   31.0553  -20.8513  -12.4656 C   0  0  0  0  0  0  0  0  0  0  0  0
   31.6819  -21.3319  -11.3445 C   0  0  0  0  0  0  0  0  0  0  0  0
   30.9393  -21.7437  -10.2603 C   0  0  0  0  0  0  0  0  0  0  0  0
   29.5669  -21.6780  -10.2885 C   0  0  0  0  0  0  0  0  0  0  0  0
   28.9310  -21.1946  -11.4116 C   0  0  0  0  0  0  0  0  0  0  0  0
   29.6559  -20.7732  -12.5205 C   0  0  0  0  0  0  0  0  0  0  0  0
   26.0447  -20.8193  -15.4708 C   0  0  0  0  0  0  0  0  0  0  0  0
   25.9339  -20.4520  -16.6752 O   0  0  0  0  0  0  0  0  0  0  0  0
   24.0189  -23.0686  -15.0453 C   0  0  0  0  0  0  0  0  0  0  0  0
   23.7083  -21.5880  -14.9113 C   0  0  2  0  0  0  0  0  0  0  0  0
   24.8822  -20.8110  -14.6819 N   0  0  0  0  0  0  0  0  0  0  0  0
   22.8451  -21.4696  -13.6928 C   0  0  0  0  0  0  0  0  0  0  0  0
   21.6762  -21.9339  -13.7032 O   0  0  0  0  0  0  0  0  0  0  0  0
   23.3480  -20.8335  -12.5286 N   0  0  0  0  0  0  0  0  0  0  0  0
   22.5757  -20.7859  -11.3337 C   0  0  1  0  0  0  0  0  0  0  0  0
   23.2197  -21.3329  -10.1072 C   0  0  0  0  0  0  0  0  0  0  0  0
   24.5636  -20.6950   -9.9000 C   0  0  0  0  0  0  0  0  0  0  0  0
   25.2678  -19.9202  -10.8046 C   0  0  0  0  0  0  0  0  0  0  0  0
   26.4350  -19.5328  -10.2485 N   0  0  0  0  0  0  0  0  0  0  0  0
   26.4841  -20.0452   -9.0159 C   0  0  0  0  0  0  0  0  0  0  0  0
   27.4982  -19.9148   -8.0665 C   0  0  0  0  0  0  0  0  0  0  0  0
   27.3249  -20.5360   -6.8628 C   0  0  0  0  0  0  0  0  0  0  0  0
   26.1878  -21.2650   -6.5980 C   0  0  0  0  0  0  0  0  0  0  0  0
   25.1863  -21.3932   -7.5362 C   0  0  0  0  0  0  0  0  0  0  0  0
   25.3310  -20.7789   -8.7600 C   0  0  0  0  0  0  0  0  0  0  0  0
   21.8872  -19.5006  -11.0680 C   0  0  0  0  0  0  0  0  0  0  0  0
   21.0770  -19.3200  -10.1771 O   0  0  0  0  0  0  0  0  0  0  0  0
   22.2223  -18.4388  -11.9318 O   0  0  0  0  0  0  0  0  0  0  0  0
  2  1  1  6
  2  3  1  0
  4  3  1  0
  5  4  2  0
  6  5  1  0
  7  6  1  0
  7 12  2  0
  8  9  2  0
  8  7  1  0
  9 10  1  0
 10 11  2  0
 12 11  1  0
 12  4  1  0
 13  2  1  0
 13 14  2  0
 16 15  1  1
 16 17  1  0
 17 13  1  0
 18 16  1  0
 19 18  2  0
 20 18  1  0
 21 22  1  1
 21 20  1  0
 22 23  1  0
 23 31  1  0
 24 25  1  0
 24 23  2  0
 25 26  1  0
 26 31  2  0
 26 27  1  0
 27 28  2  0
 28 29  1  0
 30 29  2  0
 31 30  1  0
 32 34  1  0
 32 21  1  0
 33 32  2  0
M  END
$$$$
