WAW.pdb
     RDKit          3D

 34 37  0  0  1  0  0  0  0  0999 V2000
   31.9751  -27.6686  -21.7829 N   0  0  0  0  0  0  0  0  0  0  0  0
   32.7164  -28.7297  -21.1202 C   0  0  1  0  0  0  0  0  0  0  0  0
   33.4979  -28.1840  -19.9456 C   0  0  0  0  0  0  0  0  0  0  0  0
   34.6999  -27.4552  -20.3509 C   0  0  0  0  0  0  0  0  0  0  0  0
   34.9030  -26.0964  -20.2058 C   0  0  0  0  0  0  0  0  0  0  0  0
   36.1031  -25.7558  -20.6983 N   0  0  0  0  0  0  0  0  0  0  0  0
   36.6904  -26.8997  -21.1712 C   0  0  0  0  0  0  0  0  0  0  0  0
   37.9053  -27.1062  -21.7728 C   0  0  0  0  0  0  0  0  0  0  0  0
   38.2739  -28.3722  -22.1699 C   0  0  0  0  0  0  0  0  0  0  0  0
   37.4324  -29.4398  -21.9687 C   0  0  0  0  0  0  0  0  0  0  0  0
   36.2106  -29.2394  -21.3633 C   0  0  0  0  0  0  0  0  0  0  0  0
   35.8127  -27.9719  -20.9535 C   0  0  0  0  0  0  0  0  0  0  0  0
   31.6446  -29.6213  -20.5447 C   0  0  0  0  0  0  0  0  0  0  0  0
   30.5283  -29.1412  -20.1969 O   0  0  0  0  0  0  0  0  0  0  0  0
   31.1686  -33.3500  -20.5021 C   0  0  0  0  0  0  0  0  0  0  0  0
   30.8326  -31.9505  -20.0171 C   0  0  2  0  0  0  0  0  0  0  0  0
   31.8369  -31.0024  -20.3736 N   0  0  0  0  0  0  0  0  0  0  0  0
   30.8095  -32.0408  -18.5220 C   0  0  0  0  0  0  0  0  0  0  0  0
   31.8887  -32.1099  -17.8799 O   0  0  0  0  0  0  0  0  0  0  0  0
   29.5694  -32.0483  -17.8329 N   0  0  0  0  0  0  0  0  0  0  0  0
   29.5259  -31.9810  -16.4116 C   0  0  1  0  0  0  0  0  0  0  0  0
   28.6617  -30.9190  -15.8254 C   0  0  0  0  0  0  0  0  0  0  0  0
   27.2135  -31.2819  -15.9883 C   0  0  0  0  0  0  0  0  0  0  0  0
   26.4458  -32.0549  -15.1352 C   0  0  0  0  0  0  0  0  0  0  0  0
   25.1930  -32.1549  -15.6273 N   0  0  0  0  0  0  0  0  0  0  0  0
   25.1524  -31.4645  -16.7702 C   0  0  0  0  0  0  0  0  0  0  0  0
   24.0701  -31.2844  -17.6321 C   0  0  0  0  0  0  0  0  0  0  0  0
   24.2698  -30.5312  -18.7535 C   0  0  0  0  0  0  0  0  0  0  0  0
   25.4977  -29.9702  -19.0218 C   0  0  0  0  0  0  0  0  0  0  0  0
   26.5665  -30.1483  -18.1699 C   0  0  0  0  0  0  0  0  0  0  0  0
   26.3975  -30.9029  -17.0306 C   0  0  0  0  0  0  0  0  0  0  0  0
   29.3543  -33.2778  -15.7149 C   0  0  0  0  0  0  0  0  0  0  0  0
   29.1066  -34.3339  -16.2679 O   0  0  0  0  0  0  0  0  0  0  0  0
   29.4950  -33.2407  -14.3132 O   0  0  0  0  0  0  0  0  0  0  0  0
  2  1  1  1
  2  3  1  0
  4  3  1  0
  5  4  2  0
  6  5  1  0
  7  6  1  0
  7 12  2  0
  8  9  2  0
  8  7  1  0
  9 10  1  0
 10 11  2  0
 12 11  1  0
 12  4  1  0
 13  2  1  0
 13 14  2  0
 16 15  1  6
 16 17  1  0
 17 13  1  0
 18 16  1  0
 19 18  2  0
 20 18  1  0
 21 22  1  6
 21 20  1  0
 22 23  1  0
 23 31  1  0
 24 25  1  0
 24 23  2  0
 25 26  1  0
 26 31  2  0
 26 27  1  0
 27 28  2  0
 28 29  1  0
 30 29  2  0
 31 30  1  0
 32 34  1  0
 32 21  1  0
 33 32  2  0
M  END
$$$$
