WAW.pdb
     RDKit          3D

 34 37  0  0  1  0  0  0  0  0999 V2000
   27.5699  -21.4032   -9.3657 N   0  0  0  0  0  0  0  0  0  0  0  0
   26.2054  -21.1066   -8.9597 C   0  0  1  0  0  0  0  0  0  0  0  0
   26.1051  -19.7031   -8.4044 C   0  0  0  0  0  0  0  0  0  0  0  0
   27.0480  -19.4535   -7.3141 C   0  0  0  0  0  0  0  0  0  0  0  0
   28.0961  -18.5541   -7.3481 C   0  0  0  0  0  0  0  0  0  0  0  0
   28.7710  -18.5906   -6.1898 N   0  0  0  0  0  0  0  0  0  0  0  0
   28.1617  -19.5222   -5.3909 C   0  0  0  0  0  0  0  0  0  0  0  0
   28.4529  -19.9480   -4.1203 C   0  0  0  0  0  0  0  0  0  0  0  0
   27.6794  -20.9174   -3.5218 C   0  0  0  0  0  0  0  0  0  0  0  0
   26.6105  -21.4675   -4.1877 C   0  0  0  0  0  0  0  0  0  0  0  0
   26.3116  -21.0430   -5.4643 C   0  0  0  0  0  0  0  0  0  0  0  0
   27.0762  -20.0667   -6.0927 C   0  0  0  0  0  0  0  0  0  0  0  0
   25.4288  -21.1125  -10.2526 C   0  0  0  0  0  0  0  0  0  0  0  0
   26.0286  -21.0322  -11.3623 O   0  0  0  0  0  0  0  0  0  0  0  0
   21.7453  -21.4869  -11.1090 C   0  0  0  0  0  0  0  0  0  0  0  0
   23.2186  -21.3391  -11.4470 C   0  0  2  0  0  0  0  0  0  0  0  0
   24.0273  -21.2069  -10.2795 N   0  0  0  0  0  0  0  0  0  0  0  0
   23.3255  -20.0581  -12.2160 C   0  0  0  0  0  0  0  0  0  0  0  0
   23.3738  -18.9602  -11.6043 O   0  0  0  0  0  0  0  0  0  0  0  0
   23.3720  -20.0858  -13.6337 N   0  0  0  0  0  0  0  0  0  0  0  0
   23.5402  -18.8854  -14.3802 C   0  0  1  0  0  0  0  0  0  0  0  0
   24.6791  -18.0122  -13.9817 C   0  0  0  0  0  0  0  0  0  0  0  0
   25.9507  -18.4988  -14.6156 C   0  0  0  0  0  0  0  0  0  0  0  0
   26.3314  -18.3565  -15.9383 C   0  0  0  0  0  0  0  0  0  0  0  0
   27.5400  -18.9288  -16.1201 N   0  0  0  0  0  0  0  0  0  0  0  0
   27.9303  -19.4292  -14.9446 C   0  0  0  0  0  0  0  0  0  0  0  0
   29.1098  -20.1118  -14.6457 C   0  0  0  0  0  0  0  0  0  0  0  0
   29.2906  -20.5344  -13.3598 C   0  0  0  0  0  0  0  0  0  0  0  0
   28.3400  -20.2937  -12.3939 C   0  0  0  0  0  0  0  0  0  0  0  0
   27.1750  -19.6191  -12.6898 C   0  0  0  0  0  0  0  0  0  0  0  0
   26.9627  -19.1802  -13.9775 C   0  0  0  0  0  0  0  0  0  0  0  0
   23.4451  -19.0290  -15.8523 C   0  0  0  0  0  0  0  0  0  0  0  0
   23.5947  -20.0750  -16.4573 O   0  0  0  0  0  0  0  0  0  0  0  0
   23.1607  -17.8462  -16.5636 O   0  0  0  0  0  0  0  0  0  0  0  0
  2  1  1  6
  2  3  1  0
  4  3  1  0
  5  4  2  0
  6  5  1  0
  7  6  1  0
  7 12  2  0
  8  9  2  0
  8  7  1  0
  9 10  1  0
 10 11  2  0
 12 11  1  0
 12  4  1  0
 13  2  1  0
 13 14  2  0
 16 15  1  1
 16 17  1  0
 17 13  1  0
 18 16  1  0
 19 18  2  0
 20 18  1  0
 21 22  1  6
 21 20  1  0
 22 23  1  0
 23 31  1  0
 24 25  1  0
 24 23  2  0
 25 26  1  0
 26 31  2  0
 26 27  1  0
 27 28  2  0
 28 29  1  0
 30 29  2  0
 31 30  1  0
 32 34  1  0
 32 21  1  0
 33 32  2  0
M  END
$$$$
