WAW.pdb
     RDKit          3D

 34 37  0  0  1  0  0  0  0  0999 V2000
   24.5005  -17.0936  -16.4501 N   0  0  0  0  0  0  0  0  0  0  0  0
   25.6602  -17.9132  -16.1368 C   0  0  1  0  0  0  0  0  0  0  0  0
   26.2805  -17.4842  -14.8255 C   0  0  0  0  0  0  0  0  0  0  0  0
   27.5931  -18.0867  -14.5926 C   0  0  0  0  0  0  0  0  0  0  0  0
   28.7483  -17.7912  -15.2902 C   0  0  0  0  0  0  0  0  0  0  0  0
   29.7649  -18.5371  -14.8334 N   0  0  0  0  0  0  0  0  0  0  0  0
   29.2720  -19.3288  -13.8296 C   0  0  0  0  0  0  0  0  0  0  0  0
   29.8843  -20.2686  -13.0407 C   0  0  0  0  0  0  0  0  0  0  0  0
   29.1606  -20.9471  -12.0855 C   0  0  0  0  0  0  0  0  0  0  0  0
   27.8215  -20.6914  -11.9119 C   0  0  0  0  0  0  0  0  0  0  0  0
   27.2005  -19.7471  -12.7005 C   0  0  0  0  0  0  0  0  0  0  0  0
   27.9067  -19.0482  -13.6729 C   0  0  0  0  0  0  0  0  0  0  0  0
   25.0859  -19.2891  -15.9094 C   0  0  0  0  0  0  0  0  0  0  0  0
   23.8678  -19.4343  -15.6047 O   0  0  0  0  0  0  0  0  0  0  0  0
   26.4003  -22.7684  -16.5905 C   0  0  0  0  0  0  0  0  0  0  0  0
   25.3794  -21.7914  -16.0340 C   0  0  2  0  0  0  0  0  0  0  0  0
   25.8671  -20.4510  -16.0253 N   0  0  0  0  0  0  0  0  0  0  0  0
   25.1681  -22.2026  -14.6091 C   0  0  0  0  0  0  0  0  0  0  0  0
   25.8302  -23.1565  -14.1257 O   0  0  0  0  0  0  0  0  0  0  0  0
   24.2209  -21.5151  -13.8074 N   0  0  0  0  0  0  0  0  0  0  0  0
   23.9315  -21.9542  -12.4845 C   0  0  1  0  0  0  0  0  0  0  0  0
   25.1032  -22.2298  -11.6073 C   0  0  0  0  0  0  0  0  0  0  0  0
   25.5503  -20.9665  -10.9291 C   0  0  0  0  0  0  0  0  0  0  0  0
   25.4150  -19.6729  -11.4014 C   0  0  0  0  0  0  0  0  0  0  0  0
   25.9427  -18.8121  -10.5059 N   0  0  0  0  0  0  0  0  0  0  0  0
   26.4083  -19.5313   -9.4810 C   0  0  0  0  0  0  0  0  0  0  0  0
   27.0394  -19.0761   -8.3230 C   0  0  0  0  0  0  0  0  0  0  0  0
   27.4336  -20.0084   -7.4062 C   0  0  0  0  0  0  0  0  0  0  0  0
   27.2143  -21.3503   -7.6200 C   0  0  0  0  0  0  0  0  0  0  0  0
   26.5905  -21.7993   -8.7641 C   0  0  0  0  0  0  0  0  0  0  0  0
   26.1813  -20.8843   -9.7081 C   0  0  0  0  0  0  0  0  0  0  0  0
   22.8784  -21.1913  -11.7734 C   0  0  0  0  0  0  0  0  0  0  0  0
   22.3745  -21.5261  -10.7167 O   0  0  0  0  0  0  0  0  0  0  0  0
   22.4588  -20.0009  -12.4001 O   0  0  0  0  0  0  0  0  0  0  0  0
  2  1  1  1
  2  3  1  0
  4  3  1  0
  5  4  2  0
  6  5  1  0
  7  6  1  0
  7 12  2  0
  8  9  2  0
  8  7  1  0
  9 10  1  0
 10 11  2  0
 12 11  1  0
 12  4  1  0
 13  2  1  0
 13 14  2  0
 16 15  1  1
 16 17  1  0
 17 13  1  0
 18 16  1  0
 19 18  2  0
 20 18  1  0
 21 22  1  1
 21 20  1  0
 22 23  1  0
 23 31  1  0
 24 25  1  0
 24 23  2  0
 25 26  1  0
 26 31  2  0
 26 27  1  0
 27 28  2  0
 28 29  1  0
 30 29  2  0
 31 30  1  0
 32 34  1  0
 32 21  1  0
 33 32  2  0
M  END
$$$$
