WAW.pdb
     RDKit          3D

 34 37  0  0  1  0  0  0  0  0999 V2000
   25.1458  -19.0034  -15.5470 N   0  0  0  0  0  0  0  0  0  0  0  0
   25.8316  -19.5860  -14.4047 C   0  0  1  0  0  0  0  0  0  0  0  0
   27.0979  -18.8196  -14.0925 C   0  0  0  0  0  0  0  0  0  0  0  0
   28.1181  -18.9581  -15.1318 C   0  0  0  0  0  0  0  0  0  0  0  0
   28.5986  -17.9362  -15.9276 C   0  0  0  0  0  0  0  0  0  0  0  0
   29.5116  -18.4127  -16.7865 N   0  0  0  0  0  0  0  0  0  0  0  0
   29.6295  -19.7577  -16.5531 C   0  0  0  0  0  0  0  0  0  0  0  0
   30.4131  -20.7106  -17.1518 C   0  0  0  0  0  0  0  0  0  0  0  0
   30.3480  -22.0213  -16.7343 C   0  0  0  0  0  0  0  0  0  0  0  0
   29.5007  -22.3887  -15.7167 C   0  0  0  0  0  0  0  0  0  0  0  0
   28.7115  -21.4357  -15.1098 C   0  0  0  0  0  0  0  0  0  0  0  0
   28.7564  -20.1056  -15.5120 C   0  0  0  0  0  0  0  0  0  0  0  0
   24.8904  -19.3468  -13.2508 C   0  0  0  0  0  0  0  0  0  0  0  0
   24.3142  -18.2303  -13.1130 O   0  0  0  0  0  0  0  0  0  0  0  0
   22.4691  -20.9501  -11.3002 C   0  0  0  0  0  0  0  0  0  0  0  0
   23.7766  -20.1918  -11.1512 C   0  0  2  0  0  0  0  0  0  0  0  0
   24.6166  -20.3389  -12.2945 N   0  0  0  0  0  0  0  0  0  0  0  0
   24.4785  -20.8298   -9.9919 C   0  0  0  0  0  0  0  0  0  0  0  0
   25.2553  -21.8001  -10.1844 O   0  0  0  0  0  0  0  0  0  0  0  0
   24.2655  -20.3382   -8.6783 N   0  0  0  0  0  0  0  0  0  0  0  0
   24.7228  -21.0678   -7.5447 C   0  0  1  0  0  0  0  0  0  0  0  0
   25.2120  -20.2616   -6.3919 C   0  0  0  0  0  0  0  0  0  0  0  0
   26.6336  -19.8363   -6.6242 C   0  0  0  0  0  0  0  0  0  0  0  0
   27.1682  -19.3117   -7.7877 C   0  0  0  0  0  0  0  0  0  0  0  0
   28.4805  -19.0572   -7.6022 N   0  0  0  0  0  0  0  0  0  0  0  0
   28.7866  -19.4093   -6.3504 C   0  0  0  0  0  0  0  0  0  0  0  0
   30.0233  -19.3304   -5.7093 C   0  0  0  0  0  0  0  0  0  0  0  0
   30.0950  -19.7553   -4.4134 C   0  0  0  0  0  0  0  0  0  0  0  0
   28.9838  -20.2442   -3.7647 C   0  0  0  0  0  0  0  0  0  0  0  0
   27.7624  -20.3217   -4.3986 C   0  0  0  0  0  0  0  0  0  0  0  0
   27.6572  -19.9013   -5.7056 C   0  0  0  0  0  0  0  0  0  0  0  0
   23.8495  -22.1822   -7.1065 C   0  0  0  0  0  0  0  0  0  0  0  0
   22.7001  -22.3470   -7.4731 O   0  0  0  0  0  0  0  0  0  0  0  0
   24.4298  -23.0922   -6.2003 O   0  0  0  0  0  0  0  0  0  0  0  0
  2  1  1  6
  2  3  1  0
  4  3  1  0
  5  4  2  0
  6  5  1  0
  7  6  1  0
  7 12  2  0
  8  9  2  0
  8  7  1  0
  9 10  1  0
 10 11  2  0
 12 11  1  0
 12  4  1  0
 13  2  1  0
 13 14  2  0
 16 15  1  6
 16 17  1  0
 17 13  1  0
 18 16  1  0
 19 18  2  0
 20 18  1  0
 21 22  1  1
 21 20  1  0
 22 23  1  0
 23 31  1  0
 24 25  1  0
 24 23  2  0
 25 26  1  0
 26 31  2  0
 26 27  1  0
 27 28  2  0
 28 29  1  0
 30 29  2  0
 31 30  1  0
 32 34  1  0
 32 21  1  0
 33 32  2  0
M  END
$$$$
