WAW.pdb
     RDKit          3D

 34 37  0  0  1  0  0  0  0  0999 V2000
   26.1302  -19.0170  -17.4114 N   0  0  0  0  0  0  0  0  0  0  0  0
   26.0984  -20.2009  -16.5677 C   0  0  1  0  0  0  0  0  0  0  0  0
   25.6844  -19.8425  -15.1575 C   0  0  0  0  0  0  0  0  0  0  0  0
   26.7533  -19.1938  -14.3979 C   0  0  0  0  0  0  0  0  0  0  0  0
   26.9494  -17.8306  -14.2904 C   0  0  0  0  0  0  0  0  0  0  0  0
   28.0294  -17.5795  -13.5360 N   0  0  0  0  0  0  0  0  0  0  0  0
   28.5461  -18.7875  -13.1472 C   0  0  0  0  0  0  0  0  0  0  0  0
   29.6391  -19.0942  -12.3779 C   0  0  0  0  0  0  0  0  0  0  0  0
   29.9611  -20.4095  -12.1274 C   0  0  0  0  0  0  0  0  0  0  0  0
   29.1941  -21.4265  -12.6430 C   0  0  0  0  0  0  0  0  0  0  0  0
   28.0935  -21.1251  -13.4157 C   0  0  0  0  0  0  0  0  0  0  0  0
   27.7460  -19.8062  -13.6852 C   0  0  0  0  0  0  0  0  0  0  0  0
   24.9800  -21.0322  -17.1445 C   0  0  0  0  0  0  0  0  0  0  0  0
   24.0399  -20.4855  -17.7886 O   0  0  0  0  0  0  0  0  0  0  0  0
   24.3391  -24.7550  -17.4472 C   0  0  0  0  0  0  0  0  0  0  0  0
   23.9259  -23.2948  -17.5087 C   0  0  2  0  0  0  0  0  0  0  0  0
   24.9353  -22.4283  -16.9941 N   0  0  0  0  0  0  0  0  0  0  0  0
   22.7328  -23.1791  -16.6103 C   0  0  0  0  0  0  0  0  0  0  0  0
   21.6720  -23.7931  -16.8923 O   0  0  0  0  0  0  0  0  0  0  0  0
   22.8018  -22.3766  -15.4424 N   0  0  0  0  0  0  0  0  0  0  0  0
   21.6777  -22.2508  -14.5780 C   0  0  1  0  0  0  0  0  0  0  0  0
   21.9033  -22.5894  -13.1453 C   0  0  0  0  0  0  0  0  0  0  0  0
   22.7607  -21.5416  -12.4949 C   0  0  0  0  0  0  0  0  0  0  0  0
   22.4813  -20.1919  -12.3738 C   0  0  0  0  0  0  0  0  0  0  0  0
   23.4976  -19.5805  -11.7298 N   0  0  0  0  0  0  0  0  0  0  0  0
   24.4114  -20.5117  -11.4427 C   0  0  0  0  0  0  0  0  0  0  0  0
   25.6311  -20.3503  -10.7848 C   0  0  0  0  0  0  0  0  0  0  0  0
   26.4072  -21.4595  -10.6049 C   0  0  0  0  0  0  0  0  0  0  0  0
   25.9974  -22.6930  -11.0581 C   0  0  0  0  0  0  0  0  0  0  0  0
   24.7922  -22.8516  -11.7077 C   0  0  0  0  0  0  0  0  0  0  0  0
   23.9868  -21.7524  -11.9050 C   0  0  0  0  0  0  0  0  0  0  0  0
   20.8885  -21.0058  -14.7322 C   0  0  0  0  0  0  0  0  0  0  0  0
   21.2570  -20.0242  -15.3513 O   0  0  0  0  0  0  0  0  0  0  0  0
   19.6286  -20.9999  -14.1008 O   0  0  0  0  0  0  0  0  0  0  0  0
  2  1  1  6
  2  3  1  0
  4  3  1  0
  5  4  2  0
  6  5  1  0
  7  6  1  0
  7 12  2  0
  8  9  2  0
  8  7  1  0
  9 10  1  0
 10 11  2  0
 12 11  1  0
 12  4  1  0
 13  2  1  0
 13 14  2  0
 16 15  1  1
 16 17  1  0
 17 13  1  0
 18 16  1  0
 19 18  2  0
 20 18  1  0
 21 22  1  1
 21 20  1  0
 22 23  1  0
 23 31  1  0
 24 25  1  0
 24 23  2  0
 25 26  1  0
 26 31  2  0
 26 27  1  0
 27 28  2  0
 28 29  1  0
 30 29  2  0
 31 30  1  0
 32 34  1  0
 32 21  1  0
 33 32  2  0
M  END
$$$$
