WAW.pdb
     RDKit          3D

 34 37  0  0  1  0  0  0  0  0999 V2000
   26.6234  -22.4078  -11.8023 N   0  0  0  0  0  0  0  0  0  0  0  0
   26.3759  -21.0262  -12.1827 C   0  0  1  0  0  0  0  0  0  0  0  0
   27.6057  -20.1774  -11.9470 C   0  0  0  0  0  0  0  0  0  0  0  0
   28.4132  -20.6455  -10.8205 C   0  0  0  0  0  0  0  0  0  0  0  0
   29.5562  -21.4155  -10.9162 C   0  0  0  0  0  0  0  0  0  0  0  0
   30.0355  -21.6810   -9.6921 N   0  0  0  0  0  0  0  0  0  0  0  0
   29.1994  -21.0817   -8.7870 C   0  0  0  0  0  0  0  0  0  0  0  0
   29.2313  -21.0476   -7.4165 C   0  0  0  0  0  0  0  0  0  0  0  0
   28.2570  -20.3689   -6.7189 C   0  0  0  0  0  0  0  0  0  0  0  0
   27.2452  -19.7200   -7.3851 C   0  0  0  0  0  0  0  0  0  0  0  0
   27.2082  -19.7492   -8.7625 C   0  0  0  0  0  0  0  0  0  0  0  0
   28.1782  -20.4275   -9.4916 C   0  0  0  0  0  0  0  0  0  0  0  0
   26.1771  -21.0872  -13.6765 C   0  0  0  0  0  0  0  0  0  0  0  0
   27.1414  -20.8626  -14.4623 O   0  0  0  0  0  0  0  0  0  0  0  0
   25.1671  -23.5679  -15.3392 C   0  0  0  0  0  0  0  0  0  0  0  0
   24.7218  -22.1208  -15.4588 C   0  0  2  0  0  0  0  0  0  0  0  0
   24.9317  -21.3922  -14.2506 N   0  0  0  0  0  0  0  0  0  0  0  0
   23.2444  -22.1761  -15.7000 C   0  0  0  0  0  0  0  0  0  0  0  0
   22.7960  -22.7548  -16.7227 O   0  0  0  0  0  0  0  0  0  0  0  0
   22.3535  -21.5751  -14.7739 N   0  0  0  0  0  0  0  0  0  0  0  0
   20.9457  -21.6284  -14.9784 C   0  0  1  0  0  0  0  0  0  0  0  0
   20.1716  -22.4818  -14.0345 C   0  0  0  0  0  0  0  0  0  0  0  0
   20.4096  -22.0363  -12.6201 C   0  0  0  0  0  0  0  0  0  0  0  0
   20.9974  -20.8543  -12.2052 C   0  0  0  0  0  0  0  0  0  0  0  0
   21.0337  -20.8219  -10.8565 N   0  0  0  0  0  0  0  0  0  0  0  0
   20.4840  -21.9549  -10.4109 C   0  0  0  0  0  0  0  0  0  0  0  0
   20.3042  -22.3660   -9.0898 C   0  0  0  0  0  0  0  0  0  0  0  0
   19.7130  -23.5785   -8.8769 C   0  0  0  0  0  0  0  0  0  0  0  0
   19.3095  -24.3658   -9.9314 C   0  0  0  0  0  0  0  0  0  0  0  0
   19.4872  -23.9590  -11.2362 C   0  0  0  0  0  0  0  0  0  0  0  0
   20.0805  -22.7414  -11.4843 C   0  0  0  0  0  0  0  0  0  0  0  0
   20.2832  -20.3232  -15.2108 C   0  0  0  0  0  0  0  0  0  0  0  0
   20.8226  -19.2395  -15.0797 O   0  0  0  0  0  0  0  0  0  0  0  0
   18.9331  -20.3866  -15.6097 O   0  0  0  0  0  0  0  0  0  0  0  0
  2  1  1  6
  2  3  1  0
  4  3  1  0
  5  4  2  0
  6  5  1  0
  7  6  1  0
  7 12  2  0
  8  9  2  0
  8  7  1  0
  9 10  1  0
 10 11  2  0
 12 11  1  0
 12  4  1  0
 13  2  1  0
 13 14  2  0
 16 15  1  1
 16 17  1  0
 17 13  1  0
 18 16  1  0
 19 18  2  0
 20 18  1  0
 21 22  1  1
 21 20  1  0
 22 23  1  0
 23 31  1  0
 24 25  1  0
 24 23  2  0
 25 26  1  0
 26 31  2  0
 26 27  1  0
 27 28  2  0
 28 29  1  0
 30 29  2  0
 31 30  1  0
 32 34  1  0
 32 21  1  0
 33 32  2  0
M  END
$$$$
