ANT.pdb
     RDKit          3D

 21 20  0  0  1  0  0  0  0  0999 V2000
   17.6578  -13.1951  -18.5494 C   0  0  0  0  0  0  0  0  0  0  0  0
   19.1507  -12.9789  -18.5526 C   0  0  2  0  0  0  0  0  0  0  0  0
   19.8630  -14.2282  -18.4145 N   0  0  0  0  0  0  0  0  0  0  0  0
   19.4948  -12.1228  -17.3924 C   0  0  0  0  0  0  0  0  0  0  0  0
   18.8349  -12.2858  -16.3290 O   0  0  0  0  0  0  0  0  0  0  0  0
   21.8672   -8.8854  -14.0476 N   0  0  0  0  0  0  0  0  0  0  0  0
   22.6917   -9.8214  -14.7115 C   0  0  0  0  0  0  0  0  0  0  0  0
   23.8640   -9.9482  -14.2169 O   0  0  0  0  0  0  0  0  0  0  0  0
   22.2688  -10.6073  -15.8820 C   0  0  0  0  0  0  0  0  0  0  0  0
   20.8824  -10.2910  -16.3749 C   0  0  2  0  0  0  0  0  0  0  0  0
   20.5278  -11.1512  -17.4650 N   0  0  0  0  0  0  0  0  0  0  0  0
   20.7176   -8.8465  -16.6608 C   0  0  0  0  0  0  0  0  0  0  0  0
   21.5147   -8.2554  -17.4126 O   0  0  0  0  0  0  0  0  0  0  0  0
   17.3065   -7.1708  -17.7524 C   0  0  0  0  0  0  0  0  0  0  0  0
   17.8725   -6.4893  -16.5128 C   0  0  1  0  0  0  0  0  0  0  0  0
   17.2063   -7.0563  -15.4239 O   0  0  0  0  0  0  0  0  0  0  0  0
   19.3350   -6.7612  -16.3416 C   0  0  2  0  0  0  0  0  0  0  0  0
   19.6649   -8.1315  -16.0895 N   0  0  0  0  0  0  0  0  0  0  0  0
   19.8456   -5.9021  -15.2543 C   0  0  0  0  0  0  0  0  0  0  0  0
   19.8425   -4.5156  -15.3155 O   0  0  0  0  0  0  0  0  0  0  0  0
   20.3201   -6.4146  -14.1926 O   0  0  0  0  0  0  0  0  0  0  0  0
  2  1  1  1
  2  4  1  0
  3  2  1  0
  4 11  1  0
  4  5  2  0
  6  7  1  0
  7  8  2  0
 10  9  1  6
  9  7  1  0
 10 12  1  0
 11 10  1  0
 12 18  1  0
 13 12  2  0
 15 14  1  6
 16 15  1  0
 17 19  1  0
 17 15  1  0
 17 18  1  1
 19 21  2  0
 19 20  1  0
M  END
$$$$
