ANT.pdb
     RDKit          3D

 21 20  0  0  1  0  0  0  0  0999 V2000
   17.4865   -8.6533  -18.5854 C   0  0  0  0  0  0  0  0  0  0  0  0
   18.6184   -9.0447  -17.6681 C   0  0  2  0  0  0  0  0  0  0  0  0
   18.2991  -10.2381  -16.9191 N   0  0  0  0  0  0  0  0  0  0  0  0
   18.8325   -7.9399  -16.7034 C   0  0  0  0  0  0  0  0  0  0  0  0
   17.8248   -7.5019  -16.0825 O   0  0  0  0  0  0  0  0  0  0  0  0
   21.1759   -4.1799  -13.7813 N   0  0  0  0  0  0  0  0  0  0  0  0
   22.0086   -5.2981  -14.0111 C   0  0  0  0  0  0  0  0  0  0  0  0
   23.0531   -5.3484  -13.2751 O   0  0  0  0  0  0  0  0  0  0  0  0
   21.7280   -6.3430  -15.0090 C   0  0  0  0  0  0  0  0  0  0  0  0
   20.3602   -6.2569  -15.6311 C   0  0  2  0  0  0  0  0  0  0  0  0
   20.1212   -7.3874  -16.4789 N   0  0  0  0  0  0  0  0  0  0  0  0
   20.1364   -4.9467  -16.2859 C   0  0  0  0  0  0  0  0  0  0  0  0
   20.7802   -4.6298  -17.3033 O   0  0  0  0  0  0  0  0  0  0  0  0
   16.7563   -3.6318  -17.5424 C   0  0  0  0  0  0  0  0  0  0  0  0
   17.3239   -2.6423  -16.5323 C   0  0  1  0  0  0  0  0  0  0  0  0
   16.7143   -2.9451  -15.3127 O   0  0  0  0  0  0  0  0  0  0  0  0
   18.8015   -2.8077  -16.3545 C   0  0  2  0  0  0  0  0  0  0  0  0
   19.1996   -4.0520  -15.7686 N   0  0  0  0  0  0  0  0  0  0  0  0
   19.3044   -1.6770  -15.5485 C   0  0  0  0  0  0  0  0  0  0  0  0
   19.8327   -1.8274  -14.2740 O   0  0  0  0  0  0  0  0  0  0  0  0
   19.2713   -0.4913  -16.0045 O   0  0  0  0  0  0  0  0  0  0  0  0
  2  1  1  6
  2  4  1  0
  3  2  1  0
  4 11  1  0
  4  5  2  0
  6  7  1  0
  7  8  2  0
 10  9  1  6
  9  7  1  0
 10 12  1  0
 11 10  1  0
 12 18  1  0
 13 12  2  0
 15 14  1  6
 16 15  1  0
 17 19  1  0
 17 15  1  0
 17 18  1  1
 19 21  2  0
 19 20  1  0
M  END
$$$$
