ANT.pdb
     RDKit          3D

 21 20  0  0  1  0  0  0  0  0999 V2000
   17.5087  -11.0655  -18.2258 C   0  0  0  0  0  0  0  0  0  0  0  0
   18.8881  -10.5677  -18.5797 C   0  0  2  0  0  0  0  0  0  0  0  0
   19.8405  -11.6527  -18.6339 N   0  0  0  0  0  0  0  0  0  0  0  0
   19.3238   -9.6260  -17.5211 C   0  0  0  0  0  0  0  0  0  0  0  0
   18.6136   -9.5462  -16.4808 O   0  0  0  0  0  0  0  0  0  0  0  0
   21.8684  -10.3878  -15.7317 N   0  0  0  0  0  0  0  0  0  0  0  0
   22.7446   -9.2839  -15.8316 C   0  0  0  0  0  0  0  0  0  0  0  0
   23.9253   -9.4953  -15.3886 O   0  0  0  0  0  0  0  0  0  0  0  0
   22.3643   -7.9787  -16.3959 C   0  0  0  0  0  0  0  0  0  0  0  0
   20.8996   -7.8423  -16.7140 C   0  0  2  0  0  0  0  0  0  0  0  0
   20.4963   -8.8377  -17.6630 N   0  0  0  0  0  0  0  0  0  0  0  0
   20.5484   -6.4555  -17.1000 C   0  0  0  0  0  0  0  0  0  0  0  0
   21.1216   -5.9003  -18.0555 O   0  0  0  0  0  0  0  0  0  0  0  0
   17.1165   -5.3376  -18.1187 C   0  0  0  0  0  0  0  0  0  0  0  0
   17.5410   -4.4622  -16.9462 C   0  0  1  0  0  0  0  0  0  0  0  0
   16.9525   -5.0261  -15.8120 O   0  0  0  0  0  0  0  0  0  0  0  0
   19.0244   -4.4776  -16.7430 C   0  0  2  0  0  0  0  0  0  0  0  0
   19.5691   -5.7553  -16.3954 N   0  0  0  0  0  0  0  0  0  0  0  0
   19.3650   -3.4770  -15.7115 C   0  0  0  0  0  0  0  0  0  0  0  0
   19.2048   -2.1107  -15.8955 O   0  0  0  0  0  0  0  0  0  0  0  0
   19.8301   -3.8396  -14.5860 O   0  0  0  0  0  0  0  0  0  0  0  0
  2  1  1  1
  2  4  1  0
  3  2  1  0
  4 11  1  0
  4  5  2  0
  6  7  1  0
  7  8  2  0
 10  9  1  6
  9  7  1  0
 10 12  1  0
 11 10  1  0
 12 18  1  0
 13 12  2  0
 15 14  1  6
 16 15  1  0
 17 19  1  0
 17 15  1  0
 17 18  1  1
 19 21  2  0
 19 20  1  0
M  END
$$$$
