ANT.pdb
     RDKit          3D

 21 20  0  0  1  0  0  0  0  0999 V2000
   14.8146  -11.6598  -10.1450 C   0  0  0  0  0  0  0  0  0  0  0  0
   13.9488  -10.8585   -9.2047 C   0  0  2  0  0  0  0  0  0  0  0  0
   12.5522  -11.1929   -9.3625 N   0  0  0  0  0  0  0  0  0  0  0  0
   14.1178   -9.4230   -9.5334 C   0  0  0  0  0  0  0  0  0  0  0  0
   13.3736   -8.9364  -10.4291 O   0  0  0  0  0  0  0  0  0  0  0  0
   14.3521   -3.9315   -8.7126 N   0  0  0  0  0  0  0  0  0  0  0  0
   15.2645   -4.9226   -8.2862 C   0  0  0  0  0  0  0  0  0  0  0  0
   16.4533   -4.5013   -8.0760 O   0  0  0  0  0  0  0  0  0  0  0  0
   14.9106   -6.3375   -8.0876 C   0  0  0  0  0  0  0  0  0  0  0  0
   15.3329   -7.2470   -9.2099 C   0  0  2  0  0  0  0  0  0  0  0  0
   15.0797   -8.6161   -8.8701 N   0  0  0  0  0  0  0  0  0  0  0  0
   16.7232   -6.9746   -9.6438 C   0  0  0  0  0  0  0  0  0  0  0  0
   17.6675   -7.0693   -8.8379 O   0  0  0  0  0  0  0  0  0  0  0  0
   17.9008   -7.7365  -13.6007 C   0  0  0  0  0  0  0  0  0  0  0  0
   18.7979   -7.4857  -12.3951 C   0  0  1  0  0  0  0  0  0  0  0  0
   20.0321   -7.0836  -12.9107 O   0  0  0  0  0  0  0  0  0  0  0  0
   18.2823   -6.3748  -11.5337 C   0  0  2  0  0  0  0  0  0  0  0  0
   16.9900   -6.6085  -10.9630 N   0  0  0  0  0  0  0  0  0  0  0  0
   18.2740   -5.1313  -12.3304 C   0  0  0  0  0  0  0  0  0  0  0  0
   19.4270   -4.5358  -12.8223 O   0  0  0  0  0  0  0  0  0  0  0  0
   17.1805   -4.5440  -12.6029 O   0  0  0  0  0  0  0  0  0  0  0  0
  2  1  1  6
  2  4  1  0
  3  2  1  0
  4 11  1  0
  4  5  2  0
  6  7  1  0
  7  8  2  0
 10  9  1  1
  9  7  1  0
 10 12  1  0
 11 10  1  0
 12 18  1  0
 13 12  2  0
 15 14  1  6
 16 15  1  0
 17 19  1  0
 17 15  1  0
 17 18  1  6
 19 21  2  0
 19 20  1  0
M  END
$$$$
