ANT.pdb
     RDKit          3D

 21 20  0  0  1  0  0  0  0  0999 V2000
   16.6852  -14.4839  -17.3650 C   0  0  0  0  0  0  0  0  0  0  0  0
   17.9007  -13.8580  -16.7275 C   0  0  2  0  0  0  0  0  0  0  0  0
   17.9787  -14.1761  -15.3204 N   0  0  0  0  0  0  0  0  0  0  0  0
   17.7843  -12.3862  -16.8604 C   0  0  0  0  0  0  0  0  0  0  0  0
   17.7952  -11.9014  -18.0255 O   0  0  0  0  0  0  0  0  0  0  0  0
   17.0155   -7.2794  -15.8750 N   0  0  0  0  0  0  0  0  0  0  0  0
   16.0196   -8.1889  -15.4536 C   0  0  0  0  0  0  0  0  0  0  0  0
   14.8947   -7.6547  -15.1632 O   0  0  0  0  0  0  0  0  0  0  0  0
   16.2237   -9.6426  -15.3461 C   0  0  0  0  0  0  0  0  0  0  0  0
   17.5774  -10.1154  -15.8036 C   0  0  2  0  0  0  0  0  0  0  0  0
   17.6647  -11.5437  -15.7236 N   0  0  0  0  0  0  0  0  0  0  0  0
   18.6728   -9.3988  -15.1094 C   0  0  0  0  0  0  0  0  0  0  0  0
   18.8700   -9.5712  -13.8922 O   0  0  0  0  0  0  0  0  0  0  0  0
   22.3866   -9.5718  -15.9252 C   0  0  0  0  0  0  0  0  0  0  0  0
   21.9190   -8.1298  -16.0784 C   0  0  1  0  0  0  0  0  0  0  0  0
   21.6274   -7.9617  -17.4339 O   0  0  0  0  0  0  0  0  0  0  0  0
   20.6635   -7.8625  -15.3076 C   0  0  2  0  0  0  0  0  0  0  0  0
   19.4972   -8.5212  -15.8136 N   0  0  0  0  0  0  0  0  0  0  0  0
   20.4474   -6.4024  -15.2586 C   0  0  0  0  0  0  0  0  0  0  0  0
   21.3198   -5.5254  -14.6292 O   0  0  0  0  0  0  0  0  0  0  0  0
   19.4265   -5.8800  -15.8060 O   0  0  0  0  0  0  0  0  0  0  0  0
  2  1  1  1
  2  4  1  0
  3  2  1  0
  4 11  1  0
  4  5  2  0
  6  7  1  0
  7  8  2  0
 10  9  1  1
  9  7  1  0
 10 12  1  0
 11 10  1  0
 12 18  1  0
 13 12  2  0
 15 14  1  6
 16 15  1  0
 17 19  1  0
 17 15  1  0
 17 18  1  6
 19 21  2  0
 19 20  1  0
M  END
$$$$
