ANT.pdb
     RDKit          3D

 21 20  0  0  1  0  0  0  0  0999 V2000
   25.0074  -24.2089  -14.4138 C   0  0  0  0  0  0  0  0  0  0  0  0
   24.4942  -23.0183  -15.1851 C   0  0  2  0  0  0  0  0  0  0  0  0
   25.4473  -21.9326  -15.1714 N   0  0  0  0  0  0  0  0  0  0  0  0
   23.2506  -22.5466  -14.5307 C   0  0  0  0  0  0  0  0  0  0  0  0
   22.5182  -23.4110  -13.9745 O   0  0  0  0  0  0  0  0  0  0  0  0
   19.5707  -19.5048  -12.3400 N   0  0  0  0  0  0  0  0  0  0  0  0
   20.7879  -18.8114  -12.5250 C   0  0  0  0  0  0  0  0  0  0  0  0
   20.8632  -17.6896  -11.9159 O   0  0  0  0  0  0  0  0  0  0  0  0
   21.9035  -19.3098  -13.3456 C   0  0  0  0  0  0  0  0  0  0  0  0
   21.6805  -20.6777  -13.9325 C   0  0  2  0  0  0  0  0  0  0  0  0
   22.8876  -21.1738  -14.5246 N   0  0  0  0  0  0  0  0  0  0  0  0
   20.5049  -20.7033  -14.8341 C   0  0  0  0  0  0  0  0  0  0  0  0
   20.5371  -20.1179  -15.9324 O   0  0  0  0  0  0  0  0  0  0  0  0
   18.8429  -23.9009  -16.0861 C   0  0  0  0  0  0  0  0  0  0  0  0
   17.7842  -23.0529  -15.3923 C   0  0  1  0  0  0  0  0  0  0  0  0
   17.6731  -23.5608  -14.0959 O   0  0  0  0  0  0  0  0  0  0  0  0
   18.1976  -21.6179  -15.2835 C   0  0  2  0  0  0  0  0  0  0  0  0
   19.3466  -21.3853  -14.4614 N   0  0  0  0  0  0  0  0  0  0  0  0
   17.0463  -20.8363  -14.7890 C   0  0  0  0  0  0  0  0  0  0  0  0
   15.8329  -20.7633  -15.4587 O   0  0  0  0  0  0  0  0  0  0  0  0
   17.1258  -20.1834  -13.7017 O   0  0  0  0  0  0  0  0  0  0  0  0
  2  1  1  1
  2  4  1  0
  3  2  1  0
  4 11  1  0
  4  5  2  0
  6  7  1  0
  7  8  2  0
 10  9  1  6
  9  7  1  0
 10 12  1  0
 11 10  1  0
 12 18  1  0
 13 12  2  0
 15 14  1  6
 16 15  1  0
 17 19  1  0
 17 15  1  0
 17 18  1  1
 19 21  2  0
 19 20  1  0
M  END
$$$$
