ANT.pdb
     RDKit          3D

 21 20  0  0  1  0  0  0  0  0999 V2000
   22.4831  -20.0922  -16.9387 C   0  0  0  0  0  0  0  0  0  0  0  0
   23.6548  -19.9805  -15.9951 C   0  0  2  0  0  0  0  0  0  0  0  0
   23.3567  -20.5781  -14.7139 N   0  0  0  0  0  0  0  0  0  0  0  0
   23.9351  -18.5414  -15.7770 C   0  0  0  0  0  0  0  0  0  0  0  0
   23.1460  -17.8982  -15.0311 O   0  0  0  0  0  0  0  0  0  0  0  0
   26.1161  -13.7045  -16.3125 N   0  0  0  0  0  0  0  0  0  0  0  0
   27.0415  -14.7445  -16.0707 C   0  0  0  0  0  0  0  0  0  0  0  0
   28.2005  -14.3541  -15.6975 O   0  0  0  0  0  0  0  0  0  0  0  0
   26.7317  -16.1752  -16.2246 C   0  0  0  0  0  0  0  0  0  0  0  0
   25.2633  -16.4839  -16.3417 C   0  0  2  0  0  0  0  0  0  0  0  0
   25.0488  -17.9003  -16.3814 N   0  0  0  0  0  0  0  0  0  0  0  0
   24.6335  -15.7413  -17.4585 C   0  0  0  0  0  0  0  0  0  0  0  0
   25.0424  -15.8869  -18.6253 O   0  0  0  0  0  0  0  0  0  0  0  0
   20.5469  -14.4495  -17.0907 C   0  0  0  0  0  0  0  0  0  0  0  0
   21.3803  -14.7220  -18.3367 C   0  0  1  0  0  0  0  0  0  0  0  0
   20.7650  -14.0164  -19.3732 O   0  0  0  0  0  0  0  0  0  0  0  0
   22.7781  -14.2025  -18.2013 C   0  0  2  0  0  0  0  0  0  0  0  0
   23.5728  -14.8689  -17.2142 N   0  0  0  0  0  0  0  0  0  0  0  0
   22.7127  -12.7550  -17.9155 C   0  0  0  0  0  0  0  0  0  0  0  0
   23.1656  -12.1928  -16.7302 O   0  0  0  0  0  0  0  0  0  0  0  0
   22.2259  -11.9480  -18.7679 O   0  0  0  0  0  0  0  0  0  0  0  0
  2  1  1  6
  2  4  1  0
  3  2  1  0
  4 11  1  0
  4  5  2  0
  6  7  1  0
  7  8  2  0
 10  9  1  6
  9  7  1  0
 10 12  1  0
 11 10  1  0
 12 18  1  0
 13 12  2  0
 15 14  1  1
 16 15  1  0
 17 19  1  0
 17 15  1  0
 17 18  1  1
 19 21  2  0
 19 20  1  0
M  END
$$$$
