ANT.pdb
     RDKit          3D

 21 20  0  0  1  0  0  0  0  0999 V2000
   24.3462   -9.6445  -19.8505 C   0  0  0  0  0  0  0  0  0  0  0  0
   23.7700  -10.3340  -18.6388 C   0  0  2  0  0  0  0  0  0  0  0  0
   23.0905  -11.5559  -19.0028 N   0  0  0  0  0  0  0  0  0  0  0  0
   22.7780   -9.4235  -18.0189 C   0  0  0  0  0  0  0  0  0  0  0  0
   21.7282   -9.1702  -18.6720 O   0  0  0  0  0  0  0  0  0  0  0  0
   20.1220   -6.4365  -14.6073 N   0  0  0  0  0  0  0  0  0  0  0  0
   20.7508   -7.5615  -14.0283 C   0  0  0  0  0  0  0  0  0  0  0  0
   20.3653   -7.8387  -12.8410 O   0  0  0  0  0  0  0  0  0  0  0  0
   21.7722   -8.3750  -14.7077 C   0  0  0  0  0  0  0  0  0  0  0  0
   22.0784   -7.9391  -16.1153 C   0  0  2  0  0  0  0  0  0  0  0  0
   22.9922   -8.8516  -16.7369 N   0  0  0  0  0  0  0  0  0  0  0  0
   22.5026   -6.5205  -16.1708 C   0  0  0  0  0  0  0  0  0  0  0  0
   23.6559   -6.1915  -15.8367 O   0  0  0  0  0  0  0  0  0  0  0  0
   20.9406   -4.0229  -19.1340 C   0  0  0  0  0  0  0  0  0  0  0  0
   22.1740   -3.8055  -18.2664 C   0  0  1  0  0  0  0  0  0  0  0  0
   22.4488   -2.4372  -18.3242 O   0  0  0  0  0  0  0  0  0  0  0  0
   21.9207   -4.1573  -16.8332 C   0  0  2  0  0  0  0  0  0  0  0  0
   21.6124   -5.5358  -16.5993 N   0  0  0  0  0  0  0  0  0  0  0  0
   20.8342   -3.2953  -16.3256 C   0  0  0  0  0  0  0  0  0  0  0  0
   20.9883   -1.9360  -16.0918 O   0  0  0  0  0  0  0  0  0  0  0  0
   19.6858   -3.7795  -16.0772 O   0  0  0  0  0  0  0  0  0  0  0  0
  2  1  1  6
  2  4  1  0
  3  2  1  0
  4 11  1  0
  4  5  2  0
  6  7  1  0
  7  8  2  0
 10  9  1  1
  9  7  1  0
 10 12  1  0
 11 10  1  0
 12 18  1  0
 13 12  2  0
 15 14  1  6
 16 15  1  0
 17 19  1  0
 17 15  1  0
 17 18  1  6
 19 21  2  0
 19 20  1  0
M  END
$$$$
