RSG.pdb
     RDKit          3D

 22 21  0  0  1  0  0  0  0  0999 V2000
   16.8971  -13.3094  -13.9569 N   0  0  0  0  0  0  0  0  0  0  0  0
   16.5926  -13.8877  -15.2362 C   0  0  0  0  0  0  0  0  0  0  0  0
   16.0890  -15.0653  -15.2754 N   0  0  0  0  0  0  0  0  0  0  0  0
   16.8278  -13.2067  -16.4469 N   0  0  0  0  0  0  0  0  0  0  0  0
   17.3562  -11.8620  -16.4864 C   0  0  0  0  0  0  0  0  0  0  0  0
   18.7390  -11.8910  -17.0322 C   0  0  0  0  0  0  0  0  0  0  0  0
   19.4312  -10.5543  -17.0002 C   0  0  0  0  0  0  0  0  0  0  0  0
   20.7906  -10.5986  -17.6658 C   0  0  2  0  0  0  0  0  0  0  0  0
   21.3907  -11.8570  -17.3318 N   0  0  0  0  0  0  0  0  0  0  0  0
   21.5971   -9.5206  -17.0567 C   0  0  0  0  0  0  0  0  0  0  0  0
   22.3039   -9.6796  -16.0289 O   0  0  0  0  0  0  0  0  0  0  0  0
   15.8500  -15.5375  -16.1699 O   0  0  0  0  0  0  0  0  0  0  0  0
   21.3499   -5.9916  -18.9860 C   0  0  0  0  0  0  0  0  0  0  0  0
   22.5760   -6.1885  -18.3354 C   0  0  1  0  0  0  0  0  0  0  0  0
   22.2954   -7.1016  -17.1332 N   0  0  0  0  0  0  0  0  0  0  0  0
   21.5839   -8.2402  -17.6476 C   0  0  0  0  0  0  0  0  0  0  0  0
   21.3954   -6.3479  -16.2406 O   0  0  0  0  0  0  0  0  0  0  0  0
   20.1622   -6.3276  -16.4743 N   0  0  0  0  0  0  0  0  0  0  0  0
   21.8556   -5.6259  -15.1039 C   0  0  0  0  0  0  0  0  0  0  0  0
   20.8945   -4.9453  -14.2777 C   0  0  0  0  0  0  0  0  0  0  0  0
   21.5604   -4.2928  -13.1196 O   0  0  0  0  0  0  0  0  0  0  0  0
   22.7791   -4.5083  -12.9209 O   0  0  0  0  0  0  0  0  0  0  0  0
  1  2  1  0
  2  3  2  0
  4  5  1  0
  4  2  1  0
  5  6  1  0
  6  7  1  0
  7  8  1  0
  8  9  1  1
  8 10  1  0
 10 15  1  0
 10 11  2  0
 12 13  1  0
 14 13  1  6
 14 16  1  0
 15 14  1  0
 16 18  1  0
 17 16  2  0
 18 19  1  0
 20 22  1  0
 20 19  1  0
 21 20  2  0
M  END
$$$$
