RSG.pdb
     RDKit          3D

 22 21  0  0  1  0  0  0  0  0999 V2000
   19.8980  -23.0042   -9.3917 N   0  0  0  0  0  0  0  0  0  0  0  0
   20.0774  -22.5259   -8.0489 C   0  0  0  0  0  0  0  0  0  0  0  0
   19.6623  -23.2503   -7.0768 N   0  0  0  0  0  0  0  0  0  0  0  0
   20.6924  -21.2909   -7.7641 N   0  0  0  0  0  0  0  0  0  0  0  0
   21.3436  -20.4994   -8.7832 C   0  0  0  0  0  0  0  0  0  0  0  0
   22.6434  -21.1272   -9.1402 C   0  0  0  0  0  0  0  0  0  0  0  0
   23.4104  -20.3745  -10.1947 C   0  0  0  0  0  0  0  0  0  0  0  0
   24.6120  -21.1511  -10.6909 C   0  0  2  0  0  0  0  0  0  0  0  0
   25.6456  -21.0166   -9.7066 N   0  0  0  0  0  0  0  0  0  0  0  0
   25.0617  -20.4897  -11.9333 C   0  0  0  0  0  0  0  0  0  0  0  0
   25.6250  -19.3658  -11.9559 O   0  0  0  0  0  0  0  0  0  0  0  0
   19.7417  -22.9477   -6.0856 O   0  0  0  0  0  0  0  0  0  0  0  0
   24.9153  -22.8229  -15.1566 C   0  0  0  0  0  0  0  0  0  0  0  0
   25.8263  -21.7614  -15.2501 C   0  0  1  0  0  0  0  0  0  0  0  0
   25.2313  -20.5977  -14.4442 N   0  0  0  0  0  0  0  0  0  0  0  0
   24.8553  -21.1408  -13.1672 C   0  0  0  0  0  0  0  0  0  0  0  0
   24.0094  -20.1811  -15.1570 O   0  0  0  0  0  0  0  0  0  0  0  0
   22.8932  -20.6188  -14.7851 N   0  0  0  0  0  0  0  0  0  0  0  0
   24.0238  -19.2911  -16.2673 C   0  0  0  0  0  0  0  0  0  0  0  0
   22.9550  -18.3384  -16.4075 C   0  0  0  0  0  0  0  0  0  0  0  0
   23.1629  -17.4827  -17.6053 O   0  0  0  0  0  0  0  0  0  0  0  0
   22.2582  -16.6840  -17.9440 O   0  0  0  0  0  0  0  0  0  0  0  0
  1  2  1  0
  2  3  2  0
  4  5  1  0
  4  2  1  0
  5  6  1  0
  6  7  1  0
  7  8  1  0
  8  9  1  1
  8 10  1  0
 10 15  1  0
 10 11  2  0
 12 13  1  0
 14 13  1  1
 14 16  1  0
 15 14  1  0
 16 18  1  0
 17 16  2  0
 18 19  1  0
 20 22  1  0
 20 19  1  0
 21 20  2  0
M  END
$$$$
