RSG.pdb
     RDKit          3D

 22 21  0  0  1  0  0  0  0  0999 V2000
   22.9337  -20.5535  -10.3483 N   0  0  0  0  0  0  0  0  0  0  0  0
   23.6427  -21.0477   -9.2007 C   0  0  0  0  0  0  0  0  0  0  0  0
   23.1121  -20.9094   -8.0426 N   0  0  0  0  0  0  0  0  0  0  0  0
   24.8986  -21.6778   -9.3038 N   0  0  0  0  0  0  0  0  0  0  0  0
   25.6500  -21.7045  -10.5382 C   0  0  0  0  0  0  0  0  0  0  0  0
   26.6035  -20.5638  -10.5603 C   0  0  0  0  0  0  0  0  0  0  0  0
   27.3766  -20.4451  -11.8468 C   0  0  0  0  0  0  0  0  0  0  0  0
   26.4678  -20.2755  -13.0461 C   0  0  2  0  0  0  0  0  0  0  0  0
   26.3640  -21.5524  -13.6894 N   0  0  0  0  0  0  0  0  0  0  0  0
   27.1497  -19.3428  -13.9673 C   0  0  0  0  0  0  0  0  0  0  0  0
   27.4560  -18.1630  -13.6585 O   0  0  0  0  0  0  0  0  0  0  0  0
   23.5707  -21.2562   -7.1767 O   0  0  0  0  0  0  0  0  0  0  0  0
   27.5443  -20.7403  -17.7136 C   0  0  0  0  0  0  0  0  0  0  0  0
   28.6208  -19.9187  -17.3506 C   0  0  1  0  0  0  0  0  0  0  0  0
   28.0997  -18.9617  -16.2689 N   0  0  0  0  0  0  0  0  0  0  0  0
   27.4811  -19.7844  -15.2650 C   0  0  0  0  0  0  0  0  0  0  0  0
   27.0580  -18.1381  -16.9102 O   0  0  0  0  0  0  0  0  0  0  0  0
   27.3730  -17.3411  -17.8276 N   0  0  0  0  0  0  0  0  0  0  0  0
   25.6851  -18.1965  -16.5402 C   0  0  0  0  0  0  0  0  0  0  0  0
   24.7426  -17.3605  -17.2345 C   0  0  0  0  0  0  0  0  0  0  0  0
   24.0632  -18.1171  -18.3191 O   0  0  0  0  0  0  0  0  0  0  0  0
   23.1078  -18.8729  -18.0242 O   0  0  0  0  0  0  0  0  0  0  0  0
  1  2  1  0
  2  3  2  0
  4  5  1  0
  4  2  1  0
  5  6  1  0
  6  7  1  0
  7  8  1  0
  8  9  1  6
  8 10  1  0
 10 15  1  0
 10 11  2  0
 12 13  1  0
 14 13  1  1
 14 16  1  0
 15 14  1  0
 16 18  1  0
 17 16  2  0
 18 19  1  0
 20 22  1  0
 20 19  1  0
 21 20  2  0
M  END
$$$$
