RSG.pdb
     RDKit          3D

 22 21  0  0  1  0  0  0  0  0999 V2000
   19.1801  -24.0431  -12.7317 N   0  0  0  0  0  0  0  0  0  0  0  0
   18.3427  -23.3676  -13.6838 C   0  0  0  0  0  0  0  0  0  0  0  0
   17.1210  -23.7361  -13.7998 N   0  0  0  0  0  0  0  0  0  0  0  0
   18.8169  -22.3161  -14.4927 N   0  0  0  0  0  0  0  0  0  0  0  0
   20.0509  -21.6194  -14.2084 C   0  0  0  0  0  0  0  0  0  0  0  0
   21.1496  -22.2118  -15.0165 C   0  0  0  0  0  0  0  0  0  0  0  0
   22.5085  -21.6476  -14.6974 C   0  0  0  0  0  0  0  0  0  0  0  0
   22.7154  -20.2764  -15.3058 C   0  0  2  0  0  0  0  0  0  0  0  0
   21.7402  -20.1167  -16.3444 N   0  0  0  0  0  0  0  0  0  0  0  0
   24.0578  -20.2836  -15.9230 C   0  0  0  0  0  0  0  0  0  0  0  0
   24.2902  -20.7375  -17.0724 O   0  0  0  0  0  0  0  0  0  0  0  0
   16.4904  -23.3468  -14.5285 O   0  0  0  0  0  0  0  0  0  0  0  0
   26.9509  -17.4172  -15.2190 C   0  0  0  0  0  0  0  0  0  0  0  0
   27.2419  -18.7125  -14.7684 C   0  0  2  0  0  0  0  0  0  0  0  0
   26.4929  -19.6805  -15.6955 N   0  0  0  0  0  0  0  0  0  0  0  0
   25.1464  -19.7571  -15.1972 C   0  0  0  0  0  0  0  0  0  0  0  0
   27.1337  -20.9977  -15.5254 O   0  0  0  0  0  0  0  0  0  0  0  0
   26.7722  -21.7480  -14.5860 N   0  0  0  0  0  0  0  0  0  0  0  0
   28.1616  -21.4776  -16.3846 C   0  0  0  0  0  0  0  0  0  0  0  0
   28.6654  -22.8106  -16.1874 C   0  0  0  0  0  0  0  0  0  0  0  0
   29.6919  -23.1447  -17.2097 O   0  0  0  0  0  0  0  0  0  0  0  0
   29.9330  -22.3169  -18.1195 O   0  0  0  0  0  0  0  0  0  0  0  0
  1  2  1  0
  2  3  2  0
  4  5  1  0
  4  2  1  0
  5  6  1  0
  6  7  1  0
  7  8  1  0
  8  9  1  6
  8 10  1  0
 10 15  1  0
 10 11  2  0
 12 13  1  0
 14 13  1  6
 14 16  1  0
 15 14  1  0
 16 18  1  0
 17 16  2  0
 18 19  1  0
 20 22  1  0
 20 19  1  0
 21 20  2  0
M  END
$$$$
