RSG.pdb
     RDKit          3D

 22 21  0  0  1  0  0  0  0  0999 V2000
   29.5141  -21.5594   -9.3039 N   0  0  0  0  0  0  0  0  0  0  0  0
   30.5385  -21.7622  -10.2906 C   0  0  0  0  0  0  0  0  0  0  0  0
   31.4774  -22.5975  -10.0406 N   0  0  0  0  0  0  0  0  0  0  0  0
   30.5467  -21.0761  -11.5211 N   0  0  0  0  0  0  0  0  0  0  0  0
   29.3691  -20.4267  -12.0509 C   0  0  0  0  0  0  0  0  0  0  0  0
   28.2468  -21.4011  -12.0971 C   0  0  0  0  0  0  0  0  0  0  0  0
   26.9941  -20.8530  -12.7271 C   0  0  0  0  0  0  0  0  0  0  0  0
   26.7843  -21.3774  -14.1321 C   0  0  2  0  0  0  0  0  0  0  0  0
   27.8328  -20.8423  -14.9505 N   0  0  0  0  0  0  0  0  0  0  0  0
   25.4969  -20.8263  -14.6035 C   0  0  0  0  0  0  0  0  0  0  0  0
   25.4037  -19.7961  -15.3185 O   0  0  0  0  0  0  0  0  0  0  0  0
   32.2655  -22.7602  -10.6985 O   0  0  0  0  0  0  0  0  0  0  0  0
   22.3469  -22.5040  -12.9593 C   0  0  0  0  0  0  0  0  0  0  0  0
   22.0577  -22.2733  -14.3116 C   0  0  1  0  0  0  0  0  0  0  0  0
   23.0068  -21.1618  -14.7819 N   0  0  0  0  0  0  0  0  0  0  0  0
   24.3005  -21.4788  -14.2406 C   0  0  0  0  0  0  0  0  0  0  0  0
   22.5276  -19.9148  -14.1573 O   0  0  0  0  0  0  0  0  0  0  0  0
   22.9417  -19.5919  -13.0170 N   0  0  0  0  0  0  0  0  0  0  0  0
   21.6017  -19.0370  -14.7875 C   0  0  0  0  0  0  0  0  0  0  0  0
   21.1899  -17.8467  -14.0925 C   0  0  0  0  0  0  0  0  0  0  0  0
   20.2096  -17.0746  -14.9007 O   0  0  0  0  0  0  0  0  0  0  0  0
   20.0230  -17.3974  -16.0975 O   0  0  0  0  0  0  0  0  0  0  0  0
  1  2  1  0
  2  3  2  0
  4  5  1  0
  4  2  1  0
  5  6  1  0
  6  7  1  0
  7  8  1  0
  8  9  1  6
  8 10  1  0
 10 15  1  0
 10 11  2  0
 12 13  1  0
 14 13  1  6
 14 16  1  0
 15 14  1  0
 16 18  1  0
 17 16  2  0
 18 19  1  0
 20 22  1  0
 20 19  1  0
 21 20  2  0
M  END
$$$$
