RSG.pdb
     RDKit          3D

 22 21  0  0  1  0  0  0  0  0999 V2000
   19.1873  -21.8249   -8.8267 N   0  0  0  0  0  0  0  0  0  0  0  0
   19.9836  -22.2945   -7.7270 C   0  0  0  0  0  0  0  0  0  0  0  0
   19.6393  -23.3780   -7.1360 N   0  0  0  0  0  0  0  0  0  0  0  0
   21.1277  -21.6067   -7.2766 N   0  0  0  0  0  0  0  0  0  0  0  0
   21.8297  -20.6514   -8.1034 C   0  0  0  0  0  0  0  0  0  0  0  0
   22.4548  -21.3585   -9.2524 C   0  0  0  0  0  0  0  0  0  0  0  0
   23.2974  -20.4679  -10.1263 C   0  0  0  0  0  0  0  0  0  0  0  0
   24.6603  -21.0657  -10.4059 C   0  0  2  0  0  0  0  0  0  0  0  0
   25.5286  -20.6734   -9.3347 N   0  0  0  0  0  0  0  0  0  0  0  0
   25.1488  -20.4440  -11.6542 C   0  0  0  0  0  0  0  0  0  0  0  0
   25.9303  -19.4593  -11.6788 O   0  0  0  0  0  0  0  0  0  0  0  0
   20.1765  -23.7696   -6.3371 O   0  0  0  0  0  0  0  0  0  0  0  0
   25.2302  -22.7943  -14.2766 C   0  0  0  0  0  0  0  0  0  0  0  0
   25.3772  -21.6529  -15.0773 C   0  0  2  0  0  0  0  0  0  0  0  0
   25.1062  -20.4421  -14.1728 N   0  0  0  0  0  0  0  0  0  0  0  0
   24.7252  -20.9717  -12.8916 C   0  0  0  0  0  0  0  0  0  0  0  0
   23.9477  -19.7398  -14.7554 O   0  0  0  0  0  0  0  0  0  0  0  0
   22.7905  -20.0056  -14.3479 N   0  0  0  0  0  0  0  0  0  0  0  0
   24.0696  -18.7557  -15.7762 C   0  0  0  0  0  0  0  0  0  0  0  0
   22.9082  -17.9920  -16.1467 C   0  0  0  0  0  0  0  0  0  0  0  0
   22.1009  -18.7164  -17.1634 O   0  0  0  0  0  0  0  0  0  0  0  0
   22.4278  -19.8854  -17.4762 O   0  0  0  0  0  0  0  0  0  0  0  0
  1  2  1  0
  2  3  2  0
  4  5  1  0
  4  2  1  0
  5  6  1  0
  6  7  1  0
  7  8  1  0
  8  9  1  1
  8 10  1  0
 10 15  1  0
 10 11  2  0
 12 13  1  0
 14 13  1  1
 14 16  1  0
 15 14  1  0
 16 18  1  0
 17 16  2  0
 18 19  1  0
 20 22  1  0
 20 19  1  0
 21 20  2  0
M  END
$$$$
