RSG.pdb
     RDKit          3D

 22 21  0  0  1  0  0  0  0  0999 V2000
   19.4292  -23.2204  -10.3350 N   0  0  0  0  0  0  0  0  0  0  0  0
   18.5463  -22.6299  -11.3024 C   0  0  0  0  0  0  0  0  0  0  0  0
   17.3070  -22.9549  -11.2840 N   0  0  0  0  0  0  0  0  0  0  0  0
   18.9946  -21.7079  -12.2686 N   0  0  0  0  0  0  0  0  0  0  0  0
   20.1605  -21.9527  -13.0871 C   0  0  0  0  0  0  0  0  0  0  0  0
   21.3534  -22.1071  -12.2130 C   0  0  0  0  0  0  0  0  0  0  0  0
   22.3850  -21.0263  -12.3992 C   0  0  0  0  0  0  0  0  0  0  0  0
   23.4376  -21.4104  -13.4178 C   0  0  2  0  0  0  0  0  0  0  0  0
   24.0985  -22.5850  -12.9293 N   0  0  0  0  0  0  0  0  0  0  0  0
   24.4171  -20.3046  -13.4540 C   0  0  0  0  0  0  0  0  0  0  0  0
   24.0968  -19.0995  -13.6156 O   0  0  0  0  0  0  0  0  0  0  0  0
   16.6146  -22.5406  -11.9391 O   0  0  0  0  0  0  0  0  0  0  0  0
   28.3011  -21.4817  -13.3057 C   0  0  0  0  0  0  0  0  0  0  0  0
   28.0624  -20.2404  -12.6994 C   0  0  1  0  0  0  0  0  0  0  0  0
   26.8439  -19.6310  -13.4074 N   0  0  0  0  0  0  0  0  0  0  0  0
   25.7875  -20.6005  -13.3006 C   0  0  0  0  0  0  0  0  0  0  0  0
   27.2150  -19.4936  -14.8280 O   0  0  0  0  0  0  0  0  0  0  0  0
   27.1415  -20.4896  -15.5887 N   0  0  0  0  0  0  0  0  0  0  0  0
   27.6618  -18.2689  -15.3986 C   0  0  0  0  0  0  0  0  0  0  0  0
   28.0183  -18.2412  -16.7920 C   0  0  0  0  0  0  0  0  0  0  0  0
   26.9254  -17.6469  -17.6060 O   0  0  0  0  0  0  0  0  0  0  0  0
   25.7618  -18.0950  -17.4777 O   0  0  0  0  0  0  0  0  0  0  0  0
  1  2  1  0
  2  3  2  0
  4  5  1  0
  4  2  1  0
  5  6  1  0
  6  7  1  0
  7  8  1  0
  8  9  1  1
  8 10  1  0
 10 15  1  0
 10 11  2  0
 12 13  1  0
 14 13  1  1
 14 16  1  0
 15 14  1  0
 16 18  1  0
 17 16  2  0
 18 19  1  0
 20 22  1  0
 20 19  1  0
 21 20  2  0
M  END
$$$$
