RSG.pdb
     RDKit          3D

 22 21  0  0  1  0  0  0  0  0999 V2000
   22.7436  -19.4046  -15.2976 N   0  0  0  0  0  0  0  0  0  0  0  0
   23.3534  -18.3100  -16.0004 C   0  0  0  0  0  0  0  0  0  0  0  0
   22.6946  -17.2188  -16.1309 N   0  0  0  0  0  0  0  0  0  0  0  0
   24.6478  -18.3943  -16.5500 N   0  0  0  0  0  0  0  0  0  0  0  0
   25.5710  -19.4478  -16.1935 C   0  0  0  0  0  0  0  0  0  0  0  0
   26.9492  -18.8940  -16.1251 C   0  0  0  0  0  0  0  0  0  0  0  0
   27.5048  -18.8225  -14.7276 C   0  0  0  0  0  0  0  0  0  0  0  0
   28.0343  -20.1597  -14.2539 C   0  0  2  0  0  0  0  0  0  0  0  0
   28.5933  -20.8273  -15.3928 N   0  0  0  0  0  0  0  0  0  0  0  0
   26.8682  -20.9359  -13.7836 C   0  0  0  0  0  0  0  0  0  0  0  0
   26.2917  -21.8109  -14.4786 O   0  0  0  0  0  0  0  0  0  0  0  0
   23.0348  -16.4317  -16.7184 O   0  0  0  0  0  0  0  0  0  0  0  0
   25.8225  -19.8618  -10.2100 C   0  0  0  0  0  0  0  0  0  0  0  0
   25.3282  -21.1603  -10.3969 C   0  0  1  0  0  0  0  0  0  0  0  0
   25.2416  -21.3850  -11.9134 N   0  0  0  0  0  0  0  0  0  0  0  0
   26.3634  -20.6940  -12.4892 C   0  0  0  0  0  0  0  0  0  0  0  0
   24.0014  -20.7243  -12.3608 O   0  0  0  0  0  0  0  0  0  0  0  0
   24.0092  -19.4951  -12.6157 N   0  0  0  0  0  0  0  0  0  0  0  0
   22.7686  -21.4162  -12.5237 C   0  0  0  0  0  0  0  0  0  0  0  0
   21.6276  -20.6945  -13.0204 C   0  0  0  0  0  0  0  0  0  0  0  0
   20.4168  -21.5572  -13.0245 O   0  0  0  0  0  0  0  0  0  0  0  0
   20.5200  -22.7483  -12.6478 O   0  0  0  0  0  0  0  0  0  0  0  0
  1  2  1  0
  2  3  2  0
  4  5  1  0
  4  2  1  0
  5  6  1  0
  6  7  1  0
  7  8  1  0
  8  9  1  6
  8 10  1  0
 10 15  1  0
 10 11  2  0
 12 13  1  0
 14 13  1  1
 14 16  1  0
 15 14  1  0
 16 18  1  0
 17 16  2  0
 18 19  1  0
 20 22  1  0
 20 19  1  0
 21 20  2  0
M  END
$$$$
