RSG.pdb
     RDKit          3D

 22 21  0  0  1  0  0  0  0  0999 V2000
   13.7753   -9.0299  -18.5585 N   0  0  0  0  0  0  0  0  0  0  0  0
   14.4929  -10.1147  -19.1685 C   0  0  0  0  0  0  0  0  0  0  0  0
   13.8383  -10.9795  -19.8508 N   0  0  0  0  0  0  0  0  0  0  0  0
   15.8886  -10.2607  -19.0430 N   0  0  0  0  0  0  0  0  0  0  0  0
   16.6953   -9.3396  -18.2749 C   0  0  0  0  0  0  0  0  0  0  0  0
   17.1702  -10.0133  -17.0373 C   0  0  0  0  0  0  0  0  0  0  0  0
   18.1082   -9.1731  -16.2119 C   0  0  0  0  0  0  0  0  0  0  0  0
   18.6127   -9.9122  -14.9904 C   0  0  2  0  0  0  0  0  0  0  0  0
   17.4659  -10.3363  -14.2418 N   0  0  0  0  0  0  0  0  0  0  0  0
   19.3625   -8.9306  -14.1796 C   0  0  0  0  0  0  0  0  0  0  0  0
   18.8590   -8.2969  -13.2173 O   0  0  0  0  0  0  0  0  0  0  0  0
   14.3002  -11.7896  -20.3098 O   0  0  0  0  0  0  0  0  0  0  0  0
   23.0678   -8.9959  -12.4987 C   0  0  0  0  0  0  0  0  0  0  0  0
   22.9520   -8.3561  -13.7408 C   0  0  2  0  0  0  0  0  0  0  0  0
   21.5470   -7.7386  -13.7892 N   0  0  0  0  0  0  0  0  0  0  0  0
   20.7155   -8.6801  -14.4889 C   0  0  0  0  0  0  0  0  0  0  0  0
   21.6597   -6.5140  -14.6032 O   0  0  0  0  0  0  0  0  0  0  0  0
   21.6344   -6.5957  -15.8556 N   0  0  0  0  0  0  0  0  0  0  0  0
   21.7985   -5.2158  -14.0371 C   0  0  0  0  0  0  0  0  0  0  0  0
   22.1212   -4.1122  -14.9016 C   0  0  0  0  0  0  0  0  0  0  0  0
   20.8922   -3.3791  -15.3047 O   0  0  0  0  0  0  0  0  0  0  0  0
   19.7762   -3.8255  -14.9492 O   0  0  0  0  0  0  0  0  0  0  0  0
  1  2  1  0
  2  3  2  0
  4  5  1  0
  4  2  1  0
  5  6  1  0
  6  7  1  0
  7  8  1  0
  8  9  1  1
  8 10  1  0
 10 15  1  0
 10 11  2  0
 12 13  1  0
 14 13  1  1
 14 16  1  0
 15 14  1  0
 16 18  1  0
 17 16  2  0
 18 19  1  0
 20 22  1  0
 20 19  1  0
 21 20  2  0
M  END
$$$$
