RSG.pdb
     RDKit          3D

 22 21  0  0  1  0  0  0  0  0999 V2000
   29.7364  -25.1379  -16.3103 N   0  0  0  0  0  0  0  0  0  0  0  0
   28.6505  -25.9613  -16.7652 C   0  0  0  0  0  0  0  0  0  0  0  0
   28.7406  -27.2317  -16.6253 N   0  0  0  0  0  0  0  0  0  0  0  0
   27.4923  -25.4216  -17.3586 N   0  0  0  0  0  0  0  0  0  0  0  0
   27.0782  -24.0542  -17.1400 C   0  0  0  0  0  0  0  0  0  0  0  0
   26.9076  -23.8174  -15.6820 C   0  0  0  0  0  0  0  0  0  0  0  0
   26.4104  -22.4364  -15.3465 C   0  0  0  0  0  0  0  0  0  0  0  0
   27.3261  -21.3543  -15.8789 C   0  0  2  0  0  0  0  0  0  0  0  0
   28.6311  -21.5909  -15.3346 N   0  0  0  0  0  0  0  0  0  0  0  0
   26.8233  -20.0716  -15.3449 C   0  0  0  0  0  0  0  0  0  0  0  0
   26.9486  -19.7240  -14.1430 O   0  0  0  0  0  0  0  0  0  0  0  0
   27.9927  -27.8797  -16.9431 O   0  0  0  0  0  0  0  0  0  0  0  0
   25.8977  -17.3598  -18.0525 C   0  0  0  0  0  0  0  0  0  0  0  0
   26.0415  -16.8625  -16.7496 C   0  0  1  0  0  0  0  0  0  0  0  0
   25.5322  -17.9573  -15.8012 N   0  0  0  0  0  0  0  0  0  0  0  0
   26.1658  -19.1792  -16.2169 C   0  0  0  0  0  0  0  0  0  0  0  0
   24.0819  -18.0733  -16.0418 O   0  0  0  0  0  0  0  0  0  0  0  0
   23.6224  -19.1092  -16.5821 N   0  0  0  0  0  0  0  0  0  0  0  0
   23.1526  -17.0551  -15.6886 C   0  0  0  0  0  0  0  0  0  0  0  0
   21.7596  -17.2517  -15.9891 C   0  0  0  0  0  0  0  0  0  0  0  0
   20.9573  -16.0705  -15.5753 O   0  0  0  0  0  0  0  0  0  0  0  0
   19.7248  -16.0650  -15.8032 O   0  0  0  0  0  0  0  0  0  0  0  0
  1  2  1  0
  2  3  2  0
  4  5  1  0
  4  2  1  0
  5  6  1  0
  6  7  1  0
  7  8  1  0
  8  9  1  1
  8 10  1  0
 10 15  1  0
 10 11  2  0
 12 13  1  0
 14 13  1  1
 14 16  1  0
 15 14  1  0
 16 18  1  0
 17 16  2  0
 18 19  1  0
 20 22  1  0
 20 19  1  0
 21 20  2  0
M  END
$$$$
