RSG.pdb
     RDKit          3D

 22 21  0  0  1  0  0  0  0  0999 V2000
   28.6719  -21.3250  -12.6960 N   0  0  0  0  0  0  0  0  0  0  0  0
   28.8006  -21.5669  -11.2858 C   0  0  0  0  0  0  0  0  0  0  0  0
   29.9720  -21.7338  -10.7941 N   0  0  0  0  0  0  0  0  0  0  0  0
   27.6860  -21.6270  -10.4262 N   0  0  0  0  0  0  0  0  0  0  0  0
   26.3297  -21.5063  -10.9109 C   0  0  0  0  0  0  0  0  0  0  0  0
   26.1036  -20.1223  -11.4052 C   0  0  0  0  0  0  0  0  0  0  0  0
   24.7003  -19.8742  -11.8912 C   0  0  0  0  0  0  0  0  0  0  0  0
   24.5844  -20.0079  -13.3951 C   0  0  2  0  0  0  0  0  0  0  0  0
   25.9110  -19.9428  -13.9348 N   0  0  0  0  0  0  0  0  0  0  0  0
   23.8292  -18.8297  -13.8694 C   0  0  0  0  0  0  0  0  0  0  0  0
   22.6983  -18.5060  -13.4251 O   0  0  0  0  0  0  0  0  0  0  0  0
   30.1337  -21.8598   -9.7752 O   0  0  0  0  0  0  0  0  0  0  0  0
   25.1439  -15.1097  -14.9043 C   0  0  0  0  0  0  0  0  0  0  0  0
   24.8258  -15.9520  -15.9789 C   0  0  2  0  0  0  0  0  0  0  0  0
   23.7233  -16.8998  -15.4847 N   0  0  0  0  0  0  0  0  0  0  0  0
   24.3933  -18.0152  -14.8730 C   0  0  0  0  0  0  0  0  0  0  0  0
   23.0163  -17.3770  -16.6876 O   0  0  0  0  0  0  0  0  0  0  0  0
   23.4233  -18.4060  -17.2805 N   0  0  0  0  0  0  0  0  0  0  0  0
   21.8732  -16.7230  -17.2267 C   0  0  0  0  0  0  0  0  0  0  0  0
   21.2480  -17.2721  -18.4002 C   0  0  0  0  0  0  0  0  0  0  0  0
   20.0465  -16.4823  -18.7781 O   0  0  0  0  0  0  0  0  0  0  0  0
   19.6199  -15.6107  -17.9847 O   0  0  0  0  0  0  0  0  0  0  0  0
  1  2  1  0
  2  3  2  0
  4  5  1  0
  4  2  1  0
  5  6  1  0
  6  7  1  0
  7  8  1  0
  8  9  1  6
  8 10  1  0
 10 15  1  0
 10 11  2  0
 12 13  1  0
 14 13  1  1
 14 16  1  0
 15 14  1  0
 16 18  1  0
 17 16  2  0
 18 19  1  0
 20 22  1  0
 20 19  1  0
 21 20  2  0
M  END
$$$$
