RSG.pdb
     RDKit          3D

 22 21  0  0  1  0  0  0  0  0999 V2000
   28.4333  -24.1190  -18.0266 N   0  0  0  0  0  0  0  0  0  0  0  0
   29.6625  -23.3943  -18.1939 C   0  0  0  0  0  0  0  0  0  0  0  0
   30.7033  -24.0298  -18.5873 N   0  0  0  0  0  0  0  0  0  0  0  0
   29.7633  -22.0120  -17.9412 N   0  0  0  0  0  0  0  0  0  0  0  0
   29.2475  -21.4082  -16.7334 C   0  0  0  0  0  0  0  0  0  0  0  0
   28.0025  -20.6590  -17.0491 C   0  0  0  0  0  0  0  0  0  0  0  0
   26.8154  -21.0819  -16.2251 C   0  0  0  0  0  0  0  0  0  0  0  0
   27.2260  -21.6752  -14.8938 C   0  0  2  0  0  0  0  0  0  0  0  0
   27.7994  -22.9626  -15.1568 N   0  0  0  0  0  0  0  0  0  0  0  0
   25.9858  -21.8671  -14.1137 C   0  0  0  0  0  0  0  0  0  0  0  0
   24.9984  -22.5239  -14.5316 O   0  0  0  0  0  0  0  0  0  0  0  0
   31.5931  -23.5467  -18.8220 O   0  0  0  0  0  0  0  0  0  0  0  0
   25.8824  -21.7735   -9.9391 C   0  0  0  0  0  0  0  0  0  0  0  0
   25.1482  -20.7947  -10.6234 C   0  0  2  0  0  0  0  0  0  0  0  0
   24.7432  -21.4093  -11.9710 N   0  0  0  0  0  0  0  0  0  0  0  0
   25.8893  -21.2893  -12.8308 C   0  0  0  0  0  0  0  0  0  0  0  0
   23.6622  -20.5609  -12.5060 O   0  0  0  0  0  0  0  0  0  0  0  0
   23.9379  -19.4389  -12.9969 N   0  0  0  0  0  0  0  0  0  0  0  0
   22.2935  -20.9503  -12.4974 C   0  0  0  0  0  0  0  0  0  0  0  0
   21.3219  -20.0867  -13.1134 C   0  0  0  0  0  0  0  0  0  0  0  0
   19.9430  -20.5929  -12.8837 O   0  0  0  0  0  0  0  0  0  0  0  0
   19.7508  -21.8309  -12.8438 O   0  0  0  0  0  0  0  0  0  0  0  0
  1  2  1  0
  2  3  2  0
  4  5  1  0
  4  2  1  0
  5  6  1  0
  6  7  1  0
  7  8  1  0
  8  9  1  6
  8 10  1  0
 10 15  1  0
 10 11  2  0
 12 13  1  0
 14 13  1  1
 14 16  1  0
 15 14  1  0
 16 18  1  0
 17 16  2  0
 18 19  1  0
 20 22  1  0
 20 19  1  0
 21 20  2  0
M  END
$$$$
