RSG.pdb
     RDKit          3D

 22 21  0  0  1  0  0  0  0  0999 V2000
   24.2472  -21.5492   -7.7966 N   0  0  0  0  0  0  0  0  0  0  0  0
   23.1907  -21.0025   -8.6022 C   0  0  0  0  0  0  0  0  0  0  0  0
   22.0009  -20.9834   -8.1270 N   0  0  0  0  0  0  0  0  0  0  0  0
   23.4167  -20.4877   -9.8940 N   0  0  0  0  0  0  0  0  0  0  0  0
   24.1965  -21.1976  -10.8826 C   0  0  0  0  0  0  0  0  0  0  0  0
   25.6146  -20.7581  -10.8011 C   0  0  0  0  0  0  0  0  0  0  0  0
   26.1397  -20.1648  -12.0814 C   0  0  0  0  0  0  0  0  0  0  0  0
   26.1243  -21.1613  -13.2215 C   0  0  2  0  0  0  0  0  0  0  0  0
   27.4712  -21.6131  -13.4142 N   0  0  0  0  0  0  0  0  0  0  0  0
   25.7036  -20.4196  -14.4283 C   0  0  0  0  0  0  0  0  0  0  0  0
   26.4602  -19.6408  -15.0625 O   0  0  0  0  0  0  0  0  0  0  0  0
   21.1899  -20.6330   -8.6745 O   0  0  0  0  0  0  0  0  0  0  0  0
   22.5261  -20.4102  -17.9707 C   0  0  0  0  0  0  0  0  0  0  0  0
   22.9375  -20.9725  -16.7542 C   0  0  2  0  0  0  0  0  0  0  0  0
   23.8680  -19.9489  -16.0877 N   0  0  0  0  0  0  0  0  0  0  0  0
   24.3870  -20.5833  -14.9065 C   0  0  0  0  0  0  0  0  0  0  0  0
   23.0152  -18.8175  -15.6786 O   0  0  0  0  0  0  0  0  0  0  0  0
   22.4234  -18.8537  -14.5720 N   0  0  0  0  0  0  0  0  0  0  0  0
   22.8204  -17.6610  -16.4847 C   0  0  0  0  0  0  0  0  0  0  0  0
   21.9578  -16.6157  -16.0025 C   0  0  0  0  0  0  0  0  0  0  0  0
   20.6402  -16.6580  -16.6897 O   0  0  0  0  0  0  0  0  0  0  0  0
   20.5016  -17.4016  -17.6892 O   0  0  0  0  0  0  0  0  0  0  0  0
  1  2  1  0
  2  3  2  0
  4  5  1  0
  4  2  1  0
  5  6  1  0
  6  7  1  0
  7  8  1  0
  8  9  1  6
  8 10  1  0
 10 15  1  0
 10 11  2  0
 12 13  1  0
 14 13  1  6
 14 16  1  0
 15 14  1  0
 16 18  1  0
 17 16  2  0
 18 19  1  0
 20 22  1  0
 20 19  1  0
 21 20  2  0
M  END
$$$$
