RSG.pdb
     RDKit          3D

 22 21  0  0  1  0  0  0  0  0999 V2000
   19.3948  -28.3549  -12.4747 N   0  0  0  0  0  0  0  0  0  0  0  0
   20.7572  -28.5561  -12.8840 C   0  0  0  0  0  0  0  0  0  0  0  0
   21.2517  -29.7364  -12.8188 N   0  0  0  0  0  0  0  0  0  0  0  0
   21.5668  -27.5032  -13.3536 N   0  0  0  0  0  0  0  0  0  0  0  0
   21.1148  -26.1304  -13.3715 C   0  0  0  0  0  0  0  0  0  0  0  0
   21.8062  -25.3974  -14.4649 C   0  0  0  0  0  0  0  0  0  0  0  0
   22.6108  -24.2171  -13.9888 C   0  0  0  0  0  0  0  0  0  0  0  0
   23.9963  -24.1864  -14.5991 C   0  0  2  0  0  0  0  0  0  0  0  0
   24.7247  -25.3000  -14.0655 N   0  0  0  0  0  0  0  0  0  0  0  0
   24.6390  -22.9409  -14.1313 C   0  0  0  0  0  0  0  0  0  0  0  0
   24.5640  -22.5242  -12.9473 O   0  0  0  0  0  0  0  0  0  0  0  0
   22.2048  -29.9592  -13.1684 O   0  0  0  0  0  0  0  0  0  0  0  0
   27.6265  -21.9567  -16.2641 C   0  0  0  0  0  0  0  0  0  0  0  0
   27.6112  -21.3411  -15.0046 C   0  0  1  0  0  0  0  0  0  0  0  0
   26.1454  -21.0028  -14.6971 N   0  0  0  0  0  0  0  0  0  0  0  0
   25.3792  -22.1674  -15.0493 C   0  0  0  0  0  0  0  0  0  0  0  0
   25.7739  -19.9023  -15.6057 O   0  0  0  0  0  0  0  0  0  0  0  0
   25.3150  -20.1644  -16.7444 N   0  0  0  0  0  0  0  0  0  0  0  0
   25.9090  -18.5291  -15.2574 C   0  0  0  0  0  0  0  0  0  0  0  0
   25.6013  -17.5289  -16.2444 C   0  0  0  0  0  0  0  0  0  0  0  0
   24.1973  -17.0606  -16.1031 O   0  0  0  0  0  0  0  0  0  0  0  0
   23.4248  -17.6837  -15.3375 O   0  0  0  0  0  0  0  0  0  0  0  0
  1  2  1  0
  2  3  2  0
  4  5  1  0
  4  2  1  0
  5  6  1  0
  6  7  1  0
  7  8  1  0
  8  9  1  1
  8 10  1  0
 10 15  1  0
 10 11  2  0
 12 13  1  0
 14 13  1  1
 14 16  1  0
 15 14  1  0
 16 18  1  0
 17 16  2  0
 18 19  1  0
 20 22  1  0
 20 19  1  0
 21 20  2  0
M  END
$$$$
