ECH.pdb
     RDKit          3D

 26 26  0  0  1  0  0  0  0  0999 V2000
   17.8390  -13.9527  -19.6616 N   0  0  0  0  0  0  0  0  0  0  0  0
   18.9198  -13.4058  -18.8248 C   0  0  1  0  0  0  0  0  0  0  0  0
   20.1207  -13.3061  -19.7155 C   0  0  0  0  0  0  0  0  0  0  0  0
   20.7412  -14.6233  -20.0717 C   0  0  0  0  0  0  0  0  0  0  0  0
   21.9343  -14.3729  -20.9196 C   0  0  0  0  0  0  0  0  0  0  0  0
   23.0590  -14.3534  -20.3679 O   0  0  0  0  0  0  0  0  0  0  0  0
   18.4592  -12.1229  -18.2768 C   0  0  0  0  0  0  0  0  0  0  0  0
   17.7646  -11.3530  -18.9852 O   0  0  0  0  0  0  0  0  0  0  0  0
   21.8717  -14.1597  -22.2874 O   0  0  0  0  0  0  0  0  0  0  0  0
   18.7728  -11.7113  -16.9562 N   0  0  0  0  0  0  0  0  0  0  0  0
   18.3311  -10.4042  -16.5275 C   0  0  1  0  0  0  0  0  0  0  0  0
   17.3948  -10.6325  -15.3455 C   0  0  0  0  0  0  0  0  0  0  0  0
   15.8833  -11.4024  -15.9865 S   0  0  0  0  0  0  0  0  0  0  0  0
   19.4631   -9.5254  -16.1512 C   0  0  0  0  0  0  0  0  0  0  0  0
   20.5021  -10.0727  -15.7044 O   0  0  0  0  0  0  0  0  0  0  0  0
   19.4506   -8.1135  -16.2619 N   0  0  0  0  0  0  0  0  0  0  0  0
   20.5697   -7.2590  -15.9259 C   0  0  1  0  0  0  0  0  0  0  0  0
   21.0133   -6.5997  -17.2109 C   0  0  0  0  0  0  0  0  0  0  0  0
   22.1092   -5.6405  -17.0590 C   0  0  0  0  0  0  0  0  0  0  0  0
   23.4364   -5.8577  -17.3211 C   0  0  0  0  0  0  0  0  0  0  0  0
   24.1074   -4.7271  -17.0524 N   0  0  0  0  0  0  0  0  0  0  0  0
   23.2064   -3.8254  -16.6305 C   0  0  0  0  0  0  0  0  0  0  0  0
   21.9921   -4.3787  -16.6340 N   0  0  0  0  0  0  0  0  0  0  0  0
   20.2144   -6.2157  -14.9529 C   0  0  0  0  0  0  0  0  0  0  0  0
   21.1185   -5.5519  -14.1366 O   0  0  0  0  0  0  0  0  0  0  0  0
   19.0045   -5.8975  -14.8485 O   0  0  0  0  0  0  0  0  0  0  0  0
  2  1  1  6
  2  7  1  0
  3  4  1  0
  3  2  1  0
  4  5  1  0
  5  9  1  0
  5  6  2  0
  7  8  2  0
 10  7  1  0
 10 11  1  0
 11 14  1  0
 11 12  1  1
 13 12  1  0
 14 16  1  0
 15 14  2  0
 16 17  1  0
 17 18  1  6
 19 18  1  0
 19 23  1  0
 20 21  1  0
 20 19  2  0
 21 22  1  0
 22 23  2  0
 24 17  1  0
 25 24  1  0
 26 24  2  0
M  END
$$$$
