ECH.pdb
     RDKit          3D

 26 26  0  0  1  0  0  0  0  0999 V2000
   13.4471   -6.9319   -8.6288 N   0  0  0  0  0  0  0  0  0  0  0  0
   14.8969   -7.1871   -8.6487 C   0  0  1  0  0  0  0  0  0  0  0  0
   15.0579   -8.6188   -9.0607 C   0  0  0  0  0  0  0  0  0  0  0  0
   14.6231   -8.9142  -10.4644 C   0  0  0  0  0  0  0  0  0  0  0  0
   14.9074  -10.3415  -10.7597 C   0  0  0  0  0  0  0  0  0  0  0  0
   14.0415  -11.1933  -10.4523 O   0  0  0  0  0  0  0  0  0  0  0  0
   15.5120   -6.2166   -9.5641 C   0  0  0  0  0  0  0  0  0  0  0  0
   14.8460   -5.7492  -10.5206 O   0  0  0  0  0  0  0  0  0  0  0  0
   16.0776  -10.7826  -11.3567 O   0  0  0  0  0  0  0  0  0  0  0  0
   16.8519   -5.7782   -9.4084 N   0  0  0  0  0  0  0  0  0  0  0  0
   17.4264   -4.9609  -10.4521 C   0  0  1  0  0  0  0  0  0  0  0  0
   17.8503   -3.6536   -9.7910 C   0  0  0  0  0  0  0  0  0  0  0  0
   18.8867   -4.0740   -8.3636 S   0  0  0  0  0  0  0  0  0  0  0  0
   18.5751   -5.6226  -11.1140 C   0  0  0  0  0  0  0  0  0  0  0  0
   18.8806   -6.7797  -10.7314 O   0  0  0  0  0  0  0  0  0  0  0  0
   19.3487   -5.0379  -12.1463 N   0  0  0  0  0  0  0  0  0  0  0  0
   20.4059   -5.7217  -12.8606 C   0  0  1  0  0  0  0  0  0  0  0  0
   19.7738   -6.9214  -13.5267 C   0  0  0  0  0  0  0  0  0  0  0  0
   20.6801   -7.6967  -14.3765 C   0  0  0  0  0  0  0  0  0  0  0  0
   21.9661   -8.0687  -14.0851 C   0  0  0  0  0  0  0  0  0  0  0  0
   22.4467   -8.7667  -15.1256 N   0  0  0  0  0  0  0  0  0  0  0  0
   21.4704   -8.8241  -16.0456 C   0  0  0  0  0  0  0  0  0  0  0  0
   20.3966   -8.1746  -15.5921 N   0  0  0  0  0  0  0  0  0  0  0  0
   21.0315   -4.8793  -13.8903 C   0  0  0  0  0  0  0  0  0  0  0  0
   22.3334   -5.0217  -14.3478 O   0  0  0  0  0  0  0  0  0  0  0  0
   20.3414   -3.9611  -14.3969 O   0  0  0  0  0  0  0  0  0  0  0  0
  2  1  1  6
  2  7  1  0
  3  4  1  0
  3  2  1  0
  4  5  1  0
  5  9  1  0
  5  6  2  0
  7  8  2  0
 10  7  1  0
 10 11  1  0
 11 14  1  0
 11 12  1  1
 13 12  1  0
 14 16  1  0
 15 14  2  0
 16 17  1  0
 17 18  1  6
 19 18  1  0
 19 23  1  0
 20 21  1  0
 20 19  2  0
 21 22  1  0
 22 23  2  0
 24 17  1  0
 25 24  1  0
 26 24  2  0
M  END
$$$$
