ECH.pdb
     RDKit          3D

 26 26  0  0  1  0  0  0  0  0999 V2000
   18.7082  -11.7172  -17.1664 N   0  0  0  0  0  0  0  0  0  0  0  0
   18.0337  -10.8463  -16.1896 C   0  0  1  0  0  0  0  0  0  0  0  0
   17.2101  -11.7541  -15.3276 C   0  0  0  0  0  0  0  0  0  0  0  0
   16.2334  -12.6074  -16.0791 C   0  0  0  0  0  0  0  0  0  0  0  0
   15.4001  -13.3507  -15.1003 C   0  0  0  0  0  0  0  0  0  0  0  0
   15.7899  -14.4824  -14.7300 O   0  0  0  0  0  0  0  0  0  0  0  0
   19.0686  -10.0937  -15.4679 C   0  0  0  0  0  0  0  0  0  0  0  0
   18.7575   -9.4081  -14.4628 O   0  0  0  0  0  0  0  0  0  0  0  0
   14.2153  -12.8612  -14.5741 O   0  0  0  0  0  0  0  0  0  0  0  0
   20.4294  -10.1104  -15.8676 N   0  0  0  0  0  0  0  0  0  0  0  0
   21.3501   -9.2303  -15.1856 C   0  0  1  0  0  0  0  0  0  0  0  0
   22.7418   -9.8183  -15.3936 C   0  0  0  0  0  0  0  0  0  0  0  0
   23.1354  -10.8202  -13.9343 S   0  0  0  0  0  0  0  0  0  0  0  0
   21.2757   -7.8399  -15.6920 C   0  0  0  0  0  0  0  0  0  0  0  0
   21.1886   -7.6762  -16.9347 O   0  0  0  0  0  0  0  0  0  0  0  0
   21.2964   -6.6870  -14.8695 N   0  0  0  0  0  0  0  0  0  0  0  0
   21.2920   -5.3284  -15.3690 C   0  0  1  0  0  0  0  0  0  0  0  0
   20.0378   -4.6748  -14.8377 C   0  0  0  0  0  0  0  0  0  0  0  0
   19.8359   -3.2925  -15.2768 C   0  0  0  0  0  0  0  0  0  0  0  0
   20.7806   -2.3022  -15.3410 C   0  0  0  0  0  0  0  0  0  0  0  0
   20.1885   -1.1865  -15.7942 N   0  0  0  0  0  0  0  0  0  0  0  0
   18.8966   -1.4849  -16.0064 C   0  0  0  0  0  0  0  0  0  0  0  0
   18.6809   -2.7638  -15.6926 N   0  0  0  0  0  0  0  0  0  0  0  0
   22.4592   -4.5554  -14.9201 C   0  0  0  0  0  0  0  0  0  0  0  0
   23.1415   -3.6281  -15.6942 O   0  0  0  0  0  0  0  0  0  0  0  0
   22.8740   -4.7441  -13.7504 O   0  0  0  0  0  0  0  0  0  0  0  0
  2  1  1  6
  2  7  1  0
  3  4  1  0
  3  2  1  0
  4  5  1  0
  5  9  1  0
  5  6  2  0
  7  8  2  0
 10  7  1  0
 10 11  1  0
 11 14  1  0
 11 12  1  6
 13 12  1  0
 14 16  1  0
 15 14  2  0
 16 17  1  0
 17 18  1  1
 19 18  1  0
 19 23  1  0
 20 21  1  0
 20 19  2  0
 21 22  1  0
 22 23  2  0
 24 17  1  0
 25 24  1  0
 26 24  2  0
M  END
$$$$
