ECH.pdb
     RDKit          3D

 26 26  0  0  1  0  0  0  0  0999 V2000
   26.6138  -12.0221  -16.1400 N   0  0  0  0  0  0  0  0  0  0  0  0
   26.3889  -10.5955  -15.8538 C   0  0  1  0  0  0  0  0  0  0  0  0
   27.2819   -9.8412  -16.7913 C   0  0  0  0  0  0  0  0  0  0  0  0
   28.7443  -10.1188  -16.6150 C   0  0  0  0  0  0  0  0  0  0  0  0
   29.5050   -9.2998  -17.5925 C   0  0  0  0  0  0  0  0  0  0  0  0
   28.8669   -8.5087  -18.3252 O   0  0  0  0  0  0  0  0  0  0  0  0
   24.9556  -10.3227  -16.0253 C   0  0  0  0  0  0  0  0  0  0  0  0
   24.1708  -11.2588  -16.3166 O   0  0  0  0  0  0  0  0  0  0  0  0
   30.8816   -9.3625  -17.7385 O   0  0  0  0  0  0  0  0  0  0  0  0
   24.4125   -9.0214  -15.8723 N   0  0  0  0  0  0  0  0  0  0  0  0
   22.9757   -8.8872  -15.8031 C   0  0  1  0  0  0  0  0  0  0  0  0
   22.5450   -9.5388  -14.4933 C   0  0  0  0  0  0  0  0  0  0  0  0
   21.9493  -11.2067  -14.8827 S   0  0  0  0  0  0  0  0  0  0  0  0
   22.5412   -7.4720  -15.8647 C   0  0  0  0  0  0  0  0  0  0  0  0
   23.0361   -6.6738  -15.0300 O   0  0  0  0  0  0  0  0  0  0  0  0
   21.6078   -6.9619  -16.7997 N   0  0  0  0  0  0  0  0  0  0  0  0
   21.1548   -5.5874  -16.8334 C   0  0  1  0  0  0  0  0  0  0  0  0
   20.5458   -5.3646  -18.1979 C   0  0  0  0  0  0  0  0  0  0  0  0
   21.5065   -5.3626  -19.3030 C   0  0  0  0  0  0  0  0  0  0  0  0
   22.8534   -5.1248  -19.2233 C   0  0  0  0  0  0  0  0  0  0  0  0
   23.3693   -5.2164  -20.4586 N   0  0  0  0  0  0  0  0  0  0  0  0
   22.3545   -5.5066  -21.2885 C   0  0  0  0  0  0  0  0  0  0  0  0
   21.2222   -5.5958  -20.5880 N   0  0  0  0  0  0  0  0  0  0  0  0
   20.1429   -5.2986  -15.8067 C   0  0  0  0  0  0  0  0  0  0  0  0
   19.5865   -6.2413  -14.9546 O   0  0  0  0  0  0  0  0  0  0  0  0
   19.7491   -4.1126  -15.6876 O   0  0  0  0  0  0  0  0  0  0  0  0
  2  1  1  6
  2  7  1  0
  3  4  1  0
  3  2  1  0
  4  5  1  0
  5  9  1  0
  5  6  2  0
  7  8  2  0
 10  7  1  0
 10 11  1  0
 11 14  1  0
 11 12  1  1
 13 12  1  0
 14 16  1  0
 15 14  2  0
 16 17  1  0
 17 18  1  6
 19 18  1  0
 19 23  1  0
 20 21  1  0
 20 19  2  0
 21 22  1  0
 22 23  2  0
 24 17  1  0
 25 24  1  0
 26 24  2  0
M  END
$$$$
