ECH.pdb
     RDKit          3D

 26 26  0  0  1  0  0  0  0  0999 V2000
   14.0414   -8.9963  -10.2287 N   0  0  0  0  0  0  0  0  0  0  0  0
   15.3898   -9.2469  -10.7641 C   0  0  1  0  0  0  0  0  0  0  0  0
   15.1943  -10.0471  -12.0158 C   0  0  0  0  0  0  0  0  0  0  0  0
   14.9122  -11.5012  -11.7861 C   0  0  0  0  0  0  0  0  0  0  0  0
   15.6761  -12.2966  -12.7807 C   0  0  0  0  0  0  0  0  0  0  0  0
   16.8625  -11.9691  -13.0150 O   0  0  0  0  0  0  0  0  0  0  0  0
   16.0420   -7.9464  -10.9676 C   0  0  0  0  0  0  0  0  0  0  0  0
   15.4109   -7.0085  -11.5146 O   0  0  0  0  0  0  0  0  0  0  0  0
   15.1485  -13.3808  -13.4636 O   0  0  0  0  0  0  0  0  0  0  0  0
   17.3797   -7.7027  -10.5640 N   0  0  0  0  0  0  0  0  0  0  0  0
   17.9644   -6.4208  -10.8834 C   0  0  1  0  0  0  0  0  0  0  0  0
   18.2572   -5.7374   -9.5519 C   0  0  0  0  0  0  0  0  0  0  0  0
   16.6704   -5.2205   -8.8424 S   0  0  0  0  0  0  0  0  0  0  0  0
   19.1946   -6.5532  -11.6985 C   0  0  0  0  0  0  0  0  0  0  0  0
   19.9638   -7.5127  -11.4408 O   0  0  0  0  0  0  0  0  0  0  0  0
   19.5589   -5.6719  -12.7456 N   0  0  0  0  0  0  0  0  0  0  0  0
   20.6419   -5.9132  -13.6754 C   0  0  1  0  0  0  0  0  0  0  0  0
   20.2569   -5.2427  -14.9733 C   0  0  0  0  0  0  0  0  0  0  0  0
   19.2030   -5.9267  -15.7255 C   0  0  0  0  0  0  0  0  0  0  0  0
   18.6358   -7.1389  -15.4322 C   0  0  0  0  0  0  0  0  0  0  0  0
   17.7110   -7.4064  -16.3671 N   0  0  0  0  0  0  0  0  0  0  0  0
   17.7082   -6.3733  -17.2248 C   0  0  0  0  0  0  0  0  0  0  0  0
   18.6139   -5.4736  -16.8365 N   0  0  0  0  0  0  0  0  0  0  0  0
   21.9213   -5.3565  -13.2124 C   0  0  0  0  0  0  0  0  0  0  0  0
   23.1632   -5.6776  -13.7406 O   0  0  0  0  0  0  0  0  0  0  0  0
   21.8945   -4.5284  -12.2692 O   0  0  0  0  0  0  0  0  0  0  0  0
  2  1  1  6
  2  7  1  0
  3  4  1  0
  3  2  1  0
  4  5  1  0
  5  9  1  0
  5  6  2  0
  7  8  2  0
 10  7  1  0
 10 11  1  0
 11 14  1  0
 11 12  1  1
 13 12  1  0
 14 16  1  0
 15 14  2  0
 16 17  1  0
 17 18  1  6
 19 18  1  0
 19 23  1  0
 20 21  1  0
 20 19  2  0
 21 22  1  0
 22 23  2  0
 24 17  1  0
 25 24  1  0
 26 24  2  0
M  END
$$$$
