ECH.pdb
     RDKit          3D

 26 26  0  0  1  0  0  0  0  0999 V2000
   18.3476  -11.0780  -17.3560 N   0  0  0  0  0  0  0  0  0  0  0  0
   18.0132  -10.6200  -15.9973 C   0  0  1  0  0  0  0  0  0  0  0  0
   17.6716  -11.8539  -15.2187 C   0  0  0  0  0  0  0  0  0  0  0  0
   16.4740  -12.5981  -15.7275 C   0  0  0  0  0  0  0  0  0  0  0  0
   16.3094  -13.8379  -14.9269 C   0  0  0  0  0  0  0  0  0  0  0  0
   17.1805  -14.1078  -14.0678 O   0  0  0  0  0  0  0  0  0  0  0  0
   19.1657   -9.8714  -15.4784 C   0  0  0  0  0  0  0  0  0  0  0  0
   19.1581   -9.4520  -14.2947 O   0  0  0  0  0  0  0  0  0  0  0  0
   15.2451  -14.7124  -15.0781 O   0  0  0  0  0  0  0  0  0  0  0  0
   20.3074   -9.5981  -16.2745 N   0  0  0  0  0  0  0  0  0  0  0  0
   21.3988   -8.8681  -15.6718 C   0  0  1  0  0  0  0  0  0  0  0  0
   22.6519   -9.2415  -16.4568 C   0  0  0  0  0  0  0  0  0  0  0  0
   23.5095  -10.5431  -15.5301 S   0  0  0  0  0  0  0  0  0  0  0  0
   21.1721   -7.4041  -15.6909 C   0  0  0  0  0  0  0  0  0  0  0  0
   20.7578   -6.8925  -16.7611 O   0  0  0  0  0  0  0  0  0  0  0  0
   21.3912   -6.5464  -14.5853 N   0  0  0  0  0  0  0  0  0  0  0  0
   21.2962   -5.1030  -14.6411 C   0  0  1  0  0  0  0  0  0  0  0  0
   20.0668   -4.7183  -13.8517 C   0  0  0  0  0  0  0  0  0  0  0  0
   18.8078   -4.8219  -14.5923 C   0  0  0  0  0  0  0  0  0  0  0  0
   18.6402   -5.2813  -15.8721 C   0  0  0  0  0  0  0  0  0  0  0  0
   17.3346   -5.2132  -16.1746 N   0  0  0  0  0  0  0  0  0  0  0  0
   16.7060   -4.7186  -15.0962 C   0  0  0  0  0  0  0  0  0  0  0  0
   17.5995   -4.4803  -14.1341 N   0  0  0  0  0  0  0  0  0  0  0  0
   22.4673   -4.4345  -14.0554 C   0  0  0  0  0  0  0  0  0  0  0  0
   22.7918   -3.0984  -14.2393 O   0  0  0  0  0  0  0  0  0  0  0  0
   23.2342   -5.1184  -13.3343 O   0  0  0  0  0  0  0  0  0  0  0  0
  2  1  1  6
  2  7  1  0
  3  4  1  0
  3  2  1  0
  4  5  1  0
  5  9  1  0
  5  6  2  0
  7  8  2  0
 10  7  1  0
 10 11  1  0
 11 14  1  0
 11 12  1  6
 13 12  1  0
 14 16  1  0
 15 14  2  0
 16 17  1  0
 17 18  1  1
 19 18  1  0
 19 23  1  0
 20 21  1  0
 20 19  2  0
 21 22  1  0
 22 23  2  0
 24 17  1  0
 25 24  1  0
 26 24  2  0
M  END
$$$$
