ECH.pdb
     RDKit          3D

 26 26  0  0  1  0  0  0  0  0999 V2000
   23.9737  -14.4125  -18.2219 N   0  0  0  0  0  0  0  0  0  0  0  0
   23.7166  -13.0770  -18.7856 C   0  0  1  0  0  0  0  0  0  0  0  0
   22.4179  -13.1847  -19.5253 C   0  0  0  0  0  0  0  0  0  0  0  0
   22.4910  -13.9735  -20.7978 C   0  0  0  0  0  0  0  0  0  0  0  0
   21.1734  -13.9005  -21.4788 C   0  0  0  0  0  0  0  0  0  0  0  0
   20.5795  -14.9735  -21.7351 O   0  0  0  0  0  0  0  0  0  0  0  0
   23.7080  -12.1143  -17.6759 C   0  0  0  0  0  0  0  0  0  0  0  0
   22.8651  -12.2313  -16.7524 O   0  0  0  0  0  0  0  0  0  0  0  0
   20.5651  -12.7109  -21.8461 O   0  0  0  0  0  0  0  0  0  0  0  0
   24.6298  -11.0388  -17.6041 N   0  0  0  0  0  0  0  0  0  0  0  0
   24.5220  -10.1229  -16.4919 C   0  0  1  0  0  0  0  0  0  0  0  0
   25.9101   -9.5237  -16.2916 C   0  0  0  0  0  0  0  0  0  0  0  0
   26.9425  -10.7885  -15.5024 S   0  0  0  0  0  0  0  0  0  0  0  0
   23.5126   -9.0653  -16.7325 C   0  0  0  0  0  0  0  0  0  0  0  0
   23.4634   -8.5570  -17.8805 O   0  0  0  0  0  0  0  0  0  0  0  0
   22.6025   -8.5915  -15.7561 N   0  0  0  0  0  0  0  0  0  0  0  0
   21.5994   -7.5768  -16.0003 C   0  0  1  0  0  0  0  0  0  0  0  0
   20.2804   -8.1507  -15.5381 C   0  0  0  0  0  0  0  0  0  0  0  0
   19.7653   -9.2430  -16.3663 C   0  0  0  0  0  0  0  0  0  0  0  0
   20.0355  -10.5791  -16.2286 C   0  0  0  0  0  0  0  0  0  0  0  0
   19.3679  -11.2427  -17.1851 N   0  0  0  0  0  0  0  0  0  0  0  0
   18.6955  -10.3282  -17.9024 C   0  0  0  0  0  0  0  0  0  0  0  0
   18.9359   -9.1130  -17.4063 N   0  0  0  0  0  0  0  0  0  0  0  0
   21.8615   -6.3315  -15.2641 C   0  0  0  0  0  0  0  0  0  0  0  0
   21.1248   -5.1633  -15.3946 O   0  0  0  0  0  0  0  0  0  0  0  0
   22.8221   -6.3181  -14.4560 O   0  0  0  0  0  0  0  0  0  0  0  0
  2  1  1  1
  2  7  1  0
  3  4  1  0
  3  2  1  0
  4  5  1  0
  5  9  1  0
  5  6  2  0
  7  8  2  0
 10  7  1  0
 10 11  1  0
 11 14  1  0
 11 12  1  6
 13 12  1  0
 14 16  1  0
 15 14  2  0
 16 17  1  0
 17 18  1  1
 19 18  1  0
 19 23  1  0
 20 21  1  0
 20 19  2  0
 21 22  1  0
 22 23  2  0
 24 17  1  0
 25 24  1  0
 26 24  2  0
M  END
$$$$
