ECH.pdb
     RDKit          3D

 26 26  0  0  1  0  0  0  0  0999 V2000
   26.0206   -8.8492  -18.0109 N   0  0  0  0  0  0  0  0  0  0  0  0
   24.5984   -8.6341  -18.3248 C   0  0  1  0  0  0  0  0  0  0  0  0
   24.0431   -9.9831  -18.6671 C   0  0  0  0  0  0  0  0  0  0  0  0
   24.5684  -10.5655  -19.9445 C   0  0  0  0  0  0  0  0  0  0  0  0
   23.9069  -11.8744  -20.1777 C   0  0  0  0  0  0  0  0  0  0  0  0
   22.8574  -12.1286  -19.5423 O   0  0  0  0  0  0  0  0  0  0  0  0
   23.9722   -7.9949  -17.1597 C   0  0  0  0  0  0  0  0  0  0  0  0
   24.4641   -8.1592  -16.0160 O   0  0  0  0  0  0  0  0  0  0  0  0
   24.3869  -12.8297  -21.0593 O   0  0  0  0  0  0  0  0  0  0  0  0
   22.8136   -7.1851  -17.2764 N   0  0  0  0  0  0  0  0  0  0  0  0
   22.3446   -6.4938  -16.0976 C   0  0  1  0  0  0  0  0  0  0  0  0
   23.4357   -5.4973  -15.7203 C   0  0  0  0  0  0  0  0  0  0  0  0
   22.8379   -4.5454  -14.2973 S   0  0  0  0  0  0  0  0  0  0  0  0
   21.0509   -5.8090  -16.3269 C   0  0  0  0  0  0  0  0  0  0  0  0
   20.9208   -5.1495  -17.3884 O   0  0  0  0  0  0  0  0  0  0  0  0
   19.9549   -5.8492  -15.4307 N   0  0  0  0  0  0  0  0  0  0  0  0
   18.5664   -5.8617  -15.8400 C   0  0  1  0  0  0  0  0  0  0  0  0
   18.3585   -7.1324  -16.6303 C   0  0  0  0  0  0  0  0  0  0  0  0
   16.9928   -7.3311  -17.1199 C   0  0  0  0  0  0  0  0  0  0  0  0
   15.9208   -6.4990  -16.9313 C   0  0  0  0  0  0  0  0  0  0  0  0
   14.8554   -7.0432  -17.5390 N   0  0  0  0  0  0  0  0  0  0  0  0
   15.2650   -8.1949  -18.0947 C   0  0  0  0  0  0  0  0  0  0  0  0
   16.5631   -8.3712  -17.8410 N   0  0  0  0  0  0  0  0  0  0  0  0
   17.6389   -5.8526  -14.6994 C   0  0  0  0  0  0  0  0  0  0  0  0
   16.3419   -5.3618  -14.7362 O   0  0  0  0  0  0  0  0  0  0  0  0
   18.0450   -6.3224  -13.6084 O   0  0  0  0  0  0  0  0  0  0  0  0
  2  1  1  1
  2  7  1  0
  3  4  1  0
  3  2  1  0
  4  5  1  0
  5  9  1  0
  5  6  2  0
  7  8  2  0
 10  7  1  0
 10 11  1  0
 11 14  1  0
 11 12  1  6
 13 12  1  0
 14 16  1  0
 15 14  2  0
 16 17  1  0
 17 18  1  1
 19 18  1  0
 19 23  1  0
 20 21  1  0
 20 19  2  0
 21 22  1  0
 22 23  2  0
 24 17  1  0
 25 24  1  0
 26 24  2  0
M  END
$$$$
