ECH.pdb
     RDKit          3D

 26 26  0  0  1  0  0  0  0  0999 V2000
   21.4246  -12.7463  -20.0310 N   0  0  0  0  0  0  0  0  0  0  0  0
   20.0542  -12.5104  -19.5475 C   0  0  1  0  0  0  0  0  0  0  0  0
   19.4103  -13.8606  -19.4583 C   0  0  0  0  0  0  0  0  0  0  0  0
   20.1220  -14.8305  -18.5641 C   0  0  0  0  0  0  0  0  0  0  0  0
   19.1837  -15.2746  -17.5022 C   0  0  0  0  0  0  0  0  0  0  0  0
   19.3078  -14.7796  -16.3579 O   0  0  0  0  0  0  0  0  0  0  0  0
   20.1454  -11.7929  -18.2689 C   0  0  0  0  0  0  0  0  0  0  0  0
   19.0994  -11.5089  -17.6345 O   0  0  0  0  0  0  0  0  0  0  0  0
   18.1787  -16.2063  -17.7077 O   0  0  0  0  0  0  0  0  0  0  0  0
   21.3894  -11.4008  -17.7117 N   0  0  0  0  0  0  0  0  0  0  0  0
   21.3784  -10.6916  -16.4530 C   0  0  1  0  0  0  0  0  0  0  0  0
   22.6520  -11.0975  -15.7190 C   0  0  0  0  0  0  0  0  0  0  0  0
   22.7623  -10.0878  -14.2168 S   0  0  0  0  0  0  0  0  0  0  0  0
   21.3123   -9.2230  -16.6377 C   0  0  0  0  0  0  0  0  0  0  0  0
   22.3159   -8.6524  -17.1337 O   0  0  0  0  0  0  0  0  0  0  0  0
   20.1957   -8.4230  -16.2927 N   0  0  0  0  0  0  0  0  0  0  0  0
   20.1279   -6.9900  -16.4862 C   0  0  1  0  0  0  0  0  0  0  0  0
   18.6696   -6.6075  -16.3882 C   0  0  0  0  0  0  0  0  0  0  0  0
   18.3932   -5.1882  -16.6194 C   0  0  0  0  0  0  0  0  0  0  0  0
   19.3096   -4.1997  -16.8644 C   0  0  0  0  0  0  0  0  0  0  0  0
   18.6474   -3.0430  -17.0199 N   0  0  0  0  0  0  0  0  0  0  0  0
   17.3407   -3.3147  -16.8728 C   0  0  0  0  0  0  0  0  0  0  0  0
   17.1846   -4.6174  -16.6295 N   0  0  0  0  0  0  0  0  0  0  0  0
   20.8856   -6.2443  -15.4707 C   0  0  0  0  0  0  0  0  0  0  0  0
   21.6082   -5.0852  -15.7134 O   0  0  0  0  0  0  0  0  0  0  0  0
   20.8822   -6.6841  -14.2950 O   0  0  0  0  0  0  0  0  0  0  0  0
  2  1  1  1
  2  7  1  0
  3  4  1  0
  3  2  1  0
  4  5  1  0
  5  9  1  0
  5  6  2  0
  7  8  2  0
 10  7  1  0
 10 11  1  0
 11 14  1  0
 11 12  1  6
 13 12  1  0
 14 16  1  0
 15 14  2  0
 16 17  1  0
 17 18  1  1
 19 18  1  0
 19 23  1  0
 20 21  1  0
 20 19  2  0
 21 22  1  0
 22 23  2  0
 24 17  1  0
 25 24  1  0
 26 24  2  0
M  END
$$$$
