ECH.pdb
     RDKit          3D

 26 26  0  0  1  0  0  0  0  0999 V2000
   21.1104  -11.3684  -18.9855 N   0  0  0  0  0  0  0  0  0  0  0  0
   22.1246  -10.3203  -18.7846 C   0  0  1  0  0  0  0  0  0  0  0  0
   22.1284   -9.5039  -20.0411 C   0  0  0  0  0  0  0  0  0  0  0  0
   22.8923  -10.1150  -21.1769 C   0  0  0  0  0  0  0  0  0  0  0  0
   22.8873   -9.1654  -22.3186 C   0  0  0  0  0  0  0  0  0  0  0  0
   22.0785   -9.3685  -23.2537 O   0  0  0  0  0  0  0  0  0  0  0  0
   21.7645   -9.5721  -17.5727 C   0  0  0  0  0  0  0  0  0  0  0  0
   20.6154   -9.0781  -17.4604 O   0  0  0  0  0  0  0  0  0  0  0  0
   23.7279   -8.0673  -22.4062 O   0  0  0  0  0  0  0  0  0  0  0  0
   22.6786   -9.3817  -16.5050 N   0  0  0  0  0  0  0  0  0  0  0  0
   22.2167   -8.6781  -15.3307 C   0  0  1  0  0  0  0  0  0  0  0  0
   22.9772   -9.2688  -14.1481 C   0  0  0  0  0  0  0  0  0  0  0  0
   22.2333  -10.8785  -13.7689 S   0  0  0  0  0  0  0  0  0  0  0  0
   22.4353   -7.2161  -15.4308 C   0  0  0  0  0  0  0  0  0  0  0  0
   23.6098   -6.8147  -15.6262 O   0  0  0  0  0  0  0  0  0  0  0  0
   21.4104   -6.2449  -15.3211 N   0  0  0  0  0  0  0  0  0  0  0  0
   21.6144   -4.8213  -15.4870 C   0  0  1  0  0  0  0  0  0  0  0  0
   21.5465   -4.5433  -16.9704 C   0  0  0  0  0  0  0  0  0  0  0  0
   21.6758   -3.1306  -17.3340 C   0  0  0  0  0  0  0  0  0  0  0  0
   22.8007   -2.3545  -17.2365 C   0  0  0  0  0  0  0  0  0  0  0  0
   22.4984   -1.1215  -17.6710 N   0  0  0  0  0  0  0  0  0  0  0  0
   21.2050   -1.1372  -18.0314 C   0  0  0  0  0  0  0  0  0  0  0  0
   20.7039   -2.3570  -17.8273 N   0  0  0  0  0  0  0  0  0  0  0  0
   20.5896   -4.0183  -14.8041 C   0  0  0  0  0  0  0  0  0  0  0  0
   19.4611   -4.5344  -14.1839 O   0  0  0  0  0  0  0  0  0  0  0  0
   20.7415   -2.7725  -14.7769 O   0  0  0  0  0  0  0  0  0  0  0  0
  2  1  1  6
  2  7  1  0
  3  4  1  0
  3  2  1  0
  4  5  1  0
  5  9  1  0
  5  6  2  0
  7  8  2  0
 10  7  1  0
 10 11  1  0
 11 14  1  0
 11 12  1  1
 13 12  1  0
 14 16  1  0
 15 14  2  0
 16 17  1  0
 17 18  1  6
 19 18  1  0
 19 23  1  0
 20 21  1  0
 20 19  2  0
 21 22  1  0
 22 23  2  0
 24 17  1  0
 25 24  1  0
 26 24  2  0
M  END
$$$$
