ECH.pdb
     RDKit          3D

 26 26  0  0  1  0  0  0  0  0999 V2000
   16.8337  -15.5077  -16.2414 N   0  0  0  0  0  0  0  0  0  0  0  0
   17.8246  -14.6131  -15.6206 C   0  0  1  0  0  0  0  0  0  0  0  0
   19.1528  -15.2843  -15.7956 C   0  0  0  0  0  0  0  0  0  0  0  0
   19.2616  -16.6277  -15.1396 C   0  0  0  0  0  0  0  0  0  0  0  0
   20.5745  -17.2246  -15.4933 C   0  0  0  0  0  0  0  0  0  0  0  0
   20.7403  -17.6382  -16.6643 O   0  0  0  0  0  0  0  0  0  0  0  0
   17.7147  -13.3001  -16.2702 C   0  0  0  0  0  0  0  0  0  0  0  0
   16.9831  -13.1614  -17.2814 O   0  0  0  0  0  0  0  0  0  0  0  0
   21.6259  -17.3491  -14.5993 O   0  0  0  0  0  0  0  0  0  0  0  0
   18.4142  -12.1622  -15.7931 N   0  0  0  0  0  0  0  0  0  0  0  0
   18.2353  -10.9105  -16.4920 C   0  0  1  0  0  0  0  0  0  0  0  0
   16.7629  -10.5416  -16.3444 C   0  0  0  0  0  0  0  0  0  0  0  0
   16.3762  -10.5352  -14.5727 S   0  0  0  0  0  0  0  0  0  0  0  0
   19.1108   -9.8406  -15.9589 C   0  0  0  0  0  0  0  0  0  0  0  0
   19.2175   -9.7429  -14.7108 O   0  0  0  0  0  0  0  0  0  0  0  0
   19.8328   -8.9239  -16.7616 N   0  0  0  0  0  0  0  0  0  0  0  0
   20.6681   -7.8636  -16.2387 C   0  0  1  0  0  0  0  0  0  0  0  0
   21.1901   -7.0950  -17.4300 C   0  0  0  0  0  0  0  0  0  0  0  0
   22.1648   -6.0516  -17.1049 C   0  0  0  0  0  0  0  0  0  0  0  0
   23.0817   -6.0692  -16.0870 C   0  0  0  0  0  0  0  0  0  0  0  0
   23.7823   -4.9257  -16.1338 N   0  0  0  0  0  0  0  0  0  0  0  0
   23.3039   -4.2130  -17.1663 C   0  0  0  0  0  0  0  0  0  0  0  0
   22.3212   -4.8956  -17.7572 N   0  0  0  0  0  0  0  0  0  0  0  0
   19.9314   -6.9415  -15.3621 C   0  0  0  0  0  0  0  0  0  0  0  0
   20.4233   -6.4089  -14.1793 O   0  0  0  0  0  0  0  0  0  0  0  0
   18.7705   -6.6076  -15.7038 O   0  0  0  0  0  0  0  0  0  0  0  0
  2  1  1  6
  2  7  1  0
  3  4  1  0
  3  2  1  0
  4  5  1  0
  5  9  1  0
  5  6  2  0
  7  8  2  0
 10  7  1  0
 10 11  1  0
 11 14  1  0
 11 12  1  1
 13 12  1  0
 14 16  1  0
 15 14  2  0
 16 17  1  0
 17 18  1  6
 19 18  1  0
 19 23  1  0
 20 21  1  0
 20 19  2  0
 21 22  1  0
 22 23  2  0
 24 17  1  0
 25 24  1  0
 26 24  2  0
M  END
$$$$
