NNQ.pdb
     RDKit          3D

 26 25  0  0  1  0  0  0  0  0999 V2000
   10.6942  -18.7444   14.0325 N   0  0  0  0  0  0  0  0  0  0  0  0
   11.7478  -17.9822   14.6105 C   0  0  0  0  0  0  0  0  0  0  0  0
   12.8934  -18.0680   14.1192 O   0  0  0  0  0  0  0  0  0  0  0  0
   11.4318  -17.1255   15.7645 C   0  0  0  0  0  0  0  0  0  0  0  0
    9.9849  -17.2890   16.1209 C   0  0  2  0  0  0  0  0  0  0  0  0
    9.1211  -16.7198   15.1322 N   0  0  0  0  0  0  0  0  0  0  0  0
    9.6667  -16.6710   17.4496 C   0  0  0  0  0  0  0  0  0  0  0  0
    9.6085  -15.4000   17.5394 O   0  0  0  0  0  0  0  0  0  0  0  0
    6.7957  -19.3223   20.9676 N   0  0  0  0  0  0  0  0  0  0  0  0
    7.2821  -18.4995   19.9424 C   0  0  0  0  0  0  0  0  0  0  0  0
    7.3984  -18.9677   18.7664 O   0  0  0  0  0  0  0  0  0  0  0  0
    7.6634  -17.1062   20.1683 C   0  0  0  0  0  0  0  0  0  0  0  0
    9.1217  -16.8988   19.8942 C   0  0  2  0  0  0  0  0  0  0  0  0
    9.4358  -17.4839   18.5823 N   0  0  0  0  0  0  0  0  0  0  0  0
    9.9887  -17.6626   20.8524 C   0  0  0  0  0  0  0  0  0  0  0  0
   10.0707  -18.8921   20.7622 O   0  0  0  0  0  0  0  0  0  0  0  0
   14.8467  -15.1362   23.1683 N   0  0  0  0  0  0  0  0  0  0  0  0
   14.8280  -16.0946   22.1428 C   0  0  0  0  0  0  0  0  0  0  0  0
   15.8607  -16.3437   21.4785 O   0  0  0  0  0  0  0  0  0  0  0  0
   13.5728  -16.8314   21.8305 C   0  0  0  0  0  0  0  0  0  0  0  0
   12.7859  -17.0657   23.0714 C   0  0  0  0  0  0  0  0  0  0  0  0
   11.5153  -17.8313   22.8088 C   0  0  2  0  0  0  0  0  0  0  0  0
   10.7278  -17.0001   21.8752 N   0  0  0  0  0  0  0  0  0  0  0  0
   10.7560  -17.9556   24.0698 C   0  0  0  0  0  0  0  0  0  0  0  0
    9.5613  -17.2087   24.1731 O   0  0  0  0  0  0  0  0  0  0  0  0
   11.1257  -18.6825   25.0256 O   0  0  0  0  0  0  0  0  0  0  0  0
  2  1  1  0
  2  3  2  0
  4  2  1  0
  5  7  1  0
  5  4  1  0
  5  6  1  6
  7  8  2  0
 10 11  2  0
 10  9  1  0
 12 10  1  0
 13 12  1  1
 14  7  1  0
 14 13  1  0
 15 16  2  0
 15 13  1  0
 17 18  1  0
 18 20  1  0
 19 18  2  0
 20 21  1  0
 22 21  1  1
 22 23  1  0
 23 15  1  0
 24 22  1  0
 24 25  1  0
 26 24  2  0
M  END
$$$$
