NNQ.pdb
     RDKit          3D

 26 25  0  0  1  0  0  0  0  0999 V2000
    8.2351  -22.1399   16.0083 N   0  0  0  0  0  0  0  0  0  0  0  0
    8.9534  -21.0646   16.6025 C   0  0  0  0  0  0  0  0  0  0  0  0
   10.1811  -21.1938   16.7956 O   0  0  0  0  0  0  0  0  0  0  0  0
    8.2087  -19.8470   16.9607 C   0  0  0  0  0  0  0  0  0  0  0  0
    9.1073  -18.9253   17.7291 C   0  0  2  0  0  0  0  0  0  0  0  0
   10.2055  -19.6213   18.3268 N   0  0  0  0  0  0  0  0  0  0  0  0
    8.3622  -18.1909   18.8034 C   0  0  0  0  0  0  0  0  0  0  0  0
    7.4046  -17.4172   18.4697 O   0  0  0  0  0  0  0  0  0  0  0  0
    4.5195  -19.7009   21.3722 N   0  0  0  0  0  0  0  0  0  0  0  0
    5.5867  -19.5826   20.4714 C   0  0  0  0  0  0  0  0  0  0  0  0
    5.3586  -19.2158   19.2760 O   0  0  0  0  0  0  0  0  0  0  0  0
    6.9702  -19.8626   20.8523 C   0  0  0  0  0  0  0  0  0  0  0  0
    7.6979  -18.5984   21.1945 C   0  0  2  0  0  0  0  0  0  0  0  0
    8.7157  -18.3540   20.1619 N   0  0  0  0  0  0  0  0  0  0  0  0
    8.4888  -18.7302   22.4636 C   0  0  0  0  0  0  0  0  0  0  0  0
    7.9353  -19.1239   23.4956 O   0  0  0  0  0  0  0  0  0  0  0  0
    9.4508  -22.9861   21.0564 N   0  0  0  0  0  0  0  0  0  0  0  0
    9.9135  -22.8878   22.3780 C   0  0  0  0  0  0  0  0  0  0  0  0
    9.4459  -23.6237   23.2779 O   0  0  0  0  0  0  0  0  0  0  0  0
   10.9723  -21.9018   22.7284 C   0  0  0  0  0  0  0  0  0  0  0  0
   10.7062  -20.5967   22.0653 C   0  0  0  0  0  0  0  0  0  0  0  0
   10.8076  -19.4366   23.0211 C   0  0  2  0  0  0  0  0  0  0  0  0
    9.8767  -18.4093   22.5105 N   0  0  0  0  0  0  0  0  0  0  0  0
   12.1772  -18.8855   22.9696 C   0  0  0  0  0  0  0  0  0  0  0  0
   13.1684  -19.5655   23.7119 O   0  0  0  0  0  0  0  0  0  0  0  0
   12.4817  -17.8627   22.3066 O   0  0  0  0  0  0  0  0  0  0  0  0
  2  1  1  0
  2  3  2  0
  4  2  1  0
  5  7  1  0
  5  4  1  0
  5  6  1  1
  7  8  2  0
 10 11  2  0
 10  9  1  0
 12 10  1  0
 13 12  1  6
 14  7  1  0
 14 13  1  0
 15 16  2  0
 15 13  1  0
 17 18  1  0
 18 20  1  0
 19 18  2  0
 20 21  1  0
 22 21  1  6
 22 23  1  0
 23 15  1  0
 24 22  1  0
 24 25  1  0
 26 24  2  0
M  END
$$$$
