NNQ.pdb
     RDKit          3D

 26 25  0  0  1  0  0  0  0  0999 V2000
    6.9384  -13.2254   15.6273 N   0  0  0  0  0  0  0  0  0  0  0  0
    7.9460  -13.8373   16.4245 C   0  0  0  0  0  0  0  0  0  0  0  0
    8.5846  -14.8021   15.9526 O   0  0  0  0  0  0  0  0  0  0  0  0
    8.1867  -13.2983   17.7724 C   0  0  0  0  0  0  0  0  0  0  0  0
    9.4252  -13.9226   18.3413 C   0  0  2  0  0  0  0  0  0  0  0  0
    9.5887  -15.2778   17.9121 N   0  0  0  0  0  0  0  0  0  0  0  0
    9.4252  -13.8903   19.8405 C   0  0  0  0  0  0  0  0  0  0  0  0
    8.8220  -12.9370   20.4358 O   0  0  0  0  0  0  0  0  0  0  0  0
    7.6071  -13.9191   23.2142 N   0  0  0  0  0  0  0  0  0  0  0  0
    7.2650  -15.0826   22.5116 C   0  0  0  0  0  0  0  0  0  0  0  0
    6.0523  -15.4626   22.4834 O   0  0  0  0  0  0  0  0  0  0  0  0
    8.2542  -15.8875   21.7967 C   0  0  0  0  0  0  0  0  0  0  0  0
    9.6223  -15.2894   21.9210 C   0  0  2  0  0  0  0  0  0  0  0  0
   10.0825  -14.8992   20.5802 N   0  0  0  0  0  0  0  0  0  0  0  0
   10.6375  -16.2966   22.3774 C   0  0  0  0  0  0  0  0  0  0  0  0
   10.7494  -16.5560   23.5802 O   0  0  0  0  0  0  0  0  0  0  0  0
   15.3966  -15.3537   18.7120 N   0  0  0  0  0  0  0  0  0  0  0  0
   14.2735  -14.6453   19.1673 C   0  0  0  0  0  0  0  0  0  0  0  0
   14.2053  -13.4006   19.0404 O   0  0  0  0  0  0  0  0  0  0  0  0
   13.1427  -15.3690   19.8103 C   0  0  0  0  0  0  0  0  0  0  0  0
   13.4351  -15.6161   21.2481 C   0  0  0  0  0  0  0  0  0  0  0  0
   12.9398  -16.9615   21.7111 C   0  0  2  0  0  0  0  0  0  0  0  0
   11.4857  -16.9689   21.4500 N   0  0  0  0  0  0  0  0  0  0  0  0
   13.1481  -17.0783   23.1689 C   0  0  0  0  0  0  0  0  0  0  0  0
   14.4736  -17.2874   23.6107 O   0  0  0  0  0  0  0  0  0  0  0  0
   12.2135  -16.9996   24.0049 O   0  0  0  0  0  0  0  0  0  0  0  0
  2  1  1  0
  2  3  2  0
  4  2  1  0
  5  7  1  0
  5  4  1  0
  5  6  1  1
  7  8  2  0
 10 11  2  0
 10  9  1  0
 12 10  1  0
 13 12  1  6
 14  7  1  0
 14 13  1  0
 15 16  2  0
 15 13  1  0
 17 18  1  0
 18 20  1  0
 19 18  2  0
 20 21  1  0
 22 21  1  1
 22 23  1  0
 23 15  1  0
 24 22  1  0
 24 25  1  0
 26 24  2  0
M  END
$$$$
