NNQ.pdb
     RDKit          3D

 26 25  0  0  1  0  0  0  0  0999 V2000
    7.7917  -15.0045   18.0472 N   0  0  0  0  0  0  0  0  0  0  0  0
    8.1071  -13.6353   18.2735 C   0  0  0  0  0  0  0  0  0  0  0  0
    8.3114  -12.8933   17.2891 O   0  0  0  0  0  0  0  0  0  0  0  0
    8.1760  -13.1601   19.6644 C   0  0  0  0  0  0  0  0  0  0  0  0
    7.8861  -14.3013   20.5924 C   0  0  2  0  0  0  0  0  0  0  0  0
    6.4994  -14.6543   20.5921 N   0  0  0  0  0  0  0  0  0  0  0  0
    8.3029  -13.9929   21.9994 C   0  0  0  0  0  0  0  0  0  0  0  0
    9.5404  -13.8098   22.2489 O   0  0  0  0  0  0  0  0  0  0  0  0
    8.1516  -12.9145   27.0535 N   0  0  0  0  0  0  0  0  0  0  0  0
    6.8988  -12.6326   26.4917 C   0  0  0  0  0  0  0  0  0  0  0  0
    6.0024  -12.0827   27.2057 O   0  0  0  0  0  0  0  0  0  0  0  0
    6.5742  -12.9439   25.1006 C   0  0  0  0  0  0  0  0  0  0  0  0
    7.7281  -13.6129   24.4181 C   0  0  2  0  0  0  0  0  0  0  0  0
    7.3404  -13.9069   23.0306 N   0  0  0  0  0  0  0  0  0  0  0  0
    8.0264  -14.9606   25.0079 C   0  0  0  0  0  0  0  0  0  0  0  0
    7.2111  -15.8807   24.8840 O   0  0  0  0  0  0  0  0  0  0  0  0
   11.3758  -18.5878   23.0113 N   0  0  0  0  0  0  0  0  0  0  0  0
   11.5042  -19.1840   24.2756 C   0  0  0  0  0  0  0  0  0  0  0  0
   11.9585  -20.3457   24.3939 O   0  0  0  0  0  0  0  0  0  0  0  0
   11.0997  -18.4383   25.4988 C   0  0  0  0  0  0  0  0  0  0  0  0
   10.5766  -17.0932   25.1375 C   0  0  0  0  0  0  0  0  0  0  0  0
    9.5354  -16.6026   26.1096 C   0  0  2  0  0  0  0  0  0  0  0  0
    9.2383  -15.2101   25.7154 N   0  0  0  0  0  0  0  0  0  0  0  0
   10.1129  -16.5847   27.4690 C   0  0  0  0  0  0  0  0  0  0  0  0
   10.0778  -17.7963   28.1947 O   0  0  0  0  0  0  0  0  0  0  0  0
   10.6202  -15.5584   27.9866 O   0  0  0  0  0  0  0  0  0  0  0  0
  2  1  1  0
  2  3  2  0
  4  2  1  0
  5  7  1  0
  5  4  1  0
  5  6  1  1
  7  8  2  0
 10 11  2  0
 10  9  1  0
 12 10  1  0
 13 12  1  1
 14  7  1  0
 14 13  1  0
 15 16  2  0
 15 13  1  0
 17 18  1  0
 18 20  1  0
 19 18  2  0
 20 21  1  0
 22 21  1  6
 22 23  1  0
 23 15  1  0
 24 22  1  0
 24 25  1  0
 26 24  2  0
M  END
$$$$
