NNQ.pdb
     RDKit          3D

 26 25  0  0  1  0  0  0  0  0999 V2000
   12.4687  -16.5002   19.1500 N   0  0  0  0  0  0  0  0  0  0  0  0
   11.4880  -16.9664   20.0699 C   0  0  0  0  0  0  0  0  0  0  0  0
   11.4432  -18.1863   20.3363 O   0  0  0  0  0  0  0  0  0  0  0  0
   10.5712  -15.9811   20.6650 C   0  0  0  0  0  0  0  0  0  0  0  0
    9.8515  -16.6093   21.8203 C   0  0  2  0  0  0  0  0  0  0  0  0
    8.4916  -16.9196   21.5007 N   0  0  0  0  0  0  0  0  0  0  0  0
    9.8707  -15.7272   23.0328 C   0  0  0  0  0  0  0  0  0  0  0  0
   10.9937  -15.3221   23.4817 O   0  0  0  0  0  0  0  0  0  0  0  0
    8.2723  -12.9682   27.1283 N   0  0  0  0  0  0  0  0  0  0  0  0
    7.2784  -12.9529   26.1401 C   0  0  0  0  0  0  0  0  0  0  0  0
    6.2641  -12.2005   26.2846 O   0  0  0  0  0  0  0  0  0  0  0  0
    7.3598  -13.7726   24.9322 C   0  0  0  0  0  0  0  0  0  0  0  0
    8.6621  -14.5108   24.8725 C   0  0  2  0  0  0  0  0  0  0  0  0
    8.6646  -15.3520   23.6666 N   0  0  0  0  0  0  0  0  0  0  0  0
    8.8066  -15.4896   26.0014 C   0  0  0  0  0  0  0  0  0  0  0  0
    8.4314  -16.6576   25.8550 O   0  0  0  0  0  0  0  0  0  0  0  0
   11.6480  -19.4991   26.2771 N   0  0  0  0  0  0  0  0  0  0  0  0
   11.5018  -19.0796   27.6087 C   0  0  0  0  0  0  0  0  0  0  0  0
   11.0101  -19.8434   28.4717 O   0  0  0  0  0  0  0  0  0  0  0  0
   11.9321  -17.7134   28.0140 C   0  0  0  0  0  0  0  0  0  0  0  0
   11.1522  -16.6833   27.2762 C   0  0  0  0  0  0  0  0  0  0  0  0
    9.9958  -16.1526   28.0830 C   0  0  2  0  0  0  0  0  0  0  0  0
    9.3708  -15.1031   27.2519 N   0  0  0  0  0  0  0  0  0  0  0  0
   10.5140  -15.5202   29.3133 C   0  0  0  0  0  0  0  0  0  0  0  0
   10.7728  -16.3722   30.4100 O   0  0  0  0  0  0  0  0  0  0  0  0
   10.7267  -14.2860   29.4142 O   0  0  0  0  0  0  0  0  0  0  0  0
  2  1  1  0
  2  3  2  0
  4  2  1  0
  5  7  1  0
  5  4  1  0
  5  6  1  6
  7  8  2  0
 10 11  2  0
 10  9  1  0
 12 10  1  0
 13 12  1  1
 14  7  1  0
 14 13  1  0
 15 16  2  0
 15 13  1  0
 17 18  1  0
 18 20  1  0
 19 18  2  0
 20 21  1  0
 22 21  1  6
 22 23  1  0
 23 15  1  0
 24 22  1  0
 24 25  1  0
 26 24  2  0
M  END
$$$$
