NNQ.pdb
     RDKit          3D

 26 25  0  0  1  0  0  0  0  0999 V2000
    7.5364  -21.0321   16.6553 N   0  0  0  0  0  0  0  0  0  0  0  0
    7.1702  -19.8015   17.2691 C   0  0  0  0  0  0  0  0  0  0  0  0
    6.0476  -19.7083   17.8099 O   0  0  0  0  0  0  0  0  0  0  0  0
    8.1392  -18.6946   17.2362 C   0  0  0  0  0  0  0  0  0  0  0  0
    8.7285  -18.5118   18.6024 C   0  0  2  0  0  0  0  0  0  0  0  0
    7.7279  -18.5288   19.6252 N   0  0  0  0  0  0  0  0  0  0  0  0
    9.5009  -17.2308   18.7075 C   0  0  0  0  0  0  0  0  0  0  0  0
   10.4876  -17.0405   17.9218 O   0  0  0  0  0  0  0  0  0  0  0  0
    6.7277  -13.0200   19.2135 N   0  0  0  0  0  0  0  0  0  0  0  0
    8.0468  -13.4655   19.0518 C   0  0  0  0  0  0  0  0  0  0  0  0
    8.5637  -13.4815   17.8907 O   0  0  0  0  0  0  0  0  0  0  0  0
    8.8668  -13.9153   20.1755 C   0  0  0  0  0  0  0  0  0  0  0  0
    9.8448  -14.9632   19.7392 C   0  0  2  0  0  0  0  0  0  0  0  0
    9.1411  -16.2519   19.6611 N   0  0  0  0  0  0  0  0  0  0  0  0
   10.9172  -15.1936   20.7640 C   0  0  0  0  0  0  0  0  0  0  0  0
   11.7784  -14.3293   20.9586 O   0  0  0  0  0  0  0  0  0  0  0  0
    7.5474  -14.5111   24.4353 N   0  0  0  0  0  0  0  0  0  0  0  0
    8.5077  -14.8854   25.3883 C   0  0  0  0  0  0  0  0  0  0  0  0
    8.3282  -14.6517   26.6061 O   0  0  0  0  0  0  0  0  0  0  0  0
    9.7590  -15.5690   24.9605 C   0  0  0  0  0  0  0  0  0  0  0  0
    9.8314  -15.6381   23.4760 C   0  0  0  0  0  0  0  0  0  0  0  0
   11.1056  -16.2807   22.9932 C   0  0  2  0  0  0  0  0  0  0  0  0
   10.9696  -16.3965   21.5266 N   0  0  0  0  0  0  0  0  0  0  0  0
   11.2046  -17.6424   23.5570 C   0  0  0  0  0  0  0  0  0  0  0  0
   11.7234  -17.7563   24.8661 O   0  0  0  0  0  0  0  0  0  0  0  0
   10.8527  -18.6728   22.9302 O   0  0  0  0  0  0  0  0  0  0  0  0
  2  1  1  0
  2  3  2  0
  4  2  1  0
  5  7  1  0
  5  4  1  0
  5  6  1  1
  7  8  2  0
 10 11  2  0
 10  9  1  0
 12 10  1  0
 13 12  1  1
 14  7  1  0
 14 13  1  0
 15 16  2  0
 15 13  1  0
 17 18  1  0
 18 20  1  0
 19 18  2  0
 20 21  1  0
 22 21  1  1
 22 23  1  0
 23 15  1  0
 24 22  1  0
 24 25  1  0
 26 24  2  0
M  END
$$$$
