NNQ.pdb
     RDKit          3D

 26 25  0  0  1  0  0  0  0  0999 V2000
    6.7612  -13.1651   18.1276 N   0  0  0  0  0  0  0  0  0  0  0  0
    7.9574  -13.6451   18.7308 C   0  0  0  0  0  0  0  0  0  0  0  0
    8.3662  -14.7876   18.4326 O   0  0  0  0  0  0  0  0  0  0  0  0
    8.6570  -12.7653   19.6803 C   0  0  0  0  0  0  0  0  0  0  0  0
    9.8800  -13.4639   20.1937 C   0  0  2  0  0  0  0  0  0  0  0  0
   10.6575  -14.0322   19.1353 N   0  0  0  0  0  0  0  0  0  0  0  0
    9.5321  -14.5480   21.1696 C   0  0  0  0  0  0  0  0  0  0  0  0
    8.7229  -14.2846   22.1197 O   0  0  0  0  0  0  0  0  0  0  0  0
    9.6019  -18.8284   18.9005 N   0  0  0  0  0  0  0  0  0  0  0  0
    9.1507  -18.5177   20.1906 C   0  0  0  0  0  0  0  0  0  0  0  0
    7.9018  -18.4815   20.4248 O   0  0  0  0  0  0  0  0  0  0  0  0
   10.0655  -18.2331   21.2950 C   0  0  0  0  0  0  0  0  0  0  0  0
    9.7237  -16.9305   21.9516 C   0  0  2  0  0  0  0  0  0  0  0  0
   10.0918  -15.8389   21.0380 N   0  0  0  0  0  0  0  0  0  0  0  0
   10.5576  -16.6808   23.1745 C   0  0  0  0  0  0  0  0  0  0  0  0
   11.7427  -16.3527   23.0548 O   0  0  0  0  0  0  0  0  0  0  0  0
    8.9913  -13.5654   27.9728 N   0  0  0  0  0  0  0  0  0  0  0  0
    9.9190  -14.3944   28.6230 C   0  0  0  0  0  0  0  0  0  0  0  0
   10.1937  -14.2239   29.8335 O   0  0  0  0  0  0  0  0  0  0  0  0
   10.5917  -15.4932   27.8772 C   0  0  0  0  0  0  0  0  0  0  0  0
   10.1844  -15.4745   26.4463 C   0  0  0  0  0  0  0  0  0  0  0  0
   10.8955  -16.5252   25.6338 C   0  0  2  0  0  0  0  0  0  0  0  0
   10.0129  -16.8140   24.4848 N   0  0  0  0  0  0  0  0  0  0  0  0
   11.0224  -17.7565   26.4400 C   0  0  0  0  0  0  0  0  0  0  0  0
    9.9733  -18.6973   26.3398 O   0  0  0  0  0  0  0  0  0  0  0  0
   12.0036  -17.9888   27.1896 O   0  0  0  0  0  0  0  0  0  0  0  0
  2  1  1  0
  2  3  2  0
  4  2  1  0
  5  7  1  0
  5  4  1  0
  5  6  1  6
  7  8  2  0
 10 11  2  0
 10  9  1  0
 12 10  1  0
 13 12  1  6
 14  7  1  0
 14 13  1  0
 15 16  2  0
 15 13  1  0
 17 18  1  0
 18 20  1  0
 19 18  2  0
 20 21  1  0
 22 21  1  1
 22 23  1  0
 23 15  1  0
 24 22  1  0
 24 25  1  0
 26 24  2  0
M  END
$$$$
