NNQ.pdb
     RDKit          3D

 26 25  0  0  1  0  0  0  0  0999 V2000
    8.7727  -17.7627   14.2918 N   0  0  0  0  0  0  0  0  0  0  0  0
    8.2562  -16.4540   14.5061 C   0  0  0  0  0  0  0  0  0  0  0  0
    7.5532  -15.9303   13.6157 O   0  0  0  0  0  0  0  0  0  0  0  0
    8.5776  -15.7805   15.7743 C   0  0  0  0  0  0  0  0  0  0  0  0
    9.6266  -16.5676   16.5007 C   0  0  2  0  0  0  0  0  0  0  0  0
    9.1400  -17.8434   16.9285 N   0  0  0  0  0  0  0  0  0  0  0  0
   10.1485  -15.8272   17.6958 C   0  0  0  0  0  0  0  0  0  0  0  0
   11.4018  -15.6073   17.7848 O   0  0  0  0  0  0  0  0  0  0  0  0
    6.7910  -12.5827   19.4333 N   0  0  0  0  0  0  0  0  0  0  0  0
    8.1405  -12.8097   19.7365 C   0  0  0  0  0  0  0  0  0  0  0  0
    9.0212  -11.9934   19.3198 O   0  0  0  0  0  0  0  0  0  0  0  0
    8.5856  -13.9578   20.5248 C   0  0  0  0  0  0  0  0  0  0  0  0
    9.7536  -14.6339   19.8740 C   0  0  2  0  0  0  0  0  0  0  0  0
    9.2660  -15.3815   18.7056 N   0  0  0  0  0  0  0  0  0  0  0  0
   10.3573  -15.6875   20.7565 C   0  0  0  0  0  0  0  0  0  0  0  0
    9.6682  -16.6393   21.1383 O   0  0  0  0  0  0  0  0  0  0  0  0
   15.6216  -18.3012   20.0347 N   0  0  0  0  0  0  0  0  0  0  0  0
   15.3602  -18.7750   21.3299 C   0  0  0  0  0  0  0  0  0  0  0  0
   16.1031  -19.6327   21.8614 O   0  0  0  0  0  0  0  0  0  0  0  0
   14.1898  -18.2606   22.0925 C   0  0  0  0  0  0  0  0  0  0  0  0
   13.4530  -17.2466   21.2908 C   0  0  0  0  0  0  0  0  0  0  0  0
   12.2429  -16.7135   22.0129 C   0  0  2  0  0  0  0  0  0  0  0  0
   11.7193  -15.6184   21.1707 N   0  0  0  0  0  0  0  0  0  0  0  0
   12.6654  -16.1397   23.3069 C   0  0  0  0  0  0  0  0  0  0  0  0
   12.7572  -17.0286   24.4010 O   0  0  0  0  0  0  0  0  0  0  0  0
   12.9385  -14.9233   23.4626 O   0  0  0  0  0  0  0  0  0  0  0  0
  2  1  1  0
  2  3  2  0
  4  2  1  0
  5  7  1  0
  5  4  1  0
  5  6  1  1
  7  8  2  0
 10 11  2  0
 10  9  1  0
 12 10  1  0
 13 12  1  1
 14  7  1  0
 14 13  1  0
 15 16  2  0
 15 13  1  0
 17 18  1  0
 18 20  1  0
 19 18  2  0
 20 21  1  0
 22 21  1  6
 22 23  1  0
 23 15  1  0
 24 22  1  0
 24 25  1  0
 26 24  2  0
M  END
$$$$
