NNQ.pdb
     RDKit          3D

 26 25  0  0  1  0  0  0  0  0999 V2000
    8.2247  -12.1129   17.4499 N   0  0  0  0  0  0  0  0  0  0  0  0
    7.9747  -13.5134   17.4128 C   0  0  0  0  0  0  0  0  0  0  0  0
    8.2032  -14.1385   16.3553 O   0  0  0  0  0  0  0  0  0  0  0  0
    7.4573  -14.1582   18.6301 C   0  0  0  0  0  0  0  0  0  0  0  0
    8.5509  -14.2347   19.6526 C   0  0  2  0  0  0  0  0  0  0  0  0
    9.7569  -14.7803   19.1089 N   0  0  0  0  0  0  0  0  0  0  0  0
    8.1449  -15.0559   20.8399 C   0  0  0  0  0  0  0  0  0  0  0  0
    7.0430  -14.7899   21.4247 O   0  0  0  0  0  0  0  0  0  0  0  0
    7.3533  -19.2272   21.1448 N   0  0  0  0  0  0  0  0  0  0  0  0
    8.7321  -19.0294   21.3012 C   0  0  0  0  0  0  0  0  0  0  0  0
    9.5377  -19.5559   20.4709 O   0  0  0  0  0  0  0  0  0  0  0  0
    9.2920  -18.2303   22.3899 C   0  0  0  0  0  0  0  0  0  0  0  0
    8.6079  -16.9007   22.4851 C   0  0  2  0  0  0  0  0  0  0  0  0
    8.9697  -16.1062   21.3021 N   0  0  0  0  0  0  0  0  0  0  0  0
    9.1155  -16.0881   23.6407 C   0  0  0  0  0  0  0  0  0  0  0  0
   10.3231  -15.8465   23.7398 O   0  0  0  0  0  0  0  0  0  0  0  0
    5.5292  -12.5485   27.2119 N   0  0  0  0  0  0  0  0  0  0  0  0
    6.3248  -11.9255   26.2375 C   0  0  0  0  0  0  0  0  0  0  0  0
    6.0593  -10.7688   25.8359 O   0  0  0  0  0  0  0  0  0  0  0  0
    7.5014  -12.6364   25.6662 C   0  0  0  0  0  0  0  0  0  0  0  0
    7.6562  -13.9747   26.2978 C   0  0  0  0  0  0  0  0  0  0  0  0
    8.8077  -14.7533   25.7168 C   0  0  2  0  0  0  0  0  0  0  0  0
    8.2318  -15.5825   24.6381 N   0  0  0  0  0  0  0  0  0  0  0  0
    9.3530  -15.6552   26.7518 C   0  0  0  0  0  0  0  0  0  0  0  0
    9.1056  -17.0368   26.5909 O   0  0  0  0  0  0  0  0  0  0  0  0
   10.0110  -15.2471   27.7413 O   0  0  0  0  0  0  0  0  0  0  0  0
  2  1  1  0
  2  3  2  0
  4  2  1  0
  5  7  1  0
  5  4  1  0
  5  6  1  6
  7  8  2  0
 10 11  2  0
 10  9  1  0
 12 10  1  0
 13 12  1  6
 14  7  1  0
 14 13  1  0
 15 16  2  0
 15 13  1  0
 17 18  1  0
 18 20  1  0
 19 18  2  0
 20 21  1  0
 22 21  1  1
 22 23  1  0
 23 15  1  0
 24 22  1  0
 24 25  1  0
 26 24  2  0
M  END
$$$$
