NNQ.pdb
     RDKit          3D

 26 25  0  0  1  0  0  0  0  0999 V2000
   15.9919  -17.8629   18.3491 N   0  0  0  0  0  0  0  0  0  0  0  0
   15.3430  -18.5859   19.3890 C   0  0  0  0  0  0  0  0  0  0  0  0
   15.7025  -19.7596   19.6222 O   0  0  0  0  0  0  0  0  0  0  0  0
   14.2752  -17.9093   20.1422 C   0  0  0  0  0  0  0  0  0  0  0  0
   12.9424  -18.3796   19.6423 C   0  0  2  0  0  0  0  0  0  0  0  0
   12.7453  -18.0629   18.2608 N   0  0  0  0  0  0  0  0  0  0  0  0
   11.8130  -17.7930   20.4353 C   0  0  0  0  0  0  0  0  0  0  0  0
   11.1659  -16.8073   19.9488 O   0  0  0  0  0  0  0  0  0  0  0  0
   10.6849  -20.4414   23.0291 N   0  0  0  0  0  0  0  0  0  0  0  0
    9.4251  -19.9904   22.6117 C   0  0  0  0  0  0  0  0  0  0  0  0
    8.4704  -20.8214   22.4947 O   0  0  0  0  0  0  0  0  0  0  0  0
    9.1561  -18.5866   22.3043 C   0  0  0  0  0  0  0  0  0  0  0  0
   10.3829  -17.7499   22.5036 C   0  0  2  0  0  0  0  0  0  0  0  0
   11.4723  -18.3238   21.6999 N   0  0  0  0  0  0  0  0  0  0  0  0
   10.8912  -17.8233   23.9141 C   0  0  0  0  0  0  0  0  0  0  0  0
   11.9668  -18.3826   24.1523 O   0  0  0  0  0  0  0  0  0  0  0  0
    8.8067  -13.5300   27.8206 N   0  0  0  0  0  0  0  0  0  0  0  0
    9.9606  -13.9502   28.5007 C   0  0  0  0  0  0  0  0  0  0  0  0
   10.3246  -13.3836   29.5573 O   0  0  0  0  0  0  0  0  0  0  0  0
   10.7706  -15.0814   27.9713 C   0  0  0  0  0  0  0  0  0  0  0  0
   10.1505  -15.6299   26.7351 C   0  0  0  0  0  0  0  0  0  0  0  0
   10.9140  -16.8058   26.1836 C   0  0  2  0  0  0  0  0  0  0  0  0
   10.1578  -17.2591   24.9982 N   0  0  0  0  0  0  0  0  0  0  0  0
   10.9087  -17.8964   27.1799 C   0  0  0  0  0  0  0  0  0  0  0  0
    9.9915  -18.9502   26.9695 O   0  0  0  0  0  0  0  0  0  0  0  0
   11.6705  -17.9183   28.1788 O   0  0  0  0  0  0  0  0  0  0  0  0
  2  1  1  0
  2  3  2  0
  4  2  1  0
  5  7  1  0
  5  4  1  0
  5  6  1  6
  7  8  2  0
 10 11  2  0
 10  9  1  0
 12 10  1  0
 13 12  1  1
 14  7  1  0
 14 13  1  0
 15 16  2  0
 15 13  1  0
 17 18  1  0
 18 20  1  0
 19 18  2  0
 20 21  1  0
 22 21  1  1
 22 23  1  0
 23 15  1  0
 24 22  1  0
 24 25  1  0
 26 24  2  0
M  END
$$$$
