NNQ.pdb
     RDKit          3D

 26 25  0  0  1  0  0  0  0  0999 V2000
    6.5768  -13.4763   21.4716 N   0  0  0  0  0  0  0  0  0  0  0  0
    7.6855  -12.6178   21.2287 C   0  0  0  0  0  0  0  0  0  0  0  0
    7.7087  -11.4942   21.7748 O   0  0  0  0  0  0  0  0  0  0  0  0
    8.7555  -13.1009   20.3415 C   0  0  0  0  0  0  0  0  0  0  0  0
    8.4280  -14.4896   19.8817 C   0  0  2  0  0  0  0  0  0  0  0  0
    7.0923  -14.5871   19.3777 N   0  0  0  0  0  0  0  0  0  0  0  0
    8.6008  -15.4943   20.9815 C   0  0  0  0  0  0  0  0  0  0  0  0
    7.5628  -15.9636   21.5553 O   0  0  0  0  0  0  0  0  0  0  0  0
   12.1798  -18.3914   19.8290 N   0  0  0  0  0  0  0  0  0  0  0  0
   11.2741  -18.4935   20.8938 C   0  0  0  0  0  0  0  0  0  0  0  0
   10.3238  -19.3351   20.8283 O   0  0  0  0  0  0  0  0  0  0  0  0
   11.3778  -17.6661   22.0947 C   0  0  0  0  0  0  0  0  0  0  0  0
   10.0818  -16.9700   22.3791 C   0  0  2  0  0  0  0  0  0  0  0  0
    9.8919  -15.9130   21.3748 N   0  0  0  0  0  0  0  0  0  0  0  0
   10.1145  -16.2316   23.6856 C   0  0  0  0  0  0  0  0  0  0  0  0
   10.9783  -15.3709   23.8846 O   0  0  0  0  0  0  0  0  0  0  0  0
    5.6078  -13.6061   26.2985 N   0  0  0  0  0  0  0  0  0  0  0  0
    6.7315  -12.8735   25.8847 C   0  0  0  0  0  0  0  0  0  0  0  0
    6.6391  -11.6525   25.6191 O   0  0  0  0  0  0  0  0  0  0  0  0
    8.0548  -13.5429   25.7556 C   0  0  0  0  0  0  0  0  0  0  0  0
    7.9396  -14.9888   26.0872 C   0  0  0  0  0  0  0  0  0  0  0  0
    9.2549  -15.7126   25.9612 C   0  0  2  0  0  0  0  0  0  0  0  0
    9.1653  -16.5001   24.7144 N   0  0  0  0  0  0  0  0  0  0  0  0
    9.4003  -16.6522   27.0917 C   0  0  0  0  0  0  0  0  0  0  0  0
    9.8231  -16.1082   28.3250 O   0  0  0  0  0  0  0  0  0  0  0  0
    9.1668  -17.8831   26.9964 O   0  0  0  0  0  0  0  0  0  0  0  0
  2  1  1  0
  2  3  2  0
  4  2  1  0
  5  7  1  0
  5  4  1  0
  5  6  1  1
  7  8  2  0
 10 11  2  0
 10  9  1  0
 12 10  1  0
 13 12  1  6
 14  7  1  0
 14 13  1  0
 15 16  2  0
 15 13  1  0
 17 18  1  0
 18 20  1  0
 19 18  2  0
 20 21  1  0
 22 21  1  1
 22 23  1  0
 23 15  1  0
 24 22  1  0
 24 25  1  0
 26 24  2  0
M  END
$$$$
