NNQ.pdb
     RDKit          3D

 26 25  0  0  1  0  0  0  0  0999 V2000
    7.2984  -12.0376   18.1280 N   0  0  0  0  0  0  0  0  0  0  0  0
    7.8033  -13.3634   18.2403 C   0  0  0  0  0  0  0  0  0  0  0  0
    8.3920  -13.8690   17.2611 O   0  0  0  0  0  0  0  0  0  0  0  0
    7.6057  -14.0754   19.5129 C   0  0  0  0  0  0  0  0  0  0  0  0
    8.9393  -14.3373   20.1457 C   0  0  2  0  0  0  0  0  0  0  0  0
    9.9203  -14.7376   19.1839 N   0  0  0  0  0  0  0  0  0  0  0  0
    8.8521  -15.3905   21.2096 C   0  0  0  0  0  0  0  0  0  0  0  0
    7.9682  -15.2727   22.1216 O   0  0  0  0  0  0  0  0  0  0  0  0
    8.2778  -20.2422   21.1555 N   0  0  0  0  0  0  0  0  0  0  0  0
    9.3380  -19.4245   20.7410 C   0  0  0  0  0  0  0  0  0  0  0  0
    9.5158  -19.2114   19.5006 O   0  0  0  0  0  0  0  0  0  0  0  0
   10.2589  -18.7941   21.6855 C   0  0  0  0  0  0  0  0  0  0  0  0
    9.6747  -17.5314   22.2415 C   0  0  2  0  0  0  0  0  0  0  0  0
    9.7347  -16.4941   21.2011 N   0  0  0  0  0  0  0  0  0  0  0  0
   10.5031  -16.9737   23.3621 C   0  0  0  0  0  0  0  0  0  0  0  0
   11.6600  -16.5983   23.1444 O   0  0  0  0  0  0  0  0  0  0  0  0
    8.8575  -13.3114   27.8247 N   0  0  0  0  0  0  0  0  0  0  0  0
   10.0540  -13.7781   28.3915 C   0  0  0  0  0  0  0  0  0  0  0  0
   10.4926  -13.2881   29.4580 O   0  0  0  0  0  0  0  0  0  0  0  0
   10.8207  -14.8680   27.7280 C   0  0  0  0  0  0  0  0  0  0  0  0
   10.0854  -15.3681   26.5352 C   0  0  0  0  0  0  0  0  0  0  0  0
   10.8887  -16.3666   25.7432 C   0  0  2  0  0  0  0  0  0  0  0  0
    9.9854  -16.8648   24.6856 N   0  0  0  0  0  0  0  0  0  0  0  0
   11.2468  -17.5021   26.6176 C   0  0  0  0  0  0  0  0  0  0  0  0
   10.3956  -18.6291   26.5829 O   0  0  0  0  0  0  0  0  0  0  0  0
   12.2538  -17.4998   27.3689 O   0  0  0  0  0  0  0  0  0  0  0  0
  2  1  1  0
  2  3  2  0
  4  2  1  0
  5  7  1  0
  5  4  1  0
  5  6  1  6
  7  8  2  0
 10 11  2  0
 10  9  1  0
 12 10  1  0
 13 12  1  6
 14  7  1  0
 14 13  1  0
 15 16  2  0
 15 13  1  0
 17 18  1  0
 18 20  1  0
 19 18  2  0
 20 21  1  0
 22 21  1  1
 22 23  1  0
 23 15  1  0
 24 22  1  0
 24 25  1  0
 26 24  2  0
M  END
$$$$
