NNQ.pdb
     RDKit          3D

 26 25  0  0  1  0  0  0  0  0999 V2000
    7.8130  -12.2538   17.2807 N   0  0  0  0  0  0  0  0  0  0  0  0
    8.0263  -13.6607   17.2599 C   0  0  0  0  0  0  0  0  0  0  0  0
    8.5713  -14.1729   16.2590 O   0  0  0  0  0  0  0  0  0  0  0  0
    7.5921  -14.4454   18.4265 C   0  0  0  0  0  0  0  0  0  0  0  0
    8.7467  -14.6130   19.3679 C   0  0  2  0  0  0  0  0  0  0  0  0
    9.8650  -15.2459   18.7382 N   0  0  0  0  0  0  0  0  0  0  0  0
    8.3643  -15.4088   20.5800 C   0  0  0  0  0  0  0  0  0  0  0  0
    7.3132  -15.0820   21.2246 O   0  0  0  0  0  0  0  0  0  0  0  0
    7.8576  -19.2096   20.5835 N   0  0  0  0  0  0  0  0  0  0  0  0
    9.0229  -19.4873   21.3113 C   0  0  0  0  0  0  0  0  0  0  0  0
    9.5893  -20.6174   21.1779 O   0  0  0  0  0  0  0  0  0  0  0  0
    9.6259  -18.5200   22.2267 C   0  0  0  0  0  0  0  0  0  0  0  0
    8.8519  -17.2371   22.2365 C   0  0  2  0  0  0  0  0  0  0  0  0
    9.1555  -16.5018   21.0000 N   0  0  0  0  0  0  0  0  0  0  0  0
    9.3048  -16.3149   23.3310 C   0  0  0  0  0  0  0  0  0  0  0  0
   10.4179  -15.7828   23.2661 O   0  0  0  0  0  0  0  0  0  0  0  0
    5.4379  -12.5527   25.9857 N   0  0  0  0  0  0  0  0  0  0  0  0
    6.5917  -12.2115   26.7089 C   0  0  0  0  0  0  0  0  0  0  0  0
    6.5921  -11.2337   27.4922 O   0  0  0  0  0  0  0  0  0  0  0  0
    7.8365  -13.0128   26.5527 C   0  0  0  0  0  0  0  0  0  0  0  0
    7.6387  -14.0878   25.5433 C   0  0  0  0  0  0  0  0  0  0  0  0
    8.8745  -14.9275   25.3500 C   0  0  2  0  0  0  0  0  0  0  0  0
    8.4759  -16.0340   24.4559 N   0  0  0  0  0  0  0  0  0  0  0  0
    9.2753  -15.5048   26.6493 C   0  0  0  0  0  0  0  0  0  0  0  0
    9.0544  -16.8884   26.8296 O   0  0  0  0  0  0  0  0  0  0  0  0
    9.7916  -14.8267   27.5724 O   0  0  0  0  0  0  0  0  0  0  0  0
  2  1  1  0
  2  3  2  0
  4  2  1  0
  5  7  1  0
  5  4  1  0
  5  6  1  6
  7  8  2  0
 10 11  2  0
 10  9  1  0
 12 10  1  0
 13 12  1  6
 14  7  1  0
 14 13  1  0
 15 16  2  0
 15 13  1  0
 17 18  1  0
 18 20  1  0
 19 18  2  0
 20 21  1  0
 22 21  1  1
 22 23  1  0
 23 15  1  0
 24 22  1  0
 24 25  1  0
 26 24  2  0
M  END
$$$$
