NNQ.pdb
     RDKit          3D

 26 25  0  0  1  0  0  0  0  0999 V2000
    7.9223  -20.6894   14.2568 N   0  0  0  0  0  0  0  0  0  0  0  0
    7.7994  -19.8620   15.4081 C   0  0  0  0  0  0  0  0  0  0  0  0
    8.7003  -19.0312   15.6521 O   0  0  0  0  0  0  0  0  0  0  0  0
    6.6094  -20.0277   16.2576 C   0  0  0  0  0  0  0  0  0  0  0  0
    7.0100  -19.9167   17.6979 C   0  0  2  0  0  0  0  0  0  0  0  0
    8.4281  -19.8053   17.8534 N   0  0  0  0  0  0  0  0  0  0  0  0
    6.5296  -21.0891   18.5001 C   0  0  0  0  0  0  0  0  0  0  0  0
    5.3067  -21.4396   18.4065 O   0  0  0  0  0  0  0  0  0  0  0  0
    5.6979  -24.1675   16.2512 N   0  0  0  0  0  0  0  0  0  0  0  0
    6.0951  -24.2111   17.5946 C   0  0  0  0  0  0  0  0  0  0  0  0
    5.2739  -24.6146   18.4769 O   0  0  0  0  0  0  0  0  0  0  0  0
    7.4317  -23.8111   18.0315 C   0  0  0  0  0  0  0  0  0  0  0  0
    7.3976  -23.2608   19.4246 C   0  0  2  0  0  0  0  0  0  0  0  0
    7.4172  -21.7928   19.3451 N   0  0  0  0  0  0  0  0  0  0  0  0
    8.6399  -23.6020   20.1951 C   0  0  0  0  0  0  0  0  0  0  0  0
    8.9993  -24.7800   20.2930 O   0  0  0  0  0  0  0  0  0  0  0  0
   10.9230  -18.4122   22.6899 N   0  0  0  0  0  0  0  0  0  0  0  0
   11.5829  -19.3576   21.8890 C   0  0  0  0  0  0  0  0  0  0  0  0
   12.7925  -19.2164   21.5945 O   0  0  0  0  0  0  0  0  0  0  0  0
   10.8485  -20.5469   21.3769 C   0  0  0  0  0  0  0  0  0  0  0  0
   11.2068  -21.7571   22.1649 C   0  0  0  0  0  0  0  0  0  0  0  0
   10.6205  -23.0160   21.5809 C   0  0  2  0  0  0  0  0  0  0  0  0
    9.4245  -22.5921   20.8242 N   0  0  0  0  0  0  0  0  0  0  0  0
   10.1825  -23.9008   22.6797 C   0  0  0  0  0  0  0  0  0  0  0  0
   10.7808  -25.1787   22.7489 O   0  0  0  0  0  0  0  0  0  0  0  0
    9.3212  -23.5647   23.5305 O   0  0  0  0  0  0  0  0  0  0  0  0
  2  1  1  0
  2  3  2  0
  4  2  1  0
  5  7  1  0
  5  4  1  0
  5  6  1  6
  7  8  2  0
 10 11  2  0
 10  9  1  0
 12 10  1  0
 13 12  1  6
 14  7  1  0
 14 13  1  0
 15 16  2  0
 15 13  1  0
 17 18  1  0
 18 20  1  0
 19 18  2  0
 20 21  1  0
 22 21  1  1
 22 23  1  0
 23 15  1  0
 24 22  1  0
 24 25  1  0
 26 24  2  0
M  END
$$$$
