MQI.pdb
     RDKit          3D

 26 25  0  0  1  0  0  0  0  0999 V2000
    8.4284  -11.5192   20.9403 C   0  0  0  0  0  0  0  0  0  0  0  0
    7.3485  -12.0997   19.5899 S   0  0  0  0  0  0  0  0  0  0  0  0
    7.4712  -13.9058   19.4120 C   0  0  0  0  0  0  0  0  0  0  0  0
    7.6814  -14.4748   20.7966 C   0  0  0  0  0  0  0  0  0  0  0  0
    7.7503  -16.0024   20.7547 C   0  0  2  0  0  0  0  0  0  0  0  0
    6.4234  -16.4480   20.3809 N   0  0  0  0  0  0  0  0  0  0  0  0
    8.0760  -16.4393   22.1361 C   0  0  0  0  0  0  0  0  0  0  0  0
    7.1795  -16.3791   23.0134 O   0  0  0  0  0  0  0  0  0  0  0  0
   11.2523  -20.7735   24.1747 N   0  0  0  0  0  0  0  0  0  0  0  0
   11.4590  -20.0140   25.3585 C   0  0  0  0  0  0  0  0  0  0  0  0
   11.7715  -20.6277   26.4046 O   0  0  0  0  0  0  0  0  0  0  0  0
   11.2940  -18.5545   25.2849 C   0  0  0  0  0  0  0  0  0  0  0  0
   10.9360  -18.1551   23.8566 C   0  0  0  0  0  0  0  0  0  0  0  0
    9.6894  -17.2696   23.8594 C   0  0  2  0  0  0  0  0  0  0  0  0
    9.3607  -16.9225   22.5031 N   0  0  0  0  0  0  0  0  0  0  0  0
    9.9112  -16.0950   24.7198 C   0  0  0  0  0  0  0  0  0  0  0  0
   10.6820  -15.1837   24.3062 O   0  0  0  0  0  0  0  0  0  0  0  0
    6.3223  -12.8434   26.3546 C   0  0  0  0  0  0  0  0  0  0  0  0
    7.6556  -13.4396   25.9967 C   0  0  0  0  0  0  0  0  0  0  0  0
    8.4443  -13.9283   27.1565 C   0  0  2  0  0  0  0  0  0  0  0  0
    8.8521  -12.7914   28.0896 C   0  0  0  0  0  0  0  0  0  0  0  0
    9.6179  -14.7839   26.8677 C   0  0  2  0  0  0  0  0  0  0  0  0
    9.3194  -15.9051   25.9928 N   0  0  0  0  0  0  0  0  0  0  0  0
   10.3303  -15.2382   28.0651 C   0  0  0  0  0  0  0  0  0  0  0  0
   10.8708  -14.4168   28.8294 O   0  0  0  0  0  0  0  0  0  0  0  0
   10.4087  -16.5841   28.3538 O   0  0  0  0  0  0  0  0  0  0  0  0
  2  1  1  0
  3  2  1  0
  4  5  1  0
  4  3  1  0
  5  7  1  0
  5  6  1  1
  7  8  2  0
 10 12  1  0
 10  9  1  0
 11 10  2  0
 13 12  1  0
 14 13  1  6
 15 14  1  0
 15  7  1  0
 16 14  1  0
 16 17  2  0
 19 18  1  0
 19 20  1  0
 20 22  1  0
 20 21  1  6
 22 23  1  1
 22 24  1  0
 23 16  1  0
 24 25  2  0
 24 26  1  0
M  END
$$$$
