MQI.pdb
     RDKit          3D

 26 25  0  0  1  0  0  0  0  0999 V2000
    7.2595  -12.0122   18.8023 C   0  0  0  0  0  0  0  0  0  0  0  0
    8.7151  -12.9726   19.3366 S   0  0  0  0  0  0  0  0  0  0  0  0
    8.3172  -13.9580   20.8129 C   0  0  0  0  0  0  0  0  0  0  0  0
    7.1252  -14.8193   20.4635 C   0  0  0  0  0  0  0  0  0  0  0  0
    7.4637  -16.3043   20.6062 C   0  0  2  0  0  0  0  0  0  0  0  0
    6.2592  -17.0214   20.2407 N   0  0  0  0  0  0  0  0  0  0  0  0
    7.7823  -16.5194   22.0406 C   0  0  0  0  0  0  0  0  0  0  0  0
    6.9063  -16.2489   22.8987 O   0  0  0  0  0  0  0  0  0  0  0  0
   11.6875  -20.6498   24.3098 N   0  0  0  0  0  0  0  0  0  0  0  0
   11.4441  -19.9197   25.5051 C   0  0  0  0  0  0  0  0  0  0  0  0
   11.7810  -20.4416   26.5926 O   0  0  0  0  0  0  0  0  0  0  0  0
   10.8119  -18.5966   25.3941 C   0  0  0  0  0  0  0  0  0  0  0  0
   10.4533  -18.3255   23.9361 C   0  0  0  0  0  0  0  0  0  0  0  0
    9.3011  -17.3232   23.8599 C   0  0  2  0  0  0  0  0  0  0  0  0
    9.0380  -17.0190   22.4791 N   0  0  0  0  0  0  0  0  0  0  0  0
    9.6197  -16.1314   24.6644 C   0  0  0  0  0  0  0  0  0  0  0  0
   10.5195  -15.3483   24.2485 O   0  0  0  0  0  0  0  0  0  0  0  0
    6.2634  -12.4119   26.2435 C   0  0  0  0  0  0  0  0  0  0  0  0
    7.4942  -13.1882   25.8645 C   0  0  0  0  0  0  0  0  0  0  0  0
    8.2564  -13.7369   27.0153 C   0  0  2  0  0  0  0  0  0  0  0  0
    8.7369  -12.6373   27.9583 C   0  0  0  0  0  0  0  0  0  0  0  0
    9.3741  -14.6594   26.7117 C   0  0  2  0  0  0  0  0  0  0  0  0
    8.9871  -15.7903   25.8851 N   0  0  0  0  0  0  0  0  0  0  0  0
   10.1082  -15.1126   27.8964 C   0  0  0  0  0  0  0  0  0  0  0  0
    9.8551  -16.2171   28.4132 O   0  0  0  0  0  0  0  0  0  0  0  0
   11.0870  -14.3150   28.4500 O   0  0  0  0  0  0  0  0  0  0  0  0
  2  1  1  0
  3  2  1  0
  4  5  1  0
  4  3  1  0
  5  7  1  0
  5  6  1  1
  7  8  2  0
 10 12  1  0
 10  9  1  0
 11 10  2  0
 13 12  1  0
 14 13  1  6
 15 14  1  0
 15  7  1  0
 16 14  1  0
 16 17  2  0
 19 18  1  0
 19 20  1  0
 20 22  1  0
 20 21  1  6
 22 23  1  1
 22 24  1  0
 23 16  1  0
 24 25  2  0
 24 26  1  0
M  END
$$$$
