MQI.pdb
     RDKit          3D

 26 25  0  0  1  0  0  0  0  0999 V2000
    8.6525  -11.3997   20.5436 C   0  0  0  0  0  0  0  0  0  0  0  0
    7.5102  -12.0793   19.2945 S   0  0  0  0  0  0  0  0  0  0  0  0
    7.7887  -13.8646   19.0857 C   0  0  0  0  0  0  0  0  0  0  0  0
    7.7574  -14.4829   20.4647 C   0  0  0  0  0  0  0  0  0  0  0  0
    8.1348  -15.9643   20.4079 C   0  0  2  0  0  0  0  0  0  0  0  0
    7.0435  -16.6243   19.7207 N   0  0  0  0  0  0  0  0  0  0  0  0
    8.2162  -16.4243   21.8175 C   0  0  0  0  0  0  0  0  0  0  0  0
    7.1558  -16.5102   22.4846 O   0  0  0  0  0  0  0  0  0  0  0  0
   12.3559  -20.1705   24.4109 N   0  0  0  0  0  0  0  0  0  0  0  0
   11.4613  -20.3619   23.3228 C   0  0  0  0  0  0  0  0  0  0  0  0
   11.6325  -21.3622   22.5889 O   0  0  0  0  0  0  0  0  0  0  0  0
   10.3891  -19.3753   23.1235 C   0  0  0  0  0  0  0  0  0  0  0  0
   10.6463  -18.1596   24.0088 C   0  0  0  0  0  0  0  0  0  0  0  0
    9.5247  -17.1362   23.8284 C   0  0  2  0  0  0  0  0  0  0  0  0
    9.4456  -16.7706   22.4397 N   0  0  0  0  0  0  0  0  0  0  0  0
    9.7496  -15.9842   24.7180 C   0  0  0  0  0  0  0  0  0  0  0  0
   10.6184  -15.1292   24.3865 O   0  0  0  0  0  0  0  0  0  0  0  0
    6.4066  -12.3208   26.1176 C   0  0  0  0  0  0  0  0  0  0  0  0
    7.6583  -13.1125   25.8574 C   0  0  0  0  0  0  0  0  0  0  0  0
    8.2598  -13.7309   27.0665 C   0  0  2  0  0  0  0  0  0  0  0  0
    8.6604  -12.6853   28.1035 C   0  0  0  0  0  0  0  0  0  0  0  0
    9.3748  -14.6829   26.8591 C   0  0  2  0  0  0  0  0  0  0  0  0
    9.0582  -15.7574   25.9334 N   0  0  0  0  0  0  0  0  0  0  0  0
    9.9355  -15.2202   28.1021 C   0  0  0  0  0  0  0  0  0  0  0  0
    9.6540  -16.3743   28.4759 O   0  0  0  0  0  0  0  0  0  0  0  0
   10.7806  -14.4475   28.8699 O   0  0  0  0  0  0  0  0  0  0  0  0
  2  1  1  0
  3  2  1  0
  4  5  1  0
  4  3  1  0
  5  7  1  0
  5  6  1  6
  7  8  2  0
 10 12  1  0
 10  9  1  0
 11 10  2  0
 13 12  1  0
 14 13  1  6
 15 14  1  0
 15  7  1  0
 16 14  1  0
 16 17  2  0
 19 18  1  0
 19 20  1  0
 20 22  1  0
 20 21  1  1
 22 23  1  6
 22 24  1  0
 23 16  1  0
 24 25  2  0
 24 26  1  0
M  END
$$$$
