MQI.pdb
     RDKit          3D

 26 25  0  0  1  0  0  0  0  0999 V2000
    8.0139  -11.7249   20.0546 C   0  0  0  0  0  0  0  0  0  0  0  0
    7.7780  -13.2210   19.0384 S   0  0  0  0  0  0  0  0  0  0  0  0
    6.4818  -14.2765   19.7557 C   0  0  0  0  0  0  0  0  0  0  0  0
    6.8503  -15.7081   19.4401 C   0  0  0  0  0  0  0  0  0  0  0  0
    8.0048  -16.1827   20.3245 C   0  0  2  0  0  0  0  0  0  0  0  0
    8.2905  -17.5403   19.9073 N   0  0  0  0  0  0  0  0  0  0  0  0
    7.4926  -16.1635   21.7182 C   0  0  0  0  0  0  0  0  0  0  0  0
    7.1137  -15.0698   22.2051 O   0  0  0  0  0  0  0  0  0  0  0  0
    7.0008  -21.1161   25.5901 N   0  0  0  0  0  0  0  0  0  0  0  0
    6.7564  -20.0489   26.4970 C   0  0  0  0  0  0  0  0  0  0  0  0
    6.5549  -20.3331   27.7000 O   0  0  0  0  0  0  0  0  0  0  0  0
    6.7545  -18.6761   25.9695 C   0  0  0  0  0  0  0  0  0  0  0  0
    7.0310  -18.7078   24.4694 C   0  0  0  0  0  0  0  0  0  0  0  0
    7.0621  -17.2834   23.9144 C   0  0  2  0  0  0  0  0  0  0  0  0
    7.4144  -17.3332   22.5209 N   0  0  0  0  0  0  0  0  0  0  0  0
    7.9798  -16.4541   24.7139 C   0  0  0  0  0  0  0  0  0  0  0  0
    9.2228  -16.5852   24.5307 O   0  0  0  0  0  0  0  0  0  0  0  0
    6.1897  -11.5233   26.2443 C   0  0  0  0  0  0  0  0  0  0  0  0
    7.1435  -12.5620   25.7221 C   0  0  0  0  0  0  0  0  0  0  0  0
    7.8601  -13.3265   26.7748 C   0  0  2  0  0  0  0  0  0  0  0  0
    8.8826  -12.4645   27.5104 C   0  0  0  0  0  0  0  0  0  0  0  0
    8.4813  -14.6105   26.3777 C   0  0  2  0  0  0  0  0  0  0  0  0
    7.5715  -15.5078   25.6858 N   0  0  0  0  0  0  0  0  0  0  0  0
    9.1587  -15.3067   27.4751 C   0  0  0  0  0  0  0  0  0  0  0  0
    8.6079  -16.2621   28.0537 O   0  0  0  0  0  0  0  0  0  0  0  0
   10.4151  -14.9058   27.8771 O   0  0  0  0  0  0  0  0  0  0  0  0
  2  1  1  0
  3  2  1  0
  4  5  1  0
  4  3  1  0
  5  7  1  0
  5  6  1  6
  7  8  2  0
 10 12  1  0
 10  9  1  0
 11 10  2  0
 13 12  1  0
 14 13  1  1
 15 14  1  0
 15  7  1  0
 16 14  1  0
 16 17  2  0
 19 18  1  0
 19 20  1  0
 20 22  1  0
 20 21  1  6
 22 23  1  1
 22 24  1  0
 23 16  1  0
 24 25  2  0
 24 26  1  0
M  END
$$$$
