MQI.pdb
     RDKit          3D

 26 25  0  0  1  0  0  0  0  0999 V2000
    8.3051  -12.3044   20.0910 C   0  0  0  0  0  0  0  0  0  0  0  0
    8.4792  -13.1047   18.4612 S   0  0  0  0  0  0  0  0  0  0  0  0
    8.2963  -14.9077   18.6177 C   0  0  0  0  0  0  0  0  0  0  0  0
    7.4275  -15.1621   19.8282 C   0  0  0  0  0  0  0  0  0  0  0  0
    7.3005  -16.6614   20.1039 C   0  0  2  0  0  0  0  0  0  0  0  0
    6.3102  -17.1532   19.1678 N   0  0  0  0  0  0  0  0  0  0  0  0
    6.8047  -16.7846   21.4983 C   0  0  0  0  0  0  0  0  0  0  0  0
    5.6230  -17.1659   21.6853 O   0  0  0  0  0  0  0  0  0  0  0  0
    8.0188  -21.1229   25.6438 N   0  0  0  0  0  0  0  0  0  0  0  0
    6.8359  -20.3558   25.4615 C   0  0  0  0  0  0  0  0  0  0  0  0
    5.7513  -20.9683   25.3308 O   0  0  0  0  0  0  0  0  0  0  0  0
    6.9555  -18.8902   25.4374 C   0  0  0  0  0  0  0  0  0  0  0  0
    7.1365  -18.4189   23.9977 C   0  0  0  0  0  0  0  0  0  0  0  0
    7.2510  -16.8947   23.9582 C   0  0  2  0  0  0  0  0  0  0  0  0
    7.6147  -16.4884   22.6274 N   0  0  0  0  0  0  0  0  0  0  0  0
    8.2040  -16.4370   24.9836 C   0  0  0  0  0  0  0  0  0  0  0  0
    9.4094  -16.8029   24.8901 O   0  0  0  0  0  0  0  0  0  0  0  0
    6.1842  -12.0841   27.1204 C   0  0  0  0  0  0  0  0  0  0  0  0
    7.4088  -12.6776   26.4805 C   0  0  0  0  0  0  0  0  0  0  0  0
    8.2120  -13.5490   27.3758 C   0  0  2  0  0  0  0  0  0  0  0  0
    9.2725  -12.7604   28.1394 C   0  0  0  0  0  0  0  0  0  0  0  0
    8.8218  -14.7587   26.7780 C   0  0  2  0  0  0  0  0  0  0  0  0
    7.8693  -15.6071   26.0818 N   0  0  0  0  0  0  0  0  0  0  0  0
    9.6239  -15.5459   27.7187 C   0  0  0  0  0  0  0  0  0  0  0  0
   10.7669  -15.1722   28.0422 O   0  0  0  0  0  0  0  0  0  0  0  0
    9.1166  -16.7114   28.2527 O   0  0  0  0  0  0  0  0  0  0  0  0
  2  1  1  0
  3  2  1  0
  4  5  1  0
  4  3  1  0
  5  7  1  0
  5  6  1  6
  7  8  2  0
 10 12  1  0
 10  9  1  0
 11 10  2  0
 13 12  1  0
 14 13  1  6
 15 14  1  0
 15  7  1  0
 16 14  1  0
 16 17  2  0
 19 18  1  0
 19 20  1  0
 20 22  1  0
 20 21  1  6
 22 23  1  1
 22 24  1  0
 23 16  1  0
 24 25  2  0
 24 26  1  0
M  END
$$$$
