MQI.pdb
     RDKit          3D

 26 25  0  0  1  0  0  0  0  0999 V2000
    8.2080  -11.7817   20.5266 C   0  0  0  0  0  0  0  0  0  0  0  0
    8.0778  -12.3761   18.8071 S   0  0  0  0  0  0  0  0  0  0  0  0
    8.3041  -14.1798   18.7412 C   0  0  0  0  0  0  0  0  0  0  0  0
    8.3092  -14.6787   20.1681 C   0  0  0  0  0  0  0  0  0  0  0  0
    8.5343  -16.1910   20.2171 C   0  0  2  0  0  0  0  0  0  0  0  0
    7.3840  -16.7834   19.5653 N   0  0  0  0  0  0  0  0  0  0  0  0
    8.5634  -16.5580   21.6558 C   0  0  0  0  0  0  0  0  0  0  0  0
    7.4739  -16.6749   22.2691 O   0  0  0  0  0  0  0  0  0  0  0  0
   13.1492  -19.2066   26.3612 N   0  0  0  0  0  0  0  0  0  0  0  0
   12.0174  -19.6233   25.6088 C   0  0  0  0  0  0  0  0  0  0  0  0
   12.0111  -20.7893   25.1517 O   0  0  0  0  0  0  0  0  0  0  0  0
   10.9221  -18.6618   25.4118 C   0  0  0  0  0  0  0  0  0  0  0  0
   10.9004  -18.2077   23.9554 C   0  0  0  0  0  0  0  0  0  0  0  0
    9.7910  -17.1764   23.7470 C   0  0  2  0  0  0  0  0  0  0  0  0
    9.7745  -16.7819   22.3641 N   0  0  0  0  0  0  0  0  0  0  0  0
    9.9798  -16.0439   24.6695 C   0  0  0  0  0  0  0  0  0  0  0  0
   10.8843  -15.2012   24.4096 O   0  0  0  0  0  0  0  0  0  0  0  0
    5.9330  -13.0518   26.3504 C   0  0  0  0  0  0  0  0  0  0  0  0
    7.2793  -13.5809   25.9394 C   0  0  0  0  0  0  0  0  0  0  0  0
    8.1568  -13.9796   27.0695 C   0  0  2  0  0  0  0  0  0  0  0  0
    8.4633  -12.8061   27.9961 C   0  0  0  0  0  0  0  0  0  0  0  0
    9.4098  -14.6949   26.7367 C   0  0  2  0  0  0  0  0  0  0  0  0
    9.2158  -15.8232   25.8417 N   0  0  0  0  0  0  0  0  0  0  0  0
   10.1947  -15.0938   27.9084 C   0  0  0  0  0  0  0  0  0  0  0  0
   10.1698  -16.2705   28.3156 O   0  0  0  0  0  0  0  0  0  0  0  0
   10.9679  -14.1647   28.5714 O   0  0  0  0  0  0  0  0  0  0  0  0
  2  1  1  0
  3  2  1  0
  4  5  1  0
  4  3  1  0
  5  7  1  0
  5  6  1  6
  7  8  2  0
 10 12  1  0
 10  9  1  0
 11 10  2  0
 13 12  1  0
 14 13  1  6
 15 14  1  0
 15  7  1  0
 16 14  1  0
 16 17  2  0
 19 18  1  0
 19 20  1  0
 20 22  1  0
 20 21  1  6
 22 23  1  1
 22 24  1  0
 23 16  1  0
 24 25  2  0
 24 26  1  0
M  END
$$$$
