MQI.pdb
     RDKit          3D

 26 25  0  0  1  0  0  0  0  0999 V2000
    8.0073  -12.2184   19.8415 C   0  0  0  0  0  0  0  0  0  0  0  0
    8.4910  -13.3201   18.4707 S   0  0  0  0  0  0  0  0  0  0  0  0
    7.4593  -14.8182   18.4673 C   0  0  0  0  0  0  0  0  0  0  0  0
    6.9549  -15.0128   19.8789 C   0  0  0  0  0  0  0  0  0  0  0  0
    7.2469  -16.4309   20.3727 C   0  0  2  0  0  0  0  0  0  0  0  0
    6.3575  -17.2996   19.6290 N   0  0  0  0  0  0  0  0  0  0  0  0
    6.9009  -16.4451   21.8167 C   0  0  0  0  0  0  0  0  0  0  0  0
    6.0812  -15.5968   22.2474 O   0  0  0  0  0  0  0  0  0  0  0  0
    7.6524  -21.0920   25.9102 N   0  0  0  0  0  0  0  0  0  0  0  0
    7.2442  -20.0489   26.7855 C   0  0  0  0  0  0  0  0  0  0  0  0
    7.0062  -20.3419   27.9797 O   0  0  0  0  0  0  0  0  0  0  0  0
    7.1255  -18.6893   26.2377 C   0  0  0  0  0  0  0  0  0  0  0  0
    7.3880  -18.7223   24.7351 C   0  0  0  0  0  0  0  0  0  0  0  0
    7.1915  -17.3273   24.1404 C   0  0  2  0  0  0  0  0  0  0  0  0
    7.4604  -17.3800   22.7286 N   0  0  0  0  0  0  0  0  0  0  0  0
    8.0362  -16.3548   24.8544 C   0  0  0  0  0  0  0  0  0  0  0  0
    9.2392  -16.2234   24.4923 O   0  0  0  0  0  0  0  0  0  0  0  0
    5.8873  -11.6873   26.6528 C   0  0  0  0  0  0  0  0  0  0  0  0
    6.9018  -12.6318   26.0698 C   0  0  0  0  0  0  0  0  0  0  0  0
    7.7026  -13.3751   27.0759 C   0  0  2  0  0  0  0  0  0  0  0  0
    8.6473  -12.4563   27.8458 C   0  0  0  0  0  0  0  0  0  0  0  0
    8.4390  -14.5717   26.6084 C   0  0  2  0  0  0  0  0  0  0  0  0
    7.5985  -15.5443   25.9306 N   0  0  0  0  0  0  0  0  0  0  0  0
    9.2417  -15.2191   27.6498 C   0  0  0  0  0  0  0  0  0  0  0  0
    8.8589  -16.2817   28.1744 O   0  0  0  0  0  0  0  0  0  0  0  0
   10.4303  -14.6526   28.0586 O   0  0  0  0  0  0  0  0  0  0  0  0
  2  1  1  0
  3  2  1  0
  4  5  1  0
  4  3  1  0
  5  7  1  0
  5  6  1  6
  7  8  2  0
 10 12  1  0
 10  9  1  0
 11 10  2  0
 13 12  1  0
 14 13  1  1
 15 14  1  0
 15  7  1  0
 16 14  1  0
 16 17  2  0
 19 18  1  0
 19 20  1  0
 20 22  1  0
 20 21  1  6
 22 23  1  1
 22 24  1  0
 23 16  1  0
 24 25  2  0
 24 26  1  0
M  END
$$$$
