MQI.pdb
     RDKit          3D

 26 25  0  0  1  0  0  0  0  0999 V2000
    8.6106  -11.4694   19.9003 C   0  0  0  0  0  0  0  0  0  0  0  0
    7.7995  -12.0934   18.3905 S   0  0  0  0  0  0  0  0  0  0  0  0
    8.1795  -13.8558   18.1490 C   0  0  0  0  0  0  0  0  0  0  0  0
    7.9154  -14.5509   19.4650 C   0  0  0  0  0  0  0  0  0  0  0  0
    8.3271  -16.0227   19.3975 C   0  0  2  0  0  0  0  0  0  0  0  0
    7.3063  -16.6832   18.6098 N   0  0  0  0  0  0  0  0  0  0  0  0
    8.3090  -16.5214   20.7962 C   0  0  0  0  0  0  0  0  0  0  0  0
    7.2003  -16.7587   21.3361 O   0  0  0  0  0  0  0  0  0  0  0  0
   12.7840  -19.3904   25.4733 N   0  0  0  0  0  0  0  0  0  0  0  0
   11.6051  -19.7229   24.7519 C   0  0  0  0  0  0  0  0  0  0  0  0
   11.4993  -20.8866   24.3010 O   0  0  0  0  0  0  0  0  0  0  0  0
   10.5807  -18.6822   24.5779 C   0  0  0  0  0  0  0  0  0  0  0  0
   10.5912  -18.1956   23.1319 C   0  0  0  0  0  0  0  0  0  0  0  0
    9.4663  -17.1831   22.9140 C   0  0  2  0  0  0  0  0  0  0  0  0
    9.4957  -16.7403   21.5461 N   0  0  0  0  0  0  0  0  0  0  0  0
    9.5904  -16.0801   23.8821 C   0  0  0  0  0  0  0  0  0  0  0  0
   10.5495  -15.2688   23.7493 O   0  0  0  0  0  0  0  0  0  0  0  0
    6.7660  -11.6851   26.8443 C   0  0  0  0  0  0  0  0  0  0  0  0
    7.9752  -12.5758   26.7671 C   0  0  0  0  0  0  0  0  0  0  0  0
    7.8040  -13.7755   25.9083 C   0  0  2  0  0  0  0  0  0  0  0  0
    6.4484  -14.4431   26.1235 C   0  0  0  0  0  0  0  0  0  0  0  0
    8.8760  -14.7962   25.9459 C   0  0  2  0  0  0  0  0  0  0  0  0
    8.7060  -15.8553   24.9655 N   0  0  0  0  0  0  0  0  0  0  0  0
    9.1135  -15.3588   27.2783 C   0  0  0  0  0  0  0  0  0  0  0  0
    8.7919  -16.5342   27.5350 O   0  0  0  0  0  0  0  0  0  0  0  0
    9.6955  -14.5866   28.2609 O   0  0  0  0  0  0  0  0  0  0  0  0
  2  1  1  0
  3  2  1  0
  4  5  1  0
  4  3  1  0
  5  7  1  0
  5  6  1  6
  7  8  2  0
 10 12  1  0
 10  9  1  0
 11 10  2  0
 13 12  1  0
 14 13  1  6
 15 14  1  0
 15  7  1  0
 16 14  1  0
 16 17  2  0
 19 18  1  0
 19 20  1  0
 20 22  1  0
 20 21  1  1
 22 23  1  6
 22 24  1  0
 23 16  1  0
 24 25  2  0
 24 26  1  0
M  END
$$$$
