MQI.pdb
     RDKit          3D

 26 25  0  0  1  0  0  0  0  0999 V2000
    7.6187  -12.0415   17.9643 C   0  0  0  0  0  0  0  0  0  0  0  0
    7.7536  -12.3555   19.7560 S   0  0  0  0  0  0  0  0  0  0  0  0
    8.5568  -13.9591   20.0596 C   0  0  0  0  0  0  0  0  0  0  0  0
    7.9357  -14.9540   19.1061 C   0  0  0  0  0  0  0  0  0  0  0  0
    8.5727  -16.3356   19.2669 C   0  0  2  0  0  0  0  0  0  0  0  0
    7.8415  -17.2142   18.3769 N   0  0  0  0  0  0  0  0  0  0  0  0
    8.3540  -16.7292   20.6820 C   0  0  0  0  0  0  0  0  0  0  0  0
    7.2165  -17.1361   21.0245 O   0  0  0  0  0  0  0  0  0  0  0  0
   12.0372  -19.8672   24.1589 N   0  0  0  0  0  0  0  0  0  0  0  0
   12.4572  -18.9278   23.1782 C   0  0  0  0  0  0  0  0  0  0  0  0
   13.6446  -18.9799   22.7833 O   0  0  0  0  0  0  0  0  0  0  0  0
   11.4738  -17.9514   22.6858 C   0  0  0  0  0  0  0  0  0  0  0  0
   10.1352  -18.1844   23.3797 C   0  0  0  0  0  0  0  0  0  0  0  0
    9.1621  -17.0588   23.0274 C   0  0  2  0  0  0  0  0  0  0  0  0
    9.3806  -16.6635   21.6621 N   0  0  0  0  0  0  0  0  0  0  0  0
    9.3136  -15.9481   23.9827 C   0  0  0  0  0  0  0  0  0  0  0  0
   10.1893  -15.0684   23.7479 O   0  0  0  0  0  0  0  0  0  0  0  0
    6.3369  -11.5765   26.5839 C   0  0  0  0  0  0  0  0  0  0  0  0
    7.4997  -12.5051   26.8005 C   0  0  0  0  0  0  0  0  0  0  0  0
    7.4547  -13.7495   25.9909 C   0  0  2  0  0  0  0  0  0  0  0  0
    6.1905  -14.5610   26.2609 C   0  0  0  0  0  0  0  0  0  0  0  0
    8.6392  -14.6365   26.0426 C   0  0  2  0  0  0  0  0  0  0  0  0
    8.5433  -15.7875   25.1607 N   0  0  0  0  0  0  0  0  0  0  0  0
    9.0098  -15.0535   27.3979 C   0  0  0  0  0  0  0  0  0  0  0  0
    8.9182  -16.2476   27.7395 O   0  0  0  0  0  0  0  0  0  0  0  0
    9.4628  -14.1222   28.3080 O   0  0  0  0  0  0  0  0  0  0  0  0
  2  1  1  0
  3  2  1  0
  4  5  1  0
  4  3  1  0
  5  7  1  0
  5  6  1  6
  7  8  2  0
 10 12  1  0
 10  9  1  0
 11 10  2  0
 13 12  1  0
 14 13  1  1
 15 14  1  0
 15  7  1  0
 16 14  1  0
 16 17  2  0
 19 18  1  0
 19 20  1  0
 20 22  1  0
 20 21  1  1
 22 23  1  6
 22 24  1  0
 23 16  1  0
 24 25  2  0
 24 26  1  0
M  END
$$$$
