MQI.pdb
     RDKit          3D

 26 25  0  0  1  0  0  0  0  0999 V2000
    8.6236  -11.2867   18.6071 C   0  0  0  0  0  0  0  0  0  0  0  0
    7.6366  -12.4958   19.5509 S   0  0  0  0  0  0  0  0  0  0  0  0
    8.3950  -14.1463   19.4542 C   0  0  0  0  0  0  0  0  0  0  0  0
    7.5206  -15.0840   20.2550 C   0  0  0  0  0  0  0  0  0  0  0  0
    8.1230  -16.4895   20.2981 C   0  0  2  0  0  0  0  0  0  0  0  0
    7.3220  -17.2910   19.3955 N   0  0  0  0  0  0  0  0  0  0  0  0
    7.9641  -16.9644   21.6961 C   0  0  0  0  0  0  0  0  0  0  0  0
    7.2616  -17.9833   21.9093 O   0  0  0  0  0  0  0  0  0  0  0  0
   10.5375  -20.6463   23.1121 N   0  0  0  0  0  0  0  0  0  0  0  0
   10.7676  -20.2242   24.4499 C   0  0  0  0  0  0  0  0  0  0  0  0
   11.1056  -21.0892   25.2902 O   0  0  0  0  0  0  0  0  0  0  0  0
   10.5955  -18.7986   24.7676 C   0  0  0  0  0  0  0  0  0  0  0  0
   10.0614  -18.0656   23.5408 C   0  0  0  0  0  0  0  0  0  0  0  0
    9.0191  -17.0302   23.9644 C   0  0  2  0  0  0  0  0  0  0  0  0
    8.5752  -16.3118   22.8003 N   0  0  0  0  0  0  0  0  0  0  0  0
    9.5788  -16.1533   25.0069 C   0  0  0  0  0  0  0  0  0  0  0  0
   10.7438  -15.6929   24.8436 O   0  0  0  0  0  0  0  0  0  0  0  0
    6.5055  -12.3044   26.8954 C   0  0  0  0  0  0  0  0  0  0  0  0
    7.7037  -13.0945   26.4465 C   0  0  0  0  0  0  0  0  0  0  0  0
    8.4349  -13.7821   27.5414 C   0  0  2  0  0  0  0  0  0  0  0  0
    9.0816  -12.7918   28.5060 C   0  0  0  0  0  0  0  0  0  0  0  0
    9.4186  -14.8189   27.1545 C   0  0  2  0  0  0  0  0  0  0  0  0
    8.9033  -15.7811   26.1951 N   0  0  0  0  0  0  0  0  0  0  0  0
   10.0369  -15.5047   28.2927 C   0  0  0  0  0  0  0  0  0  0  0  0
    9.5819  -16.5899   28.7005 O   0  0  0  0  0  0  0  0  0  0  0  0
   11.1301  -14.9497   28.9233 O   0  0  0  0  0  0  0  0  0  0  0  0
  2  1  1  0
  3  2  1  0
  4  5  1  0
  4  3  1  0
  5  7  1  0
  5  6  1  6
  7  8  2  0
 10 12  1  0
 10  9  1  0
 11 10  2  0
 13 12  1  0
 14 13  1  6
 15 14  1  0
 15  7  1  0
 16 14  1  0
 16 17  2  0
 19 18  1  0
 19 20  1  0
 20 22  1  0
 20 21  1  6
 22 23  1  6
 22 24  1  0
 23 16  1  0
 24 25  2  0
 24 26  1  0
M  END
$$$$
