MQI.pdb
     RDKit          3D

 26 25  0  0  1  0  0  0  0  0999 V2000
    5.7065  -13.1474   26.1658 C   0  0  0  0  0  0  0  0  0  0  0  0
    5.5056  -14.6206   27.2224 S   0  0  0  0  0  0  0  0  0  0  0  0
    6.0538  -16.1134   26.3393 C   0  0  0  0  0  0  0  0  0  0  0  0
    5.2732  -16.1758   25.0464 C   0  0  0  0  0  0  0  0  0  0  0  0
    5.6889  -17.3910   24.2154 C   0  0  2  0  0  0  0  0  0  0  0  0
    5.6860  -18.5149   25.1296 N   0  0  0  0  0  0  0  0  0  0  0  0
    7.0671  -17.1128   23.7374 C   0  0  0  0  0  0  0  0  0  0  0  0
    7.9700  -17.9499   23.9840 O   0  0  0  0  0  0  0  0  0  0  0  0
    8.8034  -12.3659   19.9853 N   0  0  0  0  0  0  0  0  0  0  0  0
    9.9843  -13.1571   20.0018 C   0  0  0  0  0  0  0  0  0  0  0  0
   10.8907  -12.8790   19.1834 O   0  0  0  0  0  0  0  0  0  0  0  0
   10.0718  -14.2539   20.9776 C   0  0  0  0  0  0  0  0  0  0  0  0
    8.7246  -14.4237   21.6732 C   0  0  0  0  0  0  0  0  0  0  0  0
    8.7341  -15.6930   22.5259 C   0  0  2  0  0  0  0  0  0  0  0  0
    7.4031  -15.9380   23.0124 N   0  0  0  0  0  0  0  0  0  0  0  0
    9.7298  -15.5653   23.6035 C   0  0  0  0  0  0  0  0  0  0  0  0
   10.9435  -15.4171   23.2862 O   0  0  0  0  0  0  0  0  0  0  0  0
    8.8672  -12.3331   27.8167 C   0  0  0  0  0  0  0  0  0  0  0  0
    9.5395  -13.1185   26.7247 C   0  0  0  0  0  0  0  0  0  0  0  0
    9.9521  -14.4907   27.1158 C   0  0  2  0  0  0  0  0  0  0  0  0
   10.9738  -14.4783   28.2496 C   0  0  0  0  0  0  0  0  0  0  0  0
   10.4124  -15.3948   26.0373 C   0  0  2  0  0  0  0  0  0  0  0  0
    9.4282  -15.5963   24.9873 N   0  0  0  0  0  0  0  0  0  0  0  0
   10.9248  -16.6807   26.5190 C   0  0  0  0  0  0  0  0  0  0  0  0
   10.2787  -17.7289   26.3324 O   0  0  0  0  0  0  0  0  0  0  0  0
   12.1299  -16.7384   27.1862 O   0  0  0  0  0  0  0  0  0  0  0  0
  2  1  1  0
  3  2  1  0
  4  5  1  0
  4  3  1  0
  5  7  1  0
  5  6  1  1
  7  8  2  0
 10 12  1  0
 10  9  1  0
 11 10  2  0
 13 12  1  0
 14 13  1  1
 15 14  1  0
 15  7  1  0
 16 14  1  0
 16 17  2  0
 19 18  1  0
 19 20  1  0
 20 22  1  0
 20 21  1  1
 22 23  1  6
 22 24  1  0
 23 16  1  0
 24 25  2  0
 24 26  1  0
M  END
$$$$
