MNE.pdb
     RDKit          3D

 26 25  0  0  1  0  0  0  0  0999 V2000
    8.8542  -11.4746   26.4577 C   0  0  0  0  0  0  0  0  0  0  0  0
    7.7398  -12.4676   27.4944 S   0  0  0  0  0  0  0  0  0  0  0  0
    6.6695  -13.5362   26.4857 C   0  0  0  0  0  0  0  0  0  0  0  0
    7.4755  -14.2903   25.4530 C   0  0  0  0  0  0  0  0  0  0  0  0
    6.5948  -15.1460   24.5723 C   0  0  2  0  0  0  0  0  0  0  0  0
    5.9949  -16.1655   25.4103 N   0  0  0  0  0  0  0  0  0  0  0  0
    7.4335  -15.8256   23.5534 C   0  0  0  0  0  0  0  0  0  0  0  0
    7.5802  -17.0883   23.6258 O   0  0  0  0  0  0  0  0  0  0  0  0
    6.2573  -14.9262   20.2345 N   0  0  0  0  0  0  0  0  0  0  0  0
    7.4596  -14.4242   19.6805 C   0  0  0  0  0  0  0  0  0  0  0  0
    7.3912  -13.6182   18.7022 O   0  0  0  0  0  0  0  0  0  0  0  0
    8.7691  -14.8457   20.2535 C   0  0  0  0  0  0  0  0  0  0  0  0
    8.5959  -15.8084   21.3839 C   0  0  2  0  0  0  0  0  0  0  0  0
    8.0637  -15.0870   22.5134 N   0  0  0  0  0  0  0  0  0  0  0  0
    9.8448  -16.5420   21.7426 C   0  0  0  0  0  0  0  0  0  0  0  0
   10.1617  -17.6296   21.1960 O   0  0  0  0  0  0  0  0  0  0  0  0
   10.7399  -16.0412   22.7271 N   0  0  0  0  0  0  0  0  0  0  0  0
   11.9421  -16.8119   23.1352 C   0  0  1  0  0  0  0  0  0  0  0  0
   13.0933  -16.4526   22.2626 C   0  0  0  0  0  0  0  0  0  0  0  0
   12.9812  -15.0285   21.7860 C   0  0  0  0  0  0  0  0  0  0  0  0
   14.1568  -14.6633   20.9289 C   0  0  0  0  0  0  0  0  0  0  0  0
   14.2144  -13.5245   20.4456 O   0  0  0  0  0  0  0  0  0  0  0  0
   12.1296  -16.5646   24.5655 C   0  0  0  0  0  0  0  0  0  0  0  0
   13.1106  -17.1602   25.3263 O   0  0  0  0  0  0  0  0  0  0  0  0
   15.1375  -15.5984   20.7015 O   0  0  0  0  0  0  0  0  0  0  0  0
   11.3677  -15.7604   25.1996 O   0  0  0  0  0  0  0  0  0  0  0  0
  1  2  1  0
  2  3  1  0
  3  4  1  0
  4  5  1  0
  5  7  1  0
  5  6  1  1
  7 14  1  0
  7  8  2  0
  9 10  1  0
 10 11  2  0
 12 10  1  0
 13 12  1  6
 14 13  1  0
 15 16  2  0
 15 13  1  0
 17 15  1  0
 18 17  1  0
 18 19  1  6
 20 21  1  0
 20 19  1  0
 21 25  1  0
 22 21  2  0
 23 18  1  0
 24 23  1  0
 26 23  2  0
M  END
$$$$
