MNE.pdb
     RDKit          3D

 26 25  0  0  1  0  0  0  0  0999 V2000
    8.0991  -12.1200   27.7613 C   0  0  0  0  0  0  0  0  0  0  0  0
    6.7221  -11.6842   26.6583 S   0  0  0  0  0  0  0  0  0  0  0  0
    6.0206  -13.1574   25.8567 C   0  0  0  0  0  0  0  0  0  0  0  0
    7.1051  -13.9953   25.2190 C   0  0  0  0  0  0  0  0  0  0  0  0
    6.5370  -15.2133   24.5281 C   0  0  2  0  0  0  0  0  0  0  0  0
    5.9489  -16.0608   25.5464 N   0  0  0  0  0  0  0  0  0  0  0  0
    7.6396  -15.9695   23.8832 C   0  0  0  0  0  0  0  0  0  0  0  0
    8.1221  -16.9810   24.4875 O   0  0  0  0  0  0  0  0  0  0  0  0
   10.2117  -18.1280   19.4855 N   0  0  0  0  0  0  0  0  0  0  0  0
   10.4265  -16.8052   19.9421 C   0  0  0  0  0  0  0  0  0  0  0  0
   11.5717  -16.2818   19.7799 O   0  0  0  0  0  0  0  0  0  0  0  0
    9.3137  -16.0594   20.5949 C   0  0  0  0  0  0  0  0  0  0  0  0
    9.2655  -16.3121   22.0674 C   0  0  2  0  0  0  0  0  0  0  0  0
    8.1517  -15.5778   22.6149 N   0  0  0  0  0  0  0  0  0  0  0  0
   10.5380  -15.9826   22.7737 C   0  0  0  0  0  0  0  0  0  0  0  0
   10.9623  -14.8025   22.8711 O   0  0  0  0  0  0  0  0  0  0  0  0
   11.3352  -16.9959   23.3726 N   0  0  0  0  0  0  0  0  0  0  0  0
   12.5270  -16.6529   24.1897 C   0  0  1  0  0  0  0  0  0  0  0  0
   12.7020  -17.6567   25.2750 C   0  0  0  0  0  0  0  0  0  0  0  0
   11.6086  -17.5315   26.3028 C   0  0  0  0  0  0  0  0  0  0  0  0
   11.8007  -18.5316   27.4042 C   0  0  0  0  0  0  0  0  0  0  0  0
   12.2606  -18.1475   28.4879 O   0  0  0  0  0  0  0  0  0  0  0  0
   13.6483  -16.5253   23.2578 C   0  0  0  0  0  0  0  0  0  0  0  0
   13.6186  -16.9680   21.9543 O   0  0  0  0  0  0  0  0  0  0  0  0
   11.4630  -19.8452   27.1841 O   0  0  0  0  0  0  0  0  0  0  0  0
   14.7454  -15.9818   23.6189 O   0  0  0  0  0  0  0  0  0  0  0  0
  1  2  1  0
  2  3  1  0
  3  4  1  0
  4  5  1  0
  5  7  1  0
  5  6  1  1
  7 14  1  0
  7  8  2  0
  9 10  1  0
 10 11  2  0
 12 10  1  0
 13 12  1  6
 14 13  1  0
 15 16  2  0
 15 13  1  0
 17 15  1  0
 18 17  1  0
 18 19  1  1
 20 21  1  0
 20 19  1  0
 21 25  1  0
 22 21  2  0
 23 18  1  0
 24 23  1  0
 26 23  2  0
M  END
$$$$
