MNE.pdb
     RDKit          3D

 26 25  0  0  1  0  0  0  0  0999 V2000
    8.2780  -11.5180   26.1874 C   0  0  0  0  0  0  0  0  0  0  0  0
    6.6817  -12.3264   26.5054 S   0  0  0  0  0  0  0  0  0  0  0  0
    6.2823  -13.5406   25.2127 C   0  0  0  0  0  0  0  0  0  0  0  0
    7.4011  -14.5435   25.0473 C   0  0  0  0  0  0  0  0  0  0  0  0
    7.1114  -15.5261   23.9364 C   0  0  2  0  0  0  0  0  0  0  0  0
    6.0020  -16.3560   24.3631 N   0  0  0  0  0  0  0  0  0  0  0  0
    8.2915  -16.4047   23.7393 C   0  0  0  0  0  0  0  0  0  0  0  0
    8.4471  -17.4024   24.5148 O   0  0  0  0  0  0  0  0  0  0  0  0
   12.5700  -14.7128   21.5136 N   0  0  0  0  0  0  0  0  0  0  0  0
   11.3186  -15.2506   21.1274 C   0  0  0  0  0  0  0  0  0  0  0  0
   10.4410  -14.4698   20.6461 O   0  0  0  0  0  0  0  0  0  0  0  0
   11.0601  -16.7093   21.2891 C   0  0  0  0  0  0  0  0  0  0  0  0
   10.3788  -17.0116   22.5849 C   0  0  2  0  0  0  0  0  0  0  0  0
    9.2339  -16.1433   22.7059 N   0  0  0  0  0  0  0  0  0  0  0  0
   11.2756  -16.9031   23.7727 C   0  0  0  0  0  0  0  0  0  0  0  0
   11.6186  -15.7920   24.2521 O   0  0  0  0  0  0  0  0  0  0  0  0
   11.7876  -18.0602   24.4210 N   0  0  0  0  0  0  0  0  0  0  0  0
   12.4318  -17.9707   25.7562 C   0  0  1  0  0  0  0  0  0  0  0  0
   11.6175  -18.7079   26.7609 C   0  0  0  0  0  0  0  0  0  0  0  0
   12.3262  -18.7648   28.0883 C   0  0  0  0  0  0  0  0  0  0  0  0
   11.5256  -19.5530   29.0822 C   0  0  0  0  0  0  0  0  0  0  0  0
   10.4210  -19.9982   28.7427 O   0  0  0  0  0  0  0  0  0  0  0  0
   13.8075  -18.4409   25.5872 C   0  0  0  0  0  0  0  0  0  0  0  0
   14.9018  -17.8402   26.1681 O   0  0  0  0  0  0  0  0  0  0  0  0
   12.0357  -19.7606   30.3410 O   0  0  0  0  0  0  0  0  0  0  0  0
   14.0699  -19.4627   24.8685 O   0  0  0  0  0  0  0  0  0  0  0  0
  1  2  1  0
  2  3  1  0
  3  4  1  0
  4  5  1  0
  5  7  1  0
  5  6  1  1
  7 14  1  0
  7  8  2  0
  9 10  1  0
 10 11  2  0
 12 10  1  0
 13 12  1  6
 14 13  1  0
 15 16  2  0
 15 13  1  0
 17 15  1  0
 18 17  1  0
 18 19  1  1
 20 21  1  0
 20 19  1  0
 21 25  1  0
 22 21  2  0
 23 18  1  0
 24 23  1  0
 26 23  2  0
M  END
$$$$
