MNE.pdb
     RDKit          3D

 26 25  0  0  1  0  0  0  0  0999 V2000
    8.6597  -12.3014   25.6655 C   0  0  0  0  0  0  0  0  0  0  0  0
    8.2640  -13.4500   27.0172 S   0  0  0  0  0  0  0  0  0  0  0  0
    7.7272  -15.0660   26.3805 C   0  0  0  0  0  0  0  0  0  0  0  0
    6.8276  -14.9023   25.1768 C   0  0  0  0  0  0  0  0  0  0  0  0
    6.3104  -16.2326   24.6804 C   0  0  2  0  0  0  0  0  0  0  0  0
    5.8981  -17.0024   25.8375 N   0  0  0  0  0  0  0  0  0  0  0  0
    7.4124  -16.9674   24.0102 C   0  0  0  0  0  0  0  0  0  0  0  0
    7.7874  -18.0829   24.4961 O   0  0  0  0  0  0  0  0  0  0  0  0
   10.3289  -17.1917   18.6812 N   0  0  0  0  0  0  0  0  0  0  0  0
    9.4584  -17.7284   19.6604 C   0  0  0  0  0  0  0  0  0  0  0  0
    9.2925  -18.9861   19.7062 O   0  0  0  0  0  0  0  0  0  0  0  0
    8.7632  -16.8150   20.6107 C   0  0  0  0  0  0  0  0  0  0  0  0
    8.7973  -17.3399   22.0099 C   0  0  2  0  0  0  0  0  0  0  0  0
    8.0414  -16.4418   22.8473 N   0  0  0  0  0  0  0  0  0  0  0  0
   10.1774  -17.5489   22.5378 C   0  0  0  0  0  0  0  0  0  0  0  0
   11.0496  -18.1874   21.8946 O   0  0  0  0  0  0  0  0  0  0  0  0
   10.5716  -17.0322   23.8022 N   0  0  0  0  0  0  0  0  0  0  0  0
   11.9578  -17.2083   24.3055 C   0  0  1  0  0  0  0  0  0  0  0  0
   12.8979  -16.3854   23.4963 C   0  0  0  0  0  0  0  0  0  0  0  0
   14.2996  -16.4836   24.0380 C   0  0  0  0  0  0  0  0  0  0  0  0
   15.2434  -15.6562   23.2167 C   0  0  0  0  0  0  0  0  0  0  0  0
   16.4608  -15.7588   23.4192 O   0  0  0  0  0  0  0  0  0  0  0  0
   11.9226  -16.9065   25.7372 C   0  0  0  0  0  0  0  0  0  0  0  0
   12.8339  -17.3925   26.6478 O   0  0  0  0  0  0  0  0  0  0  0  0
   14.7356  -14.8072   22.2631 O   0  0  0  0  0  0  0  0  0  0  0  0
   11.0152  -16.1554   26.2291 O   0  0  0  0  0  0  0  0  0  0  0  0
  1  2  1  0
  2  3  1  0
  3  4  1  0
  4  5  1  0
  5  7  1  0
  5  6  1  1
  7 14  1  0
  7  8  2  0
  9 10  1  0
 10 11  2  0
 12 10  1  0
 13 12  1  6
 14 13  1  0
 15 16  2  0
 15 13  1  0
 17 15  1  0
 18 17  1  0
 18 19  1  6
 20 21  1  0
 20 19  1  0
 21 25  1  0
 22 21  2  0
 23 18  1  0
 24 23  1  0
 26 23  2  0
M  END
$$$$
