MNE.pdb
     RDKit          3D

 26 25  0  0  1  0  0  0  0  0999 V2000
    7.9587  -12.4209   28.2667 C   0  0  0  0  0  0  0  0  0  0  0  0
    6.8019  -11.6680   27.0843 S   0  0  0  0  0  0  0  0  0  0  0  0
    6.0122  -12.9249   26.0349 C   0  0  0  0  0  0  0  0  0  0  0  0
    7.0248  -13.5901   25.1311 C   0  0  0  0  0  0  0  0  0  0  0  0
    6.3962  -14.6795   24.2935 C   0  0  2  0  0  0  0  0  0  0  0  0
    5.9077  -15.7014   25.1982 N   0  0  0  0  0  0  0  0  0  0  0  0
    7.4344  -15.2925   23.4276 C   0  0  0  0  0  0  0  0  0  0  0  0
    7.8501  -16.4631   23.7068 O   0  0  0  0  0  0  0  0  0  0  0  0
    7.6791  -12.8053   19.2036 N   0  0  0  0  0  0  0  0  0  0  0  0
    8.0902  -14.1249   19.5100 C   0  0  0  0  0  0  0  0  0  0  0  0
    7.4147  -15.0968   19.0511 O   0  0  0  0  0  0  0  0  0  0  0  0
    9.2982  -14.3447   20.3545 C   0  0  0  0  0  0  0  0  0  0  0  0
    9.0012  -15.2180   21.5308 C   0  0  2  0  0  0  0  0  0  0  0  0
    7.9589  -14.5917   22.3060 N   0  0  0  0  0  0  0  0  0  0  0  0
   10.1981  -15.5222   22.3684 C   0  0  0  0  0  0  0  0  0  0  0  0
   11.1476  -14.7075   22.4985 O   0  0  0  0  0  0  0  0  0  0  0  0
   10.3208  -16.7570   23.0622 N   0  0  0  0  0  0  0  0  0  0  0  0
   11.4332  -16.9941   24.0174 C   0  0  1  0  0  0  0  0  0  0  0  0
   10.9466  -17.8006   25.1700 C   0  0  0  0  0  0  0  0  0  0  0  0
   12.0753  -18.1243   26.1128 C   0  0  0  0  0  0  0  0  0  0  0  0
   11.5976  -19.0087   27.2262 C   0  0  0  0  0  0  0  0  0  0  0  0
   11.2841  -20.1788   26.9687 O   0  0  0  0  0  0  0  0  0  0  0  0
   12.5259  -17.5872   23.2453 C   0  0  0  0  0  0  0  0  0  0  0  0
   13.8596  -17.3624   23.5032 O   0  0  0  0  0  0  0  0  0  0  0  0
   11.5197  -18.5004   28.5004 O   0  0  0  0  0  0  0  0  0  0  0  0
   12.2896  -18.3657   22.2617 O   0  0  0  0  0  0  0  0  0  0  0  0
  1  2  1  0
  2  3  1  0
  3  4  1  0
  4  5  1  0
  5  7  1  0
  5  6  1  1
  7 14  1  0
  7  8  2  0
  9 10  1  0
 10 11  2  0
 12 10  1  0
 13 12  1  6
 14 13  1  0
 15 16  2  0
 15 13  1  0
 17 15  1  0
 18 17  1  0
 18 19  1  1
 20 21  1  0
 20 19  1  0
 21 25  1  0
 22 21  2  0
 23 18  1  0
 24 23  1  0
 26 23  2  0
M  END
$$$$
