MNE.pdb
     RDKit          3D

 26 25  0  0  1  0  0  0  0  0999 V2000
    6.7064  -11.6876   27.0573 C   0  0  0  0  0  0  0  0  0  0  0  0
    7.8013  -11.4816   25.6214 S   0  0  0  0  0  0  0  0  0  0  0  0
    7.4077  -12.6760   24.3086 C   0  0  0  0  0  0  0  0  0  0  0  0
    7.3055  -14.0778   24.8645 C   0  0  0  0  0  0  0  0  0  0  0  0
    7.1340  -15.1031   23.7677 C   0  0  2  0  0  0  0  0  0  0  0  0
    5.9812  -14.7138   22.9798 N   0  0  0  0  0  0  0  0  0  0  0  0
    6.8480  -16.4270   24.3749 C   0  0  0  0  0  0  0  0  0  0  0  0
    5.7419  -16.5946   24.9827 O   0  0  0  0  0  0  0  0  0  0  0  0
    7.0258  -22.2580   24.4316 N   0  0  0  0  0  0  0  0  0  0  0  0
    6.7515  -20.9906   24.9999 C   0  0  0  0  0  0  0  0  0  0  0  0
    6.2583  -20.9394   26.1686 O   0  0  0  0  0  0  0  0  0  0  0  0
    7.0475  -19.7535   24.2236 C   0  0  0  0  0  0  0  0  0  0  0  0
    7.5782  -18.6635   25.0982 C   0  0  2  0  0  0  0  0  0  0  0  0
    7.7867  -17.4923   24.2832 N   0  0  0  0  0  0  0  0  0  0  0  0
    8.8164  -19.0407   25.8408 C   0  0  0  0  0  0  0  0  0  0  0  0
    8.8697  -20.0581   26.5785 O   0  0  0  0  0  0  0  0  0  0  0  0
   10.0011  -18.2604   25.7478 N   0  0  0  0  0  0  0  0  0  0  0  0
   11.2148  -18.6108   26.5288 C   0  0  1  0  0  0  0  0  0  0  0  0
   12.3827  -17.8397   26.0214 C   0  0  0  0  0  0  0  0  0  0  0  0
   12.5625  -18.0506   24.5413 C   0  0  0  0  0  0  0  0  0  0  0  0
   13.6838  -17.2024   24.0184 C   0  0  0  0  0  0  0  0  0  0  0  0
   13.4310  -16.3265   23.1802 O   0  0  0  0  0  0  0  0  0  0  0  0
   10.8792  -18.3988   27.9376 C   0  0  0  0  0  0  0  0  0  0  0  0
   11.6606  -18.8280   28.9869 O   0  0  0  0  0  0  0  0  0  0  0  0
   14.9597  -17.4176   24.4805 O   0  0  0  0  0  0  0  0  0  0  0  0
    9.8104  -17.7876   28.2745 O   0  0  0  0  0  0  0  0  0  0  0  0
  1  2  1  0
  2  3  1  0
  3  4  1  0
  4  5  1  0
  5  7  1  0
  5  6  1  6
  7 14  1  0
  7  8  2  0
  9 10  1  0
 10 11  2  0
 12 10  1  0
 13 12  1  6
 14 13  1  0
 15 16  2  0
 15 13  1  0
 17 15  1  0
 18 17  1  0
 18 19  1  6
 20 21  1  0
 20 19  1  0
 21 25  1  0
 22 21  2  0
 23 18  1  0
 24 23  1  0
 26 23  2  0
M  END
$$$$
