MNE.pdb
     RDKit          3D

 26 25  0  0  1  0  0  0  0  0999 V2000
    8.0913  -11.6092   20.4629 C   0  0  0  0  0  0  0  0  0  0  0  0
    6.8977  -12.8404   19.8610 S   0  0  0  0  0  0  0  0  0  0  0  0
    7.4954  -14.5352   20.1356 C   0  0  0  0  0  0  0  0  0  0  0  0
    8.9229  -14.5323   20.6324 C   0  0  0  0  0  0  0  0  0  0  0  0
    9.3972  -15.9247   20.9785 C   0  0  2  0  0  0  0  0  0  0  0  0
    8.5834  -16.8635   20.2317 N   0  0  0  0  0  0  0  0  0  0  0  0
    9.1731  -16.1733   22.4246 C   0  0  0  0  0  0  0  0  0  0  0  0
    9.7456  -15.4140   23.2713 O   0  0  0  0  0  0  0  0  0  0  0  0
    6.9391  -18.1700   27.0058 N   0  0  0  0  0  0  0  0  0  0  0  0
    6.5596  -18.6398   25.7253 C   0  0  0  0  0  0  0  0  0  0  0  0
    6.0806  -19.8109   25.6220 O   0  0  0  0  0  0  0  0  0  0  0  0
    6.7255  -17.7575   24.5360 C   0  0  0  0  0  0  0  0  0  0  0  0
    8.1627  -17.4346   24.2810 C   0  0  2  0  0  0  0  0  0  0  0  0
    8.3360  -17.2370   22.8632 N   0  0  0  0  0  0  0  0  0  0  0  0
    9.1098  -18.4592   24.8103 C   0  0  0  0  0  0  0  0  0  0  0  0
    8.9506  -19.6889   24.5994 O   0  0  0  0  0  0  0  0  0  0  0  0
   10.2435  -18.0887   25.5839 N   0  0  0  0  0  0  0  0  0  0  0  0
   11.1986  -19.1099   26.0847 C   0  0  1  0  0  0  0  0  0  0  0  0
   12.5833  -18.7530   25.6711 C   0  0  0  0  0  0  0  0  0  0  0  0
   12.6143  -18.2992   24.2356 C   0  0  0  0  0  0  0  0  0  0  0  0
   14.0187  -17.9906   23.8084 C   0  0  0  0  0  0  0  0  0  0  0  0
   14.8859  -17.8255   24.6769 O   0  0  0  0  0  0  0  0  0  0  0  0
   10.9758  -19.2166   27.5273 C   0  0  0  0  0  0  0  0  0  0  0  0
   11.5141  -20.2079   28.3169 O   0  0  0  0  0  0  0  0  0  0  0  0
   14.3074  -17.8987   22.4682 O   0  0  0  0  0  0  0  0  0  0  0  0
   10.2465  -18.3703   28.1448 O   0  0  0  0  0  0  0  0  0  0  0  0
  1  2  1  0
  2  3  1  0
  3  4  1  0
  4  5  1  0
  5  7  1  0
  5  6  1  6
  7 14  1  0
  7  8  2  0
  9 10  1  0
 10 11  2  0
 12 10  1  0
 13 12  1  6
 14 13  1  0
 15 16  2  0
 15 13  1  0
 17 15  1  0
 18 17  1  0
 18 19  1  1
 20 21  1  0
 20 19  1  0
 21 25  1  0
 22 21  2  0
 23 18  1  0
 24 23  1  0
 26 23  2  0
M  END
$$$$
