MNE.pdb
     RDKit          3D

 26 25  0  0  1  0  0  0  0  0999 V2000
    9.5446  -12.4152   27.1146 C   0  0  0  0  0  0  0  0  0  0  0  0
    7.8218  -12.4746   27.6904 S   0  0  0  0  0  0  0  0  0  0  0  0
    6.7728  -13.4271   26.5514 C   0  0  0  0  0  0  0  0  0  0  0  0
    7.5600  -14.5330   25.8866 C   0  0  0  0  0  0  0  0  0  0  0  0
    6.7520  -15.2285   24.8156 C   0  0  2  0  0  0  0  0  0  0  0  0
    5.6660  -15.9298   25.4716 N   0  0  0  0  0  0  0  0  0  0  0  0
    7.6039  -16.2363   24.1361 C   0  0  0  0  0  0  0  0  0  0  0  0
    7.5383  -17.4493   24.5176 O   0  0  0  0  0  0  0  0  0  0  0  0
    9.5415  -18.7227   20.0032 N   0  0  0  0  0  0  0  0  0  0  0  0
   10.1169  -17.4359   20.1352 C   0  0  0  0  0  0  0  0  0  0  0  0
   11.2064  -17.1897   19.5319 O   0  0  0  0  0  0  0  0  0  0  0  0
    9.4370  -16.4049   20.9690 C   0  0  0  0  0  0  0  0  0  0  0  0
    9.1632  -16.9022   22.3519 C   0  0  2  0  0  0  0  0  0  0  0  0
    8.4785  -15.8616   23.0783 N   0  0  0  0  0  0  0  0  0  0  0  0
   10.3844  -17.3621   23.0758 C   0  0  0  0  0  0  0  0  0  0  0  0
   11.0213  -18.3891   22.7270 O   0  0  0  0  0  0  0  0  0  0  0  0
   10.8867  -16.6549   24.2022 N   0  0  0  0  0  0  0  0  0  0  0  0
   12.0682  -17.1485   24.9546 C   0  0  1  0  0  0  0  0  0  0  0  0
   13.2469  -16.2858   24.6677 C   0  0  0  0  0  0  0  0  0  0  0  0
   14.1328  -16.9170   23.6263 C   0  0  0  0  0  0  0  0  0  0  0  0
   15.3200  -16.0451   23.3427 C   0  0  0  0  0  0  0  0  0  0  0  0
   15.8787  -16.1344   22.2411 O   0  0  0  0  0  0  0  0  0  0  0  0
   11.6654  -17.2243   26.3596 C   0  0  0  0  0  0  0  0  0  0  0  0
   12.4044  -17.8503   27.3383 O   0  0  0  0  0  0  0  0  0  0  0  0
   15.7572  -15.1719   24.3092 O   0  0  0  0  0  0  0  0  0  0  0  0
   10.5732  -16.6989   26.7602 O   0  0  0  0  0  0  0  0  0  0  0  0
  1  2  1  0
  2  3  1  0
  3  4  1  0
  4  5  1  0
  5  7  1  0
  5  6  1  1
  7 14  1  0
  7  8  2  0
  9 10  1  0
 10 11  2  0
 12 10  1  0
 13 12  1  6
 14 13  1  0
 15 16  2  0
 15 13  1  0
 17 15  1  0
 18 17  1  0
 18 19  1  1
 20 21  1  0
 20 19  1  0
 21 25  1  0
 22 21  2  0
 23 18  1  0
 24 23  1  0
 26 23  2  0
M  END
$$$$
