SMT.pdb
     RDKit          3D

 22 21  0  0  1  0  0  0  0  0999 V2000
   27.0120  -22.8956  -18.1732 O   0  0  0  0  0  0  0  0  0  0  0  0
   27.9945  -22.9196  -17.1890 C   0  0  0  0  0  0  0  0  0  0  0  0
   27.5703  -23.9077  -16.1372 C   0  0  2  0  0  0  0  0  0  0  0  0
   27.1631  -25.1403  -16.7801 N   0  0  0  0  0  0  0  0  0  0  0  0
   26.4332  -23.4285  -15.3235 C   0  0  0  0  0  0  0  0  0  0  0  0
   25.3525  -24.0568  -15.3584 O   0  0  0  0  0  0  0  0  0  0  0  0
   26.2806  -20.1889   -9.0193 C   0  0  0  0  0  0  0  0  0  0  0  0
   25.1648  -21.2609   -9.9785 S   0  0  0  0  0  0  0  0  0  0  0  0
   24.9162  -20.4934  -11.5866 C   0  0  0  0  0  0  0  0  0  0  0  0
   25.9976  -20.9252  -12.5725 C   0  0  0  0  0  0  0  0  0  0  0  0
   25.4377  -21.8370  -13.6298 C   0  0  2  0  0  0  0  0  0  0  0  0
   26.5001  -22.2770  -14.4918 N   0  0  0  0  0  0  0  0  0  0  0  0
   24.3665  -21.1128  -14.3570 C   0  0  0  0  0  0  0  0  0  0  0  0
   24.7319  -20.1503  -15.0817 O   0  0  0  0  0  0  0  0  0  0  0  0
   21.8833  -22.1200  -16.9194 C   0  0  0  0  0  0  0  0  0  0  0  0
   21.0786  -21.5149  -15.7895 C   0  0  1  0  0  0  0  0  0  0  0  0
   20.5349  -22.5842  -15.0813 O   0  0  0  0  0  0  0  0  0  0  0  0
   22.0167  -20.6938  -14.9431 C   0  0  2  0  0  0  0  0  0  0  0  0
   22.9954  -21.4696  -14.2546 N   0  0  0  0  0  0  0  0  0  0  0  0
   21.2052  -19.8876  -13.9858 C   0  0  0  0  0  0  0  0  0  0  0  0
   21.4016  -19.9844  -12.7486 O   0  0  0  0  0  0  0  0  0  0  0  0
   20.2163  -19.0106  -14.3975 O   0  0  0  0  0  0  0  0  0  0  0  0
  1  2  1  0
  2  3  1  0
  3  4  1  6
  5 12  1  0
  5  3  1  0
  6  5  2  0
  8  9  1  0
  8  7  1  0
  9 10  1  0
 11 10  1  1
 11 13  1  0
 11 12  1  0
 13 19  1  0
 14 13  2  0
 16 17  1  0
 16 15  1  6
 18 16  1  0
 18 19  1  1
 20 18  1  0
 20 22  1  0
 21 20  2  0
M  END
$$$$
