SMT.pdb
     RDKit          3D

 22 21  0  0  1  0  0  0  0  0999 V2000
   21.3081  -21.4311  -16.0879 O   0  0  0  0  0  0  0  0  0  0  0  0
   20.8580  -22.1460  -14.9831 C   0  0  0  0  0  0  0  0  0  0  0  0
   20.7971  -21.2006  -13.8148 C   0  0  2  0  0  0  0  0  0  0  0  0
   19.8899  -20.1158  -14.1285 N   0  0  0  0  0  0  0  0  0  0  0  0
   22.1105  -20.6072  -13.4864 C   0  0  0  0  0  0  0  0  0  0  0  0
   22.2754  -19.3761  -13.6320 O   0  0  0  0  0  0  0  0  0  0  0  0
   24.7143  -20.7047   -8.8639 C   0  0  0  0  0  0  0  0  0  0  0  0
   26.3623  -20.3081   -9.5279 S   0  0  0  0  0  0  0  0  0  0  0  0
   26.4756  -21.0223  -11.1753 C   0  0  0  0  0  0  0  0  0  0  0  0
   25.1416  -21.6272  -11.6028 C   0  0  0  0  0  0  0  0  0  0  0  0
   24.5038  -20.8188  -12.6994 C   0  0  2  0  0  0  0  0  0  0  0  0
   23.2122  -21.3682  -13.0078 N   0  0  0  0  0  0  0  0  0  0  0  0
   25.4189  -20.8045  -13.8669 C   0  0  0  0  0  0  0  0  0  0  0  0
   25.3614  -21.7987  -14.6373 O   0  0  0  0  0  0  0  0  0  0  0  0
   28.6807  -18.6447  -16.8127 C   0  0  0  0  0  0  0  0  0  0  0  0
   27.8896  -18.4818  -15.5329 C   0  0  1  0  0  0  0  0  0  0  0  0
   27.0642  -17.3758  -15.7223 O   0  0  0  0  0  0  0  0  0  0  0  0
   27.1002  -19.7465  -15.3142 C   0  0  2  0  0  0  0  0  0  0  0  0
   26.3203  -19.7363  -14.1203 N   0  0  0  0  0  0  0  0  0  0  0  0
   28.0454  -20.9004  -15.3238 C   0  0  0  0  0  0  0  0  0  0  0  0
   28.6332  -21.2483  -14.2693 O   0  0  0  0  0  0  0  0  0  0  0  0
   28.3198  -21.6328  -16.4661 O   0  0  0  0  0  0  0  0  0  0  0  0
  1  2  1  0
  2  3  1  0
  3  4  1  6
  5 12  1  0
  5  3  1  0
  6  5  2  0
  8  9  1  0
  8  7  1  0
  9 10  1  0
 11 10  1  1
 11 13  1  0
 11 12  1  0
 13 19  1  0
 14 13  2  0
 16 17  1  0
 16 15  1  6
 18 16  1  0
 18 19  1  1
 20 18  1  0
 20 22  1  0
 21 20  2  0
M  END
$$$$
