SMT.pdb
     RDKit          3D

 22 21  0  0  1  0  0  0  0  0999 V2000
   18.1035  -15.3769  -15.7824 O   0  0  0  0  0  0  0  0  0  0  0  0
   18.9004  -16.0957  -16.6671 C   0  0  0  0  0  0  0  0  0  0  0  0
   20.0953  -16.6013  -15.9061 C   0  0  2  0  0  0  0  0  0  0  0  0
   19.6515  -17.5330  -14.8895 N   0  0  0  0  0  0  0  0  0  0  0  0
   20.8448  -15.5217  -15.2296 C   0  0  0  0  0  0  0  0  0  0  0  0
   20.7585  -15.4071  -13.9873 O   0  0  0  0  0  0  0  0  0  0  0  0
   27.4153  -11.6704  -14.2893 C   0  0  0  0  0  0  0  0  0  0  0  0
   26.4947  -13.0022  -15.1217 S   0  0  0  0  0  0  0  0  0  0  0  0
   24.7397  -12.6885  -14.8804 C   0  0  0  0  0  0  0  0  0  0  0  0
   23.8936  -13.7718  -15.5429 C   0  0  0  0  0  0  0  0  0  0  0  0
   22.4280  -13.5513  -15.2856 C   0  0  2  0  0  0  0  0  0  0  0  0
   21.6698  -14.5932  -15.9219 N   0  0  0  0  0  0  0  0  0  0  0  0
   22.0641  -12.1961  -15.7670 C   0  0  0  0  0  0  0  0  0  0  0  0
   22.1871  -11.9875  -17.0026 O   0  0  0  0  0  0  0  0  0  0  0  0
   19.0903  -10.4498  -16.2589 C   0  0  0  0  0  0  0  0  0  0  0  0
   19.8552   -9.5070  -15.3552 C   0  0  1  0  0  0  0  0  0  0  0  0
   19.3320   -9.6820  -14.0761 O   0  0  0  0  0  0  0  0  0  0  0  0
   21.3132   -9.8807  -15.4265 C   0  0  2  0  0  0  0  0  0  0  0  0
   21.6001  -11.1734  -14.8971 N   0  0  0  0  0  0  0  0  0  0  0  0
   22.1047   -8.8292  -14.7246 C   0  0  0  0  0  0  0  0  0  0  0  0
   22.8257   -9.1287  -13.7402 O   0  0  0  0  0  0  0  0  0  0  0  0
   22.0888   -7.4995  -15.1095 O   0  0  0  0  0  0  0  0  0  0  0  0
  1  2  1  0
  2  3  1  0
  3  4  1  1
  5 12  1  0
  5  3  1  0
  6  5  2  0
  8  9  1  0
  8  7  1  0
  9 10  1  0
 11 10  1  6
 11 13  1  0
 11 12  1  0
 13 19  1  0
 14 13  2  0
 16 17  1  0
 16 15  1  6
 18 16  1  0
 18 19  1  1
 20 18  1  0
 20 22  1  0
 21 20  2  0
M  END
$$$$
