SMT.pdb
     RDKit          3D

 22 21  0  0  1  0  0  0  0  0999 V2000
   19.6022  -10.8924  -20.6645 O   0  0  0  0  0  0  0  0  0  0  0  0
   19.8142  -10.5064  -19.3452 C   0  0  0  0  0  0  0  0  0  0  0  0
   21.0671  -11.1839  -18.8616 C   0  0  2  0  0  0  0  0  0  0  0  0
   20.7997  -12.5942  -18.6675 N   0  0  0  0  0  0  0  0  0  0  0  0
   21.5565  -10.6385  -17.5778 C   0  0  0  0  0  0  0  0  0  0  0  0
   20.9387  -10.9119  -16.5255 O   0  0  0  0  0  0  0  0  0  0  0  0
   27.0903  -10.6835  -14.4338 C   0  0  0  0  0  0  0  0  0  0  0  0
   26.5999  -11.4940  -15.9884 S   0  0  0  0  0  0  0  0  0  0  0  0
   24.8832  -11.0642  -16.3124 C   0  0  0  0  0  0  0  0  0  0  0  0
   24.6322   -9.5813  -16.0556 C   0  0  0  0  0  0  0  0  0  0  0  0
   23.1802   -9.2348  -16.2415 C   0  0  2  0  0  0  0  0  0  0  0  0
   22.7063   -9.8087  -17.4709 N   0  0  0  0  0  0  0  0  0  0  0  0
   23.0396   -7.7586  -16.2015 C   0  0  0  0  0  0  0  0  0  0  0  0
   23.6768   -7.1101  -17.0726 O   0  0  0  0  0  0  0  0  0  0  0  0
   20.5750   -5.6115  -17.1868 C   0  0  0  0  0  0  0  0  0  0  0  0
   20.7552   -5.1970  -15.7425 C   0  0  1  0  0  0  0  0  0  0  0  0
   19.7245   -5.8060  -15.0302 O   0  0  0  0  0  0  0  0  0  0  0  0
   22.1123   -5.6720  -15.2919 C   0  0  2  0  0  0  0  0  0  0  0  0
   22.2344   -7.0919  -15.2396 N   0  0  0  0  0  0  0  0  0  0  0  0
   22.4087   -5.0619  -13.9635 C   0  0  0  0  0  0  0  0  0  0  0  0
   22.5944   -5.7911  -12.9573 O   0  0  0  0  0  0  0  0  0  0  0  0
   22.4936   -3.6935  -13.7712 O   0  0  0  0  0  0  0  0  0  0  0  0
  1  2  1  0
  2  3  1  0
  3  4  1  1
  5 12  1  0
  5  3  1  0
  6  5  2  0
  8  9  1  0
  8  7  1  0
  9 10  1  0
 11 10  1  6
 11 13  1  0
 11 12  1  0
 13 19  1  0
 14 13  2  0
 16 17  1  0
 16 15  1  6
 18 16  1  0
 18 19  1  1
 20 18  1  0
 20 22  1  0
 21 20  2  0
M  END
$$$$
