SMT.pdb
     RDKit          3D

 22 21  0  0  1  0  0  0  0  0999 V2000
   17.5254  -10.1246  -20.6136 O   0  0  0  0  0  0  0  0  0  0  0  0
   17.8934   -9.8625  -19.2982 C   0  0  0  0  0  0  0  0  0  0  0  0
   19.0726  -10.7353  -18.9660 C   0  0  2  0  0  0  0  0  0  0  0  0
   18.6027  -12.0686  -18.6504 N   0  0  0  0  0  0  0  0  0  0  0  0
   19.8425  -10.2434  -17.8041 C   0  0  0  0  0  0  0  0  0  0  0  0
   19.3441  -10.3356  -16.6608 O   0  0  0  0  0  0  0  0  0  0  0  0
   26.7496   -9.8445  -14.3544 C   0  0  0  0  0  0  0  0  0  0  0  0
   25.7357  -10.4353  -15.7461 S   0  0  0  0  0  0  0  0  0  0  0  0
   24.1690   -9.5523  -15.6960 C   0  0  0  0  0  0  0  0  0  0  0  0
   23.2624   -9.9799  -16.8464 C   0  0  0  0  0  0  0  0  0  0  0  0
   21.9422   -9.2605  -16.7954 C   0  0  2  0  0  0  0  0  0  0  0  0
   21.1359   -9.6631  -17.9148 N   0  0  0  0  0  0  0  0  0  0  0  0
   22.2025   -7.8003  -16.7667 C   0  0  0  0  0  0  0  0  0  0  0  0
   22.9394   -7.3435  -17.6797 O   0  0  0  0  0  0  0  0  0  0  0  0
   20.4740   -4.9478  -17.5920 C   0  0  0  0  0  0  0  0  0  0  0  0
   20.8397   -4.6616  -16.1516 C   0  0  1  0  0  0  0  0  0  0  0  0
   19.7006   -4.9353  -15.3979 O   0  0  0  0  0  0  0  0  0  0  0  0
   21.9925   -5.5585  -15.7813 C   0  0  2  0  0  0  0  0  0  0  0  0
   21.6596   -6.9452  -15.7708 N   0  0  0  0  0  0  0  0  0  0  0  0
   22.5192   -5.1265  -14.4544 C   0  0  0  0  0  0  0  0  0  0  0  0
   22.4991   -5.9147  -13.4762 O   0  0  0  0  0  0  0  0  0  0  0  0
   23.0459   -3.8654  -14.2334 O   0  0  0  0  0  0  0  0  0  0  0  0
  1  2  1  0
  2  3  1  0
  3  4  1  1
  5 12  1  0
  5  3  1  0
  6  5  2  0
  8  9  1  0
  8  7  1  0
  9 10  1  0
 11 10  1  6
 11 13  1  0
 11 12  1  0
 13 19  1  0
 14 13  2  0
 16 17  1  0
 16 15  1  6
 18 16  1  0
 18 19  1  1
 20 18  1  0
 20 22  1  0
 21 20  2  0
M  END
$$$$
