SMT.pdb
     RDKit          3D

 22 21  0  0  1  0  0  0  0  0999 V2000
   27.0901  -19.3478  -14.5530 O   0  0  0  0  0  0  0  0  0  0  0  0
   27.8313  -19.0739  -13.4084 C   0  0  0  0  0  0  0  0  0  0  0  0
   28.2593  -20.3861  -12.8105 C   0  0  2  0  0  0  0  0  0  0  0  0
   28.4130  -21.3628  -13.8691 N   0  0  0  0  0  0  0  0  0  0  0  0
   27.2801  -20.9232  -11.8422 C   0  0  0  0  0  0  0  0  0  0  0  0
   26.4619  -21.7896  -12.2215 O   0  0  0  0  0  0  0  0  0  0  0  0
   26.5800  -20.0881   -5.0427 C   0  0  0  0  0  0  0  0  0  0  0  0
   28.0102  -19.7740   -6.1244 S   0  0  0  0  0  0  0  0  0  0  0  0
   27.6782  -20.5534   -7.7116 C   0  0  0  0  0  0  0  0  0  0  0  0
   26.3476  -20.0780   -8.2874 C   0  0  0  0  0  0  0  0  0  0  0  0
   26.0793  -20.7055   -9.6280 C   0  0  2  0  0  0  0  0  0  0  0  0
   27.2152  -20.5041  -10.4850 N   0  0  0  0  0  0  0  0  0  0  0  0
   24.8304  -20.1242  -10.1785 C   0  0  0  0  0  0  0  0  0  0  0  0
   24.8417  -18.8866  -10.4098 O   0  0  0  0  0  0  0  0  0  0  0  0
   23.0361  -22.3004  -12.8964 C   0  0  0  0  0  0  0  0  0  0  0  0
   23.0025  -20.7905  -12.7979 C   0  0  1  0  0  0  0  0  0  0  0  0
   22.0015  -20.3647  -13.6680 O   0  0  0  0  0  0  0  0  0  0  0  0
   22.7005  -20.4281  -11.3668 C   0  0  2  0  0  0  0  0  0  0  0  0
   23.6719  -20.9043  -10.4376 N   0  0  0  0  0  0  0  0  0  0  0  0
   21.3415  -20.9403  -11.0270 C   0  0  0  0  0  0  0  0  0  0  0  0
   21.1901  -21.7691  -10.0949 O   0  0  0  0  0  0  0  0  0  0  0  0
   20.2012  -20.5407  -11.7028 O   0  0  0  0  0  0  0  0  0  0  0  0
  1  2  1  0
  2  3  1  0
  3  4  1  6
  5 12  1  0
  5  3  1  0
  6  5  2  0
  8  9  1  0
  8  7  1  0
  9 10  1  0
 11 10  1  1
 11 13  1  0
 11 12  1  0
 13 19  1  0
 14 13  2  0
 16 17  1  0
 16 15  1  1
 18 16  1  0
 18 19  1  1
 20 18  1  0
 20 22  1  0
 21 20  2  0
M  END
$$$$
