SMT.pdb
     RDKit          3D

 22 21  0  0  1  0  0  0  0  0999 V2000
   14.9522   -9.5770  -16.2928 O   0  0  0  0  0  0  0  0  0  0  0  0
   15.8559   -9.3975  -15.2509 C   0  0  0  0  0  0  0  0  0  0  0  0
   16.9906  -10.3642  -15.4521 C   0  0  2  0  0  0  0  0  0  0  0  0
   16.6311  -11.6447  -14.8784 N   0  0  0  0  0  0  0  0  0  0  0  0
   18.2451   -9.9199  -14.8089 C   0  0  0  0  0  0  0  0  0  0  0  0
   18.2383   -9.6414  -13.5898 O   0  0  0  0  0  0  0  0  0  0  0  0
   26.0802   -9.7923  -14.7279 C   0  0  0  0  0  0  0  0  0  0  0  0
   24.5736  -10.4782  -15.4856 S   0  0  0  0  0  0  0  0  0  0  0  0
   23.1756   -9.5101  -14.8981 C   0  0  0  0  0  0  0  0  0  0  0  0
   21.8624  -10.0496  -15.4572 C   0  0  0  0  0  0  0  0  0  0  0  0
   20.6865   -9.2739  -14.9296 C   0  0  2  0  0  0  0  0  0  0  0  0
   19.4763   -9.7895  -15.5083 N   0  0  0  0  0  0  0  0  0  0  0  0
   20.9005   -7.8359  -15.2246 C   0  0  0  0  0  0  0  0  0  0  0  0
   20.8747   -7.5019  -16.4383 O   0  0  0  0  0  0  0  0  0  0  0  0
   19.3686   -4.8908  -13.1764 C   0  0  0  0  0  0  0  0  0  0  0  0
   19.9939   -4.7167  -14.5435 C   0  0  1  0  0  0  0  0  0  0  0  0
   20.2094   -3.3497  -14.7030 O   0  0  0  0  0  0  0  0  0  0  0  0
   21.2815   -5.4991  -14.5650 C   0  0  2  0  0  0  0  0  0  0  0  0
   21.1250   -6.8706  -14.2069 N   0  0  0  0  0  0  0  0  0  0  0  0
   22.2603   -4.8216  -13.6662 C   0  0  0  0  0  0  0  0  0  0  0  0
   22.6676   -5.3942  -12.6246 O   0  0  0  0  0  0  0  0  0  0  0  0
   22.7611   -3.5569  -13.9238 O   0  0  0  0  0  0  0  0  0  0  0  0
  1  2  1  0
  2  3  1  0
  3  4  1  1
  5 12  1  0
  5  3  1  0
  6  5  2  0
  8  9  1  0
  8  7  1  0
  9 10  1  0
 11 10  1  6
 11 13  1  0
 11 12  1  0
 13 19  1  0
 14 13  2  0
 16 17  1  0
 16 15  1  1
 18 16  1  0
 18 19  1  1
 20 18  1  0
 20 22  1  0
 21 20  2  0
M  END
$$$$
