SMT.pdb
     RDKit          3D

 22 21  0  0  1  0  0  0  0  0999 V2000
   18.7649  -12.1567  -19.2647 O   0  0  0  0  0  0  0  0  0  0  0  0
   19.3753  -11.3078  -18.3475 C   0  0  0  0  0  0  0  0  0  0  0  0
   20.3583  -12.1201  -17.5497 C   0  0  2  0  0  0  0  0  0  0  0  0
   19.6514  -13.1836  -16.8661 N   0  0  0  0  0  0  0  0  0  0  0  0
   21.0674  -11.3221  -16.5273 C   0  0  0  0  0  0  0  0  0  0  0  0
   20.4724  -11.0225  -15.4689 O   0  0  0  0  0  0  0  0  0  0  0  0
   27.5352  -10.7556  -15.5500 C   0  0  0  0  0  0  0  0  0  0  0  0
   26.5517  -12.2676  -15.3035 S   0  0  0  0  0  0  0  0  0  0  0  0
   24.8326  -11.7762  -15.1030 C   0  0  0  0  0  0  0  0  0  0  0  0
   24.5722  -10.4186  -15.7490 C   0  0  0  0  0  0  0  0  0  0  0  0
   23.1090  -10.0713  -15.7151 C   0  0  2  0  0  0  0  0  0  0  0  0
   22.4066  -10.8698  -16.6818 N   0  0  0  0  0  0  0  0  0  0  0  0
   22.9652   -8.6145  -15.9555 C   0  0  0  0  0  0  0  0  0  0  0  0
   23.5356   -8.1556  -16.9799 O   0  0  0  0  0  0  0  0  0  0  0  0
   20.5229   -6.8243  -17.2789 C   0  0  0  0  0  0  0  0  0  0  0  0
   20.6927   -6.0672  -15.9795 C   0  0  1  0  0  0  0  0  0  0  0  0
   19.6738   -6.5052  -15.1365 O   0  0  0  0  0  0  0  0  0  0  0  0
   22.0587   -6.3908  -15.4320 C   0  0  2  0  0  0  0  0  0  0  0  0
   22.2280   -7.7645  -15.0885 N   0  0  0  0  0  0  0  0  0  0  0  0
   22.3160   -5.5111  -14.2552 C   0  0  0  0  0  0  0  0  0  0  0  0
   22.4400   -6.0066  -13.1073 O   0  0  0  0  0  0  0  0  0  0  0  0
   22.4295   -4.1354  -14.3605 O   0  0  0  0  0  0  0  0  0  0  0  0
  1  2  1  0
  2  3  1  0
  3  4  1  1
  5 12  1  0
  5  3  1  0
  6  5  2  0
  8  9  1  0
  8  7  1  0
  9 10  1  0
 11 10  1  6
 11 13  1  0
 11 12  1  0
 13 19  1  0
 14 13  2  0
 16 17  1  0
 16 15  1  6
 18 16  1  0
 18 19  1  1
 20 18  1  0
 20 22  1  0
 21 20  2  0
M  END
$$$$
