SMT.pdb
     RDKit          3D

 22 21  0  0  1  0  0  0  0  0999 V2000
   20.6183   -7.2429  -21.0868 O   0  0  0  0  0  0  0  0  0  0  0  0
   21.6504   -8.1740  -21.1344 C   0  0  0  0  0  0  0  0  0  0  0  0
   21.2462   -9.3548  -20.2947 C   0  0  2  0  0  0  0  0  0  0  0  0
   20.0797   -9.9795  -20.8839 N   0  0  0  0  0  0  0  0  0  0  0  0
   20.9032   -8.9821  -18.9060 C   0  0  0  0  0  0  0  0  0  0  0  0
   19.7041   -8.9949  -18.5512 O   0  0  0  0  0  0  0  0  0  0  0  0
   22.3155   -9.4918  -11.3632 C   0  0  0  0  0  0  0  0  0  0  0  0
   22.7919   -9.9479  -13.0601 S   0  0  0  0  0  0  0  0  0  0  0  0
   21.9409   -8.8325  -14.1864 C   0  0  0  0  0  0  0  0  0  0  0  0
   22.3060   -9.1353  -15.6367 C   0  0  0  0  0  0  0  0  0  0  0  0
   21.5657   -8.2316  -16.5844 C   0  0  2  0  0  0  0  0  0  0  0  0
   21.8736   -8.6043  -17.9377 N   0  0  0  0  0  0  0  0  0  0  0  0
   21.9286   -6.8267  -16.2756 C   0  0  0  0  0  0  0  0  0  0  0  0
   23.0577   -6.4379  -16.6748 O   0  0  0  0  0  0  0  0  0  0  0  0
   20.5113   -3.6204  -17.2857 C   0  0  0  0  0  0  0  0  0  0  0  0
   20.5383   -3.5598  -15.7737 C   0  0  1  0  0  0  0  0  0  0  0  0
   19.2324   -3.7964  -15.3502 O   0  0  0  0  0  0  0  0  0  0  0  0
   21.4922   -4.6195  -15.2863 C   0  0  2  0  0  0  0  0  0  0  0  0
   21.0634   -5.9501  -15.5680 N   0  0  0  0  0  0  0  0  0  0  0  0
   21.7046   -4.4262  -13.8227 C   0  0  0  0  0  0  0  0  0  0  0  0
   21.4587   -5.3583  -13.0169 O   0  0  0  0  0  0  0  0  0  0  0  0
   22.1727   -3.2392  -13.2853 O   0  0  0  0  0  0  0  0  0  0  0  0
  1  2  1  0
  2  3  1  0
  3  4  1  6
  5 12  1  0
  5  3  1  0
  6  5  2  0
  8  9  1  0
  8  7  1  0
  9 10  1  0
 11 10  1  1
 11 13  1  0
 11 12  1  0
 13 19  1  0
 14 13  2  0
 16 17  1  0
 16 15  1  6
 18 16  1  0
 18 19  1  1
 20 18  1  0
 20 22  1  0
 21 20  2  0
M  END
$$$$
