QSA.pdb
     RDKit          3D

 21 20  0  0  1  0  0  0  0  0999 V2000
   14.5256  -18.0976   22.5256 N   0  0  0  0  0  0  0  0  0  0  0  0
   14.0452  -16.9105   21.9396 C   0  0  0  0  0  0  0  0  0  0  0  0
   14.8767  -16.0198   21.5746 O   0  0  0  0  0  0  0  0  0  0  0  0
   12.6195  -16.6328   21.7187 C   0  0  0  0  0  0  0  0  0  0  0  0
   11.6963  -17.7815   22.0217 C   0  0  0  0  0  0  0  0  0  0  0  0
   10.2614  -17.5071   21.7371 C   0  0  2  0  0  0  0  0  0  0  0  0
   10.2196  -16.7806   20.4656 N   0  0  0  0  0  0  0  0  0  0  0  0
    9.5918  -16.7283   22.8122 C   0  0  0  0  0  0  0  0  0  0  0  0
    9.5667  -15.4780   22.6643 O   0  0  0  0  0  0  0  0  0  0  0  0
    7.7724  -18.5473   26.2871 O   0  0  0  0  0  0  0  0  0  0  0  0
    7.2298  -17.4448   25.6361 C   0  0  0  0  0  0  0  0  0  0  0  0
    8.2728  -16.6118   24.9407 C   0  0  2  0  0  0  0  0  0  0  0  0
    9.0096  -17.3532   23.9481 N   0  0  0  0  0  0  0  0  0  0  0  0
    9.1961  -15.9434   25.8545 C   0  0  0  0  0  0  0  0  0  0  0  0
   10.3460  -16.4128   26.0175 O   0  0  0  0  0  0  0  0  0  0  0  0
    9.3957  -12.8489   27.9863 C   0  0  0  0  0  0  0  0  0  0  0  0
    9.7400  -14.2880   27.6089 C   0  0  2  0  0  0  0  0  0  0  0  0
    8.8500  -14.7728   26.5763 N   0  0  0  0  0  0  0  0  0  0  0  0
    9.6077  -15.0843   28.8436 C   0  0  0  0  0  0  0  0  0  0  0  0
    8.7298  -15.9734   28.9462 O   0  0  0  0  0  0  0  0  0  0  0  0
   10.4627  -14.8454   29.8976 O   0  0  0  0  0  0  0  0  0  0  0  0
  2  3  2  0
  2  1  1  0
  4  2  1  0
  5  4  1  0
  6  7  1  6
  6  5  1  0
  8  6  1  0
  9  8  2  0
 10 11  1  0
 12 11  1  1
 12 13  1  0
 12 14  1  0
 13  8  1  0
 14 18  1  0
 15 14  2  0
 17 16  1  1
 17 19  1  0
 18 17  1  0
 19 20  2  0
 19 21  1  0
M  END
$$$$
