QSA.pdb
     RDKit          3D

 21 20  0  0  1  0  0  0  0  0999 V2000
   11.6442  -14.1872   20.4183 N   0  0  0  0  0  0  0  0  0  0  0  0
   11.1291  -13.6080   19.2425 C   0  0  0  0  0  0  0  0  0  0  0  0
   11.8748  -13.5251   18.2153 O   0  0  0  0  0  0  0  0  0  0  0  0
    9.7607  -13.0861   19.1261 C   0  0  0  0  0  0  0  0  0  0  0  0
    8.8798  -13.3477   20.3175 C   0  0  0  0  0  0  0  0  0  0  0  0
    8.5100  -14.7772   20.5051 C   0  0  2  0  0  0  0  0  0  0  0  0
    7.4081  -15.0484   19.5785 N   0  0  0  0  0  0  0  0  0  0  0  0
    8.1163  -15.0994   21.9022 C   0  0  0  0  0  0  0  0  0  0  0  0
    6.9372  -14.8057   22.2328 O   0  0  0  0  0  0  0  0  0  0  0  0
    9.9947  -18.0544   24.2159 O   0  0  0  0  0  0  0  0  0  0  0  0
    8.7082  -17.5597   24.3998 C   0  0  0  0  0  0  0  0  0  0  0  0
    8.6173  -16.0774   24.1552 C   0  0  2  0  0  0  0  0  0  0  0  0
    9.0154  -15.7057   22.8206 N   0  0  0  0  0  0  0  0  0  0  0  0
    9.3432  -15.2744   25.1365 C   0  0  0  0  0  0  0  0  0  0  0  0
   10.5623  -15.0457   24.9616 O   0  0  0  0  0  0  0  0  0  0  0  0
    8.7293  -13.1442   28.1541 C   0  0  0  0  0  0  0  0  0  0  0  0
    9.5499  -14.1197   27.3131 C   0  0  2  0  0  0  0  0  0  0  0  0
    8.7270  -14.7336   26.2935 N   0  0  0  0  0  0  0  0  0  0  0  0
   10.0815  -15.1292   28.2483 C   0  0  0  0  0  0  0  0  0  0  0  0
    9.6559  -16.3083   28.2341 O   0  0  0  0  0  0  0  0  0  0  0  0
   11.0597  -14.7681   29.1492 O   0  0  0  0  0  0  0  0  0  0  0  0
  2  3  2  0
  2  1  1  0
  4  2  1  0
  5  4  1  0
  6  7  1  6
  6  5  1  0
  8  6  1  0
  9  8  2  0
 10 11  1  0
 12 11  1  1
 12 13  1  0
 12 14  1  0
 13  8  1  0
 14 18  1  0
 15 14  2  0
 17 16  1  1
 17 19  1  0
 18 17  1  0
 19 20  2  0
 19 21  1  0
M  END
$$$$
