QSA.pdb
     RDKit          3D

 21 20  0  0  1  0  0  0  0  0999 V2000
   11.9092  -19.2101   20.7590 N   0  0  0  0  0  0  0  0  0  0  0  0
   12.4323  -18.3061   21.7037 C   0  0  0  0  0  0  0  0  0  0  0  0
   13.3643  -18.6912   22.4790 O   0  0  0  0  0  0  0  0  0  0  0  0
   11.9615  -16.9222   21.8510 C   0  0  0  0  0  0  0  0  0  0  0  0
   10.9116  -16.5015   20.8589 C   0  0  0  0  0  0  0  0  0  0  0  0
    9.5243  -16.8916   21.2309 C   0  0  2  0  0  0  0  0  0  0  0  0
    8.6706  -16.5302   20.0965 N   0  0  0  0  0  0  0  0  0  0  0  0
    9.0490  -16.2375   22.4787 C   0  0  0  0  0  0  0  0  0  0  0  0
    9.0139  -14.9787   22.4717 O   0  0  0  0  0  0  0  0  0  0  0  0
    7.5504  -18.4722   25.8297 O   0  0  0  0  0  0  0  0  0  0  0  0
    7.0350  -17.2381   25.4487 C   0  0  0  0  0  0  0  0  0  0  0  0
    8.0609  -16.3639   24.7790 C   0  0  2  0  0  0  0  0  0  0  0  0
    8.6541  -16.9847   23.6212 N   0  0  0  0  0  0  0  0  0  0  0  0
    9.1055  -15.8865   25.6820 C   0  0  0  0  0  0  0  0  0  0  0  0
   10.2674  -16.3416   25.5718 O   0  0  0  0  0  0  0  0  0  0  0  0
    9.5710  -13.3152   28.3989 C   0  0  0  0  0  0  0  0  0  0  0  0
    9.9330  -14.5669   27.6024 C   0  0  2  0  0  0  0  0  0  0  0  0
    8.8657  -14.9197   26.6913 N   0  0  0  0  0  0  0  0  0  0  0  0
   10.1646  -15.6364   28.5917 C   0  0  0  0  0  0  0  0  0  0  0  0
    9.4128  -16.6382   28.6458 O   0  0  0  0  0  0  0  0  0  0  0  0
   11.2231  -15.5301   29.4676 O   0  0  0  0  0  0  0  0  0  0  0  0
  2  3  2  0
  2  1  1  0
  4  2  1  0
  5  4  1  0
  6  7  1  6
  6  5  1  0
  8  6  1  0
  9  8  2  0
 10 11  1  0
 12 11  1  1
 12 13  1  0
 12 14  1  0
 13  8  1  0
 14 18  1  0
 15 14  2  0
 17 16  1  1
 17 19  1  0
 18 17  1  0
 19 20  2  0
 19 21  1  0
M  END
$$$$
