QSA.pdb
     RDKit          3D

 21 20  0  0  1  0  0  0  0  0999 V2000
   11.7880  -20.0450   19.9095 N   0  0  0  0  0  0  0  0  0  0  0  0
   12.1618  -18.9869   20.7605 C   0  0  0  0  0  0  0  0  0  0  0  0
   12.4754  -19.2434   21.9662 O   0  0  0  0  0  0  0  0  0  0  0  0
   12.2142  -17.5817   20.3346 C   0  0  0  0  0  0  0  0  0  0  0  0
   11.5345  -16.6128   21.2635 C   0  0  0  0  0  0  0  0  0  0  0  0
   10.0616  -16.7974   21.3723 C   0  0  2  0  0  0  0  0  0  0  0  0
    9.4790  -16.2343   20.1517 N   0  0  0  0  0  0  0  0  0  0  0  0
    9.4805  -16.1538   22.5801 C   0  0  0  0  0  0  0  0  0  0  0  0
    9.2846  -14.9117   22.5123 O   0  0  0  0  0  0  0  0  0  0  0  0
    7.8417  -18.4150   25.8328 O   0  0  0  0  0  0  0  0  0  0  0  0
    7.3820  -17.1692   25.4199 C   0  0  0  0  0  0  0  0  0  0  0  0
    8.4814  -16.2978   24.8746 C   0  0  2  0  0  0  0  0  0  0  0  0
    9.1609  -16.8928   23.7512 N   0  0  0  0  0  0  0  0  0  0  0  0
    9.4524  -15.8776   25.8822 C   0  0  0  0  0  0  0  0  0  0  0  0
   10.5914  -16.3989   25.8921 O   0  0  0  0  0  0  0  0  0  0  0  0
    9.7631  -13.3453   28.6601 C   0  0  0  0  0  0  0  0  0  0  0  0
   10.1507  -14.6000   27.8807 C   0  0  2  0  0  0  0  0  0  0  0  0
    9.1650  -14.8949   26.8633 N   0  0  0  0  0  0  0  0  0  0  0  0
   10.2399  -15.6918   28.8687 C   0  0  0  0  0  0  0  0  0  0  0  0
   11.1153  -15.6792   29.7660 O   0  0  0  0  0  0  0  0  0  0  0  0
    9.3470  -16.7393   28.8020 O   0  0  0  0  0  0  0  0  0  0  0  0
  2  3  2  0
  2  1  1  0
  4  2  1  0
  5  4  1  0
  6  7  1  6
  6  5  1  0
  8  6  1  0
  9  8  2  0
 10 11  1  0
 12 11  1  1
 12 13  1  0
 12 14  1  0
 13  8  1  0
 14 18  1  0
 15 14  2  0
 17 16  1  1
 17 19  1  0
 18 17  1  0
 19 20  2  0
 19 21  1  0
M  END
$$$$
