QSA.pdb
     RDKit          3D

 21 20  0  0  1  0  0  0  0  0999 V2000
   16.1241  -19.4916   12.8611 N   0  0  0  0  0  0  0  0  0  0  0  0
   14.9014  -19.2289   13.5088 C   0  0  0  0  0  0  0  0  0  0  0  0
   14.8179  -19.3996   14.7665 O   0  0  0  0  0  0  0  0  0  0  0  0
   13.6965  -18.7607   12.8104 C   0  0  0  0  0  0  0  0  0  0  0  0
   12.5720  -18.3256   13.7102 C   0  0  0  0  0  0  0  0  0  0  0  0
   12.0502  -16.9612   13.4244 C   0  0  2  0  0  0  0  0  0  0  0  0
   12.8542  -16.4296   12.3211 N   0  0  0  0  0  0  0  0  0  0  0  0
   12.1068  -16.0562   14.6026 C   0  0  0  0  0  0  0  0  0  0  0  0
   13.1337  -15.3345   14.7046 O   0  0  0  0  0  0  0  0  0  0  0  0
    9.2301  -16.1097   17.8266 O   0  0  0  0  0  0  0  0  0  0  0  0
    9.7496  -14.9178   17.3331 C   0  0  0  0  0  0  0  0  0  0  0  0
   11.0971  -15.0971   16.6869 C   0  0  2  0  0  0  0  0  0  0  0  0
   11.0632  -16.0025   15.5658 N   0  0  0  0  0  0  0  0  0  0  0  0
   12.1482  -15.4947   17.6205 C   0  0  0  0  0  0  0  0  0  0  0  0
   12.4158  -16.7102   17.7622 O   0  0  0  0  0  0  0  0  0  0  0  0
   15.0064  -13.8799   19.4099 C   0  0  0  0  0  0  0  0  0  0  0  0
   14.0190  -15.0189   19.1657 C   0  0  2  0  0  0  0  0  0  0  0  0
   12.8909  -14.5593   18.3849 N   0  0  0  0  0  0  0  0  0  0  0  0
   13.5900  -15.4893   20.4964 C   0  0  0  0  0  0  0  0  0  0  0  0
   14.4243  -15.9160   21.3291 O   0  0  0  0  0  0  0  0  0  0  0  0
   12.2523  -15.4580   20.8262 O   0  0  0  0  0  0  0  0  0  0  0  0
  2  3  2  0
  2  1  1  0
  4  2  1  0
  5  4  1  0
  6  7  1  6
  6  5  1  0
  8  6  1  0
  9  8  2  0
 10 11  1  0
 12 11  1  1
 12 13  1  0
 12 14  1  0
 13  8  1  0
 14 18  1  0
 15 14  2  0
 17 16  1  1
 17 19  1  0
 18 17  1  0
 19 20  2  0
 19 21  1  0
M  END
$$$$
