QSA.pdb
     RDKit          3D

 21 20  0  0  1  0  0  0  0  0999 V2000
   13.8723  -25.0304   17.6922 N   0  0  0  0  0  0  0  0  0  0  0  0
   12.5805  -24.7268   17.2205 C   0  0  0  0  0  0  0  0  0  0  0  0
   12.1000  -25.4002   16.2543 O   0  0  0  0  0  0  0  0  0  0  0  0
   11.7386  -23.6635   17.7855 C   0  0  0  0  0  0  0  0  0  0  0  0
   12.3029  -22.9910   19.0074 C   0  0  0  0  0  0  0  0  0  0  0  0
   11.4210  -21.9459   19.5951 C   0  0  2  0  0  0  0  0  0  0  0  0
   11.3236  -20.8744   18.6007 N   0  0  0  0  0  0  0  0  0  0  0  0
   11.9242  -21.4190   20.8911 C   0  0  0  0  0  0  0  0  0  0  0  0
   13.1155  -21.0110   20.9042 O   0  0  0  0  0  0  0  0  0  0  0  0
    9.4583  -19.9166   23.9609 O   0  0  0  0  0  0  0  0  0  0  0  0
   10.8048  -19.6336   23.7590 C   0  0  0  0  0  0  0  0  0  0  0  0
   11.5876  -20.8366   23.3059 C   0  0  2  0  0  0  0  0  0  0  0  0
   11.1118  -21.3749   22.0563 N   0  0  0  0  0  0  0  0  0  0  0  0
   11.6699  -21.8959   24.3088 C   0  0  0  0  0  0  0  0  0  0  0  0
   10.8353  -22.8297   24.2853 O   0  0  0  0  0  0  0  0  0  0  0  0
   14.0011  -23.2708   26.8606 C   0  0  0  0  0  0  0  0  0  0  0  0
   12.6016  -22.9364   26.3492 C   0  0  2  0  0  0  0  0  0  0  0  0
   12.6620  -21.9194   25.3217 N   0  0  0  0  0  0  0  0  0  0  0  0
   11.8330  -22.4681   27.5180 C   0  0  0  0  0  0  0  0  0  0  0  0
   11.4168  -21.2875   27.5848 O   0  0  0  0  0  0  0  0  0  0  0  0
   11.5703  -23.3432   28.5496 O   0  0  0  0  0  0  0  0  0  0  0  0
  2  3  2  0
  2  1  1  0
  4  2  1  0
  5  4  1  0
  6  7  1  6
  6  5  1  0
  8  6  1  0
  9  8  2  0
 10 11  1  0
 12 11  1  1
 12 13  1  0
 12 14  1  0
 13  8  1  0
 14 18  1  0
 15 14  2  0
 17 16  1  1
 17 19  1  0
 18 17  1  0
 19 20  2  0
 19 21  1  0
M  END
$$$$
