QSA.pdb
     RDKit          3D

 21 20  0  0  1  0  0  0  0  0999 V2000
   12.6300  -14.7739   20.5894 N   0  0  0  0  0  0  0  0  0  0  0  0
   12.1497  -14.6086   19.2759 C   0  0  0  0  0  0  0  0  0  0  0  0
   12.5143  -15.4297   18.3754 O   0  0  0  0  0  0  0  0  0  0  0  0
   11.2372  -13.5293   18.8745 C   0  0  0  0  0  0  0  0  0  0  0  0
   10.1245  -13.2464   19.8468 C   0  0  0  0  0  0  0  0  0  0  0  0
    8.9906  -14.2082   19.7784 C   0  0  2  0  0  0  0  0  0  0  0  0
    8.1400  -13.7724   18.6680 N   0  0  0  0  0  0  0  0  0  0  0  0
    8.2113  -14.2824   21.0425 C   0  0  0  0  0  0  0  0  0  0  0  0
    7.4175  -13.3308   21.2668 O   0  0  0  0  0  0  0  0  0  0  0  0
    8.1119  -17.7695   23.6037 O   0  0  0  0  0  0  0  0  0  0  0  0
    7.0679  -16.8722   23.4063 C   0  0  0  0  0  0  0  0  0  0  0  0
    7.5505  -15.4700   23.1488 C   0  0  2  0  0  0  0  0  0  0  0  0
    8.3490  -15.3645   21.9534 N   0  0  0  0  0  0  0  0  0  0  0  0
    8.2599  -14.8759   24.2794 C   0  0  0  0  0  0  0  0  0  0  0  0
    9.5124  -14.8921   24.2953 O   0  0  0  0  0  0  0  0  0  0  0  0
    7.5228  -12.8333   27.3523 C   0  0  0  0  0  0  0  0  0  0  0  0
    8.3666  -13.7662   26.4864 C   0  0  2  0  0  0  0  0  0  0  0  0
    7.5912  -14.2733   25.3751 N   0  0  0  0  0  0  0  0  0  0  0  0
    8.8131  -14.8611   27.3685 C   0  0  0  0  0  0  0  0  0  0  0  0
    8.4020  -16.0333   27.1994 O   0  0  0  0  0  0  0  0  0  0  0  0
    9.6946  -14.5886   28.3920 O   0  0  0  0  0  0  0  0  0  0  0  0
  2  3  2  0
  2  1  1  0
  4  2  1  0
  5  4  1  0
  6  7  1  6
  6  5  1  0
  8  6  1  0
  9  8  2  0
 10 11  1  0
 12 11  1  1
 12 13  1  0
 12 14  1  0
 13  8  1  0
 14 18  1  0
 15 14  2  0
 17 16  1  1
 17 19  1  0
 18 17  1  0
 19 20  2  0
 19 21  1  0
M  END
$$$$
