QSA.pdb
     RDKit          3D

 21 20  0  0  1  0  0  0  0  0999 V2000
   13.4844  -18.8035   24.0009 N   0  0  0  0  0  0  0  0  0  0  0  0
   13.3545  -19.5446   22.8104 C   0  0  0  0  0  0  0  0  0  0  0  0
   13.8357  -20.7209   22.7579 O   0  0  0  0  0  0  0  0  0  0  0  0
   12.6854  -19.0355   21.6055 C   0  0  0  0  0  0  0  0  0  0  0  0
   12.0893  -17.6611   21.7452 C   0  0  0  0  0  0  0  0  0  0  0  0
   10.6589  -17.5690   21.3439 C   0  0  2  0  0  0  0  0  0  0  0  0
   10.6449  -17.1245   19.9480 N   0  0  0  0  0  0  0  0  0  0  0  0
    9.8711  -16.6436   22.2004 C   0  0  0  0  0  0  0  0  0  0  0  0
   10.1304  -15.4168   22.0842 O   0  0  0  0  0  0  0  0  0  0  0  0
    6.8790  -18.0257   24.9388 O   0  0  0  0  0  0  0  0  0  0  0  0
    6.7663  -16.7889   24.3132 C   0  0  0  0  0  0  0  0  0  0  0  0
    8.1012  -16.2137   23.9227 C   0  0  2  0  0  0  0  0  0  0  0  0
    8.8779  -17.1101   23.1036 N   0  0  0  0  0  0  0  0  0  0  0  0
    8.8981  -15.7549   25.0581 C   0  0  0  0  0  0  0  0  0  0  0  0
    9.9192  -16.3992   25.3917 O   0  0  0  0  0  0  0  0  0  0  0  0
    8.8105  -13.0124   27.6580 C   0  0  0  0  0  0  0  0  0  0  0  0
    9.3647  -14.2582   26.9701 C   0  0  2  0  0  0  0  0  0  0  0  0
    8.5679  -14.5999   25.8117 N   0  0  0  0  0  0  0  0  0  0  0  0
    9.3331  -15.3369   27.9758 C   0  0  0  0  0  0  0  0  0  0  0  0
    8.4751  -16.2490   27.9160 O   0  0  0  0  0  0  0  0  0  0  0  0
   10.2612  -15.3395   28.9945 O   0  0  0  0  0  0  0  0  0  0  0  0
  2  3  2  0
  2  1  1  0
  4  2  1  0
  5  4  1  0
  6  7  1  6
  6  5  1  0
  8  6  1  0
  9  8  2  0
 10 11  1  0
 12 11  1  1
 12 13  1  0
 12 14  1  0
 13  8  1  0
 14 18  1  0
 15 14  2  0
 17 16  1  1
 17 19  1  0
 18 17  1  0
 19 20  2  0
 19 21  1  0
M  END
$$$$
