QSA.pdb
     RDKit          3D

 21 20  0  0  1  0  0  0  0  0999 V2000
    9.2027  -12.5496   18.7111 N   0  0  0  0  0  0  0  0  0  0  0  0
    8.1550  -13.3646   18.2404 C   0  0  0  0  0  0  0  0  0  0  0  0
    7.4563  -12.9669   17.2547 O   0  0  0  0  0  0  0  0  0  0  0  0
    7.8139  -14.6681   18.8262 C   0  0  0  0  0  0  0  0  0  0  0  0
    8.6459  -15.0652   20.0152 C   0  0  0  0  0  0  0  0  0  0  0  0
    8.1920  -16.3097   20.6938 C   0  0  2  0  0  0  0  0  0  0  0  0
    7.2666  -16.9737   19.7723 N   0  0  0  0  0  0  0  0  0  0  0  0
    7.5388  -16.0544   22.0049 C   0  0  0  0  0  0  0  0  0  0  0  0
    6.3953  -15.5284   21.9670 O   0  0  0  0  0  0  0  0  0  0  0  0
    8.2768  -18.2135   25.5118 O   0  0  0  0  0  0  0  0  0  0  0  0
    7.1646  -17.4316   25.2196 C   0  0  0  0  0  0  0  0  0  0  0  0
    7.5249  -16.1544   24.5095 C   0  0  2  0  0  0  0  0  0  0  0  0
    8.1642  -16.3830   23.2380 N   0  0  0  0  0  0  0  0  0  0  0  0
    8.3287  -15.2399   25.3172 C   0  0  0  0  0  0  0  0  0  0  0  0
    9.5741  -15.2355   25.1832 O   0  0  0  0  0  0  0  0  0  0  0  0
    7.8555  -12.4806   27.8411 C   0  0  0  0  0  0  0  0  0  0  0  0
    8.6312  -13.5893   27.1331 C   0  0  2  0  0  0  0  0  0  0  0  0
    7.7604  -14.3444   26.2584 N   0  0  0  0  0  0  0  0  0  0  0  0
    9.1935  -14.4458   28.1944 C   0  0  0  0  0  0  0  0  0  0  0  0
    8.8093  -15.6305   28.3377 O   0  0  0  0  0  0  0  0  0  0  0  0
   10.1546  -13.9337   29.0388 O   0  0  0  0  0  0  0  0  0  0  0  0
  2  3  2  0
  2  1  1  0
  4  2  1  0
  5  4  1  0
  6  7  1  6
  6  5  1  0
  8  6  1  0
  9  8  2  0
 10 11  1  0
 12 11  1  1
 12 13  1  0
 12 14  1  0
 13  8  1  0
 14 18  1  0
 15 14  2  0
 17 16  1  1
 17 19  1  0
 18 17  1  0
 19 20  2  0
 19 21  1  0
M  END
$$$$
