QSA.pdb
     RDKit          3D

 21 20  0  0  1  0  0  0  0  0999 V2000
    4.5059  -22.7298   24.3833 N   0  0  0  0  0  0  0  0  0  0  0  0
    3.7309  -22.0852   23.3998 C   0  0  0  0  0  0  0  0  0  0  0  0
    2.4628  -22.1087   23.4973 O   0  0  0  0  0  0  0  0  0  0  0  0
    4.3055  -21.3744   22.2497 C   0  0  0  0  0  0  0  0  0  0  0  0
    5.7976  -21.1881   22.3014 C   0  0  0  0  0  0  0  0  0  0  0  0
    6.2862  -19.9566   21.6231 C   0  0  2  0  0  0  0  0  0  0  0  0
    6.8502  -20.3827   20.3399 N   0  0  0  0  0  0  0  0  0  0  0  0
    7.2952  -19.2118   22.4218 C   0  0  0  0  0  0  0  0  0  0  0  0
    8.3990  -18.9870   21.8588 O   0  0  0  0  0  0  0  0  0  0  0  0
    6.3428  -16.9491   25.8034 O   0  0  0  0  0  0  0  0  0  0  0  0
    7.5579  -16.8199   25.1396 C   0  0  0  0  0  0  0  0  0  0  0  0
    8.0381  -18.1199   24.5524 C   0  0  2  0  0  0  0  0  0  0  0  0
    7.0361  -18.7741   23.7488 N   0  0  0  0  0  0  0  0  0  0  0  0
    8.5715  -19.0509   25.5439 C   0  0  0  0  0  0  0  0  0  0  0  0
    7.7871  -19.8126   26.1553 O   0  0  0  0  0  0  0  0  0  0  0  0
   11.8900  -20.2699   26.8272 C   0  0  0  0  0  0  0  0  0  0  0  0
   10.3878  -20.0116   26.9195 C   0  0  2  0  0  0  0  0  0  0  0  0
    9.9529  -19.1361   25.8527 N   0  0  0  0  0  0  0  0  0  0  0  0
   10.1518  -19.3996   28.2408 C   0  0  0  0  0  0  0  0  0  0  0  0
    9.7071  -18.2316   28.3401 O   0  0  0  0  0  0  0  0  0  0  0  0
   10.4250  -20.1243   29.3806 O   0  0  0  0  0  0  0  0  0  0  0  0
  2  3  2  0
  2  1  1  0
  4  2  1  0
  5  4  1  0
  6  7  1  6
  6  5  1  0
  8  6  1  0
  9  8  2  0
 10 11  1  0
 12 11  1  1
 12 13  1  0
 12 14  1  0
 13  8  1  0
 14 18  1  0
 15 14  2  0
 17 16  1  6
 17 19  1  0
 18 17  1  0
 19 20  2  0
 19 21  1  0
M  END
$$$$
