QSA.pdb
     RDKit          3D

 21 20  0  0  1  0  0  0  0  0999 V2000
   13.1987  -15.2505   20.4351 N   0  0  0  0  0  0  0  0  0  0  0  0
   12.7741  -14.3129   19.4738 C   0  0  0  0  0  0  0  0  0  0  0  0
   13.6362  -13.7827   18.7033 O   0  0  0  0  0  0  0  0  0  0  0  0
   11.3737  -13.9033   19.3018 C   0  0  0  0  0  0  0  0  0  0  0  0
   10.4983  -14.9143   18.6124 C   0  0  0  0  0  0  0  0  0  0  0  0
    9.0683  -14.5158   18.5045 C   0  0  2  0  0  0  0  0  0  0  0  0
    9.0484  -13.2059   17.8486 N   0  0  0  0  0  0  0  0  0  0  0  0
    8.3779  -14.4578   19.8201 C   0  0  0  0  0  0  0  0  0  0  0  0
    8.3054  -13.3244   20.3641 O   0  0  0  0  0  0  0  0  0  0  0  0
    6.7104  -17.9244   21.8126 O   0  0  0  0  0  0  0  0  0  0  0  0
    6.1008  -16.6745   21.8222 C   0  0  0  0  0  0  0  0  0  0  0  0
    7.0875  -15.5479   21.6721 C   0  0  2  0  0  0  0  0  0  0  0  0
    7.8273  -15.6137   20.4368 N   0  0  0  0  0  0  0  0  0  0  0  0
    8.0067  -15.4178   22.8002 C   0  0  0  0  0  0  0  0  0  0  0  0
    9.1890  -15.8130   22.6775 O   0  0  0  0  0  0  0  0  0  0  0  0
    8.1073  -13.8441   26.2181 C   0  0  0  0  0  0  0  0  0  0  0  0
    8.5850  -14.7941   25.1220 C   0  0  2  0  0  0  0  0  0  0  0  0
    7.6210  -14.8582   24.0449 N   0  0  0  0  0  0  0  0  0  0  0  0
    8.7584  -16.1122   25.7612 C   0  0  0  0  0  0  0  0  0  0  0  0
    7.9803  -17.0608   25.5037 O   0  0  0  0  0  0  0  0  0  0  0  0
    9.7914  -16.3007   26.6536 O   0  0  0  0  0  0  0  0  0  0  0  0
  2  3  2  0
  2  1  1  0
  4  2  1  0
  5  4  1  0
  6  7  1  1
  6  5  1  0
  8  6  1  0
  9  8  2  0
 10 11  1  0
 12 11  1  1
 12 13  1  0
 12 14  1  0
 13  8  1  0
 14 18  1  0
 15 14  2  0
 17 16  1  1
 17 19  1  0
 18 17  1  0
 19 20  2  0
 19 21  1  0
M  END
$$$$
