QSA.pdb
     RDKit          3D

 21 20  0  0  1  0  0  0  0  0999 V2000
   14.1374  -21.7480   17.2189 N   0  0  0  0  0  0  0  0  0  0  0  0
   14.0432  -20.4588   16.6599 C   0  0  0  0  0  0  0  0  0  0  0  0
   15.0978  -19.8912   16.2315 O   0  0  0  0  0  0  0  0  0  0  0  0
   12.7810  -19.7168   16.5376 C   0  0  0  0  0  0  0  0  0  0  0  0
   11.5747  -20.4233   17.0937 C   0  0  0  0  0  0  0  0  0  0  0  0
   10.3119  -19.6398   17.0100 C   0  0  2  0  0  0  0  0  0  0  0  0
   10.4508  -18.7462   15.8574 N   0  0  0  0  0  0  0  0  0  0  0  0
   10.0224  -18.8659   18.2460 C   0  0  0  0  0  0  0  0  0  0  0  0
   10.5755  -17.7387   18.3425 O   0  0  0  0  0  0  0  0  0  0  0  0
    7.5324  -20.3538   21.4260 O   0  0  0  0  0  0  0  0  0  0  0  0
    7.4788  -19.0263   21.0152 C   0  0  0  0  0  0  0  0  0  0  0  0
    8.7682  -18.5596   20.3947 C   0  0  2  0  0  0  0  0  0  0  0  0
    9.1692  -19.3638   19.2677 N   0  0  0  0  0  0  0  0  0  0  0  0
    9.8707  -18.4455   21.3465 C   0  0  0  0  0  0  0  0  0  0  0  0
   10.7667  -19.3209   21.3559 O   0  0  0  0  0  0  0  0  0  0  0  0
   11.2442  -15.9287   23.7851 C   0  0  0  0  0  0  0  0  0  0  0  0
   11.1286  -17.3120   23.1484 C   0  0  2  0  0  0  0  0  0  0  0  0
    9.9782  -17.3776   22.2732 N   0  0  0  0  0  0  0  0  0  0  0  0
   11.0072  -18.2727   24.2612 C   0  0  0  0  0  0  0  0  0  0  0  0
    9.9225  -18.8573   24.4926 O   0  0  0  0  0  0  0  0  0  0  0  0
   12.1032  -18.5294   25.0560 O   0  0  0  0  0  0  0  0  0  0  0  0
  2  3  2  0
  2  1  1  0
  4  2  1  0
  5  4  1  0
  6  7  1  6
  6  5  1  0
  8  6  1  0
  9  8  2  0
 10 11  1  0
 12 11  1  1
 12 13  1  0
 12 14  1  0
 13  8  1  0
 14 18  1  0
 15 14  2  0
 17 16  1  1
 17 19  1  0
 18 17  1  0
 19 20  2  0
 19 21  1  0
M  END
$$$$
