QSA.pdb
     RDKit          3D

 21 20  0  0  1  0  0  0  0  0999 V2000
    8.0616  -21.4064   18.7878 N   0  0  0  0  0  0  0  0  0  0  0  0
    8.9366  -20.3328   18.5323 C   0  0  0  0  0  0  0  0  0  0  0  0
    9.9092  -20.1247   19.3252 O   0  0  0  0  0  0  0  0  0  0  0  0
    8.7941  -19.4238   17.3869 C   0  0  0  0  0  0  0  0  0  0  0  0
    7.6764  -18.4238   17.5072 C   0  0  0  0  0  0  0  0  0  0  0  0
    8.0921  -17.0104   17.2956 C   0  0  2  0  0  0  0  0  0  0  0  0
    9.1084  -17.0278   16.2406 N   0  0  0  0  0  0  0  0  0  0  0  0
    8.6209  -16.3671   18.5273 C   0  0  0  0  0  0  0  0  0  0  0  0
    9.8718  -16.2417   18.5999 O   0  0  0  0  0  0  0  0  0  0  0  0
    6.2367  -15.4289   21.9969 O   0  0  0  0  0  0  0  0  0  0  0  0
    7.1791  -14.5300   21.5093 C   0  0  0  0  0  0  0  0  0  0  0  0
    8.2687  -15.2047   20.7202 C   0  0  2  0  0  0  0  0  0  0  0  0
    7.7679  -15.9156   19.5706 N   0  0  0  0  0  0  0  0  0  0  0  0
    9.1171  -16.0831   21.5221 C   0  0  0  0  0  0  0  0  0  0  0  0
    8.8595  -17.3080   21.5713 O   0  0  0  0  0  0  0  0  0  0  0  0
   12.4145  -16.0625   23.2717 C   0  0  0  0  0  0  0  0  0  0  0  0
   10.9724  -16.5323   23.0938 C   0  0  2  0  0  0  0  0  0  0  0  0
   10.2337  -15.6109   22.2577 N   0  0  0  0  0  0  0  0  0  0  0  0
   10.3902  -16.6081   24.4470 C   0  0  0  0  0  0  0  0  0  0  0  0
   10.8351  -17.4163   25.2958 O   0  0  0  0  0  0  0  0  0  0  0  0
    9.3423  -15.7774   24.7802 O   0  0  0  0  0  0  0  0  0  0  0  0
  2  3  2  0
  2  1  1  0
  4  2  1  0
  5  4  1  0
  6  7  1  6
  6  5  1  0
  8  6  1  0
  9  8  2  0
 10 11  1  0
 12 11  1  1
 12 13  1  0
 12 14  1  0
 13  8  1  0
 14 18  1  0
 15 14  2  0
 17 16  1  1
 17 19  1  0
 18 17  1  0
 19 20  2  0
 19 21  1  0
M  END
$$$$
