QSA.pdb
     RDKit          3D

 21 20  0  0  1  0  0  0  0  0999 V2000
   15.1487  -14.7749   22.0286 N   0  0  0  0  0  0  0  0  0  0  0  0
   14.3770  -15.9464   21.9037 C   0  0  0  0  0  0  0  0  0  0  0  0
   14.8068  -16.8960   21.1747 O   0  0  0  0  0  0  0  0  0  0  0  0
   13.0853  -16.1436   22.5754 C   0  0  0  0  0  0  0  0  0  0  0  0
   12.3445  -17.3889   22.1702 C   0  0  0  0  0  0  0  0  0  0  0  0
   10.8888  -17.1874   21.9337 C   0  0  2  0  0  0  0  0  0  0  0  0
   10.7706  -16.4081   20.6988 N   0  0  0  0  0  0  0  0  0  0  0  0
   10.2046  -16.4988   23.0599 C   0  0  0  0  0  0  0  0  0  0  0  0
   10.1441  -15.2428   22.9935 O   0  0  0  0  0  0  0  0  0  0  0  0
    8.0131  -18.6268   26.0773 O   0  0  0  0  0  0  0  0  0  0  0  0
    7.6740  -17.3622   25.6084 C   0  0  0  0  0  0  0  0  0  0  0  0
    8.8752  -16.5607   25.1842 C   0  0  2  0  0  0  0  0  0  0  0  0
    9.6466  -17.2119   24.1553 N   0  0  0  0  0  0  0  0  0  0  0  0
    9.7445  -16.1733   26.2927 C   0  0  0  0  0  0  0  0  0  0  0  0
   10.8397  -16.7610   26.4483 O   0  0  0  0  0  0  0  0  0  0  0  0
    9.8817  -13.5817   29.0306 C   0  0  0  0  0  0  0  0  0  0  0  0
   10.2945  -14.8688   28.3199 C   0  0  2  0  0  0  0  0  0  0  0  0
    9.4047  -15.1505   27.2143 N   0  0  0  0  0  0  0  0  0  0  0  0
   10.2400  -15.9390   29.3338 C   0  0  0  0  0  0  0  0  0  0  0  0
    9.3789  -16.8476   29.2663 O   0  0  0  0  0  0  0  0  0  0  0  0
   11.1498  -15.9373   30.3688 O   0  0  0  0  0  0  0  0  0  0  0  0
  2  3  2  0
  2  1  1  0
  4  2  1  0
  5  4  1  0
  6  7  1  6
  6  5  1  0
  8  6  1  0
  9  8  2  0
 10 11  1  0
 12 11  1  1
 12 13  1  0
 12 14  1  0
 13  8  1  0
 14 18  1  0
 15 14  2  0
 17 16  1  1
 17 19  1  0
 18 17  1  0
 19 20  2  0
 19 21  1  0
M  END
$$$$
