ACD.pdb
     RDKit          3D

 20 19  0  0  1  0  0  0  0  0999 V2000
    6.7040  -14.7742   20.3921 C   0  0  0  0  0  0  0  0  0  0  0  0
    7.0938  -13.3644   20.7989 C   0  0  2  0  0  0  0  0  0  0  0  0
    7.8883  -12.7850   19.7590 N   0  0  0  0  0  0  0  0  0  0  0  0
    7.8522  -13.4816   22.0629 C   0  0  0  0  0  0  0  0  0  0  0  0
    9.0952  -13.7056   21.9868 O   0  0  0  0  0  0  0  0  0  0  0  0
    7.2492  -13.3544   23.3416 N   0  0  0  0  0  0  0  0  0  0  0  0
    8.0622  -13.5918   24.5097 C   0  0  1  0  0  0  0  0  0  0  0  0
    7.2328  -13.0902   25.6991 C   0  0  0  0  0  0  0  0  0  0  0  0
    5.5651  -13.7211   25.5028 S   0  0  0  0  0  0  0  0  0  0  0  0
    8.2692  -15.0419   24.7554 C   0  0  0  0  0  0  0  0  0  0  0  0
    7.3953  -15.9020   24.4853 O   0  0  0  0  0  0  0  0  0  0  0  0
    9.4844  -15.5100   25.3136 N   0  0  0  0  0  0  0  0  0  0  0  0
    9.7507  -16.9499   25.5114 C   0  0  1  0  0  0  0  0  0  0  0  0
   10.9203  -17.2430   24.6373 C   0  0  0  0  0  0  0  0  0  0  0  0
   11.5019  -18.5680   24.7113 C   0  0  0  0  0  0  0  0  0  0  0  0
   10.8263  -19.4410   25.3596 O   0  0  0  0  0  0  0  0  0  0  0  0
    9.9895  -17.2289   26.9324 C   0  0  0  0  0  0  0  0  0  0  0  0
    9.8674  -18.5130   27.4120 O   0  0  0  0  0  0  0  0  0  0  0  0
   12.6831  -19.0264   24.1834 O   0  0  0  0  0  0  0  0  0  0  0  0
   10.3126  -16.3351   27.7841 O   0  0  0  0  0  0  0  0  0  0  0  0
  2  1  1  6
  3  2  1  0
  4  5  2  0
  4  2  1  0
  6  4  1  0
  7  6  1  0
  7  8  1  1
  9  8  1  0
 10 12  1  0
 10  7  1  0
 11 10  2  0
 13 12  1  0
 13 14  1  6
 15 16  2  0
 15 14  1  0
 17 13  1  0
 18 17  1  0
 19 15  1  0
 20 17  2  0
M  END
$$$$
