ACD.pdb
     RDKit          3D

 20 19  0  0  1  0  0  0  0  0999 V2000
    5.7933  -16.7247   21.3261 C   0  0  0  0  0  0  0  0  0  0  0  0
    6.1719  -15.2658   21.1440 C   0  0  2  0  0  0  0  0  0  0  0  0
    6.6188  -15.0676   19.7988 N   0  0  0  0  0  0  0  0  0  0  0  0
    7.2435  -14.9799   22.1219 C   0  0  0  0  0  0  0  0  0  0  0  0
    8.4422  -15.0646   21.7255 O   0  0  0  0  0  0  0  0  0  0  0  0
    6.9845  -14.6190   23.4701 N   0  0  0  0  0  0  0  0  0  0  0  0
    8.1077  -14.3834   24.3446 C   0  0  1  0  0  0  0  0  0  0  0  0
    7.5693  -13.5032   25.4802 C   0  0  0  0  0  0  0  0  0  0  0  0
    5.9620  -14.1460   25.9503 S   0  0  0  0  0  0  0  0  0  0  0  0
    8.5720  -15.6332   24.9992 C   0  0  0  0  0  0  0  0  0  0  0  0
    7.7857  -16.5592   25.3166 O   0  0  0  0  0  0  0  0  0  0  0  0
    9.9450  -15.8239   25.2918 N   0  0  0  0  0  0  0  0  0  0  0  0
   10.4473  -17.0681   25.9108 C   0  0  1  0  0  0  0  0  0  0  0  0
   11.8675  -17.1633   25.4727 C   0  0  0  0  0  0  0  0  0  0  0  0
   12.1242  -17.4767   24.0815 C   0  0  0  0  0  0  0  0  0  0  0  0
   13.3407  -17.3685   23.6982 O   0  0  0  0  0  0  0  0  0  0  0  0
   10.2803  -17.0105   27.3677 C   0  0  0  0  0  0  0  0  0  0  0  0
    9.9339  -15.8251   27.9749 O   0  0  0  0  0  0  0  0  0  0  0  0
   11.2440  -17.8752   23.1066 O   0  0  0  0  0  0  0  0  0  0  0  0
   10.4393  -18.0154   28.1382 O   0  0  0  0  0  0  0  0  0  0  0  0
  2  1  1  6
  3  2  1  0
  4  5  2  0
  4  2  1  0
  6  4  1  0
  7  6  1  0
  7  8  1  1
  9  8  1  0
 10 12  1  0
 10  7  1  0
 11 10  2  0
 13 12  1  0
 13 14  1  1
 15 16  2  0
 15 14  1  0
 17 13  1  0
 18 17  1  0
 19 15  1  0
 20 17  2  0
M  END
$$$$
