ACD.pdb
     RDKit          3D

 20 19  0  0  1  0  0  0  0  0999 V2000
    6.4594  -14.4244   20.3854 C   0  0  0  0  0  0  0  0  0  0  0  0
    7.1481  -13.1183   20.7382 C   0  0  2  0  0  0  0  0  0  0  0  0
    8.0290  -12.7557   19.6700 N   0  0  0  0  0  0  0  0  0  0  0  0
    7.8868  -13.3544   21.9972 C   0  0  0  0  0  0  0  0  0  0  0  0
    9.0844  -13.7538   21.9129 O   0  0  0  0  0  0  0  0  0  0  0  0
    7.3133  -13.1533   23.2800 N   0  0  0  0  0  0  0  0  0  0  0  0
    8.1068  -13.4693   24.4429 C   0  0  1  0  0  0  0  0  0  0  0  0
    7.3380  -12.8893   25.6374 C   0  0  0  0  0  0  0  0  0  0  0  0
    5.6279  -13.4096   25.4870 S   0  0  0  0  0  0  0  0  0  0  0  0
    8.1727  -14.9328   24.6879 C   0  0  0  0  0  0  0  0  0  0  0  0
    7.3100  -15.7293   24.2431 O   0  0  0  0  0  0  0  0  0  0  0  0
    9.2329  -15.4874   25.4465 N   0  0  0  0  0  0  0  0  0  0  0  0
    9.5260  -16.9357   25.4385 C   0  0  1  0  0  0  0  0  0  0  0  0
   10.4045  -17.1385   24.2532 C   0  0  0  0  0  0  0  0  0  0  0  0
   11.0342  -18.4337   24.0945 C   0  0  0  0  0  0  0  0  0  0  0  0
   10.5431  -19.3851   24.7961 O   0  0  0  0  0  0  0  0  0  0  0  0
   10.1451  -17.3327   26.7085 C   0  0  0  0  0  0  0  0  0  0  0  0
    9.9922  -18.6176   27.1771 O   0  0  0  0  0  0  0  0  0  0  0  0
   12.0910  -18.7911   23.2948 O   0  0  0  0  0  0  0  0  0  0  0  0
   10.8382  -16.5444   27.4344 O   0  0  0  0  0  0  0  0  0  0  0  0
  2  1  1  6
  3  2  1  0
  4  5  2  0
  4  2  1  0
  6  4  1  0
  7  6  1  0
  7  8  1  1
  9  8  1  0
 10 12  1  0
 10  7  1  0
 11 10  2  0
 13 12  1  0
 13 14  1  6
 15 16  2  0
 15 14  1  0
 17 13  1  0
 18 17  1  0
 19 15  1  0
 20 17  2  0
M  END
$$$$
