ACD.pdb
     RDKit          3D

 20 19  0  0  1  0  0  0  0  0999 V2000
    8.7654  -17.6166   16.8331 C   0  0  0  0  0  0  0  0  0  0  0  0
    8.7083  -18.2984   18.1883 C   0  0  2  0  0  0  0  0  0  0  0  0
    7.3661  -18.7309   18.4333 N   0  0  0  0  0  0  0  0  0  0  0  0
    9.1494  -17.2993   19.1852 C   0  0  0  0  0  0  0  0  0  0  0  0
   10.3332  -16.8614   19.0979 O   0  0  0  0  0  0  0  0  0  0  0  0
    8.3085  -16.8183   20.2227 N   0  0  0  0  0  0  0  0  0  0  0  0
    8.8775  -15.9367   21.2131 C   0  0  1  0  0  0  0  0  0  0  0  0
    7.7062  -15.5095   22.1074 C   0  0  0  0  0  0  0  0  0  0  0  0
    6.5931  -14.5193   21.1083 S   0  0  0  0  0  0  0  0  0  0  0  0
    9.8219  -16.6486   22.1116 C   0  0  0  0  0  0  0  0  0  0  0  0
    9.6595  -17.8482   22.4448 O   0  0  0  0  0  0  0  0  0  0  0  0
   10.9593  -15.9829   22.6315 N   0  0  0  0  0  0  0  0  0  0  0  0
   11.8836  -16.6384   23.5799 C   0  0  1  0  0  0  0  0  0  0  0  0
   13.1947  -15.9681   23.3565 C   0  0  0  0  0  0  0  0  0  0  0  0
   13.7980  -16.0877   22.0446 C   0  0  0  0  0  0  0  0  0  0  0  0
   13.9445  -17.2797   21.6018 O   0  0  0  0  0  0  0  0  0  0  0  0
   11.3777  -16.5062   24.9512 C   0  0  0  0  0  0  0  0  0  0  0  0
   11.9814  -17.1966   25.9774 O   0  0  0  0  0  0  0  0  0  0  0  0
   14.2401  -15.0992   21.2011 O   0  0  0  0  0  0  0  0  0  0  0  0
   10.3838  -15.7724   25.2708 O   0  0  0  0  0  0  0  0  0  0  0  0
  2  1  1  6
  3  2  1  0
  4  5  2  0
  4  2  1  0
  6  4  1  0
  7  6  1  0
  7  8  1  1
  9  8  1  0
 10 12  1  0
 10  7  1  0
 11 10  2  0
 13 12  1  0
 13 14  1  1
 15 16  2  0
 15 14  1  0
 17 13  1  0
 18 17  1  0
 19 15  1  0
 20 17  2  0
M  END
$$$$
