ACD.pdb
     RDKit          3D

 20 19  0  0  1  0  0  0  0  0999 V2000
   -2.7592  -24.3690   22.7203 C   0  0  0  0  0  0  0  0  0  0  0  0
   -4.2348  -24.3668   23.0770 C   0  0  2  0  0  0  0  0  0  0  0  0
   -4.9760  -23.8236   21.9798 N   0  0  0  0  0  0  0  0  0  0  0  0
   -4.3764  -23.5383   24.2936 C   0  0  0  0  0  0  0  0  0  0  0  0
   -3.7902  -23.9285   25.3449 O   0  0  0  0  0  0  0  0  0  0  0  0
   -5.1338  -22.3383   24.3286 N   0  0  0  0  0  0  0  0  0  0  0  0
   -5.2809  -21.6570   25.5919 C   0  0  1  0  0  0  0  0  0  0  0  0
   -5.5478  -20.1876   25.2401 C   0  0  0  0  0  0  0  0  0  0  0  0
   -3.9962  -19.4682   24.6990 S   0  0  0  0  0  0  0  0  0  0  0  0
   -6.4867  -22.1123   26.3300 C   0  0  0  0  0  0  0  0  0  0  0  0
   -7.6215  -22.1696   25.7955 O   0  0  0  0  0  0  0  0  0  0  0  0
   -6.3926  -22.5045   27.6881 N   0  0  0  0  0  0  0  0  0  0  0  0
   -7.5629  -23.0001   28.4419 C   0  0  1  0  0  0  0  0  0  0  0  0
   -7.1388  -24.3254   28.9726 C   0  0  0  0  0  0  0  0  0  0  0  0
   -8.0622  -25.0322   29.8371 C   0  0  0  0  0  0  0  0  0  0  0  0
   -9.0634  -25.5809   29.2582 O   0  0  0  0  0  0  0  0  0  0  0  0
   -7.9367  -22.0374   29.4846 C   0  0  0  0  0  0  0  0  0  0  0  0
   -9.2183  -22.0284   29.9861 O   0  0  0  0  0  0  0  0  0  0  0  0
   -8.0189  -25.1990   31.1989 O   0  0  0  0  0  0  0  0  0  0  0  0
   -7.1310  -21.1783   29.9759 O   0  0  0  0  0  0  0  0  0  0  0  0
  2  1  1  6
  3  2  1  0
  4  5  2  0
  4  2  1  0
  6  4  1  0
  7  6  1  0
  7  8  1  6
  9  8  1  0
 10 12  1  0
 10  7  1  0
 11 10  2  0
 13 12  1  0
 13 14  1  1
 15 16  2  0
 15 14  1  0
 17 13  1  0
 18 17  1  0
 19 15  1  0
 20 17  2  0
M  END
$$$$
