ACD.pdb
     RDKit          3D

 20 19  0  0  1  0  0  0  0  0999 V2000
   10.8294  -19.7868   18.7295 C   0  0  0  0  0  0  0  0  0  0  0  0
   10.1461  -20.2496   20.0038 C   0  0  2  0  0  0  0  0  0  0  0  0
    8.7417  -19.9963   19.8948 N   0  0  0  0  0  0  0  0  0  0  0  0
   10.7534  -19.4837   21.1134 C   0  0  0  0  0  0  0  0  0  0  0  0
   11.9349  -19.7788   21.4570 O   0  0  0  0  0  0  0  0  0  0  0  0
   10.0726  -18.4442   21.7995 N   0  0  0  0  0  0  0  0  0  0  0  0
   10.7024  -17.8610   22.9593 C   0  0  1  0  0  0  0  0  0  0  0  0
   10.0148  -16.5048   23.1645 C   0  0  0  0  0  0  0  0  0  0  0  0
   10.7352  -15.7455   24.6212 S   0  0  0  0  0  0  0  0  0  0  0  0
   10.4200  -18.6383   24.1930 C   0  0  0  0  0  0  0  0  0  0  0  0
    9.2519  -18.9097   24.5651 O   0  0  0  0  0  0  0  0  0  0  0  0
   11.4815  -19.1079   25.0053 N   0  0  0  0  0  0  0  0  0  0  0  0
   11.2384  -19.8979   26.2302 C   0  0  1  0  0  0  0  0  0  0  0  0
   11.5440  -21.3029   25.8424 C   0  0  0  0  0  0  0  0  0  0  0  0
   10.8401  -22.3621   26.5366 C   0  0  0  0  0  0  0  0  0  0  0  0
   10.0896  -21.9943   27.5061 O   0  0  0  0  0  0  0  0  0  0  0  0
   12.0696  -19.3936   27.3296 C   0  0  0  0  0  0  0  0  0  0  0  0
   12.8836  -18.3015   27.1326 O   0  0  0  0  0  0  0  0  0  0  0  0
   10.8625  -23.7147   26.3038 O   0  0  0  0  0  0  0  0  0  0  0  0
   12.0926  -19.9134   28.4949 O   0  0  0  0  0  0  0  0  0  0  0  0
  2  1  1  6
  3  2  1  0
  4  5  2  0
  4  2  1  0
  6  4  1  0
  7  6  1  0
  7  8  1  1
  9  8  1  0
 10 12  1  0
 10  7  1  0
 11 10  2  0
 13 12  1  0
 13 14  1  6
 15 16  2  0
 15 14  1  0
 17 13  1  0
 18 17  1  0
 19 15  1  0
 20 17  2  0
M  END
$$$$
