ACD.pdb
     RDKit          3D

 20 19  0  0  1  0  0  0  0  0999 V2000
    7.0475  -15.8296   20.9148 C   0  0  0  0  0  0  0  0  0  0  0  0
    7.0797  -14.3178   21.0504 C   0  0  2  0  0  0  0  0  0  0  0  0
    7.7970  -13.7682   19.9405 N   0  0  0  0  0  0  0  0  0  0  0  0
    7.7511  -14.0209   22.3340 C   0  0  0  0  0  0  0  0  0  0  0  0
    9.0145  -14.0821   22.3672 O   0  0  0  0  0  0  0  0  0  0  0  0
    7.0440  -13.6744   23.5150 N   0  0  0  0  0  0  0  0  0  0  0  0
    7.7876  -13.5362   24.7438 C   0  0  1  0  0  0  0  0  0  0  0  0
    6.7930  -12.9730   25.7673 C   0  0  0  0  0  0  0  0  0  0  0  0
    7.6897  -12.6839   27.2938 S   0  0  0  0  0  0  0  0  0  0  0  0
    8.2108  -14.8525   25.2864 C   0  0  0  0  0  0  0  0  0  0  0  0
    7.4298  -15.8330   25.3598 O   0  0  0  0  0  0  0  0  0  0  0  0
    9.5361  -15.0473   25.7476 N   0  0  0  0  0  0  0  0  0  0  0  0
    9.9720  -16.3194   26.3602 C   0  0  1  0  0  0  0  0  0  0  0  0
   11.3251  -16.5705   25.7911 C   0  0  0  0  0  0  0  0  0  0  0  0
   11.4711  -17.6706   24.8595 C   0  0  0  0  0  0  0  0  0  0  0  0
   10.4130  -18.3528   24.6280 O   0  0  0  0  0  0  0  0  0  0  0  0
    9.9572  -16.2065   27.8234 C   0  0  0  0  0  0  0  0  0  0  0  0
    9.9684  -17.3414   28.6017 O   0  0  0  0  0  0  0  0  0  0  0  0
   12.5896  -18.0914   24.1843 O   0  0  0  0  0  0  0  0  0  0  0  0
    9.9333  -15.0932   28.4467 O   0  0  0  0  0  0  0  0  0  0  0  0
  2  1  1  6
  3  2  1  0
  4  5  2  0
  4  2  1  0
  6  4  1  0
  7  6  1  0
  7  8  1  1
  9  8  1  0
 10 12  1  0
 10  7  1  0
 11 10  2  0
 13 12  1  0
 13 14  1  6
 15 16  2  0
 15 14  1  0
 17 13  1  0
 18 17  1  0
 19 15  1  0
 20 17  2  0
M  END
$$$$
