ACD.pdb
     RDKit          3D

 20 19  0  0  1  0  0  0  0  0999 V2000
    6.8244  -16.0189   21.0105 C   0  0  0  0  0  0  0  0  0  0  0  0
    7.0997  -14.5343   21.1686 C   0  0  2  0  0  0  0  0  0  0  0  0
    7.7746  -14.0610   19.9986 N   0  0  0  0  0  0  0  0  0  0  0  0
    7.9364  -14.3841   22.3785 C   0  0  0  0  0  0  0  0  0  0  0  0
    9.1802  -14.5861   22.2647 O   0  0  0  0  0  0  0  0  0  0  0  0
    7.4066  -14.0269   23.6461 N   0  0  0  0  0  0  0  0  0  0  0  0
    8.3035  -13.9797   24.7754 C   0  0  1  0  0  0  0  0  0  0  0  0
    7.5584  -13.1932   25.8618 C   0  0  0  0  0  0  0  0  0  0  0  0
    8.6947  -12.9431   27.2271 S   0  0  0  0  0  0  0  0  0  0  0  0
    8.5380  -15.3276   25.3535 C   0  0  0  0  0  0  0  0  0  0  0  0
    7.6001  -16.1197   25.6170 O   0  0  0  0  0  0  0  0  0  0  0  0
    9.8545  -15.7713   25.6313 N   0  0  0  0  0  0  0  0  0  0  0  0
   10.1258  -17.1083   26.1990 C   0  0  1  0  0  0  0  0  0  0  0  0
   11.5347  -17.4038   25.8175 C   0  0  0  0  0  0  0  0  0  0  0  0
   11.7955  -17.7846   24.4440 C   0  0  0  0  0  0  0  0  0  0  0  0
   10.7649  -18.0277   23.7248 O   0  0  0  0  0  0  0  0  0  0  0  0
    9.8951  -17.0979   27.6483 C   0  0  0  0  0  0  0  0  0  0  0  0
   10.0607  -15.9339   28.3637 O   0  0  0  0  0  0  0  0  0  0  0  0
   12.9980  -17.9248   23.7973 O   0  0  0  0  0  0  0  0  0  0  0  0
    9.5406  -18.1264   28.3155 O   0  0  0  0  0  0  0  0  0  0  0  0
  2  1  1  6
  3  2  1  0
  4  5  2  0
  4  2  1  0
  6  4  1  0
  7  6  1  0
  7  8  1  1
  9  8  1  0
 10 12  1  0
 10  7  1  0
 11 10  2  0
 13 12  1  0
 13 14  1  1
 15 16  2  0
 15 14  1  0
 17 13  1  0
 18 17  1  0
 19 15  1  0
 20 17  2  0
M  END
$$$$
