ACD.pdb
     RDKit          3D

 20 19  0  0  1  0  0  0  0  0999 V2000
    8.0015  -15.3414   18.2757 C   0  0  0  0  0  0  0  0  0  0  0  0
    7.4956  -14.0501   18.8932 C   0  0  2  0  0  0  0  0  0  0  0  0
    7.9236  -12.9503   18.0834 N   0  0  0  0  0  0  0  0  0  0  0  0
    8.0669  -13.9784   20.2553 C   0  0  0  0  0  0  0  0  0  0  0  0
    9.2154  -13.4642   20.3872 O   0  0  0  0  0  0  0  0  0  0  0  0
    7.3870  -14.4574   21.4056 N   0  0  0  0  0  0  0  0  0  0  0  0
    8.0790  -14.4315   22.6714 C   0  0  1  0  0  0  0  0  0  0  0  0
    6.9904  -14.5928   23.7405 C   0  0  0  0  0  0  0  0  0  0  0  0
    7.7837  -14.4772   25.3452 S   0  0  0  0  0  0  0  0  0  0  0  0
    8.9738  -15.6053   22.8378 C   0  0  0  0  0  0  0  0  0  0  0  0
    8.6304  -16.7662   22.5049 O   0  0  0  0  0  0  0  0  0  0  0  0
   10.2696  -15.4488   23.3887 N   0  0  0  0  0  0  0  0  0  0  0  0
   11.1614  -16.6020   23.6300 C   0  0  1  0  0  0  0  0  0  0  0  0
   12.5380  -16.0578   23.4664 C   0  0  0  0  0  0  0  0  0  0  0  0
   13.6102  -17.0002   23.2177 C   0  0  0  0  0  0  0  0  0  0  0  0
   13.2527  -18.1641   22.8229 O   0  0  0  0  0  0  0  0  0  0  0  0
   10.9039  -17.1703   24.9584 C   0  0  0  0  0  0  0  0  0  0  0  0
   11.0870  -18.5164   25.1788 O   0  0  0  0  0  0  0  0  0  0  0  0
   14.9654  -16.8242   23.3466 O   0  0  0  0  0  0  0  0  0  0  0  0
   10.5084  -16.4821   25.9577 O   0  0  0  0  0  0  0  0  0  0  0  0
  2  1  1  6
  3  2  1  0
  4  5  2  0
  4  2  1  0
  6  4  1  0
  7  6  1  0
  7  8  1  1
  9  8  1  0
 10 12  1  0
 10  7  1  0
 11 10  2  0
 13 12  1  0
 13 14  1  1
 15 16  2  0
 15 14  1  0
 17 13  1  0
 18 17  1  0
 19 15  1  0
 20 17  2  0
M  END
$$$$
