ACD.pdb
     RDKit          3D

 20 19  0  0  1  0  0  0  0  0999 V2000
    7.6304  -12.9307   18.5149 C   0  0  0  0  0  0  0  0  0  0  0  0
    8.1125  -14.3023   18.9519 C   0  0  2  0  0  0  0  0  0  0  0  0
    7.0467  -15.2429   18.7850 N   0  0  0  0  0  0  0  0  0  0  0  0
    8.5138  -14.1795   20.3698 C   0  0  0  0  0  0  0  0  0  0  0  0
    9.6238  -13.6275   20.6233 O   0  0  0  0  0  0  0  0  0  0  0  0
    7.7138  -14.6500   21.4438 N   0  0  0  0  0  0  0  0  0  0  0  0
    8.2582  -14.5964   22.7790 C   0  0  1  0  0  0  0  0  0  0  0  0
    7.0475  -14.6355   23.7206 C   0  0  0  0  0  0  0  0  0  0  0  0
    7.6674  -14.6139   25.4037 S   0  0  0  0  0  0  0  0  0  0  0  0
    9.0509  -15.8099   23.1033 C   0  0  0  0  0  0  0  0  0  0  0  0
    8.6450  -16.9690   22.8416 O   0  0  0  0  0  0  0  0  0  0  0  0
   10.3159  -15.6956   23.7308 N   0  0  0  0  0  0  0  0  0  0  0  0
   11.1546  -16.8770   24.0209 C   0  0  1  0  0  0  0  0  0  0  0  0
   12.5228  -16.4888   23.5787 C   0  0  0  0  0  0  0  0  0  0  0  0
   13.5801  -17.4695   23.7186 C   0  0  0  0  0  0  0  0  0  0  0  0
   13.2232  -18.6202   24.1514 O   0  0  0  0  0  0  0  0  0  0  0  0
   11.0685  -17.2202   25.4452 C   0  0  0  0  0  0  0  0  0  0  0  0
   10.6861  -16.2671   26.3613 O   0  0  0  0  0  0  0  0  0  0  0  0
   14.9207  -17.3420   23.4531 O   0  0  0  0  0  0  0  0  0  0  0  0
   11.3324  -18.3788   25.9108 O   0  0  0  0  0  0  0  0  0  0  0  0
  2  1  1  1
  3  2  1  0
  4  5  2  0
  4  2  1  0
  6  4  1  0
  7  6  1  0
  7  8  1  1
  9  8  1  0
 10 12  1  0
 10  7  1  0
 11 10  2  0
 13 12  1  0
 13 14  1  1
 15 16  2  0
 15 14  1  0
 17 13  1  0
 18 17  1  0
 19 15  1  0
 20 17  2  0
M  END
$$$$
