ACD.pdb
     RDKit          3D

 20 19  0  0  1  0  0  0  0  0999 V2000
    7.5508  -19.1191   19.2552 C   0  0  0  0  0  0  0  0  0  0  0  0
    7.5731  -17.8815   18.3762 C   0  0  2  0  0  0  0  0  0  0  0  0
    8.1411  -18.2240   17.1080 N   0  0  0  0  0  0  0  0  0  0  0  0
    8.3897  -16.8724   19.0843 C   0  0  0  0  0  0  0  0  0  0  0  0
    9.6426  -17.0458   19.1189 O   0  0  0  0  0  0  0  0  0  0  0  0
    7.8312  -15.7319   19.7186 N   0  0  0  0  0  0  0  0  0  0  0  0
    8.7213  -14.8170   20.3914 C   0  0  1  0  0  0  0  0  0  0  0  0
    7.9082  -13.5340   20.6080 C   0  0  0  0  0  0  0  0  0  0  0  0
    7.6506  -12.7766   19.0024 S   0  0  0  0  0  0  0  0  0  0  0  0
    9.0799  -15.2924   21.7521 C   0  0  0  0  0  0  0  0  0  0  0  0
    8.2144  -15.5637   22.6203 O   0  0  0  0  0  0  0  0  0  0  0  0
   10.4377  -15.4584   22.1207 N   0  0  0  0  0  0  0  0  0  0  0  0
   10.8314  -16.1595   23.3604 C   0  0  1  0  0  0  0  0  0  0  0  0
   10.3271  -17.5500   23.1864 C   0  0  0  0  0  0  0  0  0  0  0  0
   10.6448  -18.5163   24.2183 C   0  0  0  0  0  0  0  0  0  0  0  0
   11.2553  -18.0583   25.2459 O   0  0  0  0  0  0  0  0  0  0  0  0
   12.2847  -16.0765   23.5478 C   0  0  0  0  0  0  0  0  0  0  0  0
   13.0621  -15.4198   22.6214 O   0  0  0  0  0  0  0  0  0  0  0  0
   10.3846  -19.8635   24.2531 O   0  0  0  0  0  0  0  0  0  0  0  0
   12.9000  -16.5878   24.5421 O   0  0  0  0  0  0  0  0  0  0  0  0
  2  1  1  1
  3  2  1  0
  4  5  2  0
  4  2  1  0
  6  4  1  0
  7  6  1  0
  7  8  1  1
  9  8  1  0
 10 12  1  0
 10  7  1  0
 11 10  2  0
 13 12  1  0
 13 14  1  6
 15 16  2  0
 15 14  1  0
 17 13  1  0
 18 17  1  0
 19 15  1  0
 20 17  2  0
M  END
$$$$
