ACD.pdb
     RDKit          3D

 20 19  0  0  1  0  0  0  0  0999 V2000
    7.7947  -12.9143   19.4452 C   0  0  0  0  0  0  0  0  0  0  0  0
    7.7961  -14.3395   19.9684 C   0  0  2  0  0  0  0  0  0  0  0  0
    6.4545  -14.8380   19.9585 N   0  0  0  0  0  0  0  0  0  0  0  0
    8.3481  -14.2880   21.3393 C   0  0  0  0  0  0  0  0  0  0  0  0
    9.5677  -13.9788   21.4731 O   0  0  0  0  0  0  0  0  0  0  0  0
    7.5744  -14.5681   22.4959 N   0  0  0  0  0  0  0  0  0  0  0  0
    8.2357  -14.5737   23.7783 C   0  0  1  0  0  0  0  0  0  0  0  0
    7.1393  -14.2764   24.8096 C   0  0  0  0  0  0  0  0  0  0  0  0
    6.8264  -12.5105   24.7759 S   0  0  0  0  0  0  0  0  0  0  0  0
    8.7535  -15.9210   24.1288 C   0  0  0  0  0  0  0  0  0  0  0  0
    8.0312  -16.9477   24.1026 O   0  0  0  0  0  0  0  0  0  0  0  0
   10.1067  -16.0937   24.5115 N   0  0  0  0  0  0  0  0  0  0  0  0
   10.6708  -17.4261   24.8111 C   0  0  1  0  0  0  0  0  0  0  0  0
   12.0991  -17.3348   24.3992 C   0  0  0  0  0  0  0  0  0  0  0  0
   12.3823  -17.0028   23.0176 C   0  0  0  0  0  0  0  0  0  0  0  0
   11.8070  -17.7322   22.1369 O   0  0  0  0  0  0  0  0  0  0  0  0
   10.4839  -17.7460   26.2311 C   0  0  0  0  0  0  0  0  0  0  0  0
   10.0389  -16.7781   27.1023 O   0  0  0  0  0  0  0  0  0  0  0  0
   13.1861  -16.0117   22.5120 O   0  0  0  0  0  0  0  0  0  0  0  0
   10.7129  -18.8968   26.7330 O   0  0  0  0  0  0  0  0  0  0  0  0
  2  1  1  1
  3  2  1  0
  4  5  2  0
  4  2  1  0
  6  4  1  0
  7  6  1  0
  7  8  1  1
  9  8  1  0
 10 12  1  0
 10  7  1  0
 11 10  2  0
 13 12  1  0
 13 14  1  1
 15 16  2  0
 15 14  1  0
 17 13  1  0
 18 17  1  0
 19 15  1  0
 20 17  2  0
M  END
$$$$
