ACD.pdb
     RDKit          3D

 20 19  0  0  1  0  0  0  0  0999 V2000
    6.5207  -16.0983   21.2371 C   0  0  0  0  0  0  0  0  0  0  0  0
    7.0284  -14.6691   21.1694 C   0  0  2  0  0  0  0  0  0  0  0  0
    7.9702  -14.5623   20.0971 N   0  0  0  0  0  0  0  0  0  0  0  0
    7.6558  -14.3790   22.4766 C   0  0  0  0  0  0  0  0  0  0  0  0
    8.8745  -14.6842   22.6270 O   0  0  0  0  0  0  0  0  0  0  0  0
    6.9545  -13.7797   23.5554 N   0  0  0  0  0  0  0  0  0  0  0  0
    7.6622  -13.5543   24.7924 C   0  0  1  0  0  0  0  0  0  0  0  0
    6.6529  -12.8761   25.7281 C   0  0  0  0  0  0  0  0  0  0  0  0
    7.5109  -12.4700   27.2500 S   0  0  0  0  0  0  0  0  0  0  0  0
    8.0277  -14.8288   25.4619 C   0  0  0  0  0  0  0  0  0  0  0  0
    7.2266  -15.7904   25.5623 O   0  0  0  0  0  0  0  0  0  0  0  0
    9.3184  -15.0033   26.0195 N   0  0  0  0  0  0  0  0  0  0  0  0
    9.7187  -16.2594   26.6868 C   0  0  1  0  0  0  0  0  0  0  0  0
   10.8303  -16.7946   25.8525 C   0  0  0  0  0  0  0  0  0  0  0  0
   11.4825  -18.0095   26.2975 C   0  0  0  0  0  0  0  0  0  0  0  0
   12.4820  -18.3973   25.5981 O   0  0  0  0  0  0  0  0  0  0  0  0
   10.0994  -15.9928   28.0789 C   0  0  0  0  0  0  0  0  0  0  0  0
   10.3417  -17.0394   28.9390 O   0  0  0  0  0  0  0  0  0  0  0  0
   11.1804  -18.8124   27.3691 O   0  0  0  0  0  0  0  0  0  0  0  0
   10.2254  -14.8198   28.5654 O   0  0  0  0  0  0  0  0  0  0  0  0
  2  1  1  1
  3  2  1  0
  4  5  2  0
  4  2  1  0
  6  4  1  0
  7  6  1  0
  7  8  1  1
  9  8  1  0
 10 12  1  0
 10  7  1  0
 11 10  2  0
 13 12  1  0
 13 14  1  6
 15 16  2  0
 15 14  1  0
 17 13  1  0
 18 17  1  0
 19 15  1  0
 20 17  2  0
M  END
$$$$
