AFF.pdb
     RDKit          3D

 28 29  0  0  1  0  0  0  0  0999 V2000
   25.7526  -21.4979  -17.3404 C   0  0  0  0  0  0  0  0  0  0  0  0
   26.6068  -22.2257  -16.3492 C   0  0  2  0  0  0  0  0  0  0  0  0
   26.8327  -23.5996  -16.7103 N   0  0  0  0  0  0  0  0  0  0  0  0
   26.0884  -22.0941  -14.9611 C   0  0  0  0  0  0  0  0  0  0  0  0
   25.4464  -23.0637  -14.4786 O   0  0  0  0  0  0  0  0  0  0  0  0
   26.2961  -20.9317  -14.1906 N   0  0  0  0  0  0  0  0  0  0  0  0
   25.8186  -20.8007  -12.7920 C   0  0  1  0  0  0  0  0  0  0  0  0
   26.8023  -20.0085  -12.0061 C   0  0  0  0  0  0  0  0  0  0  0  0
   26.9884  -20.3718  -10.6001 C   0  0  0  0  0  0  0  0  0  0  0  0
   28.0531  -21.1783  -10.1780 C   0  0  0  0  0  0  0  0  0  0  0  0
   28.2685  -21.5092   -8.8606 C   0  0  0  0  0  0  0  0  0  0  0  0
   27.4231  -21.0467   -7.8886 C   0  0  0  0  0  0  0  0  0  0  0  0
   26.3668  -20.2519   -8.2670 C   0  0  0  0  0  0  0  0  0  0  0  0
   26.1524  -19.9217   -9.5860 C   0  0  0  0  0  0  0  0  0  0  0  0
   24.4477  -20.2943  -12.8552 C   0  0  0  0  0  0  0  0  0  0  0  0
   24.2086  -19.1763  -13.4434 O   0  0  0  0  0  0  0  0  0  0  0  0
   23.2823  -20.9116  -12.3284 N   0  0  0  0  0  0  0  0  0  0  0  0
   21.9759  -20.2892  -12.3577 C   0  0  1  0  0  0  0  0  0  0  0  0
   21.6786  -20.0088  -13.8411 C   0  0  0  0  0  0  0  0  0  0  0  0
   21.2810  -21.2296  -14.5455 C   0  0  0  0  0  0  0  0  0  0  0  0
   20.0514  -21.8353  -14.4038 C   0  0  0  0  0  0  0  0  0  0  0  0
   19.7248  -22.9971  -15.0988 C   0  0  0  0  0  0  0  0  0  0  0  0
   20.6317  -23.5805  -15.9573 C   0  0  0  0  0  0  0  0  0  0  0  0
   21.8554  -22.9871  -16.1052 C   0  0  0  0  0  0  0  0  0  0  0  0
   22.1711  -21.8300  -15.4085 C   0  0  0  0  0  0  0  0  0  0  0  0
   20.9179  -21.0693  -11.7362 C   0  0  0  0  0  0  0  0  0  0  0  0
   19.6252  -20.6105  -11.5900 O   0  0  0  0  0  0  0  0  0  0  0  0
   21.1409  -22.2352  -11.2892 O   0  0  0  0  0  0  0  0  0  0  0  0
  2  1  1  6
  3  2  1  0
  4  2  1  0
  4  5  2  0
  6  4  1  0
  7  6  1  0
  7  8  1  1
  9 14  1  0
  9  8  1  0
 10  9  2  0
 11 12  2  0
 11 10  1  0
 12 13  1  0
 13 14  2  0
 15  7  1  0
 15 17  1  0
 16 15  2  0
 18 17  1  0
 18 26  1  0
 19 20  1  0
 18 19  1  6
 20 25  2  0
 21 22  2  0
 21 20  1  0
 22 23  1  0
 23 24  2  0
 25 24  1  0
 26 28  2  0
 26 27  1  0
M  END
$$$$
