AFF.pdb
     RDKit          3D

 28 29  0  0  1  0  0  0  0  0999 V2000
   27.5090  -20.5838  -15.1292 C   0  0  0  0  0  0  0  0  0  0  0  0
   26.3673  -21.0321  -14.2704 C   0  0  2  0  0  0  0  0  0  0  0  0
   25.2612  -20.1128  -14.2888 N   0  0  0  0  0  0  0  0  0  0  0  0
   26.8020  -21.3506  -12.8840 C   0  0  0  0  0  0  0  0  0  0  0  0
   27.7510  -22.1650  -12.7374 O   0  0  0  0  0  0  0  0  0  0  0  0
   26.1874  -20.7725  -11.7544 N   0  0  0  0  0  0  0  0  0  0  0  0
   26.7513  -20.8887  -10.3870 C   0  0  1  0  0  0  0  0  0  0  0  0
   27.6509  -19.7337  -10.1236 C   0  0  0  0  0  0  0  0  0  0  0  0
   28.1952  -19.6000   -8.7711 C   0  0  0  0  0  0  0  0  0  0  0  0
   27.5733  -18.8081   -7.7973 C   0  0  0  0  0  0  0  0  0  0  0  0
   28.0460  -18.6895   -6.5112 C   0  0  0  0  0  0  0  0  0  0  0  0
   29.1749  -19.3626   -6.1291 C   0  0  0  0  0  0  0  0  0  0  0  0
   29.8115  -20.1497   -7.0596 C   0  0  0  0  0  0  0  0  0  0  0  0
   29.3372  -20.2673   -8.3463 C   0  0  0  0  0  0  0  0  0  0  0  0
   25.6233  -21.0812   -9.4756 C   0  0  0  0  0  0  0  0  0  0  0  0
   24.5109  -20.4782   -9.7035 O   0  0  0  0  0  0  0  0  0  0  0  0
   25.5924  -21.8950   -8.3122 N   0  0  0  0  0  0  0  0  0  0  0  0
   24.4308  -22.0066   -7.4561 C   0  0  1  0  0  0  0  0  0  0  0  0
   24.9063  -22.7584   -6.2006 C   0  0  0  0  0  0  0  0  0  0  0  0
   25.7864  -21.9235   -5.3802 C   0  0  0  0  0  0  0  0  0  0  0  0
   27.1604  -21.9170   -5.4851 C   0  0  0  0  0  0  0  0  0  0  0  0
   27.9510  -21.1021   -4.6787 C   0  0  0  0  0  0  0  0  0  0  0  0
   27.3756  -20.2699   -3.7427 C   0  0  0  0  0  0  0  0  0  0  0  0
   26.0122  -20.2686   -3.6304 C   0  0  0  0  0  0  0  0  0  0  0  0
   25.2335  -21.0840   -4.4383 C   0  0  0  0  0  0  0  0  0  0  0  0
   23.8024  -20.7398   -7.1175 C   0  0  0  0  0  0  0  0  0  0  0  0
   24.3924  -19.5152   -7.3532 O   0  0  0  0  0  0  0  0  0  0  0  0
   22.6556  -20.7021   -6.5768 O   0  0  0  0  0  0  0  0  0  0  0  0
  2  1  1  6
  3  2  1  0
  4  2  1  0
  4  5  2  0
  6  4  1  0
  7  6  1  0
  7  8  1  1
  9 14  1  0
  9  8  1  0
 10  9  2  0
 11 12  2  0
 11 10  1  0
 12 13  1  0
 13 14  2  0
 15  7  1  0
 15 17  1  0
 16 15  2  0
 18 17  1  0
 18 26  1  0
 19 20  1  0
 18 19  1  1
 20 25  2  0
 21 22  2  0
 21 20  1  0
 22 23  1  0
 23 24  2  0
 25 24  1  0
 26 28  2  0
 26 27  1  0
M  END
$$$$
