AFF.pdb
     RDKit          3D

 28 29  0  0  1  0  0  0  0  0999 V2000
   20.3728  -20.9212  -15.7914 C   0  0  0  0  0  0  0  0  0  0  0  0
   21.5873  -21.0683  -14.9281 C   0  0  2  0  0  0  0  0  0  0  0  0
   21.3143  -21.7549  -13.6941 N   0  0  0  0  0  0  0  0  0  0  0  0
   22.2722  -19.7676  -14.7005 C   0  0  0  0  0  0  0  0  0  0  0  0
   21.9925  -19.1313  -13.6507 O   0  0  0  0  0  0  0  0  0  0  0  0
   23.2081  -19.2432  -15.6154 N   0  0  0  0  0  0  0  0  0  0  0  0
   23.8064  -17.8937  -15.4658 C   0  0  1  0  0  0  0  0  0  0  0  0
   25.2698  -17.9709  -15.7211 C   0  0  0  0  0  0  0  0  0  0  0  0
   25.9969  -16.7070  -15.8536 C   0  0  0  0  0  0  0  0  0  0  0  0
   26.2344  -15.8705  -14.7554 C   0  0  0  0  0  0  0  0  0  0  0  0
   26.9405  -14.6938  -14.8463 C   0  0  0  0  0  0  0  0  0  0  0  0
   27.4500  -14.2892  -16.0505 C   0  0  0  0  0  0  0  0  0  0  0  0
   27.2359  -15.0862  -17.1503 C   0  0  0  0  0  0  0  0  0  0  0  0
   26.5290  -16.2636  -17.0577 C   0  0  0  0  0  0  0  0  0  0  0  0
   23.0263  -16.9860  -16.3069 C   0  0  0  0  0  0  0  0  0  0  0  0
   22.5789  -17.3952  -17.4406 O   0  0  0  0  0  0  0  0  0  0  0  0
   22.6746  -15.6409  -16.0173 N   0  0  0  0  0  0  0  0  0  0  0  0
   21.9517  -14.7958  -16.9435 C   0  0  1  0  0  0  0  0  0  0  0  0
   21.1504  -13.8109  -16.0743 C   0  0  0  0  0  0  0  0  0  0  0  0
   20.3293  -12.9198  -16.8967 C   0  0  0  0  0  0  0  0  0  0  0  0
   20.7197  -11.6589  -17.2926 C   0  0  0  0  0  0  0  0  0  0  0  0
   19.8981  -10.8519  -18.0757 C   0  0  0  0  0  0  0  0  0  0  0  0
   18.6581  -11.2960  -18.4815 C   0  0  0  0  0  0  0  0  0  0  0  0
   18.2608  -12.5464  -18.0939 C   0  0  0  0  0  0  0  0  0  0  0  0
   19.0864  -13.3426  -17.3138 C   0  0  0  0  0  0  0  0  0  0  0  0
   22.7870  -14.1016  -17.9104 C   0  0  0  0  0  0  0  0  0  0  0  0
   22.5747  -14.1574  -19.2723 O   0  0  0  0  0  0  0  0  0  0  0  0
   23.7729  -13.3965  -17.5365 O   0  0  0  0  0  0  0  0  0  0  0  0
  2  1  1  1
  3  2  1  0
  4  2  1  0
  4  5  2  0
  6  4  1  0
  7  6  1  0
  7  8  1  6
  9 14  1  0
  9  8  1  0
 10  9  2  0
 11 12  2  0
 11 10  1  0
 12 13  1  0
 13 14  2  0
 15  7  1  0
 15 17  1  0
 16 15  2  0
 18 17  1  0
 18 26  1  0
 19 20  1  0
 18 19  1  1
 20 25  2  0
 21 22  2  0
 21 20  1  0
 22 23  1  0
 23 24  2  0
 25 24  1  0
 26 28  2  0
 26 27  1  0
M  END
$$$$
