AFF.pdb
     RDKit          3D

 28 29  0  0  1  0  0  0  0  0999 V2000
   29.2644  -19.0542  -14.8316 C   0  0  0  0  0  0  0  0  0  0  0  0
   27.8158  -19.3164  -15.1044 C   0  0  2  0  0  0  0  0  0  0  0  0
   27.3114  -18.5566  -16.2167 N   0  0  0  0  0  0  0  0  0  0  0  0
   26.9775  -19.1435  -13.8878 C   0  0  0  0  0  0  0  0  0  0  0  0
   26.6832  -17.9704  -13.5381 O   0  0  0  0  0  0  0  0  0  0  0  0
   26.5152  -20.2417  -13.1339 N   0  0  0  0  0  0  0  0  0  0  0  0
   25.5987  -20.0912  -11.9769 C   0  0  1  0  0  0  0  0  0  0  0  0
   24.3565  -20.8709  -12.2259 C   0  0  0  0  0  0  0  0  0  0  0  0
   23.2411  -20.6727  -11.2985 C   0  0  0  0  0  0  0  0  0  0  0  0
   22.2867  -19.6658  -11.4921 C   0  0  0  0  0  0  0  0  0  0  0  0
   21.2127  -19.4775  -10.6538 C   0  0  0  0  0  0  0  0  0  0  0  0
   21.0361  -20.2934   -9.5692 C   0  0  0  0  0  0  0  0  0  0  0  0
   21.9541  -21.2930   -9.3484 C   0  0  0  0  0  0  0  0  0  0  0  0
   23.0284  -21.4802  -10.1882 C   0  0  0  0  0  0  0  0  0  0  0  0
   26.3684  -20.4217  -10.7776 C   0  0  0  0  0  0  0  0  0  0  0  0
   27.1528  -21.4403  -10.7853 O   0  0  0  0  0  0  0  0  0  0  0  0
   26.3668  -19.7240   -9.5407 N   0  0  0  0  0  0  0  0  0  0  0  0
   26.9659  -20.2528   -8.3339 C   0  0  1  0  0  0  0  0  0  0  0  0
   27.5684  -19.0421   -7.6000 C   0  0  0  0  0  0  0  0  0  0  0  0
   28.1122  -19.4256   -6.2954 C   0  0  0  0  0  0  0  0  0  0  0  0
   27.5553  -19.0576   -5.0899 C   0  0  0  0  0  0  0  0  0  0  0  0
   28.1143  -19.4506   -3.8764 C   0  0  0  0  0  0  0  0  0  0  0  0
   29.2527  -20.2270   -3.8462 C   0  0  0  0  0  0  0  0  0  0  0  0
   29.8137  -20.5980   -5.0375 C   0  0  0  0  0  0  0  0  0  0  0  0
   29.2492  -20.2014   -6.2409 C   0  0  0  0  0  0  0  0  0  0  0  0
   26.0551  -20.9991   -7.4809 C   0  0  0  0  0  0  0  0  0  0  0  0
   26.4557  -22.0506   -6.6827 O   0  0  0  0  0  0  0  0  0  0  0  0
   24.8209  -20.7105   -7.4308 O   0  0  0  0  0  0  0  0  0  0  0  0
  2  1  1  1
  3  2  1  0
  4  2  1  0
  4  5  2  0
  6  4  1  0
  7  6  1  0
  7  8  1  6
  9 14  1  0
  9  8  1  0
 10  9  2  0
 11 12  2  0
 11 10  1  0
 12 13  1  0
 13 14  2  0
 15  7  1  0
 15 17  1  0
 16 15  2  0
 18 17  1  0
 18 26  1  0
 19 20  1  0
 18 19  1  1
 20 25  2  0
 21 22  2  0
 21 20  1  0
 22 23  1  0
 23 24  2  0
 25 24  1  0
 26 28  2  0
 26 27  1  0
M  END
$$$$
