AFF.pdb
     RDKit          3D

 28 29  0  0  1  0  0  0  0  0999 V2000
   23.6576  -21.0439  -14.3472 C   0  0  0  0  0  0  0  0  0  0  0  0
   25.1362  -21.0662  -14.1123 C   0  0  2  0  0  0  0  0  0  0  0  0
   25.8352  -21.9150  -15.0396 N   0  0  0  0  0  0  0  0  0  0  0  0
   25.4732  -21.3900  -12.7001 C   0  0  0  0  0  0  0  0  0  0  0  0
   25.3910  -22.5926  -12.3365 O   0  0  0  0  0  0  0  0  0  0  0  0
   25.8741  -20.4002  -11.7794 N   0  0  0  0  0  0  0  0  0  0  0  0
   26.3321  -20.7216  -10.4053 C   0  0  1  0  0  0  0  0  0  0  0  0
   27.3468  -19.7220   -9.9762 C   0  0  0  0  0  0  0  0  0  0  0  0
   27.8113  -19.7883   -8.5893 C   0  0  0  0  0  0  0  0  0  0  0  0
   28.7872  -20.7051   -8.1779 C   0  0  0  0  0  0  0  0  0  0  0  0
   29.2632  -20.7679   -6.8891 C   0  0  0  0  0  0  0  0  0  0  0  0
   28.7838  -19.9096   -5.9368 C   0  0  0  0  0  0  0  0  0  0  0  0
   27.8247  -18.9959   -6.3055 C   0  0  0  0  0  0  0  0  0  0  0  0
   27.3493  -18.9344   -7.5957 C   0  0  0  0  0  0  0  0  0  0  0  0
   25.1338  -20.8579   -9.5775 C   0  0  0  0  0  0  0  0  0  0  0  0
   24.1050  -20.1264   -9.8215 O   0  0  0  0  0  0  0  0  0  0  0  0
   24.9455  -21.7440   -8.4839 N   0  0  0  0  0  0  0  0  0  0  0  0
   23.7511  -21.7484   -7.6664 C   0  0  1  0  0  0  0  0  0  0  0  0
   24.0632  -22.6686   -6.4734 C   0  0  0  0  0  0  0  0  0  0  0  0
   24.7426  -21.9393   -5.4005 C   0  0  0  0  0  0  0  0  0  0  0  0
   26.1099  -21.9155   -5.2305 C   0  0  0  0  0  0  0  0  0  0  0  0
   26.7048  -21.2045   -4.1913 C   0  0  0  0  0  0  0  0  0  0  0  0
   25.9348  -20.4968   -3.2936 C   0  0  0  0  0  0  0  0  0  0  0  0
   24.5763  -20.5137   -3.4533 C   0  0  0  0  0  0  0  0  0  0  0  0
   23.9933  -21.2250   -4.4917 C   0  0  0  0  0  0  0  0  0  0  0  0
   23.3100  -20.4336   -7.2292 C   0  0  0  0  0  0  0  0  0  0  0  0
   22.0195  -20.1644   -6.8228 O   0  0  0  0  0  0  0  0  0  0  0  0
   24.1111  -19.4505   -7.2013 O   0  0  0  0  0  0  0  0  0  0  0  0
  2  1  1  1
  3  2  1  0
  4  2  1  0
  4  5  2  0
  6  4  1  0
  7  6  1  0
  7  8  1  1
  9 14  1  0
  9  8  1  0
 10  9  2  0
 11 12  2  0
 11 10  1  0
 12 13  1  0
 13 14  2  0
 15  7  1  0
 15 17  1  0
 16 15  2  0
 18 17  1  0
 18 26  1  0
 19 20  1  0
 18 19  1  1
 20 25  2  0
 21 22  2  0
 21 20  1  0
 22 23  1  0
 23 24  2  0
 25 24  1  0
 26 28  2  0
 26 27  1  0
M  END
$$$$
