AFF.pdb
     RDKit          3D

 28 29  0  0  1  0  0  0  0  0999 V2000
   22.8731  -11.4716  -17.0304 C   0  0  0  0  0  0  0  0  0  0  0  0
   22.5184  -10.8457  -18.3435 C   0  0  2  0  0  0  0  0  0  0  0  0
   23.1534  -11.4937  -19.4597 N   0  0  0  0  0  0  0  0  0  0  0  0
   22.7554   -9.3773  -18.3452 C   0  0  0  0  0  0  0  0  0  0  0  0
   23.9142   -8.9681  -18.0715 O   0  0  0  0  0  0  0  0  0  0  0  0
   21.7322   -8.4532  -18.6405 N   0  0  0  0  0  0  0  0  0  0  0  0
   21.9592   -6.9873  -18.6696 C   0  0  1  0  0  0  0  0  0  0  0  0
   21.2982   -6.4086  -19.8700 C   0  0  0  0  0  0  0  0  0  0  0  0
   22.0084   -6.5154  -21.1458 C   0  0  0  0  0  0  0  0  0  0  0  0
   22.9483   -5.5598  -21.5528 C   0  0  0  0  0  0  0  0  0  0  0  0
   23.6515   -5.6521  -22.7311 C   0  0  0  0  0  0  0  0  0  0  0  0
   23.4494   -6.7139  -23.5708 C   0  0  0  0  0  0  0  0  0  0  0  0
   22.5337   -7.6714  -23.2029 C   0  0  0  0  0  0  0  0  0  0  0  0
   21.8307   -7.5777  -22.0233 C   0  0  0  0  0  0  0  0  0  0  0  0
   21.5526   -6.4671  -17.3643 C   0  0  0  0  0  0  0  0  0  0  0  0
   20.4629   -6.8840  -16.8242 O   0  0  0  0  0  0  0  0  0  0  0  0
   22.2438   -5.5142  -16.5698 N   0  0  0  0  0  0  0  0  0  0  0  0
   21.7744   -5.0773  -15.2723 C   0  0  1  0  0  0  0  0  0  0  0  0
   22.9127   -5.3936  -14.2866 C   0  0  0  0  0  0  0  0  0  0  0  0
   23.0603   -6.8370  -14.0876 C   0  0  0  0  0  0  0  0  0  0  0  0
   23.9404   -7.6265  -14.7953 C   0  0  0  0  0  0  0  0  0  0  0  0
   24.0403   -8.9964  -14.5655 C   0  0  0  0  0  0  0  0  0  0  0  0
   23.2535   -9.6081  -13.6135 C   0  0  0  0  0  0  0  0  0  0  0  0
   22.3763   -8.8334  -12.9051 C   0  0  0  0  0  0  0  0  0  0  0  0
   22.2842   -7.4697  -13.1415 C   0  0  0  0  0  0  0  0  0  0  0  0
   21.3820   -3.6786  -15.2083 C   0  0  0  0  0  0  0  0  0  0  0  0
   21.4984   -2.8102  -16.2739 O   0  0  0  0  0  0  0  0  0  0  0  0
   20.9035   -3.1812  -14.1441 O   0  0  0  0  0  0  0  0  0  0  0  0
  2  1  1  1
  3  2  1  0
  4  2  1  0
  4  5  2  0
  6  4  1  0
  7  6  1  0
  7  8  1  6
  9 14  1  0
  9  8  1  0
 10  9  2  0
 11 12  2  0
 11 10  1  0
 12 13  1  0
 13 14  2  0
 15  7  1  0
 15 17  1  0
 16 15  2  0
 18 17  1  0
 18 26  1  0
 19 20  1  0
 18 19  1  1
 20 25  2  0
 21 22  2  0
 21 20  1  0
 22 23  1  0
 23 24  2  0
 25 24  1  0
 26 28  2  0
 26 27  1  0
M  END
$$$$
