AFF.pdb
     RDKit          3D

 28 29  0  0  1  0  0  0  0  0999 V2000
   23.8174  -25.8943  -13.7004 C   0  0  0  0  0  0  0  0  0  0  0  0
   24.1394  -24.7909  -14.6600 C   0  0  2  0  0  0  0  0  0  0  0  0
   24.4859  -25.2744  -15.9696 N   0  0  0  0  0  0  0  0  0  0  0  0
   25.1689  -23.8629  -14.1200 C   0  0  0  0  0  0  0  0  0  0  0  0
   26.3778  -24.1244  -14.3549 O   0  0  0  0  0  0  0  0  0  0  0  0
   24.8273  -22.7210  -13.3668 N   0  0  0  0  0  0  0  0  0  0  0  0
   25.8241  -21.6986  -12.9635 C   0  0  1  0  0  0  0  0  0  0  0  0
   25.6192  -20.4643  -13.7680 C   0  0  0  0  0  0  0  0  0  0  0  0
   26.5752  -19.3718  -13.5786 C   0  0  0  0  0  0  0  0  0  0  0  0
   27.8611  -19.4084  -14.1330 C   0  0  0  0  0  0  0  0  0  0  0  0
   28.7675  -18.3830  -13.9964 C   0  0  0  0  0  0  0  0  0  0  0  0
   28.4319  -17.2583  -13.2923 C   0  0  0  0  0  0  0  0  0  0  0  0
   27.1773  -17.1882  -12.7341 C   0  0  0  0  0  0  0  0  0  0  0  0
   26.2713  -18.2153  -12.8717 C   0  0  0  0  0  0  0  0  0  0  0  0
   25.7400  -21.5720  -11.5086 C   0  0  0  0  0  0  0  0  0  0  0  0
   24.5884  -21.5373  -10.9381 O   0  0  0  0  0  0  0  0  0  0  0  0
   26.8223  -21.4831  -10.5935 N   0  0  0  0  0  0  0  0  0  0  0  0
   26.6493  -21.1605   -9.1932 C   0  0  1  0  0  0  0  0  0  0  0  0
   28.0200  -20.6590   -8.7062 C   0  0  0  0  0  0  0  0  0  0  0  0
   27.9857  -20.3091   -7.2846 C   0  0  0  0  0  0  0  0  0  0  0  0
   27.3636  -19.1870   -6.7818 C   0  0  0  0  0  0  0  0  0  0  0  0
   27.3614  -18.9016   -5.4187 C   0  0  0  0  0  0  0  0  0  0  0  0
   27.9880  -19.7422   -4.5241 C   0  0  0  0  0  0  0  0  0  0  0  0
   28.6087  -20.8591   -5.0128 C   0  0  0  0  0  0  0  0  0  0  0  0
   28.6053  -21.1346   -6.3722 C   0  0  0  0  0  0  0  0  0  0  0  0
   25.5961  -20.1964   -8.9181 C   0  0  0  0  0  0  0  0  0  0  0  0
   25.5268  -18.9581   -9.5222 O   0  0  0  0  0  0  0  0  0  0  0  0
   24.6710  -20.4562   -8.0901 O   0  0  0  0  0  0  0  0  0  0  0  0
  2  1  1  1
  3  2  1  0
  4  2  1  0
  4  5  2  0
  6  4  1  0
  7  6  1  0
  7  8  1  6
  9 14  1  0
  9  8  1  0
 10  9  2  0
 11 12  2  0
 11 10  1  0
 12 13  1  0
 13 14  2  0
 15  7  1  0
 15 17  1  0
 16 15  2  0
 18 17  1  0
 18 26  1  0
 19 20  1  0
 18 19  1  6
 20 25  2  0
 21 22  2  0
 21 20  1  0
 22 23  1  0
 23 24  2  0
 25 24  1  0
 26 28  2  0
 26 27  1  0
M  END
$$$$
