AFF.pdb
     RDKit          3D

 28 29  0  0  1  0  0  0  0  0999 V2000
   28.5136  -19.8705  -13.5429 C   0  0  0  0  0  0  0  0  0  0  0  0
   28.9318  -20.8118  -12.4563 C   0  0  2  0  0  0  0  0  0  0  0  0
   29.2926  -22.1124  -12.9535 N   0  0  0  0  0  0  0  0  0  0  0  0
   27.9211  -20.8939  -11.3679 C   0  0  0  0  0  0  0  0  0  0  0  0
   27.1307  -21.8739  -11.3719 O   0  0  0  0  0  0  0  0  0  0  0  0
   27.8311  -19.9187  -10.3536 N   0  0  0  0  0  0  0  0  0  0  0  0
   26.7538  -19.9197   -9.3334 C   0  0  1  0  0  0  0  0  0  0  0  0
   27.0870  -18.9432   -8.2619 C   0  0  0  0  0  0  0  0  0  0  0  0
   27.5646  -19.4812   -6.9867 C   0  0  0  0  0  0  0  0  0  0  0  0
   27.2520  -20.7806   -6.5673 C   0  0  0  0  0  0  0  0  0  0  0  0
   27.7125  -21.3210   -5.3894 C   0  0  0  0  0  0  0  0  0  0  0  0
   28.5166  -20.5836   -4.5630 C   0  0  0  0  0  0  0  0  0  0  0  0
   28.8440  -19.3034   -4.9433 C   0  0  0  0  0  0  0  0  0  0  0  0
   28.3822  -18.7640   -6.1225 C   0  0  0  0  0  0  0  0  0  0  0  0
   25.4912  -19.7273  -10.0467 C   0  0  0  0  0  0  0  0  0  0  0  0
   25.4624  -18.9967  -11.1042 O   0  0  0  0  0  0  0  0  0  0  0  0
   24.2255  -20.2757   -9.7090 N   0  0  0  0  0  0  0  0  0  0  0  0
   23.1097  -20.3149  -10.6300 C   0  0  1  0  0  0  0  0  0  0  0  0
   23.6246  -21.0478  -11.8811 C   0  0  0  0  0  0  0  0  0  0  0  0
   22.5537  -21.2506  -12.8592 C   0  0  0  0  0  0  0  0  0  0  0  0
   21.9146  -22.4542  -13.0638 C   0  0  0  0  0  0  0  0  0  0  0  0
   20.9009  -22.5918  -14.0087 C   0  0  0  0  0  0  0  0  0  0  0  0
   20.5036  -21.5168  -14.7743 C   0  0  0  0  0  0  0  0  0  0  0  0
   21.1317  -20.3172  -14.5791 C   0  0  0  0  0  0  0  0  0  0  0  0
   22.1403  -20.1903  -13.6354 C   0  0  0  0  0  0  0  0  0  0  0  0
   21.9070  -20.9371  -10.1002 C   0  0  0  0  0  0  0  0  0  0  0  0
   20.6337  -20.5779  -10.4911 O   0  0  0  0  0  0  0  0  0  0  0  0
   21.9755  -21.8606   -9.2333 O   0  0  0  0  0  0  0  0  0  0  0  0
  2  1  1  6
  3  2  1  0
  4  2  1  0
  4  5  2  0
  6  4  1  0
  7  6  1  0
  7  8  1  1
  9 14  1  0
  9  8  1  0
 10  9  2  0
 11 12  2  0
 11 10  1  0
 12 13  1  0
 13 14  2  0
 15  7  1  0
 15 17  1  0
 16 15  2  0
 18 17  1  0
 18 26  1  0
 19 20  1  0
 18 19  1  6
 20 25  2  0
 21 22  2  0
 21 20  1  0
 22 23  1  0
 23 24  2  0
 25 24  1  0
 26 28  2  0
 26 27  1  0
M  END
$$$$
