AFF.pdb
     RDKit          3D

 28 29  0  0  1  0  0  0  0  0999 V2000
   27.7562  -24.7975  -17.5187 C   0  0  0  0  0  0  0  0  0  0  0  0
   28.7975  -23.7330  -17.3628 C   0  0  2  0  0  0  0  0  0  0  0  0
   30.0864  -24.2619  -17.0051 N   0  0  0  0  0  0  0  0  0  0  0  0
   28.3615  -22.6562  -16.4337 C   0  0  0  0  0  0  0  0  0  0  0  0
   28.7793  -22.6986  -15.2467 O   0  0  0  0  0  0  0  0  0  0  0  0
   27.5087  -21.6114  -16.8448 N   0  0  0  0  0  0  0  0  0  0  0  0
   27.0567  -20.5369  -15.9269 C   0  0  1  0  0  0  0  0  0  0  0  0
   26.9906  -19.2490  -16.6683 C   0  0  0  0  0  0  0  0  0  0  0  0
   26.3170  -18.1280  -16.0100 C   0  0  0  0  0  0  0  0  0  0  0  0
   27.0198  -17.1847  -15.2495 C   0  0  0  0  0  0  0  0  0  0  0  0
   26.4165  -16.1059  -14.6465 C   0  0  0  0  0  0  0  0  0  0  0  0
   25.0674  -15.9129  -14.7739 C   0  0  0  0  0  0  0  0  0  0  0  0
   24.3457  -16.8198  -15.5138 C   0  0  0  0  0  0  0  0  0  0  0  0
   24.9510  -17.8990  -16.1167 C   0  0  0  0  0  0  0  0  0  0  0  0
   25.8263  -21.0085  -15.2917 C   0  0  0  0  0  0  0  0  0  0  0  0
   24.9688  -21.6740  -15.9809 O   0  0  0  0  0  0  0  0  0  0  0  0
   25.4360  -20.8225  -13.9390 N   0  0  0  0  0  0  0  0  0  0  0  0
   24.2023  -21.3465  -13.3929 C   0  0  1  0  0  0  0  0  0  0  0  0
   24.6176  -22.2962  -12.2558 C   0  0  0  0  0  0  0  0  0  0  0  0
   25.3016  -21.5743  -11.1808 C   0  0  0  0  0  0  0  0  0  0  0  0
   26.6701  -21.5447  -11.0215 C   0  0  0  0  0  0  0  0  0  0  0  0
   27.2694  -20.8412   -9.9797 C   0  0  0  0  0  0  0  0  0  0  0  0
   26.5028  -20.1472   -9.0685 C   0  0  0  0  0  0  0  0  0  0  0  0
   25.1431  -20.1701   -9.2175 C   0  0  0  0  0  0  0  0  0  0  0  0
   24.5557  -20.8737  -10.2586 C   0  0  0  0  0  0  0  0  0  0  0  0
   23.2646  -20.3352  -12.9322 C   0  0  0  0  0  0  0  0  0  0  0  0
   23.6058  -19.0100  -12.7576 O   0  0  0  0  0  0  0  0  0  0  0  0
   22.0612  -20.6327  -12.6633 O   0  0  0  0  0  0  0  0  0  0  0  0
  2  1  1  1
  3  2  1  0
  4  2  1  0
  4  5  2  0
  6  4  1  0
  7  6  1  0
  7  8  1  6
  9 14  1  0
  9  8  1  0
 10  9  2  0
 11 12  2  0
 11 10  1  0
 12 13  1  0
 13 14  2  0
 15  7  1  0
 15 17  1  0
 16 15  2  0
 18 17  1  0
 18 26  1  0
 19 20  1  0
 18 19  1  1
 20 25  2  0
 21 22  2  0
 21 20  1  0
 22 23  1  0
 23 24  2  0
 25 24  1  0
 26 28  2  0
 26 27  1  0
M  END
$$$$
