AFF.pdb
     RDKit          3D

 28 29  0  0  1  0  0  0  0  0999 V2000
   27.6808  -24.3600  -17.4996 C   0  0  0  0  0  0  0  0  0  0  0  0
   28.2119  -22.9757  -17.7085 C   0  0  2  0  0  0  0  0  0  0  0  0
   29.6366  -22.9488  -17.9048 N   0  0  0  0  0  0  0  0  0  0  0  0
   27.7817  -22.0435  -16.6322 C   0  0  0  0  0  0  0  0  0  0  0  0
   28.5257  -21.9263  -15.6233 O   0  0  0  0  0  0  0  0  0  0  0  0
   26.5841  -21.3040  -16.7156 N   0  0  0  0  0  0  0  0  0  0  0  0
   26.1787  -20.3153  -15.6863 C   0  0  1  0  0  0  0  0  0  0  0  0
   25.7443  -19.0582  -16.3526 C   0  0  0  0  0  0  0  0  0  0  0  0
   26.3448  -17.8074  -15.8853 C   0  0  0  0  0  0  0  0  0  0  0  0
   27.4524  -17.2339  -16.5228 C   0  0  0  0  0  0  0  0  0  0  0  0
   28.0166  -16.0449  -16.1235 C   0  0  0  0  0  0  0  0  0  0  0  0
   27.4979  -15.3619  -15.0568 C   0  0  0  0  0  0  0  0  0  0  0  0
   26.4101  -15.8958  -14.4070 C   0  0  0  0  0  0  0  0  0  0  0  0
   25.8465  -17.0859  -14.8078 C   0  0  0  0  0  0  0  0  0  0  0  0
   25.2110  -20.9805  -14.8140 C   0  0  0  0  0  0  0  0  0  0  0  0
   24.2695  -21.6876  -15.3303 O   0  0  0  0  0  0  0  0  0  0  0  0
   25.1763  -20.9505  -13.3946 N   0  0  0  0  0  0  0  0  0  0  0  0
   24.1682  -21.6350  -12.6138 C   0  0  1  0  0  0  0  0  0  0  0  0
   24.9283  -22.3525  -11.4847 C   0  0  0  0  0  0  0  0  0  0  0  0
   25.5236  -21.3951  -10.5501 C   0  0  0  0  0  0  0  0  0  0  0  0
   24.8169  -20.7357   -9.5679 C   0  0  0  0  0  0  0  0  0  0  0  0
   25.4337  -19.8337   -8.7045 C   0  0  0  0  0  0  0  0  0  0  0  0
   26.7829  -19.5721   -8.8087 C   0  0  0  0  0  0  0  0  0  0  0  0
   27.4939  -20.2215   -9.7804 C   0  0  0  0  0  0  0  0  0  0  0  0
   26.8703  -21.1181  -10.6356 C   0  0  0  0  0  0  0  0  0  0  0  0
   23.1175  -20.7758  -12.0920 C   0  0  0  0  0  0  0  0  0  0  0  0
   21.9047  -21.2525  -11.6394 O   0  0  0  0  0  0  0  0  0  0  0  0
   23.2720  -19.5184  -12.0280 O   0  0  0  0  0  0  0  0  0  0  0  0
  2  1  1  1
  3  2  1  0
  4  2  1  0
  4  5  2  0
  6  4  1  0
  7  6  1  0
  7  8  1  6
  9 14  1  0
  9  8  1  0
 10  9  2  0
 11 12  2  0
 11 10  1  0
 12 13  1  0
 13 14  2  0
 15  7  1  0
 15 17  1  0
 16 15  2  0
 18 17  1  0
 18 26  1  0
 19 20  1  0
 18 19  1  1
 20 25  2  0
 21 22  2  0
 21 20  1  0
 22 23  1  0
 23 24  2  0
 25 24  1  0
 26 28  2  0
 26 27  1  0
M  END
$$$$
