AFF.pdb
     RDKit          3D

 28 29  0  0  1  0  0  0  0  0999 V2000
   19.0058  -13.0702  -17.5019 C   0  0  0  0  0  0  0  0  0  0  0  0
   20.3513  -12.8957  -18.1353 C   0  0  2  0  0  0  0  0  0  0  0  0
   21.2960  -13.8989  -17.7230 N   0  0  0  0  0  0  0  0  0  0  0  0
   20.8840  -11.5197  -17.9462 C   0  0  0  0  0  0  0  0  0  0  0  0
   21.8844  -11.3742  -17.1957 O   0  0  0  0  0  0  0  0  0  0  0  0
   20.3051  -10.3988  -18.5759 N   0  0  0  0  0  0  0  0  0  0  0  0
   20.8768   -9.0340  -18.4675 C   0  0  1  0  0  0  0  0  0  0  0  0
   20.5274   -8.2538  -19.6849 C   0  0  0  0  0  0  0  0  0  0  0  0
   20.8679   -6.8299  -19.6918 C   0  0  0  0  0  0  0  0  0  0  0  0
   22.1696   -6.3807  -19.9483 C   0  0  0  0  0  0  0  0  0  0  0  0
   22.5100   -5.0489  -19.9909 C   0  0  0  0  0  0  0  0  0  0  0  0
   21.5580   -4.0890  -19.7775 C   0  0  0  0  0  0  0  0  0  0  0  0
   20.2689   -4.4939  -19.5227 C   0  0  0  0  0  0  0  0  0  0  0  0
   19.9298   -5.8273  -19.4803 C   0  0  0  0  0  0  0  0  0  0  0  0
   20.4467   -8.4928  -17.1783 C   0  0  0  0  0  0  0  0  0  0  0  0
   19.2809   -8.7858  -16.7220 O   0  0  0  0  0  0  0  0  0  0  0  0
   21.1902   -7.6448  -16.3153 N   0  0  0  0  0  0  0  0  0  0  0  0
   20.6603   -7.1174  -15.0760 C   0  0  1  0  0  0  0  0  0  0  0  0
   21.4975   -7.7590  -13.9558 C   0  0  0  0  0  0  0  0  0  0  0  0
   21.1016   -7.2554  -12.6388 C   0  0  0  0  0  0  0  0  0  0  0  0
   21.5325   -6.0581  -12.1101 C   0  0  0  0  0  0  0  0  0  0  0  0
   21.1243   -5.6264  -10.8505 C   0  0  0  0  0  0  0  0  0  0  0  0
   20.2686   -6.3926  -10.0887 C   0  0  0  0  0  0  0  0  0  0  0  0
   19.8348   -7.5832  -10.6043 C   0  0  0  0  0  0  0  0  0  0  0  0
   20.2471   -8.0043  -11.8599 C   0  0  0  0  0  0  0  0  0  0  0  0
   20.6623   -5.6663  -14.9839 C   0  0  0  0  0  0  0  0  0  0  0  0
   21.6961   -4.8797  -15.4481 O   0  0  0  0  0  0  0  0  0  0  0  0
   19.6901   -5.0426  -14.4597 O   0  0  0  0  0  0  0  0  0  0  0  0
  2  1  1  1
  3  2  1  0
  4  2  1  0
  4  5  2  0
  6  4  1  0
  7  6  1  0
  7  8  1  6
  9 14  1  0
  9  8  1  0
 10  9  2  0
 11 12  2  0
 11 10  1  0
 12 13  1  0
 13 14  2  0
 15  7  1  0
 15 17  1  0
 16 15  2  0
 18 17  1  0
 18 26  1  0
 19 20  1  0
 18 19  1  1
 20 25  2  0
 21 22  2  0
 21 20  1  0
 22 23  1  0
 23 24  2  0
 25 24  1  0
 26 28  2  0
 26 27  1  0
M  END
$$$$
