AFF.pdb
     RDKit          3D

 28 29  0  0  1  0  0  0  0  0999 V2000
   24.6822  -19.7820  -14.8622 C   0  0  0  0  0  0  0  0  0  0  0  0
   26.0512  -20.2892  -15.1943 C   0  0  2  0  0  0  0  0  0  0  0  0
   26.0688  -21.1173  -16.3703 N   0  0  0  0  0  0  0  0  0  0  0  0
   26.6962  -20.9592  -14.0334 C   0  0  0  0  0  0  0  0  0  0  0  0
   26.3935  -22.1596  -13.8042 O   0  0  0  0  0  0  0  0  0  0  0  0
   27.6196  -20.2931  -13.2017 N   0  0  0  0  0  0  0  0  0  0  0  0
   28.2453  -20.9374  -12.0207 C   0  0  1  0  0  0  0  0  0  0  0  0
   29.6940  -20.6015  -11.9843 C   0  0  0  0  0  0  0  0  0  0  0  0
   30.4539  -21.0289  -10.8081 C   0  0  0  0  0  0  0  0  0  0  0  0
   30.5634  -20.2265   -9.6652 C   0  0  0  0  0  0  0  0  0  0  0  0
   31.2448  -20.6165   -8.5360 C   0  0  0  0  0  0  0  0  0  0  0  0
   31.8573  -21.8397   -8.4909 C   0  0  0  0  0  0  0  0  0  0  0  0
   31.7703  -22.6539   -9.5954 C   0  0  0  0  0  0  0  0  0  0  0  0
   31.0879  -22.2622  -10.7248 C   0  0  0  0  0  0  0  0  0  0  0  0
   27.4416  -20.5655  -10.8565 C   0  0  0  0  0  0  0  0  0  0  0  0
   27.1694  -19.3278  -10.6399 O   0  0  0  0  0  0  0  0  0  0  0  0
   26.8879  -21.4401   -9.8842 N   0  0  0  0  0  0  0  0  0  0  0  0
   26.6027  -21.0325   -8.5251 C   0  0  1  0  0  0  0  0  0  0  0  0
   27.7194  -20.0465   -8.1402 C   0  0  0  0  0  0  0  0  0  0  0  0
   28.0789  -20.1731   -6.7262 C   0  0  0  0  0  0  0  0  0  0  0  0
   27.9238  -19.1660   -5.7985 C   0  0  0  0  0  0  0  0  0  0  0  0
   28.2827  -19.3401   -4.4642 C   0  0  0  0  0  0  0  0  0  0  0  0
   28.8088  -20.5373   -4.0288 C   0  0  0  0  0  0  0  0  0  0  0  0
   28.9669  -21.5438   -4.9418 C   0  0  0  0  0  0  0  0  0  0  0  0
   28.6064  -21.3605   -6.2686 C   0  0  0  0  0  0  0  0  0  0  0  0
   25.2836  -20.4528   -8.3295 C   0  0  0  0  0  0  0  0  0  0  0  0
   24.5055  -20.6996   -7.2173 O   0  0  0  0  0  0  0  0  0  0  0  0
   24.7759  -19.6751   -9.1935 O   0  0  0  0  0  0  0  0  0  0  0  0
  2  1  1  1
  3  2  1  0
  4  2  1  0
  4  5  2  0
  6  4  1  0
  7  6  1  0
  7  8  1  1
  9 14  1  0
  9  8  1  0
 10  9  2  0
 11 12  2  0
 11 10  1  0
 12 13  1  0
 13 14  2  0
 15  7  1  0
 15 17  1  0
 16 15  2  0
 18 17  1  0
 18 26  1  0
 19 20  1  0
 18 19  1  6
 20 25  2  0
 21 22  2  0
 21 20  1  0
 22 23  1  0
 23 24  2  0
 25 24  1  0
 26 28  2  0
 26 27  1  0
M  END
$$$$
