AFF.pdb
     RDKit          3D

 28 29  0  0  1  0  0  0  0  0999 V2000
   29.3752  -18.6991  -14.6962 C   0  0  0  0  0  0  0  0  0  0  0  0
   28.0505  -19.3810  -14.8449 C   0  0  2  0  0  0  0  0  0  0  0  0
   27.3620  -19.0048  -16.0505 N   0  0  0  0  0  0  0  0  0  0  0  0
   27.1951  -19.2097  -13.6401 C   0  0  0  0  0  0  0  0  0  0  0  0
   26.7910  -18.0493  -13.3656 O   0  0  0  0  0  0  0  0  0  0  0  0
   26.8346  -20.2958  -12.8163 N   0  0  0  0  0  0  0  0  0  0  0  0
   25.9215  -20.1534  -11.6556 C   0  0  1  0  0  0  0  0  0  0  0  0
   24.6991  -20.9694  -11.8856 C   0  0  0  0  0  0  0  0  0  0  0  0
   23.5786  -20.7766  -10.9631 C   0  0  0  0  0  0  0  0  0  0  0  0
   23.5135  -21.4357   -9.7288 C   0  0  0  0  0  0  0  0  0  0  0  0
   22.4886  -21.2495   -8.8309 C   0  0  0  0  0  0  0  0  0  0  0  0
   21.4669  -20.3869   -9.1233 C   0  0  0  0  0  0  0  0  0  0  0  0
   21.4984  -19.7224  -10.3267 C   0  0  0  0  0  0  0  0  0  0  0  0
   22.5249  -19.9100  -11.2243 C   0  0  0  0  0  0  0  0  0  0  0  0
   26.7070  -20.4462  -10.4569 C   0  0  0  0  0  0  0  0  0  0  0  0
   27.5336  -21.4309  -10.4623 O   0  0  0  0  0  0  0  0  0  0  0  0
   26.6789  -19.7440   -9.2228 N   0  0  0  0  0  0  0  0  0  0  0  0
   27.2843  -20.2519   -8.0102 C   0  0  1  0  0  0  0  0  0  0  0  0
   27.9864  -19.0488   -7.3568 C   0  0  0  0  0  0  0  0  0  0  0  0
   28.5727  -19.4106   -6.0644 C   0  0  0  0  0  0  0  0  0  0  0  0
   29.6619  -20.2418   -5.9179 C   0  0  0  0  0  0  0  0  0  0  0  0
   30.1797  -20.5535   -4.6632 C   0  0  0  0  0  0  0  0  0  0  0  0
   29.6115  -20.0339   -3.5201 C   0  0  0  0  0  0  0  0  0  0  0  0
   28.5296  -19.2075   -3.6543 C   0  0  0  0  0  0  0  0  0  0  0  0
   28.0212  -18.9031   -4.9086 C   0  0  0  0  0  0  0  0  0  0  0  0
   26.3579  -20.8960   -7.0930 C   0  0  0  0  0  0  0  0  0  0  0  0
   26.7158  -21.9385   -6.2634 O   0  0  0  0  0  0  0  0  0  0  0  0
   25.1492  -20.5198   -7.0123 O   0  0  0  0  0  0  0  0  0  0  0  0
  2  1  1  1
  3  2  1  0
  4  2  1  0
  4  5  2  0
  6  4  1  0
  7  6  1  0
  7  8  1  6
  9 14  1  0
  9  8  1  0
 10  9  2  0
 11 12  2  0
 11 10  1  0
 12 13  1  0
 13 14  2  0
 15  7  1  0
 15 17  1  0
 16 15  2  0
 18 17  1  0
 18 26  1  0
 19 20  1  0
 18 19  1  1
 20 25  2  0
 21 22  2  0
 21 20  1  0
 22 23  1  0
 23 24  2  0
 25 24  1  0
 26 28  2  0
 26 27  1  0
M  END
$$$$
