DMD.pdb
     RDKit          3D

 25 24  0  0  1  0  0  0  0  0999 V2000
    8.0763  -17.2132   20.9033 N   0  0  0  0  0  0  0  0  0  0  0  0
    9.1527  -16.2319   20.8332 C   0  0  1  0  0  0  0  0  0  0  0  0
    8.6677  -15.1241   19.8851 C   0  0  0  0  0  0  0  0  0  0  0  0
    8.6772  -15.7248   18.5343 C   0  0  0  0  0  0  0  0  0  0  0  0
    9.6893  -15.6716   17.7808 O   0  0  0  0  0  0  0  0  0  0  0  0
    9.3899  -15.6408   22.1700 C   0  0  0  0  0  0  0  0  0  0  0  0
   10.3798  -14.9080   22.4060 O   0  0  0  0  0  0  0  0  0  0  0  0
    7.5452  -16.3884   18.0307 O   0  0  0  0  0  0  0  0  0  0  0  0
    6.6404  -11.0128   26.1619 C   0  0  0  0  0  0  0  0  0  0  0  0
    7.1854  -12.7430   26.4325 S   0  0  0  0  0  0  0  0  0  0  0  0
    6.8531  -13.6821   24.8763 C   0  0  0  0  0  0  0  0  0  0  0  0
    7.3139  -15.0850   25.0808 C   0  0  0  0  0  0  0  0  0  0  0  0
    8.6775  -15.4166   24.5753 C   0  0  2  0  0  0  0  0  0  0  0  0
    8.4757  -15.9138   23.1978 N   0  0  0  0  0  0  0  0  0  0  0  0
    9.3754  -16.4945   25.3078 C   0  0  0  0  0  0  0  0  0  0  0  0
    9.6140  -16.3892   26.5675 O   0  0  0  0  0  0  0  0  0  0  0  0
    9.8272  -17.7075   24.7043 N   0  0  0  0  0  0  0  0  0  0  0  0
   10.5876  -18.6612   25.4894 C   0  0  1  0  0  0  0  0  0  0  0  0
   11.7806  -19.1743   24.6739 C   0  0  0  0  0  0  0  0  0  0  0  0
   12.5834  -20.1729   25.3820 C   0  0  0  0  0  0  0  0  0  0  0  0
   13.6610  -19.9095   25.9378 O   0  0  0  0  0  0  0  0  0  0  0  0
   11.0956  -18.0991   26.7438 C   0  0  0  0  0  0  0  0  0  0  0  0
   10.8111  -18.7727   27.9286 O   0  0  0  0  0  0  0  0  0  0  0  0
   12.1265  -21.4834   25.4377 O   0  0  0  0  0  0  0  0  0  0  0  0
   11.7797  -17.0397   26.8407 O   0  0  0  0  0  0  0  0  0  0  0  0
  2  1  1  1
  2  3  1  0
  2  6  1  0
  3  4  1  0
  4  8  1  0
  4  5  2  0
  6  7  2  0
 10 11  1  0
 10  9  1  0
 11 12  1  0
 13 12  1  1
 14  6  1  0
 14 13  1  0
 15 13  1  0
 15 16  2  0
 17 15  1  0
 18 17  1  0
 18 19  1  6
 20 19  1  0
 20 24  1  0
 21 20  2  0
 22 23  1  0
 22 18  1  0
 25 22  2  0
M  END
$$$$
