DMD.pdb
     RDKit          3D

 25 24  0  0  1  0  0  0  0  0999 V2000
    8.0411  -16.8747   20.8031 N   0  0  0  0  0  0  0  0  0  0  0  0
    9.4286  -16.4745   21.0064 C   0  0  1  0  0  0  0  0  0  0  0  0
    9.7203  -15.3803   19.9677 C   0  0  0  0  0  0  0  0  0  0  0  0
    9.7589  -16.0721   18.6618 C   0  0  0  0  0  0  0  0  0  0  0  0
   10.2084  -17.2454   18.5344 O   0  0  0  0  0  0  0  0  0  0  0  0
    9.5989  -15.8997   22.3604 C   0  0  0  0  0  0  0  0  0  0  0  0
   10.7034  -15.4621   22.7620 O   0  0  0  0  0  0  0  0  0  0  0  0
    9.2889  -15.4424   17.4965 O   0  0  0  0  0  0  0  0  0  0  0  0
    6.7314  -10.8715   26.0033 C   0  0  0  0  0  0  0  0  0  0  0  0
    7.1569  -12.6235   26.3397 S   0  0  0  0  0  0  0  0  0  0  0  0
    6.9275  -13.5650   24.7664 C   0  0  0  0  0  0  0  0  0  0  0  0
    7.2502  -14.9949   25.0373 C   0  0  0  0  0  0  0  0  0  0  0  0
    8.6098  -15.4570   24.6340 C   0  0  2  0  0  0  0  0  0  0  0  0
    8.4869  -15.8471   23.2133 N   0  0  0  0  0  0  0  0  0  0  0  0
    9.1074  -16.6504   25.3507 C   0  0  0  0  0  0  0  0  0  0  0  0
    8.5642  -17.8026   25.1707 O   0  0  0  0  0  0  0  0  0  0  0  0
   10.1993  -16.6319   26.2711 N   0  0  0  0  0  0  0  0  0  0  0  0
   10.6211  -17.8636   26.9109 C   0  0  1  0  0  0  0  0  0  0  0  0
   12.0354  -18.2336   26.4480 C   0  0  0  0  0  0  0  0  0  0  0  0
   12.1217  -19.5667   25.8491 C   0  0  0  0  0  0  0  0  0  0  0  0
   11.1488  -20.3297   25.7447 O   0  0  0  0  0  0  0  0  0  0  0  0
   10.6226  -17.7811   28.3739 C   0  0  0  0  0  0  0  0  0  0  0  0
   10.3560  -16.5481   28.9629 O   0  0  0  0  0  0  0  0  0  0  0  0
   13.3494  -20.0099   25.3740 O   0  0  0  0  0  0  0  0  0  0  0  0
   10.8487  -18.7492   29.1558 O   0  0  0  0  0  0  0  0  0  0  0  0
  2  1  1  1
  2  3  1  0
  2  6  1  0
  3  4  1  0
  4  8  1  0
  4  5  2  0
  6  7  2  0
 10 11  1  0
 10  9  1  0
 11 12  1  0
 13 12  1  1
 14  6  1  0
 14 13  1  0
 15 13  1  0
 15 16  2  0
 17 15  1  0
 18 17  1  0
 18 19  1  6
 20 19  1  0
 20 24  1  0
 21 20  2  0
 22 23  1  0
 22 18  1  0
 25 22  2  0
M  END
$$$$
