DMD.pdb
     RDKit          3D

 25 24  0  0  1  0  0  0  0  0999 V2000
    7.2619  -16.3513   20.1776 N   0  0  0  0  0  0  0  0  0  0  0  0
    8.7153  -16.3694   20.2950 C   0  0  1  0  0  0  0  0  0  0  0  0
    9.2528  -15.4887   19.1562 C   0  0  0  0  0  0  0  0  0  0  0  0
    9.2319  -16.3425   17.9496 C   0  0  0  0  0  0  0  0  0  0  0  0
    8.4947  -17.3640   17.8603 O   0  0  0  0  0  0  0  0  0  0  0  0
    9.1286  -15.7767   21.5875 C   0  0  0  0  0  0  0  0  0  0  0  0
   10.3312  -15.7209   21.9383 O   0  0  0  0  0  0  0  0  0  0  0  0
   10.0415  -16.0451   16.8399 O   0  0  0  0  0  0  0  0  0  0  0  0
    7.3919  -11.1280   27.0688 C   0  0  0  0  0  0  0  0  0  0  0  0
    6.3816  -12.1479   25.9273 S   0  0  0  0  0  0  0  0  0  0  0  0
    7.2112  -13.7910   25.7653 C   0  0  0  0  0  0  0  0  0  0  0  0
    7.2422  -14.1475   24.3181 C   0  0  0  0  0  0  0  0  0  0  0  0
    8.4189  -14.9377   23.8538 C   0  0  2  0  0  0  0  0  0  0  0  0
    8.1391  -15.2649   22.4394 N   0  0  0  0  0  0  0  0  0  0  0  0
    8.6234  -16.2279   24.5458 C   0  0  0  0  0  0  0  0  0  0  0  0
    8.2922  -17.3374   23.9851 O   0  0  0  0  0  0  0  0  0  0  0  0
    9.1905  -16.3534   25.8505 N   0  0  0  0  0  0  0  0  0  0  0  0
   10.1321  -17.4221   26.1253 C   0  0  1  0  0  0  0  0  0  0  0  0
   11.2960  -17.3604   25.1288 C   0  0  0  0  0  0  0  0  0  0  0  0
   12.3191  -18.3806   25.3648 C   0  0  0  0  0  0  0  0  0  0  0  0
   12.0692  -19.5948   25.4179 O   0  0  0  0  0  0  0  0  0  0  0  0
   10.6843  -17.3683   27.4816 C   0  0  0  0  0  0  0  0  0  0  0  0
   10.9912  -18.5698   28.1144 O   0  0  0  0  0  0  0  0  0  0  0  0
   13.6370  -17.9798   25.5423 O   0  0  0  0  0  0  0  0  0  0  0  0
   10.9082  -16.3075   28.1332 O   0  0  0  0  0  0  0  0  0  0  0  0
  2  1  1  1
  2  3  1  0
  2  6  1  0
  3  4  1  0
  4  8  1  0
  4  5  2  0
  6  7  2  0
 10 11  1  0
 10  9  1  0
 11 12  1  0
 13 12  1  1
 14  6  1  0
 14 13  1  0
 15 13  1  0
 15 16  2  0
 17 15  1  0
 18 17  1  0
 18 19  1  6
 20 19  1  0
 20 24  1  0
 21 20  2  0
 22 23  1  0
 22 18  1  0
 25 22  2  0
M  END
$$$$
