DMD.pdb
     RDKit          3D

 25 24  0  0  1  0  0  0  0  0999 V2000
    7.9748  -13.1383   18.8912 N   0  0  0  0  0  0  0  0  0  0  0  0
    7.7318  -14.3391   19.6823 C   0  0  1  0  0  0  0  0  0  0  0  0
    8.5450  -15.4640   19.0229 C   0  0  0  0  0  0  0  0  0  0  0  0
    7.9234  -15.6802   17.6991 C   0  0  0  0  0  0  0  0  0  0  0  0
    8.5904  -15.6398   16.6275 O   0  0  0  0  0  0  0  0  0  0  0  0
    8.2256  -14.1457   21.0649 C   0  0  0  0  0  0  0  0  0  0  0  0
    9.3927  -13.7550   21.3048 O   0  0  0  0  0  0  0  0  0  0  0  0
    6.5480  -15.9440   17.5812 O   0  0  0  0  0  0  0  0  0  0  0  0
    7.3737  -12.1637   28.0814 C   0  0  0  0  0  0  0  0  0  0  0  0
    7.2402  -12.1708   26.2522 S   0  0  0  0  0  0  0  0  0  0  0  0
    6.5698  -13.8174   25.7485 C   0  0  0  0  0  0  0  0  0  0  0  0
    6.4961  -13.8458   24.2599 C   0  0  0  0  0  0  0  0  0  0  0  0
    7.7555  -14.1904   23.5389 C   0  0  2  0  0  0  0  0  0  0  0  0
    7.3557  -14.4102   22.1327 N   0  0  0  0  0  0  0  0  0  0  0  0
    8.4140  -15.4372   23.9831 C   0  0  0  0  0  0  0  0  0  0  0  0
    7.8867  -16.5851   23.7396 O   0  0  0  0  0  0  0  0  0  0  0  0
    9.6525  -15.4771   24.6933 N   0  0  0  0  0  0  0  0  0  0  0  0
   10.2374  -16.7566   25.0468 C   0  0  1  0  0  0  0  0  0  0  0  0
   11.7010  -16.8043   24.5914 C   0  0  0  0  0  0  0  0  0  0  0  0
   12.3796  -18.0529   24.9432 C   0  0  0  0  0  0  0  0  0  0  0  0
   11.8259  -19.1626   24.9032 O   0  0  0  0  0  0  0  0  0  0  0  0
   10.1941  -17.0316   26.4855 C   0  0  0  0  0  0  0  0  0  0  0  0
    9.6240  -16.0745   27.3206 O   0  0  0  0  0  0  0  0  0  0  0  0
   13.7080  -18.0034   25.3459 O   0  0  0  0  0  0  0  0  0  0  0  0
   10.6369  -18.0794   27.0385 O   0  0  0  0  0  0  0  0  0  0  0  0
  2  1  1  6
  2  3  1  0
  2  6  1  0
  3  4  1  0
  4  8  1  0
  4  5  2  0
  6  7  2  0
 10 11  1  0
 10  9  1  0
 11 12  1  0
 13 12  1  1
 14  6  1  0
 14 13  1  0
 15 13  1  0
 15 16  2  0
 17 15  1  0
 18 17  1  0
 18 19  1  1
 20 19  1  0
 20 24  1  0
 21 20  2  0
 22 23  1  0
 22 18  1  0
 25 22  2  0
M  END
$$$$
