DMD.pdb
     RDKit          3D

 25 24  0  0  1  0  0  0  0  0999 V2000
    7.9518  -14.3092   18.8401 N   0  0  0  0  0  0  0  0  0  0  0  0
    7.7898  -15.4029   19.7910 C   0  0  1  0  0  0  0  0  0  0  0  0
    8.5998  -16.5842   19.2343 C   0  0  0  0  0  0  0  0  0  0  0  0
    7.7972  -17.1250   18.1168 C   0  0  0  0  0  0  0  0  0  0  0  0
    6.6603  -16.6629   17.8191 O   0  0  0  0  0  0  0  0  0  0  0  0
    8.3525  -15.0209   21.1063 C   0  0  0  0  0  0  0  0  0  0  0  0
    9.5371  -14.6295   21.2335 O   0  0  0  0  0  0  0  0  0  0  0  0
    8.2761  -18.1875   17.3313 O   0  0  0  0  0  0  0  0  0  0  0  0
    7.5885  -11.7934   27.6942 C   0  0  0  0  0  0  0  0  0  0  0  0
    7.3424  -12.1358   25.9092 S   0  0  0  0  0  0  0  0  0  0  0  0
    6.8953  -13.9207   25.7404 C   0  0  0  0  0  0  0  0  0  0  0  0
    6.7493  -14.2206   24.2875 C   0  0  0  0  0  0  0  0  0  0  0  0
    7.9852  -14.6477   23.5699 C   0  0  2  0  0  0  0  0  0  0  0  0
    7.5296  -15.1024   22.2390 N   0  0  0  0  0  0  0  0  0  0  0  0
    8.7020  -15.7899   24.1759 C   0  0  0  0  0  0  0  0  0  0  0  0
    8.1438  -16.9452   24.2688 O   0  0  0  0  0  0  0  0  0  0  0  0
   10.0323  -15.7161   24.6902 N   0  0  0  0  0  0  0  0  0  0  0  0
   10.6425  -16.8940   25.2770 C   0  0  1  0  0  0  0  0  0  0  0  0
   12.1639  -16.8397   25.0926 C   0  0  0  0  0  0  0  0  0  0  0  0
   12.5766  -16.7181   23.6933 C   0  0  0  0  0  0  0  0  0  0  0  0
   12.1446  -17.4515   22.7905 O   0  0  0  0  0  0  0  0  0  0  0  0
   10.3572  -17.0383   26.7071 C   0  0  0  0  0  0  0  0  0  0  0  0
    9.7533  -15.9718   27.3677 O   0  0  0  0  0  0  0  0  0  0  0  0
   13.4991  -15.7384   23.3493 O   0  0  0  0  0  0  0  0  0  0  0  0
   10.6172  -18.0641   27.3998 O   0  0  0  0  0  0  0  0  0  0  0  0
  2  1  1  6
  2  3  1  0
  2  6  1  0
  3  4  1  0
  4  8  1  0
  4  5  2  0
  6  7  2  0
 10 11  1  0
 10  9  1  0
 11 12  1  0
 13 12  1  1
 14  6  1  0
 14 13  1  0
 15 13  1  0
 15 16  2  0
 17 15  1  0
 18 17  1  0
 18 19  1  1
 20 19  1  0
 20 24  1  0
 21 20  2  0
 22 23  1  0
 22 18  1  0
 25 22  2  0
M  END
$$$$
