DMD.pdb
     RDKit          3D

 25 24  0  0  1  0  0  0  0  0999 V2000
    7.9305  -14.1024   19.2436 N   0  0  0  0  0  0  0  0  0  0  0  0
    7.5533  -15.0711   20.2664 C   0  0  1  0  0  0  0  0  0  0  0  0
    8.0326  -16.4415   19.7627 C   0  0  0  0  0  0  0  0  0  0  0  0
    7.2042  -16.7404   18.5754 C   0  0  0  0  0  0  0  0  0  0  0  0
    7.5355  -16.3732   17.4134 O   0  0  0  0  0  0  0  0  0  0  0  0
    8.2476  -14.7645   21.5379 C   0  0  0  0  0  0  0  0  0  0  0  0
    9.4634  -14.4591   21.5739 O   0  0  0  0  0  0  0  0  0  0  0  0
    6.0005  -17.4560   18.6959 O   0  0  0  0  0  0  0  0  0  0  0  0
    7.4069  -11.4806   27.1296 C   0  0  0  0  0  0  0  0  0  0  0  0
    5.9080  -11.8912   26.1557 S   0  0  0  0  0  0  0  0  0  0  0  0
    6.4657  -12.6703   24.5757 C   0  0  0  0  0  0  0  0  0  0  0  0
    7.0124  -14.0191   24.8983 C   0  0  0  0  0  0  0  0  0  0  0  0
    8.1317  -14.5048   24.0404 C   0  0  2  0  0  0  0  0  0  0  0  0
    7.5167  -14.8202   22.7335 N   0  0  0  0  0  0  0  0  0  0  0  0
    8.7852  -15.7477   24.5025 C   0  0  0  0  0  0  0  0  0  0  0  0
    8.1923  -16.8843   24.3954 O   0  0  0  0  0  0  0  0  0  0  0  0
   10.0886  -15.7960   25.0844 N   0  0  0  0  0  0  0  0  0  0  0  0
   10.6829  -17.0784   25.4108 C   0  0  1  0  0  0  0  0  0  0  0  0
   12.1491  -17.1027   24.9621 C   0  0  0  0  0  0  0  0  0  0  0  0
   12.8497  -18.3346   25.3290 C   0  0  0  0  0  0  0  0  0  0  0  0
   12.2641  -19.3859   25.6312 O   0  0  0  0  0  0  0  0  0  0  0  0
   10.6347  -17.3876   26.8424 C   0  0  0  0  0  0  0  0  0  0  0  0
   10.0358  -16.4637   27.6945 O   0  0  0  0  0  0  0  0  0  0  0  0
   14.2386  -18.3363   25.3457 O   0  0  0  0  0  0  0  0  0  0  0  0
   11.0976  -18.4374   27.3748 O   0  0  0  0  0  0  0  0  0  0  0  0
  2  1  1  6
  2  3  1  0
  2  6  1  0
  3  4  1  0
  4  8  1  0
  4  5  2  0
  6  7  2  0
 10 11  1  0
 10  9  1  0
 11 12  1  0
 13 12  1  1
 14  6  1  0
 14 13  1  0
 15 13  1  0
 15 16  2  0
 17 15  1  0
 18 17  1  0
 18 19  1  1
 20 19  1  0
 20 24  1  0
 21 20  2  0
 22 23  1  0
 22 18  1  0
 25 22  2  0
M  END
$$$$
