DMD.pdb
     RDKit          3D

 25 24  0  0  1  0  0  0  0  0999 V2000
    9.1576  -15.6161   19.1827 N   0  0  0  0  0  0  0  0  0  0  0  0
    8.5540  -16.3543   20.2860 C   0  0  1  0  0  0  0  0  0  0  0  0
    9.0445  -17.8048   20.1562 C   0  0  0  0  0  0  0  0  0  0  0  0
    8.4744  -18.3049   18.8872 C   0  0  0  0  0  0  0  0  0  0  0  0
    9.1900  -18.8274   17.9872 O   0  0  0  0  0  0  0  0  0  0  0  0
    9.0245  -15.8094   21.5801 C   0  0  0  0  0  0  0  0  0  0  0  0
   10.1717  -15.3219   21.7177 O   0  0  0  0  0  0  0  0  0  0  0  0
    7.0952  -18.2183   18.6310 O   0  0  0  0  0  0  0  0  0  0  0  0
    6.8425  -10.8777   26.5093 C   0  0  0  0  0  0  0  0  0  0  0  0
    6.7726  -12.7027   26.3408 S   0  0  0  0  0  0  0  0  0  0  0  0
    7.2292  -13.1198   24.5995 C   0  0  0  0  0  0  0  0  0  0  0  0
    7.2417  -14.6051   24.4727 C   0  0  0  0  0  0  0  0  0  0  0  0
    8.5061  -15.2184   23.9729 C   0  0  2  0  0  0  0  0  0  0  0  0
    8.1552  -15.8437   22.6800 N   0  0  0  0  0  0  0  0  0  0  0  0
    9.0599  -16.2968   24.8189 C   0  0  0  0  0  0  0  0  0  0  0  0
    8.4417  -17.4175   24.9484 O   0  0  0  0  0  0  0  0  0  0  0  0
   10.2891  -16.1955   25.5391 N   0  0  0  0  0  0  0  0  0  0  0  0
   10.7933  -17.3453   26.2657 C   0  0  1  0  0  0  0  0  0  0  0  0
   12.3246  -17.2925   26.3274 C   0  0  0  0  0  0  0  0  0  0  0  0
   12.9592  -17.2495   25.0088 C   0  0  0  0  0  0  0  0  0  0  0  0
   12.4485  -17.7440   23.9918 O   0  0  0  0  0  0  0  0  0  0  0  0
   10.2803  -17.4309   27.6356 C   0  0  0  0  0  0  0  0  0  0  0  0
   10.6706  -18.5151   28.4171 O   0  0  0  0  0  0  0  0  0  0  0  0
   14.1954  -16.6296   24.8797 O   0  0  0  0  0  0  0  0  0  0  0  0
    9.5028  -16.5909   28.1739 O   0  0  0  0  0  0  0  0  0  0  0  0
  2  1  1  6
  2  3  1  0
  2  6  1  0
  3  4  1  0
  4  8  1  0
  4  5  2  0
  6  7  2  0
 10 11  1  0
 10  9  1  0
 11 12  1  0
 13 12  1  1
 14  6  1  0
 14 13  1  0
 15 13  1  0
 15 16  2  0
 17 15  1  0
 18 17  1  0
 18 19  1  1
 20 19  1  0
 20 24  1  0
 21 20  2  0
 22 23  1  0
 22 18  1  0
 25 22  2  0
M  END
$$$$
