DMD.pdb
     RDKit          3D

 25 24  0  0  1  0  0  0  0  0999 V2000
    7.8257  -17.0453   21.1154 N   0  0  0  0  0  0  0  0  0  0  0  0
    9.1810  -16.5205   20.9957 C   0  0  1  0  0  0  0  0  0  0  0  0
    9.1884  -15.6203   19.7503 C   0  0  0  0  0  0  0  0  0  0  0  0
    9.3497  -16.5348   18.6000 C   0  0  0  0  0  0  0  0  0  0  0  0
   10.1000  -17.5496   18.6466 O   0  0  0  0  0  0  0  0  0  0  0  0
    9.5127  -15.6944   22.1790 C   0  0  0  0  0  0  0  0  0  0  0  0
   10.6721  -15.2621   22.3834 O   0  0  0  0  0  0  0  0  0  0  0  0
    8.6636  -16.3076   17.3946 O   0  0  0  0  0  0  0  0  0  0  0  0
    5.8459  -10.9965   27.2728 C   0  0  0  0  0  0  0  0  0  0  0  0
    5.7909  -12.2103   25.8988 S   0  0  0  0  0  0  0  0  0  0  0  0
    7.4364  -13.0480   25.8288 C   0  0  0  0  0  0  0  0  0  0  0  0
    7.5009  -13.8250   24.5582 C   0  0  0  0  0  0  0  0  0  0  0  0
    8.7522  -14.5997   24.3161 C   0  0  2  0  0  0  0  0  0  0  0  0
    8.4943  -15.3910   23.0942 N   0  0  0  0  0  0  0  0  0  0  0  0
    9.1056  -15.5711   25.3730 C   0  0  0  0  0  0  0  0  0  0  0  0
    9.2724  -15.1903   26.5904 O   0  0  0  0  0  0  0  0  0  0  0  0
    9.2830  -16.9698   25.1453 N   0  0  0  0  0  0  0  0  0  0  0  0
    9.7018  -17.8283   26.2370 C   0  0  1  0  0  0  0  0  0  0  0  0
    9.4615  -19.2969   25.8670 C   0  0  0  0  0  0  0  0  0  0  0  0
   10.1837  -19.7202   24.6659 C   0  0  0  0  0  0  0  0  0  0  0  0
   10.9322  -18.9686   24.0221 O   0  0  0  0  0  0  0  0  0  0  0  0
   11.1158  -17.6672   26.5861 C   0  0  0  0  0  0  0  0  0  0  0  0
   11.5668  -18.2291   27.7775 O   0  0  0  0  0  0  0  0  0  0  0  0
   10.0278  -21.0246   24.2148 O   0  0  0  0  0  0  0  0  0  0  0  0
   11.9714  -17.0526   25.8861 O   0  0  0  0  0  0  0  0  0  0  0  0
  2  1  1  1
  2  3  1  0
  2  6  1  0
  3  4  1  0
  4  8  1  0
  4  5  2  0
  6  7  2  0
 10 11  1  0
 10  9  1  0
 11 12  1  0
 13 12  1  1
 14  6  1  0
 14 13  1  0
 15 13  1  0
 15 16  2  0
 17 15  1  0
 18 17  1  0
 18 19  1  6
 20 19  1  0
 20 24  1  0
 21 20  2  0
 22 23  1  0
 22 18  1  0
 25 22  2  0
M  END
$$$$
