DMD.pdb
     RDKit          3D

 25 24  0  0  1  0  0  0  0  0999 V2000
    7.1526  -16.4941   20.5548 N   0  0  0  0  0  0  0  0  0  0  0  0
    8.5872  -16.2504   20.4603 C   0  0  1  0  0  0  0  0  0  0  0  0
    8.7860  -15.2877   19.2791 C   0  0  0  0  0  0  0  0  0  0  0  0
    8.7409  -16.1321   18.0664 C   0  0  0  0  0  0  0  0  0  0  0  0
    7.6600  -16.6021   17.6131 O   0  0  0  0  0  0  0  0  0  0  0  0
    9.0737  -15.5924   21.6944 C   0  0  0  0  0  0  0  0  0  0  0  0
   10.2596  -15.2034   21.8165 O   0  0  0  0  0  0  0  0  0  0  0  0
    9.9152  -16.4470   17.3612 O   0  0  0  0  0  0  0  0  0  0  0  0
    5.6331  -12.4545   26.8207 C   0  0  0  0  0  0  0  0  0  0  0  0
    7.1012  -11.8776   25.8849 S   0  0  0  0  0  0  0  0  0  0  0  0
    7.1941  -12.8677   24.3275 C   0  0  0  0  0  0  0  0  0  0  0  0
    7.4351  -14.2901   24.7029 C   0  0  0  0  0  0  0  0  0  0  0  0
    8.6241  -14.9472   24.0872 C   0  0  2  0  0  0  0  0  0  0  0  0
    8.1751  -15.4026   22.7543 N   0  0  0  0  0  0  0  0  0  0  0  0
    9.1146  -16.1498   24.7933 C   0  0  0  0  0  0  0  0  0  0  0  0
    8.4123  -17.2271   24.8284 O   0  0  0  0  0  0  0  0  0  0  0  0
   10.3693  -16.2216   25.4718 N   0  0  0  0  0  0  0  0  0  0  0  0
   10.8727  -17.5068   25.9181 C   0  0  1  0  0  0  0  0  0  0  0  0
   12.3344  -17.6729   25.4854 C   0  0  0  0  0  0  0  0  0  0  0  0
   12.9344  -18.9311   25.9327 C   0  0  0  0  0  0  0  0  0  0  0  0
   13.5894  -19.0374   26.9811 O   0  0  0  0  0  0  0  0  0  0  0  0
   10.8005  -17.6801   27.3714 C   0  0  0  0  0  0  0  0  0  0  0  0
   10.3627  -16.6053   28.1405 O   0  0  0  0  0  0  0  0  0  0  0  0
   12.7708  -20.0671   25.1503 O   0  0  0  0  0  0  0  0  0  0  0  0
   11.1064  -18.7384   27.9928 O   0  0  0  0  0  0  0  0  0  0  0  0
  2  1  1  1
  2  3  1  0
  2  6  1  0
  3  4  1  0
  4  8  1  0
  4  5  2  0
  6  7  2  0
 10 11  1  0
 10  9  1  0
 11 12  1  0
 13 12  1  1
 14  6  1  0
 14 13  1  0
 15 13  1  0
 15 16  2  0
 17 15  1  0
 18 17  1  0
 18 19  1  1
 20 19  1  0
 20 24  1  0
 21 20  2  0
 22 23  1  0
 22 18  1  0
 25 22  2  0
M  END
$$$$
