DMD.pdb
     RDKit          3D

 25 24  0  0  1  0  0  0  0  0999 V2000
    8.0334  -17.1105   20.4487 N   0  0  0  0  0  0  0  0  0  0  0  0
    9.4291  -16.7100   20.5834 C   0  0  1  0  0  0  0  0  0  0  0  0
    9.7387  -15.8074   19.3788 C   0  0  0  0  0  0  0  0  0  0  0  0
    9.7251  -16.6995   18.2000 C   0  0  0  0  0  0  0  0  0  0  0  0
    8.6508  -17.1176   17.6844 O   0  0  0  0  0  0  0  0  0  0  0  0
    9.6152  -15.9238   21.8243 C   0  0  0  0  0  0  0  0  0  0  0  0
   10.6773  -15.3015   22.0634 O   0  0  0  0  0  0  0  0  0  0  0  0
   10.9237  -17.1207   17.5989 O   0  0  0  0  0  0  0  0  0  0  0  0
    6.4691  -11.9624   27.5865 C   0  0  0  0  0  0  0  0  0  0  0  0
    6.7348  -12.4470   25.8377 S   0  0  0  0  0  0  0  0  0  0  0  0
    7.1827  -14.2396   25.8178 C   0  0  0  0  0  0  0  0  0  0  0  0
    7.4089  -14.6393   24.3996 C   0  0  0  0  0  0  0  0  0  0  0  0
    8.7306  -15.2552   24.0858 C   0  0  2  0  0  0  0  0  0  0  0  0
    8.5674  -15.8792   22.7555 N   0  0  0  0  0  0  0  0  0  0  0  0
    9.1550  -16.3352   25.0017 C   0  0  0  0  0  0  0  0  0  0  0  0
    8.4573  -17.4090   25.1242 O   0  0  0  0  0  0  0  0  0  0  0  0
   10.3378  -16.2861   25.8007 N   0  0  0  0  0  0  0  0  0  0  0  0
   10.6951  -17.4239   26.6265 C   0  0  1  0  0  0  0  0  0  0  0  0
   12.1942  -17.7167   26.4902 C   0  0  0  0  0  0  0  0  0  0  0  0
   12.6743  -17.6637   25.1082 C   0  0  0  0  0  0  0  0  0  0  0  0
   12.1134  -18.2514   24.1704 O   0  0  0  0  0  0  0  0  0  0  0  0
   10.3929  -17.2224   28.0461 C   0  0  0  0  0  0  0  0  0  0  0  0
   10.6647  -18.2631   28.9302 O   0  0  0  0  0  0  0  0  0  0  0  0
   13.8149  -16.9243   24.8228 O   0  0  0  0  0  0  0  0  0  0  0  0
    9.8996  -16.1682   28.5413 O   0  0  0  0  0  0  0  0  0  0  0  0
  2  1  1  6
  2  3  1  0
  2  6  1  0
  3  4  1  0
  4  8  1  0
  4  5  2  0
  6  7  2  0
 10 11  1  0
 10  9  1  0
 11 12  1  0
 13 12  1  1
 14  6  1  0
 14 13  1  0
 15 13  1  0
 15 16  2  0
 17 15  1  0
 18 17  1  0
 18 19  1  1
 20 19  1  0
 20 24  1  0
 21 20  2  0
 22 23  1  0
 22 18  1  0
 25 22  2  0
M  END
$$$$
