DMD.pdb
     RDKit          3D

 25 24  0  0  1  0  0  0  0  0999 V2000
    8.7492  -16.9746   20.9938 N   0  0  0  0  0  0  0  0  0  0  0  0
   10.0076  -16.3151   21.3228 C   0  0  1  0  0  0  0  0  0  0  0  0
   10.1235  -15.1079   20.3790 C   0  0  0  0  0  0  0  0  0  0  0  0
   10.4205  -15.6730   19.0457 C   0  0  0  0  0  0  0  0  0  0  0  0
   10.6666  -16.8997   18.8739 O   0  0  0  0  0  0  0  0  0  0  0  0
    9.9739  -15.8230   22.7190 C   0  0  0  0  0  0  0  0  0  0  0  0
   10.9122  -15.1507   23.2091 O   0  0  0  0  0  0  0  0  0  0  0  0
   10.4391  -14.8557   17.9024 O   0  0  0  0  0  0  0  0  0  0  0  0
    7.0212  -11.1186   26.0629 C   0  0  0  0  0  0  0  0  0  0  0  0
    7.5067  -12.8678   26.3247 S   0  0  0  0  0  0  0  0  0  0  0  0
    6.9751  -13.8230   24.8350 C   0  0  0  0  0  0  0  0  0  0  0  0
    7.3049  -15.2577   25.0693 C   0  0  0  0  0  0  0  0  0  0  0  0
    8.7356  -15.6459   24.9051 C   0  0  2  0  0  0  0  0  0  0  0  0
    8.8558  -16.1226   23.5108 N   0  0  0  0  0  0  0  0  0  0  0  0
    9.1883  -16.7597   25.7652 C   0  0  0  0  0  0  0  0  0  0  0  0
    8.9524  -16.7551   27.0298 O   0  0  0  0  0  0  0  0  0  0  0  0
    9.8991  -17.9016   25.2851 N   0  0  0  0  0  0  0  0  0  0  0  0
   10.3010  -18.9410   26.2139 C   0  0  1  0  0  0  0  0  0  0  0  0
   10.6114  -20.2328   25.4481 C   0  0  0  0  0  0  0  0  0  0  0  0
    9.4728  -20.7435   24.6827 C   0  0  0  0  0  0  0  0  0  0  0  0
    8.2964  -20.6422   25.0641 O   0  0  0  0  0  0  0  0  0  0  0  0
   11.4803  -18.5809   27.0057 C   0  0  0  0  0  0  0  0  0  0  0  0
   12.1628  -17.4134   26.6745 O   0  0  0  0  0  0  0  0  0  0  0  0
    9.7105  -21.3770   23.4697 O   0  0  0  0  0  0  0  0  0  0  0  0
   11.9352  -19.2508   27.9773 O   0  0  0  0  0  0  0  0  0  0  0  0
  2  1  1  6
  2  3  1  0
  2  6  1  0
  3  4  1  0
  4  8  1  0
  4  5  2  0
  6  7  2  0
 10 11  1  0
 10  9  1  0
 11 12  1  0
 13 12  1  1
 14  6  1  0
 14 13  1  0
 15 13  1  0
 15 16  2  0
 17 15  1  0
 18 17  1  0
 18 19  1  6
 20 19  1  0
 20 24  1  0
 21 20  2  0
 22 23  1  0
 22 18  1  0
 25 22  2  0
M  END
$$$$
