DMD.pdb
     RDKit          3D

 25 24  0  0  1  0  0  0  0  0999 V2000
    8.0831  -17.5974   21.8739 N   0  0  0  0  0  0  0  0  0  0  0  0
    9.0947  -16.5628   21.6923 C   0  0  1  0  0  0  0  0  0  0  0  0
    8.5908  -15.6592   20.5561 C   0  0  0  0  0  0  0  0  0  0  0  0
    8.7169  -16.4641   19.3226 C   0  0  0  0  0  0  0  0  0  0  0  0
    9.8310  -16.6726   18.7655 O   0  0  0  0  0  0  0  0  0  0  0  0
    9.2180  -15.7504   22.9242 C   0  0  0  0  0  0  0  0  0  0  0  0
   10.1150  -14.8849   23.0620 O   0  0  0  0  0  0  0  0  0  0  0  0
    7.5864  -17.0373   18.7152 O   0  0  0  0  0  0  0  0  0  0  0  0
    6.5448  -10.6208   26.2079 C   0  0  0  0  0  0  0  0  0  0  0  0
    6.9376  -12.3362   26.7248 S   0  0  0  0  0  0  0  0  0  0  0  0
    6.7871  -13.4162   25.2331 C   0  0  0  0  0  0  0  0  0  0  0  0
    7.1029  -14.8135   25.6458 C   0  0  0  0  0  0  0  0  0  0  0  0
    8.4584  -15.3218   25.2870 C   0  0  2  0  0  0  0  0  0  0  0  0
    8.3005  -15.9616   23.9636 N   0  0  0  0  0  0  0  0  0  0  0  0
    8.9999  -16.3608   26.1885 C   0  0  0  0  0  0  0  0  0  0  0  0
    9.2613  -16.0953   27.4199 O   0  0  0  0  0  0  0  0  0  0  0  0
    9.2678  -17.7052   25.7880 N   0  0  0  0  0  0  0  0  0  0  0  0
    9.8036  -18.6489   26.7507 C   0  0  1  0  0  0  0  0  0  0  0  0
    9.2012  -20.0383   26.5095 C   0  0  0  0  0  0  0  0  0  0  0  0
    7.7466  -20.0780   26.6704 C   0  0  0  0  0  0  0  0  0  0  0  0
    7.1801  -19.9538   27.7673 O   0  0  0  0  0  0  0  0  0  0  0  0
   11.2633  -18.7639   26.6930 C   0  0  0  0  0  0  0  0  0  0  0  0
   11.8913  -19.6187   27.5948 O   0  0  0  0  0  0  0  0  0  0  0  0
    6.9528  -20.2664   25.5464 O   0  0  0  0  0  0  0  0  0  0  0  0
   12.0093  -18.1435   25.8816 O   0  0  0  0  0  0  0  0  0  0  0  0
  2  1  1  1
  2  3  1  0
  2  6  1  0
  3  4  1  0
  4  8  1  0
  4  5  2  0
  6  7  2  0
 10 11  1  0
 10  9  1  0
 11 12  1  0
 13 12  1  1
 14  6  1  0
 14 13  1  0
 15 13  1  0
 15 16  2  0
 17 15  1  0
 18 17  1  0
 18 19  1  6
 20 19  1  0
 20 24  1  0
 21 20  2  0
 22 23  1  0
 22 18  1  0
 25 22  2  0
M  END
$$$$
