DMD.pdb
     RDKit          3D

 25 24  0  0  1  0  0  0  0  0999 V2000
    8.0535  -17.1877   21.0820 N   0  0  0  0  0  0  0  0  0  0  0  0
    9.2431  -16.3448   21.0494 C   0  0  1  0  0  0  0  0  0  0  0  0
    8.9966  -15.2899   19.9595 C   0  0  0  0  0  0  0  0  0  0  0  0
    9.0868  -16.0168   18.6753 C   0  0  0  0  0  0  0  0  0  0  0  0
    9.2910  -17.2618   18.6192 O   0  0  0  0  0  0  0  0  0  0  0  0
    9.4122  -15.6534   22.3479 C   0  0  0  0  0  0  0  0  0  0  0  0
   10.4285  -14.9658   22.6068 O   0  0  0  0  0  0  0  0  0  0  0  0
    8.9451  -15.3410   17.4511 O   0  0  0  0  0  0  0  0  0  0  0  0
    6.7464  -10.6807   26.2626 C   0  0  0  0  0  0  0  0  0  0  0  0
    7.1918  -12.4490   26.4596 S   0  0  0  0  0  0  0  0  0  0  0  0
    6.8283  -13.2971   24.8587 C   0  0  0  0  0  0  0  0  0  0  0  0
    7.1437  -14.7445   25.0255 C   0  0  0  0  0  0  0  0  0  0  0  0
    8.5243  -15.1706   24.6548 C   0  0  2  0  0  0  0  0  0  0  0  0
    8.4012  -15.7767   23.3120 N   0  0  0  0  0  0  0  0  0  0  0  0
    9.1181  -16.2072   25.5255 C   0  0  0  0  0  0  0  0  0  0  0  0
    9.2023  -16.0322   26.7972 O   0  0  0  0  0  0  0  0  0  0  0  0
    9.6294  -17.4530   25.0496 N   0  0  0  0  0  0  0  0  0  0  0  0
   10.2268  -18.3886   25.9835 C   0  0  1  0  0  0  0  0  0  0  0  0
    9.8638  -19.8246   25.5867 C   0  0  0  0  0  0  0  0  0  0  0  0
   10.5465  -20.8406   26.3897 C   0  0  0  0  0  0  0  0  0  0  0  0
   10.5753  -20.8209   27.6300 O   0  0  0  0  0  0  0  0  0  0  0  0
   11.6871  -18.2843   26.0480 C   0  0  0  0  0  0  0  0  0  0  0  0
   12.3345  -17.5177   25.0829 O   0  0  0  0  0  0  0  0  0  0  0  0
   11.1998  -21.8804   25.7407 O   0  0  0  0  0  0  0  0  0  0  0  0
   12.4172  -18.8396   26.9188 O   0  0  0  0  0  0  0  0  0  0  0  0
  2  1  1  1
  2  3  1  0
  2  6  1  0
  3  4  1  0
  4  8  1  0
  4  5  2  0
  6  7  2  0
 10 11  1  0
 10  9  1  0
 11 12  1  0
 13 12  1  1
 14  6  1  0
 14 13  1  0
 15 13  1  0
 15 16  2  0
 17 15  1  0
 18 17  1  0
 18 19  1  6
 20 19  1  0
 20 24  1  0
 21 20  2  0
 22 23  1  0
 22 18  1  0
 25 22  2  0
M  END
$$$$
