DMD.pdb
     RDKit          3D

 25 24  0  0  1  0  0  0  0  0999 V2000
    7.9311  -17.4224   21.0009 N   0  0  0  0  0  0  0  0  0  0  0  0
    8.9433  -16.4305   20.6571 C   0  0  1  0  0  0  0  0  0  0  0  0
    8.3387  -15.5635   19.5417 C   0  0  0  0  0  0  0  0  0  0  0  0
    8.4006  -16.3906   18.3179 C   0  0  0  0  0  0  0  0  0  0  0  0
    8.8166  -17.5829   18.3313 O   0  0  0  0  0  0  0  0  0  0  0  0
    9.2274  -15.5674   21.8263 C   0  0  0  0  0  0  0  0  0  0  0  0
   10.1753  -14.7464   21.8312 O   0  0  0  0  0  0  0  0  0  0  0  0
    7.9919  -15.8749   17.0760 O   0  0  0  0  0  0  0  0  0  0  0  0
    6.2681  -10.8545   26.5269 C   0  0  0  0  0  0  0  0  0  0  0  0
    6.8642  -12.5889   26.5145 S   0  0  0  0  0  0  0  0  0  0  0  0
    6.8992  -13.1539   24.7555 C   0  0  0  0  0  0  0  0  0  0  0  0
    7.3075  -14.5875   24.7431 C   0  0  0  0  0  0  0  0  0  0  0  0
    8.6569  -14.8891   24.1839 C   0  0  2  0  0  0  0  0  0  0  0  0
    8.4072  -15.6778   22.9586 N   0  0  0  0  0  0  0  0  0  0  0  0
    9.5231  -15.7224   25.0447 C   0  0  0  0  0  0  0  0  0  0  0  0
    9.8964  -15.3079   26.2039 O   0  0  0  0  0  0  0  0  0  0  0  0
   10.0021  -17.0176   24.6806 N   0  0  0  0  0  0  0  0  0  0  0  0
   10.8393  -17.7601   25.6037 C   0  0  1  0  0  0  0  0  0  0  0  0
   10.5759  -19.2632   25.4528 C   0  0  0  0  0  0  0  0  0  0  0  0
   10.0650  -19.8900   26.6732 C   0  0  0  0  0  0  0  0  0  0  0  0
    9.9205  -19.2780   27.7428 O   0  0  0  0  0  0  0  0  0  0  0  0
   12.2710  -17.5213   25.4020 C   0  0  0  0  0  0  0  0  0  0  0  0
   12.6997  -17.1264   24.1376 O   0  0  0  0  0  0  0  0  0  0  0  0
    9.7252  -21.2364   26.6435 O   0  0  0  0  0  0  0  0  0  0  0  0
   13.1607  -17.6456   26.2924 O   0  0  0  0  0  0  0  0  0  0  0  0
  2  1  1  1
  2  3  1  0
  2  6  1  0
  3  4  1  0
  4  8  1  0
  4  5  2  0
  6  7  2  0
 10 11  1  0
 10  9  1  0
 11 12  1  0
 13 12  1  1
 14  6  1  0
 14 13  1  0
 15 13  1  0
 15 16  2  0
 17 15  1  0
 18 17  1  0
 18 19  1  6
 20 19  1  0
 20 24  1  0
 21 20  2  0
 22 23  1  0
 22 18  1  0
 25 22  2  0
M  END
$$$$
