NVV.pdb
     RDKit          3D

 23 22  0  0  1  0  0  0  0  0999 V2000
   19.9094  -19.8979  -12.1368 N   0  0  0  0  0  0  0  0  0  0  0  0
   20.9096  -20.5808  -12.8611 C   0  0  0  0  0  0  0  0  0  0  0  0
   20.8195  -20.5879  -14.1158 O   0  0  0  0  0  0  0  0  0  0  0  0
   22.0168  -21.2573  -12.1368 C   0  0  0  0  0  0  0  0  0  0  0  0
   23.1442  -20.2724  -11.9982 C   0  0  2  0  0  0  0  0  0  0  0  0
   23.6708  -19.8803  -13.2681 N   0  0  0  0  0  0  0  0  0  0  0  0
   24.2311  -20.7635  -11.1275 C   0  0  0  0  0  0  0  0  0  0  0  0
   23.9755  -21.5356  -10.1671 O   0  0  0  0  0  0  0  0  0  0  0  0
   29.0929  -21.3046  -10.4254 C   0  0  0  0  0  0  0  0  0  0  0  0
   27.9505  -20.7435  -11.2393 C   0  0  1  0  0  0  0  0  0  0  0  0
   27.9147  -21.4929  -12.5527 C   0  0  0  0  0  0  0  0  0  0  0  0
   26.6226  -20.8925  -10.4862 C   0  0  2  0  0  0  0  0  0  0  0  0
   25.5940  -20.3867  -11.3386 N   0  0  0  0  0  0  0  0  0  0  0  0
   26.7447  -20.1436   -9.2109 C   0  0  0  0  0  0  0  0  0  0  0  0
   26.5575  -18.8996   -9.2016 O   0  0  0  0  0  0  0  0  0  0  0  0
   25.9919  -21.7243   -5.3739 C   0  0  0  0  0  0  0  0  0  0  0  0
   27.2684  -20.9292   -5.5267 C   0  0  2  0  0  0  0  0  0  0  0  0
   27.5857  -20.2118   -4.2520 C   0  0  0  0  0  0  0  0  0  0  0  0
   27.2372  -20.0257   -6.7336 C   0  0  2  0  0  0  0  0  0  0  0  0
   27.0649  -20.7421   -7.9699 N   0  0  0  0  0  0  0  0  0  0  0  0
   28.5238  -19.2797   -6.7558 C   0  0  0  0  0  0  0  0  0  0  0  0
   28.5643  -18.1317   -6.2446 O   0  0  0  0  0  0  0  0  0  0  0  0
   29.6876  -19.7765   -7.3094 O   0  0  0  0  0  0  0  0  0  0  0  0
  1  2  1  0
  2  3  2  0
  4  5  1  0
  4  2  1  0
  5  6  1  6
  7  8  2  0
  7  5  1  0
 10  9  1  1
 10 12  1  0
 10 11  1  0
 12 13  1  6
 13  7  1  0
 14 20  1  0
 14 12  1  0
 15 14  2  0
 17 16  1  1
 17 19  1  0
 18 17  1  0
 19 20  1  6
 19 21  1  0
 21 23  1  0
 22 21  2  0
M  END
$$$$
