NVV.pdb
     RDKit          3D

 23 22  0  0  1  0  0  0  0  0999 V2000
   22.9057  -20.3580  -19.7729 N   0  0  0  0  0  0  0  0  0  0  0  0
   23.4574  -21.6567  -19.7547 C   0  0  0  0  0  0  0  0  0  0  0  0
   23.1142  -22.4494  -20.6692 O   0  0  0  0  0  0  0  0  0  0  0  0
   24.4074  -22.0425  -18.6791 C   0  0  0  0  0  0  0  0  0  0  0  0
   24.5424  -20.8727  -17.7444 C   0  0  2  0  0  0  0  0  0  0  0  0
   25.2003  -19.7656  -18.3650 N   0  0  0  0  0  0  0  0  0  0  0  0
   25.2213  -21.2236  -16.4808 C   0  0  0  0  0  0  0  0  0  0  0  0
   25.2354  -22.4155  -16.0773 O   0  0  0  0  0  0  0  0  0  0  0  0
   28.6895  -20.6514  -15.7210 C   0  0  0  0  0  0  0  0  0  0  0  0
   27.9610  -20.0794  -14.5276 C   0  0  1  0  0  0  0  0  0  0  0  0
   27.9738  -18.5730  -14.6641 C   0  0  0  0  0  0  0  0  0  0  0  0
   26.5242  -20.6122  -14.4619 C   0  0  2  0  0  0  0  0  0  0  0  0
   25.8784  -20.2382  -15.6800 N   0  0  0  0  0  0  0  0  0  0  0  0
   25.8840  -20.0265  -13.2581 C   0  0  0  0  0  0  0  0  0  0  0  0
   25.3411  -18.8941  -13.3330 O   0  0  0  0  0  0  0  0  0  0  0  0
   23.1696  -21.9401  -11.2872 C   0  0  0  0  0  0  0  0  0  0  0  0
   23.5260  -20.4750  -11.1817 C   0  0  2  0  0  0  0  0  0  0  0  0
   23.0340  -19.7356  -12.3865 C   0  0  0  0  0  0  0  0  0  0  0  0
   24.9929  -20.2630  -10.9036 C   0  0  2  0  0  0  0  0  0  0  0  0
   25.8379  -20.6654  -11.9969 N   0  0  0  0  0  0  0  0  0  0  0  0
   25.3270  -21.0528   -9.6882 C   0  0  0  0  0  0  0  0  0  0  0  0
   26.0728  -22.0579   -9.8082 O   0  0  0  0  0  0  0  0  0  0  0  0
   24.8632  -20.7457   -8.4240 O   0  0  0  0  0  0  0  0  0  0  0  0
  1  2  1  0
  2  3  2  0
  4  5  1  0
  4  2  1  0
  5  6  1  6
  7  8  2  0
  7  5  1  0
 10  9  1  6
 10 12  1  0
 10 11  1  0
 12 13  1  6
 13  7  1  0
 14 20  1  0
 14 12  1  0
 15 14  2  0
 17 16  1  6
 17 19  1  0
 18 17  1  0
 19 20  1  6
 19 21  1  0
 21 23  1  0
 22 21  2  0
M  END
$$$$
