NVV.pdb
     RDKit          3D

 23 22  0  0  1  0  0  0  0  0999 V2000
   27.4911  -27.3193  -17.5745 N   0  0  0  0  0  0  0  0  0  0  0  0
   27.1046  -25.9796  -17.3573 C   0  0  0  0  0  0  0  0  0  0  0  0
   26.1471  -25.5308  -18.0386 O   0  0  0  0  0  0  0  0  0  0  0  0
   27.8241  -25.1552  -16.3519 C   0  0  0  0  0  0  0  0  0  0  0  0
   28.1969  -23.8542  -17.0069 C   0  0  2  0  0  0  0  0  0  0  0  0
   29.4361  -23.9471  -17.7135 N   0  0  0  0  0  0  0  0  0  0  0  0
   28.2376  -22.7247  -16.0565 C   0  0  0  0  0  0  0  0  0  0  0  0
   29.2741  -22.5026  -15.3782 O   0  0  0  0  0  0  0  0  0  0  0  0
   27.9326  -19.0626  -16.2910 C   0  0  0  0  0  0  0  0  0  0  0  0
   26.7934  -19.5348  -15.4184 C   0  0  1  0  0  0  0  0  0  0  0  0
   25.5541  -19.6023  -16.2829 C   0  0  0  0  0  0  0  0  0  0  0  0
   27.1103  -20.9048  -14.8057 C   0  0  2  0  0  0  0  0  0  0  0  0
   27.1186  -21.8538  -15.8734 N   0  0  0  0  0  0  0  0  0  0  0  0
   26.0746  -21.1876  -13.7813 C   0  0  0  0  0  0  0  0  0  0  0  0
   25.0878  -21.9089  -14.0794 O   0  0  0  0  0  0  0  0  0  0  0  0
   26.8209  -20.9017   -9.6116 C   0  0  0  0  0  0  0  0  0  0  0  0
   25.4837  -20.3933  -10.0999 C   0  0  2  0  0  0  0  0  0  0  0  0
   24.4334  -20.6191   -9.0577 C   0  0  0  0  0  0  0  0  0  0  0  0
   25.1195  -20.9528  -11.4519 C   0  0  2  0  0  0  0  0  0  0  0  0
   26.1159  -20.6921  -12.4571 N   0  0  0  0  0  0  0  0  0  0  0  0
   23.8263  -20.3338  -11.8484 C   0  0  0  0  0  0  0  0  0  0  0  0
   23.8431  -19.2094  -12.4107 O   0  0  0  0  0  0  0  0  0  0  0  0
   22.5967  -20.9253  -11.6341 O   0  0  0  0  0  0  0  0  0  0  0  0
  1  2  1  0
  2  3  2  0
  4  5  1  0
  4  2  1  0
  5  6  1  1
  7  8  2  0
  7  5  1  0
 10  9  1  6
 10 12  1  0
 10 11  1  0
 12 13  1  6
 13  7  1  0
 14 20  1  0
 14 12  1  0
 15 14  2  0
 17 16  1  1
 17 19  1  0
 18 17  1  0
 19 20  1  6
 19 21  1  0
 21 23  1  0
 22 21  2  0
M  END
$$$$
