NVV.pdb
     RDKit          3D

 23 22  0  0  1  0  0  0  0  0999 V2000
   24.5821  -15.8526  -17.1087 N   0  0  0  0  0  0  0  0  0  0  0  0
   25.2696  -14.6519  -16.8311 C   0  0  0  0  0  0  0  0  0  0  0  0
   26.3725  -14.7361  -16.2320 O   0  0  0  0  0  0  0  0  0  0  0  0
   24.6838  -13.3506  -17.2453 C   0  0  0  0  0  0  0  0  0  0  0  0
   23.3711  -13.6326  -17.9220 C   0  0  2  0  0  0  0  0  0  0  0  0
   23.5403  -14.3897  -19.1227 N   0  0  0  0  0  0  0  0  0  0  0  0
   22.5940  -12.4079  -18.1991 C   0  0  0  0  0  0  0  0  0  0  0  0
   22.7776  -11.7672  -19.2666 O   0  0  0  0  0  0  0  0  0  0  0  0
   18.5861   -9.7569  -17.3559 C   0  0  0  0  0  0  0  0  0  0  0  0
   19.4037  -11.0272  -17.3452 C   0  0  1  0  0  0  0  0  0  0  0  0
   18.8616  -11.9279  -18.4327 C   0  0  0  0  0  0  0  0  0  0  0  0
   20.8883  -10.7194  -17.5768 C   0  0  2  0  0  0  0  0  0  0  0  0
   21.6184  -11.9108  -17.2797 N   0  0  0  0  0  0  0  0  0  0  0  0
   21.2512   -9.5784  -16.7001 C   0  0  0  0  0  0  0  0  0  0  0  0
   21.4143   -9.7705  -15.4675 O   0  0  0  0  0  0  0  0  0  0  0  0
   23.0791   -6.0513  -18.2784 C   0  0  0  0  0  0  0  0  0  0  0  0
   23.2096   -6.5797  -16.8682 C   0  0  2  0  0  0  0  0  0  0  0  0
   24.3687   -7.5220  -16.7750 C   0  0  0  0  0  0  0  0  0  0  0  0
   21.9172   -7.1636  -16.3557 C   0  0  2  0  0  0  0  0  0  0  0  0
   21.4323   -8.2535  -17.1610 N   0  0  0  0  0  0  0  0  0  0  0  0
   20.9163   -6.0635  -16.3370 C   0  0  0  0  0  0  0  0  0  0  0  0
   20.0796   -5.9933  -17.2730 O   0  0  0  0  0  0  0  0  0  0  0  0
   20.8498   -5.1055  -15.3444 O   0  0  0  0  0  0  0  0  0  0  0  0
  1  2  1  0
  2  3  2  0
  4  5  1  0
  4  2  1  0
  5  6  1  6
  7  8  2  0
  7  5  1  0
 10  9  1  6
 10 12  1  0
 10 11  1  0
 12 13  1  1
 13  7  1  0
 14 20  1  0
 14 12  1  0
 15 14  2  0
 17 16  1  6
 17 19  1  0
 18 17  1  0
 19 20  1  6
 19 21  1  0
 21 23  1  0
 22 21  2  0
M  END
$$$$
