NVV.pdb
     RDKit          3D

 23 22  0  0  1  0  0  0  0  0999 V2000
   18.6108  -13.7557  -21.1358 N   0  0  0  0  0  0  0  0  0  0  0  0
   17.6381  -13.5588  -20.1325 C   0  0  0  0  0  0  0  0  0  0  0  0
   16.5338  -14.1460  -20.2672 O   0  0  0  0  0  0  0  0  0  0  0  0
   17.9395  -12.6825  -18.9709 C   0  0  0  0  0  0  0  0  0  0  0  0
   18.9732  -13.3765  -18.1282 C   0  0  2  0  0  0  0  0  0  0  0  0
   18.4659  -14.5768  -17.5406 N   0  0  0  0  0  0  0  0  0  0  0  0
   19.5436  -12.5016  -17.0842 C   0  0  0  0  0  0  0  0  0  0  0  0
   18.8716  -12.2142  -16.0597 O   0  0  0  0  0  0  0  0  0  0  0  0
   23.4782  -10.4379  -15.0158 C   0  0  0  0  0  0  0  0  0  0  0  0
   22.8384  -11.4103  -15.9788 C   0  0  1  0  0  0  0  0  0  0  0  0
   22.9913  -12.7975  -15.3955 C   0  0  0  0  0  0  0  0  0  0  0  0
   21.3595  -11.0661  -16.1956 C   0  0  2  0  0  0  0  0  0  0  0  0
   20.8605  -11.9560  -17.1955 N   0  0  0  0  0  0  0  0  0  0  0  0
   21.2858   -9.6389  -16.5951 C   0  0  0  0  0  0  0  0  0  0  0  0
   21.8422   -9.2629  -17.6590 O   0  0  0  0  0  0  0  0  0  0  0  0
   18.5934   -7.5892  -17.7218 C   0  0  0  0  0  0  0  0  0  0  0  0
   19.1712   -6.7913  -16.5753 C   0  0  2  0  0  0  0  0  0  0  0  0
   19.0844   -5.3265  -16.8701 C   0  0  0  0  0  0  0  0  0  0  0  0
   20.5593   -7.2488  -16.2040 C   0  0  2  0  0  0  0  0  0  0  0  0
   20.6173   -8.6418  -15.8470 N   0  0  0  0  0  0  0  0  0  0  0  0
   21.0037   -6.4132  -15.0564 C   0  0  0  0  0  0  0  0  0  0  0  0
   20.6863   -6.7686  -13.8929 O   0  0  0  0  0  0  0  0  0  0  0  0
   21.7509   -5.2596  -15.1931 O   0  0  0  0  0  0  0  0  0  0  0  0
  1  2  1  0
  2  3  2  0
  4  5  1  0
  4  2  1  0
  5  6  1  1
  7  8  2  0
  7  5  1  0
 10  9  1  1
 10 12  1  0
 10 11  1  0
 12 13  1  6
 13  7  1  0
 14 20  1  0
 14 12  1  0
 15 14  2  0
 17 16  1  6
 17 19  1  0
 18 17  1  0
 19 20  1  1
 19 21  1  0
 21 23  1  0
 22 21  2  0
M  END
$$$$
