NVV.pdb
     RDKit          3D

 23 22  0  0  1  0  0  0  0  0999 V2000
   25.0579  -14.0422  -15.8985 N   0  0  0  0  0  0  0  0  0  0  0  0
   25.6667  -12.7962  -15.6374 C   0  0  0  0  0  0  0  0  0  0  0  0
   26.7718  -12.8013  -15.0362 O   0  0  0  0  0  0  0  0  0  0  0  0
   24.9998  -11.5410  -16.0706 C   0  0  0  0  0  0  0  0  0  0  0  0
   23.6462  -11.9044  -16.6148 C   0  0  2  0  0  0  0  0  0  0  0  0
   23.7415  -12.7389  -17.7716 N   0  0  0  0  0  0  0  0  0  0  0  0
   22.8100  -10.7232  -16.9082 C   0  0  0  0  0  0  0  0  0  0  0  0
   23.0269  -10.0312  -17.9368 O   0  0  0  0  0  0  0  0  0  0  0  0
   19.3016  -10.4331  -17.7056 C   0  0  0  0  0  0  0  0  0  0  0  0
   19.5073   -9.5939  -16.4664 C   0  0  1  0  0  0  0  0  0  0  0  0
   19.0892  -10.4280  -15.2758 C   0  0  0  0  0  0  0  0  0  0  0  0
   20.9725   -9.1573  -16.3432 C   0  0  2  0  0  0  0  0  0  0  0  0
   21.7387  -10.3264  -16.0486 N   0  0  0  0  0  0  0  0  0  0  0  0
   21.0449   -8.1279  -15.2769 C   0  0  0  0  0  0  0  0  0  0  0  0
   21.1249   -8.4858  -14.0735 O   0  0  0  0  0  0  0  0  0  0  0  0
   23.2605   -4.8604  -15.5737 C   0  0  0  0  0  0  0  0  0  0  0  0
   21.9164   -4.5057  -14.9800 C   0  0  2  0  0  0  0  0  0  0  0  0
   22.0783   -3.4556  -13.9258 C   0  0  0  0  0  0  0  0  0  0  0  0
   21.1628   -5.7227  -14.5057 C   0  0  2  0  0  0  0  0  0  0  0  0
   21.0301   -6.7346  -15.5205 N   0  0  0  0  0  0  0  0  0  0  0  0
   19.8169   -5.2627  -14.0705 C   0  0  0  0  0  0  0  0  0  0  0  0
   19.6877   -4.7830  -12.9154 O   0  0  0  0  0  0  0  0  0  0  0  0
   18.6899   -5.3312  -14.8660 O   0  0  0  0  0  0  0  0  0  0  0  0
  1  2  1  0
  2  3  2  0
  4  5  1  0
  4  2  1  0
  5  6  1  6
  7  8  2  0
  7  5  1  0
 10  9  1  6
 10 12  1  0
 10 11  1  0
 12 13  1  1
 13  7  1  0
 14 20  1  0
 14 12  1  0
 15 14  2  0
 17 16  1  1
 17 19  1  0
 18 17  1  0
 19 20  1  6
 19 21  1  0
 21 23  1  0
 22 21  2  0
M  END
$$$$
