NVV.pdb
     RDKit          3D

 23 22  0  0  1  0  0  0  0  0999 V2000
   19.4669  -11.8421  -20.6027 N   0  0  0  0  0  0  0  0  0  0  0  0
   18.7082  -10.7279  -20.1853 C   0  0  0  0  0  0  0  0  0  0  0  0
   18.0393  -10.1172  -21.0584 O   0  0  0  0  0  0  0  0  0  0  0  0
   18.7207  -10.3166  -18.7575 C   0  0  0  0  0  0  0  0  0  0  0  0
   19.5902  -11.2873  -18.0076 C   0  0  2  0  0  0  0  0  0  0  0  0
   18.9274  -12.5333  -17.7801 N   0  0  0  0  0  0  0  0  0  0  0  0
   20.0936  -10.7394  -16.7321 C   0  0  0  0  0  0  0  0  0  0  0  0
   19.4132  -10.8534  -15.6795 O   0  0  0  0  0  0  0  0  0  0  0  0
   22.9832  -11.6814  -14.9643 C   0  0  0  0  0  0  0  0  0  0  0  0
   23.1363  -10.1818  -15.0645 C   0  0  1  0  0  0  0  0  0  0  0  0
   24.1643   -9.8987  -16.1373 C   0  0  0  0  0  0  0  0  0  0  0  0
   21.7943   -9.5203  -15.4022 C   0  0  2  0  0  0  0  0  0  0  0  0
   21.3534  -10.0690  -16.6452 N   0  0  0  0  0  0  0  0  0  0  0  0
   22.0191   -8.0545  -15.4581 C   0  0  0  0  0  0  0  0  0  0  0  0
   22.6126   -7.5553  -16.4488 O   0  0  0  0  0  0  0  0  0  0  0  0
   19.4677   -5.1255  -14.0180 C   0  0  0  0  0  0  0  0  0  0  0  0
   20.6684   -4.9254  -14.9142 C   0  0  2  0  0  0  0  0  0  0  0  0
   20.2915   -5.1624  -16.3432 C   0  0  0  0  0  0  0  0  0  0  0  0
   21.8581   -5.7353  -14.4639 C   0  0  2  0  0  0  0  0  0  0  0  0
   21.6038   -7.1518  -14.4515 N   0  0  0  0  0  0  0  0  0  0  0  0
   22.2105   -5.2722  -13.0950 C   0  0  0  0  0  0  0  0  0  0  0  0
   22.7556   -4.1472  -12.9604 O   0  0  0  0  0  0  0  0  0  0  0  0
   21.9728   -6.0103  -11.9520 O   0  0  0  0  0  0  0  0  0  0  0  0
  1  2  1  0
  2  3  2  0
  4  5  1  0
  4  2  1  0
  5  6  1  1
  7  8  2  0
  7  5  1  0
 10  9  1  6
 10 12  1  0
 10 11  1  0
 12 13  1  6
 13  7  1  0
 14 20  1  0
 14 12  1  0
 15 14  2  0
 17 16  1  1
 17 19  1  0
 18 17  1  0
 19 20  1  1
 19 21  1  0
 21 23  1  0
 22 21  2  0
M  END
$$$$
