NVV.pdb
     RDKit          3D

 23 22  0  0  1  0  0  0  0  0999 V2000
   21.9841  -19.6862  -13.3635 N   0  0  0  0  0  0  0  0  0  0  0  0
   21.6482  -19.6382  -11.9938 C   0  0  0  0  0  0  0  0  0  0  0  0
   20.5921  -19.0346  -11.6728 O   0  0  0  0  0  0  0  0  0  0  0  0
   22.5321  -20.2879  -10.9915 C   0  0  0  0  0  0  0  0  0  0  0  0
   23.7484  -20.7974  -11.7136 C   0  0  2  0  0  0  0  0  0  0  0  0
   23.4330  -21.8763  -12.5969 N   0  0  0  0  0  0  0  0  0  0  0  0
   24.8360  -21.1932  -10.7965 C   0  0  0  0  0  0  0  0  0  0  0  0
   24.7406  -22.2474  -10.1159 O   0  0  0  0  0  0  0  0  0  0  0  0
   29.5505  -20.9480   -9.5689 C   0  0  0  0  0  0  0  0  0  0  0  0
   28.3932  -20.5674  -10.4623 C   0  0  1  0  0  0  0  0  0  0  0  0
   28.5026  -21.3909  -11.7264 C   0  0  0  0  0  0  0  0  0  0  0  0
   27.0556  -20.8212   -9.7560 C   0  0  2  0  0  0  0  0  0  0  0  0
   26.0206  -20.4063  -10.6490 N   0  0  0  0  0  0  0  0  0  0  0  0
   27.0693  -20.0580   -8.4835 C   0  0  0  0  0  0  0  0  0  0  0  0
   26.6100  -18.8871   -8.4573 O   0  0  0  0  0  0  0  0  0  0  0  0
   26.0145  -21.2846   -4.8037 C   0  0  0  0  0  0  0  0  0  0  0  0
   27.3994  -20.6789   -4.8134 C   0  0  2  0  0  0  0  0  0  0  0  0
   27.6611  -19.9676   -3.5228 C   0  0  0  0  0  0  0  0  0  0  0  0
   27.6395  -19.8228   -6.0313 C   0  0  2  0  0  0  0  0  0  0  0  0
   27.5749  -20.5641   -7.2633 N   0  0  0  0  0  0  0  0  0  0  0  0
   28.9869  -19.2114   -5.8784 C   0  0  0  0  0  0  0  0  0  0  0  0
   29.9807  -19.8140   -6.3581 O   0  0  0  0  0  0  0  0  0  0  0  0
   29.2142  -18.0103   -5.2354 O   0  0  0  0  0  0  0  0  0  0  0  0
  1  2  1  0
  2  3  2  0
  4  5  1  0
  4  2  1  0
  5  6  1  1
  7  8  2  0
  7  5  1  0
 10  9  1  1
 10 12  1  0
 10 11  1  0
 12 13  1  6
 13  7  1  0
 14 20  1  0
 14 12  1  0
 15 14  2  0
 17 16  1  1
 17 19  1  0
 18 17  1  0
 19 20  1  6
 19 21  1  0
 21 23  1  0
 22 21  2  0
M  END
$$$$
