NVV.pdb
     RDKit          3D

 23 22  0  0  1  0  0  0  0  0999 V2000
   24.2772  -34.9074  -14.5065 N   0  0  0  0  0  0  0  0  0  0  0  0
   24.8736  -36.0665  -13.9660 C   0  0  0  0  0  0  0  0  0  0  0  0
   24.4344  -37.1815  -14.3489 O   0  0  0  0  0  0  0  0  0  0  0  0
   25.9793  -35.9399  -12.9813 C   0  0  0  0  0  0  0  0  0  0  0  0
   26.1996  -34.4750  -12.7243 C   0  0  2  0  0  0  0  0  0  0  0  0
   27.0882  -33.8922  -13.6805 N   0  0  0  0  0  0  0  0  0  0  0  0
   26.6756  -34.1984  -11.3541 C   0  0  0  0  0  0  0  0  0  0  0  0
   27.9080  -34.1908  -11.0993 O   0  0  0  0  0  0  0  0  0  0  0  0
   24.1945  -32.2904   -8.7477 C   0  0  0  0  0  0  0  0  0  0  0  0
   25.6847  -32.3425   -8.5050 C   0  0  1  0  0  0  0  0  0  0  0  0
   25.9135  -32.1312   -7.0248 C   0  0  0  0  0  0  0  0  0  0  0  0
   26.2629  -33.6872   -8.9633 C   0  0  2  0  0  0  0  0  0  0  0  0
   25.7689  -33.9327  -10.2810 N   0  0  0  0  0  0  0  0  0  0  0  0
   25.8395  -34.7150   -7.9802 C   0  0  0  0  0  0  0  0  0  0  0  0
   24.6905  -35.2199   -8.0664 O   0  0  0  0  0  0  0  0  0  0  0  0
   27.1922  -38.0632   -7.4904 C   0  0  0  0  0  0  0  0  0  0  0  0
   27.2141  -37.4361   -6.1152 C   0  0  2  0  0  0  0  0  0  0  0  0
   26.9537  -38.4749   -5.0697 C   0  0  0  0  0  0  0  0  0  0  0  0
   26.2984  -36.2420   -6.0178 C   0  0  2  0  0  0  0  0  0  0  0  0
   26.6556  -35.1821   -6.9235 N   0  0  0  0  0  0  0  0  0  0  0  0
   26.3642  -35.7527   -4.6147 C   0  0  0  0  0  0  0  0  0  0  0  0
   27.3197  -35.0070   -4.2801 O   0  0  0  0  0  0  0  0  0  0  0  0
   25.4304  -36.0710   -3.6480 O   0  0  0  0  0  0  0  0  0  0  0  0
  1  2  1  0
  2  3  2  0
  4  5  1  0
  4  2  1  0
  5  6  1  6
  7  8  2  0
  7  5  1  0
 10  9  1  1
 10 12  1  0
 10 11  1  0
 12 13  1  6
 13  7  1  0
 14 20  1  0
 14 12  1  0
 15 14  2  0
 17 16  1  6
 17 19  1  0
 18 17  1  0
 19 20  1  6
 19 21  1  0
 21 23  1  0
 22 21  2  0
M  END
$$$$
