NVV.pdb
     RDKit          3D

 23 22  0  0  1  0  0  0  0  0999 V2000
   24.6155  -20.8355   -8.1201 N   0  0  0  0  0  0  0  0  0  0  0  0
   26.0016  -20.6385   -8.2972 C   0  0  0  0  0  0  0  0  0  0  0  0
   26.7048  -20.4803   -7.2662 O   0  0  0  0  0  0  0  0  0  0  0  0
   26.5783  -20.6237   -9.6665 C   0  0  0  0  0  0  0  0  0  0  0  0
   25.4436  -20.7549  -10.6441 C   0  0  2  0  0  0  0  0  0  0  0  0
   24.7328  -21.9838  -10.4765 N   0  0  0  0  0  0  0  0  0  0  0  0
   25.8761  -20.6059  -12.0482 C   0  0  0  0  0  0  0  0  0  0  0  0
   26.6952  -21.4190  -12.5501 O   0  0  0  0  0  0  0  0  0  0  0  0
   25.3071  -22.0242  -14.3499 C   0  0  0  0  0  0  0  0  0  0  0  0
   24.8600  -20.6919  -14.9042 C   0  0  1  0  0  0  0  0  0  0  0  0
   23.3853  -20.5438  -14.6023 C   0  0  0  0  0  0  0  0  0  0  0  0
   25.6658  -19.5459  -14.2797 C   0  0  2  0  0  0  0  0  0  0  0  0
   25.3887  -19.5488  -12.8783 N   0  0  0  0  0  0  0  0  0  0  0  0
   25.2538  -18.2896  -14.9536 C   0  0  0  0  0  0  0  0  0  0  0  0
   24.2632  -17.6480  -14.5180 O   0  0  0  0  0  0  0  0  0  0  0  0
   27.8576  -16.2196  -17.7264 C   0  0  0  0  0  0  0  0  0  0  0  0
   26.7959  -15.5859  -16.8568 C   0  0  2  0  0  0  0  0  0  0  0  0
   27.3927  -15.1317  -15.5615 C   0  0  0  0  0  0  0  0  0  0  0  0
   25.5922  -16.4777  -16.6844 C   0  0  2  0  0  0  0  0  0  0  0  0
   25.9111  -17.7450  -16.0815 N   0  0  0  0  0  0  0  0  0  0  0  0
   25.0089  -16.6924  -18.0358 C   0  0  0  0  0  0  0  0  0  0  0  0
   24.4453  -15.7262  -18.6100 O   0  0  0  0  0  0  0  0  0  0  0  0
   25.0493  -17.9004  -18.7042 O   0  0  0  0  0  0  0  0  0  0  0  0
  1  2  1  0
  2  3  2  0
  4  5  1  0
  4  2  1  0
  5  6  1  6
  7  8  2  0
  7  5  1  0
 10  9  1  1
 10 12  1  0
 10 11  1  0
 12 13  1  1
 13  7  1  0
 14 20  1  0
 14 12  1  0
 15 14  2  0
 17 16  1  1
 17 19  1  0
 18 17  1  0
 19 20  1  6
 19 21  1  0
 21 23  1  0
 22 21  2  0
M  END
$$$$
