NVV.pdb
     RDKit          3D

 23 22  0  0  1  0  0  0  0  0999 V2000
   27.8346  -22.4357  -16.5145 N   0  0  0  0  0  0  0  0  0  0  0  0
   28.7740  -22.2185  -15.4842 C   0  0  0  0  0  0  0  0  0  0  0  0
   29.8505  -22.8679  -15.5296 O   0  0  0  0  0  0  0  0  0  0  0  0
   28.4716  -21.2500  -14.3985 C   0  0  0  0  0  0  0  0  0  0  0  0
   27.0469  -20.8005  -14.5679 C   0  0  2  0  0  0  0  0  0  0  0  0
   26.9060  -19.8613  -15.6364 N   0  0  0  0  0  0  0  0  0  0  0  0
   26.4684  -20.2481  -13.3266 C   0  0  0  0  0  0  0  0  0  0  0  0
   26.6577  -19.0424  -13.0194 O   0  0  0  0  0  0  0  0  0  0  0  0
   22.9618  -20.1634  -10.0468 C   0  0  0  0  0  0  0  0  0  0  0  0
   23.6183  -20.6925  -11.3002 C   0  0  1  0  0  0  0  0  0  0  0  0
   23.0106  -19.9618  -12.4770 C   0  0  0  0  0  0  0  0  0  0  0  0
   25.1368  -20.4819  -11.2483 C   0  0  2  0  0  0  0  0  0  0  0  0
   25.6833  -21.0491  -12.4400 N   0  0  0  0  0  0  0  0  0  0  0  0
   25.6366  -21.1305  -10.0107 C   0  0  0  0  0  0  0  0  0  0  0  0
   25.5023  -22.3726   -9.8634 O   0  0  0  0  0  0  0  0  0  0  0  0
   26.9650  -18.8100   -6.5717 C   0  0  0  0  0  0  0  0  0  0  0  0
   27.5890  -20.1474   -6.8989 C   0  0  2  0  0  0  0  0  0  0  0  0
   28.9292  -19.9500   -7.5354 C   0  0  0  0  0  0  0  0  0  0  0  0
   26.6650  -21.0269   -7.7030 C   0  0  2  0  0  0  0  0  0  0  0  0
   26.2709  -20.4355   -8.9546 N   0  0  0  0  0  0  0  0  0  0  0  0
   25.4639  -21.2835   -6.8639 C   0  0  0  0  0  0  0  0  0  0  0  0
   24.4501  -20.5572   -7.0237 O   0  0  0  0  0  0  0  0  0  0  0  0
   25.3945  -22.2808   -5.9108 O   0  0  0  0  0  0  0  0  0  0  0  0
  1  2  1  0
  2  3  2  0
  4  5  1  0
  4  2  1  0
  5  6  1  6
  7  8  2  0
  7  5  1  0
 10  9  1  1
 10 12  1  0
 10 11  1  0
 12 13  1  6
 13  7  1  0
 14 20  1  0
 14 12  1  0
 15 14  2  0
 17 16  1  6
 17 19  1  0
 18 17  1  0
 19 20  1  6
 19 21  1  0
 21 23  1  0
 22 21  2  0
M  END
$$$$
