DER.pdb
     RDKit          3D

 29 28  0  0  1  0  0  0  0  0999 V2000
   19.9637  -11.7551  -15.7764 N   0  0  0  0  0  0  0  0  0  0  0  0
   18.9416  -10.7882  -15.5214 C   0  0  1  0  0  0  0  0  0  0  0  0
   17.6338  -11.5354  -15.2338 C   0  0  0  0  0  0  0  0  0  0  0  0
   17.0758  -11.9216  -16.5440 C   0  0  0  0  0  0  0  0  0  0  0  0
   17.7067  -11.6483  -17.5841 O   0  0  0  0  0  0  0  0  0  0  0  0
   19.2421   -9.8820  -14.3907 C   0  0  0  0  0  0  0  0  0  0  0  0
   19.8628  -10.3946  -13.4071 O   0  0  0  0  0  0  0  0  0  0  0  0
   15.8656  -12.5784  -16.5965 O   0  0  0  0  0  0  0  0  0  0  0  0
   18.8812   -8.5205  -14.3591 N   0  0  0  0  0  0  0  0  0  0  0  0
   19.2501   -7.6287  -13.2738 C   0  0  1  0  0  0  0  0  0  0  0  0
   20.2850   -6.6427  -13.6782 C   0  0  0  0  0  0  0  0  0  0  0  0
   20.7881   -5.6911  -12.6770 C   0  0  0  0  0  0  0  0  0  0  0  0
   21.8362   -4.7496  -13.0645 C   0  0  0  0  0  0  0  0  0  0  0  0
   22.1056   -3.6967  -12.4597 O   0  0  0  0  0  0  0  0  0  0  0  0
   18.1287   -7.1644  -12.4682 C   0  0  0  0  0  0  0  0  0  0  0  0
   17.1801   -6.5100  -13.0241 O   0  0  0  0  0  0  0  0  0  0  0  0
   22.6343   -4.9984  -14.1990 O   0  0  0  0  0  0  0  0  0  0  0  0
   11.3140   -9.6447   -7.6727 N   0  0  0  0  0  0  0  0  0  0  0  0
   11.4655   -8.2184   -7.6604 C   0  0  0  0  0  0  0  0  0  0  0  0
   10.4690   -7.4535   -7.3387 N   0  0  0  0  0  0  0  0  0  0  0  0
   12.6949   -7.5889   -7.9969 N   0  0  0  0  0  0  0  0  0  0  0  0
   13.7667   -8.2852   -8.6755 C   0  0  0  0  0  0  0  0  0  0  0  0
   14.8363   -7.2460   -8.9954 C   0  0  0  0  0  0  0  0  0  0  0  0
   15.9903   -7.8569   -9.7372 C   0  0  0  0  0  0  0  0  0  0  0  0
   16.8772   -6.8069  -10.2952 C   0  0  2  0  0  0  0  0  0  0  0  0
   17.9831   -7.3846  -11.0681 N   0  0  0  0  0  0  0  0  0  0  0  0
   17.3715   -5.8611   -9.2811 C   0  0  0  0  0  0  0  0  0  0  0  0
   16.4073   -4.9474   -8.7755 O   0  0  0  0  0  0  0  0  0  0  0  0
   18.5192   -5.7720   -8.8242 O   0  0  0  0  0  0  0  0  0  0  0  0
  2  3  1  0
  2  1  1  1
  3  4  1  0
  4  5  2  0
  6  2  1  0
  6  7  2  0
  8  4  1  0
  9  6  1  0
 10  9  1  0
 10 15  1  0
 10 11  1  6
 12 11  1  0
 12 13  1  0
 13 14  2  0
 15 26  1  0
 16 15  2  0
 17 13  1  0
 18 19  1  0
 19 21  1  0
 20 19  2  0
 21 22  1  0
 22 23  1  0
 23 24  1  0
 25 24  1  1
 25 27  1  0
 26 25  1  0
 27 29  2  0
 27 28  1  0
M  END
$$$$
