DER.pdb
     RDKit          3D

 29 28  0  0  1  0  0  0  0  0999 V2000
   16.8225  -12.6809  -15.8799 N   0  0  0  0  0  0  0  0  0  0  0  0
   16.6018  -12.3237  -14.5130 C   0  0  1  0  0  0  0  0  0  0  0  0
   16.9504  -13.5335  -13.6377 C   0  0  0  0  0  0  0  0  0  0  0  0
   15.8059  -14.4603  -13.7299 C   0  0  0  0  0  0  0  0  0  0  0  0
   14.8906  -14.2256  -14.5432 O   0  0  0  0  0  0  0  0  0  0  0  0
   17.3910  -11.1554  -14.0636 C   0  0  0  0  0  0  0  0  0  0  0  0
   17.3012  -10.8546  -12.8319 O   0  0  0  0  0  0  0  0  0  0  0  0
   15.7675  -15.5705  -12.9147 O   0  0  0  0  0  0  0  0  0  0  0  0
   18.2103  -10.3877  -14.9146 N   0  0  0  0  0  0  0  0  0  0  0  0
   18.9254   -9.2046  -14.4694 C   0  0  1  0  0  0  0  0  0  0  0  0
   20.1672   -8.9668  -15.2493 C   0  0  0  0  0  0  0  0  0  0  0  0
   20.9333   -7.7361  -15.0055 C   0  0  0  0  0  0  0  0  0  0  0  0
   22.1512   -7.5000  -15.7779 C   0  0  0  0  0  0  0  0  0  0  0  0
   22.8695   -8.3918  -16.2634 O   0  0  0  0  0  0  0  0  0  0  0  0
   18.0717   -8.0648  -14.1624 C   0  0  0  0  0  0  0  0  0  0  0  0
   17.1956   -7.6847  -15.0139 O   0  0  0  0  0  0  0  0  0  0  0  0
   22.5959   -6.1857  -16.0239 O   0  0  0  0  0  0  0  0  0  0  0  0
   14.3331   -6.7990   -6.7109 N   0  0  0  0  0  0  0  0  0  0  0  0
   13.9735   -7.6985   -7.7687 C   0  0  0  0  0  0  0  0  0  0  0  0
   13.0902   -8.6270   -7.5712 N   0  0  0  0  0  0  0  0  0  0  0  0
   14.5614   -7.6151   -9.0604 N   0  0  0  0  0  0  0  0  0  0  0  0
   15.5751   -6.6377   -9.3934 C   0  0  0  0  0  0  0  0  0  0  0  0
   15.8669   -6.7930  -10.8824 C   0  0  0  0  0  0  0  0  0  0  0  0
   16.9883   -5.8943  -11.3184 C   0  0  0  0  0  0  0  0  0  0  0  0
   17.3092   -6.1043  -12.7513 C   0  0  2  0  0  0  0  0  0  0  0  0
   18.1207   -7.3102  -12.9549 N   0  0  0  0  0  0  0  0  0  0  0  0
   17.9279   -4.9305  -13.3890 C   0  0  0  0  0  0  0  0  0  0  0  0
   17.1552   -3.7381  -13.3557 O   0  0  0  0  0  0  0  0  0  0  0  0
   19.0325   -4.8652  -13.9454 O   0  0  0  0  0  0  0  0  0  0  0  0
  2  3  1  0
  2  1  1  6
  3  4  1  0
  4  5  2  0
  6  2  1  0
  6  7  2  0
  8  4  1  0
  9  6  1  0
 10  9  1  0
 10 15  1  0
 10 11  1  6
 12 11  1  0
 12 13  1  0
 13 14  2  0
 15 26  1  0
 16 15  2  0
 17 13  1  0
 18 19  1  0
 19 21  1  0
 20 19  2  0
 21 22  1  0
 22 23  1  0
 23 24  1  0
 25 24  1  1
 25 27  1  0
 26 25  1  0
 27 29  2  0
 27 28  1  0
M  END
$$$$
