DER.pdb
     RDKit          3D

 29 28  0  0  1  0  0  0  0  0999 V2000
   22.1892  -13.4742  -15.9443 N   0  0  0  0  0  0  0  0  0  0  0  0
   21.7025  -12.4893  -16.8596 C   0  0  1  0  0  0  0  0  0  0  0  0
   20.2115  -12.7530  -17.1017 C   0  0  0  0  0  0  0  0  0  0  0  0
   20.1154  -14.1037  -17.6880 C   0  0  0  0  0  0  0  0  0  0  0  0
   19.7767  -15.0627  -16.9669 O   0  0  0  0  0  0  0  0  0  0  0  0
   21.8799  -11.0965  -16.3921 C   0  0  0  0  0  0  0  0  0  0  0  0
   21.3342  -10.8005  -15.2829 O   0  0  0  0  0  0  0  0  0  0  0  0
   20.4018  -14.2830  -19.0238 O   0  0  0  0  0  0  0  0  0  0  0  0
   22.6036  -10.1173  -17.1006 N   0  0  0  0  0  0  0  0  0  0  0  0
   22.6391   -8.7197  -16.7068 C   0  0  1  0  0  0  0  0  0  0  0  0
   23.8939   -8.0449  -17.1270 C   0  0  0  0  0  0  0  0  0  0  0  0
   24.0519   -6.6085  -16.8568 C   0  0  0  0  0  0  0  0  0  0  0  0
   25.2756   -5.9401  -17.2938 C   0  0  0  0  0  0  0  0  0  0  0  0
   26.2357   -6.5048  -17.8472 O   0  0  0  0  0  0  0  0  0  0  0  0
   21.3787   -8.0115  -16.8855 C   0  0  0  0  0  0  0  0  0  0  0  0
   20.6439   -8.2762  -17.8990 O   0  0  0  0  0  0  0  0  0  0  0  0
   25.4386   -4.5536  -17.1010 O   0  0  0  0  0  0  0  0  0  0  0  0
   13.3081   -8.9702  -15.7292 N   0  0  0  0  0  0  0  0  0  0  0  0
   13.4609   -7.5697  -15.9987 C   0  0  0  0  0  0  0  0  0  0  0  0
   12.4201   -6.8134  -16.1611 N   0  0  0  0  0  0  0  0  0  0  0  0
   14.7399   -6.9575  -16.1001 N   0  0  0  0  0  0  0  0  0  0  0  0
   15.9731   -7.7027  -15.9660 C   0  0  0  0  0  0  0  0  0  0  0  0
   17.1136   -6.7086  -16.1590 C   0  0  0  0  0  0  0  0  0  0  0  0
   18.4521   -7.3783  -16.0353 C   0  0  0  0  0  0  0  0  0  0  0  0
   19.5527   -6.3969  -16.1963 C   0  0  2  0  0  0  0  0  0  0  0  0
   20.8677   -7.0188  -16.0005 N   0  0  0  0  0  0  0  0  0  0  0  0
   19.3965   -5.2012  -15.3518 C   0  0  0  0  0  0  0  0  0  0  0  0
   18.4472   -4.2482  -15.8107 O   0  0  0  0  0  0  0  0  0  0  0  0
   19.9921   -4.9343  -14.2992 O   0  0  0  0  0  0  0  0  0  0  0  0
  2  3  1  0
  2  1  1  1
  3  4  1  0
  4  5  2  0
  6  2  1  0
  6  7  2  0
  8  4  1  0
  9  6  1  0
 10  9  1  0
 10 15  1  0
 10 11  1  6
 12 11  1  0
 12 13  1  0
 13 14  2  0
 15 26  1  0
 16 15  2  0
 17 13  1  0
 18 19  1  0
 19 21  1  0
 20 19  2  0
 21 22  1  0
 22 23  1  0
 23 24  1  0
 25 24  1  1
 25 27  1  0
 26 25  1  0
 27 29  2  0
 27 28  1  0
M  END
$$$$
