DER.pdb
     RDKit          3D

 29 28  0  0  1  0  0  0  0  0999 V2000
   19.3544  -13.7511  -15.9673 N   0  0  0  0  0  0  0  0  0  0  0  0
   18.6865  -12.5853  -16.4566 C   0  0  1  0  0  0  0  0  0  0  0  0
   17.2463  -12.9712  -16.8149 C   0  0  0  0  0  0  0  0  0  0  0  0
   17.3340  -13.8973  -17.9603 C   0  0  0  0  0  0  0  0  0  0  0  0
   17.1969  -15.1219  -17.7709 O   0  0  0  0  0  0  0  0  0  0  0  0
   18.6632  -11.4599  -15.4960 C   0  0  0  0  0  0  0  0  0  0  0  0
   18.2401  -11.7252  -14.3271 O   0  0  0  0  0  0  0  0  0  0  0  0
   17.5663  -13.3929  -19.2214 O   0  0  0  0  0  0  0  0  0  0  0  0
   19.0761  -10.1504  -15.8116 N   0  0  0  0  0  0  0  0  0  0  0  0
   18.9312   -9.0324  -14.8959 C   0  0  1  0  0  0  0  0  0  0  0  0
   19.9188   -7.9542  -15.1582 C   0  0  0  0  0  0  0  0  0  0  0  0
   21.3270   -8.1796  -14.8013 C   0  0  0  0  0  0  0  0  0  0  0  0
   22.2909   -7.1043  -15.0246 C   0  0  0  0  0  0  0  0  0  0  0  0
   22.4164   -6.1002  -14.3016 O   0  0  0  0  0  0  0  0  0  0  0  0
   17.5515   -8.6553  -14.6193 C   0  0  0  0  0  0  0  0  0  0  0  0
   16.7276   -8.5200  -15.5888 O   0  0  0  0  0  0  0  0  0  0  0  0
   23.1705   -7.1523  -16.1246 O   0  0  0  0  0  0  0  0  0  0  0  0
   10.9076  -10.7452   -9.0366 N   0  0  0  0  0  0  0  0  0  0  0  0
   10.5851   -9.5611   -9.7791 C   0  0  0  0  0  0  0  0  0  0  0  0
    9.4067   -9.0276   -9.6879 N   0  0  0  0  0  0  0  0  0  0  0  0
   11.5273   -8.9300  -10.6364 N   0  0  0  0  0  0  0  0  0  0  0  0
   12.8732   -9.4298  -10.8170 C   0  0  0  0  0  0  0  0  0  0  0  0
   13.5433   -8.5316  -11.8518 C   0  0  0  0  0  0  0  0  0  0  0  0
   14.9722   -8.9319  -12.0827 C   0  0  0  0  0  0  0  0  0  0  0  0
   15.6057   -8.0673  -13.1081 C   0  0  2  0  0  0  0  0  0  0  0  0
   17.0144   -8.4201  -13.3209 N   0  0  0  0  0  0  0  0  0  0  0  0
   15.4509   -6.6289  -12.8352 C   0  0  0  0  0  0  0  0  0  0  0  0
   14.1614   -6.0919  -13.0979 O   0  0  0  0  0  0  0  0  0  0  0  0
   16.3072   -5.8426  -12.4081 O   0  0  0  0  0  0  0  0  0  0  0  0
  2  3  1  0
  2  1  1  1
  3  4  1  0
  4  5  2  0
  6  2  1  0
  6  7  2  0
  8  4  1  0
  9  6  1  0
 10  9  1  0
 10 15  1  0
 10 11  1  6
 12 11  1  0
 12 13  1  0
 13 14  2  0
 15 26  1  0
 16 15  2  0
 17 13  1  0
 18 19  1  0
 19 21  1  0
 20 19  2  0
 21 22  1  0
 22 23  1  0
 23 24  1  0
 25 24  1  1
 25 27  1  0
 26 25  1  0
 27 29  2  0
 27 28  1  0
M  END
$$$$
