DER.pdb
     RDKit          3D

 29 28  0  0  1  0  0  0  0  0999 V2000
   24.4510   -8.7832  -22.5052 N   0  0  0  0  0  0  0  0  0  0  0  0
   25.1931   -7.7956  -21.7851 C   0  0  1  0  0  0  0  0  0  0  0  0
   24.2094   -6.7428  -21.2606 C   0  0  0  0  0  0  0  0  0  0  0  0
   23.8662   -5.8820  -22.4089 C   0  0  0  0  0  0  0  0  0  0  0  0
   23.3204   -6.3846  -23.4108 O   0  0  0  0  0  0  0  0  0  0  0  0
   25.9726   -8.3398  -20.6511 C   0  0  0  0  0  0  0  0  0  0  0  0
   26.6339   -7.4978  -19.9660 O   0  0  0  0  0  0  0  0  0  0  0  0
   24.1552   -4.5358  -22.3550 O   0  0  0  0  0  0  0  0  0  0  0  0
   26.0117   -9.7061  -20.3099 N   0  0  0  0  0  0  0  0  0  0  0  0
   26.7320  -10.2135  -19.1553 C   0  0  1  0  0  0  0  0  0  0  0  0
   26.2249  -11.5362  -18.7080 C   0  0  0  0  0  0  0  0  0  0  0  0
   24.7845  -11.8136  -18.8051 C   0  0  0  0  0  0  0  0  0  0  0  0
   24.2826  -13.1032  -18.3359 C   0  0  0  0  0  0  0  0  0  0  0  0
   24.9779  -13.9854  -17.8018 O   0  0  0  0  0  0  0  0  0  0  0  0
   28.1730  -10.0052  -19.2052 C   0  0  0  0  0  0  0  0  0  0  0  0
   28.8236  -10.3417  -20.2543 O   0  0  0  0  0  0  0  0  0  0  0  0
   22.9183  -13.4295  -18.4715 O   0  0  0  0  0  0  0  0  0  0  0  0
   34.8722   -5.7308  -14.6396 N   0  0  0  0  0  0  0  0  0  0  0  0
   35.3575   -6.6845  -15.5949 C   0  0  0  0  0  0  0  0  0  0  0  0
   36.6306   -6.8909  -15.7302 N   0  0  0  0  0  0  0  0  0  0  0  0
   34.4789   -7.4331  -16.4245 N   0  0  0  0  0  0  0  0  0  0  0  0
   33.0409   -7.4002  -16.2663 C   0  0  0  0  0  0  0  0  0  0  0  0
   32.4564   -8.3052  -17.3459 C   0  0  0  0  0  0  0  0  0  0  0  0
   30.9635   -8.4125  -17.2229 C   0  0  0  0  0  0  0  0  0  0  0  0
   30.4168   -9.3661  -18.2189 C   0  0  2  0  0  0  0  0  0  0  0  0
   28.9520   -9.4355  -18.1572 N   0  0  0  0  0  0  0  0  0  0  0  0
   31.0188  -10.7069  -18.1348 C   0  0  0  0  0  0  0  0  0  0  0  0
   32.2301  -10.8798  -18.8580 O   0  0  0  0  0  0  0  0  0  0  0  0
   30.5941  -11.6902  -17.5129 O   0  0  0  0  0  0  0  0  0  0  0  0
  2  3  1  0
  2  1  1  1
  3  4  1  0
  4  5  2  0
  6  2  1  0
  6  7  2  0
  8  4  1  0
  9  6  1  0
 10  9  1  0
 10 15  1  0
 10 11  1  6
 12 11  1  0
 12 13  1  0
 13 14  2  0
 15 26  1  0
 16 15  2  0
 17 13  1  0
 18 19  1  0
 19 21  1  0
 20 19  2  0
 21 22  1  0
 22 23  1  0
 23 24  1  0
 25 24  1  1
 25 27  1  0
 26 25  1  0
 27 29  2  0
 27 28  1  0
M  END
$$$$
