DER.pdb
     RDKit          3D

 29 28  0  0  1  0  0  0  0  0999 V2000
   17.2652  -11.9337  -13.9879 N   0  0  0  0  0  0  0  0  0  0  0  0
   17.0943  -10.5523  -14.3152 C   0  0  1  0  0  0  0  0  0  0  0  0
   15.6055  -10.3025  -14.5840 C   0  0  0  0  0  0  0  0  0  0  0  0
   15.3044  -10.9290  -15.8856 C   0  0  0  0  0  0  0  0  0  0  0  0
   14.1180  -11.0452  -16.2506 O   0  0  0  0  0  0  0  0  0  0  0  0
   17.5600   -9.6242  -13.2609 C   0  0  0  0  0  0  0  0  0  0  0  0
   17.2702   -9.9396  -12.0641 O   0  0  0  0  0  0  0  0  0  0  0  0
   16.3404  -11.3758  -16.6767 O   0  0  0  0  0  0  0  0  0  0  0  0
   18.2866   -8.4450  -13.5186 N   0  0  0  0  0  0  0  0  0  0  0  0
   18.7231   -7.5391  -12.4707 C   0  0  1  0  0  0  0  0  0  0  0  0
   19.9509   -6.7910  -12.8443 C   0  0  0  0  0  0  0  0  0  0  0  0
   20.4849   -5.7910  -11.9083 C   0  0  0  0  0  0  0  0  0  0  0  0
   21.6795   -5.0395  -12.2867 C   0  0  0  0  0  0  0  0  0  0  0  0
   22.8017   -5.5388  -12.4820 O   0  0  0  0  0  0  0  0  0  0  0  0
   17.6440   -6.8145  -11.8129 C   0  0  0  0  0  0  0  0  0  0  0  0
   16.7820   -6.1870  -12.5202 O   0  0  0  0  0  0  0  0  0  0  0  0
   21.6183   -3.6420  -12.4578 O   0  0  0  0  0  0  0  0  0  0  0  0
   10.1634   -8.1813   -8.0564 N   0  0  0  0  0  0  0  0  0  0  0  0
   11.5655   -8.4270   -7.8798 C   0  0  0  0  0  0  0  0  0  0  0  0
   11.9750   -9.5024   -7.2819 N   0  0  0  0  0  0  0  0  0  0  0  0
   12.5538   -7.5163   -8.3434 N   0  0  0  0  0  0  0  0  0  0  0  0
   13.4856   -6.8581   -7.4531 C   0  0  0  0  0  0  0  0  0  0  0  0
   14.3948   -5.9963   -8.3231 C   0  0  0  0  0  0  0  0  0  0  0  0
   15.4770   -6.8156   -8.9657 C   0  0  0  0  0  0  0  0  0  0  0  0
   16.3596   -5.9655   -9.8016 C   0  0  2  0  0  0  0  0  0  0  0  0
   17.4501   -6.7420  -10.4033 N   0  0  0  0  0  0  0  0  0  0  0  0
   16.8747   -4.7834   -9.0912 C   0  0  0  0  0  0  0  0  0  0  0  0
   18.2818   -4.7540   -8.8932 O   0  0  0  0  0  0  0  0  0  0  0  0
   16.2283   -3.8230   -8.6511 O   0  0  0  0  0  0  0  0  0  0  0  0
  2  3  1  0
  2  1  1  1
  3  4  1  0
  4  5  2  0
  6  2  1  0
  6  7  2  0
  8  4  1  0
  9  6  1  0
 10  9  1  0
 10 15  1  0
 10 11  1  6
 12 11  1  0
 12 13  1  0
 13 14  2  0
 15 26  1  0
 16 15  2  0
 17 13  1  0
 18 19  1  0
 19 21  1  0
 20 19  2  0
 21 22  1  0
 22 23  1  0
 23 24  1  0
 25 24  1  1
 25 27  1  0
 26 25  1  0
 27 29  2  0
 27 28  1  0
M  END
$$$$
