DER.pdb
     RDKit          3D

 29 28  0  0  1  0  0  0  0  0999 V2000
   16.9644  -13.1888  -15.5333 N   0  0  0  0  0  0  0  0  0  0  0  0
   16.3340  -11.9060  -15.5726 C   0  0  1  0  0  0  0  0  0  0  0  0
   15.3195  -11.8336  -14.4251 C   0  0  0  0  0  0  0  0  0  0  0  0
   14.3533  -12.9256  -14.6513 C   0  0  0  0  0  0  0  0  0  0  0  0
   13.8804  -13.0998  -15.7916 O   0  0  0  0  0  0  0  0  0  0  0  0
   17.2766  -10.7708  -15.4601 C   0  0  0  0  0  0  0  0  0  0  0  0
   18.4870  -11.0661  -15.2080 O   0  0  0  0  0  0  0  0  0  0  0  0
   13.9892  -13.7354  -13.5975 O   0  0  0  0  0  0  0  0  0  0  0  0
   16.9019   -9.4216  -15.6150 N   0  0  0  0  0  0  0  0  0  0  0  0
   17.8551   -8.3263  -15.5797 C   0  0  1  0  0  0  0  0  0  0  0  0
   17.7178   -7.4186  -16.7476 C   0  0  0  0  0  0  0  0  0  0  0  0
   18.5520   -6.2096  -16.8085 C   0  0  0  0  0  0  0  0  0  0  0  0
   18.3782   -5.2899  -17.9306 C   0  0  0  0  0  0  0  0  0  0  0  0
   18.3141   -4.0518  -17.8319 O   0  0  0  0  0  0  0  0  0  0  0  0
   18.0447   -7.7352  -14.2618 C   0  0  0  0  0  0  0  0  0  0  0  0
   17.0359   -7.2680  -13.6284 O   0  0  0  0  0  0  0  0  0  0  0  0
   18.2688   -5.7829  -19.2462 O   0  0  0  0  0  0  0  0  0  0  0  0
   24.4413   -7.0784   -7.7651 N   0  0  0  0  0  0  0  0  0  0  0  0
   23.1673   -6.5681   -7.3481 C   0  0  0  0  0  0  0  0  0  0  0  0
   23.0141   -6.0716   -6.1600 N   0  0  0  0  0  0  0  0  0  0  0  0
   22.0325   -6.5851   -8.2042 N   0  0  0  0  0  0  0  0  0  0  0  0
   22.0460   -7.2227   -9.5032 C   0  0  0  0  0  0  0  0  0  0  0  0
   20.7655   -6.8007  -10.2162 C   0  0  0  0  0  0  0  0  0  0  0  0
   20.6995   -7.3659  -11.6060 C   0  0  0  0  0  0  0  0  0  0  0  0
   19.4213   -7.0032  -12.2656 C   0  0  2  0  0  0  0  0  0  0  0  0
   19.2948   -7.6304  -13.5865 N   0  0  0  0  0  0  0  0  0  0  0  0
   19.1948   -5.5505  -12.3404 C   0  0  0  0  0  0  0  0  0  0  0  0
   18.4404   -4.9934  -11.2725 O   0  0  0  0  0  0  0  0  0  0  0  0
   19.5823   -4.7679  -13.2187 O   0  0  0  0  0  0  0  0  0  0  0  0
  2  3  1  0
  2  1  1  1
  3  4  1  0
  4  5  2  0
  6  2  1  0
  6  7  2  0
  8  4  1  0
  9  6  1  0
 10  9  1  0
 10 15  1  0
 10 11  1  6
 12 11  1  0
 12 13  1  0
 13 14  2  0
 15 26  1  0
 16 15  2  0
 17 13  1  0
 18 19  1  0
 19 21  1  0
 20 19  2  0
 21 22  1  0
 22 23  1  0
 23 24  1  0
 25 24  1  6
 25 27  1  0
 26 25  1  0
 27 29  2  0
 27 28  1  0
M  END
$$$$
