DER.pdb
     RDKit          3D

 29 28  0  0  1  0  0  0  0  0999 V2000
   29.1032  -19.5596  -17.5458 N   0  0  0  0  0  0  0  0  0  0  0  0
   27.8982  -20.3166  -17.4059 C   0  0  1  0  0  0  0  0  0  0  0  0
   28.1660  -21.4710  -16.4329 C   0  0  0  0  0  0  0  0  0  0  0  0
   28.9948  -22.4497  -17.1628 C   0  0  0  0  0  0  0  0  0  0  0  0
   29.3718  -22.1902  -18.3225 O   0  0  0  0  0  0  0  0  0  0  0  0
   26.7468  -19.5261  -16.9167 C   0  0  0  0  0  0  0  0  0  0  0  0
   26.9320  -18.8621  -15.8487 O   0  0  0  0  0  0  0  0  0  0  0  0
   29.3384  -23.6351  -16.5502 O   0  0  0  0  0  0  0  0  0  0  0  0
   25.4957  -19.4799  -17.5627 N   0  0  0  0  0  0  0  0  0  0  0  0
   24.3768  -18.6981  -17.0663 C   0  0  1  0  0  0  0  0  0  0  0  0
   23.8654  -17.7369  -18.0768 C   0  0  0  0  0  0  0  0  0  0  0  0
   22.6557  -16.9603  -17.7688 C   0  0  0  0  0  0  0  0  0  0  0  0
   22.0996  -16.0851  -18.7984 C   0  0  0  0  0  0  0  0  0  0  0  0
   22.7134  -15.1527  -19.3468 O   0  0  0  0  0  0  0  0  0  0  0  0
   23.4119  -19.4577  -16.2826 C   0  0  0  0  0  0  0  0  0  0  0  0
   22.8833  -20.5110  -16.7809 O   0  0  0  0  0  0  0  0  0  0  0  0
   20.7744  -16.2613  -19.2443 O   0  0  0  0  0  0  0  0  0  0  0  0
   16.6777  -19.7023  -11.6549 N   0  0  0  0  0  0  0  0  0  0  0  0
   17.3909  -20.8884  -11.2782 C   0  0  0  0  0  0  0  0  0  0  0  0
   16.7571  -21.9128  -10.7981 N   0  0  0  0  0  0  0  0  0  0  0  0
   18.8025  -20.9922  -11.4105 N   0  0  0  0  0  0  0  0  0  0  0  0
   19.5995  -19.9814  -12.0716 C   0  0  0  0  0  0  0  0  0  0  0  0
   21.0482  -20.4553  -12.0174 C   0  0  0  0  0  0  0  0  0  0  0  0
   21.9542  -19.5400  -12.7900 C   0  0  0  0  0  0  0  0  0  0  0  0
   22.0439  -19.9580  -14.2104 C   0  0  2  0  0  0  0  0  0  0  0  0
   22.9914  -19.1267  -14.9623 N   0  0  0  0  0  0  0  0  0  0  0  0
   20.7364  -20.0199  -14.8842 C   0  0  0  0  0  0  0  0  0  0  0  0
   20.2362  -18.7790  -15.3637 O   0  0  0  0  0  0  0  0  0  0  0  0
   20.0308  -21.0192  -15.0779 O   0  0  0  0  0  0  0  0  0  0  0  0
  2  3  1  0
  2  1  1  1
  3  4  1  0
  4  5  2  0
  6  2  1  0
  6  7  2  0
  8  4  1  0
  9  6  1  0
 10  9  1  0
 10 15  1  0
 10 11  1  6
 12 11  1  0
 12 13  1  0
 13 14  2  0
 15 26  1  0
 16 15  2  0
 17 13  1  0
 18 19  1  0
 19 21  1  0
 20 19  2  0
 21 22  1  0
 22 23  1  0
 23 24  1  0
 25 24  1  1
 25 27  1  0
 26 25  1  0
 27 29  2  0
 27 28  1  0
M  END
$$$$
