DER.pdb
     RDKit          3D

 29 28  0  0  1  0  0  0  0  0999 V2000
   18.9807  -27.7485   -1.1190 N   0  0  0  0  0  0  0  0  0  0  0  0
   18.3078  -27.9365   -2.3666 C   0  0  1  0  0  0  0  0  0  0  0  0
   17.0127  -28.7136   -2.1020 C   0  0  0  0  0  0  0  0  0  0  0  0
   17.4130  -30.0975   -1.7827 C   0  0  0  0  0  0  0  0  0  0  0  0
   17.6388  -30.4129   -0.5978 O   0  0  0  0  0  0  0  0  0  0  0  0
   17.9826  -26.6750   -3.0685 C   0  0  0  0  0  0  0  0  0  0  0  0
   17.6945  -25.6789   -2.3333 O   0  0  0  0  0  0  0  0  0  0  0  0
   17.5309  -31.0191   -2.8003 O   0  0  0  0  0  0  0  0  0  0  0  0
   17.9787  -26.5358   -4.4704 N   0  0  0  0  0  0  0  0  0  0  0  0
   17.6078  -25.3028   -5.1424 C   0  0  1  0  0  0  0  0  0  0  0  0
   18.3017  -25.1375   -6.4455 C   0  0  0  0  0  0  0  0  0  0  0  0
   17.8639  -24.0658   -7.3515 C   0  0  0  0  0  0  0  0  0  0  0  0
   18.4945  -23.9525   -8.6649 C   0  0  0  0  0  0  0  0  0  0  0  0
   19.4216  -24.6739   -9.0732 O   0  0  0  0  0  0  0  0  0  0  0  0
   16.1894  -24.9790   -5.0674 C   0  0  0  0  0  0  0  0  0  0  0  0
   15.3218  -25.8692   -5.3705 O   0  0  0  0  0  0  0  0  0  0  0  0
   18.0635  -22.9719   -9.5805 O   0  0  0  0  0  0  0  0  0  0  0  0
   11.8380  -19.7506    0.1612 N   0  0  0  0  0  0  0  0  0  0  0  0
   12.8840  -20.6994   -0.0898 C   0  0  0  0  0  0  0  0  0  0  0  0
   13.8132  -20.9031    0.7915 N   0  0  0  0  0  0  0  0  0  0  0  0
   12.9493  -21.4462   -1.2977 N   0  0  0  0  0  0  0  0  0  0  0  0
   12.0479  -21.2154   -2.4060 C   0  0  0  0  0  0  0  0  0  0  0  0
   12.4021  -22.2350   -3.4837 C   0  0  0  0  0  0  0  0  0  0  0  0
   13.8869  -22.4391   -3.5790 C   0  0  0  0  0  0  0  0  0  0  0  0
   14.2169  -23.4590   -4.6043 C   0  0  2  0  0  0  0  0  0  0  0  0
   15.6601  -23.7181   -4.6677 N   0  0  0  0  0  0  0  0  0  0  0  0
   13.6717  -23.1459   -5.9355 C   0  0  0  0  0  0  0  0  0  0  0  0
   12.2574  -23.2254   -6.0513 O   0  0  0  0  0  0  0  0  0  0  0  0
   14.2986  -22.8253   -6.9544 O   0  0  0  0  0  0  0  0  0  0  0  0
  2  3  1  0
  2  1  1  1
  3  4  1  0
  4  5  2  0
  6  2  1  0
  6  7  2  0
  8  4  1  0
  9  6  1  0
 10  9  1  0
 10 15  1  0
 10 11  1  6
 12 11  1  0
 12 13  1  0
 13 14  2  0
 15 26  1  0
 16 15  2  0
 17 13  1  0
 18 19  1  0
 19 21  1  0
 20 19  2  0
 21 22  1  0
 22 23  1  0
 23 24  1  0
 25 24  1  1
 25 27  1  0
 26 25  1  0
 27 29  2  0
 27 28  1  0
M  END
$$$$
