DER.pdb
     RDKit          3D

 29 28  0  0  1  0  0  0  0  0999 V2000
   21.0130  -28.3660  -10.4975 N   0  0  0  0  0  0  0  0  0  0  0  0
   20.3113  -27.6220  -11.4969 C   0  0  1  0  0  0  0  0  0  0  0  0
   19.7034  -28.6137  -12.4961 C   0  0  0  0  0  0  0  0  0  0  0  0
   20.8358  -29.3173  -13.1287 C   0  0  0  0  0  0  0  0  0  0  0  0
   21.9946  -29.1060  -12.7201 O   0  0  0  0  0  0  0  0  0  0  0  0
   19.2387  -26.7568  -10.9577 C   0  0  0  0  0  0  0  0  0  0  0  0
   18.2995  -26.4570  -11.7600 O   0  0  0  0  0  0  0  0  0  0  0  0
   20.5936  -30.1968  -14.1614 O   0  0  0  0  0  0  0  0  0  0  0  0
   19.2152  -26.2672   -9.6369 N   0  0  0  0  0  0  0  0  0  0  0  0
   18.1412  -25.4379   -9.1190 C   0  0  1  0  0  0  0  0  0  0  0  0
   18.0078  -25.5410   -7.6431 C   0  0  0  0  0  0  0  0  0  0  0  0
   16.9608  -24.7596   -6.9691 C   0  0  0  0  0  0  0  0  0  0  0  0
   16.8129  -24.8823   -5.5205 C   0  0  0  0  0  0  0  0  0  0  0  0
   17.5504  -24.3354   -4.6815 O   0  0  0  0  0  0  0  0  0  0  0  0
   18.0489  -24.1197   -9.7322 C   0  0  0  0  0  0  0  0  0  0  0  0
   19.0412  -23.3158   -9.6532 O   0  0  0  0  0  0  0  0  0  0  0  0
   15.7767  -25.6651   -4.9733 O   0  0  0  0  0  0  0  0  0  0  0  0
   15.7713  -21.1154  -17.3896 N   0  0  0  0  0  0  0  0  0  0  0  0
   17.0024  -21.3313  -16.6859 C   0  0  0  0  0  0  0  0  0  0  0  0
   18.0875  -21.6242  -17.3327 N   0  0  0  0  0  0  0  0  0  0  0  0
   17.0869  -21.2371  -15.2699 N   0  0  0  0  0  0  0  0  0  0  0  0
   15.9491  -20.8986  -14.4424 C   0  0  0  0  0  0  0  0  0  0  0  0
   16.4380  -20.8966  -12.9977 C   0  0  0  0  0  0  0  0  0  0  0  0
   16.5509  -22.2923  -12.4547 C   0  0  0  0  0  0  0  0  0  0  0  0
   16.8735  -22.2733  -11.0070 C   0  0  2  0  0  0  0  0  0  0  0  0
   16.9162  -23.6274  -10.4424 N   0  0  0  0  0  0  0  0  0  0  0  0
   15.9886  -21.3957  -10.2233 C   0  0  0  0  0  0  0  0  0  0  0  0
   15.2312  -22.0402   -9.2080 O   0  0  0  0  0  0  0  0  0  0  0  0
   15.8308  -20.1735  -10.3474 O   0  0  0  0  0  0  0  0  0  0  0  0
  2  3  1  0
  2  1  1  1
  3  4  1  0
  4  5  2  0
  6  2  1  0
  6  7  2  0
  8  4  1  0
  9  6  1  0
 10  9  1  0
 10 15  1  0
 10 11  1  1
 12 11  1  0
 12 13  1  0
 13 14  2  0
 15 26  1  0
 16 15  2  0
 17 13  1  0
 18 19  1  0
 19 21  1  0
 20 19  2  0
 21 22  1  0
 22 23  1  0
 23 24  1  0
 25 24  1  6
 25 27  1  0
 26 25  1  0
 27 29  2  0
 27 28  1  0
M  END
$$$$
