DER.pdb
     RDKit          3D

 29 28  0  0  1  0  0  0  0  0999 V2000
   27.6274  -22.8090  -16.8928 N   0  0  0  0  0  0  0  0  0  0  0  0
   26.2214  -23.0086  -16.7255 C   0  0  1  0  0  0  0  0  0  0  0  0
   26.0138  -24.1460  -15.7181 C   0  0  0  0  0  0  0  0  0  0  0  0
   26.6644  -25.3387  -16.2939 C   0  0  0  0  0  0  0  0  0  0  0  0
   27.1592  -25.2760  -17.4366 O   0  0  0  0  0  0  0  0  0  0  0  0
   25.4966  -21.8065  -16.2571 C   0  0  0  0  0  0  0  0  0  0  0  0
   26.1109  -21.0659  -15.4265 O   0  0  0  0  0  0  0  0  0  0  0  0
   26.7141  -26.5030  -15.5587 O   0  0  0  0  0  0  0  0  0  0  0  0
   24.1977  -21.4597  -16.6783 N   0  0  0  0  0  0  0  0  0  0  0  0
   23.5742  -20.1881  -16.3564 C   0  0  1  0  0  0  0  0  0  0  0  0
   24.5228  -19.0498  -16.4618 C   0  0  0  0  0  0  0  0  0  0  0  0
   25.4145  -18.9749  -17.6282 C   0  0  0  0  0  0  0  0  0  0  0  0
   26.3187  -17.8336  -17.7513 C   0  0  0  0  0  0  0  0  0  0  0  0
   27.5265  -17.8480  -17.4551 O   0  0  0  0  0  0  0  0  0  0  0  0
   22.2310  -20.0224  -16.8956 C   0  0  0  0  0  0  0  0  0  0  0  0
   22.0247  -19.1667  -17.8243 O   0  0  0  0  0  0  0  0  0  0  0  0
   25.8451  -16.5977  -18.2353 O   0  0  0  0  0  0  0  0  0  0  0  0
   20.5019  -17.9506   -9.6284 N   0  0  0  0  0  0  0  0  0  0  0  0
   20.6344  -19.2166  -10.2894 C   0  0  0  0  0  0  0  0  0  0  0  0
   21.1837  -20.2219   -9.6818 N   0  0  0  0  0  0  0  0  0  0  0  0
   20.1785  -19.4228  -11.6200 N   0  0  0  0  0  0  0  0  0  0  0  0
   19.5854  -18.3673  -12.4126 C   0  0  0  0  0  0  0  0  0  0  0  0
   19.1751  -18.9906  -13.7429 C   0  0  0  0  0  0  0  0  0  0  0  0
   20.3557  -19.5799  -14.4600 C   0  0  0  0  0  0  0  0  0  0  0  0
   19.9572  -20.1179  -15.7836 C   0  0  2  0  0  0  0  0  0  0  0  0
   21.0854  -20.7559  -16.4724 N   0  0  0  0  0  0  0  0  0  0  0  0
   19.3004  -19.1211  -16.6451 C   0  0  0  0  0  0  0  0  0  0  0  0
   17.8890  -19.2452  -16.7577 O   0  0  0  0  0  0  0  0  0  0  0  0
   19.8322  -18.1975  -17.2761 O   0  0  0  0  0  0  0  0  0  0  0  0
  2  3  1  0
  2  1  1  1
  3  4  1  0
  4  5  2  0
  6  2  1  0
  6  7  2  0
  8  4  1  0
  9  6  1  0
 10  9  1  0
 10 15  1  0
 10 11  1  6
 12 11  1  0
 12 13  1  0
 13 14  2  0
 15 26  1  0
 16 15  2  0
 17 13  1  0
 18 19  1  0
 19 21  1  0
 20 19  2  0
 21 22  1  0
 22 23  1  0
 23 24  1  0
 25 24  1  1
 25 27  1  0
 26 25  1  0
 27 29  2  0
 27 28  1  0
M  END
$$$$
