DER.pdb
     RDKit          3D

 29 28  0  0  1  0  0  0  0  0999 V2000
   18.6210  -24.5021  -12.8085 N   0  0  0  0  0  0  0  0  0  0  0  0
   19.2343  -23.4182  -12.1059 C   0  0  1  0  0  0  0  0  0  0  0  0
   19.0325  -22.1383  -12.9258 C   0  0  0  0  0  0  0  0  0  0  0  0
   19.7021  -22.3616  -14.2216 C   0  0  0  0  0  0  0  0  0  0  0  0
   20.3489  -23.4116  -14.4049 O   0  0  0  0  0  0  0  0  0  0  0  0
   18.7012  -23.2100  -10.7412 C   0  0  0  0  0  0  0  0  0  0  0  0
   18.7227  -22.0168  -10.3036 O   0  0  0  0  0  0  0  0  0  0  0  0
   19.6017  -21.4051  -15.2084 O   0  0  0  0  0  0  0  0  0  0  0  0
   18.1880  -24.2438   -9.9333 N   0  0  0  0  0  0  0  0  0  0  0  0
   17.3367  -24.0002   -8.7820 C   0  0  1  0  0  0  0  0  0  0  0  0
   16.2109  -23.0828   -9.0944 C   0  0  0  0  0  0  0  0  0  0  0  0
   15.2490  -22.7528   -8.0328 C   0  0  0  0  0  0  0  0  0  0  0  0
   14.1574  -21.8292   -8.3338 C   0  0  0  0  0  0  0  0  0  0  0  0
   14.2921  -20.6082   -8.5287 O   0  0  0  0  0  0  0  0  0  0  0  0
   17.0636  -25.1814   -7.9743 C   0  0  0  0  0  0  0  0  0  0  0  0
   16.5326  -26.2100   -8.5194 O   0  0  0  0  0  0  0  0  0  0  0  0
   12.8312  -22.2975   -8.4227 O   0  0  0  0  0  0  0  0  0  0  0  0
   18.9524  -26.9406    0.3230 N   0  0  0  0  0  0  0  0  0  0  0  0
   19.5719  -26.9389   -0.9707 C   0  0  0  0  0  0  0  0  0  0  0  0
   20.8518  -26.7662   -1.0872 N   0  0  0  0  0  0  0  0  0  0  0  0
   18.8223  -27.1217   -2.1647 N   0  0  0  0  0  0  0  0  0  0  0  0
   17.4265  -27.5034   -2.1576 C   0  0  0  0  0  0  0  0  0  0  0  0
   16.9870  -27.5993   -3.6150 C   0  0  0  0  0  0  0  0  0  0  0  0
   17.3942  -26.3806   -4.3923 C   0  0  0  0  0  0  0  0  0  0  0  0
   16.9104  -26.4588   -5.7923 C   0  0  2  0  0  0  0  0  0  0  0  0
   17.3487  -25.3030   -6.5837 N   0  0  0  0  0  0  0  0  0  0  0  0
   15.4553  -26.6565   -5.8968 C   0  0  0  0  0  0  0  0  0  0  0  0
   15.0319  -28.0019   -6.0718 O   0  0  0  0  0  0  0  0  0  0  0  0
   14.5685  -25.7931   -5.8507 O   0  0  0  0  0  0  0  0  0  0  0  0
  2  3  1  0
  2  1  1  6
  3  4  1  0
  4  5  2  0
  6  2  1  0
  6  7  2  0
  8  4  1  0
  9  6  1  0
 10  9  1  0
 10 15  1  0
 10 11  1  6
 12 11  1  0
 12 13  1  0
 13 14  2  0
 15 26  1  0
 16 15  2  0
 17 13  1  0
 18 19  1  0
 19 21  1  0
 20 19  2  0
 21 22  1  0
 22 23  1  0
 23 24  1  0
 25 24  1  1
 25 27  1  0
 26 25  1  0
 27 29  2  0
 27 28  1  0
M  END
$$$$
