DER.pdb
     RDKit          3D

 29 28  0  0  1  0  0  0  0  0999 V2000
   24.9247  -20.5388   -9.5730 N   0  0  0  0  0  0  0  0  0  0  0  0
   24.0062  -20.7301  -10.6521 C   0  0  1  0  0  0  0  0  0  0  0  0
   22.6913  -20.0268  -10.2945 C   0  0  0  0  0  0  0  0  0  0  0  0
   22.1432  -20.7354   -9.1221 C   0  0  0  0  0  0  0  0  0  0  0  0
   22.8054  -21.6500   -8.5933 O   0  0  0  0  0  0  0  0  0  0  0  0
   24.4933  -20.2177  -11.9521 C   0  0  0  0  0  0  0  0  0  0  0  0
   24.6034  -18.9555  -12.0550 O   0  0  0  0  0  0  0  0  0  0  0  0
   20.9075  -20.3746   -8.6307 O   0  0  0  0  0  0  0  0  0  0  0  0
   24.8288  -21.0419  -13.0443 N   0  0  0  0  0  0  0  0  0  0  0  0
   25.3649  -20.5247  -14.2910 C   0  0  1  0  0  0  0  0  0  0  0  0
   26.3916  -21.4215  -14.8811 C   0  0  0  0  0  0  0  0  0  0  0  0
   26.9698  -21.0753  -16.1876 C   0  0  0  0  0  0  0  0  0  0  0  0
   28.0131  -21.9328  -16.7456 C   0  0  0  0  0  0  0  0  0  0  0  0
   28.5936  -21.7345  -17.8275 O   0  0  0  0  0  0  0  0  0  0  0  0
   24.3692  -19.9353  -15.1762 C   0  0  0  0  0  0  0  0  0  0  0  0
   23.2850  -20.5701  -15.4183 O   0  0  0  0  0  0  0  0  0  0  0  0
   28.4353  -23.0850  -16.0527 O   0  0  0  0  0  0  0  0  0  0  0  0
   19.7297  -12.6313  -15.3347 N   0  0  0  0  0  0  0  0  0  0  0  0
   19.0836  -13.9112  -15.3775 C   0  0  0  0  0  0  0  0  0  0  0  0
   17.8148  -14.0164  -15.1312 N   0  0  0  0  0  0  0  0  0  0  0  0
   19.7941  -15.1034  -15.6852 N   0  0  0  0  0  0  0  0  0  0  0  0
   21.2344  -15.1392  -15.8202 C   0  0  0  0  0  0  0  0  0  0  0  0
   21.6103  -16.5757  -16.1688 C   0  0  0  0  0  0  0  0  0  0  0  0
   23.0957  -16.7317  -16.3253 C   0  0  0  0  0  0  0  0  0  0  0  0
   23.4467  -18.1260  -16.6900 C   0  0  2  0  0  0  0  0  0  0  0  0
   24.4938  -18.6685  -15.8162 N   0  0  0  0  0  0  0  0  0  0  0  0
   23.8001  -18.2865  -18.1100 C   0  0  0  0  0  0  0  0  0  0  0  0
   22.7135  -18.5641  -18.9831 O   0  0  0  0  0  0  0  0  0  0  0  0
   24.9242  -18.2086  -18.6242 O   0  0  0  0  0  0  0  0  0  0  0  0
  2  3  1  0
  2  1  1  1
  3  4  1  0
  4  5  2  0
  6  2  1  0
  6  7  2  0
  8  4  1  0
  9  6  1  0
 10  9  1  0
 10 15  1  0
 10 11  1  6
 12 11  1  0
 12 13  1  0
 13 14  2  0
 15 26  1  0
 16 15  2  0
 17 13  1  0
 18 19  1  0
 19 21  1  0
 20 19  2  0
 21 22  1  0
 22 23  1  0
 23 24  1  0
 25 24  1  1
 25 27  1  0
 26 25  1  0
 27 29  2  0
 27 28  1  0
M  END
$$$$
