YNS.pdb
     RDKit          3D

 27 27  0  0  1  0  0  0  0  0999 V2000
    7.3346  -11.4047   18.7100 O   0  0  0  0  0  0  0  0  0  0  0  0
    7.9646  -12.5566   19.1370 C   0  0  0  0  0  0  0  0  0  0  0  0
    9.0667  -12.4290   19.9796 C   0  0  0  0  0  0  0  0  0  0  0  0
    9.7239  -13.5525   20.4283 C   0  0  0  0  0  0  0  0  0  0  0  0
    9.3256  -14.8296   20.0703 C   0  0  0  0  0  0  0  0  0  0  0  0
   10.0528  -16.0030   20.5661 C   0  0  0  0  0  0  0  0  0  0  0  0
   11.3197  -16.2295   19.7558 C   0  0  2  0  0  0  0  0  0  0  0  0
   10.8897  -16.3385   18.3777 N   0  0  0  0  0  0  0  0  0  0  0  0
   12.0139  -17.4491   20.2434 C   0  0  0  0  0  0  0  0  0  0  0  0
   12.2849  -18.3780   19.4214 O   0  0  0  0  0  0  0  0  0  0  0  0
    8.2373  -14.9262   19.2403 C   0  0  0  0  0  0  0  0  0  0  0  0
    7.5394  -13.8198   18.7577 C   0  0  0  0  0  0  0  0  0  0  0  0
   14.8676  -19.5399   19.0578 N   0  0  0  0  0  0  0  0  0  0  0  0
   14.1845  -19.7789   20.2847 C   0  0  0  0  0  0  0  0  0  0  0  0
   13.3702  -20.7199   20.3283 O   0  0  0  0  0  0  0  0  0  0  0  0
   14.4396  -18.9295   21.4690 C   0  0  0  0  0  0  0  0  0  0  0  0
   13.1249  -18.6470   22.1910 C   0  0  2  0  0  0  0  0  0  0  0  0
   12.3706  -17.5743   21.6112 N   0  0  0  0  0  0  0  0  0  0  0  0
   13.2915  -18.5344   23.6335 C   0  0  0  0  0  0  0  0  0  0  0  0
   14.1934  -17.7347   24.0640 O   0  0  0  0  0  0  0  0  0  0  0  0
   10.9119  -20.7224   26.0828 O   0  0  0  0  0  0  0  0  0  0  0  0
   11.3264  -19.4961   26.6038 C   0  0  0  0  0  0  0  0  0  0  0  0
   12.6401  -19.1071   25.9787 C   0  0  2  0  0  0  0  0  0  0  0  0
   12.5107  -19.2637   24.5375 N   0  0  0  0  0  0  0  0  0  0  0  0
   13.7618  -19.9305   26.4966 C   0  0  0  0  0  0  0  0  0  0  0  0
   14.3446  -20.7107   25.7151 O   0  0  0  0  0  0  0  0  0  0  0  0
   14.1720  -19.8537   27.8166 O   0  0  0  0  0  0  0  0  0  0  0  0
  1  2  1  0
  2  3  2  0
  3  4  1  0
  5  6  1  0
  5  4  2  0
  6  7  1  0
  7  8  1  6
  7  9  1  0
  9 10  2  0
 11  5  1  0
 12 11  2  0
 12  2  1  0
 14 15  2  0
 14 13  1  0
 16 14  1  0
 17 16  1  6
 18  9  1  0
 18 17  1  0
 19 17  1  0
 19 20  2  0
 21 22  1  0
 23 22  1  1
 23 24  1  0
 24 19  1  0
 25 23  1  0
 26 25  2  0
 27 25  1  0
M  END
$$$$
