YNS.pdb
     RDKit          3D

 27 27  0  0  1  0  0  0  0  0999 V2000
    7.5493  -11.7247   10.5321 O   0  0  0  0  0  0  0  0  0  0  0  0
    8.3865  -12.4790   11.3300 C   0  0  0  0  0  0  0  0  0  0  0  0
    9.5493  -12.9933   10.7606 C   0  0  0  0  0  0  0  0  0  0  0  0
   10.4114  -13.7508   11.5213 C   0  0  0  0  0  0  0  0  0  0  0  0
   10.1656  -14.0269   12.8559 C   0  0  0  0  0  0  0  0  0  0  0  0
   11.1062  -14.8405   13.6335 C   0  0  0  0  0  0  0  0  0  0  0  0
   11.0174  -16.3019   13.2221 C   0  0  2  0  0  0  0  0  0  0  0  0
    9.7068  -16.7492   13.6445 N   0  0  0  0  0  0  0  0  0  0  0  0
   12.1219  -17.0678   13.8549 C   0  0  0  0  0  0  0  0  0  0  0  0
   11.9002  -17.6957   14.9359 O   0  0  0  0  0  0  0  0  0  0  0  0
    9.0138  -13.5077   13.3911 C   0  0  0  0  0  0  0  0  0  0  0  0
    8.1085  -12.7368   12.6629 C   0  0  0  0  0  0  0  0  0  0  0  0
   15.9775  -18.7768   10.3037 N   0  0  0  0  0  0  0  0  0  0  0  0
   15.1771  -18.7082   11.4799 C   0  0  0  0  0  0  0  0  0  0  0  0
   14.0719  -19.2816   11.4708 O   0  0  0  0  0  0  0  0  0  0  0  0
   15.6512  -17.9749   12.6744 C   0  0  0  0  0  0  0  0  0  0  0  0
   14.5250  -17.8820   13.7003 C   0  0  2  0  0  0  0  0  0  0  0  0
   13.4091  -17.0978   13.2584 N   0  0  0  0  0  0  0  0  0  0  0  0
   15.0053  -17.5233   15.0277 C   0  0  0  0  0  0  0  0  0  0  0  0
   15.3815  -16.3140   15.2136 O   0  0  0  0  0  0  0  0  0  0  0  0
   15.0143  -20.3114   18.0191 O   0  0  0  0  0  0  0  0  0  0  0  0
   14.8040  -18.9841   18.3946 C   0  0  0  0  0  0  0  0  0  0  0  0
   15.4981  -18.0732   17.4166 C   0  0  2  0  0  0  0  0  0  0  0  0
   15.0667  -18.4466   16.0777 N   0  0  0  0  0  0  0  0  0  0  0  0
   16.9755  -18.1615   17.5348 C   0  0  0  0  0  0  0  0  0  0  0  0
   17.5149  -17.8031   18.6024 O   0  0  0  0  0  0  0  0  0  0  0  0
   17.7621  -18.6278   16.4954 O   0  0  0  0  0  0  0  0  0  0  0  0
  1  2  1  0
  2  3  2  0
  3  4  1  0
  5  6  1  0
  5  4  2  0
  6  7  1  0
  7  8  1  1
  7  9  1  0
  9 10  2  0
 11  5  1  0
 12 11  2  0
 12  2  1  0
 14 15  2  0
 14 13  1  0
 16 14  1  0
 17 16  1  6
 18  9  1  0
 18 17  1  0
 19 17  1  0
 19 20  2  0
 21 22  1  0
 23 22  1  1
 23 24  1  0
 24 19  1  0
 25 23  1  0
 26 25  2  0
 27 25  1  0
M  END
$$$$
