YNS.pdb
     RDKit          3D

 27 27  0  0  1  0  0  0  0  0999 V2000
    5.3052  -10.5065   28.1413 O   0  0  0  0  0  0  0  0  0  0  0  0
    5.9782  -11.3242   27.2554 C   0  0  0  0  0  0  0  0  0  0  0  0
    7.0272  -12.0997   27.7442 C   0  0  0  0  0  0  0  0  0  0  0  0
    7.7246  -12.9285   26.8943 C   0  0  0  0  0  0  0  0  0  0  0  0
    7.4191  -13.0257   25.5471 C   0  0  0  0  0  0  0  0  0  0  0  0
    8.1868  -13.9179   24.6718 C   0  0  0  0  0  0  0  0  0  0  0  0
    7.2743  -14.9470   24.0231 C   0  0  2  0  0  0  0  0  0  0  0  0
    6.8362  -15.8146   25.0962 N   0  0  0  0  0  0  0  0  0  0  0  0
    8.0149  -15.6721   22.9588 C   0  0  0  0  0  0  0  0  0  0  0  0
    8.2388  -16.9142   23.0962 O   0  0  0  0  0  0  0  0  0  0  0  0
    6.3815  -12.2515   25.0927 C   0  0  0  0  0  0  0  0  0  0  0  0
    5.6462  -11.3957   25.9119 C   0  0  0  0  0  0  0  0  0  0  0  0
    7.5541  -12.9432   18.9988 N   0  0  0  0  0  0  0  0  0  0  0  0
    7.9877  -14.2995   19.0368 C   0  0  0  0  0  0  0  0  0  0  0  0
    7.1916  -15.1798   18.6605 O   0  0  0  0  0  0  0  0  0  0  0  0
    9.3458  -14.6452   19.5112 C   0  0  0  0  0  0  0  0  0  0  0  0
    9.2468  -15.5468   20.7388 C   0  0  2  0  0  0  0  0  0  0  0  0
    8.4662  -14.9850   21.8021 N   0  0  0  0  0  0  0  0  0  0  0  0
   10.5434  -16.0534   21.1671 C   0  0  0  0  0  0  0  0  0  0  0  0
   11.4778  -15.1999   21.3589 O   0  0  0  0  0  0  0  0  0  0  0  0
   11.2760  -18.8128   23.7157 O   0  0  0  0  0  0  0  0  0  0  0  0
   11.9354  -19.1602   22.5361 C   0  0  0  0  0  0  0  0  0  0  0  0
   12.1110  -17.9320   21.6826 C   0  0  2  0  0  0  0  0  0  0  0  0
   10.7870  -17.4172   21.3662 N   0  0  0  0  0  0  0  0  0  0  0  0
   12.8687  -18.2282   20.4405 C   0  0  0  0  0  0  0  0  0  0  0  0
   12.2931  -18.0963   19.3403 O   0  0  0  0  0  0  0  0  0  0  0  0
   14.1884  -18.6449   20.4750 O   0  0  0  0  0  0  0  0  0  0  0  0
  1  2  1  0
  2  3  2  0
  3  4  1  0
  5  6  1  0
  5  4  2  0
  6  7  1  0
  7  8  1  1
  7  9  1  0
  9 10  2  0
 11  5  1  0
 12 11  2  0
 12  2  1  0
 14 15  2  0
 14 13  1  0
 16 14  1  0
 17 16  1  6
 18  9  1  0
 18 17  1  0
 19 17  1  0
 19 20  2  0
 21 22  1  0
 23 22  1  1
 23 24  1  0
 24 19  1  0
 25 23  1  0
 26 25  2  0
 27 25  1  0
M  END
$$$$
