YNS.pdb
     RDKit          3D

 27 27  0  0  1  0  0  0  0  0999 V2000
    7.1150  -11.4894   17.9038 O   0  0  0  0  0  0  0  0  0  0  0  0
    7.5685  -12.4579   18.7771 C   0  0  0  0  0  0  0  0  0  0  0  0
    8.9433  -12.6594   18.8786 C   0  0  0  0  0  0  0  0  0  0  0  0
    9.4373  -13.6153   19.7374 C   0  0  0  0  0  0  0  0  0  0  0  0
    8.6073  -14.3995   20.5209 C   0  0  0  0  0  0  0  0  0  0  0  0
    9.1705  -15.4103   21.4223 C   0  0  0  0  0  0  0  0  0  0  0  0
    9.5583  -16.6610   20.6488 C   0  0  2  0  0  0  0  0  0  0  0  0
    8.3173  -17.2118   20.1461 N   0  0  0  0  0  0  0  0  0  0  0  0
   10.2862  -17.5971   21.5438 C   0  0  0  0  0  0  0  0  0  0  0  0
    9.6265  -18.3182   22.3542 O   0  0  0  0  0  0  0  0  0  0  0  0
    7.2582  -14.1798   20.4015 C   0  0  0  0  0  0  0  0  0  0  0  0
    6.7085  -13.2260   19.5458 C   0  0  0  0  0  0  0  0  0  0  0  0
   14.4522  -18.4408   19.2678 N   0  0  0  0  0  0  0  0  0  0  0  0
   13.8925  -19.2119   20.3267 C   0  0  0  0  0  0  0  0  0  0  0  0
   13.3658  -20.3035   20.0415 O   0  0  0  0  0  0  0  0  0  0  0  0
   13.9389  -18.7237   21.7226 C   0  0  0  0  0  0  0  0  0  0  0  0
   12.5189  -18.5770   22.2626 C   0  0  2  0  0  0  0  0  0  0  0  0
   11.7016  -17.6848   21.4933 N   0  0  0  0  0  0  0  0  0  0  0  0
   12.4892  -18.3125   23.6945 C   0  0  0  0  0  0  0  0  0  0  0  0
   12.8594  -17.1525   24.0894 O   0  0  0  0  0  0  0  0  0  0  0  0
   10.0452  -20.2311   26.0525 O   0  0  0  0  0  0  0  0  0  0  0  0
   10.6495  -19.0694   26.5344 C   0  0  0  0  0  0  0  0  0  0  0  0
   12.0772  -19.0155   26.0585 C   0  0  2  0  0  0  0  0  0  0  0  0
   12.0786  -19.2729   24.6260 N   0  0  0  0  0  0  0  0  0  0  0  0
   12.9321  -20.0000   26.7687 C   0  0  0  0  0  0  0  0  0  0  0  0
   13.5247  -20.8728   26.1007 O   0  0  0  0  0  0  0  0  0  0  0  0
   13.0847  -19.9725   28.1443 O   0  0  0  0  0  0  0  0  0  0  0  0
  1  2  1  0
  2  3  2  0
  3  4  1  0
  5  6  1  0
  5  4  2  0
  6  7  1  0
  7  8  1  1
  7  9  1  0
  9 10  2  0
 11  5  1  0
 12 11  2  0
 12  2  1  0
 14 15  2  0
 14 13  1  0
 16 14  1  0
 17 16  1  6
 18  9  1  0
 18 17  1  0
 19 17  1  0
 19 20  2  0
 21 22  1  0
 23 22  1  1
 23 24  1  0
 24 19  1  0
 25 23  1  0
 26 25  2  0
 27 25  1  0
M  END
$$$$
