YNS.pdb
     RDKit          3D

 27 27  0  0  1  0  0  0  0  0999 V2000
    5.8074  -10.2024   27.3618 O   0  0  0  0  0  0  0  0  0  0  0  0
    6.3136  -11.4038   26.9070 C   0  0  0  0  0  0  0  0  0  0  0  0
    7.2978  -11.3712   25.9216 C   0  0  0  0  0  0  0  0  0  0  0  0
    7.8292  -12.5466   25.4403 C   0  0  0  0  0  0  0  0  0  0  0  0
    7.4182  -13.7843   25.9059 C   0  0  0  0  0  0  0  0  0  0  0  0
    8.0057  -15.0154   25.3666 C   0  0  0  0  0  0  0  0  0  0  0  0
    7.0719  -15.6537   24.3500 C   0  0  2  0  0  0  0  0  0  0  0  0
    6.3756  -16.7043   25.0625 N   0  0  0  0  0  0  0  0  0  0  0  0
    7.8593  -16.1605   23.1966 C   0  0  0  0  0  0  0  0  0  0  0  0
    8.2585  -17.3657   23.2009 O   0  0  0  0  0  0  0  0  0  0  0  0
    6.4484  -13.7872   26.8764 C   0  0  0  0  0  0  0  0  0  0  0  0
    5.8779  -12.6254   27.3949 C   0  0  0  0  0  0  0  0  0  0  0  0
    7.1464  -13.2457   19.2542 N   0  0  0  0  0  0  0  0  0  0  0  0
    7.9002  -14.4508   19.3479 C   0  0  0  0  0  0  0  0  0  0  0  0
    7.4191  -15.4834   18.8452 O   0  0  0  0  0  0  0  0  0  0  0  0
    9.2158  -14.4680   20.0247 C   0  0  0  0  0  0  0  0  0  0  0  0
    9.2053  -15.5087   21.1411 C   0  0  2  0  0  0  0  0  0  0  0  0
    8.1611  -15.3082   22.1030 N   0  0  0  0  0  0  0  0  0  0  0  0
   10.5204  -15.7056   21.7351 C   0  0  0  0  0  0  0  0  0  0  0  0
   10.7886  -15.0576   22.8059 O   0  0  0  0  0  0  0  0  0  0  0  0
   12.9242  -18.6132   23.7857 O   0  0  0  0  0  0  0  0  0  0  0  0
   11.9220  -17.9702   23.0583 C   0  0  0  0  0  0  0  0  0  0  0  0
   12.5495  -17.1488   21.9631 C   0  0  2  0  0  0  0  0  0  0  0  0
   11.4752  -16.5624   21.1756 N   0  0  0  0  0  0  0  0  0  0  0  0
   13.4427  -17.9666   21.1041 C   0  0  0  0  0  0  0  0  0  0  0  0
   12.9522  -18.5592   20.1206 O   0  0  0  0  0  0  0  0  0  0  0  0
   14.7964  -18.0863   21.3679 O   0  0  0  0  0  0  0  0  0  0  0  0
  1  2  1  0
  2  3  2  0
  3  4  1  0
  5  6  1  0
  5  4  2  0
  6  7  1  0
  7  8  1  1
  7  9  1  0
  9 10  2  0
 11  5  1  0
 12 11  2  0
 12  2  1  0
 14 15  2  0
 14 13  1  0
 16 14  1  0
 17 16  1  6
 18  9  1  0
 18 17  1  0
 19 17  1  0
 19 20  2  0
 21 22  1  0
 23 22  1  1
 23 24  1  0
 24 19  1  0
 25 23  1  0
 26 25  2  0
 27 25  1  0
M  END
$$$$
