YNS.pdb
     RDKit          3D

 27 27  0  0  1  0  0  0  0  0999 V2000
    5.6681  -10.2466   27.5653 O   0  0  0  0  0  0  0  0  0  0  0  0
    6.1987  -11.4199   27.0671 C   0  0  0  0  0  0  0  0  0  0  0  0
    7.1255  -11.3338   26.0305 C   0  0  0  0  0  0  0  0  0  0  0  0
    7.6788  -12.4797   25.5049 C   0  0  0  0  0  0  0  0  0  0  0  0
    7.3461  -13.7393   25.9746 C   0  0  0  0  0  0  0  0  0  0  0  0
    7.9545  -14.9378   25.3872 C   0  0  0  0  0  0  0  0  0  0  0  0
    7.0424  -15.5371   24.3281 C   0  0  2  0  0  0  0  0  0  0  0  0
    6.2643  -16.5508   25.0086 N   0  0  0  0  0  0  0  0  0  0  0  0
    7.8603  -16.0854   23.2157 C   0  0  0  0  0  0  0  0  0  0  0  0
    8.2008  -17.3082   23.2417 O   0  0  0  0  0  0  0  0  0  0  0  0
    6.4316  -13.7949   26.9960 C   0  0  0  0  0  0  0  0  0  0  0  0
    5.8419  -12.6647   27.5607 C   0  0  0  0  0  0  0  0  0  0  0  0
    7.3841  -13.0372   19.2282 N   0  0  0  0  0  0  0  0  0  0  0  0
    7.9223  -14.3493   19.3619 C   0  0  0  0  0  0  0  0  0  0  0  0
    7.2422  -15.3066   18.9478 O   0  0  0  0  0  0  0  0  0  0  0  0
    9.2515  -14.5614   19.9763 C   0  0  0  0  0  0  0  0  0  0  0  0
    9.1471  -15.6164   21.0742 C   0  0  2  0  0  0  0  0  0  0  0  0
    8.2557  -15.2529   22.1367 N   0  0  0  0  0  0  0  0  0  0  0  0
   10.4502  -16.0772   21.5333 C   0  0  0  0  0  0  0  0  0  0  0  0
   11.2051  -15.2265   22.1206 O   0  0  0  0  0  0  0  0  0  0  0  0
   11.2182  -19.4965   23.1919 O   0  0  0  0  0  0  0  0  0  0  0  0
   12.0875  -19.3175   22.1152 C   0  0  0  0  0  0  0  0  0  0  0  0
   12.1945  -17.8488   21.7995 C   0  0  2  0  0  0  0  0  0  0  0  0
   10.8872  -17.3941   21.3498 N   0  0  0  0  0  0  0  0  0  0  0  0
   13.2265  -17.5814   20.7661 C   0  0  0  0  0  0  0  0  0  0  0  0
   12.8626  -17.1534   19.6510 O   0  0  0  0  0  0  0  0  0  0  0  0
   14.5724  -17.7954   21.0093 O   0  0  0  0  0  0  0  0  0  0  0  0
  1  2  1  0
  2  3  2  0
  3  4  1  0
  5  6  1  0
  5  4  2  0
  6  7  1  0
  7  8  1  1
  7  9  1  0
  9 10  2  0
 11  5  1  0
 12 11  2  0
 12  2  1  0
 14 15  2  0
 14 13  1  0
 16 14  1  0
 17 16  1  6
 18  9  1  0
 18 17  1  0
 19 17  1  0
 19 20  2  0
 21 22  1  0
 23 22  1  6
 23 24  1  0
 24 19  1  0
 25 23  1  0
 26 25  2  0
 27 25  1  0
M  END
$$$$
