YNS.pdb
     RDKit          3D

 27 27  0  0  1  0  0  0  0  0999 V2000
    6.6582  -12.4638   17.2834 O   0  0  0  0  0  0  0  0  0  0  0  0
    7.2231  -13.0500   18.3985 C   0  0  0  0  0  0  0  0  0  0  0  0
    8.5154  -12.6719   18.7561 C   0  0  0  0  0  0  0  0  0  0  0  0
    9.1157  -13.2325   19.8611 C   0  0  0  0  0  0  0  0  0  0  0  0
    8.4743  -14.1745   20.6479 C   0  0  0  0  0  0  0  0  0  0  0  0
    9.1475  -14.7518   21.8163 C   0  0  0  0  0  0  0  0  0  0  0  0
   10.4173  -15.4770   21.3986 C   0  0  2  0  0  0  0  0  0  0  0  0
   10.0226  -16.3796   20.3376 N   0  0  0  0  0  0  0  0  0  0  0  0
   10.9998  -16.1809   22.5701 C   0  0  0  0  0  0  0  0  0  0  0  0
   11.2139  -15.5309   23.6395 O   0  0  0  0  0  0  0  0  0  0  0  0
    7.2026  -14.5281   20.2733 C   0  0  0  0  0  0  0  0  0  0  0  0
    6.5522  -13.9913   19.1630 C   0  0  0  0  0  0  0  0  0  0  0  0
   12.2497  -21.4007   21.9123 N   0  0  0  0  0  0  0  0  0  0  0  0
   11.3390  -20.3816   22.3136 C   0  0  0  0  0  0  0  0  0  0  0  0
   10.4512  -20.0397   21.5103 O   0  0  0  0  0  0  0  0  0  0  0  0
   11.4506  -19.7515   23.6477 C   0  0  0  0  0  0  0  0  0  0  0  0
   11.9872  -18.3303   23.5010 C   0  0  2  0  0  0  0  0  0  0  0  0
   11.3126  -17.5629   22.4952 N   0  0  0  0  0  0  0  0  0  0  0  0
   13.4393  -18.2885   23.3955 C   0  0  0  0  0  0  0  0  0  0  0  0
   13.9812  -18.9362   22.4336 O   0  0  0  0  0  0  0  0  0  0  0  0
   15.7036  -15.6237   22.8683 O   0  0  0  0  0  0  0  0  0  0  0  0
   16.1366  -16.1379   24.0909 C   0  0  0  0  0  0  0  0  0  0  0  0
   15.6895  -17.5706   24.2159 C   0  0  2  0  0  0  0  0  0  0  0  0
   14.2365  -17.5774   24.2996 N   0  0  0  0  0  0  0  0  0  0  0  0
   16.2859  -18.2320   25.4039 C   0  0  0  0  0  0  0  0  0  0  0  0
   15.5258  -18.6646   26.2950 O   0  0  0  0  0  0  0  0  0  0  0  0
   17.6554  -18.3778   25.5446 O   0  0  0  0  0  0  0  0  0  0  0  0
  1  2  1  0
  2  3  2  0
  3  4  1  0
  5  6  1  0
  5  4  2  0
  6  7  1  0
  7  8  1  6
  7  9  1  0
  9 10  2  0
 11  5  1  0
 12 11  2  0
 12  2  1  0
 14 15  2  0
 14 13  1  0
 16 14  1  0
 17 16  1  6
 18  9  1  0
 18 17  1  0
 19 17  1  0
 19 20  2  0
 21 22  1  0
 23 22  1  1
 23 24  1  0
 24 19  1  0
 25 23  1  0
 26 25  2  0
 27 25  1  0
M  END
$$$$
