YNS.pdb
     RDKit          3D

 27 27  0  0  1  0  0  0  0  0999 V2000
    7.0678  -12.3548   17.7570 O   0  0  0  0  0  0  0  0  0  0  0  0
    7.7621  -13.0295   18.7413 C   0  0  0  0  0  0  0  0  0  0  0  0
    7.1834  -14.1733   19.2870 C   0  0  0  0  0  0  0  0  0  0  0  0
    7.8423  -14.8756   20.2710 C   0  0  0  0  0  0  0  0  0  0  0  0
    9.0818  -14.4846   20.7490 C   0  0  0  0  0  0  0  0  0  0  0  0
    9.7519  -15.2570   21.8006 C   0  0  0  0  0  0  0  0  0  0  0  0
   10.5140  -16.4287   21.2013 C   0  0  2  0  0  0  0  0  0  0  0  0
    9.5230  -17.2325   20.5173 N   0  0  0  0  0  0  0  0  0  0  0  0
   11.2179  -17.1711   22.2786 C   0  0  0  0  0  0  0  0  0  0  0  0
   10.6509  -18.1740   22.8120 O   0  0  0  0  0  0  0  0  0  0  0  0
    9.6287  -13.3553   20.1938 C   0  0  0  0  0  0  0  0  0  0  0  0
    9.0013  -12.6089   19.1972 C   0  0  0  0  0  0  0  0  0  0  0  0
   15.9454  -16.6217   21.3903 N   0  0  0  0  0  0  0  0  0  0  0  0
   15.2861  -17.5410   22.2558 C   0  0  0  0  0  0  0  0  0  0  0  0
   15.1335  -18.7118   21.8603 O   0  0  0  0  0  0  0  0  0  0  0  0
   14.7989  -17.1105   23.5849 C   0  0  0  0  0  0  0  0  0  0  0  0
   13.3073  -17.4100   23.7066 C   0  0  2  0  0  0  0  0  0  0  0  0
   12.5086  -16.7648   22.7059 N   0  0  0  0  0  0  0  0  0  0  0  0
   12.8087  -17.2275   25.0629 C   0  0  0  0  0  0  0  0  0  0  0  0
   12.2315  -16.1182   25.3364 O   0  0  0  0  0  0  0  0  0  0  0  0
    9.6466  -19.1441   27.2228 O   0  0  0  0  0  0  0  0  0  0  0  0
   10.6634  -18.8870   26.3026 C   0  0  0  0  0  0  0  0  0  0  0  0
   11.9080  -18.4668   27.0390 C   0  0  2  0  0  0  0  0  0  0  0  0
   12.9446  -18.2100   26.0503 N   0  0  0  0  0  0  0  0  0  0  0  0
   12.3515  -19.5020   28.0065 C   0  0  0  0  0  0  0  0  0  0  0  0
   12.8906  -20.5402   27.5698 O   0  0  0  0  0  0  0  0  0  0  0  0
   12.1811  -19.3434   29.3711 O   0  0  0  0  0  0  0  0  0  0  0  0
  1  2  1  0
  2  3  2  0
  3  4  1  0
  5  6  1  0
  5  4  2  0
  6  7  1  0
  7  8  1  1
  7  9  1  0
  9 10  2  0
 11  5  1  0
 12 11  2  0
 12  2  1  0
 14 15  2  0
 14 13  1  0
 16 14  1  0
 17 16  1  1
 18  9  1  0
 18 17  1  0
 19 17  1  0
 19 20  2  0
 21 22  1  0
 23 22  1  6
 23 24  1  0
 24 19  1  0
 25 23  1  0
 26 25  2  0
 27 25  1  0
M  END
$$$$
