YNS.pdb
     RDKit          3D

 27 27  0  0  1  0  0  0  0  0999 V2000
    7.1416  -11.6980   18.2048 O   0  0  0  0  0  0  0  0  0  0  0  0
    7.7733  -12.5215   19.1154 C   0  0  0  0  0  0  0  0  0  0  0  0
    7.0113  -13.0691   20.1451 C   0  0  0  0  0  0  0  0  0  0  0  0
    7.6024  -13.8953   21.0744 C   0  0  0  0  0  0  0  0  0  0  0  0
    8.9497  -14.2116   21.0257 C   0  0  0  0  0  0  0  0  0  0  0  0
    9.5446  -15.0934   22.0356 C   0  0  0  0  0  0  0  0  0  0  0  0
    9.8143  -16.4714   21.4514 C   0  0  2  0  0  0  0  0  0  0  0  0
    8.5139  -17.0275   21.1419 N   0  0  0  0  0  0  0  0  0  0  0  0
   10.5754  -17.2896   22.4303 C   0  0  0  0  0  0  0  0  0  0  0  0
    9.9567  -17.8350   23.3955 O   0  0  0  0  0  0  0  0  0  0  0  0
    9.6762  -13.6593   20.0011 C   0  0  0  0  0  0  0  0  0  0  0  0
    9.1252  -12.8160   19.0371 C   0  0  0  0  0  0  0  0  0  0  0  0
   14.9623  -20.9628   22.9562 N   0  0  0  0  0  0  0  0  0  0  0  0
   14.9223  -19.5717   23.2601 C   0  0  0  0  0  0  0  0  0  0  0  0
   15.5501  -19.1718   24.2583 O   0  0  0  0  0  0  0  0  0  0  0  0
   14.1548  -18.6348   22.4103 C   0  0  0  0  0  0  0  0  0  0  0  0
   12.7996  -18.3516   23.0527 C   0  0  2  0  0  0  0  0  0  0  0  0
   11.9770  -17.4602   22.2882 N   0  0  0  0  0  0  0  0  0  0  0  0
   12.9117  -17.9865   24.4581 C   0  0  0  0  0  0  0  0  0  0  0  0
   13.3877  -16.8305   24.7327 O   0  0  0  0  0  0  0  0  0  0  0  0
   10.4817  -19.3030   27.2753 O   0  0  0  0  0  0  0  0  0  0  0  0
   11.3071  -18.1904   27.4424 C   0  0  0  0  0  0  0  0  0  0  0  0
   12.6757  -18.4979   26.8943 C   0  0  2  0  0  0  0  0  0  0  0  0
   12.5240  -18.8489   25.4900 N   0  0  0  0  0  0  0  0  0  0  0  0
   13.3335  -19.5994   27.6416 C   0  0  0  0  0  0  0  0  0  0  0  0
   13.5444  -19.4536   28.8636 O   0  0  0  0  0  0  0  0  0  0  0  0
   13.7159  -20.7748   27.0183 O   0  0  0  0  0  0  0  0  0  0  0  0
  1  2  1  0
  2  3  2  0
  3  4  1  0
  5  6  1  0
  5  4  2  0
  6  7  1  0
  7  8  1  1
  7  9  1  0
  9 10  2  0
 11  5  1  0
 12 11  2  0
 12  2  1  0
 14 15  2  0
 14 13  1  0
 16 14  1  0
 17 16  1  6
 18  9  1  0
 18 17  1  0
 19 17  1  0
 19 20  2  0
 21 22  1  0
 23 22  1  1
 23 24  1  0
 24 19  1  0
 25 23  1  0
 26 25  2  0
 27 25  1  0
M  END
$$$$
