YNS.pdb
     RDKit          3D

 27 27  0  0  1  0  0  0  0  0999 V2000
    6.5429  -12.1237   17.2650 O   0  0  0  0  0  0  0  0  0  0  0  0
    7.3260  -12.8978   18.0981 C   0  0  0  0  0  0  0  0  0  0  0  0
    8.3814  -13.6101   17.5329 C   0  0  0  0  0  0  0  0  0  0  0  0
    9.1866  -14.3943   18.3283 C   0  0  0  0  0  0  0  0  0  0  0  0
    8.9870  -14.5050   19.6941 C   0  0  0  0  0  0  0  0  0  0  0  0
    9.8640  -15.3528   20.5086 C   0  0  0  0  0  0  0  0  0  0  0  0
    9.7886  -16.8001   20.0476 C   0  0  2  0  0  0  0  0  0  0  0  0
    8.4502  -17.2461   20.3727 N   0  0  0  0  0  0  0  0  0  0  0  0
   10.8442  -17.5965   20.7247 C   0  0  0  0  0  0  0  0  0  0  0  0
   10.7082  -17.8880   21.9529 O   0  0  0  0  0  0  0  0  0  0  0  0
    7.9411  -13.7925   20.2243 C   0  0  0  0  0  0  0  0  0  0  0  0
    7.0967  -12.9865   19.4618 C   0  0  0  0  0  0  0  0  0  0  0  0
   12.2205  -21.1413   18.0188 N   0  0  0  0  0  0  0  0  0  0  0  0
   12.4827  -20.7650   19.3674 C   0  0  0  0  0  0  0  0  0  0  0  0
   11.7326  -21.2098   20.2562 O   0  0  0  0  0  0  0  0  0  0  0  0
   13.6150  -19.8710   19.6955 C   0  0  0  0  0  0  0  0  0  0  0  0
   13.1217  -18.7136   20.5595 C   0  0  2  0  0  0  0  0  0  0  0  0
   11.9906  -18.0268   20.0075 N   0  0  0  0  0  0  0  0  0  0  0  0
   14.1997  -17.8277   20.9769 C   0  0  0  0  0  0  0  0  0  0  0  0
   15.2676  -18.3686   21.4301 O   0  0  0  0  0  0  0  0  0  0  0  0
   15.1462  -14.4496   19.2410 O   0  0  0  0  0  0  0  0  0  0  0  0
   15.0079  -14.2397   20.6136 C   0  0  0  0  0  0  0  0  0  0  0  0
   15.1680  -15.5507   21.3372 C   0  0  2  0  0  0  0  0  0  0  0  0
   14.0974  -16.4340   20.8993 N   0  0  0  0  0  0  0  0  0  0  0  0
   15.1320  -15.3742   22.8110 C   0  0  0  0  0  0  0  0  0  0  0  0
   14.2182  -15.9251   23.4595 O   0  0  0  0  0  0  0  0  0  0  0  0
   16.0812  -14.6177   23.4767 O   0  0  0  0  0  0  0  0  0  0  0  0
  1  2  1  0
  2  3  2  0
  3  4  1  0
  5  6  1  0
  5  4  2  0
  6  7  1  0
  7  8  1  1
  7  9  1  0
  9 10  2  0
 11  5  1  0
 12 11  2  0
 12  2  1  0
 14 15  2  0
 14 13  1  0
 16 14  1  0
 17 16  1  6
 18  9  1  0
 18 17  1  0
 19 17  1  0
 19 20  2  0
 21 22  1  0
 23 22  1  6
 23 24  1  0
 24 19  1  0
 25 23  1  0
 26 25  2  0
 27 25  1  0
M  END
$$$$
