YNS.pdb
     RDKit          3D

 27 27  0  0  1  0  0  0  0  0999 V2000
    4.9989  -10.7283   27.1316 O   0  0  0  0  0  0  0  0  0  0  0  0
    5.8369  -11.7560   26.7466 C   0  0  0  0  0  0  0  0  0  0  0  0
    7.2119  -11.5409   26.8091 C   0  0  0  0  0  0  0  0  0  0  0  0
    8.0825  -12.5395   26.4341 C   0  0  0  0  0  0  0  0  0  0  0  0
    7.6385  -13.7737   25.9899 C   0  0  0  0  0  0  0  0  0  0  0  0
    8.5965  -14.8122   25.5961 C   0  0  0  0  0  0  0  0  0  0  0  0
    7.9359  -15.8305   24.6799 C   0  0  2  0  0  0  0  0  0  0  0  0
    7.0035  -16.5607   25.5126 N   0  0  0  0  0  0  0  0  0  0  0  0
    8.9732  -16.7024   24.0708 C   0  0  0  0  0  0  0  0  0  0  0  0
    9.8131  -17.2847   24.8241 O   0  0  0  0  0  0  0  0  0  0  0  0
    6.2799  -13.9585   25.9388 C   0  0  0  0  0  0  0  0  0  0  0  0
    5.3576  -12.9791   26.3055 C   0  0  0  0  0  0  0  0  0  0  0  0
    7.3562  -17.8412   19.4836 N   0  0  0  0  0  0  0  0  0  0  0  0
    8.3391  -18.4318   20.3287 C   0  0  0  0  0  0  0  0  0  0  0  0
    8.0353  -19.4711   20.9433 O   0  0  0  0  0  0  0  0  0  0  0  0
    9.6802  -17.8224   20.4677 C   0  0  0  0  0  0  0  0  0  0  0  0
   10.0095  -17.6381   21.9466 C   0  0  2  0  0  0  0  0  0  0  0  0
    9.0244  -16.8831   22.6643 N   0  0  0  0  0  0  0  0  0  0  0  0
   11.3742  -17.1775   22.1629 C   0  0  0  0  0  0  0  0  0  0  0  0
   11.6368  -15.9557   21.8860 O   0  0  0  0  0  0  0  0  0  0  0  0
   14.0744  -19.7279   23.7479 O   0  0  0  0  0  0  0  0  0  0  0  0
   14.3386  -18.3775   23.9793 C   0  0  0  0  0  0  0  0  0  0  0  0
   13.7435  -17.5551   22.8669 C   0  0  2  0  0  0  0  0  0  0  0  0
   12.3808  -18.0183   22.6513 N   0  0  0  0  0  0  0  0  0  0  0  0
   14.5376  -17.6627   21.6170 C   0  0  0  0  0  0  0  0  0  0  0  0
   13.9964  -18.1482   20.6018 O   0  0  0  0  0  0  0  0  0  0  0  0
   15.8545  -17.2408   21.5529 O   0  0  0  0  0  0  0  0  0  0  0  0
  1  2  1  0
  2  3  2  0
  3  4  1  0
  5  6  1  0
  5  4  2  0
  6  7  1  0
  7  8  1  1
  7  9  1  0
  9 10  2  0
 11  5  1  0
 12 11  2  0
 12  2  1  0
 14 15  2  0
 14 13  1  0
 16 14  1  0
 17 16  1  6
 18  9  1  0
 18 17  1  0
 19 17  1  0
 19 20  2  0
 21 22  1  0
 23 22  1  1
 23 24  1  0
 24 19  1  0
 25 23  1  0
 26 25  2  0
 27 25  1  0
M  END
$$$$
