YNS.pdb
     RDKit          3D

 27 27  0  0  1  0  0  0  0  0999 V2000
    7.1433  -12.1853   16.8508 O   0  0  0  0  0  0  0  0  0  0  0  0
    7.5484  -12.8967   17.9626 C   0  0  0  0  0  0  0  0  0  0  0  0
    7.1059  -12.4699   19.2128 C   0  0  0  0  0  0  0  0  0  0  0  0
    7.4867  -13.1510   20.3471 C   0  0  0  0  0  0  0  0  0  0  0  0
    8.3068  -14.2656   20.2951 C   0  0  0  0  0  0  0  0  0  0  0  0
    8.6938  -14.9636   21.5258 C   0  0  0  0  0  0  0  0  0  0  0  0
    8.5392  -16.4674   21.3597 C   0  0  2  0  0  0  0  0  0  0  0  0
    7.1136  -16.7096   21.2879 N   0  0  0  0  0  0  0  0  0  0  0  0
    9.1879  -17.1658   22.4992 C   0  0  0  0  0  0  0  0  0  0  0  0
    8.5335  -17.3386   23.5734 O   0  0  0  0  0  0  0  0  0  0  0  0
    8.7274  -14.6643   19.0514 C   0  0  0  0  0  0  0  0  0  0  0  0
    8.3715  -14.0080   17.8738 C   0  0  0  0  0  0  0  0  0  0  0  0
   12.3808  -20.1961   20.4430 N   0  0  0  0  0  0  0  0  0  0  0  0
   11.8445  -20.1759   21.7624 C   0  0  0  0  0  0  0  0  0  0  0  0
   10.9231  -20.9687   22.0326 O   0  0  0  0  0  0  0  0  0  0  0  0
   12.3714  -19.2373   22.7776 C   0  0  0  0  0  0  0  0  0  0  0  0
   11.2247  -18.4176   23.3631 C   0  0  2  0  0  0  0  0  0  0  0  0
   10.5226  -17.6348   22.3885 N   0  0  0  0  0  0  0  0  0  0  0  0
   11.6214  -17.6649   24.5451 C   0  0  0  0  0  0  0  0  0  0  0  0
   12.3739  -16.6442   24.3712 O   0  0  0  0  0  0  0  0  0  0  0  0
    9.3854  -16.8002   27.4231 O   0  0  0  0  0  0  0  0  0  0  0  0
   10.6545  -16.2301   27.3173 C   0  0  0  0  0  0  0  0  0  0  0  0
   11.6625  -17.3087   27.0197 C   0  0  2  0  0  0  0  0  0  0  0  0
   11.2123  -18.0236   25.8346 N   0  0  0  0  0  0  0  0  0  0  0  0
   11.8254  -18.2410   28.1637 C   0  0  0  0  0  0  0  0  0  0  0  0
   12.2430  -17.7903   29.2507 O   0  0  0  0  0  0  0  0  0  0  0  0
   11.5278  -19.5884   28.0525 O   0  0  0  0  0  0  0  0  0  0  0  0
  1  2  1  0
  2  3  2  0
  3  4  1  0
  5  6  1  0
  5  4  2  0
  6  7  1  0
  7  8  1  1
  7  9  1  0
  9 10  2  0
 11  5  1  0
 12 11  2  0
 12  2  1  0
 14 15  2  0
 14 13  1  0
 16 14  1  0
 17 16  1  6
 18  9  1  0
 18 17  1  0
 19 17  1  0
 19 20  2  0
 21 22  1  0
 23 22  1  1
 23 24  1  0
 24 19  1  0
 25 23  1  0
 26 25  2  0
 27 25  1  0
M  END
$$$$
