ASQ.pdb
     RDKit          3D

 21 20  0  0  1  0  0  0  0  0999 V2000
    8.2681  -15.5449   16.0746 C   0  0  0  0  0  0  0  0  0  0  0  0
    7.7616  -14.2880   16.7488 C   0  0  2  0  0  0  0  0  0  0  0  0
    7.9543  -13.1278   15.9029 N   0  0  0  0  0  0  0  0  0  0  0  0
    8.5672  -14.0928   17.9805 C   0  0  0  0  0  0  0  0  0  0  0  0
    9.7187  -13.6452   17.9479 O   0  0  0  0  0  0  0  0  0  0  0  0
    7.2294  -15.9201   21.4667 O   0  0  0  0  0  0  0  0  0  0  0  0
    7.5441  -14.5644   21.5482 C   0  0  0  0  0  0  0  0  0  0  0  0
    8.6079  -14.2152   20.4996 C   0  0  2  0  0  0  0  0  0  0  0  0
    7.9784  -14.4362   19.2153 N   0  0  0  0  0  0  0  0  0  0  0  0
    9.7621  -15.1389   20.5870 C   0  0  0  0  0  0  0  0  0  0  0  0
    9.7371  -16.2380   19.9547 O   0  0  0  0  0  0  0  0  0  0  0  0
   14.3317  -15.2802   17.5178 N   0  0  0  0  0  0  0  0  0  0  0  0
   14.3886  -14.6971   18.8283 C   0  0  0  0  0  0  0  0  0  0  0  0
   15.5222  -14.4334   19.2914 O   0  0  0  0  0  0  0  0  0  0  0  0
   13.1258  -14.4293   19.5810 C   0  0  0  0  0  0  0  0  0  0  0  0
   13.2897  -15.0488   20.9485 C   0  0  0  0  0  0  0  0  0  0  0  0
   12.0076  -15.6651   21.4532 C   0  0  2  0  0  0  0  0  0  0  0  0
   10.8932  -14.7758   21.3870 N   0  0  0  0  0  0  0  0  0  0  0  0
   12.2850  -16.1014   22.8661 C   0  0  0  0  0  0  0  0  0  0  0  0
   11.6382  -15.5408   23.7840 O   0  0  0  0  0  0  0  0  0  0  0  0
   13.1940  -17.0646   23.1948 O   0  0  0  0  0  0  0  0  0  0  0  0
  2  1  1  6
  2  4  1  0
  3  2  1  0
  4  5  2  0
  6  7  1  0
  8  7  1  1
  8 10  1  0
  9  8  1  0
  9  4  1  0
 10 11  2  0
 10 18  1  0
 12 13  1  0
 13 15  1  0
 13 14  2  0
 15 16  1  0
 17 16  1  1
 17 19  1  0
 18 17  1  0
 19 20  2  0
 19 21  1  0
M  END
$$$$
