ASQ.pdb
     RDKit          3D

 21 20  0  0  1  0  0  0  0  0999 V2000
    2.3801  -19.1940   22.2991 C   0  0  0  0  0  0  0  0  0  0  0  0
    3.2197  -18.7610   21.1164 C   0  0  2  0  0  0  0  0  0  0  0  0
    3.1434  -19.7276   20.0400 N   0  0  0  0  0  0  0  0  0  0  0  0
    4.6303  -18.7004   21.5753 C   0  0  0  0  0  0  0  0  0  0  0  0
    5.2943  -19.7198   21.7929 O   0  0  0  0  0  0  0  0  0  0  0  0
    6.0376  -14.9054   22.6312 O   0  0  0  0  0  0  0  0  0  0  0  0
    6.8908  -15.7571   21.9311 C   0  0  0  0  0  0  0  0  0  0  0  0
    6.5515  -17.2164   22.2604 C   0  0  2  0  0  0  0  0  0  0  0  0
    5.2094  -17.4280   21.7618 N   0  0  0  0  0  0  0  0  0  0  0  0
    6.5148  -17.4350   23.7247 C   0  0  0  0  0  0  0  0  0  0  0  0
    5.4781  -17.1166   24.3821 O   0  0  0  0  0  0  0  0  0  0  0  0
    6.2234  -22.0400   27.1306 N   0  0  0  0  0  0  0  0  0  0  0  0
    7.0890  -21.2485   27.9584 C   0  0  0  0  0  0  0  0  0  0  0  0
    7.6864  -21.8341   28.8906 O   0  0  0  0  0  0  0  0  0  0  0  0
    7.2469  -19.7871   27.6893 C   0  0  0  0  0  0  0  0  0  0  0  0
    7.4244  -19.6318   26.1976 C   0  0  0  0  0  0  0  0  0  0  0  0
    7.6193  -18.1907   25.7931 C   0  0  2  0  0  0  0  0  0  0  0  0
    7.6547  -18.0047   24.3784 N   0  0  0  0  0  0  0  0  0  0  0  0
    8.9020  -17.7474   26.4424 C   0  0  0  0  0  0  0  0  0  0  0  0
    8.9394  -17.7238   27.6967 O   0  0  0  0  0  0  0  0  0  0  0  0
   10.0131  -17.3743   25.7435 O   0  0  0  0  0  0  0  0  0  0  0  0
  2  1  1  1
  2  4  1  0
  3  2  1  0
  4  5  2  0
  6  7  1  0
  8  7  1  1
  8 10  1  0
  9  8  1  0
  9  4  1  0
 10 11  2  0
 10 18  1  0
 12 13  1  0
 13 15  1  0
 13 14  2  0
 15 16  1  0
 17 16  1  6
 17 19  1  0
 18 17  1  0
 19 20  2  0
 19 21  1  0
M  END
$$$$
