ASQ.pdb
     RDKit          3D

 21 20  0  0  1  0  0  0  0  0999 V2000
    8.8747  -17.2345   15.4017 C   0  0  0  0  0  0  0  0  0  0  0  0
    8.5063  -15.7749   15.2443 C   0  0  2  0  0  0  0  0  0  0  0  0
    8.9427  -15.2616   13.9618 N   0  0  0  0  0  0  0  0  0  0  0  0
    9.2232  -15.0221   16.3043 C   0  0  0  0  0  0  0  0  0  0  0  0
   10.3787  -14.6114   16.1507 O   0  0  0  0  0  0  0  0  0  0  0  0
    7.5451  -14.8531   20.2462 O   0  0  0  0  0  0  0  0  0  0  0  0
    7.9229  -13.7091   19.5447 C   0  0  0  0  0  0  0  0  0  0  0  0
    9.1044  -14.0334   18.6217 C   0  0  2  0  0  0  0  0  0  0  0  0
    8.5436  -14.7803   17.5162 N   0  0  0  0  0  0  0  0  0  0  0  0
   10.0793  -14.9187   19.2994 C   0  0  0  0  0  0  0  0  0  0  0  0
   10.0321  -16.1711   19.1051 O   0  0  0  0  0  0  0  0  0  0  0  0
   16.1515  -13.8825   19.0256 N   0  0  0  0  0  0  0  0  0  0  0  0
   15.9256  -14.4010   20.3451 C   0  0  0  0  0  0  0  0  0  0  0  0
   16.7745  -14.1258   21.2241 O   0  0  0  0  0  0  0  0  0  0  0  0
   14.7151  -15.2321   20.6226 C   0  0  0  0  0  0  0  0  0  0  0  0
   13.5137  -14.3973   20.2479 C   0  0  0  0  0  0  0  0  0  0  0  0
   12.2136  -15.1167   20.5138 C   0  0  2  0  0  0  0  0  0  0  0  0
   11.0641  -14.3451   20.1668 N   0  0  0  0  0  0  0  0  0  0  0  0
   12.2248  -15.4668   21.9769 C   0  0  0  0  0  0  0  0  0  0  0  0
   13.0838  -16.2936   22.3690 O   0  0  0  0  0  0  0  0  0  0  0  0
   11.3579  -14.9363   22.8874 O   0  0  0  0  0  0  0  0  0  0  0  0
  2  1  1  6
  2  4  1  0
  3  2  1  0
  4  5  2  0
  6  7  1  0
  8  7  1  1
  8 10  1  0
  9  8  1  0
  9  4  1  0
 10 11  2  0
 10 18  1  0
 12 13  1  0
 13 15  1  0
 13 14  2  0
 15 16  1  0
 17 16  1  1
 17 19  1  0
 18 17  1  0
 19 20  2  0
 19 21  1  0
M  END
$$$$
