ASQ.pdb
     RDKit          3D

 21 20  0  0  1  0  0  0  0  0999 V2000
    7.8377  -15.1320   18.9583 C   0  0  0  0  0  0  0  0  0  0  0  0
    7.7705  -13.7523   19.5771 C   0  0  2  0  0  0  0  0  0  0  0  0
    8.3950  -12.7648   18.7206 N   0  0  0  0  0  0  0  0  0  0  0  0
    8.5352  -13.8014   20.8487 C   0  0  0  0  0  0  0  0  0  0  0  0
    9.7591  -13.6335   20.8858 O   0  0  0  0  0  0  0  0  0  0  0  0
    6.4768  -15.2417   24.2443 O   0  0  0  0  0  0  0  0  0  0  0  0
    7.3034  -14.1249   24.3574 C   0  0  0  0  0  0  0  0  0  0  0  0
    8.4430  -14.2176   23.3348 C   0  0  2  0  0  0  0  0  0  0  0  0
    7.8206  -14.0490   22.0392 N   0  0  0  0  0  0  0  0  0  0  0  0
    9.0629  -15.5625   23.3519 C   0  0  0  0  0  0  0  0  0  0  0  0
    8.7197  -16.4239   22.4868 O   0  0  0  0  0  0  0  0  0  0  0  0
   13.8595  -17.3724   21.7241 N   0  0  0  0  0  0  0  0  0  0  0  0
   14.1089  -16.6618   22.9463 C   0  0  0  0  0  0  0  0  0  0  0  0
   15.2307  -16.1204   23.0779 O   0  0  0  0  0  0  0  0  0  0  0  0
   13.0492  -16.5916   23.9977 C   0  0  0  0  0  0  0  0  0  0  0  0
   11.8289  -17.2834   23.4382 C   0  0  0  0  0  0  0  0  0  0  0  0
   10.6368  -17.1692   24.3571 C   0  0  2  0  0  0  0  0  0  0  0  0
   10.0440  -15.8710   24.3487 N   0  0  0  0  0  0  0  0  0  0  0  0
   11.1320  -17.5433   25.7276 C   0  0  0  0  0  0  0  0  0  0  0  0
   11.4827  -18.7341   25.9127 O   0  0  0  0  0  0  0  0  0  0  0  0
   11.2176  -16.6627   26.7665 O   0  0  0  0  0  0  0  0  0  0  0  0
  2  1  1  6
  2  4  1  0
  3  2  1  0
  4  5  2  0
  6  7  1  0
  8  7  1  1
  8 10  1  0
  9  8  1  0
  9  4  1  0
 10 11  2  0
 10 18  1  0
 12 13  1  0
 13 15  1  0
 13 14  2  0
 15 16  1  0
 17 16  1  6
 17 19  1  0
 18 17  1  0
 19 20  2  0
 19 21  1  0
M  END
$$$$
