ASQ.pdb
     RDKit          3D

 21 20  0  0  1  0  0  0  0  0999 V2000
   10.7552  -20.0377   17.9618 C   0  0  0  0  0  0  0  0  0  0  0  0
    9.9034  -18.7885   18.0316 C   0  0  2  0  0  0  0  0  0  0  0  0
    9.9050  -18.0840   16.7657 N   0  0  0  0  0  0  0  0  0  0  0  0
   10.5116  -17.8961   19.0504 C   0  0  0  0  0  0  0  0  0  0  0  0
   11.6607  -17.4558   18.9356 O   0  0  0  0  0  0  0  0  0  0  0  0
    9.2482  -15.5128   23.1173 O   0  0  0  0  0  0  0  0  0  0  0  0
    8.9110  -16.3329   22.0415 C   0  0  0  0  0  0  0  0  0  0  0  0
   10.1598  -16.6229   21.1992 C   0  0  2  0  0  0  0  0  0  0  0  0
    9.7340  -17.5538   20.1761 N   0  0  0  0  0  0  0  0  0  0  0  0
   11.1979  -17.3036   22.0069 C   0  0  0  0  0  0  0  0  0  0  0  0
   11.1123  -18.5511   22.2183 O   0  0  0  0  0  0  0  0  0  0  0  0
   17.0733  -15.4404   23.1463 N   0  0  0  0  0  0  0  0  0  0  0  0
   16.8587  -16.3985   24.1935 C   0  0  0  0  0  0  0  0  0  0  0  0
   17.7449  -16.4968   25.0733 O   0  0  0  0  0  0  0  0  0  0  0  0
   15.6159  -17.2283   24.2020 C   0  0  0  0  0  0  0  0  0  0  0  0
   14.6012  -16.5083   23.3460 C   0  0  0  0  0  0  0  0  0  0  0  0
   13.2571  -17.1951   23.3549 C   0  0  2  0  0  0  0  0  0  0  0  0
   12.2867  -16.5400   22.5388 N   0  0  0  0  0  0  0  0  0  0  0  0
   12.8264  -17.2454   24.7955 C   0  0  0  0  0  0  0  0  0  0  0  0
   12.0323  -16.3594   25.1949 O   0  0  0  0  0  0  0  0  0  0  0  0
   13.2512  -18.1951   25.6785 O   0  0  0  0  0  0  0  0  0  0  0  0
  2  1  1  6
  2  4  1  0
  3  2  1  0
  4  5  2  0
  6  7  1  0
  8  7  1  1
  8 10  1  0
  9  8  1  0
  9  4  1  0
 10 11  2  0
 10 18  1  0
 12 13  1  0
 13 15  1  0
 13 14  2  0
 15 16  1  0
 17 16  1  1
 17 19  1  0
 18 17  1  0
 19 20  2  0
 19 21  1  0
M  END
$$$$
