ASQ.pdb
     RDKit          3D

 21 20  0  0  1  0  0  0  0  0999 V2000
   13.9690  -22.0790   14.3696 C   0  0  0  0  0  0  0  0  0  0  0  0
   13.1487  -21.0967   13.5614 C   0  0  2  0  0  0  0  0  0  0  0  0
   13.9939  -20.2945   12.7006 N   0  0  0  0  0  0  0  0  0  0  0  0
   12.4805  -20.1838   14.5228 C   0  0  0  0  0  0  0  0  0  0  0  0
   13.0243  -19.1542   14.9371 O   0  0  0  0  0  0  0  0  0  0  0  0
    8.8486  -21.4487   16.2619 O   0  0  0  0  0  0  0  0  0  0  0  0
    8.9225  -20.2121   15.6226 C   0  0  0  0  0  0  0  0  0  0  0  0
   10.3429  -19.6469   15.7495 C   0  0  2  0  0  0  0  0  0  0  0  0
   11.1843  -20.5233   14.9631 N   0  0  0  0  0  0  0  0  0  0  0  0
   10.8201  -19.7209   17.1496 C   0  0  0  0  0  0  0  0  0  0  0  0
   10.3416  -18.9318   18.0194 O   0  0  0  0  0  0  0  0  0  0  0  0
   11.2079  -23.9573   22.4568 N   0  0  0  0  0  0  0  0  0  0  0  0
   12.0176  -23.7162   21.2962 C   0  0  0  0  0  0  0  0  0  0  0  0
   12.4399  -24.7166   20.6719 O   0  0  0  0  0  0  0  0  0  0  0  0
   12.3243  -22.3144   20.8790 C   0  0  0  0  0  0  0  0  0  0  0  0
   11.8332  -22.1614   19.4590 C   0  0  0  0  0  0  0  0  0  0  0  0
   12.1983  -20.8203   18.8704 C   0  0  2  0  0  0  0  0  0  0  0  0
   11.8182  -20.6860   17.5013 N   0  0  0  0  0  0  0  0  0  0  0  0
   13.6856  -20.6800   19.0487 C   0  0  0  0  0  0  0  0  0  0  0  0
   14.4176  -20.9787   18.0739 O   0  0  0  0  0  0  0  0  0  0  0  0
   14.2709  -20.2492   20.2037 O   0  0  0  0  0  0  0  0  0  0  0  0
  2  1  1  1
  2  4  1  0
  3  2  1  0
  4  5  2  0
  6  7  1  0
  8  7  1  1
  8 10  1  0
  9  8  1  0
  9  4  1  0
 10 11  2  0
 10 18  1  0
 12 13  1  0
 13 15  1  0
 13 14  2  0
 15 16  1  0
 17 16  1  6
 17 19  1  0
 18 17  1  0
 19 20  2  0
 19 21  1  0
M  END
$$$$
