ASQ.pdb
     RDKit          3D

 21 20  0  0  1  0  0  0  0  0999 V2000
    7.2528  -11.3850   26.1723 C   0  0  0  0  0  0  0  0  0  0  0  0
    6.2111  -12.3668   25.6805 C   0  0  2  0  0  0  0  0  0  0  0  0
    5.2028  -12.6089   26.6922 N   0  0  0  0  0  0  0  0  0  0  0  0
    6.9065  -13.6512   25.4138 C   0  0  0  0  0  0  0  0  0  0  0  0
    7.1741  -14.4526   26.3157 O   0  0  0  0  0  0  0  0  0  0  0  0
    8.5314  -14.1679   21.5850 O   0  0  0  0  0  0  0  0  0  0  0  0
    7.7881  -15.2091   22.1390 C   0  0  0  0  0  0  0  0  0  0  0  0
    7.9053  -15.1734   23.6680 C   0  0  2  0  0  0  0  0  0  0  0  0
    7.2629  -13.9440   24.0809 N   0  0  0  0  0  0  0  0  0  0  0  0
    9.3227  -15.0906   24.0895 C   0  0  0  0  0  0  0  0  0  0  0  0
    9.9973  -14.0497   23.8255 O   0  0  0  0  0  0  0  0  0  0  0  0
   11.5557  -16.4994   29.1322 N   0  0  0  0  0  0  0  0  0  0  0  0
   10.7920  -15.3719   28.6780 C   0  0  0  0  0  0  0  0  0  0  0  0
   10.2234  -14.6741   29.5491 O   0  0  0  0  0  0  0  0  0  0  0  0
   10.7009  -15.0728   27.2167 C   0  0  0  0  0  0  0  0  0  0  0  0
   11.6467  -16.0182   26.5150 C   0  0  0  0  0  0  0  0  0  0  0  0
   11.3154  -16.1743   25.0507 C   0  0  2  0  0  0  0  0  0  0  0  0
    9.9120  -16.1912   24.7914 N   0  0  0  0  0  0  0  0  0  0  0  0
   11.9757  -17.4522   24.6098 C   0  0  0  0  0  0  0  0  0  0  0  0
   13.2282  -17.5077   24.6668 O   0  0  0  0  0  0  0  0  0  0  0  0
   11.2884  -18.5406   24.1567 O   0  0  0  0  0  0  0  0  0  0  0  0
  2  1  1  1
  2  4  1  0
  3  2  1  0
  4  5  2  0
  6  7  1  0
  8  7  1  6
  8 10  1  0
  9  8  1  0
  9  4  1  0
 10 11  2  0
 10 18  1  0
 12 13  1  0
 13 15  1  0
 13 14  2  0
 15 16  1  0
 17 16  1  1
 17 19  1  0
 18 17  1  0
 19 20  2  0
 19 21  1  0
M  END
$$$$
