ASQ.pdb
     RDKit          3D

 21 20  0  0  1  0  0  0  0  0999 V2000
    9.4981  -16.6759   17.2116 C   0  0  0  0  0  0  0  0  0  0  0  0
    8.7260  -17.0996   18.4427 C   0  0  2  0  0  0  0  0  0  0  0  0
    7.3064  -16.8635   18.2757 N   0  0  0  0  0  0  0  0  0  0  0  0
    9.1982  -16.2580   19.5709 C   0  0  0  0  0  0  0  0  0  0  0  0
   10.3369  -15.7785   19.6007 O   0  0  0  0  0  0  0  0  0  0  0  0
    6.4918  -15.7862   22.7295 O   0  0  0  0  0  0  0  0  0  0  0  0
    7.2931  -14.7117   22.3460 C   0  0  0  0  0  0  0  0  0  0  0  0
    8.6309  -15.2303   21.8035 C   0  0  2  0  0  0  0  0  0  0  0  0
    8.3010  -16.0117   20.6309 N   0  0  0  0  0  0  0  0  0  0  0  0
    9.2774  -16.1450   22.7724 C   0  0  0  0  0  0  0  0  0  0  0  0
    9.0734  -17.3939   22.6904 O   0  0  0  0  0  0  0  0  0  0  0  0
   15.7230  -17.6558   24.2803 N   0  0  0  0  0  0  0  0  0  0  0  0
   14.5957  -16.8477   23.9103 C   0  0  0  0  0  0  0  0  0  0  0  0
   14.8332  -15.7264   23.4050 O   0  0  0  0  0  0  0  0  0  0  0  0
   13.2083  -17.3560   24.1336 C   0  0  0  0  0  0  0  0  0  0  0  0
   12.3753  -16.1778   24.5793 C   0  0  0  0  0  0  0  0  0  0  0  0
   10.8996  -16.4950   24.5932 C   0  0  2  0  0  0  0  0  0  0  0  0
   10.1262  -15.6032   23.7909 N   0  0  0  0  0  0  0  0  0  0  0  0
   10.4787  -16.4479   26.0368 C   0  0  0  0  0  0  0  0  0  0  0  0
    9.6734  -15.5474   26.3773 O   0  0  0  0  0  0  0  0  0  0  0  0
   10.9237  -17.3250   26.9827 O   0  0  0  0  0  0  0  0  0  0  0  0
  2  1  1  6
  2  4  1  0
  3  2  1  0
  4  5  2  0
  6  7  1  0
  8  7  1  1
  8 10  1  0
  9  8  1  0
  9  4  1  0
 10 11  2  0
 10 18  1  0
 12 13  1  0
 13 15  1  0
 13 14  2  0
 15 16  1  0
 17 16  1  1
 17 19  1  0
 18 17  1  0
 19 20  2  0
 19 21  1  0
M  END
$$$$
