ASQ.pdb
     RDKit          3D

 21 20  0  0  1  0  0  0  0  0999 V2000
    5.7666  -20.4563   21.7205 C   0  0  0  0  0  0  0  0  0  0  0  0
    6.0419  -18.9870   21.4838 C   0  0  2  0  0  0  0  0  0  0  0  0
    6.5726  -18.7626   20.1545 N   0  0  0  0  0  0  0  0  0  0  0  0
    7.0756  -18.5683   22.4637 C   0  0  0  0  0  0  0  0  0  0  0  0
    8.2841  -18.6928   22.2369 O   0  0  0  0  0  0  0  0  0  0  0  0
    5.4918  -16.7317   25.7091 O   0  0  0  0  0  0  0  0  0  0  0  0
    6.7641  -16.3045   25.3320 C   0  0  0  0  0  0  0  0  0  0  0  0
    7.5307  -17.4657   24.6863 C   0  0  2  0  0  0  0  0  0  0  0  0
    6.6405  -18.0134   23.6852 N   0  0  0  0  0  0  0  0  0  0  0  0
    7.7960  -18.5392   25.6716 C   0  0  0  0  0  0  0  0  0  0  0  0
    6.9074  -19.4139   25.9027 O   0  0  0  0  0  0  0  0  0  0  0  0
   10.9030  -23.3042   26.7816 N   0  0  0  0  0  0  0  0  0  0  0  0
   11.9010  -22.3306   27.1233 C   0  0  0  0  0  0  0  0  0  0  0  0
   13.0531  -22.7524   27.3757 O   0  0  0  0  0  0  0  0  0  0  0  0
   11.5439  -20.8801   27.1665 C   0  0  0  0  0  0  0  0  0  0  0  0
   10.1731  -20.7467   26.5469 C   0  0  0  0  0  0  0  0  0  0  0  0
    9.3480  -19.6724   27.2130 C   0  0  2  0  0  0  0  0  0  0  0  0
    9.0565  -18.5731   26.3508 N   0  0  0  0  0  0  0  0  0  0  0  0
   10.1318  -19.2365   28.4209 C   0  0  0  0  0  0  0  0  0  0  0  0
   10.1906  -20.0298   29.3917 O   0  0  0  0  0  0  0  0  0  0  0  0
   10.7739  -18.0358   28.5121 O   0  0  0  0  0  0  0  0  0  0  0  0
  2  1  1  6
  2  4  1  0
  3  2  1  0
  4  5  2  0
  6  7  1  0
  8  7  1  1
  8 10  1  0
  9  8  1  0
  9  4  1  0
 10 11  2  0
 10 18  1  0
 12 13  1  0
 13 15  1  0
 13 14  2  0
 15 16  1  0
 17 16  1  6
 17 19  1  0
 18 17  1  0
 19 20  2  0
 19 21  1  0
M  END
$$$$
