ASQ.pdb
     RDKit          3D

 21 20  0  0  1  0  0  0  0  0999 V2000
    9.4566  -18.0490   18.2491 C   0  0  0  0  0  0  0  0  0  0  0  0
   10.1367  -16.7010   18.1428 C   0  0  2  0  0  0  0  0  0  0  0  0
   11.3672  -16.7952   17.3841 N   0  0  0  0  0  0  0  0  0  0  0  0
   10.4831  -16.2717   19.5212 C   0  0  0  0  0  0  0  0  0  0  0  0
   11.5834  -16.5163   20.0281 O   0  0  0  0  0  0  0  0  0  0  0  0
    7.3556  -14.7304   21.9519 O   0  0  0  0  0  0  0  0  0  0  0  0
    8.5859  -14.0801   21.8665 C   0  0  0  0  0  0  0  0  0  0  0  0
    9.6983  -15.1061   21.6160 C   0  0  2  0  0  0  0  0  0  0  0  0
    9.5095  -15.5636   20.2560 N   0  0  0  0  0  0  0  0  0  0  0  0
    9.5427  -16.2839   22.5004 C   0  0  0  0  0  0  0  0  0  0  0  0
    8.6370  -17.1375   22.2569 O   0  0  0  0  0  0  0  0  0  0  0  0
   14.2502  -18.8438   22.3791 N   0  0  0  0  0  0  0  0  0  0  0  0
   13.4565  -19.1986   23.5215 C   0  0  0  0  0  0  0  0  0  0  0  0
   13.4800  -20.3961   23.8882 O   0  0  0  0  0  0  0  0  0  0  0  0
   12.6470  -18.1550   24.2204 C   0  0  0  0  0  0  0  0  0  0  0  0
   11.2259  -18.6632   24.2727 C   0  0  0  0  0  0  0  0  0  0  0  0
   10.2301  -17.5514   24.4978 C   0  0  2  0  0  0  0  0  0  0  0  0
   10.4204  -16.4414   23.6211 N   0  0  0  0  0  0  0  0  0  0  0  0
   10.3761  -17.1495   25.9403 C   0  0  0  0  0  0  0  0  0  0  0  0
   10.2000  -18.0366   26.8104 O   0  0  0  0  0  0  0  0  0  0  0  0
   10.6868  -15.8836   26.3442 O   0  0  0  0  0  0  0  0  0  0  0  0
  2  1  1  1
  2  4  1  0
  3  2  1  0
  4  5  2  0
  6  7  1  0
  8  7  1  1
  8 10  1  0
  9  8  1  0
  9  4  1  0
 10 11  2  0
 10 18  1  0
 12 13  1  0
 13 15  1  0
 13 14  2  0
 15 16  1  0
 17 16  1  6
 17 19  1  0
 18 17  1  0
 19 20  2  0
 19 21  1  0
M  END
$$$$
