ASQ.pdb
     RDKit          3D

 21 20  0  0  1  0  0  0  0  0999 V2000
    8.0432  -16.5699   14.5989 C   0  0  0  0  0  0  0  0  0  0  0  0
    7.6677  -15.1063   14.6864 C   0  0  2  0  0  0  0  0  0  0  0  0
    7.8750  -14.4373   13.4181 N   0  0  0  0  0  0  0  0  0  0  0  0
    8.5690  -14.4785   15.6853 C   0  0  0  0  0  0  0  0  0  0  0  0
    9.7581  -14.2456   15.4420 O   0  0  0  0  0  0  0  0  0  0  0  0
    7.1684  -14.2404   19.6221 O   0  0  0  0  0  0  0  0  0  0  0  0
    7.7477  -13.1029   19.0615 C   0  0  0  0  0  0  0  0  0  0  0  0
    8.7823  -13.5144   18.0064 C   0  0  2  0  0  0  0  0  0  0  0  0
    8.0283  -14.1463   16.9448 N   0  0  0  0  0  0  0  0  0  0  0  0
    9.7153  -14.5300   18.5461 C   0  0  0  0  0  0  0  0  0  0  0  0
    9.5317  -15.7564   18.2807 O   0  0  0  0  0  0  0  0  0  0  0  0
   15.7124  -13.7781   18.9675 N   0  0  0  0  0  0  0  0  0  0  0  0
   15.5875  -14.9449   19.7944 C   0  0  0  0  0  0  0  0  0  0  0  0
   16.6339  -15.3950   20.3154 O   0  0  0  0  0  0  0  0  0  0  0  0
   14.2468  -15.5711   20.0030 C   0  0  0  0  0  0  0  0  0  0  0  0
   13.2147  -14.5355   19.6248 C   0  0  0  0  0  0  0  0  0  0  0  0
   11.8063  -15.0677   19.7328 C   0  0  2  0  0  0  0  0  0  0  0  0
   10.8146  -14.1102   19.3626 N   0  0  0  0  0  0  0  0  0  0  0  0
   11.6397  -15.5143   21.1597 C   0  0  0  0  0  0  0  0  0  0  0  0
   10.9449  -14.7930   21.9161 O   0  0  0  0  0  0  0  0  0  0  0  0
   12.1999  -16.6510   21.6660 O   0  0  0  0  0  0  0  0  0  0  0  0
  2  1  1  6
  2  4  1  0
  3  2  1  0
  4  5  2  0
  6  7  1  0
  8  7  1  1
  8 10  1  0
  9  8  1  0
  9  4  1  0
 10 11  2  0
 10 18  1  0
 12 13  1  0
 13 15  1  0
 13 14  2  0
 15 16  1  0
 17 16  1  1
 17 19  1  0
 18 17  1  0
 19 20  2  0
 19 21  1  0
M  END
$$$$
