ASQ.pdb
     RDKit          3D

 21 20  0  0  1  0  0  0  0  0999 V2000
    8.7715  -12.0132   20.3334 C   0  0  0  0  0  0  0  0  0  0  0  0
    8.5025  -13.2952   19.5751 C   0  0  2  0  0  0  0  0  0  0  0  0
    7.2995  -13.1863   18.7754 N   0  0  0  0  0  0  0  0  0  0  0  0
    8.2856  -14.3656   20.5809 C   0  0  0  0  0  0  0  0  0  0  0  0
    7.2029  -14.5149   21.1577 O   0  0  0  0  0  0  0  0  0  0  0  0
    9.8140  -18.6724   21.8640 O   0  0  0  0  0  0  0  0  0  0  0  0
    9.8144  -17.5549   21.0305 C   0  0  0  0  0  0  0  0  0  0  0  0
    9.2860  -16.3359   21.7973 C   0  0  2  0  0  0  0  0  0  0  0  0
    9.3642  -15.2269   20.8707 N   0  0  0  0  0  0  0  0  0  0  0  0
   10.1629  -16.0106   22.9456 C   0  0  0  0  0  0  0  0  0  0  0  0
   11.2814  -15.4484   22.7430 O   0  0  0  0  0  0  0  0  0  0  0  0
    8.6238  -13.9170   28.3770 N   0  0  0  0  0  0  0  0  0  0  0  0
   10.0021  -14.2190   28.6412 C   0  0  0  0  0  0  0  0  0  0  0  0
   10.4692  -13.8546   29.7449 O   0  0  0  0  0  0  0  0  0  0  0  0
   10.8170  -14.9406   27.6174 C   0  0  0  0  0  0  0  0  0  0  0  0
    9.8741  -15.3404   26.5075 C   0  0  0  0  0  0  0  0  0  0  0  0
   10.5896  -16.0309   25.3719 C   0  0  2  0  0  0  0  0  0  0  0  0
    9.7328  -16.3370   24.2722 N   0  0  0  0  0  0  0  0  0  0  0  0
   11.2006  -17.2732   25.9606 C   0  0  0  0  0  0  0  0  0  0  0  0
   10.5345  -18.3349   25.8942 O   0  0  0  0  0  0  0  0  0  0  0  0
   12.4281  -17.3024   26.5560 O   0  0  0  0  0  0  0  0  0  0  0  0
  2  1  1  1
  2  4  1  0
  3  2  1  0
  4  5  2  0
  6  7  1  0
  8  7  1  6
  8 10  1  0
  9  8  1  0
  9  4  1  0
 10 11  2  0
 10 18  1  0
 12 13  1  0
 13 15  1  0
 13 14  2  0
 15 16  1  0
 17 16  1  1
 17 19  1  0
 18 17  1  0
 19 20  2  0
 19 21  1  0
M  END
$$$$
