ASQ.pdb
     RDKit          3D

 21 20  0  0  1  0  0  0  0  0999 V2000
    8.0171  -16.4935   14.6448 C   0  0  0  0  0  0  0  0  0  0  0  0
    7.8891  -14.9855   14.6222 C   0  0  2  0  0  0  0  0  0  0  0  0
    8.4103  -14.4356   13.3873 N   0  0  0  0  0  0  0  0  0  0  0  0
    8.7112  -14.4561   15.7394 C   0  0  0  0  0  0  0  0  0  0  0  0
    9.9330  -14.3001   15.6390 O   0  0  0  0  0  0  0  0  0  0  0  0
    7.0630  -14.3060   19.6202 O   0  0  0  0  0  0  0  0  0  0  0  0
    7.5807  -13.1422   19.0535 C   0  0  0  0  0  0  0  0  0  0  0  0
    8.7052  -13.4988   18.0731 C   0  0  2  0  0  0  0  0  0  0  0  0
    8.0546  -14.1279   16.9437 N   0  0  0  0  0  0  0  0  0  0  0  0
    9.6252  -14.4988   18.6621 C   0  0  0  0  0  0  0  0  0  0  0  0
    9.4288  -15.7340   18.4524 O   0  0  0  0  0  0  0  0  0  0  0  0
   16.7491  -15.5387   19.6870 N   0  0  0  0  0  0  0  0  0  0  0  0
   15.5206  -14.8565   19.3932 C   0  0  0  0  0  0  0  0  0  0  0  0
   15.6037  -13.7321   18.8476 O   0  0  0  0  0  0  0  0  0  0  0  0
   14.2133  -15.4927   19.7385 C   0  0  0  0  0  0  0  0  0  0  0  0
   13.1459  -14.4454   19.5277 C   0  0  0  0  0  0  0  0  0  0  0  0
   11.7600  -14.9815   19.7929 C   0  0  2  0  0  0  0  0  0  0  0  0
   10.7266  -14.0542   19.4624 N   0  0  0  0  0  0  0  0  0  0  0  0
   11.7293  -15.3485   21.2516 C   0  0  0  0  0  0  0  0  0  0  0  0
   12.4990  -16.2622   21.6364 O   0  0  0  0  0  0  0  0  0  0  0  0
   10.9159  -14.7445   22.1658 O   0  0  0  0  0  0  0  0  0  0  0  0
  2  1  1  6
  2  4  1  0
  3  2  1  0
  4  5  2  0
  6  7  1  0
  8  7  1  1
  8 10  1  0
  9  8  1  0
  9  4  1  0
 10 11  2  0
 10 18  1  0
 12 13  1  0
 13 15  1  0
 13 14  2  0
 15 16  1  0
 17 16  1  1
 17 19  1  0
 18 17  1  0
 19 20  2  0
 19 21  1  0
M  END
$$$$
