ASQ.pdb
     RDKit          3D

 21 20  0  0  1  0  0  0  0  0999 V2000
    7.5524  -18.7151   19.9001 C   0  0  0  0  0  0  0  0  0  0  0  0
    8.0790  -17.3419   19.5425 C   0  0  2  0  0  0  0  0  0  0  0  0
    8.9944  -17.4092   18.4216 N   0  0  0  0  0  0  0  0  0  0  0  0
    8.8341  -16.8390   20.7178 C   0  0  0  0  0  0  0  0  0  0  0  0
   10.0334  -17.0874   20.8830 O   0  0  0  0  0  0  0  0  0  0  0  0
    8.3253  -13.7374   24.4287 O   0  0  0  0  0  0  0  0  0  0  0  0
    7.8330  -14.3284   23.2660 C   0  0  0  0  0  0  0  0  0  0  0  0
    8.7498  -15.4833   22.8432 C   0  0  2  0  0  0  0  0  0  0  0  0
    8.1392  -16.0551   21.6622 N   0  0  0  0  0  0  0  0  0  0  0  0
    8.7801  -16.5425   23.8778 C   0  0  0  0  0  0  0  0  0  0  0  0
    7.7627  -17.2790   24.0535 O   0  0  0  0  0  0  0  0  0  0  0  0
   11.5653  -21.8484   24.2209 N   0  0  0  0  0  0  0  0  0  0  0  0
   11.8448  -20.4626   23.9716 C   0  0  0  0  0  0  0  0  0  0  0  0
   13.0134  -20.1635   23.6340 O   0  0  0  0  0  0  0  0  0  0  0  0
   10.7605  -19.4449   24.1186 C   0  0  0  0  0  0  0  0  0  0  0  0
   10.9263  -18.8204   25.4836 C   0  0  0  0  0  0  0  0  0  0  0  0
    9.9550  -17.6885   25.7151 C   0  0  2  0  0  0  0  0  0  0  0  0
    9.9621  -16.7197   24.6670 N   0  0  0  0  0  0  0  0  0  0  0  0
   10.3364  -17.0782   27.0362 C   0  0  0  0  0  0  0  0  0  0  0  0
   10.6674  -15.8675   27.0421 O   0  0  0  0  0  0  0  0  0  0  0  0
   10.3402  -17.7673   28.2140 O   0  0  0  0  0  0  0  0  0  0  0  0
  2  1  1  1
  2  4  1  0
  3  2  1  0
  4  5  2  0
  6  7  1  0
  8  7  1  1
  8 10  1  0
  9  8  1  0
  9  4  1  0
 10 11  2  0
 10 18  1  0
 12 13  1  0
 13 15  1  0
 13 14  2  0
 15 16  1  0
 17 16  1  6
 17 19  1  0
 18 17  1  0
 19 20  2  0
 19 21  1  0
M  END
$$$$
