EQG.pdb
     RDKit          3D

 23 22  0  0  1  0  0  0  0  0999 V2000
    4.8801  -19.4179   17.8702 N   0  0  0  0  0  0  0  0  0  0  0  0
    4.1795  -20.6419   17.6578 C   0  0  1  0  0  0  0  0  0  0  0  0
    3.3255  -20.5730   16.4168 C   0  0  0  0  0  0  0  0  0  0  0  0
    3.7358  -19.4225   15.5208 C   0  0  0  0  0  0  0  0  0  0  0  0
    2.9322  -19.4467   14.2746 C   0  0  0  0  0  0  0  0  0  0  0  0
    2.0681  -20.3289   14.1298 O   0  0  0  0  0  0  0  0  0  0  0  0
    5.0853  -21.8263   17.6429 C   0  0  0  0  0  0  0  0  0  0  0  0
    4.6036  -22.9774   17.7553 O   0  0  0  0  0  0  0  0  0  0  0  0
    3.1309  -18.5024   13.2729 O   0  0  0  0  0  0  0  0  0  0  0  0
    6.4303  -22.2943   13.0788 N   0  0  0  0  0  0  0  0  0  0  0  0
    7.5047  -23.0263   13.6560 C   0  0  0  0  0  0  0  0  0  0  0  0
    8.5706  -23.1908   13.0119 O   0  0  0  0  0  0  0  0  0  0  0  0
    7.2900  -23.5657   15.0252 C   0  0  0  0  0  0  0  0  0  0  0  0
    7.9828  -22.7909   16.0809 C   0  0  0  0  0  0  0  0  0  0  0  0
    7.3917  -22.8413   17.4595 C   0  0  2  0  0  0  0  0  0  0  0  0
    6.4783  -21.6781   17.5045 N   0  0  0  0  0  0  0  0  0  0  0  0
    8.3520  -22.6412   18.5554 C   0  0  0  0  0  0  0  0  0  0  0  0
    9.5766  -22.7280   18.3251 O   0  0  0  0  0  0  0  0  0  0  0  0
    7.9047  -22.3503   19.8614 N   0  0  0  0  0  0  0  0  0  0  0  0
    8.9274  -22.1213   20.8833 C   0  0  0  0  0  0  0  0  0  0  0  0
    8.3146  -21.7347   22.1646 C   0  0  0  0  0  0  0  0  0  0  0  0
    7.0750  -21.6163   22.2532 O   0  0  0  0  0  0  0  0  0  0  0  0
    9.0615  -21.4925   23.2941 O   0  0  0  0  0  0  0  0  0  0  0  0
  2  1  1  6
  2  3  1  0
  3  4  1  0
  4  5  1  0
  5  6  2  0
  5  9  1  0
  7  8  2  0
  7  2  1  0
 10 11  1  0
 11 12  2  0
 11 13  1  0
 13 14  1  0
 15 14  1  6
 15 16  1  0
 16  7  1  0
 17 19  1  0
 17 15  1  0
 18 17  2  0
 20 19  1  0
 21 20  1  0
 22 21  2  0
 23 21  1  0
M  END
$$$$
