EQG.pdb
     RDKit          3D

 23 22  0  0  1  0  0  0  0  0999 V2000
   11.2479  -18.5741   17.5565 N   0  0  0  0  0  0  0  0  0  0  0  0
   10.5181  -18.4882   18.7789 C   0  0  1  0  0  0  0  0  0  0  0  0
   10.6682  -19.7485   19.5932 C   0  0  0  0  0  0  0  0  0  0  0  0
   12.1103  -20.2095   19.6464 C   0  0  0  0  0  0  0  0  0  0  0  0
   12.2021  -21.4815   20.4034 C   0  0  0  0  0  0  0  0  0  0  0  0
   12.3189  -22.5498   19.7781 O   0  0  0  0  0  0  0  0  0  0  0  0
   10.8644  -17.2722   19.5695 C   0  0  0  0  0  0  0  0  0  0  0  0
   11.9485  -16.6815   19.3565 O   0  0  0  0  0  0  0  0  0  0  0  0
   12.1595  -21.4951   21.7936 O   0  0  0  0  0  0  0  0  0  0  0  0
    6.6910  -13.3819   20.2482 N   0  0  0  0  0  0  0  0  0  0  0  0
    7.6901  -13.3472   19.2364 C   0  0  0  0  0  0  0  0  0  0  0  0
    7.4629  -12.7611   18.1487 O   0  0  0  0  0  0  0  0  0  0  0  0
    8.9771  -14.0275   19.5406 C   0  0  0  0  0  0  0  0  0  0  0  0
    9.0088  -14.6606   20.8796 C   0  0  0  0  0  0  0  0  0  0  0  0
   10.2262  -15.4693   21.2204 C   0  0  2  0  0  0  0  0  0  0  0  0
    9.9942  -16.7707   20.5558 N   0  0  0  0  0  0  0  0  0  0  0  0
   10.3916  -15.7716   22.6502 C   0  0  0  0  0  0  0  0  0  0  0  0
   10.5210  -14.8356   23.4670 O   0  0  0  0  0  0  0  0  0  0  0  0
   10.4030  -17.1061   23.1080 N   0  0  0  0  0  0  0  0  0  0  0  0
   10.5922  -17.3191   24.5438 C   0  0  0  0  0  0  0  0  0  0  0  0
   11.9402  -17.8388   24.8261 C   0  0  0  0  0  0  0  0  0  0  0  0
   12.2535  -18.1618   25.9906 O   0  0  0  0  0  0  0  0  0  0  0  0
   12.8918  -17.9882   23.8441 O   0  0  0  0  0  0  0  0  0  0  0  0
  2  1  1  6
  2  3  1  0
  3  4  1  0
  4  5  1  0
  5  6  2  0
  5  9  1  0
  7  8  2  0
  7  2  1  0
 10 11  1  0
 11 12  2  0
 11 13  1  0
 13 14  1  0
 15 14  1  1
 15 16  1  0
 16  7  1  0
 17 19  1  0
 17 15  1  0
 18 17  2  0
 20 19  1  0
 21 20  1  0
 22 21  2  0
 23 21  1  0
M  END
$$$$
