EQG.pdb
     RDKit          3D

 23 22  0  0  1  0  0  0  0  0999 V2000
    7.6336  -13.9474   20.2492 N   0  0  0  0  0  0  0  0  0  0  0  0
    7.4422  -14.6966   21.4476 C   0  0  1  0  0  0  0  0  0  0  0  0
    7.5297  -16.1788   21.1838 C   0  0  0  0  0  0  0  0  0  0  0  0
    8.6712  -16.5115   20.2450 C   0  0  0  0  0  0  0  0  0  0  0  0
    8.6565  -17.9612   19.9325 C   0  0  0  0  0  0  0  0  0  0  0  0
    9.4043  -18.7242   20.5685 O   0  0  0  0  0  0  0  0  0  0  0  0
    8.3616  -14.2726   22.5423 C   0  0  0  0  0  0  0  0  0  0  0  0
    9.4460  -13.7124   22.2599 O   0  0  0  0  0  0  0  0  0  0  0  0
    7.8232  -18.4749   18.9444 O   0  0  0  0  0  0  0  0  0  0  0  0
    5.9430  -10.6851   27.1612 N   0  0  0  0  0  0  0  0  0  0  0  0
    5.9678  -12.0492   26.7588 C   0  0  0  0  0  0  0  0  0  0  0  0
    5.2119  -12.8829   27.3170 O   0  0  0  0  0  0  0  0  0  0  0  0
    6.9154  -12.4107   25.6712 C   0  0  0  0  0  0  0  0  0  0  0  0
    7.8278  -13.5222   26.0275 C   0  0  0  0  0  0  0  0  0  0  0  0
    8.8430  -13.9247   24.9981 C   0  0  2  0  0  0  0  0  0  0  0  0
    8.0354  -14.4895   23.8944 N   0  0  0  0  0  0  0  0  0  0  0  0
    9.7598  -14.9966   25.4149 C   0  0  0  0  0  0  0  0  0  0  0  0
   10.3592  -14.9047   26.5068 O   0  0  0  0  0  0  0  0  0  0  0  0
    9.9667  -16.1268   24.5962 N   0  0  0  0  0  0  0  0  0  0  0  0
   10.9032  -17.1417   25.0814 C   0  0  0  0  0  0  0  0  0  0  0  0
   10.9367  -18.3029   24.1772 C   0  0  0  0  0  0  0  0  0  0  0  0
   10.3944  -18.2358   23.0547 O   0  0  0  0  0  0  0  0  0  0  0  0
   11.5515  -19.4847   24.5198 O   0  0  0  0  0  0  0  0  0  0  0  0
  2  1  1  6
  2  3  1  0
  3  4  1  0
  4  5  1  0
  5  6  2  0
  5  9  1  0
  7  8  2  0
  7  2  1  0
 10 11  1  0
 11 12  2  0
 11 13  1  0
 13 14  1  0
 15 14  1  1
 15 16  1  0
 16  7  1  0
 17 19  1  0
 17 15  1  0
 18 17  2  0
 20 19  1  0
 21 20  1  0
 22 21  2  0
 23 21  1  0
M  END
$$$$
