EQG.pdb
     RDKit          3D

 23 22  0  0  1  0  0  0  0  0999 V2000
   11.4998  -17.7536   16.3783 N   0  0  0  0  0  0  0  0  0  0  0  0
   10.6917  -17.8452   17.5499 C   0  0  1  0  0  0  0  0  0  0  0  0
   10.7445  -19.2312   18.1417 C   0  0  0  0  0  0  0  0  0  0  0  0
    9.4979  -20.0263   17.8115 C   0  0  0  0  0  0  0  0  0  0  0  0
    9.5690  -21.3601   18.4560 C   0  0  0  0  0  0  0  0  0  0  0  0
    9.4490  -21.4417   19.6909 O   0  0  0  0  0  0  0  0  0  0  0  0
   11.0229  -16.7982   18.5586 C   0  0  0  0  0  0  0  0  0  0  0  0
   12.0830  -16.1402   18.4449 O   0  0  0  0  0  0  0  0  0  0  0  0
    9.7668  -22.5125   17.7029 O   0  0  0  0  0  0  0  0  0  0  0  0
    7.2951  -11.6923   19.5662 N   0  0  0  0  0  0  0  0  0  0  0  0
    7.4082  -13.1083   19.6404 C   0  0  0  0  0  0  0  0  0  0  0  0
    6.3770  -13.8157   19.7589 O   0  0  0  0  0  0  0  0  0  0  0  0
    8.7810  -13.6762   19.5710 C   0  0  0  0  0  0  0  0  0  0  0  0
    9.0500  -14.7001   20.6073 C   0  0  0  0  0  0  0  0  0  0  0  0
   10.3833  -15.3868   20.5542 C   0  0  2  0  0  0  0  0  0  0  0  0
   10.1651  -16.5315   19.6425 N   0  0  0  0  0  0  0  0  0  0  0  0
   10.8347  -15.9675   21.8279 C   0  0  0  0  0  0  0  0  0  0  0  0
   11.0711  -15.2170   22.7979 O   0  0  0  0  0  0  0  0  0  0  0  0
   11.0008  -17.3618   21.9655 N   0  0  0  0  0  0  0  0  0  0  0  0
   11.3937  -17.8617   23.2840 C   0  0  0  0  0  0  0  0  0  0  0  0
   12.8442  -18.1055   23.3442 C   0  0  0  0  0  0  0  0  0  0  0  0
   13.5611  -17.8540   22.3536 O   0  0  0  0  0  0  0  0  0  0  0  0
   13.4597  -18.6089   24.4666 O   0  0  0  0  0  0  0  0  0  0  0  0
  2  1  1  6
  2  3  1  0
  3  4  1  0
  4  5  1  0
  5  6  2  0
  5  9  1  0
  7  8  2  0
  7  2  1  0
 10 11  1  0
 11 12  2  0
 11 13  1  0
 13 14  1  0
 15 14  1  1
 15 16  1  0
 16  7  1  0
 17 19  1  0
 17 15  1  0
 18 17  2  0
 20 19  1  0
 21 20  1  0
 22 21  2  0
 23 21  1  0
M  END
$$$$
