EQG.pdb
     RDKit          3D

 23 22  0  0  1  0  0  0  0  0999 V2000
    5.5367  -20.5904   20.2640 N   0  0  0  0  0  0  0  0  0  0  0  0
    6.5016  -20.8553   21.2803 C   0  0  1  0  0  0  0  0  0  0  0  0
    7.6996  -19.9495   21.1442 C   0  0  0  0  0  0  0  0  0  0  0  0
    8.2149  -19.9170   19.7200 C   0  0  0  0  0  0  0  0  0  0  0  0
    9.3324  -18.9479   19.6136 C   0  0  0  0  0  0  0  0  0  0  0  0
    9.8613  -18.7547   18.5050 O   0  0  0  0  0  0  0  0  0  0  0  0
    5.9192  -20.8028   22.6520 C   0  0  0  0  0  0  0  0  0  0  0  0
    5.1486  -19.8654   22.9635 O   0  0  0  0  0  0  0  0  0  0  0  0
    9.7933  -18.2571   20.7294 O   0  0  0  0  0  0  0  0  0  0  0  0
    1.4123  -23.8870   25.2236 N   0  0  0  0  0  0  0  0  0  0  0  0
    2.7799  -23.8986   25.6146 C   0  0  0  0  0  0  0  0  0  0  0  0
    3.0973  -24.2433   26.7802 O   0  0  0  0  0  0  0  0  0  0  0  0
    3.7749  -23.4895   24.5878 C   0  0  0  0  0  0  0  0  0  0  0  0
    5.1103  -23.1796   25.1493 C   0  0  0  0  0  0  0  0  0  0  0  0
    5.6178  -21.7797   24.9625 C   0  0  2  0  0  0  0  0  0  0  0  0
    6.2184  -21.7896   23.6103 N   0  0  0  0  0  0  0  0  0  0  0  0
    6.6973  -21.3822   25.8791 C   0  0  0  0  0  0  0  0  0  0  0  0
    6.4734  -21.3247   27.1065 O   0  0  0  0  0  0  0  0  0  0  0  0
    7.9816  -21.0681   25.3868 N   0  0  0  0  0  0  0  0  0  0  0  0
    8.9646  -20.5718   26.3511 C   0  0  0  0  0  0  0  0  0  0  0  0
    9.8805  -21.6455   26.7698 C   0  0  0  0  0  0  0  0  0  0  0  0
    9.7382  -22.7997   26.3158 O   0  0  0  0  0  0  0  0  0  0  0  0
   10.9087  -21.4309   27.6579 O   0  0  0  0  0  0  0  0  0  0  0  0
  2  1  1  6
  2  3  1  0
  3  4  1  0
  4  5  1  0
  5  6  2  0
  5  9  1  0
  7  8  2  0
  7  2  1  0
 10 11  1  0
 11 12  2  0
 11 13  1  0
 13 14  1  0
 15 14  1  1
 15 16  1  0
 16  7  1  0
 17 19  1  0
 17 15  1  0
 18 17  2  0
 20 19  1  0
 21 20  1  0
 22 21  2  0
 23 21  1  0
M  END
$$$$
