EQG.pdb
     RDKit          3D

 23 22  0  0  1  0  0  0  0  0999 V2000
    7.4399  -17.0647   22.3823 N   0  0  0  0  0  0  0  0  0  0  0  0
    8.5233  -16.3442   21.7981 C   0  0  1  0  0  0  0  0  0  0  0  0
    8.1267  -15.7429   20.4732 C   0  0  0  0  0  0  0  0  0  0  0  0
    9.0454  -16.1971   19.3575 C   0  0  0  0  0  0  0  0  0  0  0  0
    8.2710  -16.3506   18.1021 C   0  0  0  0  0  0  0  0  0  0  0  0
    7.5379  -17.3450   17.9620 O   0  0  0  0  0  0  0  0  0  0  0  0
    9.0975  -15.3235   22.7210 C   0  0  0  0  0  0  0  0  0  0  0  0
   10.1643  -14.7416   22.4164 O   0  0  0  0  0  0  0  0  0  0  0  0
    8.3534  -15.4038   17.0865 O   0  0  0  0  0  0  0  0  0  0  0  0
    6.2600  -11.0605   25.8906 N   0  0  0  0  0  0  0  0  0  0  0  0
    5.9202  -12.3581   26.3638 C   0  0  0  0  0  0  0  0  0  0  0  0
    4.8510  -12.5353   26.9991 O   0  0  0  0  0  0  0  0  0  0  0  0
    6.8813  -13.4535   26.0670 C   0  0  0  0  0  0  0  0  0  0  0  0
    7.9765  -13.0479   25.1555 C   0  0  0  0  0  0  0  0  0  0  0  0
    9.0609  -14.0550   24.9058 C   0  0  2  0  0  0  0  0  0  0  0  0
    8.4630  -14.9977   23.9346 N   0  0  0  0  0  0  0  0  0  0  0  0
    9.4374  -14.8657   26.0737 C   0  0  0  0  0  0  0  0  0  0  0  0
    9.8853  -14.3038   27.0953 O   0  0  0  0  0  0  0  0  0  0  0  0
    9.2957  -16.2692   26.0526 N   0  0  0  0  0  0  0  0  0  0  0  0
    9.6143  -16.9923   27.2848 C   0  0  0  0  0  0  0  0  0  0  0  0
   10.8786  -17.7339   27.1486 C   0  0  0  0  0  0  0  0  0  0  0  0
   11.5464  -17.6415   26.0979 O   0  0  0  0  0  0  0  0  0  0  0  0
   11.3690  -18.5419   28.1479 O   0  0  0  0  0  0  0  0  0  0  0  0
  2  1  1  1
  2  3  1  0
  3  4  1  0
  4  5  1  0
  5  6  2  0
  5  9  1  0
  7  8  2  0
  7  2  1  0
 10 11  1  0
 11 12  2  0
 11 13  1  0
 13 14  1  0
 15 14  1  1
 15 16  1  0
 16  7  1  0
 17 19  1  0
 17 15  1  0
 18 17  2  0
 20 19  1  0
 21 20  1  0
 22 21  2  0
 23 21  1  0
M  END
$$$$
