EQG.pdb
     RDKit          3D

 23 22  0  0  1  0  0  0  0  0999 V2000
    7.9104  -14.1268   19.3997 N   0  0  0  0  0  0  0  0  0  0  0  0
    7.3691  -14.8858   20.4791 C   0  0  1  0  0  0  0  0  0  0  0  0
    7.2610  -16.3461   20.1185 C   0  0  0  0  0  0  0  0  0  0  0  0
    7.4032  -16.5638   18.6260 C   0  0  0  0  0  0  0  0  0  0  0  0
    8.1348  -17.8285   18.3717 C   0  0  0  0  0  0  0  0  0  0  0  0
    9.2034  -17.7914   17.7371 O   0  0  0  0  0  0  0  0  0  0  0  0
    8.1153  -14.6829   21.7540 C   0  0  0  0  0  0  0  0  0  0  0  0
    9.3642  -14.5856   21.7334 O   0  0  0  0  0  0  0  0  0  0  0  0
    7.6450  -19.0468   18.8303 O   0  0  0  0  0  0  0  0  0  0  0  0
    5.3826  -11.7419   26.2252 N   0  0  0  0  0  0  0  0  0  0  0  0
    6.5628  -12.0224   26.9680 C   0  0  0  0  0  0  0  0  0  0  0  0
    6.7341  -11.4987   28.0969 O   0  0  0  0  0  0  0  0  0  0  0  0
    7.5467  -12.9448   26.3412 C   0  0  0  0  0  0  0  0  0  0  0  0
    7.1824  -13.3500   24.9636 C   0  0  0  0  0  0  0  0  0  0  0  0
    8.1443  -14.2487   24.2428 C   0  0  2  0  0  0  0  0  0  0  0  0
    7.4428  -14.5978   22.9878 N   0  0  0  0  0  0  0  0  0  0  0  0
    8.4248  -15.5263   24.9155 C   0  0  0  0  0  0  0  0  0  0  0  0
    7.4909  -16.3269   25.1316 O   0  0  0  0  0  0  0  0  0  0  0  0
    9.7365  -15.8569   25.3162 N   0  0  0  0  0  0  0  0  0  0  0  0
    9.9203  -17.1258   26.0224 C   0  0  0  0  0  0  0  0  0  0  0  0
   11.3418  -17.3583   26.3265 C   0  0  0  0  0  0  0  0  0  0  0  0
   12.2074  -16.5596   25.9130 O   0  0  0  0  0  0  0  0  0  0  0  0
   11.7696  -18.4393   27.0618 O   0  0  0  0  0  0  0  0  0  0  0  0
  2  1  1  6
  2  3  1  0
  3  4  1  0
  4  5  1  0
  5  6  2  0
  5  9  1  0
  7  8  2  0
  7  2  1  0
 10 11  1  0
 11 12  2  0
 11 13  1  0
 13 14  1  0
 15 14  1  1
 15 16  1  0
 16  7  1  0
 17 19  1  0
 17 15  1  0
 18 17  2  0
 20 19  1  0
 21 20  1  0
 22 21  2  0
 23 21  1  0
M  END
$$$$
