EQG.pdb
     RDKit          3D

 23 22  0  0  1  0  0  0  0  0999 V2000
   11.1221  -19.6560   21.4140 N   0  0  0  0  0  0  0  0  0  0  0  0
   11.4698  -18.2834   21.2433 C   0  0  1  0  0  0  0  0  0  0  0  0
   10.8623  -17.7196   19.9834 C   0  0  0  0  0  0  0  0  0  0  0  0
   11.2973  -18.4974   18.7583 C   0  0  0  0  0  0  0  0  0  0  0  0
   10.6269  -17.9508   17.5537 C   0  0  0  0  0  0  0  0  0  0  0  0
   11.2853  -17.2595   16.7570 O   0  0  0  0  0  0  0  0  0  0  0  0
   11.1385  -17.4548   22.4379 C   0  0  0  0  0  0  0  0  0  0  0  0
   11.4541  -16.2425   22.4592 O   0  0  0  0  0  0  0  0  0  0  0  0
    9.2812  -18.1993   17.3050 O   0  0  0  0  0  0  0  0  0  0  0  0
    6.4226  -18.9566   25.7848 N   0  0  0  0  0  0  0  0  0  0  0  0
    6.3393  -18.0165   24.7206 C   0  0  0  0  0  0  0  0  0  0  0  0
    5.2329  -17.7835   24.1732 O   0  0  0  0  0  0  0  0  0  0  0  0
    7.6050  -17.3507   24.3128 C   0  0  0  0  0  0  0  0  0  0  0  0
    8.7693  -17.7349   25.1444 C   0  0  0  0  0  0  0  0  0  0  0  0
   10.1076  -17.1965   24.7301 C   0  0  2  0  0  0  0  0  0  0  0  0
   10.4747  -18.0085   23.5490 N   0  0  0  0  0  0  0  0  0  0  0  0
   11.1881  -17.3970   25.7076 C   0  0  0  0  0  0  0  0  0  0  0  0
   11.6321  -16.4186   26.3445 O   0  0  0  0  0  0  0  0  0  0  0  0
   11.7254  -18.6816   25.9345 N   0  0  0  0  0  0  0  0  0  0  0  0
   12.7351  -18.8080   26.9867 C   0  0  0  0  0  0  0  0  0  0  0  0
   12.1187  -19.2036   28.2636 C   0  0  0  0  0  0  0  0  0  0  0  0
   10.8971  -19.4554   28.3155 O   0  0  0  0  0  0  0  0  0  0  0  0
   12.8429  -19.3111   29.4281 O   0  0  0  0  0  0  0  0  0  0  0  0
  2  1  1  1
  2  3  1  0
  3  4  1  0
  4  5  1  0
  5  6  2  0
  5  9  1  0
  7  8  2  0
  7  2  1  0
 10 11  1  0
 11 12  2  0
 11 13  1  0
 13 14  1  0
 15 14  1  1
 15 16  1  0
 16  7  1  0
 17 19  1  0
 17 15  1  0
 18 17  2  0
 20 19  1  0
 21 20  1  0
 22 21  2  0
 23 21  1  0
M  END
$$$$
