EQG.pdb
     RDKit          3D

 23 22  0  0  1  0  0  0  0  0999 V2000
   15.3394  -14.1445   16.1387 N   0  0  0  0  0  0  0  0  0  0  0  0
   14.1686  -14.8656   16.5176 C   0  0  1  0  0  0  0  0  0  0  0  0
   14.4018  -16.3543   16.4571 C   0  0  0  0  0  0  0  0  0  0  0  0
   15.5812  -16.7691   17.3127 C   0  0  0  0  0  0  0  0  0  0  0  0
   15.7499  -18.2413   17.2533 C   0  0  0  0  0  0  0  0  0  0  0  0
   15.4168  -18.9279   18.2350 O   0  0  0  0  0  0  0  0  0  0  0  0
   13.6373  -14.4406   17.8444 C   0  0  0  0  0  0  0  0  0  0  0  0
   14.4284  -14.0465   18.7324 O   0  0  0  0  0  0  0  0  0  0  0  0
   16.2722  -18.8597   16.1222 O   0  0  0  0  0  0  0  0  0  0  0  0
    7.7276  -13.0271   18.5799 N   0  0  0  0  0  0  0  0  0  0  0  0
    8.0545  -13.0014   19.9641 C   0  0  0  0  0  0  0  0  0  0  0  0
    7.1857  -12.6706   20.8089 O   0  0  0  0  0  0  0  0  0  0  0  0
    9.4450  -13.3789   20.3322 C   0  0  0  0  0  0  0  0  0  0  0  0
   10.3055  -13.6769   19.1636 C   0  0  0  0  0  0  0  0  0  0  0  0
   11.7148  -14.1065   19.4493 C   0  0  2  0  0  0  0  0  0  0  0  0
   12.2578  -14.4729   18.1226 N   0  0  0  0  0  0  0  0  0  0  0  0
   11.8405  -15.3121   20.2823 C   0  0  0  0  0  0  0  0  0  0  0  0
   11.1422  -16.3149   20.0241 O   0  0  0  0  0  0  0  0  0  0  0  0
   12.7423  -15.3480   21.3667 N   0  0  0  0  0  0  0  0  0  0  0  0
   12.6702  -16.5065   22.2585 C   0  0  0  0  0  0  0  0  0  0  0  0
   13.7334  -16.4555   23.2754 C   0  0  0  0  0  0  0  0  0  0  0  0
   14.6239  -15.5834   23.2043 O   0  0  0  0  0  0  0  0  0  0  0  0
   13.7922  -17.3443   24.3236 O   0  0  0  0  0  0  0  0  0  0  0  0
  2  1  1  1
  2  3  1  0
  3  4  1  0
  4  5  1  0
  5  6  2  0
  5  9  1  0
  7  8  2  0
  7  2  1  0
 10 11  1  0
 11 12  2  0
 11 13  1  0
 13 14  1  0
 15 14  1  6
 15 16  1  0
 16  7  1  0
 17 19  1  0
 17 15  1  0
 18 17  2  0
 20 19  1  0
 21 20  1  0
 22 21  2  0
 23 21  1  0
M  END
$$$$
