EQG.pdb
     RDKit          3D

 23 22  0  0  1  0  0  0  0  0999 V2000
    8.8421  -18.4414   22.1388 N   0  0  0  0  0  0  0  0  0  0  0  0
   10.0290  -17.6613   22.0092 C   0  0  1  0  0  0  0  0  0  0  0  0
   10.0198  -16.8632   20.7297 C   0  0  0  0  0  0  0  0  0  0  0  0
   10.6552  -17.6312   19.5889 C   0  0  0  0  0  0  0  0  0  0  0  0
   10.6469  -16.8011   18.3601 C   0  0  0  0  0  0  0  0  0  0  0  0
   10.1997  -15.6423   18.4166 O   0  0  0  0  0  0  0  0  0  0  0  0
   10.2817  -16.7991   23.1992 C   0  0  0  0  0  0  0  0  0  0  0  0
   11.2136  -15.9621   23.1726 O   0  0  0  0  0  0  0  0  0  0  0  0
   11.1293  -17.2979   17.1539 O   0  0  0  0  0  0  0  0  0  0  0  0
    7.0529  -12.9039   25.5288 N   0  0  0  0  0  0  0  0  0  0  0  0
    7.2211  -13.5523   24.2740 C   0  0  0  0  0  0  0  0  0  0  0  0
    6.5727  -13.1602   23.2720 O   0  0  0  0  0  0  0  0  0  0  0  0
    8.1821  -14.6864   24.2284 C   0  0  0  0  0  0  0  0  0  0  0  0
    8.7906  -14.9987   25.5425 C   0  0  0  0  0  0  0  0  0  0  0  0
    9.7809  -16.1256   25.5823 C   0  0  2  0  0  0  0  0  0  0  0  0
    9.4910  -16.9058   24.3590 N   0  0  0  0  0  0  0  0  0  0  0  0
    9.6135  -17.0610   26.7050 C   0  0  0  0  0  0  0  0  0  0  0  0
    8.4689  -17.4534   27.0146 O   0  0  0  0  0  0  0  0  0  0  0  0
   10.7313  -17.5205   27.4329 N   0  0  0  0  0  0  0  0  0  0  0  0
   10.4737  -18.4283   28.5518 C   0  0  0  0  0  0  0  0  0  0  0  0
   11.7341  -18.9190   29.1330 C   0  0  0  0  0  0  0  0  0  0  0  0
   12.8250  -18.6044   28.6140 O   0  0  0  0  0  0  0  0  0  0  0  0
   11.7657  -19.7261   30.2465 O   0  0  0  0  0  0  0  0  0  0  0  0
  2  1  1  1
  2  3  1  0
  3  4  1  0
  4  5  1  0
  5  6  2  0
  5  9  1  0
  7  8  2  0
  7  2  1  0
 10 11  1  0
 11 12  2  0
 11 13  1  0
 13 14  1  0
 15 14  1  1
 15 16  1  0
 16  7  1  0
 17 19  1  0
 17 15  1  0
 18 17  2  0
 20 19  1  0
 21 20  1  0
 22 21  2  0
 23 21  1  0
M  END
$$$$
