EQG.pdb
     RDKit          3D

 23 22  0  0  1  0  0  0  0  0999 V2000
   11.4814  -16.5194   22.3756 N   0  0  0  0  0  0  0  0  0  0  0  0
   10.4416  -15.7965   21.7196 C   0  0  1  0  0  0  0  0  0  0  0  0
   10.0436  -16.4655   20.4280 C   0  0  0  0  0  0  0  0  0  0  0  0
   10.9573  -17.6278   20.0975 C   0  0  0  0  0  0  0  0  0  0  0  0
   10.5525  -18.2314   18.8047 C   0  0  0  0  0  0  0  0  0  0  0  0
   10.9900  -17.7452   17.7474 O   0  0  0  0  0  0  0  0  0  0  0  0
    9.2659  -15.5534   22.6038 C   0  0  0  0  0  0  0  0  0  0  0  0
    8.2784  -14.9205   22.1634 O   0  0  0  0  0  0  0  0  0  0  0  0
    9.6960  -19.3264   18.7598 O   0  0  0  0  0  0  0  0  0  0  0  0
    7.3337  -20.0549   22.2830 N   0  0  0  0  0  0  0  0  0  0  0  0
    6.3702  -19.8231   23.3033 C   0  0  0  0  0  0  0  0  0  0  0  0
    5.4884  -20.6853   23.5426 O   0  0  0  0  0  0  0  0  0  0  0  0
    6.4719  -18.5367   24.0426 C   0  0  0  0  0  0  0  0  0  0  0  0
    7.6315  -17.7103   23.6336 C   0  0  0  0  0  0  0  0  0  0  0  0
    8.0162  -16.5812   24.5444 C   0  0  2  0  0  0  0  0  0  0  0  0
    9.2412  -16.0224   23.9309 N   0  0  0  0  0  0  0  0  0  0  0  0
    8.3964  -16.9834   25.9070 C   0  0  0  0  0  0  0  0  0  0  0  0
    7.5127  -17.3483   26.7108 O   0  0  0  0  0  0  0  0  0  0  0  0
    9.7471  -16.9636   26.3139 N   0  0  0  0  0  0  0  0  0  0  0  0
   10.0283  -17.2803   27.7150 C   0  0  0  0  0  0  0  0  0  0  0  0
   10.6456  -18.6107   27.8408 C   0  0  0  0  0  0  0  0  0  0  0  0
   10.7349  -19.3544   26.8421 O   0  0  0  0  0  0  0  0  0  0  0  0
   11.1396  -19.0827   29.0347 O   0  0  0  0  0  0  0  0  0  0  0  0
  2  1  1  1
  2  3  1  0
  3  4  1  0
  4  5  1  0
  5  6  2  0
  5  9  1  0
  7  8  2  0
  7  2  1  0
 10 11  1  0
 11 12  2  0
 11 13  1  0
 13 14  1  0
 15 14  1  6
 15 16  1  0
 16  7  1  0
 17 19  1  0
 17 15  1  0
 18 17  2  0
 20 19  1  0
 21 20  1  0
 22 21  2  0
 23 21  1  0
M  END
$$$$
