FPP.pdb
     RDKit          3D

 26 28  0  0  1  0  0  0  0  0999 V2000
    5.6143  -17.8360   25.1983 N   0  0  0  0  0  0  0  0  0  0  0  0
    6.1929  -16.4853   25.0147 C   0  0  1  0  0  0  0  0  0  0  0  0
    6.6313  -16.0884   26.4179 C   0  0  0  0  0  0  0  0  0  0  0  0
    6.8187  -14.6357   26.5387 C   0  0  0  0  0  0  0  0  0  0  0  0
    5.7138  -13.8147   26.5047 C   0  0  0  0  0  0  0  0  0  0  0  0
    5.8066  -12.4405   26.6118 C   0  0  0  0  0  0  0  0  0  0  0  0
    7.0327  -11.8459   26.7583 C   0  0  0  0  0  0  0  0  0  0  0  0
    8.1492  -12.6524   26.7943 C   0  0  0  0  0  0  0  0  0  0  0  0
    8.0515  -14.0231   26.6871 C   0  0  0  0  0  0  0  0  0  0  0  0
    7.2841  -16.5510   24.0443 C   0  0  0  0  0  0  0  0  0  0  0  0
    8.1187  -17.5167   24.1674 O   0  0  0  0  0  0  0  0  0  0  0  0
    7.5053  -15.6390   22.9681 N   0  0  0  0  0  0  0  0  0  0  0  0
    6.5393  -14.6575   22.5399 C   0  0  0  0  0  0  0  0  0  0  0  0
    7.4344  -13.4718   22.2862 C   0  0  0  0  0  0  0  0  0  0  0  0
    8.7407  -14.0544   21.8059 C   0  0  0  0  0  0  0  0  0  0  0  0
    8.6153  -15.5185   22.0909 C   0  0  1  0  0  0  0  0  0  0  0  0
    9.8859  -16.1197   22.5284 C   0  0  0  0  0  0  0  0  0  0  0  0
   10.3586  -15.7107   23.6266 O   0  0  0  0  0  0  0  0  0  0  0  0
   10.5628  -17.0955   21.8027 N   0  0  0  0  0  0  0  0  0  0  0  0
    9.8823  -18.0470   20.8909 C   0  0  0  0  0  0  0  0  0  0  0  0
   10.8001  -18.0380   19.6974 C   0  0  0  0  0  0  0  0  0  0  0  0
   12.0985  -17.4307   20.1525 C   0  0  0  0  0  0  0  0  0  0  0  0
   11.9321  -17.5170   21.6774 C   0  0  1  0  0  0  0  0  0  0  0  0
   12.9856  -16.8405   22.3622 C   0  0  0  0  0  0  0  0  0  0  0  0
   13.3418  -15.5386   22.2737 O   0  0  0  0  0  0  0  0  0  0  0  0
   13.6985  -17.5485   23.1722 O   0  0  0  0  0  0  0  0  0  0  0  0
  2  1  1  1
  3  2  1  0
  4  3  1  0
  5  4  2  0
  6  5  1  0
  7  8  1  0
  7  6  2  0
  8  9  2  0
  9  4  1  0
 10  2  1  0
 10 12  1  0
 11 10  2  0
 12 13  1  0
 13 14  1  0
 15 14  1  0
 16 12  1  0
 16 15  1  0
 16 17  1  1
 18 17  2  0
 19 20  1  0
 19 17  1  0
 21 20  1  0
 22 23  1  0
 22 21  1  0
 23 24  1  1
 23 19  1  0
 24 25  1  0
 26 24  2  0
M  END
$$$$
