FPP.pdb
     RDKit          3D

 26 28  0  0  1  0  0  0  0  0999 V2000
    7.2341  -17.3921   26.9926 N   0  0  0  0  0  0  0  0  0  0  0  0
    6.7984  -16.3979   25.9853 C   0  0  1  0  0  0  0  0  0  0  0  0
    6.8986  -15.0702   26.7240 C   0  0  0  0  0  0  0  0  0  0  0  0
    8.2328  -14.8717   27.3075 C   0  0  0  0  0  0  0  0  0  0  0  0
    8.9452  -15.9700   27.7341 C   0  0  0  0  0  0  0  0  0  0  0  0
   10.2045  -15.8666   28.2928 C   0  0  0  0  0  0  0  0  0  0  0  0
   10.7901  -14.6362   28.4396 C   0  0  0  0  0  0  0  0  0  0  0  0
   10.0913  -13.5262   28.0180 C   0  0  0  0  0  0  0  0  0  0  0  0
    8.8351  -13.6343   27.4612 C   0  0  0  0  0  0  0  0  0  0  0  0
    7.6571  -16.4914   24.8060 C   0  0  0  0  0  0  0  0  0  0  0  0
    8.4863  -17.4685   24.7624 O   0  0  0  0  0  0  0  0  0  0  0  0
    7.6557  -15.5950   23.6945 N   0  0  0  0  0  0  0  0  0  0  0  0
    6.6685  -14.5617   23.5013 C   0  0  0  0  0  0  0  0  0  0  0  0
    7.5363  -13.4284   23.0176 C   0  0  0  0  0  0  0  0  0  0  0  0
    8.6510  -14.0841   22.2405 C   0  0  0  0  0  0  0  0  0  0  0  0
    8.5208  -15.5384   22.5700 C   0  0  1  0  0  0  0  0  0  0  0  0
    9.8256  -16.2091   22.6915 C   0  0  0  0  0  0  0  0  0  0  0  0
   10.4945  -15.9640   23.7352 O   0  0  0  0  0  0  0  0  0  0  0  0
   10.3326  -17.0803   21.7319 N   0  0  0  0  0  0  0  0  0  0  0  0
    9.4734  -17.9366   20.8783 C   0  0  0  0  0  0  0  0  0  0  0  0
   10.1196  -17.7709   19.5286 C   0  0  0  0  0  0  0  0  0  0  0  0
   11.4860  -17.1907   19.7694 C   0  0  0  0  0  0  0  0  0  0  0  0
   11.6440  -17.4541   21.2748 C   0  0  1  0  0  0  0  0  0  0  0  0
   12.8194  -16.8369   21.7980 C   0  0  0  0  0  0  0  0  0  0  0  0
   13.6698  -17.3142   22.7353 O   0  0  0  0  0  0  0  0  0  0  0  0
   13.1219  -15.6740   21.3267 O   0  0  0  0  0  0  0  0  0  0  0  0
  2  1  1  1
  3  2  1  0
  4  3  1  0
  5  4  2  0
  6  5  1  0
  7  8  1  0
  7  6  2  0
  8  9  2  0
  9  4  1  0
 10  2  1  0
 10 12  1  0
 11 10  2  0
 12 13  1  0
 13 14  1  0
 15 14  1  0
 16 12  1  0
 16 15  1  0
 16 17  1  1
 18 17  2  0
 19 20  1  0
 19 17  1  0
 21 20  1  0
 22 23  1  0
 22 21  1  0
 23 24  1  1
 23 19  1  0
 24 25  1  0
 26 24  2  0
M  END
$$$$
