FPP.pdb
     RDKit          3D

 26 28  0  0  1  0  0  0  0  0999 V2000
    5.7378  -17.7986   25.2182 N   0  0  0  0  0  0  0  0  0  0  0  0
    6.3244  -16.4580   24.9910 C   0  0  1  0  0  0  0  0  0  0  0  0
    6.7447  -16.0089   26.3840 C   0  0  0  0  0  0  0  0  0  0  0  0
    6.7922  -14.5439   26.4920 C   0  0  0  0  0  0  0  0  0  0  0  0
    8.0095  -13.9269   26.6748 C   0  0  0  0  0  0  0  0  0  0  0  0
    8.1374  -12.5558   26.7854 C   0  0  0  0  0  0  0  0  0  0  0  0
    7.0268  -11.7560   26.7140 C   0  0  0  0  0  0  0  0  0  0  0  0
    5.8004  -12.3567   26.5313 C   0  0  0  0  0  0  0  0  0  0  0  0
    5.6777  -13.7252   26.4215 C   0  0  0  0  0  0  0  0  0  0  0  0
    7.4288  -16.5648   24.0394 C   0  0  0  0  0  0  0  0  0  0  0  0
    8.2745  -17.5098   24.2288 O   0  0  0  0  0  0  0  0  0  0  0  0
    7.6516  -15.7141   22.9144 N   0  0  0  0  0  0  0  0  0  0  0  0
    6.6705  -14.7881   22.4049 C   0  0  0  0  0  0  0  0  0  0  0  0
    7.5394  -13.5953   22.0991 C   0  0  0  0  0  0  0  0  0  0  0  0
    8.8721  -14.1691   21.6851 C   0  0  0  0  0  0  0  0  0  0  0  0
    8.7789  -15.6161   22.0567 C   0  0  1  0  0  0  0  0  0  0  0  0
   10.0541  -16.1536   22.5589 C   0  0  0  0  0  0  0  0  0  0  0  0
   10.4797  -15.6785   23.6497 O   0  0  0  0  0  0  0  0  0  0  0  0
   10.7838  -17.1387   21.9001 N   0  0  0  0  0  0  0  0  0  0  0  0
   10.1606  -18.1632   21.0272 C   0  0  0  0  0  0  0  0  0  0  0  0
   11.1034  -18.1808   19.8535 C   0  0  0  0  0  0  0  0  0  0  0  0
   12.3672  -17.4996   20.3013 C   0  0  0  0  0  0  0  0  0  0  0  0
   12.1707  -17.5119   21.8249 C   0  0  1  0  0  0  0  0  0  0  0  0
   13.1821  -16.7591   22.4934 C   0  0  0  0  0  0  0  0  0  0  0  0
   13.6638  -15.5358   22.1754 O   0  0  0  0  0  0  0  0  0  0  0  0
   13.7149  -17.3025   23.5358 O   0  0  0  0  0  0  0  0  0  0  0  0
  2  1  1  1
  3  2  1  0
  4  3  1  0
  5  4  2  0
  6  5  1  0
  7  8  1  0
  7  6  2  0
  8  9  2  0
  9  4  1  0
 10  2  1  0
 10 12  1  0
 11 10  2  0
 12 13  1  0
 13 14  1  0
 15 14  1  0
 16 12  1  0
 16 15  1  0
 16 17  1  1
 18 17  2  0
 19 20  1  0
 19 17  1  0
 21 20  1  0
 22 23  1  0
 22 21  1  0
 23 24  1  1
 23 19  1  0
 24 25  1  0
 26 24  2  0
M  END
$$$$
