FPP.pdb
     RDKit          3D

 26 28  0  0  1  0  0  0  0  0999 V2000
    6.8491  -18.4471   26.7962 N   0  0  0  0  0  0  0  0  0  0  0  0
    7.3905  -17.0801   26.9722 C   0  0  1  0  0  0  0  0  0  0  0  0
    8.8078  -17.3170   27.4761 C   0  0  0  0  0  0  0  0  0  0  0  0
    9.3977  -16.0929   28.0360 C   0  0  0  0  0  0  0  0  0  0  0  0
   10.6385  -15.6884   27.5971 C   0  0  0  0  0  0  0  0  0  0  0  0
   11.2599  -14.5504   28.0741 C   0  0  0  0  0  0  0  0  0  0  0  0
   10.6400  -13.7767   29.0203 C   0  0  0  0  0  0  0  0  0  0  0  0
    9.3978  -14.1667   29.4710 C   0  0  0  0  0  0  0  0  0  0  0  0
    8.7818  -15.3030   28.9920 C   0  0  0  0  0  0  0  0  0  0  0  0
    7.3210  -16.3617   25.7011 C   0  0  0  0  0  0  0  0  0  0  0  0
    7.5158  -17.0433   24.6327 O   0  0  0  0  0  0  0  0  0  0  0  0
    7.0527  -14.9686   25.5388 N   0  0  0  0  0  0  0  0  0  0  0  0
    6.4366  -14.1491   26.5530 C   0  0  0  0  0  0  0  0  0  0  0  0
    7.2571  -12.8903   26.4365 C   0  0  0  0  0  0  0  0  0  0  0  0
    7.6297  -12.7914   24.9777 C   0  0  0  0  0  0  0  0  0  0  0  0
    7.2583  -14.1273   24.4137 C   0  0  1  0  0  0  0  0  0  0  0  0
    8.2095  -14.5930   23.3912 C   0  0  0  0  0  0  0  0  0  0  0  0
    9.3207  -15.0282   23.8065 O   0  0  0  0  0  0  0  0  0  0  0  0
    7.9374  -14.5771   22.0265 N   0  0  0  0  0  0  0  0  0  0  0  0
    6.5774  -14.3688   21.4724 C   0  0  0  0  0  0  0  0  0  0  0  0
    6.8490  -13.4073   20.3461 C   0  0  0  0  0  0  0  0  0  0  0  0
    8.3288  -13.4538   20.0826 C   0  0  0  0  0  0  0  0  0  0  0  0
    8.7078  -14.7450   20.8237 C   0  0  1  0  0  0  0  0  0  0  0  0
   10.1216  -14.9342   20.8649 C   0  0  0  0  0  0  0  0  0  0  0  0
   11.0257  -14.3228   21.6640 O   0  0  0  0  0  0  0  0  0  0  0  0
   10.6153  -15.7949   20.0395 O   0  0  0  0  0  0  0  0  0  0  0  0
  2  1  1  6
  3  2  1  0
  4  3  1  0
  5  4  2  0
  6  5  1  0
  7  8  1  0
  7  6  2  0
  8  9  2  0
  9  4  1  0
 10  2  1  0
 10 12  1  0
 11 10  2  0
 12 13  1  0
 13 14  1  0
 15 14  1  0
 16 12  1  0
 16 15  1  0
 16 17  1  6
 18 17  2  0
 19 20  1  0
 19 17  1  0
 21 20  1  0
 22 23  1  0
 22 21  1  0
 23 24  1  1
 23 19  1  0
 24 25  1  0
 26 24  2  0
M  END
$$$$
