FPP.pdb
     RDKit          3D

 26 28  0  0  1  0  0  0  0  0999 V2000
    5.7520  -17.8088   25.4043 N   0  0  0  0  0  0  0  0  0  0  0  0
    6.3482  -16.4798   25.1380 C   0  0  1  0  0  0  0  0  0  0  0  0
    6.8944  -16.0526   26.4936 C   0  0  0  0  0  0  0  0  0  0  0  0
    7.0770  -14.5965   26.5723 C   0  0  0  0  0  0  0  0  0  0  0  0
    8.3539  -14.0865   26.6453 C   0  0  0  0  0  0  0  0  0  0  0  0
    8.6085  -12.7308   26.7217 C   0  0  0  0  0  0  0  0  0  0  0  0
    7.5690  -11.8377   26.7267 C   0  0  0  0  0  0  0  0  0  0  0  0
    6.2845  -12.3305   26.6542 C   0  0  0  0  0  0  0  0  0  0  0  0
    6.0354  -13.6841   26.5781 C   0  0  0  0  0  0  0  0  0  0  0  0
    7.3660  -16.6029   24.0960 C   0  0  0  0  0  0  0  0  0  0  0  0
    8.1862  -17.5838   24.1926 O   0  0  0  0  0  0  0  0  0  0  0  0
    7.5297  -15.7316   22.9765 N   0  0  0  0  0  0  0  0  0  0  0  0
    6.5274  -14.7900   22.5423 C   0  0  0  0  0  0  0  0  0  0  0  0
    7.3857  -13.5966   22.2099 C   0  0  0  0  0  0  0  0  0  0  0  0
    8.6883  -14.1700   21.7089 C   0  0  0  0  0  0  0  0  0  0  0  0
    8.6066  -15.6234   22.0574 C   0  0  1  0  0  0  0  0  0  0  0  0
    9.9047  -16.1781   22.4749 C   0  0  0  0  0  0  0  0  0  0  0  0
   10.4094  -15.7063   23.5329 O   0  0  0  0  0  0  0  0  0  0  0  0
   10.5742  -17.1757   21.7724 N   0  0  0  0  0  0  0  0  0  0  0  0
    9.8787  -18.1966   20.9514 C   0  0  0  0  0  0  0  0  0  0  0  0
   10.7364  -18.2320   19.7146 C   0  0  0  0  0  0  0  0  0  0  0  0
   12.0368  -17.5646   20.0684 C   0  0  0  0  0  0  0  0  0  0  0  0
   11.9478  -17.5666   21.6021 C   0  0  1  0  0  0  0  0  0  0  0  0
   13.0127  -16.8233   22.1935 C   0  0  0  0  0  0  0  0  0  0  0  0
   13.1044  -15.4850   22.3675 O   0  0  0  0  0  0  0  0  0  0  0  0
   14.0247  -17.5008   22.6207 O   0  0  0  0  0  0  0  0  0  0  0  0
  2  1  1  1
  3  2  1  0
  4  3  1  0
  5  4  2  0
  6  5  1  0
  7  8  1  0
  7  6  2  0
  8  9  2  0
  9  4  1  0
 10  2  1  0
 10 12  1  0
 11 10  2  0
 12 13  1  0
 13 14  1  0
 15 14  1  0
 16 12  1  0
 16 15  1  0
 16 17  1  1
 18 17  2  0
 19 20  1  0
 19 17  1  0
 21 20  1  0
 22 23  1  0
 22 21  1  0
 23 24  1  1
 23 19  1  0
 24 25  1  0
 26 24  2  0
M  END
$$$$
