FPP.pdb
     RDKit          3D

 26 28  0  0  1  0  0  0  0  0999 V2000
    8.6932  -17.6196   26.5088 N   0  0  0  0  0  0  0  0  0  0  0  0
    7.4212  -16.8671   26.4155 C   0  0  1  0  0  0  0  0  0  0  0  0
    7.4303  -15.9900   27.6601 C   0  0  0  0  0  0  0  0  0  0  0  0
    8.7663  -15.4389   27.9274 C   0  0  0  0  0  0  0  0  0  0  0  0
    8.9345  -14.0724   27.9413 C   0  0  0  0  0  0  0  0  0  0  0  0
   10.1574  -13.4775   28.1846 C   0  0  0  0  0  0  0  0  0  0  0  0
   11.2613  -14.2536   28.4242 C   0  0  0  0  0  0  0  0  0  0  0  0
   11.1112  -15.6230   28.4140 C   0  0  0  0  0  0  0  0  0  0  0  0
    9.8890  -16.2120   28.1708 C   0  0  0  0  0  0  0  0  0  0  0  0
    7.3882  -16.1207   25.1591 C   0  0  0  0  0  0  0  0  0  0  0  0
    7.6196  -16.7775   24.0824 O   0  0  0  0  0  0  0  0  0  0  0  0
    7.1187  -14.7254   25.0195 N   0  0  0  0  0  0  0  0  0  0  0  0
    6.5253  -13.9175   26.0563 C   0  0  0  0  0  0  0  0  0  0  0  0
    7.3452  -12.6585   25.9379 C   0  0  0  0  0  0  0  0  0  0  0  0
    7.6872  -12.5422   24.4730 C   0  0  0  0  0  0  0  0  0  0  0  0
    7.3019  -13.8706   23.9006 C   0  0  1  0  0  0  0  0  0  0  0  0
    8.2307  -14.3250   22.8527 C   0  0  0  0  0  0  0  0  0  0  0  0
    9.2722  -14.9269   23.2399 O   0  0  0  0  0  0  0  0  0  0  0  0
    8.0093  -14.1272   21.4931 N   0  0  0  0  0  0  0  0  0  0  0  0
    6.6673  -13.8634   20.9193 C   0  0  0  0  0  0  0  0  0  0  0  0
    6.9628  -12.7540   19.9451 C   0  0  0  0  0  0  0  0  0  0  0  0
    8.4521  -12.7447   19.7363 C   0  0  0  0  0  0  0  0  0  0  0  0
    8.8270  -14.1197   20.3099 C   0  0  1  0  0  0  0  0  0  0  0  0
   10.2415  -14.2940   20.3807 C   0  0  0  0  0  0  0  0  0  0  0  0
   11.1069  -13.7656   21.2760 O   0  0  0  0  0  0  0  0  0  0  0  0
   10.7779  -15.0490   19.4818 O   0  0  0  0  0  0  0  0  0  0  0  0
  2  1  1  6
  3  2  1  0
  4  3  1  0
  5  4  2  0
  6  5  1  0
  7  8  1  0
  7  6  2  0
  8  9  2  0
  9  4  1  0
 10  2  1  0
 10 12  1  0
 11 10  2  0
 12 13  1  0
 13 14  1  0
 15 14  1  0
 16 12  1  0
 16 15  1  0
 16 17  1  6
 18 17  2  0
 19 20  1  0
 19 17  1  0
 21 20  1  0
 22 23  1  0
 22 21  1  0
 23 24  1  1
 23 19  1  0
 24 25  1  0
 26 24  2  0
M  END
$$$$
