FPP.pdb
     RDKit          3D

 26 28  0  0  1  0  0  0  0  0999 V2000
    5.7192  -17.7344   25.3216 N   0  0  0  0  0  0  0  0  0  0  0  0
    6.3294  -16.4086   25.0712 C   0  0  1  0  0  0  0  0  0  0  0  0
    6.8384  -15.9825   26.4415 C   0  0  0  0  0  0  0  0  0  0  0  0
    6.9362  -14.5205   26.5550 C   0  0  0  0  0  0  0  0  0  0  0  0
    5.7845  -13.7678   26.5000 C   0  0  0  0  0  0  0  0  0  0  0  0
    5.7929  -12.3899   26.5991 C   0  0  0  0  0  0  0  0  0  0  0  0
    6.9787  -11.7216   26.7586 C   0  0  0  0  0  0  0  0  0  0  0  0
    8.1411  -12.4590   26.8158 C   0  0  0  0  0  0  0  0  0  0  0  0
    8.1277  -13.8338   26.7165 C   0  0  0  0  0  0  0  0  0  0  0  0
    7.3761  -16.5378   24.0590 C   0  0  0  0  0  0  0  0  0  0  0  0
    8.1657  -17.5431   24.1595 O   0  0  0  0  0  0  0  0  0  0  0  0
    7.5990  -15.6479   22.9648 N   0  0  0  0  0  0  0  0  0  0  0  0
    6.6074  -14.7258   22.4687 C   0  0  0  0  0  0  0  0  0  0  0  0
    7.4566  -13.5071   22.2143 C   0  0  0  0  0  0  0  0  0  0  0  0
    8.8069  -14.0411   21.8042 C   0  0  0  0  0  0  0  0  0  0  0  0
    8.7373  -15.5006   22.1290 C   0  0  1  0  0  0  0  0  0  0  0  0
   10.0152  -16.0283   22.6346 C   0  0  0  0  0  0  0  0  0  0  0  0
   10.4148  -15.5785   23.7458 O   0  0  0  0  0  0  0  0  0  0  0  0
   10.7741  -16.9788   21.9581 N   0  0  0  0  0  0  0  0  0  0  0  0
   10.1849  -17.9858   21.0424 C   0  0  0  0  0  0  0  0  0  0  0  0
   11.1479  -17.9492   19.8856 C   0  0  0  0  0  0  0  0  0  0  0  0
   12.3910  -17.2601   20.3769 C   0  0  0  0  0  0  0  0  0  0  0  0
   12.1687  -17.3245   21.8957 C   0  0  1  0  0  0  0  0  0  0  0  0
   13.1545  -16.5755   22.6055 C   0  0  0  0  0  0  0  0  0  0  0  0
   14.1142  -17.0344   23.4409 O   0  0  0  0  0  0  0  0  0  0  0  0
   13.1402  -15.2957   22.4396 O   0  0  0  0  0  0  0  0  0  0  0  0
  2  1  1  1
  3  2  1  0
  4  3  1  0
  5  4  2  0
  6  5  1  0
  7  8  1  0
  7  6  2  0
  8  9  2  0
  9  4  1  0
 10  2  1  0
 10 12  1  0
 11 10  2  0
 12 13  1  0
 13 14  1  0
 15 14  1  0
 16 12  1  0
 16 15  1  0
 16 17  1  1
 18 17  2  0
 19 20  1  0
 19 17  1  0
 21 20  1  0
 22 23  1  0
 22 21  1  0
 23 24  1  1
 23 19  1  0
 24 25  1  0
 26 24  2  0
M  END
$$$$
