FPP.pdb
     RDKit          3D

 26 28  0  0  1  0  0  0  0  0999 V2000
    5.8638  -17.3856   25.5287 N   0  0  0  0  0  0  0  0  0  0  0  0
    6.5000  -16.1514   25.0141 C   0  0  1  0  0  0  0  0  0  0  0  0
    7.2840  -15.6260   26.2091 C   0  0  0  0  0  0  0  0  0  0  0  0
    7.1137  -14.1759   26.3765 C   0  0  0  0  0  0  0  0  0  0  0  0
    8.2290  -13.3890   26.5579 C   0  0  0  0  0  0  0  0  0  0  0  0
    8.1523  -12.0195   26.7223 C   0  0  0  0  0  0  0  0  0  0  0  0
    6.9324  -11.3949   26.7083 C   0  0  0  0  0  0  0  0  0  0  0  0
    5.8057  -12.1670   26.5278 C   0  0  0  0  0  0  0  0  0  0  0  0
    5.8872  -13.5332   26.3642 C   0  0  0  0  0  0  0  0  0  0  0  0
    7.3272  -16.4775   23.8539 C   0  0  0  0  0  0  0  0  0  0  0  0
    8.0421  -17.5395   23.9253 O   0  0  0  0  0  0  0  0  0  0  0  0
    7.4105  -15.7227   22.6446 N   0  0  0  0  0  0  0  0  0  0  0  0
    6.4076  -14.7768   22.2213 C   0  0  0  0  0  0  0  0  0  0  0  0
    7.2746  -13.6632   21.6924 C   0  0  0  0  0  0  0  0  0  0  0  0
    8.4952  -14.3443   21.1243 C   0  0  0  0  0  0  0  0  0  0  0  0
    8.3914  -15.7534   21.6184 C   0  0  1  0  0  0  0  0  0  0  0  0
    9.7021  -16.3308   21.9587 C   0  0  0  0  0  0  0  0  0  0  0  0
   10.3420  -15.7728   22.8946 O   0  0  0  0  0  0  0  0  0  0  0  0
   10.2442  -17.4372   21.3116 N   0  0  0  0  0  0  0  0  0  0  0  0
    9.4177  -18.5209   20.7266 C   0  0  0  0  0  0  0  0  0  0  0  0
   10.1017  -18.7490   19.4049 C   0  0  0  0  0  0  0  0  0  0  0  0
   11.4555  -18.1010   19.4988 C   0  0  0  0  0  0  0  0  0  0  0  0
   11.5716  -17.9071   21.0184 C   0  0  1  0  0  0  0  0  0  0  0  0
   12.7259  -17.1436   21.3663 C   0  0  0  0  0  0  0  0  0  0  0  0
   13.8233  -17.5471   22.0464 O   0  0  0  0  0  0  0  0  0  0  0  0
   12.7383  -15.9086   20.9916 O   0  0  0  0  0  0  0  0  0  0  0  0
  2  1  1  1
  3  2  1  0
  4  3  1  0
  5  4  2  0
  6  5  1  0
  7  8  1  0
  7  6  2  0
  8  9  2  0
  9  4  1  0
 10  2  1  0
 10 12  1  0
 11 10  2  0
 12 13  1  0
 13 14  1  0
 15 14  1  0
 16 12  1  0
 16 15  1  0
 16 17  1  1
 18 17  2  0
 19 20  1  0
 19 17  1  0
 21 20  1  0
 22 23  1  0
 22 21  1  0
 23 24  1  6
 23 19  1  0
 24 25  1  0
 26 24  2  0
M  END
$$$$
