FPP.pdb
     RDKit          3D

 26 28  0  0  1  0  0  0  0  0999 V2000
    8.2034  -17.8364   26.8249 N   0  0  0  0  0  0  0  0  0  0  0  0
    7.1359  -16.8102   26.8373 C   0  0  1  0  0  0  0  0  0  0  0  0
    7.4791  -15.9490   28.0453 C   0  0  0  0  0  0  0  0  0  0  0  0
    8.8804  -15.5068   28.0175 C   0  0  0  0  0  0  0  0  0  0  0  0
    9.1561  -14.1584   28.0599 C   0  0  0  0  0  0  0  0  0  0  0  0
   10.4457  -13.6634   28.0376 C   0  0  0  0  0  0  0  0  0  0  0  0
   11.5093  -14.5251   27.9710 C   0  0  0  0  0  0  0  0  0  0  0  0
   11.2518  -15.8779   27.9279 C   0  0  0  0  0  0  0  0  0  0  0  0
    9.9633  -16.3670   27.9503 C   0  0  0  0  0  0  0  0  0  0  0  0
    7.1414  -16.0867   25.5672 C   0  0  0  0  0  0  0  0  0  0  0  0
    7.3766  -16.7684   24.5069 O   0  0  0  0  0  0  0  0  0  0  0  0
    6.9058  -14.6886   25.3975 N   0  0  0  0  0  0  0  0  0  0  0  0
    6.2660  -13.8591   26.3885 C   0  0  0  0  0  0  0  0  0  0  0  0
    7.1139  -12.6158   26.3068 C   0  0  0  0  0  0  0  0  0  0  0  0
    7.5450  -12.5219   24.8639 C   0  0  0  0  0  0  0  0  0  0  0  0
    7.1710  -13.8498   24.2830 C   0  0  1  0  0  0  0  0  0  0  0  0
    8.1526  -14.3319   23.2975 C   0  0  0  0  0  0  0  0  0  0  0  0
    9.2328  -14.8010   23.7555 O   0  0  0  0  0  0  0  0  0  0  0  0
    7.9400  -14.2962   21.9225 N   0  0  0  0  0  0  0  0  0  0  0  0
    6.5937  -14.1739   21.3123 C   0  0  0  0  0  0  0  0  0  0  0  0
    6.8405  -13.1620   20.2250 C   0  0  0  0  0  0  0  0  0  0  0  0
    8.3298  -13.0900   20.0286 C   0  0  0  0  0  0  0  0  0  0  0  0
    8.7730  -14.3706   20.7524 C   0  0  1  0  0  0  0  0  0  0  0  0
   10.1939  -14.4547   20.8535 C   0  0  0  0  0  0  0  0  0  0  0  0
   10.9670  -14.2875   21.9507 O   0  0  0  0  0  0  0  0  0  0  0  0
   10.8371  -14.7232   19.7672 O   0  0  0  0  0  0  0  0  0  0  0  0
  2  1  1  6
  3  2  1  0
  4  3  1  0
  5  4  2  0
  6  5  1  0
  7  8  1  0
  7  6  2  0
  8  9  2  0
  9  4  1  0
 10  2  1  0
 10 12  1  0
 11 10  2  0
 12 13  1  0
 13 14  1  0
 15 14  1  0
 16 12  1  0
 16 15  1  0
 16 17  1  1
 18 17  2  0
 19 20  1  0
 19 17  1  0
 21 20  1  0
 22 23  1  0
 22 21  1  0
 23 24  1  1
 23 19  1  0
 24 25  1  0
 26 24  2  0
M  END
$$$$
