FPP.pdb
     RDKit          3D

 26 28  0  0  1  0  0  0  0  0999 V2000
    5.9092  -17.7366   25.3944 N   0  0  0  0  0  0  0  0  0  0  0  0
    6.4910  -16.4128   25.0756 C   0  0  1  0  0  0  0  0  0  0  0  0
    7.0201  -15.9205   26.4159 C   0  0  0  0  0  0  0  0  0  0  0  0
    6.8766  -14.4645   26.5557 C   0  0  0  0  0  0  0  0  0  0  0  0
    8.0032  -13.6986   26.7559 C   0  0  0  0  0  0  0  0  0  0  0  0
    7.9516  -12.3252   26.8967 C   0  0  0  0  0  0  0  0  0  0  0  0
    6.7464  -11.6753   26.8389 C   0  0  0  0  0  0  0  0  0  0  0  0
    5.6087  -12.4262   26.6391 C   0  0  0  0  0  0  0  0  0  0  0  0
    5.6652  -13.7963   26.4992 C   0  0  0  0  0  0  0  0  0  0  0  0
    7.5192  -16.5677   24.0482 C   0  0  0  0  0  0  0  0  0  0  0  0
    8.3775  -17.5053   24.2166 O   0  0  0  0  0  0  0  0  0  0  0  0
    7.6546  -15.7717   22.8705 N   0  0  0  0  0  0  0  0  0  0  0  0
    6.6230  -14.8942   22.3751 C   0  0  0  0  0  0  0  0  0  0  0  0
    7.4432  -13.7006   21.9580 C   0  0  0  0  0  0  0  0  0  0  0  0
    8.7626  -14.2665   21.4940 C   0  0  0  0  0  0  0  0  0  0  0  0
    8.7267  -15.6941   21.9427 C   0  0  1  0  0  0  0  0  0  0  0  0
   10.0419  -16.1778   22.3937 C   0  0  0  0  0  0  0  0  0  0  0  0
   10.5625  -15.5746   23.3745 O   0  0  0  0  0  0  0  0  0  0  0  0
   10.7109  -17.2450   21.8018 N   0  0  0  0  0  0  0  0  0  0  0  0
   10.0126  -18.3994   21.1857 C   0  0  0  0  0  0  0  0  0  0  0  0
   10.7958  -18.5885   19.9137 C   0  0  0  0  0  0  0  0  0  0  0  0
   12.0847  -17.8319   20.0807 C   0  0  0  0  0  0  0  0  0  0  0  0
   12.0876  -17.6097   21.6009 C   0  0  1  0  0  0  0  0  0  0  0  0
   13.1527  -16.7511   22.0066 C   0  0  0  0  0  0  0  0  0  0  0  0
   14.3147  -17.0866   22.6123 O   0  0  0  0  0  0  0  0  0  0  0  0
   13.0018  -15.4907   21.7732 O   0  0  0  0  0  0  0  0  0  0  0  0
  2  1  1  1
  3  2  1  0
  4  3  1  0
  5  4  2  0
  6  5  1  0
  7  8  1  0
  7  6  2  0
  8  9  2  0
  9  4  1  0
 10  2  1  0
 10 12  1  0
 11 10  2  0
 12 13  1  0
 13 14  1  0
 15 14  1  0
 16 12  1  0
 16 15  1  0
 16 17  1  1
 18 17  2  0
 19 20  1  0
 19 17  1  0
 21 20  1  0
 22 23  1  0
 22 21  1  0
 23 24  1  6
 23 19  1  0
 24 25  1  0
 26 24  2  0
M  END
$$$$
