FPP.pdb
     RDKit          3D

 26 28  0  0  1  0  0  0  0  0999 V2000
    6.7459  -18.4138   26.8264 N   0  0  0  0  0  0  0  0  0  0  0  0
    7.3536  -17.0658   26.9084 C   0  0  1  0  0  0  0  0  0  0  0  0
    8.8089  -17.3482   27.2564 C   0  0  0  0  0  0  0  0  0  0  0  0
    9.5072  -16.1341   27.7015 C   0  0  0  0  0  0  0  0  0  0  0  0
    9.5326  -15.8328   29.0448 C   0  0  0  0  0  0  0  0  0  0  0  0
   10.1675  -14.7111   29.5420 C   0  0  0  0  0  0  0  0  0  0  0  0
   10.8038  -13.8487   28.6877 C   0  0  0  0  0  0  0  0  0  0  0  0
   10.7883  -14.1347   27.3401 C   0  0  0  0  0  0  0  0  0  0  0  0
   10.1535  -15.2552   26.8487 C   0  0  0  0  0  0  0  0  0  0  0  0
    7.1680  -16.3701   25.6363 C   0  0  0  0  0  0  0  0  0  0  0  0
    7.3352  -17.0550   24.5653 O   0  0  0  0  0  0  0  0  0  0  0  0
    6.8141  -14.9960   25.4759 N   0  0  0  0  0  0  0  0  0  0  0  0
    6.1079  -14.2301   26.4731 C   0  0  0  0  0  0  0  0  0  0  0  0
    6.8469  -12.9188   26.3982 C   0  0  0  0  0  0  0  0  0  0  0  0
    7.2658  -12.7795   24.9554 C   0  0  0  0  0  0  0  0  0  0  0  0
    7.0049  -14.1307   24.3664 C   0  0  1  0  0  0  0  0  0  0  0  0
    8.0221  -14.5214   23.3766 C   0  0  0  0  0  0  0  0  0  0  0  0
    9.1395  -14.8987   23.8301 O   0  0  0  0  0  0  0  0  0  0  0  0
    7.8043  -14.4965   22.0022 N   0  0  0  0  0  0  0  0  0  0  0  0
    6.4535  -14.4085   21.3960 C   0  0  0  0  0  0  0  0  0  0  0  0
    6.6729  -13.3956   20.3038 C   0  0  0  0  0  0  0  0  0  0  0  0
    8.1593  -13.2893   20.1021 C   0  0  0  0  0  0  0  0  0  0  0  0
    8.6350  -14.5561   20.8296 C   0  0  1  0  0  0  0  0  0  0  0  0
   10.0578  -14.6063   20.9263 C   0  0  0  0  0  0  0  0  0  0  0  0
   10.8342  -14.3424   22.0021 O   0  0  0  0  0  0  0  0  0  0  0  0
   10.6995  -14.9443   19.8587 O   0  0  0  0  0  0  0  0  0  0  0  0
  2  1  1  6
  3  2  1  0
  4  3  1  0
  5  4  2  0
  6  5  1  0
  7  8  1  0
  7  6  2  0
  8  9  2  0
  9  4  1  0
 10  2  1  0
 10 12  1  0
 11 10  2  0
 12 13  1  0
 13 14  1  0
 15 14  1  0
 16 12  1  0
 16 15  1  0
 16 17  1  1
 18 17  2  0
 19 20  1  0
 19 17  1  0
 21 20  1  0
 22 23  1  0
 22 21  1  0
 23 24  1  1
 23 19  1  0
 24 25  1  0
 26 24  2  0
M  END
$$$$
