FPP.pdb
     RDKit          3D

 26 28  0  0  1  0  0  0  0  0999 V2000
    8.8622  -15.9565   21.4000 N   0  0  0  0  0  0  0  0  0  0  0  0
    7.8316  -15.3033   22.2391 C   0  0  1  0  0  0  0  0  0  0  0  0
    6.7672  -16.3797   22.4041 C   0  0  0  0  0  0  0  0  0  0  0  0
    7.2201  -17.4612   23.2902 C   0  0  0  0  0  0  0  0  0  0  0  0
    6.4990  -17.7363   24.4305 C   0  0  0  0  0  0  0  0  0  0  0  0
    6.8593  -18.7360   25.3133 C   0  0  0  0  0  0  0  0  0  0  0  0
    7.9721  -19.4977   25.0690 C   0  0  0  0  0  0  0  0  0  0  0  0
    8.7056  -19.2361   23.9324 C   0  0  0  0  0  0  0  0  0  0  0  0
    8.3422  -18.2375   23.0544 C   0  0  0  0  0  0  0  0  0  0  0  0
    8.4347  -14.8624   23.4955 C   0  0  0  0  0  0  0  0  0  0  0  0
    9.6165  -15.2856   23.7571 O   0  0  0  0  0  0  0  0  0  0  0  0
    7.8293  -13.9997   24.4590 N   0  0  0  0  0  0  0  0  0  0  0  0
    6.7912  -13.0501   24.1422 C   0  0  0  0  0  0  0  0  0  0  0  0
    5.8816  -13.2180   25.3321 C   0  0  0  0  0  0  0  0  0  0  0  0
    6.7940  -13.5496   26.4872 C   0  0  0  0  0  0  0  0  0  0  0  0
    8.1130  -13.8376   25.8408 C   0  0  1  0  0  0  0  0  0  0  0  0
    8.8438  -14.9268   26.5091 C   0  0  0  0  0  0  0  0  0  0  0  0
    8.4083  -16.0987   26.3250 O   0  0  0  0  0  0  0  0  0  0  0  0
    9.9650  -14.7214   27.3076 N   0  0  0  0  0  0  0  0  0  0  0  0
   10.7502  -13.4631   27.2959 C   0  0  0  0  0  0  0  0  0  0  0  0
   10.9796  -13.2309   28.7657 C   0  0  0  0  0  0  0  0  0  0  0  0
   10.6824  -14.5302   29.4623 C   0  0  0  0  0  0  0  0  0  0  0  0
   10.6964  -15.4998   28.2707 C   0  0  1  0  0  0  0  0  0  0  0  0
   10.2702  -16.8079   28.6497 C   0  0  0  0  0  0  0  0  0  0  0  0
   11.0290  -17.8510   29.0568 O   0  0  0  0  0  0  0  0  0  0  0  0
    9.0016  -17.0403   28.6022 O   0  0  0  0  0  0  0  0  0  0  0  0
  2  1  1  6
  3  2  1  0
  4  3  1  0
  5  4  2  0
  6  5  1  0
  7  8  1  0
  7  6  2  0
  8  9  2  0
  9  4  1  0
 10  2  1  0
 10 12  1  0
 11 10  2  0
 12 13  1  0
 13 14  1  0
 15 14  1  0
 16 12  1  0
 16 15  1  0
 16 17  1  1
 18 17  2  0
 19 20  1  0
 19 17  1  0
 21 20  1  0
 22 23  1  0
 22 21  1  0
 23 24  1  1
 23 19  1  0
 24 25  1  0
 26 24  2  0
M  END
$$$$
