FPP.pdb
     RDKit          3D

 26 28  0  0  1  0  0  0  0  0999 V2000
    5.7504  -17.8250   25.2710 N   0  0  0  0  0  0  0  0  0  0  0  0
    6.3374  -16.4757   25.1048 C   0  0  1  0  0  0  0  0  0  0  0  0
    6.7287  -16.0770   26.5214 C   0  0  0  0  0  0  0  0  0  0  0  0
    7.0109  -14.6383   26.6232 C   0  0  0  0  0  0  0  0  0  0  0  0
    5.9602  -13.7486   26.6028 C   0  0  0  0  0  0  0  0  0  0  0  0
    6.1428  -12.3822   26.6938 C   0  0  0  0  0  0  0  0  0  0  0  0
    7.4071  -11.8661   26.8095 C   0  0  0  0  0  0  0  0  0  0  0  0
    8.4703  -12.7420   26.8315 C   0  0  0  0  0  0  0  0  0  0  0  0
    8.2832  -14.1045   26.7405 C   0  0  0  0  0  0  0  0  0  0  0  0
    7.4608  -16.5452   24.1722 C   0  0  0  0  0  0  0  0  0  0  0  0
    8.2887  -17.5123   24.3250 O   0  0  0  0  0  0  0  0  0  0  0  0
    7.7203  -15.6353   23.1027 N   0  0  0  0  0  0  0  0  0  0  0  0
    6.7511  -14.6923   22.6016 C   0  0  0  0  0  0  0  0  0  0  0  0
    7.6192  -13.4780   22.3939 C   0  0  0  0  0  0  0  0  0  0  0  0
    8.9736  -14.0183   22.0062 C   0  0  0  0  0  0  0  0  0  0  0  0
    8.8807  -15.4833   22.2985 C   0  0  1  0  0  0  0  0  0  0  0  0
   10.1399  -16.0355   22.8245 C   0  0  0  0  0  0  0  0  0  0  0  0
   10.5258  -15.5996   23.9460 O   0  0  0  0  0  0  0  0  0  0  0  0
   10.8957  -16.9939   22.1558 N   0  0  0  0  0  0  0  0  0  0  0  0
   10.3080  -17.9826   21.2193 C   0  0  0  0  0  0  0  0  0  0  0  0
   11.2956  -17.9538   20.0832 C   0  0  0  0  0  0  0  0  0  0  0  0
   12.5402  -17.2914   20.6064 C   0  0  0  0  0  0  0  0  0  0  0  0
   12.2849  -17.3642   22.1196 C   0  0  1  0  0  0  0  0  0  0  0  0
   13.2688  -16.6390   22.8562 C   0  0  0  0  0  0  0  0  0  0  0  0
   14.4540  -17.0832   23.3333 O   0  0  0  0  0  0  0  0  0  0  0  0
   13.0079  -15.4003   23.1075 O   0  0  0  0  0  0  0  0  0  0  0  0
  2  1  1  1
  3  2  1  0
  4  3  1  0
  5  4  2  0
  6  5  1  0
  7  8  1  0
  7  6  2  0
  8  9  2  0
  9  4  1  0
 10  2  1  0
 10 12  1  0
 11 10  2  0
 12 13  1  0
 13 14  1  0
 15 14  1  0
 16 12  1  0
 16 15  1  0
 16 17  1  1
 18 17  2  0
 19 20  1  0
 19 17  1  0
 21 20  1  0
 22 23  1  0
 22 21  1  0
 23 24  1  1
 23 19  1  0
 24 25  1  0
 26 24  2  0
M  END
$$$$
