TTR.pdb
     RDKit          3D

 26 25  0  0  1  0  0  0  0  0999 V2000
   13.6960   -8.3201   -8.0926 C   0  0  0  0  0  0  0  0  0  0  0  0
   13.1435   -6.9518   -7.7345 C   0  0  1  0  0  0  0  0  0  0  0  0
   12.5845   -7.1506   -6.4306 O   0  0  0  0  0  0  0  0  0  0  0  0
   14.2249   -5.9446   -7.5445 C   0  0  2  0  0  0  0  0  0  0  0  0
   13.5667   -4.7109   -7.0617 N   0  0  0  0  0  0  0  0  0  0  0  0
   15.0268   -5.6243   -8.7435 C   0  0  0  0  0  0  0  0  0  0  0  0
   14.5120   -4.9559   -9.7152 O   0  0  0  0  0  0  0  0  0  0  0  0
   18.9609   -4.5422  -11.3570 C   0  0  0  0  0  0  0  0  0  0  0  0
   18.2432   -4.8137  -10.0767 C   0  0  1  0  0  0  0  0  0  0  0  0
   17.7511   -3.5825   -9.6096 O   0  0  0  0  0  0  0  0  0  0  0  0
   17.0829   -5.7459  -10.2083 C   0  0  2  0  0  0  0  0  0  0  0  0
   16.3731   -5.9783   -8.9739 N   0  0  0  0  0  0  0  0  0  0  0  0
   17.4387   -6.9777  -10.9459 C   0  0  0  0  0  0  0  0  0  0  0  0
   18.1078   -7.8481  -10.3369 O   0  0  0  0  0  0  0  0  0  0  0  0
   13.4388  -12.9744  -10.4707 N   0  0  0  0  0  0  0  0  0  0  0  0
   13.4554  -11.5582  -10.6417 C   0  0  0  0  0  0  0  0  0  0  0  0
   13.3003  -10.7901   -9.5979 N   0  0  0  0  0  0  0  0  0  0  0  0
   13.6335  -10.9427  -11.9020 N   0  0  0  0  0  0  0  0  0  0  0  0
   15.0273  -10.7958  -12.4243 C   0  0  0  0  0  0  0  0  0  0  0  0
   15.1195   -9.5086  -13.1480 C   0  0  0  0  0  0  0  0  0  0  0  0
   16.3257   -8.9949  -13.7549 C   0  0  0  0  0  0  0  0  0  0  0  0
   17.4545   -8.5189  -12.9715 C   0  0  2  0  0  0  0  0  0  0  0  0
   17.0783   -7.2377  -12.2836 N   0  0  0  0  0  0  0  0  0  0  0  0
   18.6843   -8.2381  -13.6848 C   0  0  0  0  0  0  0  0  0  0  0  0
   18.7953   -7.0160  -14.1450 O   0  0  0  0  0  0  0  0  0  0  0  0
   19.7716   -9.0192  -13.9691 O   0  0  0  0  0  0  0  0  0  0  0  0
  2  1  1  1
  2  3  1  0
  4  2  1  0
  4  5  1  6
  6  4  1  0
  6 12  1  0
  7  6  2  0
  9  8  1  6
 10  9  1  0
 11 12  1  1
 11  9  1  0
 13 11  1  0
 14 13  2  0
 16 17  2  0
 16 15  1  0
 18 16  1  0
 19 18  1  0
 20 21  1  0
 20 19  1  0
 22 21  1  6
 22 24  1  0
 22 23  1  0
 23 13  1  0
 24 26  1  0
 25 24  2  0
M  END
$$$$
