TTR.pdb
     RDKit          3D

 26 25  0  0  1  0  0  0  0  0999 V2000
   26.5363  -23.4246  -18.9103 C   0  0  0  0  0  0  0  0  0  0  0  0
   27.6371  -23.9704  -18.0180 C   0  0  1  0  0  0  0  0  0  0  0  0
   28.6062  -24.4634  -18.9506 O   0  0  0  0  0  0  0  0  0  0  0  0
   28.3351  -22.8893  -17.2670 C   0  0  2  0  0  0  0  0  0  0  0  0
   29.3808  -23.5516  -16.4568 N   0  0  0  0  0  0  0  0  0  0  0  0
   27.4863  -22.0685  -16.3787 C   0  0  0  0  0  0  0  0  0  0  0  0
   27.2531  -22.4413  -15.1692 O   0  0  0  0  0  0  0  0  0  0  0  0
   27.5795  -18.1739  -15.4796 C   0  0  0  0  0  0  0  0  0  0  0  0
   26.2118  -18.6200  -15.8778 C   0  0  1  0  0  0  0  0  0  0  0  0
   26.0167  -18.2156  -17.2100 O   0  0  0  0  0  0  0  0  0  0  0  0
   26.0058  -20.0986  -15.8174 C   0  0  2  0  0  0  0  0  0  0  0  0
   26.8598  -20.8476  -16.7068 N   0  0  0  0  0  0  0  0  0  0  0  0
   24.5750  -20.4654  -15.8966 C   0  0  0  0  0  0  0  0  0  0  0  0
   24.0926  -20.6856  -17.0345 O   0  0  0  0  0  0  0  0  0  0  0  0
   18.5153  -23.9425  -10.0132 N   0  0  0  0  0  0  0  0  0  0  0  0
   18.1279  -24.1337  -11.3728 C   0  0  0  0  0  0  0  0  0  0  0  0
   17.1448  -24.9479  -11.6451 N   0  0  0  0  0  0  0  0  0  0  0  0
   18.7665  -23.4758  -12.4491 N   0  0  0  0  0  0  0  0  0  0  0  0
   20.1550  -22.9618  -12.2372 C   0  0  0  0  0  0  0  0  0  0  0  0
   20.6073  -22.3147  -13.4884 C   0  0  0  0  0  0  0  0  0  0  0  0
   21.8613  -21.6136  -13.6408 C   0  0  0  0  0  0  0  0  0  0  0  0
   22.3065  -21.0744  -14.9158 C   0  0  2  0  0  0  0  0  0  0  0  0
   23.7195  -20.5827  -14.7824 N   0  0  0  0  0  0  0  0  0  0  0  0
   21.5525  -19.9657  -15.4656 C   0  0  0  0  0  0  0  0  0  0  0  0
   21.8419  -18.7906  -14.9625 O   0  0  0  0  0  0  0  0  0  0  0  0
   20.5828  -19.9122  -16.4301 O   0  0  0  0  0  0  0  0  0  0  0  0
  2  1  1  6
  2  3  1  0
  4  2  1  0
  4  5  1  1
  6  4  1  0
  6 12  1  0
  7  6  2  0
  9  8  1  6
 10  9  1  0
 11 12  1  6
 11  9  1  0
 13 11  1  0
 14 13  2  0
 16 17  2  0
 16 15  1  0
 18 16  1  0
 19 18  1  0
 20 21  1  0
 20 19  1  0
 22 21  1  1
 22 24  1  0
 22 23  1  0
 23 13  1  0
 24 26  1  0
 25 24  2  0
M  END
$$$$
