TTR.pdb
     RDKit          3D

 26 25  0  0  1  0  0  0  0  0999 V2000
   32.0934  -28.1582  -20.6721 C   0  0  0  0  0  0  0  0  0  0  0  0
   32.0638  -26.8479  -19.9053 C   0  0  1  0  0  0  0  0  0  0  0  0
   33.1295  -26.0941  -20.4953 O   0  0  0  0  0  0  0  0  0  0  0  0
   30.8294  -26.0627  -20.1880 C   0  0  2  0  0  0  0  0  0  0  0  0
   31.1009  -24.6805  -19.7362 N   0  0  0  0  0  0  0  0  0  0  0  0
   29.5935  -26.5468  -19.5389 C   0  0  0  0  0  0  0  0  0  0  0  0
   29.3638  -27.8082  -19.4281 O   0  0  0  0  0  0  0  0  0  0  0  0
   28.6817  -26.4194  -15.9841 C   0  0  0  0  0  0  0  0  0  0  0  0
   27.9180  -27.1309  -17.0511 C   0  0  1  0  0  0  0  0  0  0  0  0
   26.7627  -27.6600  -16.4496 O   0  0  0  0  0  0  0  0  0  0  0  0
   27.4814  -26.2566  -18.1814 C   0  0  2  0  0  0  0  0  0  0  0  0
   28.5668  -25.7518  -18.9868 N   0  0  0  0  0  0  0  0  0  0  0  0
   26.5163  -25.2236  -17.7461 C   0  0  0  0  0  0  0  0  0  0  0  0
   26.9589  -24.2589  -17.0758 O   0  0  0  0  0  0  0  0  0  0  0  0
   18.4564  -23.5506  -20.8355 N   0  0  0  0  0  0  0  0  0  0  0  0
   18.9112  -24.5337  -19.9071 C   0  0  0  0  0  0  0  0  0  0  0  0
   18.2165  -25.6271  -19.7480 N   0  0  0  0  0  0  0  0  0  0  0  0
   20.0910  -24.3761  -19.1440 N   0  0  0  0  0  0  0  0  0  0  0  0
   20.8089  -23.0661  -19.2182 C   0  0  0  0  0  0  0  0  0  0  0  0
   22.0014  -23.1393  -18.3454 C   0  0  0  0  0  0  0  0  0  0  0  0
   23.0405  -24.1363  -18.4606 C   0  0  0  0  0  0  0  0  0  0  0  0
   24.2152  -24.1450  -17.6036 C   0  0  2  0  0  0  0  0  0  0  0  0
   25.1363  -25.2513  -18.0324 N   0  0  0  0  0  0  0  0  0  0  0  0
   23.9979  -24.3395  -16.1841 C   0  0  0  0  0  0  0  0  0  0  0  0
   23.9751  -25.5891  -15.7896 O   0  0  0  0  0  0  0  0  0  0  0  0
   23.8140  -23.4503  -15.1600 O   0  0  0  0  0  0  0  0  0  0  0  0
  2  1  1  6
  2  3  1  0
  4  2  1  0
  4  5  1  1
  6  4  1  0
  6 12  1  0
  7  6  2  0
  9  8  1  1
 10  9  1  0
 11 12  1  1
 11  9  1  0
 13 11  1  0
 14 13  2  0
 16 17  2  0
 16 15  1  0
 18 16  1  0
 19 18  1  0
 20 21  1  0
 20 19  1  0
 22 21  1  6
 22 24  1  0
 22 23  1  0
 23 13  1  0
 24 26  1  0
 25 24  2  0
M  END
$$$$
