TTR.pdb
     RDKit          3D

 26 25  0  0  1  0  0  0  0  0999 V2000
   15.5964  -11.5981  -16.3161 C   0  0  0  0  0  0  0  0  0  0  0  0
   16.3677  -12.8073  -15.8173 C   0  0  1  0  0  0  0  0  0  0  0  0
   16.0024  -13.8385  -16.7422 O   0  0  0  0  0  0  0  0  0  0  0  0
   17.8388  -12.6393  -15.9835 C   0  0  2  0  0  0  0  0  0  0  0  0
   18.4517  -13.9334  -15.6119 N   0  0  0  0  0  0  0  0  0  0  0  0
   18.4606  -11.5648  -15.1821 C   0  0  0  0  0  0  0  0  0  0  0  0
   18.4093  -11.5947  -13.8966 O   0  0  0  0  0  0  0  0  0  0  0  0
   22.1356  -10.3619  -15.1416 C   0  0  0  0  0  0  0  0  0  0  0  0
   21.2275   -9.1827  -15.2548 C   0  0  1  0  0  0  0  0  0  0  0  0
   21.2225   -8.7930  -16.6055 O   0  0  0  0  0  0  0  0  0  0  0  0
   19.8137   -9.4553  -14.8557 C   0  0  2  0  0  0  0  0  0  0  0  0
   19.1503  -10.4381  -15.6776 N   0  0  0  0  0  0  0  0  0  0  0  0
   19.0414   -8.2098  -14.6550 C   0  0  0  0  0  0  0  0  0  0  0  0
   18.3170   -7.8151  -15.6013 O   0  0  0  0  0  0  0  0  0  0  0  0
   14.9527   -6.8896   -7.4004 N   0  0  0  0  0  0  0  0  0  0  0  0
   14.4814   -7.6450   -8.5150 C   0  0  0  0  0  0  0  0  0  0  0  0
   13.4958   -8.4834   -8.3436 N   0  0  0  0  0  0  0  0  0  0  0  0
   15.0385   -7.5263   -9.8091 N   0  0  0  0  0  0  0  0  0  0  0  0
   16.2003   -6.6028   -9.9945 C   0  0  0  0  0  0  0  0  0  0  0  0
   16.6278   -6.6715  -11.4093 C   0  0  0  0  0  0  0  0  0  0  0  0
   17.8264   -6.0584  -11.9332 C   0  0  0  0  0  0  0  0  0  0  0  0
   18.2335   -6.1974  -13.3223 C   0  0  2  0  0  0  0  0  0  0  0  0
   19.0658   -7.4383  -13.4755 N   0  0  0  0  0  0  0  0  0  0  0  0
   19.0192   -5.1217  -13.8929 C   0  0  0  0  0  0  0  0  0  0  0  0
   20.3143   -5.3218  -13.9030 O   0  0  0  0  0  0  0  0  0  0  0  0
   18.6581   -3.9186  -14.4366 O   0  0  0  0  0  0  0  0  0  0  0  0
  2  1  1  6
  2  3  1  0
  4  2  1  0
  4  5  1  1
  6  4  1  0
  6 12  1  0
  7  6  2  0
  9  8  1  6
 10  9  1  0
 11 12  1  6
 11  9  1  0
 13 11  1  0
 14 13  2  0
 16 17  2  0
 16 15  1  0
 18 16  1  0
 19 18  1  0
 20 21  1  0
 20 19  1  0
 22 21  1  1
 22 24  1  0
 22 23  1  0
 23 13  1  0
 24 26  1  0
 25 24  2  0
M  END
$$$$
