TTR.pdb
     RDKit          3D

 26 25  0  0  1  0  0  0  0  0999 V2000
   23.6401  -16.8974  -16.5504 C   0  0  0  0  0  0  0  0  0  0  0  0
   24.6763  -16.3548  -15.5819 C   0  0  1  0  0  0  0  0  0  0  0  0
   25.7101  -17.3459  -15.6125 O   0  0  0  0  0  0  0  0  0  0  0  0
   25.3169  -15.1090  -16.0893 C   0  0  2  0  0  0  0  0  0  0  0  0
   26.3569  -14.7425  -15.1031 N   0  0  0  0  0  0  0  0  0  0  0  0
   24.4160  -13.9550  -16.2894 C   0  0  0  0  0  0  0  0  0  0  0  0
   24.0867  -13.2028  -15.2985 O   0  0  0  0  0  0  0  0  0  0  0  0
   22.2948  -10.3607  -18.8993 C   0  0  0  0  0  0  0  0  0  0  0  0
   23.2427  -11.5050  -18.7577 C   0  0  1  0  0  0  0  0  0  0  0  0
   24.5111  -10.9604  -18.4913 O   0  0  0  0  0  0  0  0  0  0  0  0
   22.9095  -12.4450  -17.6451 C   0  0  2  0  0  0  0  0  0  0  0  0
   23.8345  -13.5436  -17.5073 N   0  0  0  0  0  0  0  0  0  0  0  0
   21.4863  -12.8475  -17.6631 C   0  0  0  0  0  0  0  0  0  0  0  0
   21.1575  -13.7903  -18.4241 O   0  0  0  0  0  0  0  0  0  0  0  0
   13.9849  -10.6311  -12.8909 N   0  0  0  0  0  0  0  0  0  0  0  0
   13.6532  -11.4847  -13.9847 C   0  0  0  0  0  0  0  0  0  0  0  0
   12.4185  -11.8831  -14.1283 N   0  0  0  0  0  0  0  0  0  0  0  0
   14.6096  -11.9234  -14.9291 N   0  0  0  0  0  0  0  0  0  0  0  0
   16.0422  -11.5580  -14.7034 C   0  0  0  0  0  0  0  0  0  0  0  0
   16.8562  -12.1905  -15.7648 C   0  0  0  0  0  0  0  0  0  0  0  0
   18.2892  -12.0552  -15.8879 C   0  0  0  0  0  0  0  0  0  0  0  0
   19.0484  -12.7023  -16.9459 C   0  0  2  0  0  0  0  0  0  0  0  0
   20.4774  -12.2436  -16.8856 N   0  0  0  0  0  0  0  0  0  0  0  0
   18.6157  -12.4691  -18.3092 C   0  0  0  0  0  0  0  0  0  0  0  0
   18.0184  -13.4832  -18.8858 O   0  0  0  0  0  0  0  0  0  0  0  0
   18.7100  -11.3705  -19.1200 O   0  0  0  0  0  0  0  0  0  0  0  0
  2  1  1  6
  2  3  1  0
  4  2  1  0
  4  5  1  1
  6  4  1  0
  6 12  1  0
  7  6  2  0
  9  8  1  1
 10  9  1  0
 11 12  1  6
 11  9  1  0
 13 11  1  0
 14 13  2  0
 16 17  2  0
 16 15  1  0
 18 16  1  0
 19 18  1  0
 20 21  1  0
 20 19  1  0
 22 21  1  1
 22 24  1  0
 22 23  1  0
 23 13  1  0
 24 26  1  0
 25 24  2  0
M  END
$$$$
