TTR.pdb
     RDKit          3D

 26 25  0  0  1  0  0  0  0  0999 V2000
   28.1234  -15.5667  -17.2750 C   0  0  0  0  0  0  0  0  0  0  0  0
   27.7806  -14.2933  -16.5222 C   0  0  1  0  0  0  0  0  0  0  0  0
   28.7905  -13.3723  -16.9511 O   0  0  0  0  0  0  0  0  0  0  0  0
   26.4933  -13.7010  -16.9830 C   0  0  2  0  0  0  0  0  0  0  0  0
   26.6122  -13.5313  -18.4478 N   0  0  0  0  0  0  0  0  0  0  0  0
   26.1254  -12.4047  -16.3769 C   0  0  0  0  0  0  0  0  0  0  0  0
   25.8803  -12.3181  -15.1165 O   0  0  0  0  0  0  0  0  0  0  0  0
   26.5245   -8.3773  -18.2052 C   0  0  0  0  0  0  0  0  0  0  0  0
   26.6203   -8.7987  -16.7765 C   0  0  1  0  0  0  0  0  0  0  0  0
   26.2808   -7.6823  -15.9926 O   0  0  0  0  0  0  0  0  0  0  0  0
   25.6990   -9.9137  -16.4016 C   0  0  2  0  0  0  0  0  0  0  0  0
   26.0025  -11.1684  -17.0457 N   0  0  0  0  0  0  0  0  0  0  0  0
   24.2773   -9.5146  -16.4880 C   0  0  0  0  0  0  0  0  0  0  0  0
   23.7902   -9.3394  -17.6318 O   0  0  0  0  0  0  0  0  0  0  0  0
   16.1392  -11.5737  -15.7872 N   0  0  0  0  0  0  0  0  0  0  0  0
   16.1922  -10.1821  -15.4776 C   0  0  0  0  0  0  0  0  0  0  0  0
   15.1318   -9.4467  -15.6735 N   0  0  0  0  0  0  0  0  0  0  0  0
   17.3516   -9.5572  -14.9637 N   0  0  0  0  0  0  0  0  0  0  0  0
   18.6673  -10.2405  -15.1615 C   0  0  0  0  0  0  0  0  0  0  0  0
   19.7270   -9.3859  -14.5821 C   0  0  0  0  0  0  0  0  0  0  0  0
   21.1433   -9.6452  -14.6990 C   0  0  0  0  0  0  0  0  0  0  0  0
   22.0222   -8.8324  -15.5246 C   0  0  2  0  0  0  0  0  0  0  0  0
   23.4358   -9.3174  -15.3744 N   0  0  0  0  0  0  0  0  0  0  0  0
   22.0610   -7.4101  -15.2496 C   0  0  0  0  0  0  0  0  0  0  0  0
   21.1475   -6.6984  -15.8634 O   0  0  0  0  0  0  0  0  0  0  0  0
   22.8815   -6.6579  -14.4532 O   0  0  0  0  0  0  0  0  0  0  0  0
  2  1  1  6
  2  3  1  0
  4  2  1  0
  4  5  1  6
  6  4  1  0
  6 12  1  0
  7  6  2  0
  9  8  1  6
 10  9  1  0
 11 12  1  6
 11  9  1  0
 13 11  1  0
 14 13  2  0
 16 17  2  0
 16 15  1  0
 18 16  1  0
 19 18  1  0
 20 21  1  0
 20 19  1  0
 22 21  1  1
 22 24  1  0
 22 23  1  0
 23 13  1  0
 24 26  1  0
 25 24  2  0
M  END
$$$$
