TTR.pdb
     RDKit          3D

 26 25  0  0  1  0  0  0  0  0999 V2000
   26.8308  -21.1567  -17.6182 C   0  0  0  0  0  0  0  0  0  0  0  0
   27.5090  -19.8449  -17.9721 C   0  0  1  0  0  0  0  0  0  0  0  0
   28.2811  -20.1733  -19.1332 O   0  0  0  0  0  0  0  0  0  0  0  0
   26.5329  -18.8175  -18.4321 C   0  0  2  0  0  0  0  0  0  0  0  0
   27.3287  -17.6412  -18.8466 N   0  0  0  0  0  0  0  0  0  0  0  0
   25.5270  -18.3913  -17.4372 C   0  0  0  0  0  0  0  0  0  0  0  0
   25.6748  -17.2898  -16.7884 O   0  0  0  0  0  0  0  0  0  0  0  0
   22.5429  -16.7039  -17.5111 C   0  0  0  0  0  0  0  0  0  0  0  0
   22.2023  -17.9244  -16.7224 C   0  0  1  0  0  0  0  0  0  0  0  0
   21.5829  -18.8270  -17.6044 O   0  0  0  0  0  0  0  0  0  0  0  0
   23.3819  -18.6158  -16.1198 C   0  0  2  0  0  0  0  0  0  0  0  0
   24.3471  -19.0807  -17.0861 N   0  0  0  0  0  0  0  0  0  0  0  0
   22.9823  -19.6325  -15.1225 C   0  0  0  0  0  0  0  0  0  0  0  0
   22.7643  -20.7981  -15.5346 O   0  0  0  0  0  0  0  0  0  0  0  0
   26.7708  -19.4058  -11.8167 N   0  0  0  0  0  0  0  0  0  0  0  0
   26.9035  -20.7180  -11.2728 C   0  0  0  0  0  0  0  0  0  0  0  0
   27.8722  -21.4851  -11.6931 N   0  0  0  0  0  0  0  0  0  0  0  0
   26.0253  -21.2304  -10.2905 N   0  0  0  0  0  0  0  0  0  0  0  0
   24.8930  -20.3651   -9.8366 C   0  0  0  0  0  0  0  0  0  0  0  0
   23.6571  -20.8272  -10.5059 C   0  0  0  0  0  0  0  0  0  0  0  0
   22.8745  -20.0297  -11.4216 C   0  0  0  0  0  0  0  0  0  0  0  0
   22.5409  -20.4801  -12.7634 C   0  0  2  0  0  0  0  0  0  0  0  0
   22.8292  -19.3797  -13.7442 N   0  0  0  0  0  0  0  0  0  0  0  0
   21.1685  -20.8768  -13.0067 C   0  0  0  0  0  0  0  0  0  0  0  0
   20.3087  -19.8908  -13.0856 O   0  0  0  0  0  0  0  0  0  0  0  0
   20.5917  -22.1063  -13.1774 O   0  0  0  0  0  0  0  0  0  0  0  0
  2  1  1  6
  2  3  1  0
  4  2  1  0
  4  5  1  1
  6  4  1  0
  6 12  1  0
  7  6  2  0
  9  8  1  6
 10  9  1  0
 11 12  1  6
 11  9  1  0
 13 11  1  0
 14 13  2  0
 16 17  2  0
 16 15  1  0
 18 16  1  0
 19 18  1  0
 20 21  1  0
 20 19  1  0
 22 21  1  1
 22 24  1  0
 22 23  1  0
 23 13  1  0
 24 26  1  0
 25 24  2  0
M  END
$$$$
