TTR.pdb
     RDKit          3D

 26 25  0  0  1  0  0  0  0  0999 V2000
   15.4206  -14.0670  -13.7587 C   0  0  0  0  0  0  0  0  0  0  0  0
   15.9646  -13.5170  -15.0654 C   0  0  1  0  0  0  0  0  0  0  0  0
   15.1816  -14.1884  -16.0595 O   0  0  0  0  0  0  0  0  0  0  0  0
   15.6519  -12.0702  -15.2359 C   0  0  2  0  0  0  0  0  0  0  0  0
   15.6874  -11.8038  -16.6907 N   0  0  0  0  0  0  0  0  0  0  0  0
   16.5617  -11.1280  -14.5521 C   0  0  0  0  0  0  0  0  0  0  0  0
   16.8018  -11.2477  -13.2935 O   0  0  0  0  0  0  0  0  0  0  0  0
   20.2610  -10.0062  -15.3062 C   0  0  0  0  0  0  0  0  0  0  0  0
   19.3830   -8.8163  -15.1032 C   0  0  1  0  0  0  0  0  0  0  0  0
   19.0861   -8.2997  -16.3764 O   0  0  0  0  0  0  0  0  0  0  0  0
   18.0877   -9.1174  -14.4221 C   0  0  2  0  0  0  0  0  0  0  0  0
   17.2477  -10.0446  -15.1407 N   0  0  0  0  0  0  0  0  0  0  0  0
   17.3942   -7.8895  -13.9760 C   0  0  0  0  0  0  0  0  0  0  0  0
   16.4613   -7.4540  -14.6945 O   0  0  0  0  0  0  0  0  0  0  0  0
   14.3755   -5.3615   -6.2560 N   0  0  0  0  0  0  0  0  0  0  0  0
   13.4847   -5.5642   -7.3517 C   0  0  0  0  0  0  0  0  0  0  0  0
   12.2055   -5.6773   -7.1183 N   0  0  0  0  0  0  0  0  0  0  0  0
   13.9283   -5.6494   -8.6915 N   0  0  0  0  0  0  0  0  0  0  0  0
   15.4007   -5.6074   -8.9507 C   0  0  0  0  0  0  0  0  0  0  0  0
   15.6190   -5.7070  -10.4106 C   0  0  0  0  0  0  0  0  0  0  0  0
   16.9167   -5.7271  -11.0451 C   0  0  0  0  0  0  0  0  0  0  0  0
   17.0822   -5.8506  -12.4845 C   0  0  2  0  0  0  0  0  0  0  0  0
   17.7111   -7.1772  -12.8015 N   0  0  0  0  0  0  0  0  0  0  0  0
   17.9040   -4.8559  -13.1444 C   0  0  0  0  0  0  0  0  0  0  0  0
   19.1650   -5.1819  -13.2899 O   0  0  0  0  0  0  0  0  0  0  0  0
   17.6063   -3.6223  -13.6572 O   0  0  0  0  0  0  0  0  0  0  0  0
  2  1  1  1
  2  3  1  0
  4  2  1  0
  4  5  1  6
  6  4  1  0
  6 12  1  0
  7  6  2  0
  9  8  1  6
 10  9  1  0
 11 12  1  6
 11  9  1  0
 13 11  1  0
 14 13  2  0
 16 17  2  0
 16 15  1  0
 18 16  1  0
 19 18  1  0
 20 21  1  0
 20 19  1  0
 22 21  1  1
 22 24  1  0
 22 23  1  0
 23 13  1  0
 24 26  1  0
 25 24  2  0
M  END
$$$$
