TTR.pdb
     RDKit          3D

 26 25  0  0  1  0  0  0  0  0999 V2000
   26.4235  -33.9621  -17.0681 C   0  0  0  0  0  0  0  0  0  0  0  0
   27.1356  -33.5156  -15.8034 C   0  0  1  0  0  0  0  0  0  0  0  0
   27.8967  -34.6691  -15.4264 O   0  0  0  0  0  0  0  0  0  0  0  0
   28.1461  -32.4551  -16.0758 C   0  0  2  0  0  0  0  0  0  0  0  0
   28.7528  -32.1111  -14.7712 N   0  0  0  0  0  0  0  0  0  0  0  0
   27.6334  -31.2219  -16.7080 C   0  0  0  0  0  0  0  0  0  0  0  0
   27.1254  -30.2818  -15.9907 O   0  0  0  0  0  0  0  0  0  0  0  0
   27.3052  -28.0049  -20.4998 C   0  0  0  0  0  0  0  0  0  0  0  0
   27.8269  -29.2701  -19.9040 C   0  0  1  0  0  0  0  0  0  0  0  0
   29.1749  -29.0462  -19.5736 O   0  0  0  0  0  0  0  0  0  0  0  0
   27.1202  -29.7007  -18.6600 C   0  0  2  0  0  0  0  0  0  0  0  0
   27.6314  -30.9220  -18.0867 N   0  0  0  0  0  0  0  0  0  0  0  0
   25.6495  -29.6718  -18.8162 C   0  0  0  0  0  0  0  0  0  0  0  0
   25.1242  -30.5489  -19.5447 O   0  0  0  0  0  0  0  0  0  0  0  0
   18.5718  -26.6181  -14.0283 N   0  0  0  0  0  0  0  0  0  0  0  0
   18.1269  -27.1848  -15.2596 C   0  0  0  0  0  0  0  0  0  0  0  0
   16.8456  -27.2970  -15.4814 N   0  0  0  0  0  0  0  0  0  0  0  0
   19.0189  -27.6352  -16.2599 N   0  0  0  0  0  0  0  0  0  0  0  0
   20.4867  -27.5540  -15.9842 C   0  0  0  0  0  0  0  0  0  0  0  0
   21.2100  -28.1128  -17.1476 C   0  0  0  0  0  0  0  0  0  0  0  0
   22.6476  -28.2178  -17.2447 C   0  0  0  0  0  0  0  0  0  0  0  0
   23.3166  -28.7302  -18.4298 C   0  0  2  0  0  0  0  0  0  0  0  0
   24.8015  -28.7267  -18.2042 N   0  0  0  0  0  0  0  0  0  0  0  0
   23.1039  -28.0145  -19.6719 C   0  0  0  0  0  0  0  0  0  0  0  0
   23.8045  -26.9155  -19.8091 O   0  0  0  0  0  0  0  0  0  0  0  0
   22.3002  -28.2763  -20.7484 O   0  0  0  0  0  0  0  0  0  0  0  0
  2  1  1  6
  2  3  1  0
  4  2  1  0
  4  5  1  1
  6  4  1  0
  6 12  1  0
  7  6  2  0
  9  8  1  1
 10  9  1  0
 11 12  1  6
 11  9  1  0
 13 11  1  0
 14 13  2  0
 16 17  2  0
 16 15  1  0
 18 16  1  0
 19 18  1  0
 20 21  1  0
 20 19  1  0
 22 21  1  1
 22 24  1  0
 22 23  1  0
 23 13  1  0
 24 26  1  0
 25 24  2  0
M  END
$$$$
