TTR.pdb
     RDKit          3D

 26 25  0  0  1  0  0  0  0  0999 V2000
   25.1094  -15.2882  -17.7364 C   0  0  0  0  0  0  0  0  0  0  0  0
   25.6210  -16.2959  -18.7506 C   0  0  1  0  0  0  0  0  0  0  0  0
   26.9357  -15.8180  -19.0591 O   0  0  0  0  0  0  0  0  0  0  0  0
   25.8285  -17.6416  -18.1455 C   0  0  2  0  0  0  0  0  0  0  0  0
   26.5210  -18.4569  -19.1674 N   0  0  0  0  0  0  0  0  0  0  0  0
   24.6065  -18.3501  -17.7120 C   0  0  0  0  0  0  0  0  0  0  0  0
   23.5384  -18.3103  -18.4288 O   0  0  0  0  0  0  0  0  0  0  0  0
   22.1776  -21.5909  -14.7654 C   0  0  0  0  0  0  0  0  0  0  0  0
   23.4393  -20.9546  -15.2461 C   0  0  1  0  0  0  0  0  0  0  0  0
   24.1442  -21.9308  -15.9716 O   0  0  0  0  0  0  0  0  0  0  0  0
   23.2311  -19.7812  -16.1474 C   0  0  2  0  0  0  0  0  0  0  0  0
   24.4508  -19.1166  -16.5377 N   0  0  0  0  0  0  0  0  0  0  0  0
   22.1779  -18.8724  -15.6447 C   0  0  0  0  0  0  0  0  0  0  0  0
   22.5415  -17.8706  -14.9812 O   0  0  0  0  0  0  0  0  0  0  0  0
   16.3363  -14.0302  -18.6874 N   0  0  0  0  0  0  0  0  0  0  0  0
   16.3833  -13.5672  -17.3388 C   0  0  0  0  0  0  0  0  0  0  0  0
   15.4141  -12.8169  -16.8903 N   0  0  0  0  0  0  0  0  0  0  0  0
   17.4419  -13.8865  -16.4577 N   0  0  0  0  0  0  0  0  0  0  0  0
   18.5543  -14.7431  -16.9733 C   0  0  0  0  0  0  0  0  0  0  0  0
   18.7391  -15.8766  -16.0405 C   0  0  0  0  0  0  0  0  0  0  0  0
   19.7019  -16.9382  -16.2225 C   0  0  0  0  0  0  0  0  0  0  0  0
   19.7765  -18.0877  -15.3350 C   0  0  2  0  0  0  0  0  0  0  0  0
   20.7970  -19.0567  -15.8598 N   0  0  0  0  0  0  0  0  0  0  0  0
   18.5631  -18.8566  -15.1438 C   0  0  0  0  0  0  0  0  0  0  0  0
   18.5270  -20.0065  -15.7715 O   0  0  0  0  0  0  0  0  0  0  0  0
   17.4311  -18.6071  -14.4159 O   0  0  0  0  0  0  0  0  0  0  0  0
  2  1  1  1
  2  3  1  0
  4  2  1  0
  4  5  1  6
  6  4  1  0
  6 12  1  0
  7  6  2  0
  9  8  1  6
 10  9  1  0
 11 12  1  1
 11  9  1  0
 13 11  1  0
 14 13  2  0
 16 17  2  0
 16 15  1  0
 18 16  1  0
 19 18  1  0
 20 21  1  0
 20 19  1  0
 22 21  1  6
 22 24  1  0
 22 23  1  0
 23 13  1  0
 24 26  1  0
 25 24  2  0
M  END
$$$$
