TTR.pdb
     RDKit          3D

 26 25  0  0  1  0  0  0  0  0999 V2000
   27.1619  -20.7703   -8.1020 C   0  0  0  0  0  0  0  0  0  0  0  0
   26.8231  -20.5383   -9.5640 C   0  0  1  0  0  0  0  0  0  0  0  0
   27.0424  -21.8210  -10.1629 O   0  0  0  0  0  0  0  0  0  0  0  0
   25.3734  -20.2586   -9.7641 C   0  0  2  0  0  0  0  0  0  0  0  0
   24.6407  -21.3734   -9.1247 N   0  0  0  0  0  0  0  0  0  0  0  0
   24.9278  -20.1323  -11.1672 C   0  0  0  0  0  0  0  0  0  0  0  0
   25.0398  -19.0121  -11.7906 O   0  0  0  0  0  0  0  0  0  0  0  0
   24.2285  -23.3281  -14.1529 C   0  0  0  0  0  0  0  0  0  0  0  0
   24.6035  -21.8909  -14.3009 C   0  0  1  0  0  0  0  0  0  0  0  0
   24.2225  -21.4955  -15.5950 O   0  0  0  0  0  0  0  0  0  0  0  0
   23.9294  -20.9768  -13.3301 C   0  0  2  0  0  0  0  0  0  0  0  0
   24.3606  -21.1492  -11.9641 N   0  0  0  0  0  0  0  0  0  0  0  0
   22.4609  -20.9617  -13.5064 C   0  0  0  0  0  0  0  0  0  0  0  0
   21.7802  -21.7336  -12.7875 O   0  0  0  0  0  0  0  0  0  0  0  0
   16.0266  -15.0720  -14.8340 N   0  0  0  0  0  0  0  0  0  0  0  0
   17.2720  -15.1290  -14.1406 C   0  0  0  0  0  0  0  0  0  0  0  0
   17.4948  -14.2917  -13.1644 N   0  0  0  0  0  0  0  0  0  0  0  0
   18.2857  -16.0595  -14.4656 N   0  0  0  0  0  0  0  0  0  0  0  0
   18.0004  -17.0693  -15.5313 C   0  0  0  0  0  0  0  0  0  0  0  0
   18.4721  -18.3897  -15.0590 C   0  0  0  0  0  0  0  0  0  0  0  0
   19.8611  -18.7682  -14.9392 C   0  0  0  0  0  0  0  0  0  0  0  0
   20.2770  -20.0814  -14.4732 C   0  0  2  0  0  0  0  0  0  0  0  0
   21.7771  -20.1412  -14.4264 N   0  0  0  0  0  0  0  0  0  0  0  0
   19.8603  -21.2256  -15.2590 C   0  0  0  0  0  0  0  0  0  0  0  0
   20.6532  -21.5366  -16.2550 O   0  0  0  0  0  0  0  0  0  0  0  0
   18.7801  -22.0594  -15.1528 O   0  0  0  0  0  0  0  0  0  0  0  0
  2  1  1  1
  2  3  1  0
  4  2  1  0
  4  5  1  6
  6  4  1  0
  6 12  1  0
  7  6  2  0
  9  8  1  1
 10  9  1  0
 11 12  1  1
 11  9  1  0
 13 11  1  0
 14 13  2  0
 16 17  2  0
 16 15  1  0
 18 16  1  0
 19 18  1  0
 20 21  1  0
 20 19  1  0
 22 21  1  6
 22 24  1  0
 22 23  1  0
 23 13  1  0
 24 26  1  0
 25 24  2  0
M  END
$$$$
