TTR.pdb
     RDKit          3D

 26 25  0  0  1  0  0  0  0  0999 V2000
   21.7639  -14.8691  -18.2812 C   0  0  0  0  0  0  0  0  0  0  0  0
   22.6291  -15.6219  -17.2859 C   0  0  1  0  0  0  0  0  0  0  0  0
   22.8551  -16.8818  -17.9291 O   0  0  0  0  0  0  0  0  0  0  0  0
   23.9801  -15.0097  -17.1446 C   0  0  2  0  0  0  0  0  0  0  0  0
   24.7998  -15.9774  -16.3830 N   0  0  0  0  0  0  0  0  0  0  0  0
   24.0271  -13.6990  -16.4640 C   0  0  0  0  0  0  0  0  0  0  0  0
   23.0628  -13.3247  -15.6985 O   0  0  0  0  0  0  0  0  0  0  0  0
   26.2947   -9.3453  -15.3805 C   0  0  0  0  0  0  0  0  0  0  0  0
   26.3021  -10.6703  -16.0677 C   0  0  1  0  0  0  0  0  0  0  0  0
   27.3298  -11.4324  -15.4850 O   0  0  0  0  0  0  0  0  0  0  0  0
   25.0302  -11.4418  -15.9288 C   0  0  2  0  0  0  0  0  0  0  0  0
   25.0621  -12.7439  -16.5494 N   0  0  0  0  0  0  0  0  0  0  0  0
   23.8448  -10.6299  -16.2805 C   0  0  0  0  0  0  0  0  0  0  0  0
   23.5516  -10.5241  -17.4966 O   0  0  0  0  0  0  0  0  0  0  0  0
   15.3203  -10.3244  -14.2111 N   0  0  0  0  0  0  0  0  0  0  0  0
   15.6193   -9.1885  -15.0207 C   0  0  0  0  0  0  0  0  0  0  0  0
   14.6378   -8.4864  -15.5181 N   0  0  0  0  0  0  0  0  0  0  0  0
   16.9426   -8.7848  -15.3121 N   0  0  0  0  0  0  0  0  0  0  0  0
   18.0624   -9.6828  -14.8918 C   0  0  0  0  0  0  0  0  0  0  0  0
   19.3293   -9.1190  -15.4076 C   0  0  0  0  0  0  0  0  0  0  0  0
   20.6289   -9.7228  -15.2244 C   0  0  0  0  0  0  0  0  0  0  0  0
   21.8459   -9.1403  -15.7665 C   0  0  2  0  0  0  0  0  0  0  0  0
   23.0257   -9.9681  -15.3435 N   0  0  0  0  0  0  0  0  0  0  0  0
   22.1586   -7.7794  -15.3787 C   0  0  0  0  0  0  0  0  0  0  0  0
   23.0090   -7.6633  -14.3883 O   0  0  0  0  0  0  0  0  0  0  0  0
   21.7305   -6.5727  -15.8623 O   0  0  0  0  0  0  0  0  0  0  0  0
  2  1  1  6
  2  3  1  0
  4  2  1  0
  4  5  1  1
  6  4  1  0
  6 12  1  0
  7  6  2  0
  9  8  1  1
 10  9  1  0
 11 12  1  6
 11  9  1  0
 13 11  1  0
 14 13  2  0
 16 17  2  0
 16 15  1  0
 18 16  1  0
 19 18  1  0
 20 21  1  0
 20 19  1  0
 22 21  1  1
 22 24  1  0
 22 23  1  0
 23 13  1  0
 24 26  1  0
 25 24  2  0
M  END
$$$$
