TTR.pdb
     RDKit          3D

 26 25  0  0  1  0  0  0  0  0999 V2000
   34.8828  -12.7023  -18.8387 C   0  0  0  0  0  0  0  0  0  0  0  0
   33.4621  -13.1923  -19.0563 C   0  0  1  0  0  0  0  0  0  0  0  0
   33.0771  -13.6780  -17.7648 O   0  0  0  0  0  0  0  0  0  0  0  0
   32.5230  -12.0725  -19.3462 C   0  0  2  0  0  0  0  0  0  0  0  0
   32.7482  -11.0557  -18.2955 N   0  0  0  0  0  0  0  0  0  0  0  0
   31.0882  -12.4241  -19.3755 C   0  0  0  0  0  0  0  0  0  0  0  0
   30.6410  -13.2762  -20.2299 O   0  0  0  0  0  0  0  0  0  0  0  0
   28.1216  -11.9159  -16.2054 C   0  0  0  0  0  0  0  0  0  0  0  0
   28.1055  -12.8358  -17.3807 C   0  0  1  0  0  0  0  0  0  0  0  0
   26.7606  -13.1539  -17.6383 O   0  0  0  0  0  0  0  0  0  0  0  0
   28.6800  -12.2485  -18.6287 C   0  0  2  0  0  0  0  0  0  0  0  0
   30.0800  -11.9142  -18.5303 N   0  0  0  0  0  0  0  0  0  0  0  0
   27.8337  -11.1657  -19.1758 C   0  0  0  0  0  0  0  0  0  0  0  0
   27.9351  -10.0280  -18.6549 O   0  0  0  0  0  0  0  0  0  0  0  0
   22.3332  -11.1697  -26.1357 N   0  0  0  0  0  0  0  0  0  0  0  0
   22.6055  -11.9077  -24.9456 C   0  0  0  0  0  0  0  0  0  0  0  0
   22.2416  -13.1593  -24.8766 N   0  0  0  0  0  0  0  0  0  0  0  0
   23.2572  -11.3400  -23.8267 N   0  0  0  0  0  0  0  0  0  0  0  0
   23.9145  -10.0071  -23.9949 C   0  0  0  0  0  0  0  0  0  0  0  0
   24.5990   -9.6630  -22.7292 C   0  0  0  0  0  0  0  0  0  0  0  0
   25.3904  -10.5861  -21.9491 C   0  0  0  0  0  0  0  0  0  0  0  0
   26.0455  -10.2014  -20.7092 C   0  0  2  0  0  0  0  0  0  0  0  0
   26.9227  -11.3265  -20.2395 N   0  0  0  0  0  0  0  0  0  0  0  0
   25.1932   -9.8691  -19.5852 C   0  0  0  0  0  0  0  0  0  0  0  0
   24.9481   -8.5911  -19.4300 O   0  0  0  0  0  0  0  0  0  0  0  0
   24.5818  -10.6510  -18.6427 O   0  0  0  0  0  0  0  0  0  0  0  0
  2  1  1  1
  2  3  1  0
  4  2  1  0
  4  5  1  1
  6  4  1  0
  6 12  1  0
  7  6  2  0
  9  8  1  1
 10  9  1  0
 11 12  1  1
 11  9  1  0
 13 11  1  0
 14 13  2  0
 16 17  2  0
 16 15  1  0
 18 16  1  0
 19 18  1  0
 20 21  1  0
 20 19  1  0
 22 21  1  6
 22 24  1  0
 22 23  1  0
 23 13  1  0
 24 26  1  0
 25 24  2  0
M  END
$$$$
