TTR.pdb
     RDKit          3D

 26 25  0  0  1  0  0  0  0  0999 V2000
   24.3001   -9.1638  -19.5764 C   0  0  0  0  0  0  0  0  0  0  0  0
   23.2927   -8.5780  -18.6028 C   0  0  1  0  0  0  0  0  0  0  0  0
   22.2115   -9.5171  -18.6390 O   0  0  0  0  0  0  0  0  0  0  0  0
   23.7889   -8.6104  -17.1982 C   0  0  2  0  0  0  0  0  0  0  0  0
   24.1043  -10.0245  -16.8991 N   0  0  0  0  0  0  0  0  0  0  0  0
   22.8572   -8.0981  -16.1723 C   0  0  0  0  0  0  0  0  0  0  0  0
   22.0611   -8.8980  -15.5539 O   0  0  0  0  0  0  0  0  0  0  0  0
   20.8993   -4.4163  -13.3801 C   0  0  0  0  0  0  0  0  0  0  0  0
   21.9860   -4.9451  -14.2561 C   0  0  1  0  0  0  0  0  0  0  0  0
   23.1298   -5.0927  -13.4522 O   0  0  0  0  0  0  0  0  0  0  0  0
   21.6883   -6.2741  -14.8704 C   0  0  2  0  0  0  0  0  0  0  0  0
   22.7210   -6.7572  -15.7545 N   0  0  0  0  0  0  0  0  0  0  0  0
   20.3246   -6.3315  -15.4404 C   0  0  0  0  0  0  0  0  0  0  0  0
   20.1459   -5.8241  -16.5748 O   0  0  0  0  0  0  0  0  0  0  0  0
   13.0733  -11.7074  -14.5564 N   0  0  0  0  0  0  0  0  0  0  0  0
   12.7057  -10.5171  -15.2514 C   0  0  0  0  0  0  0  0  0  0  0  0
   11.5069  -10.4220  -15.7590 N   0  0  0  0  0  0  0  0  0  0  0  0
   13.5888   -9.4256  -15.4176 N   0  0  0  0  0  0  0  0  0  0  0  0
   14.9994   -9.5817  -14.9458 C   0  0  0  0  0  0  0  0  0  0  0  0
   15.7516   -8.3629  -15.3168 C   0  0  0  0  0  0  0  0  0  0  0  0
   17.1432   -8.1327  -15.0049 C   0  0  0  0  0  0  0  0  0  0  0  0
   17.8517   -6.9345  -15.4253 C   0  0  2  0  0  0  0  0  0  0  0  0
   19.2153   -6.9154  -14.7958 N   0  0  0  0  0  0  0  0  0  0  0  0
   17.2475   -5.6586  -15.0980 C   0  0  0  0  0  0  0  0  0  0  0  0
   16.3644   -5.2218  -15.9622 O   0  0  0  0  0  0  0  0  0  0  0  0
   17.4240   -4.8121  -14.0371 O   0  0  0  0  0  0  0  0  0  0  0  0
  2  1  1  6
  2  3  1  0
  4  2  1  0
  4  5  1  1
  6  4  1  0
  6 12  1  0
  7  6  2  0
  9  8  1  1
 10  9  1  0
 11 12  1  6
 11  9  1  0
 13 11  1  0
 14 13  2  0
 16 17  2  0
 16 15  1  0
 18 16  1  0
 19 18  1  0
 20 21  1  0
 20 19  1  0
 22 21  1  1
 22 24  1  0
 22 23  1  0
 23 13  1  0
 24 26  1  0
 25 24  2  0
M  END
$$$$
