NIH.pdb
     RDKit          3D

 27 27  0  0  1  0  0  0  0  0999 V2000
    6.5758  -16.8509   19.7453 N   0  0  0  0  0  0  0  0  0  0  0  0
    7.0211  -17.7192   20.7862 C   0  0  0  0  0  0  0  0  0  0  0  0
    6.8353  -18.9446   20.6993 O   0  0  0  0  0  0  0  0  0  0  0  0
    7.6924  -17.1385   21.9425 C   0  0  0  0  0  0  0  0  0  0  0  0
    7.6646  -15.6318   21.8661 C   0  0  2  0  0  0  0  0  0  0  0  0
    8.3154  -15.2153   20.6246 N   0  0  0  0  0  0  0  0  0  0  0  0
    8.3760  -15.0790   23.0301 C   0  0  0  0  0  0  0  0  0  0  0  0
    9.6398  -14.9104   22.9671 O   0  0  0  0  0  0  0  0  0  0  0  0
    5.5773  -11.6428   26.0029 C   0  0  0  0  0  0  0  0  0  0  0  0
    6.7439  -12.2508   25.2723 C   0  0  0  0  0  0  0  0  0  0  0  0
    7.3008  -13.3786   26.1303 C   0  0  2  0  0  0  0  0  0  0  0  0
    7.8759  -12.7483   27.3582 C   0  0  0  0  0  0  0  0  0  0  0  0
    8.3306  -14.1726   25.3147 C   0  0  2  0  0  0  0  0  0  0  0  0
    7.6386  -14.7514   24.1834 N   0  0  0  0  0  0  0  0  0  0  0  0
    8.8230  -15.3641   26.0993 C   0  0  0  0  0  0  0  0  0  0  0  0
    8.0700  -16.3802   26.2928 O   0  0  0  0  0  0  0  0  0  0  0  0
   10.1155  -15.4362   26.6556 N   0  0  0  0  0  0  0  0  0  0  0  0
   10.5804  -16.7322   27.1579 C   0  0  1  0  0  0  0  0  0  0  0  0
   11.8427  -17.1539   26.4630 C   0  0  0  0  0  0  0  0  0  0  0  0
   12.3168  -18.4191   27.0599 C   0  0  0  0  0  0  0  0  0  0  0  0
   11.5057  -19.5240   27.3198 C   0  0  0  0  0  0  0  0  0  0  0  0
   12.2440  -20.5037   27.8606 N   0  0  0  0  0  0  0  0  0  0  0  0
   13.5030  -20.0594   27.9547 C   0  0  0  0  0  0  0  0  0  0  0  0
   13.5481  -18.7961   27.4697 N   0  0  0  0  0  0  0  0  0  0  0  0
   10.7236  -16.5638   28.6240 C   0  0  0  0  0  0  0  0  0  0  0  0
   10.6395  -15.4607   29.2223 O   0  0  0  0  0  0  0  0  0  0  0  0
   10.9648  -17.6852   29.3954 O   0  0  0  0  0  0  0  0  0  0  0  0
  2  1  1  0
  2  3  2  0
  4  5  1  0
  4  2  1  0
  5  7  1  0
  5  6  1  6
  7  8  2  0
  9 10  1  0
 10 11  1  0
 11 13  1  0
 11 12  1  1
 13 14  1  6
 14  7  1  0
 15 16  2  0
 15 13  1  0
 17 15  1  0
 18 25  1  0
 18 17  1  0
 18 19  1  6
 20 19  1  0
 21 20  2  0
 22 21  1  0
 23 22  1  0
 23 24  2  0
 24 20  1  0
 25 27  1  0
 26 25  2  0
M  END
$$$$
