NIH.pdb
     RDKit          3D

 27 27  0  0  1  0  0  0  0  0999 V2000
    5.7366  -17.5070   19.9481 N   0  0  0  0  0  0  0  0  0  0  0  0
    7.0565  -16.9846   19.8049 C   0  0  0  0  0  0  0  0  0  0  0  0
    7.5257  -16.7749   18.6738 O   0  0  0  0  0  0  0  0  0  0  0  0
    7.8330  -16.7059   21.0068 C   0  0  0  0  0  0  0  0  0  0  0  0
    7.8090  -15.2299   21.3189 C   0  0  2  0  0  0  0  0  0  0  0  0
    8.4839  -14.5130   20.2377 N   0  0  0  0  0  0  0  0  0  0  0  0
    8.4991  -14.9986   22.5983 C   0  0  0  0  0  0  0  0  0  0  0  0
    9.7739  -15.0525   22.6388 O   0  0  0  0  0  0  0  0  0  0  0  0
    6.0561  -11.7179   26.1437 C   0  0  0  0  0  0  0  0  0  0  0  0
    7.1539  -12.3536   25.3343 C   0  0  0  0  0  0  0  0  0  0  0  0
    7.4298  -13.7332   25.9165 C   0  0  2  0  0  0  0  0  0  0  0  0
    7.9566  -13.5244   27.3002 C   0  0  0  0  0  0  0  0  0  0  0  0
    8.4071  -14.4820   24.9999 C   0  0  2  0  0  0  0  0  0  0  0  0
    7.7296  -14.7239   23.7444 N   0  0  0  0  0  0  0  0  0  0  0  0
    8.6902  -15.8618   25.5420 C   0  0  0  0  0  0  0  0  0  0  0  0
    7.7884  -16.7693   25.5327 O   0  0  0  0  0  0  0  0  0  0  0  0
    9.9384  -16.2345   26.0793 N   0  0  0  0  0  0  0  0  0  0  0  0
   10.1307  -17.6325   26.4751 C   0  0  1  0  0  0  0  0  0  0  0  0
   11.1473  -18.3024   25.5966 C   0  0  0  0  0  0  0  0  0  0  0  0
   11.3996  -19.6641   26.1105 C   0  0  0  0  0  0  0  0  0  0  0  0
   10.5189  -20.3788   26.9227 C   0  0  0  0  0  0  0  0  0  0  0  0
   11.0475  -21.5770   27.2100 N   0  0  0  0  0  0  0  0  0  0  0  0
   12.2396  -21.6508   26.6062 C   0  0  0  0  0  0  0  0  0  0  0  0
   12.4539  -20.4919   25.9396 N   0  0  0  0  0  0  0  0  0  0  0  0
   10.5022  -17.5934   27.9099 C   0  0  0  0  0  0  0  0  0  0  0  0
   10.7567  -16.5397   28.5477 O   0  0  0  0  0  0  0  0  0  0  0  0
   10.5764  -18.7866   28.6040 O   0  0  0  0  0  0  0  0  0  0  0  0
  2  1  1  0
  2  3  2  0
  4  5  1  0
  4  2  1  0
  5  7  1  0
  5  6  1  6
  7  8  2  0
  9 10  1  0
 10 11  1  0
 11 13  1  0
 11 12  1  1
 13 14  1  6
 14  7  1  0
 15 16  2  0
 15 13  1  0
 17 15  1  0
 18 25  1  0
 18 17  1  0
 18 19  1  6
 20 19  1  0
 21 20  2  0
 22 21  1  0
 23 22  1  0
 23 24  2  0
 24 20  1  0
 25 27  1  0
 26 25  2  0
M  END
$$$$
