NIH.pdb
     RDKit          3D

 27 27  0  0  1  0  0  0  0  0999 V2000
   14.2229  -15.7767   14.8281 N   0  0  0  0  0  0  0  0  0  0  0  0
   14.3828  -14.8658   15.9144 C   0  0  0  0  0  0  0  0  0  0  0  0
   15.5166  -14.4770   16.2415 O   0  0  0  0  0  0  0  0  0  0  0  0
   13.1948  -14.4075   16.6240 C   0  0  0  0  0  0  0  0  0  0  0  0
   12.6990  -15.4764   17.5666 C   0  0  2  0  0  0  0  0  0  0  0  0
   11.6104  -16.2043   16.9158 N   0  0  0  0  0  0  0  0  0  0  0  0
   12.2236  -14.8405   18.8060 C   0  0  0  0  0  0  0  0  0  0  0  0
   13.0577  -14.2270   19.5526 O   0  0  0  0  0  0  0  0  0  0  0  0
    7.4230  -12.4754   18.8832 C   0  0  0  0  0  0  0  0  0  0  0  0
    8.8712  -12.7940   19.1390 C   0  0  0  0  0  0  0  0  0  0  0  0
    8.9322  -13.9184   20.1638 C   0  0  2  0  0  0  0  0  0  0  0  0
    8.2808  -13.4081   21.4092 C   0  0  0  0  0  0  0  0  0  0  0  0
   10.3948  -14.3359   20.3693 C   0  0  2  0  0  0  0  0  0  0  0  0
   10.8573  -14.9284   19.1329 N   0  0  0  0  0  0  0  0  0  0  0  0
   10.4896  -15.4555   21.3770 C   0  0  0  0  0  0  0  0  0  0  0  0
    9.9440  -16.5905   21.1513 O   0  0  0  0  0  0  0  0  0  0  0  0
   11.1717  -15.3291   22.6034 N   0  0  0  0  0  0  0  0  0  0  0  0
   11.2582  -16.5073   23.4707 C   0  0  1  0  0  0  0  0  0  0  0  0
   12.5748  -16.5459   24.1913 C   0  0  0  0  0  0  0  0  0  0  0  0
   13.6531  -16.7604   23.2049 C   0  0  0  0  0  0  0  0  0  0  0  0
   13.4463  -17.1089   21.8700 C   0  0  0  0  0  0  0  0  0  0  0  0
   14.6291  -17.2256   21.2495 N   0  0  0  0  0  0  0  0  0  0  0  0
   15.5865  -16.9622   22.1468 C   0  0  0  0  0  0  0  0  0  0  0  0
   14.9961  -16.6802   23.3321 N   0  0  0  0  0  0  0  0  0  0  0  0
   10.0796  -16.4305   24.3669 C   0  0  0  0  0  0  0  0  0  0  0  0
    9.2890  -15.4536   24.4160 O   0  0  0  0  0  0  0  0  0  0  0  0
    9.8210  -17.4966   25.2081 O   0  0  0  0  0  0  0  0  0  0  0  0
  2  1  1  0
  2  3  2  0
  4  5  1  0
  4  2  1  0
  5  7  1  0
  5  6  1  6
  7  8  2  0
  9 10  1  0
 10 11  1  0
 11 13  1  0
 11 12  1  1
 13 14  1  6
 14  7  1  0
 15 16  2  0
 15 13  1  0
 17 15  1  0
 18 25  1  0
 18 17  1  0
 18 19  1  1
 20 19  1  0
 21 20  2  0
 22 21  1  0
 23 22  1  0
 23 24  2  0
 24 20  1  0
 25 27  1  0
 26 25  2  0
M  END
$$$$
