NIH.pdb
     RDKit          3D

 27 27  0  0  1  0  0  0  0  0999 V2000
    8.0324  -20.9520   16.0992 N   0  0  0  0  0  0  0  0  0  0  0  0
    7.6358  -19.7420   16.7426 C   0  0  0  0  0  0  0  0  0  0  0  0
    6.4849  -19.3004   16.5872 O   0  0  0  0  0  0  0  0  0  0  0  0
    8.6048  -19.0436   17.5783 C   0  0  0  0  0  0  0  0  0  0  0  0
    8.7179  -17.5987   17.1585 C   0  0  2  0  0  0  0  0  0  0  0  0
    9.5854  -17.5204   15.9839 N   0  0  0  0  0  0  0  0  0  0  0  0
    9.2861  -16.8190   18.2702 C   0  0  0  0  0  0  0  0  0  0  0  0
   10.5531  -16.7771   18.4198 O   0  0  0  0  0  0  0  0  0  0  0  0
    6.8746  -12.2791   19.7000 C   0  0  0  0  0  0  0  0  0  0  0  0
    7.9654  -13.2802   19.4311 C   0  0  0  0  0  0  0  0  0  0  0  0
    7.9957  -14.2665   20.5907 C   0  0  2  0  0  0  0  0  0  0  0  0
    8.3858  -13.4935   21.8097 C   0  0  0  0  0  0  0  0  0  0  0  0
    8.9662  -15.4081   20.2576 C   0  0  2  0  0  0  0  0  0  0  0  0
    8.4116  -16.1400   19.1393 N   0  0  0  0  0  0  0  0  0  0  0  0
    9.0037  -16.4160   21.3804 C   0  0  0  0  0  0  0  0  0  0  0  0
    8.3603  -17.5186   21.2954 O   0  0  0  0  0  0  0  0  0  0  0  0
    9.7350  -16.2157   22.5680 N   0  0  0  0  0  0  0  0  0  0  0  0
   10.7513  -17.2079   22.9294 C   0  0  1  0  0  0  0  0  0  0  0  0
   11.7779  -17.3429   21.8422 C   0  0  0  0  0  0  0  0  0  0  0  0
   11.6202  -18.6624   21.1974 C   0  0  0  0  0  0  0  0  0  0  0  0
   10.6301  -19.5893   21.5242 C   0  0  0  0  0  0  0  0  0  0  0  0
   10.7658  -20.6790   20.7550 N   0  0  0  0  0  0  0  0  0  0  0  0
   11.8127  -20.4776   19.9459 C   0  0  0  0  0  0  0  0  0  0  0  0
   12.3312  -19.2558   20.2133 N   0  0  0  0  0  0  0  0  0  0  0  0
   11.3027  -16.7587   24.2303 C   0  0  0  0  0  0  0  0  0  0  0  0
   11.6969  -17.5340   25.1387 O   0  0  0  0  0  0  0  0  0  0  0  0
   11.3958  -15.4009   24.4728 O   0  0  0  0  0  0  0  0  0  0  0  0
  2  1  1  0
  2  3  2  0
  4  5  1  0
  4  2  1  0
  5  7  1  0
  5  6  1  6
  7  8  2  0
  9 10  1  0
 10 11  1  0
 11 13  1  0
 11 12  1  1
 13 14  1  6
 14  7  1  0
 15 16  2  0
 15 13  1  0
 17 15  1  0
 18 25  1  0
 18 17  1  0
 18 19  1  6
 20 19  1  0
 21 20  2  0
 22 21  1  0
 23 22  1  0
 23 24  2  0
 24 20  1  0
 25 27  1  0
 26 25  2  0
M  END
$$$$
