NIH.pdb
     RDKit          3D

 27 27  0  0  1  0  0  0  0  0999 V2000
    5.7188  -15.9693   19.2736 N   0  0  0  0  0  0  0  0  0  0  0  0
    6.3608  -16.9964   20.0276 C   0  0  0  0  0  0  0  0  0  0  0  0
    6.1207  -18.1912   19.7861 O   0  0  0  0  0  0  0  0  0  0  0  0
    7.2961  -16.6127   21.0779 C   0  0  0  0  0  0  0  0  0  0  0  0
    7.2675  -15.1189   21.2890 C   0  0  2  0  0  0  0  0  0  0  0  0
    7.7972  -14.4680   20.0914 N   0  0  0  0  0  0  0  0  0  0  0  0
    8.0902  -14.7841   22.4627 C   0  0  0  0  0  0  0  0  0  0  0  0
    9.3449  -14.6023   22.3142 O   0  0  0  0  0  0  0  0  0  0  0  0
    5.7325  -11.5605   25.8759 C   0  0  0  0  0  0  0  0  0  0  0  0
    6.7366  -12.2516   24.9935 C   0  0  0  0  0  0  0  0  0  0  0  0
    7.3175  -13.4250   25.7706 C   0  0  2  0  0  0  0  0  0  0  0  0
    8.0113  -12.8548   26.9661 C   0  0  0  0  0  0  0  0  0  0  0  0
    8.2489  -14.2278   24.8518 C   0  0  2  0  0  0  0  0  0  0  0  0
    7.4663  -14.6742   23.7196 N   0  0  0  0  0  0  0  0  0  0  0  0
    8.6881  -15.5040   25.5272 C   0  0  0  0  0  0  0  0  0  0  0  0
    7.8292  -16.3483   25.9587 O   0  0  0  0  0  0  0  0  0  0  0  0
   10.0419  -15.8438   25.7205 N   0  0  0  0  0  0  0  0  0  0  0  0
   10.3482  -17.1334   26.3460 C   0  0  1  0  0  0  0  0  0  0  0  0
   11.7403  -17.5780   26.0015 C   0  0  0  0  0  0  0  0  0  0  0  0
   11.8010  -17.8819   24.5573 C   0  0  0  0  0  0  0  0  0  0  0  0
   10.6941  -17.9162   23.7089 C   0  0  0  0  0  0  0  0  0  0  0  0
   11.0926  -18.2209   22.4655 N   0  0  0  0  0  0  0  0  0  0  0  0
   12.4209  -18.3827   22.4925 C   0  0  0  0  0  0  0  0  0  0  0  0
   12.8511  -18.1775   23.7598 N   0  0  0  0  0  0  0  0  0  0  0  0
   10.1168  -16.9378   27.7973 C   0  0  0  0  0  0  0  0  0  0  0  0
    9.7354  -17.8433   28.5825 O   0  0  0  0  0  0  0  0  0  0  0  0
   10.3318  -15.6828   28.3355 O   0  0  0  0  0  0  0  0  0  0  0  0
  2  1  1  0
  2  3  2  0
  4  5  1  0
  4  2  1  0
  5  7  1  0
  5  6  1  6
  7  8  2  0
  9 10  1  0
 10 11  1  0
 11 13  1  0
 11 12  1  1
 13 14  1  6
 14  7  1  0
 15 16  2  0
 15 13  1  0
 17 15  1  0
 18 25  1  0
 18 17  1  0
 18 19  1  1
 20 19  1  0
 21 20  2  0
 22 21  1  0
 23 22  1  0
 23 24  2  0
 24 20  1  0
 25 27  1  0
 26 25  2  0
M  END
$$$$
