NIH.pdb
     RDKit          3D

 27 27  0  0  1  0  0  0  0  0999 V2000
    4.4170  -17.4459   20.8050 N   0  0  0  0  0  0  0  0  0  0  0  0
    5.8014  -17.3740   20.4676 C   0  0  0  0  0  0  0  0  0  0  0  0
    6.1733  -17.6027   19.3044 O   0  0  0  0  0  0  0  0  0  0  0  0
    6.7590  -17.0291   21.5113 C   0  0  0  0  0  0  0  0  0  0  0  0
    6.9489  -15.5337   21.5787 C   0  0  2  0  0  0  0  0  0  0  0  0
    7.6119  -15.0916   20.3526 N   0  0  0  0  0  0  0  0  0  0  0  0
    7.7716  -15.2069   22.7546 C   0  0  0  0  0  0  0  0  0  0  0  0
    9.0431  -15.2789   22.6665 O   0  0  0  0  0  0  0  0  0  0  0  0
    6.0535  -11.3408   25.9798 C   0  0  0  0  0  0  0  0  0  0  0  0
    6.9394  -12.2500   25.1719 C   0  0  0  0  0  0  0  0  0  0  0  0
    7.1603  -13.5259   25.9729 C   0  0  2  0  0  0  0  0  0  0  0  0
    7.8813  -13.1356   27.2234 C   0  0  0  0  0  0  0  0  0  0  0  0
    7.9351  -14.5343   25.1134 C   0  0  2  0  0  0  0  0  0  0  0  0
    7.1293  -14.8232   23.9468 N   0  0  0  0  0  0  0  0  0  0  0  0
    8.0486  -15.8603   25.8252 C   0  0  0  0  0  0  0  0  0  0  0  0
    7.0161  -16.4305   26.3207 O   0  0  0  0  0  0  0  0  0  0  0  0
    9.2703  -16.5438   25.9852 N   0  0  0  0  0  0  0  0  0  0  0  0
    9.2499  -17.8488   26.6520 C   0  0  1  0  0  0  0  0  0  0  0  0
    9.8631  -18.9053   25.7791 C   0  0  0  0  0  0  0  0  0  0  0  0
    8.9291  -19.2165   24.6779 C   0  0  0  0  0  0  0  0  0  0  0  0
    7.6310  -18.7158   24.5764 C   0  0  0  0  0  0  0  0  0  0  0  0
    7.0542  -19.1902   23.4629 N   0  0  0  0  0  0  0  0  0  0  0  0
    7.9438  -19.9793   22.8488 C   0  0  0  0  0  0  0  0  0  0  0  0
    9.0804  -19.9959   23.5844 N   0  0  0  0  0  0  0  0  0  0  0  0
    9.9508  -17.6482   27.9430 C   0  0  0  0  0  0  0  0  0  0  0  0
    9.9245  -18.4659   28.8982 O   0  0  0  0  0  0  0  0  0  0  0  0
   10.6857  -16.4910   28.1208 O   0  0  0  0  0  0  0  0  0  0  0  0
  2  1  1  0
  2  3  2  0
  4  5  1  0
  4  2  1  0
  5  7  1  0
  5  6  1  6
  7  8  2  0
  9 10  1  0
 10 11  1  0
 11 13  1  0
 11 12  1  1
 13 14  1  6
 14  7  1  0
 15 16  2  0
 15 13  1  0
 17 15  1  0
 18 25  1  0
 18 17  1  0
 18 19  1  6
 20 19  1  0
 21 20  2  0
 22 21  1  0
 23 22  1  0
 23 24  2  0
 24 20  1  0
 25 27  1  0
 26 25  2  0
M  END
$$$$
