NIH.pdb
     RDKit          3D

 27 27  0  0  1  0  0  0  0  0999 V2000
    8.1246  -19.5751   20.0829 N   0  0  0  0  0  0  0  0  0  0  0  0
    7.3841  -18.6468   20.8738 C   0  0  0  0  0  0  0  0  0  0  0  0
    6.1652  -18.4981   20.6844 O   0  0  0  0  0  0  0  0  0  0  0  0
    8.0862  -17.8846   21.8991 C   0  0  0  0  0  0  0  0  0  0  0  0
    7.9882  -16.4058   21.6159 C   0  0  2  0  0  0  0  0  0  0  0  0
    8.6794  -16.1244   20.3584 N   0  0  0  0  0  0  0  0  0  0  0  0
    8.6119  -15.6628   22.7229 C   0  0  0  0  0  0  0  0  0  0  0  0
    9.8831  -15.5529   22.7630 O   0  0  0  0  0  0  0  0  0  0  0  0
    6.7686  -11.3769   26.6641 C   0  0  0  0  0  0  0  0  0  0  0  0
    7.8642  -12.3038   26.2117 C   0  0  0  0  0  0  0  0  0  0  0  0
    7.2799  -13.2523   25.1738 C   0  0  2  0  0  0  0  0  0  0  0  0
    6.1231  -13.9454   25.8197 C   0  0  0  0  0  0  0  0  0  0  0  0
    8.3757  -14.2146   24.6952 C   0  0  2  0  0  0  0  0  0  0  0  0
    7.7847  -15.0932   23.7090 N   0  0  0  0  0  0  0  0  0  0  0  0
    8.7948  -15.1381   25.8129 C   0  0  0  0  0  0  0  0  0  0  0  0
    7.9532  -15.9307   26.3609 O   0  0  0  0  0  0  0  0  0  0  0  0
   10.1109  -15.1896   26.3137 N   0  0  0  0  0  0  0  0  0  0  0  0
   10.4315  -16.2157   27.3099 C   0  0  1  0  0  0  0  0  0  0  0  0
   11.7918  -16.7994   27.0582 C   0  0  0  0  0  0  0  0  0  0  0  0
   12.0978  -17.7749   28.1243 C   0  0  0  0  0  0  0  0  0  0  0  0
   11.6715  -19.1032   28.1272 C   0  0  0  0  0  0  0  0  0  0  0  0
   12.1190  -19.7143   29.2335 N   0  0  0  0  0  0  0  0  0  0  0  0
   12.8187  -18.8174   29.9386 C   0  0  0  0  0  0  0  0  0  0  0  0
   12.8064  -17.6418   29.2672 N   0  0  0  0  0  0  0  0  0  0  0  0
   10.2929  -15.5498   28.6274 C   0  0  0  0  0  0  0  0  0  0  0  0
   10.3801  -14.3080   28.8065 O   0  0  0  0  0  0  0  0  0  0  0  0
   10.0507  -16.3341   29.7396 O   0  0  0  0  0  0  0  0  0  0  0  0
  2  1  1  0
  2  3  2  0
  4  5  1  0
  4  2  1  0
  5  7  1  0
  5  6  1  6
  7  8  2  0
  9 10  1  0
 10 11  1  0
 11 13  1  0
 11 12  1  1
 13 14  1  6
 14  7  1  0
 15 16  2  0
 15 13  1  0
 17 15  1  0
 18 25  1  0
 18 17  1  0
 18 19  1  6
 20 19  1  0
 21 20  2  0
 22 21  1  0
 23 22  1  0
 23 24  2  0
 24 20  1  0
 25 27  1  0
 26 25  2  0
M  END
$$$$
