NIH.pdb
     RDKit          3D

 27 27  0  0  1  0  0  0  0  0999 V2000
    7.3052  -17.7222   18.7546 N   0  0  0  0  0  0  0  0  0  0  0  0
    6.7770  -16.8758   19.7744 C   0  0  0  0  0  0  0  0  0  0  0  0
    5.6282  -16.4143   19.6699 O   0  0  0  0  0  0  0  0  0  0  0  0
    7.6104  -16.5691   20.9305 C   0  0  0  0  0  0  0  0  0  0  0  0
    7.4364  -15.1265   21.3374 C   0  0  2  0  0  0  0  0  0  0  0  0
    7.8889  -14.2739   20.2389 N   0  0  0  0  0  0  0  0  0  0  0  0
    8.2324  -14.8702   22.5487 C   0  0  0  0  0  0  0  0  0  0  0  0
    9.5059  -14.8442   22.4650 O   0  0  0  0  0  0  0  0  0  0  0  0
    6.0796  -11.5254   26.1254 C   0  0  0  0  0  0  0  0  0  0  0  0
    7.1253  -12.1975   25.2773 C   0  0  0  0  0  0  0  0  0  0  0  0
    7.4381  -13.5512   25.9002 C   0  0  2  0  0  0  0  0  0  0  0  0
    8.0683  -13.2836   27.2295 C   0  0  0  0  0  0  0  0  0  0  0  0
    8.3404  -14.3488   24.9486 C   0  0  2  0  0  0  0  0  0  0  0  0
    7.5627  -14.6608   23.7689 N   0  0  0  0  0  0  0  0  0  0  0  0
    8.6753  -15.6960   25.5408 C   0  0  0  0  0  0  0  0  0  0  0  0
    7.7852  -16.6097   25.6402 O   0  0  0  0  0  0  0  0  0  0  0  0
    9.9611  -16.0303   26.0100 N   0  0  0  0  0  0  0  0  0  0  0  0
   10.2898  -17.4492   26.1736 C   0  0  1  0  0  0  0  0  0  0  0  0
   11.3787  -17.8591   25.2245 C   0  0  0  0  0  0  0  0  0  0  0  0
   11.8095  -19.2325   25.5562 C   0  0  0  0  0  0  0  0  0  0  0  0
   11.1267  -20.0887   26.4204 C   0  0  0  0  0  0  0  0  0  0  0  0
   11.7807  -21.2562   26.5026 N   0  0  0  0  0  0  0  0  0  0  0  0
   12.8613  -21.1731   25.7174 C   0  0  0  0  0  0  0  0  0  0  0  0
   12.8796  -19.9470   25.1434 N   0  0  0  0  0  0  0  0  0  0  0  0
   10.6398  -17.6154   27.6047 C   0  0  0  0  0  0  0  0  0  0  0  0
   10.6006  -18.7108   28.2214 O   0  0  0  0  0  0  0  0  0  0  0  0
   11.0379  -16.5010   28.3192 O   0  0  0  0  0  0  0  0  0  0  0  0
  2  1  1  0
  2  3  2  0
  4  5  1  0
  4  2  1  0
  5  7  1  0
  5  6  1  6
  7  8  2  0
  9 10  1  0
 10 11  1  0
 11 13  1  0
 11 12  1  1
 13 14  1  6
 14  7  1  0
 15 16  2  0
 15 13  1  0
 17 15  1  0
 18 25  1  0
 18 17  1  0
 18 19  1  6
 20 19  1  0
 21 20  2  0
 22 21  1  0
 23 22  1  0
 23 24  2  0
 24 20  1  0
 25 27  1  0
 26 25  2  0
M  END
$$$$
