NIH.pdb
     RDKit          3D

 27 27  0  0  1  0  0  0  0  0999 V2000
    5.7812  -16.5416   19.5184 N   0  0  0  0  0  0  0  0  0  0  0  0
    7.0716  -17.1267   19.6862 C   0  0  0  0  0  0  0  0  0  0  0  0
    7.3970  -18.1229   19.0189 O   0  0  0  0  0  0  0  0  0  0  0  0
    7.9893  -16.5326   20.6505 C   0  0  0  0  0  0  0  0  0  0  0  0
    7.3035  -15.4316   21.4213 C   0  0  2  0  0  0  0  0  0  0  0  0
    7.0847  -14.2989   20.5226 N   0  0  0  0  0  0  0  0  0  0  0  0
    8.1575  -15.0333   22.5519 C   0  0  0  0  0  0  0  0  0  0  0  0
    9.3823  -14.7440   22.3376 O   0  0  0  0  0  0  0  0  0  0  0  0
    6.1100  -11.8442   26.2199 C   0  0  0  0  0  0  0  0  0  0  0  0
    7.0983  -12.5034   25.2963 C   0  0  0  0  0  0  0  0  0  0  0  0
    7.5473  -13.8079   25.9406 C   0  0  2  0  0  0  0  0  0  0  0  0
    8.2515  -13.4470   27.2094 C   0  0  0  0  0  0  0  0  0  0  0  0
    8.4316  -14.5811   24.9526 C   0  0  2  0  0  0  0  0  0  0  0  0
    7.5962  -14.9832   23.8417 N   0  0  0  0  0  0  0  0  0  0  0  0
    8.8933  -15.8826   25.5615 C   0  0  0  0  0  0  0  0  0  0  0  0
    8.0507  -16.7778   25.9157 O   0  0  0  0  0  0  0  0  0  0  0  0
   10.2516  -16.1923   25.7728 N   0  0  0  0  0  0  0  0  0  0  0  0
   10.5771  -17.4643   26.4241 C   0  0  1  0  0  0  0  0  0  0  0  0
   11.8524  -18.0356   25.8750 C   0  0  0  0  0  0  0  0  0  0  0  0
   11.6395  -18.4077   24.4615 C   0  0  0  0  0  0  0  0  0  0  0  0
   10.4542  -18.9397   23.9534 C   0  0  0  0  0  0  0  0  0  0  0  0
   10.5919  -19.1645   22.6388 N   0  0  0  0  0  0  0  0  0  0  0  0
   11.8294  -18.7924   22.2902 C   0  0  0  0  0  0  0  0  0  0  0  0
   12.4650  -18.3337   23.3941 N   0  0  0  0  0  0  0  0  0  0  0  0
   10.6219  -17.1690   27.8763 C   0  0  0  0  0  0  0  0  0  0  0  0
   10.5611  -16.0124   28.3666 O   0  0  0  0  0  0  0  0  0  0  0  0
   10.7370  -18.2256   28.7601 O   0  0  0  0  0  0  0  0  0  0  0  0
  2  1  1  0
  2  3  2  0
  4  5  1  0
  4  2  1  0
  5  7  1  0
  5  6  1  6
  7  8  2  0
  9 10  1  0
 10 11  1  0
 11 13  1  0
 11 12  1  1
 13 14  1  6
 14  7  1  0
 15 16  2  0
 15 13  1  0
 17 15  1  0
 18 25  1  0
 18 17  1  0
 18 19  1  6
 20 19  1  0
 21 20  2  0
 22 21  1  0
 23 22  1  0
 23 24  2  0
 24 20  1  0
 25 27  1  0
 26 25  2  0
M  END
$$$$
