NIH.pdb
     RDKit          3D

 27 27  0  0  1  0  0  0  0  0999 V2000
    5.0317  -17.2217   19.5990 N   0  0  0  0  0  0  0  0  0  0  0  0
    6.3240  -17.4575   20.1556 C   0  0  0  0  0  0  0  0  0  0  0  0
    7.2020  -18.0196   19.4796 O   0  0  0  0  0  0  0  0  0  0  0  0
    6.5859  -17.0270   21.5235 C   0  0  0  0  0  0  0  0  0  0  0  0
    7.0237  -15.5832   21.5467 C   0  0  2  0  0  0  0  0  0  0  0  0
    7.8955  -15.3413   20.3979 N   0  0  0  0  0  0  0  0  0  0  0  0
    7.7440  -15.3201   22.8031 C   0  0  0  0  0  0  0  0  0  0  0  0
    8.9416  -15.7414   22.9361 O   0  0  0  0  0  0  0  0  0  0  0  0
    6.0052  -11.0325   25.5598 C   0  0  0  0  0  0  0  0  0  0  0  0
    6.9238  -12.0224   24.8959 C   0  0  0  0  0  0  0  0  0  0  0  0
    7.0389  -13.2397   25.8031 C   0  0  2  0  0  0  0  0  0  0  0  0
    7.7255  -12.7883   27.0524 C   0  0  0  0  0  0  0  0  0  0  0  0
    7.7934  -14.3523   25.0622 C   0  0  2  0  0  0  0  0  0  0  0  0
    7.0878  -14.6091   23.8253 N   0  0  0  0  0  0  0  0  0  0  0  0
    7.6988  -15.6531   25.8217 C   0  0  0  0  0  0  0  0  0  0  0  0
    6.5659  -16.2070   26.0377 O   0  0  0  0  0  0  0  0  0  0  0  0
    8.8258  -16.3297   26.3293 N   0  0  0  0  0  0  0  0  0  0  0  0
    8.6097  -17.5850   27.0541 C   0  0  1  0  0  0  0  0  0  0  0  0
    8.6045  -18.7533   26.1110 C   0  0  0  0  0  0  0  0  0  0  0  0
    8.5482  -20.0021   26.8979 C   0  0  0  0  0  0  0  0  0  0  0  0
    7.5140  -20.3413   27.7706 C   0  0  0  0  0  0  0  0  0  0  0  0
    7.7686  -21.5361   28.3231 N   0  0  0  0  0  0  0  0  0  0  0  0
    8.9342  -21.9718   27.8306 C   0  0  0  0  0  0  0  0  0  0  0  0
    9.4075  -21.0428   26.9667 N   0  0  0  0  0  0  0  0  0  0  0  0
    9.6770  -17.6412   28.0817 C   0  0  0  0  0  0  0  0  0  0  0  0
    9.7283  -18.4944   29.0043 O   0  0  0  0  0  0  0  0  0  0  0  0
   10.6885  -16.7003   28.0331 O   0  0  0  0  0  0  0  0  0  0  0  0
  2  1  1  0
  2  3  2  0
  4  5  1  0
  4  2  1  0
  5  7  1  0
  5  6  1  6
  7  8  2  0
  9 10  1  0
 10 11  1  0
 11 13  1  0
 11 12  1  1
 13 14  1  6
 14  7  1  0
 15 16  2  0
 15 13  1  0
 17 15  1  0
 18 25  1  0
 18 17  1  0
 18 19  1  6
 20 19  1  0
 21 20  2  0
 22 21  1  0
 23 22  1  0
 23 24  2  0
 24 20  1  0
 25 27  1  0
 26 25  2  0
M  END
$$$$
