NIH.pdb
     RDKit          3D

 27 27  0  0  1  0  0  0  0  0999 V2000
    7.9773  -19.3208   15.5515 N   0  0  0  0  0  0  0  0  0  0  0  0
    8.8506  -19.8006   16.5726 C   0  0  0  0  0  0  0  0  0  0  0  0
    9.3187  -20.9495   16.5049 O   0  0  0  0  0  0  0  0  0  0  0  0
    9.1767  -18.9181   17.6861 C   0  0  0  0  0  0  0  0  0  0  0  0
    9.4763  -17.5266   17.1853 C   0  0  2  0  0  0  0  0  0  0  0  0
   10.5432  -17.6088   16.1886 N   0  0  0  0  0  0  0  0  0  0  0  0
    9.8962  -16.6881   18.3199 C   0  0  0  0  0  0  0  0  0  0  0  0
   11.1363  -16.6083   18.6119 O   0  0  0  0  0  0  0  0  0  0  0  0
    6.7175  -12.4643   19.4841 C   0  0  0  0  0  0  0  0  0  0  0  0
    7.9957  -13.2302   19.2747 C   0  0  0  0  0  0  0  0  0  0  0  0
    8.1714  -14.1831   20.4492 C   0  0  2  0  0  0  0  0  0  0  0  0
    8.4026  -13.3405   21.6626 C   0  0  0  0  0  0  0  0  0  0  0  0
    9.3273  -15.1474   20.1489 C   0  0  2  0  0  0  0  0  0  0  0  0
    8.9135  -15.9965   19.0527 N   0  0  0  0  0  0  0  0  0  0  0  0
    9.5347  -16.1007   21.3004 C   0  0  0  0  0  0  0  0  0  0  0  0
    8.7193  -17.0637   21.5113 O   0  0  0  0  0  0  0  0  0  0  0  0
   10.6165  -15.9974   22.1973 N   0  0  0  0  0  0  0  0  0  0  0  0
   10.8587  -17.1110   23.1189 C   0  0  1  0  0  0  0  0  0  0  0  0
   11.9014  -18.0420   22.5709 C   0  0  0  0  0  0  0  0  0  0  0  0
   11.2280  -19.2002   21.9488 C   0  0  0  0  0  0  0  0  0  0  0  0
    9.8449  -19.3472   21.8412 C   0  0  0  0  0  0  0  0  0  0  0  0
    9.5645  -20.5055   21.2270 N   0  0  0  0  0  0  0  0  0  0  0  0
   10.7261  -21.1043   20.9384 C   0  0  0  0  0  0  0  0  0  0  0  0
   11.7348  -20.3140   21.3755 N   0  0  0  0  0  0  0  0  0  0  0  0
   11.2250  -16.4859   24.4125 C   0  0  0  0  0  0  0  0  0  0  0  0
   11.6695  -15.3156   24.5334 O   0  0  0  0  0  0  0  0  0  0  0  0
   11.0717  -17.2271   25.5692 O   0  0  0  0  0  0  0  0  0  0  0  0
  2  1  1  0
  2  3  2  0
  4  5  1  0
  4  2  1  0
  5  7  1  0
  5  6  1  6
  7  8  2  0
  9 10  1  0
 10 11  1  0
 11 13  1  0
 11 12  1  1
 13 14  1  6
 14  7  1  0
 15 16  2  0
 15 13  1  0
 17 15  1  0
 18 25  1  0
 18 17  1  0
 18 19  1  6
 20 19  1  0
 21 20  2  0
 22 21  1  0
 23 22  1  0
 23 24  2  0
 24 20  1  0
 25 27  1  0
 26 25  2  0
M  END
$$$$
