NIH.pdb
     RDKit          3D

 27 27  0  0  1  0  0  0  0  0999 V2000
    8.2212  -19.9171   16.1326 N   0  0  0  0  0  0  0  0  0  0  0  0
    8.5402  -20.3011   17.4692 C   0  0  0  0  0  0  0  0  0  0  0  0
    8.3535  -21.4707   17.8442 O   0  0  0  0  0  0  0  0  0  0  0  0
    9.0850  -19.2969   18.3746 C   0  0  0  0  0  0  0  0  0  0  0  0
    9.0172  -17.9274   17.7447 C   0  0  2  0  0  0  0  0  0  0  0  0
    9.8366  -17.9297   16.5335 N   0  0  0  0  0  0  0  0  0  0  0  0
    9.5214  -16.9320   18.7047 C   0  0  0  0  0  0  0  0  0  0  0  0
   10.7555  -16.6067   18.6765 O   0  0  0  0  0  0  0  0  0  0  0  0
    6.5365  -12.6680   19.9568 C   0  0  0  0  0  0  0  0  0  0  0  0
    7.7699  -13.4907   19.6992 C   0  0  0  0  0  0  0  0  0  0  0  0
    7.9718  -14.4213   20.8872 C   0  0  2  0  0  0  0  0  0  0  0  0
    8.2318  -13.5561   22.0787 C   0  0  0  0  0  0  0  0  0  0  0  0
    9.1195  -15.3927   20.5787 C   0  0  2  0  0  0  0  0  0  0  0  0
    8.6240  -16.3661   19.6296 N   0  0  0  0  0  0  0  0  0  0  0  0
    9.4669  -16.2075   21.8007 C   0  0  0  0  0  0  0  0  0  0  0  0
    8.6439  -17.0648   22.2745 O   0  0  0  0  0  0  0  0  0  0  0  0
   10.6932  -16.0831   22.4833 N   0  0  0  0  0  0  0  0  0  0  0  0
   10.9884  -17.0397   23.5537 C   0  0  1  0  0  0  0  0  0  0  0  0
   12.2520  -17.7962   23.2618 C   0  0  0  0  0  0  0  0  0  0  0  0
   11.9115  -19.0257   22.5174 C   0  0  0  0  0  0  0  0  0  0  0  0
   10.6109  -19.4548   22.2513 C   0  0  0  0  0  0  0  0  0  0  0  0
   10.6511  -20.6017   21.5581 N   0  0  0  0  0  0  0  0  0  0  0  0
   11.9379  -20.9197   21.3725 C   0  0  0  0  0  0  0  0  0  0  0  0
   12.7024  -19.9652   21.9535 N   0  0  0  0  0  0  0  0  0  0  0  0
   11.0360  -16.2402   24.8014 C   0  0  0  0  0  0  0  0  0  0  0  0
   11.0558  -14.9832   24.8375 O   0  0  0  0  0  0  0  0  0  0  0  0
   11.0597  -16.9082   26.0114 O   0  0  0  0  0  0  0  0  0  0  0  0
  2  1  1  0
  2  3  2  0
  4  5  1  0
  4  2  1  0
  5  7  1  0
  5  6  1  6
  7  8  2  0
  9 10  1  0
 10 11  1  0
 11 13  1  0
 11 12  1  1
 13 14  1  6
 14  7  1  0
 15 16  2  0
 15 13  1  0
 17 15  1  0
 18 25  1  0
 18 17  1  0
 18 19  1  6
 20 19  1  0
 21 20  2  0
 22 21  1  0
 23 22  1  0
 23 24  2  0
 24 20  1  0
 25 27  1  0
 26 25  2  0
M  END
$$$$
