NIH.pdb
     RDKit          3D

 27 27  0  0  1  0  0  0  0  0999 V2000
    7.7233  -17.3460   19.2023 N   0  0  0  0  0  0  0  0  0  0  0  0
    7.8189  -15.9236   19.1468 C   0  0  0  0  0  0  0  0  0  0  0  0
    7.7485  -15.3352   18.0547 O   0  0  0  0  0  0  0  0  0  0  0  0
    7.9994  -15.1853   20.3907 C   0  0  0  0  0  0  0  0  0  0  0  0
    7.9905  -16.1280   21.5688 C   0  0  2  0  0  0  0  0  0  0  0  0
    6.6019  -16.4220   21.9208 N   0  0  0  0  0  0  0  0  0  0  0  0
    8.6834  -15.4896   22.6997 C   0  0  0  0  0  0  0  0  0  0  0  0
    9.9235  -15.2064   22.5925 O   0  0  0  0  0  0  0  0  0  0  0  0
    6.0900  -12.0322   25.7659 C   0  0  0  0  0  0  0  0  0  0  0  0
    7.2167  -12.7048   25.0294 C   0  0  0  0  0  0  0  0  0  0  0  0
    7.6844  -13.8891   25.8642 C   0  0  2  0  0  0  0  0  0  0  0  0
    8.2887  -13.3303   27.1125 C   0  0  0  0  0  0  0  0  0  0  0  0
    8.6649  -14.7334   25.0386 C   0  0  2  0  0  0  0  0  0  0  0  0
    7.9550  -15.2094   23.8710 N   0  0  0  0  0  0  0  0  0  0  0  0
    9.0398  -15.9907   25.7847 C   0  0  0  0  0  0  0  0  0  0  0  0
    8.1465  -16.8345   26.1407 O   0  0  0  0  0  0  0  0  0  0  0  0
   10.3679  -16.3126   26.1282 N   0  0  0  0  0  0  0  0  0  0  0  0
   10.6236  -17.6117   26.7564 C   0  0  1  0  0  0  0  0  0  0  0  0
   11.9435  -18.1713   26.3102 C   0  0  0  0  0  0  0  0  0  0  0  0
   11.7029  -19.4163   25.5526 C   0  0  0  0  0  0  0  0  0  0  0  0
   10.4632  -20.0459   25.4385 C   0  0  0  0  0  0  0  0  0  0  0  0
   10.5887  -21.1481   24.6856 N   0  0  0  0  0  0  0  0  0  0  0  0
   11.8711  -21.2431   24.3145 C   0  0  0  0  0  0  0  0  0  0  0  0
   12.5471  -20.1940   24.8394 N   0  0  0  0  0  0  0  0  0  0  0  0
   10.5294  -17.3742   28.2169 C   0  0  0  0  0  0  0  0  0  0  0  0
    9.9965  -18.1705   29.0315 O   0  0  0  0  0  0  0  0  0  0  0  0
   11.0592  -16.2049   28.7297 O   0  0  0  0  0  0  0  0  0  0  0  0
  2  1  1  0
  2  3  2  0
  4  5  1  0
  4  2  1  0
  5  7  1  0
  5  6  1  1
  7  8  2  0
  9 10  1  0
 10 11  1  0
 11 13  1  0
 11 12  1  1
 13 14  1  6
 14  7  1  0
 15 16  2  0
 15 13  1  0
 17 15  1  0
 18 25  1  0
 18 17  1  0
 18 19  1  1
 20 19  1  0
 21 20  2  0
 22 21  1  0
 23 22  1  0
 23 24  2  0
 24 20  1  0
 25 27  1  0
 26 25  2  0
M  END
$$$$
