NIH.pdb
     RDKit          3D

 27 27  0  0  1  0  0  0  0  0999 V2000
    5.6818  -17.3966   19.9587 N   0  0  0  0  0  0  0  0  0  0  0  0
    7.1015  -17.2679   20.0190 C   0  0  0  0  0  0  0  0  0  0  0  0
    7.7820  -17.3680   18.9844 O   0  0  0  0  0  0  0  0  0  0  0  0
    7.7272  -17.0187   21.3118 C   0  0  0  0  0  0  0  0  0  0  0  0
    7.9762  -15.5426   21.5008 C   0  0  2  0  0  0  0  0  0  0  0  0
    9.0049  -15.1175   20.5524 N   0  0  0  0  0  0  0  0  0  0  0  0
    8.4214  -15.3040   22.8833 C   0  0  0  0  0  0  0  0  0  0  0  0
    9.6356  -15.5412   23.1979 O   0  0  0  0  0  0  0  0  0  0  0  0
    5.9628  -11.3498   25.6164 C   0  0  0  0  0  0  0  0  0  0  0  0
    6.9948  -12.2765   25.0327 C   0  0  0  0  0  0  0  0  0  0  0  0
    6.9501  -13.5828   25.8136 C   0  0  2  0  0  0  0  0  0  0  0  0
    7.2775  -13.2521   27.2346 C   0  0  0  0  0  0  0  0  0  0  0  0
    7.9275  -14.5832   25.1810 C   0  0  2  0  0  0  0  0  0  0  0  0
    7.4910  -14.8197   23.8218 N   0  0  0  0  0  0  0  0  0  0  0  0
    7.8118  -15.9315   25.8491 C   0  0  0  0  0  0  0  0  0  0  0  0
    6.6853  -16.5334   25.9237 O   0  0  0  0  0  0  0  0  0  0  0  0
    8.9116  -16.6028   26.4195 N   0  0  0  0  0  0  0  0  0  0  0  0
    8.6659  -17.8767   27.1011 C   0  0  1  0  0  0  0  0  0  0  0  0
    8.1507  -18.9078   26.1390 C   0  0  0  0  0  0  0  0  0  0  0  0
    9.2500  -19.3138   25.2399 C   0  0  0  0  0  0  0  0  0  0  0  0
   10.2636  -18.4642   24.7961 C   0  0  0  0  0  0  0  0  0  0  0  0
   11.0989  -19.1434   23.9970 N   0  0  0  0  0  0  0  0  0  0  0  0
   10.6506  -20.4018   23.9160 C   0  0  0  0  0  0  0  0  0  0  0  0
    9.5301  -20.5061   24.6688 N   0  0  0  0  0  0  0  0  0  0  0  0
    9.9511  -18.2387   27.7456 C   0  0  0  0  0  0  0  0  0  0  0  0
   10.1312  -19.2755   28.4345 O   0  0  0  0  0  0  0  0  0  0  0  0
   11.0304  -17.3900   27.5857 O   0  0  0  0  0  0  0  0  0  0  0  0
  2  1  1  0
  2  3  2  0
  4  5  1  0
  4  2  1  0
  5  7  1  0
  5  6  1  6
  7  8  2  0
  9 10  1  0
 10 11  1  0
 11 13  1  0
 11 12  1  1
 13 14  1  6
 14  7  1  0
 15 16  2  0
 15 13  1  0
 17 15  1  0
 18 25  1  0
 18 17  1  0
 18 19  1  6
 20 19  1  0
 21 20  2  0
 22 21  1  0
 23 22  1  0
 23 24  2  0
 24 20  1  0
 25 27  1  0
 26 25  2  0
M  END
$$$$
