NIH.pdb
     RDKit          3D

 27 27  0  0  1  0  0  0  0  0999 V2000
    9.7832  -21.0711   16.5033 N   0  0  0  0  0  0  0  0  0  0  0  0
    8.9672  -20.1512   17.2268 C   0  0  0  0  0  0  0  0  0  0  0  0
    7.7346  -20.1529   17.0701 O   0  0  0  0  0  0  0  0  0  0  0  0
    9.6091  -19.2186   18.1451 C   0  0  0  0  0  0  0  0  0  0  0  0
    9.4626  -17.8024   17.6454 C   0  0  2  0  0  0  0  0  0  0  0  0
   10.2850  -17.6428   16.4469 N   0  0  0  0  0  0  0  0  0  0  0  0
    9.9034  -16.8737   18.6989 C   0  0  0  0  0  0  0  0  0  0  0  0
   11.1501  -16.6408   18.8442 O   0  0  0  0  0  0  0  0  0  0  0  0
    6.9851  -12.4812   19.7771 C   0  0  0  0  0  0  0  0  0  0  0  0
    8.1654  -13.3939   19.5816 C   0  0  0  0  0  0  0  0  0  0  0  0
    8.2334  -14.3380   20.7742 C   0  0  2  0  0  0  0  0  0  0  0  0
    8.4274  -13.4899   21.9903 C   0  0  0  0  0  0  0  0  0  0  0  0
    9.3645  -15.3515   20.5524 C   0  0  2  0  0  0  0  0  0  0  0  0
    8.9330  -16.2676   19.5187 N   0  0  0  0  0  0  0  0  0  0  0  0
    9.5417  -16.2229   21.7719 C   0  0  0  0  0  0  0  0  0  0  0  0
    8.5834  -16.9529   22.2027 O   0  0  0  0  0  0  0  0  0  0  0  0
   10.7471  -16.2909   22.4984 N   0  0  0  0  0  0  0  0  0  0  0  0
   10.8340  -17.2481   23.6048 C   0  0  1  0  0  0  0  0  0  0  0  0
   12.2476  -17.7160   23.7978 C   0  0  0  0  0  0  0  0  0  0  0  0
   12.6596  -18.4934   22.6114 C   0  0  0  0  0  0  0  0  0  0  0  0
   11.7933  -19.2487   21.8205 C   0  0  0  0  0  0  0  0  0  0  0  0
   12.4837  -19.8270   20.8273 N   0  0  0  0  0  0  0  0  0  0  0  0
   13.7654  -19.4649   20.9585 C   0  0  0  0  0  0  0  0  0  0  0  0
   13.8730  -18.6567   22.0394 N   0  0  0  0  0  0  0  0  0  0  0  0
   10.2610  -16.5512   24.7813 C   0  0  0  0  0  0  0  0  0  0  0  0
   10.2810  -15.3045   24.9458 O   0  0  0  0  0  0  0  0  0  0  0  0
    9.6617  -17.3102   25.7692 O   0  0  0  0  0  0  0  0  0  0  0  0
  2  1  1  0
  2  3  2  0
  4  5  1  0
  4  2  1  0
  5  7  1  0
  5  6  1  6
  7  8  2  0
  9 10  1  0
 10 11  1  0
 11 13  1  0
 11 12  1  1
 13 14  1  6
 14  7  1  0
 15 16  2  0
 15 13  1  0
 17 15  1  0
 18 25  1  0
 18 17  1  0
 18 19  1  1
 20 19  1  0
 21 20  2  0
 22 21  1  0
 23 22  1  0
 23 24  2  0
 24 20  1  0
 25 27  1  0
 26 25  2  0
M  END
$$$$
