PED.pdb
     RDKit          3D

 25 25  0  0  1  0  0  0  0  0999 V2000
    8.9703  -13.8799   18.0290 N   0  0  0  0  0  0  0  0  0  0  0  0
    7.8201  -13.6008   17.1909 C   0  0  0  0  0  0  0  0  0  0  0  0
    6.8369  -12.8578   18.1021 C   0  0  0  0  0  0  0  0  0  0  0  0
    7.0375  -13.6685   19.3899 C   0  0  0  0  0  0  0  0  0  0  0  0
    8.5273  -13.8490   19.3913 C   0  0  1  0  0  0  0  0  0  0  0  0
    8.9571  -15.0912   20.0626 C   0  0  0  0  0  0  0  0  0  0  0  0
    8.4510  -15.4454   21.1807 O   0  0  0  0  0  0  0  0  0  0  0  0
    9.9423  -15.9742   19.5380 N   0  0  0  0  0  0  0  0  0  0  0  0
   10.3716  -17.1714   20.2753 C   0  0  1  0  0  0  0  0  0  0  0  0
   11.0013  -18.1169   19.2803 C   0  0  0  0  0  0  0  0  0  0  0  0
    9.9124  -18.6104   18.3568 C   0  0  0  0  0  0  0  0  0  0  0  0
   10.5230  -19.5195   17.3645 C   0  0  0  0  0  0  0  0  0  0  0  0
   10.8462  -20.6788   17.7096 O   0  0  0  0  0  0  0  0  0  0  0  0
   11.2821  -16.8075   21.3824 C   0  0  0  0  0  0  0  0  0  0  0  0
   12.0805  -15.8386   21.2095 O   0  0  0  0  0  0  0  0  0  0  0  0
   10.7454  -19.1200   16.0661 O   0  0  0  0  0  0  0  0  0  0  0  0
   11.2963  -17.4851   22.6028 N   0  0  0  0  0  0  0  0  0  0  0  0
   12.1670  -17.0934   23.7346 C   0  0  1  0  0  0  0  0  0  0  0  0
   11.5691  -17.8142   24.9187 C   0  0  0  0  0  0  0  0  0  0  0  0
   12.3076  -17.6701   26.1790 C   0  0  0  0  0  0  0  0  0  0  0  0
   13.3618  -17.0143   26.2711 O   0  0  0  0  0  0  0  0  0  0  0  0
   13.5525  -17.5297   23.4382 C   0  0  0  0  0  0  0  0  0  0  0  0
   13.7678  -18.6572   22.9240 O   0  0  0  0  0  0  0  0  0  0  0  0
   11.8569  -18.2714   27.3572 O   0  0  0  0  0  0  0  0  0  0  0  0
   14.6328  -16.7317   23.7084 O   0  0  0  0  0  0  0  0  0  0  0  0
  1  2  1  0
  3  2  1  0
  4  3  1  0
  4  5  1  0
  5  1  1  0
  6  8  1  0
  5  6  1  6
  7  6  2  0
  9  8  1  0
  9 14  1  0
  9 10  1  6
 11 10  1  0
 12 11  1  0
 13 12  2  0
 14 17  1  0
 15 14  2  0
 16 12  1  0
 17 18  1  0
 18 19  1  1
 18 22  1  0
 20 19  1  0
 21 20  2  0
 22 25  1  0
 23 22  2  0
 24 20  1  0
M  END
$$$$
