PED.pdb
     RDKit          3D

 25 25  0  0  1  0  0  0  0  0999 V2000
    9.1806  -14.2057   18.4212 N   0  0  0  0  0  0  0  0  0  0  0  0
    8.0118  -13.8386   17.6449 C   0  0  0  0  0  0  0  0  0  0  0  0
    7.4999  -12.5447   18.2873 C   0  0  0  0  0  0  0  0  0  0  0  0
    7.7219  -12.9010   19.7637 C   0  0  0  0  0  0  0  0  0  0  0  0
    9.0611  -13.5754   19.7024 C   0  0  1  0  0  0  0  0  0  0  0  0
    9.2428  -14.5935   20.7554 C   0  0  0  0  0  0  0  0  0  0  0  0
    9.1257  -14.2920   21.9911 O   0  0  0  0  0  0  0  0  0  0  0  0
    9.5546  -15.9570   20.4926 N   0  0  0  0  0  0  0  0  0  0  0  0
    9.7419  -16.9260   21.5822 C   0  0  1  0  0  0  0  0  0  0  0  0
    9.0768  -18.2156   21.1634 C   0  0  0  0  0  0  0  0  0  0  0  0
    9.6132  -18.5930   19.8025 C   0  0  0  0  0  0  0  0  0  0  0  0
    9.0040  -19.8792   19.4046 C   0  0  0  0  0  0  0  0  0  0  0  0
    9.0447  -20.2338   18.2045 O   0  0  0  0  0  0  0  0  0  0  0  0
   11.1775  -17.0920   21.8960 C   0  0  0  0  0  0  0  0  0  0  0  0
   11.5100  -17.9826   22.7341 O   0  0  0  0  0  0  0  0  0  0  0  0
    8.3912  -20.6987   20.3253 O   0  0  0  0  0  0  0  0  0  0  0  0
   12.1746  -16.3111   21.3087 N   0  0  0  0  0  0  0  0  0  0  0  0
   13.6015  -16.3979   21.6946 C   0  0  1  0  0  0  0  0  0  0  0  0
   14.2974  -15.4783   20.7204 C   0  0  0  0  0  0  0  0  0  0  0  0
   15.7465  -15.3430   20.9113 C   0  0  0  0  0  0  0  0  0  0  0  0
   16.4624  -16.2761   21.3195 O   0  0  0  0  0  0  0  0  0  0  0  0
   13.7387  -15.9517   23.1016 C   0  0  0  0  0  0  0  0  0  0  0  0
   12.8987  -15.1609   23.6027 O   0  0  0  0  0  0  0  0  0  0  0  0
   16.4052  -14.1408   20.6398 O   0  0  0  0  0  0  0  0  0  0  0  0
   14.7698  -16.3791   23.8961 O   0  0  0  0  0  0  0  0  0  0  0  0
  1  2  1  0
  3  2  1  0
  4  3  1  0
  4  5  1  0
  5  1  1  0
  6  8  1  0
  5  6  1  1
  7  6  2  0
  9  8  1  0
  9 14  1  0
  9 10  1  6
 11 10  1  0
 12 11  1  0
 13 12  2  0
 14 17  1  0
 15 14  2  0
 16 12  1  0
 17 18  1  0
 18 19  1  6
 18 22  1  0
 20 19  1  0
 21 20  2  0
 22 25  1  0
 23 22  2  0
 24 20  1  0
M  END
$$$$
