PED.pdb
     RDKit          3D

 25 25  0  0  1  0  0  0  0  0999 V2000
    8.8974  -14.0993   17.9049 N   0  0  0  0  0  0  0  0  0  0  0  0
    7.6737  -13.9164   17.1484 C   0  0  0  0  0  0  0  0  0  0  0  0
    6.8566  -12.9018   17.9560 C   0  0  0  0  0  0  0  0  0  0  0  0
    7.1610  -13.4141   19.3705 C   0  0  0  0  0  0  0  0  0  0  0  0
    8.6258  -13.7213   19.2601 C   0  0  1  0  0  0  0  0  0  0  0  0
    9.0554  -14.8122   20.1566 C   0  0  0  0  0  0  0  0  0  0  0  0
    8.7570  -14.8011   21.3985 O   0  0  0  0  0  0  0  0  0  0  0  0
    9.8160  -15.9360   19.7275 N   0  0  0  0  0  0  0  0  0  0  0  0
   10.2114  -16.9985   20.6633 C   0  0  1  0  0  0  0  0  0  0  0  0
   10.3369  -18.2785   19.8718 C   0  0  0  0  0  0  0  0  0  0  0  0
   11.4969  -18.1210   18.9169 C   0  0  0  0  0  0  0  0  0  0  0  0
   11.6174  -19.3630   18.1252 C   0  0  0  0  0  0  0  0  0  0  0  0
   12.5236  -19.4595   17.2666 O   0  0  0  0  0  0  0  0  0  0  0  0
   11.4560  -16.6350   21.3746 C   0  0  0  0  0  0  0  0  0  0  0  0
   12.1827  -15.7199   20.8839 O   0  0  0  0  0  0  0  0  0  0  0  0
   10.7540  -20.4190   18.3102 O   0  0  0  0  0  0  0  0  0  0  0  0
   11.8592  -17.2561   22.5579 N   0  0  0  0  0  0  0  0  0  0  0  0
   13.0360  -16.8160   23.3415 C   0  0  1  0  0  0  0  0  0  0  0  0
   12.7111  -17.2404   24.7534 C   0  0  0  0  0  0  0  0  0  0  0  0
   13.7535  -16.9601   25.7482 C   0  0  0  0  0  0  0  0  0  0  0  0
   14.8209  -16.3868   25.4624 O   0  0  0  0  0  0  0  0  0  0  0  0
   14.2413  -17.4909   22.8035 C   0  0  0  0  0  0  0  0  0  0  0  0
   14.1571  -18.6445   22.3094 O   0  0  0  0  0  0  0  0  0  0  0  0
   13.5969  -17.3288   27.0870 O   0  0  0  0  0  0  0  0  0  0  0  0
   15.4728  -16.8908   22.8235 O   0  0  0  0  0  0  0  0  0  0  0  0
  1  2  1  0
  3  2  1  0
  4  3  1  0
  4  5  1  0
  5  1  1  0
  6  8  1  0
  5  6  1  1
  7  6  2  0
  9  8  1  0
  9 14  1  0
  9 10  1  6
 11 10  1  0
 12 11  1  0
 13 12  2  0
 14 17  1  0
 15 14  2  0
 16 12  1  0
 17 18  1  0
 18 19  1  1
 18 22  1  0
 20 19  1  0
 21 20  2  0
 22 25  1  0
 23 22  2  0
 24 20  1  0
M  END
$$$$
