PED.pdb
     RDKit          3D

 25 25  0  0  1  0  0  0  0  0999 V2000
    8.2888  -14.8089   18.7908 N   0  0  0  0  0  0  0  0  0  0  0  0
    7.2261  -14.1422   18.0631 C   0  0  0  0  0  0  0  0  0  0  0  0
    7.4430  -12.6479   18.3257 C   0  0  0  0  0  0  0  0  0  0  0  0
    7.8308  -12.7147   19.8093 C   0  0  0  0  0  0  0  0  0  0  0  0
    8.7296  -13.9165   19.8216 C   0  0  1  0  0  0  0  0  0  0  0  0
    8.7174  -14.6326   21.1121 C   0  0  0  0  0  0  0  0  0  0  0  0
    9.1291  -14.0698   22.1823 O   0  0  0  0  0  0  0  0  0  0  0  0
    8.2598  -15.9709   21.2702 N   0  0  0  0  0  0  0  0  0  0  0  0
    8.3368  -16.6610   22.5660 C   0  0  1  0  0  0  0  0  0  0  0  0
    7.2998  -17.7589   22.5591 C   0  0  0  0  0  0  0  0  0  0  0  0
    7.3983  -18.4976   23.8731 C   0  0  0  0  0  0  0  0  0  0  0  0
    6.4190  -19.6042   23.8572 C   0  0  0  0  0  0  0  0  0  0  0  0
    5.2153  -19.3567   23.6169 O   0  0  0  0  0  0  0  0  0  0  0  0
    9.7062  -17.1616   22.8133 C   0  0  0  0  0  0  0  0  0  0  0  0
   10.3201  -17.7276   21.8599 O   0  0  0  0  0  0  0  0  0  0  0  0
    6.8003  -20.9041   24.1011 O   0  0  0  0  0  0  0  0  0  0  0  0
   10.3453  -17.0358   24.0480 N   0  0  0  0  0  0  0  0  0  0  0  0
   11.7336  -17.4906   24.2897 C   0  0  1  0  0  0  0  0  0  0  0  0
   12.5644  -16.2478   24.0794 C   0  0  0  0  0  0  0  0  0  0  0  0
   13.9657  -16.4848   23.7124 C   0  0  0  0  0  0  0  0  0  0  0  0
   14.4644  -17.6241   23.6574 O   0  0  0  0  0  0  0  0  0  0  0  0
   11.8254  -18.0137   25.6738 C   0  0  0  0  0  0  0  0  0  0  0  0
   11.0775  -17.5582   26.5767 O   0  0  0  0  0  0  0  0  0  0  0  0
   14.8235  -15.4263   23.4013 O   0  0  0  0  0  0  0  0  0  0  0  0
   12.7145  -18.9988   26.0145 O   0  0  0  0  0  0  0  0  0  0  0  0
  1  2  1  0
  3  2  1  0
  4  3  1  0
  4  5  1  0
  5  1  1  0
  6  8  1  0
  5  6  1  1
  7  6  2  0
  9  8  1  0
  9 14  1  0
  9 10  1  6
 11 10  1  0
 12 11  1  0
 13 12  2  0
 14 17  1  0
 15 14  2  0
 16 12  1  0
 17 18  1  0
 18 19  1  1
 18 22  1  0
 20 19  1  0
 21 20  2  0
 22 25  1  0
 23 22  2  0
 24 20  1  0
M  END
$$$$
