PED.pdb
     RDKit          3D

 25 25  0  0  1  0  0  0  0  0999 V2000
    9.3010  -13.9894   18.8149 N   0  0  0  0  0  0  0  0  0  0  0  0
    8.4269  -13.5906   17.7284 C   0  0  0  0  0  0  0  0  0  0  0  0
    7.4645  -12.5714   18.3480 C   0  0  0  0  0  0  0  0  0  0  0  0
    7.2272  -13.2523   19.7030 C   0  0  0  0  0  0  0  0  0  0  0  0
    8.6132  -13.7170   20.0421 C   0  0  1  0  0  0  0  0  0  0  0  0
    8.6253  -14.9335   20.8778 C   0  0  0  0  0  0  0  0  0  0  0  0
    8.0045  -14.9731   21.9934 O   0  0  0  0  0  0  0  0  0  0  0  0
    9.3088  -16.1304   20.5232 N   0  0  0  0  0  0  0  0  0  0  0  0
    9.2492  -17.3292   21.3720 C   0  0  1  0  0  0  0  0  0  0  0  0
    8.9265  -18.5034   20.4788 C   0  0  0  0  0  0  0  0  0  0  0  0
    9.9492  -18.5350   19.3674 C   0  0  0  0  0  0  0  0  0  0  0  0
    9.6454  -19.6851   18.4906 C   0  0  0  0  0  0  0  0  0  0  0  0
    9.0499  -19.4914   17.4064 O   0  0  0  0  0  0  0  0  0  0  0  0
   10.5114  -17.5042   22.1225 C   0  0  0  0  0  0  0  0  0  0  0  0
   10.7028  -18.6008   22.7283 O   0  0  0  0  0  0  0  0  0  0  0  0
   10.0029  -20.9679   18.8392 O   0  0  0  0  0  0  0  0  0  0  0  0
   11.4942  -16.5151   22.1893 N   0  0  0  0  0  0  0  0  0  0  0  0
   12.7093  -16.6382   23.0266 C   0  0  1  0  0  0  0  0  0  0  0  0
   13.5767  -15.4866   22.5788 C   0  0  0  0  0  0  0  0  0  0  0  0
   14.3168  -15.7071   21.3305 C   0  0  0  0  0  0  0  0  0  0  0  0
   14.2629  -16.7763   20.6952 O   0  0  0  0  0  0  0  0  0  0  0  0
   12.3136  -16.5370   24.4517 C   0  0  0  0  0  0  0  0  0  0  0  0
   13.0246  -17.0599   25.3478 O   0  0  0  0  0  0  0  0  0  0  0  0
   15.1317  -14.7118   20.7844 O   0  0  0  0  0  0  0  0  0  0  0  0
   11.1761  -15.8788   24.8390 O   0  0  0  0  0  0  0  0  0  0  0  0
  1  2  1  0
  3  2  1  0
  4  3  1  0
  4  5  1  0
  5  1  1  0
  6  8  1  0
  5  6  1  1
  7  6  2  0
  9  8  1  0
  9 14  1  0
  9 10  1  6
 11 10  1  0
 12 11  1  0
 13 12  2  0
 14 17  1  0
 15 14  2  0
 16 12  1  0
 17 18  1  0
 18 19  1  6
 18 22  1  0
 20 19  1  0
 21 20  2  0
 22 25  1  0
 23 22  2  0
 24 20  1  0
M  END
$$$$
