PED.pdb
     RDKit          3D

 25 25  0  0  1  0  0  0  0  0999 V2000
    8.1437  -13.5244   20.5033 N   0  0  0  0  0  0  0  0  0  0  0  0
    8.1866  -12.1112   20.1800 C   0  0  0  0  0  0  0  0  0  0  0  0
    7.7655  -12.0285   18.7087 C   0  0  0  0  0  0  0  0  0  0  0  0
    8.5073  -13.2608   18.1729 C   0  0  0  0  0  0  0  0  0  0  0  0
    8.2608  -14.2505   19.2736 C   0  0  1  0  0  0  0  0  0  0  0  0
    9.3421  -15.2462   19.4069 C   0  0  0  0  0  0  0  0  0  0  0  0
    9.5572  -16.1122   18.4929 O   0  0  0  0  0  0  0  0  0  0  0  0
   10.2117  -15.3245   20.5308 N   0  0  0  0  0  0  0  0  0  0  0  0
   11.2440  -16.3663   20.6323 C   0  0  1  0  0  0  0  0  0  0  0  0
   12.2344  -16.1355   19.5159 C   0  0  0  0  0  0  0  0  0  0  0  0
   12.8416  -14.7660   19.7108 C   0  0  0  0  0  0  0  0  0  0  0  0
   14.0806  -14.6900   18.9090 C   0  0  0  0  0  0  0  0  0  0  0  0
   14.1214  -13.9362   17.9102 O   0  0  0  0  0  0  0  0  0  0  0  0
   11.8706  -16.3555   21.9718 C   0  0  0  0  0  0  0  0  0  0  0  0
   12.2505  -15.2442   22.4481 O   0  0  0  0  0  0  0  0  0  0  0  0
   15.1938  -15.4309   19.2356 O   0  0  0  0  0  0  0  0  0  0  0  0
   12.0587  -17.5140   22.7274 N   0  0  0  0  0  0  0  0  0  0  0  0
   12.4097  -17.4928   24.1658 C   0  0  1  0  0  0  0  0  0  0  0  0
   11.3559  -18.3614   24.8093 C   0  0  0  0  0  0  0  0  0  0  0  0
   11.4164  -18.4400   26.2738 C   0  0  0  0  0  0  0  0  0  0  0  0
   12.3084  -17.8854   26.9420 O   0  0  0  0  0  0  0  0  0  0  0  0
   13.7786  -18.0387   24.3265 C   0  0  0  0  0  0  0  0  0  0  0  0
   14.3031  -18.7204   23.4088 O   0  0  0  0  0  0  0  0  0  0  0  0
   10.4603  -19.1527   27.0025 O   0  0  0  0  0  0  0  0  0  0  0  0
   14.5119  -17.8228   25.4634 O   0  0  0  0  0  0  0  0  0  0  0  0
  1  2  1  0
  3  2  1  0
  4  3  1  0
  4  5  1  0
  5  1  1  0
  6  8  1  0
  5  6  1  1
  7  6  2  0
  9  8  1  0
  9 14  1  0
  9 10  1  6
 11 10  1  0
 12 11  1  0
 13 12  2  0
 14 17  1  0
 15 14  2  0
 16 12  1  0
 17 18  1  0
 18 19  1  1
 18 22  1  0
 20 19  1  0
 21 20  2  0
 22 25  1  0
 23 22  2  0
 24 20  1  0
M  END
$$$$
