PED.pdb
     RDKit          3D

 25 25  0  0  1  0  0  0  0  0999 V2000
    8.8934  -14.4329   18.5480 N   0  0  0  0  0  0  0  0  0  0  0  0
    7.7975  -14.0916   17.6614 C   0  0  0  0  0  0  0  0  0  0  0  0
    7.3977  -12.6658   18.0566 C   0  0  0  0  0  0  0  0  0  0  0  0
    7.5280  -12.7894   19.5810 C   0  0  0  0  0  0  0  0  0  0  0  0
    8.7924  -13.5887   19.7013 C   0  0  1  0  0  0  0  0  0  0  0  0
    8.8304  -14.4288   20.9142 C   0  0  0  0  0  0  0  0  0  0  0  0
    8.5986  -13.9319   22.0678 O   0  0  0  0  0  0  0  0  0  0  0  0
    9.1199  -15.8222   20.9030 N   0  0  0  0  0  0  0  0  0  0  0  0
    9.2403  -16.5918   22.1498 C   0  0  1  0  0  0  0  0  0  0  0  0
    8.2631  -17.7405   22.0715 C   0  0  0  0  0  0  0  0  0  0  0  0
    8.3766  -18.3526   20.6951 C   0  0  0  0  0  0  0  0  0  0  0  0
    7.4704  -19.5181   20.6300 C   0  0  0  0  0  0  0  0  0  0  0  0
    7.7045  -20.5197   21.3438 O   0  0  0  0  0  0  0  0  0  0  0  0
   10.6357  -17.0340   22.3608 C   0  0  0  0  0  0  0  0  0  0  0  0
   11.3775  -17.1865   21.3447 O   0  0  0  0  0  0  0  0  0  0  0  0
    6.3720  -19.5281   19.8004 O   0  0  0  0  0  0  0  0  0  0  0  0
   11.1644  -17.2882   23.6275 N   0  0  0  0  0  0  0  0  0  0  0  0
   12.6120  -17.4762   23.8763 C   0  0  1  0  0  0  0  0  0  0  0  0
   13.2135  -16.1296   23.5538 C   0  0  0  0  0  0  0  0  0  0  0  0
   14.6609  -16.1315   23.3098 C   0  0  0  0  0  0  0  0  0  0  0  0
   15.4783  -16.6252   24.1085 O   0  0  0  0  0  0  0  0  0  0  0  0
   12.8014  -17.8634   25.2947 C   0  0  0  0  0  0  0  0  0  0  0  0
   12.0243  -17.4270   26.1822 O   0  0  0  0  0  0  0  0  0  0  0  0
   15.2021  -15.5703   22.1500 O   0  0  0  0  0  0  0  0  0  0  0  0
   13.8143  -18.6996   25.6845 O   0  0  0  0  0  0  0  0  0  0  0  0
  1  2  1  0
  3  2  1  0
  4  3  1  0
  4  5  1  0
  5  1  1  0
  6  8  1  0
  5  6  1  1
  7  6  2  0
  9  8  1  0
  9 14  1  0
  9 10  1  6
 11 10  1  0
 12 11  1  0
 13 12  2  0
 14 17  1  0
 15 14  2  0
 16 12  1  0
 17 18  1  0
 18 19  1  1
 18 22  1  0
 20 19  1  0
 21 20  2  0
 22 25  1  0
 23 22  2  0
 24 20  1  0
M  END
$$$$
