PED.pdb
     RDKit          3D

 25 25  0  0  1  0  0  0  0  0999 V2000
    8.1575  -14.9555   19.2164 N   0  0  0  0  0  0  0  0  0  0  0  0
    7.1308  -14.3906   18.3618 C   0  0  0  0  0  0  0  0  0  0  0  0
    7.2224  -12.8764   18.5805 C   0  0  0  0  0  0  0  0  0  0  0  0
    7.4647  -12.8630   20.0961 C   0  0  0  0  0  0  0  0  0  0  0  0
    8.4345  -13.9984   20.2461 C   0  0  1  0  0  0  0  0  0  0  0  0
    8.3413  -14.6669   21.5586 C   0  0  0  0  0  0  0  0  0  0  0  0
    8.5848  -14.0327   22.6403 O   0  0  0  0  0  0  0  0  0  0  0  0
    7.9830  -16.0340   21.7268 N   0  0  0  0  0  0  0  0  0  0  0  0
    7.9343  -16.6573   23.0573 C   0  0  1  0  0  0  0  0  0  0  0  0
    6.9278  -17.7815   22.9965 C   0  0  0  0  0  0  0  0  0  0  0  0
    6.8863  -18.4403   24.3553 C   0  0  0  0  0  0  0  0  0  0  0  0
    5.9891  -19.6118   24.2750 C   0  0  0  0  0  0  0  0  0  0  0  0
    5.7027  -20.2397   25.3197 O   0  0  0  0  0  0  0  0  0  0  0  0
    9.2794  -17.1083   23.4751 C   0  0  0  0  0  0  0  0  0  0  0  0
    9.9703  -17.7797   22.6517 O   0  0  0  0  0  0  0  0  0  0  0  0
    5.4595  -20.0299   23.0752 O   0  0  0  0  0  0  0  0  0  0  0  0
    9.8145  -16.8251   24.7329 N   0  0  0  0  0  0  0  0  0  0  0  0
   11.1331  -17.3271   25.1821 C   0  0  1  0  0  0  0  0  0  0  0  0
   12.0490  -16.1383   25.0183 C   0  0  0  0  0  0  0  0  0  0  0  0
   12.9906  -16.2218   23.8955 C   0  0  0  0  0  0  0  0  0  0  0  0
   14.1536  -15.7820   23.9572 O   0  0  0  0  0  0  0  0  0  0  0  0
   11.0152  -17.7696   26.5921 C   0  0  0  0  0  0  0  0  0  0  0  0
    9.9993  -17.4689   27.2701 O   0  0  0  0  0  0  0  0  0  0  0  0
   12.6227  -16.8089   22.6818 O   0  0  0  0  0  0  0  0  0  0  0  0
   11.9936  -18.5123   27.1987 O   0  0  0  0  0  0  0  0  0  0  0  0
  1  2  1  0
  3  2  1  0
  4  3  1  0
  4  5  1  0
  5  1  1  0
  6  8  1  0
  5  6  1  1
  7  6  2  0
  9  8  1  0
  9 14  1  0
  9 10  1  6
 11 10  1  0
 12 11  1  0
 13 12  2  0
 14 17  1  0
 15 14  2  0
 16 12  1  0
 17 18  1  0
 18 19  1  1
 18 22  1  0
 20 19  1  0
 21 20  2  0
 22 25  1  0
 23 22  2  0
 24 20  1  0
M  END
$$$$
