PED.pdb
     RDKit          3D

 25 25  0  0  1  0  0  0  0  0999 V2000
    9.0844  -13.5510   20.0408 N   0  0  0  0  0  0  0  0  0  0  0  0
    8.8407  -13.2580   18.6415 C   0  0  0  0  0  0  0  0  0  0  0  0
    7.3165  -13.1550   18.5179 C   0  0  0  0  0  0  0  0  0  0  0  0
    6.9180  -14.3134   19.4427 C   0  0  0  0  0  0  0  0  0  0  0  0
    7.8869  -14.1296   20.5739 C   0  0  1  0  0  0  0  0  0  0  0  0
    8.2278  -15.3951   21.2526 C   0  0  0  0  0  0  0  0  0  0  0  0
    7.3157  -16.1904   21.6615 O   0  0  0  0  0  0  0  0  0  0  0  0
    9.5614  -15.8250   21.5022 N   0  0  0  0  0  0  0  0  0  0  0  0
    9.8497  -17.1646   22.0346 C   0  0  1  0  0  0  0  0  0  0  0  0
   11.2649  -17.5154   21.6416 C   0  0  0  0  0  0  0  0  0  0  0  0
   11.2102  -18.2591   20.3277 C   0  0  0  0  0  0  0  0  0  0  0  0
   12.5887  -18.6344   19.9498 C   0  0  0  0  0  0  0  0  0  0  0  0
   13.0231  -19.7681   20.2557 O   0  0  0  0  0  0  0  0  0  0  0  0
    9.6287  -17.2072   23.4963 C   0  0  0  0  0  0  0  0  0  0  0  0
    9.8861  -16.1671   24.1730 O   0  0  0  0  0  0  0  0  0  0  0  0
   13.4084  -17.7640   19.2676 O   0  0  0  0  0  0  0  0  0  0  0  0
    9.1506  -18.3409   24.1555 N   0  0  0  0  0  0  0  0  0  0  0  0
    8.9123  -18.3862   25.6162 C   0  0  1  0  0  0  0  0  0  0  0  0
    7.7996  -19.3947   25.7713 C   0  0  0  0  0  0  0  0  0  0  0  0
    7.4923  -19.7821   27.1533 C   0  0  0  0  0  0  0  0  0  0  0  0
    8.0927  -19.3080   28.1353 O   0  0  0  0  0  0  0  0  0  0  0  0
   10.1653  -18.8081   26.2868 C   0  0  0  0  0  0  0  0  0  0  0  0
   11.0308  -19.4704   25.6587 O   0  0  0  0  0  0  0  0  0  0  0  0
    6.4944  -20.7176   27.4400 O   0  0  0  0  0  0  0  0  0  0  0  0
   10.4230  -18.4956   27.5956 O   0  0  0  0  0  0  0  0  0  0  0  0
  1  2  1  0
  3  2  1  0
  4  3  1  0
  4  5  1  0
  5  1  1  0
  6  8  1  0
  5  6  1  6
  7  6  2  0
  9  8  1  0
  9 14  1  0
  9 10  1  1
 11 10  1  0
 12 11  1  0
 13 12  2  0
 14 17  1  0
 15 14  2  0
 16 12  1  0
 17 18  1  0
 18 19  1  6
 18 22  1  0
 20 19  1  0
 21 20  2  0
 22 25  1  0
 23 22  2  0
 24 20  1  0
M  END
$$$$
