PED.pdb
     RDKit          3D

 25 25  0  0  1  0  0  0  0  0999 V2000
    8.5691  -14.8981   19.7469 N   0  0  0  0  0  0  0  0  0  0  0  0
    7.7715  -14.3890   18.6477 C   0  0  0  0  0  0  0  0  0  0  0  0
    7.7284  -12.8716   18.8591 C   0  0  0  0  0  0  0  0  0  0  0  0
    7.5699  -12.8423   20.3855 C   0  0  0  0  0  0  0  0  0  0  0  0
    8.5230  -13.9256   20.7981 C   0  0  1  0  0  0  0  0  0  0  0  0
    8.1270  -14.5951   22.0525 C   0  0  0  0  0  0  0  0  0  0  0  0
    8.0110  -13.9386   23.1420 O   0  0  0  0  0  0  0  0  0  0  0  0
    7.8487  -15.9872   22.1528 N   0  0  0  0  0  0  0  0  0  0  0  0
    7.3895  -16.5900   23.4126 C   0  0  1  0  0  0  0  0  0  0  0  0
    6.8333  -17.9557   23.0872 C   0  0  0  0  0  0  0  0  0  0  0  0
    6.3408  -18.5742   24.3745 C   0  0  0  0  0  0  0  0  0  0  0  0
    5.7580  -19.8955   24.0606 C   0  0  0  0  0  0  0  0  0  0  0  0
    5.4422  -20.1632   22.8790 O   0  0  0  0  0  0  0  0  0  0  0  0
    8.4863  -16.6340   24.4037 C   0  0  0  0  0  0  0  0  0  0  0  0
    9.6631  -16.8532   23.9877 O   0  0  0  0  0  0  0  0  0  0  0  0
    5.5538  -20.8411   25.0398 O   0  0  0  0  0  0  0  0  0  0  0  0
    8.2773  -16.4447   25.7708 N   0  0  0  0  0  0  0  0  0  0  0  0
    9.3658  -16.5155   26.7723 C   0  0  1  0  0  0  0  0  0  0  0  0
    8.9318  -15.5502   27.8488 C   0  0  0  0  0  0  0  0  0  0  0  0
    9.3488  -14.1573   27.6475 C   0  0  0  0  0  0  0  0  0  0  0  0
   10.0908  -13.8046   26.7122 O   0  0  0  0  0  0  0  0  0  0  0  0
    9.4678  -17.9112   27.2615 C   0  0  0  0  0  0  0  0  0  0  0  0
    8.4977  -18.7018   27.1354 O   0  0  0  0  0  0  0  0  0  0  0  0
    8.9268  -13.1415   28.5095 O   0  0  0  0  0  0  0  0  0  0  0  0
   10.6064  -18.3842   27.8591 O   0  0  0  0  0  0  0  0  0  0  0  0
  1  2  1  0
  3  2  1  0
  4  3  1  0
  4  5  1  0
  5  1  1  0
  6  8  1  0
  5  6  1  1
  7  6  2  0
  9  8  1  0
  9 14  1  0
  9 10  1  6
 11 10  1  0
 12 11  1  0
 13 12  2  0
 14 17  1  0
 15 14  2  0
 16 12  1  0
 17 18  1  0
 18 19  1  1
 18 22  1  0
 20 19  1  0
 21 20  2  0
 22 25  1  0
 23 22  2  0
 24 20  1  0
M  END
$$$$
