PED.pdb
     RDKit          3D

 25 25  0  0  1  0  0  0  0  0999 V2000
    9.4097  -13.2935   19.4450 N   0  0  0  0  0  0  0  0  0  0  0  0
    8.5585  -12.9376   18.3259 C   0  0  0  0  0  0  0  0  0  0  0  0
    7.1378  -12.9148   18.9003 C   0  0  0  0  0  0  0  0  0  0  0  0
    7.2251  -14.1435   19.8160 C   0  0  0  0  0  0  0  0  0  0  0  0
    8.5923  -13.9680   20.4094 C   0  0  1  0  0  0  0  0  0  0  0  0
    9.2335  -15.2478   20.7690 C   0  0  0  0  0  0  0  0  0  0  0  0
    8.6113  -16.1269   21.4557 O   0  0  0  0  0  0  0  0  0  0  0  0
   10.5598  -15.6016   20.3929 N   0  0  0  0  0  0  0  0  0  0  0  0
   11.1723  -16.8634   20.8331 C   0  0  1  0  0  0  0  0  0  0  0  0
   12.1341  -17.3027   19.7548 C   0  0  0  0  0  0  0  0  0  0  0  0
   12.6242  -18.6875   20.1071 C   0  0  0  0  0  0  0  0  0  0  0  0
   13.5619  -19.1292   19.0538 C   0  0  0  0  0  0  0  0  0  0  0  0
   13.1096  -19.5490   17.9644 O   0  0  0  0  0  0  0  0  0  0  0  0
   11.8195  -16.7003   22.1528 C   0  0  0  0  0  0  0  0  0  0  0  0
   12.5053  -15.6550   22.3603 O   0  0  0  0  0  0  0  0  0  0  0  0
   14.9248  -19.0897   19.2432 O   0  0  0  0  0  0  0  0  0  0  0  0
   11.7051  -17.6466   23.1727 N   0  0  0  0  0  0  0  0  0  0  0  0
   12.3541  -17.4928   24.4946 C   0  0  1  0  0  0  0  0  0  0  0  0
   11.6033  -18.4562   25.3819 C   0  0  0  0  0  0  0  0  0  0  0  0
   12.0762  -18.5297   26.7695 C   0  0  0  0  0  0  0  0  0  0  0  0
   12.9904  -17.8080   27.2089 O   0  0  0  0  0  0  0  0  0  0  0  0
   13.7895  -17.8381   24.3595 C   0  0  0  0  0  0  0  0  0  0  0  0
   14.1419  -18.8398   23.6855 O   0  0  0  0  0  0  0  0  0  0  0  0
   11.5145  -19.4277   27.6811 O   0  0  0  0  0  0  0  0  0  0  0  0
   14.7702  -17.0886   24.9542 O   0  0  0  0  0  0  0  0  0  0  0  0
  1  2  1  0
  3  2  1  0
  4  3  1  0
  4  5  1  0
  5  1  1  0
  6  8  1  0
  5  6  1  6
  7  6  2  0
  9  8  1  0
  9 14  1  0
  9 10  1  6
 11 10  1  0
 12 11  1  0
 13 12  2  0
 14 17  1  0
 15 14  2  0
 16 12  1  0
 17 18  1  0
 18 19  1  1
 18 22  1  0
 20 19  1  0
 21 20  2  0
 22 25  1  0
 23 22  2  0
 24 20  1  0
M  END
$$$$
