PED.pdb
     RDKit          3D

 25 25  0  0  1  0  0  0  0  0999 V2000
    9.2495  -13.9558   18.7721 N   0  0  0  0  0  0  0  0  0  0  0  0
    8.1493  -13.4395   17.9805 C   0  0  0  0  0  0  0  0  0  0  0  0
    7.5117  -12.3510   18.8510 C   0  0  0  0  0  0  0  0  0  0  0  0
    7.5992  -13.0478   20.2158 C   0  0  0  0  0  0  0  0  0  0  0  0
    8.9692  -13.6562   20.1449 C   0  0  1  0  0  0  0  0  0  0  0  0
    9.0924  -14.8938   20.9396 C   0  0  0  0  0  0  0  0  0  0  0  0
    8.7517  -14.9237   22.1703 O   0  0  0  0  0  0  0  0  0  0  0  0
    9.5864  -16.1228   20.4190 N   0  0  0  0  0  0  0  0  0  0  0  0
    9.5726  -17.3566   21.2183 C   0  0  1  0  0  0  0  0  0  0  0  0
    9.6671  -18.5202   20.2605 C   0  0  0  0  0  0  0  0  0  0  0  0
    9.5552  -19.7935   21.0657 C   0  0  0  0  0  0  0  0  0  0  0  0
    9.5796  -20.9372   20.1302 C   0  0  0  0  0  0  0  0  0  0  0  0
   10.6708  -21.4902   19.8633 O   0  0  0  0  0  0  0  0  0  0  0  0
   10.6594  -17.3443   22.2212 C   0  0  0  0  0  0  0  0  0  0  0  0
   11.7482  -16.7698   21.9198 O   0  0  0  0  0  0  0  0  0  0  0  0
    8.4274  -21.4099   19.5438 O   0  0  0  0  0  0  0  0  0  0  0  0
   10.5338  -17.9367   23.4789 N   0  0  0  0  0  0  0  0  0  0  0  0
   11.5983  -17.8847   24.5068 C   0  0  1  0  0  0  0  0  0  0  0  0
   10.9303  -18.4239   25.7486 C   0  0  0  0  0  0  0  0  0  0  0  0
   11.8052  -18.5708   26.9180 C   0  0  0  0  0  0  0  0  0  0  0  0
   11.5157  -19.2932   27.8897 O   0  0  0  0  0  0  0  0  0  0  0  0
   12.7328  -18.7255   24.0555 C   0  0  0  0  0  0  0  0  0  0  0  0
   12.5218  -19.8441   23.5204 O   0  0  0  0  0  0  0  0  0  0  0  0
   13.0264  -17.8964   27.0001 O   0  0  0  0  0  0  0  0  0  0  0  0
   14.0333  -18.3201   24.2015 O   0  0  0  0  0  0  0  0  0  0  0  0
  1  2  1  0
  3  2  1  0
  4  3  1  0
  4  5  1  0
  5  1  1  0
  6  8  1  0
  5  6  1  1
  7  6  2  0
  9  8  1  0
  9 14  1  0
  9 10  1  6
 11 10  1  0
 12 11  1  0
 13 12  2  0
 14 17  1  0
 15 14  2  0
 16 12  1  0
 17 18  1  0
 18 19  1  1
 18 22  1  0
 20 19  1  0
 21 20  2  0
 22 25  1  0
 23 22  2  0
 24 20  1  0
M  END
$$$$
