PED.pdb
     RDKit          3D

 25 25  0  0  1  0  0  0  0  0999 V2000
    8.7784  -14.6485   17.8748 N   0  0  0  0  0  0  0  0  0  0  0  0
    7.4412  -14.1999   17.5368 C   0  0  0  0  0  0  0  0  0  0  0  0
    7.3959  -12.7297   17.9674 C   0  0  0  0  0  0  0  0  0  0  0  0
    8.1757  -12.8373   19.2851 C   0  0  0  0  0  0  0  0  0  0  0  0
    9.2799  -13.7754   18.8943 C   0  0  1  0  0  0  0  0  0  0  0  0
    9.7711  -14.5899   20.0229 C   0  0  0  0  0  0  0  0  0  0  0  0
   10.1883  -14.0423   21.0988 O   0  0  0  0  0  0  0  0  0  0  0  0
    9.8206  -16.0122   20.0098 N   0  0  0  0  0  0  0  0  0  0  0  0
   10.3292  -16.7738   21.1598 C   0  0  1  0  0  0  0  0  0  0  0  0
    9.8007  -18.1835   21.0416 C   0  0  0  0  0  0  0  0  0  0  0  0
   10.2300  -18.9443   22.2741 C   0  0  0  0  0  0  0  0  0  0  0  0
    9.7673  -20.3414   22.1409 C   0  0  0  0  0  0  0  0  0  0  0  0
    9.2561  -20.9167   23.1285 O   0  0  0  0  0  0  0  0  0  0  0  0
   11.8057  -16.7135   21.2176 C   0  0  0  0  0  0  0  0  0  0  0  0
   12.4564  -16.8903   20.1446 O   0  0  0  0  0  0  0  0  0  0  0  0
    9.8857  -21.0268   20.9530 O   0  0  0  0  0  0  0  0  0  0  0  0
   12.5064  -16.4709   22.4004 N   0  0  0  0  0  0  0  0  0  0  0  0
   13.9851  -16.4684   22.4779 C   0  0  1  0  0  0  0  0  0  0  0  0
   14.3608  -15.0332   22.1981 C   0  0  0  0  0  0  0  0  0  0  0  0
   15.0246  -14.7983   20.9103 C   0  0  0  0  0  0  0  0  0  0  0  0
   16.2551  -14.9086   20.7565 O   0  0  0  0  0  0  0  0  0  0  0  0
   14.3881  -16.9123   23.8337 C   0  0  0  0  0  0  0  0  0  0  0  0
   13.5392  -16.9793   24.7594 O   0  0  0  0  0  0  0  0  0  0  0  0
   14.2968  -14.4332   19.7745 O   0  0  0  0  0  0  0  0  0  0  0  0
   15.6808  -17.2617   24.1232 O   0  0  0  0  0  0  0  0  0  0  0  0
  1  2  1  0
  3  2  1  0
  4  3  1  0
  4  5  1  0
  5  1  1  0
  6  8  1  0
  5  6  1  1
  7  6  2  0
  9  8  1  0
  9 14  1  0
  9 10  1  6
 11 10  1  0
 12 11  1  0
 13 12  2  0
 14 17  1  0
 15 14  2  0
 16 12  1  0
 17 18  1  0
 18 19  1  1
 18 22  1  0
 20 19  1  0
 21 20  2  0
 22 25  1  0
 23 22  2  0
 24 20  1  0
M  END
$$$$
