PED.pdb
     RDKit          3D

 25 25  0  0  1  0  0  0  0  0999 V2000
    7.3964  -15.2123   20.3957 N   0  0  0  0  0  0  0  0  0  0  0  0
    6.3404  -14.2677   20.0855 C   0  0  0  0  0  0  0  0  0  0  0  0
    6.9855  -13.2490   19.1394 C   0  0  0  0  0  0  0  0  0  0  0  0
    8.3564  -13.1203   19.8175 C   0  0  0  0  0  0  0  0  0  0  0  0
    8.6463  -14.5518   20.1624 C   0  0  1  0  0  0  0  0  0  0  0  0
    9.4947  -14.6956   21.3616 C   0  0  0  0  0  0  0  0  0  0  0  0
   10.6546  -14.1633   21.4162 O   0  0  0  0  0  0  0  0  0  0  0  0
    9.1054  -15.4177   22.5246 N   0  0  0  0  0  0  0  0  0  0  0  0
    9.9598  -15.4674   23.7198 C   0  0  1  0  0  0  0  0  0  0  0  0
    9.1086  -15.9563   24.8674 C   0  0  0  0  0  0  0  0  0  0  0  0
    8.3964  -17.2095   24.4151 C   0  0  0  0  0  0  0  0  0  0  0  0
    7.6748  -17.7761   25.5736 C   0  0  0  0  0  0  0  0  0  0  0  0
    6.8519  -18.7023   25.3924 O   0  0  0  0  0  0  0  0  0  0  0  0
   11.1483  -16.3144   23.4804 C   0  0  0  0  0  0  0  0  0  0  0  0
   10.9844  -17.4287   22.8996 O   0  0  0  0  0  0  0  0  0  0  0  0
    7.8868  -17.3080   26.8506 O   0  0  0  0  0  0  0  0  0  0  0  0
   12.4355  -15.9368   23.8666 N   0  0  0  0  0  0  0  0  0  0  0  0
   13.6370  -16.7545   23.5833 C   0  0  1  0  0  0  0  0  0  0  0  0
   14.7802  -15.7773   23.7145 C   0  0  0  0  0  0  0  0  0  0  0  0
   16.1053  -16.3140   23.3819 C   0  0  0  0  0  0  0  0  0  0  0  0
   16.2829  -17.4893   23.0121 O   0  0  0  0  0  0  0  0  0  0  0  0
   13.7057  -17.8533   24.5761 C   0  0  0  0  0  0  0  0  0  0  0  0
   14.2723  -18.9381   24.2858 O   0  0  0  0  0  0  0  0  0  0  0  0
   17.2519  -15.5194   23.4649 O   0  0  0  0  0  0  0  0  0  0  0  0
   13.1634  -17.7286   25.8280 O   0  0  0  0  0  0  0  0  0  0  0  0
  1  2  1  0
  3  2  1  0
  4  3  1  0
  4  5  1  0
  5  1  1  0
  6  8  1  0
  5  6  1  1
  7  6  2  0
  9  8  1  0
  9 14  1  0
  9 10  1  1
 11 10  1  0
 12 11  1  0
 13 12  2  0
 14 17  1  0
 15 14  2  0
 16 12  1  0
 17 18  1  0
 18 19  1  1
 18 22  1  0
 20 19  1  0
 21 20  2  0
 22 25  1  0
 23 22  2  0
 24 20  1  0
M  END
$$$$
