DLY.pdb
     RDKit          3D

 29 29  0  0  1  0  0  0  0  0999 V2000
    9.3141  -16.2766   20.1578 N   0  0  0  0  0  0  0  0  0  0  0  0
    8.3759  -16.5525   21.2208 C   0  0  1  0  0  0  0  0  0  0  0  0
    8.4368  -18.0016   21.5757 C   0  0  0  0  0  0  0  0  0  0  0  0
    8.1323  -18.9342   20.4864 C   0  0  0  0  0  0  0  0  0  0  0  0
    7.3343  -18.7381   19.5488 O   0  0  0  0  0  0  0  0  0  0  0  0
    8.6422  -15.6994   22.4152 C   0  0  0  0  0  0  0  0  0  0  0  0
    9.8315  -15.5769   22.8677 O   0  0  0  0  0  0  0  0  0  0  0  0
    8.7975  -20.1587   20.4975 O   0  0  0  0  0  0  0  0  0  0  0  0
    7.7571  -11.4475   25.8063 C   0  0  0  0  0  0  0  0  0  0  0  0
    6.8048  -12.6198   25.9095 C   0  0  1  0  0  0  0  0  0  0  0  0
    5.4242  -12.0123   26.1677 C   0  0  0  0  0  0  0  0  0  0  0  0
    6.7311  -13.3713   24.6275 C   0  0  0  0  0  0  0  0  0  0  0  0
    7.9161  -14.2415   24.3346 C   0  0  2  0  0  0  0  0  0  0  0  0
    7.6497  -14.9896   23.1133 N   0  0  0  0  0  0  0  0  0  0  0  0
    8.2627  -15.1454   25.4516 C   0  0  0  0  0  0  0  0  0  0  0  0
    7.4407  -16.0161   25.7957 O   0  0  0  0  0  0  0  0  0  0  0  0
   12.5020  -20.3533   31.0933 O   0  0  0  0  0  0  0  0  0  0  0  0
   12.0773  -19.5141   30.0664 C   0  0  0  0  0  0  0  0  0  0  0  0
   12.9124  -18.5334   29.5755 C   0  0  0  0  0  0  0  0  0  0  0  0
   12.5199  -17.6852   28.5573 C   0  0  0  0  0  0  0  0  0  0  0  0
   11.2677  -17.7833   27.9840 C   0  0  0  0  0  0  0  0  0  0  0  0
   10.7948  -16.9018   26.8952 C   0  0  0  0  0  0  0  0  0  0  0  0
    9.7891  -15.8686   27.3431 C   0  0  2  0  0  0  0  0  0  0  0  0
    9.5030  -15.0580   26.1500 N   0  0  0  0  0  0  0  0  0  0  0  0
   10.3203  -14.9302   28.3568 C   0  0  0  0  0  0  0  0  0  0  0  0
   10.2109  -15.1382   29.7269 O   0  0  0  0  0  0  0  0  0  0  0  0
   10.4257  -18.7618   28.4693 C   0  0  0  0  0  0  0  0  0  0  0  0
   10.8255  -19.6167   29.4977 C   0  0  0  0  0  0  0  0  0  0  0  0
   10.9114  -13.8718   27.9521 O   0  0  0  0  0  0  0  0  0  0  0  0
  2  1  1  6
  2  3  1  0
  4  3  1  0
  4  8  1  0
  5  4  2  0
  6  2  1  0
  7  6  2  0
 10 12  1  0
 10  9  1  6
 11 10  1  0
 13 12  1  1
 13 14  1  0
 14  6  1  0
 15 24  1  0
 15 13  1  0
 16 15  2  0
 18 17  1  0
 19 18  2  0
 20 19  1  0
 21 20  2  0
 21 27  1  0
 23 22  1  6
 22 21  1  0
 23 25  1  0
 23 24  1  0
 25 26  1  0
 27 28  2  0
 28 18  1  0
 29 25  2  0
M  END
$$$$
