DLY.pdb
     RDKit          3D

 29 29  0  0  1  0  0  0  0  0999 V2000
    8.2331  -18.8068   20.4841 N   0  0  0  0  0  0  0  0  0  0  0  0
    9.5942  -18.4337   20.1767 C   0  0  1  0  0  0  0  0  0  0  0  0
    9.7981  -18.4664   18.6979 C   0  0  0  0  0  0  0  0  0  0  0  0
    9.5371  -19.7556   18.0506 C   0  0  0  0  0  0  0  0  0  0  0  0
    9.4591  -19.9626   16.8236 O   0  0  0  0  0  0  0  0  0  0  0  0
    9.9272  -17.0895   20.7312 C   0  0  0  0  0  0  0  0  0  0  0  0
   11.1044  -16.6097   20.5955 O   0  0  0  0  0  0  0  0  0  0  0  0
    9.3584  -20.8577   18.8846 O   0  0  0  0  0  0  0  0  0  0  0  0
    6.5882  -13.0636   20.2529 C   0  0  0  0  0  0  0  0  0  0  0  0
    7.8180  -13.9377   20.3767 C   0  0  1  0  0  0  0  0  0  0  0  0
    8.9104  -13.2354   19.5673 C   0  0  0  0  0  0  0  0  0  0  0  0
    8.2858  -14.0167   21.7869 C   0  0  0  0  0  0  0  0  0  0  0  0
    9.3845  -15.0058   22.0353 C   0  0  2  0  0  0  0  0  0  0  0  0
    9.0134  -16.2732   21.4203 N   0  0  0  0  0  0  0  0  0  0  0  0
    9.6974  -15.1777   23.4696 C   0  0  0  0  0  0  0  0  0  0  0  0
   10.4189  -14.3316   24.0316 O   0  0  0  0  0  0  0  0  0  0  0  0
    6.3558  -11.0174   26.9408 O   0  0  0  0  0  0  0  0  0  0  0  0
    6.8236  -12.3226   26.8112 C   0  0  0  0  0  0  0  0  0  0  0  0
    6.0291  -13.2962   26.2447 C   0  0  0  0  0  0  0  0  0  0  0  0
    6.4649  -14.6001   26.1022 C   0  0  0  0  0  0  0  0  0  0  0  0
    7.7217  -14.9869   26.5231 C   0  0  0  0  0  0  0  0  0  0  0  0
    8.2380  -16.3666   26.3979 C   0  0  0  0  0  0  0  0  0  0  0  0
    9.5474  -16.4603   25.6521 C   0  0  2  0  0  0  0  0  0  0  0  0
    9.2041  -16.2759   24.2341 N   0  0  0  0  0  0  0  0  0  0  0  0
   10.1860  -17.7920   25.7480 C   0  0  0  0  0  0  0  0  0  0  0  0
   10.3746  -18.6327   24.6572 O   0  0  0  0  0  0  0  0  0  0  0  0
    8.5231  -14.0190   27.0912 C   0  0  0  0  0  0  0  0  0  0  0  0
    8.0797  -12.7031   27.2334 C   0  0  0  0  0  0  0  0  0  0  0  0
   10.5859  -18.1912   26.8943 O   0  0  0  0  0  0  0  0  0  0  0  0
  2  1  1  6
  2  3  1  0
  4  3  1  0
  4  8  1  0
  5  4  2  0
  6  2  1  0
  7  6  2  0
 10 12  1  0
 10  9  1  1
 11 10  1  0
 13 12  1  1
 13 14  1  0
 14  6  1  0
 15 24  1  0
 15 13  1  0
 16 15  2  0
 18 17  1  0
 19 18  2  0
 20 19  1  0
 21 20  2  0
 21 27  1  0
 23 22  1  1
 22 21  1  0
 23 25  1  0
 23 24  1  0
 25 26  1  0
 27 28  2  0
 28 18  1  0
 29 25  2  0
M  END
$$$$
