DLY.pdb
     RDKit          3D

 29 29  0  0  1  0  0  0  0  0999 V2000
    8.8579  -18.6341   20.0464 N   0  0  0  0  0  0  0  0  0  0  0  0
   10.1928  -18.0854   19.9879 C   0  0  1  0  0  0  0  0  0  0  0  0
   10.6362  -18.0039   18.5645 C   0  0  0  0  0  0  0  0  0  0  0  0
   10.6590  -19.2748   17.8341 C   0  0  0  0  0  0  0  0  0  0  0  0
   10.6253  -19.4146   16.5956 O   0  0  0  0  0  0  0  0  0  0  0  0
   10.2593  -16.7476   20.6445 C   0  0  0  0  0  0  0  0  0  0  0  0
   11.3703  -16.1193   20.7164 O   0  0  0  0  0  0  0  0  0  0  0  0
   10.7244  -20.4406   18.5947 O   0  0  0  0  0  0  0  0  0  0  0  0
    6.4259  -13.1355   19.8805 C   0  0  0  0  0  0  0  0  0  0  0  0
    7.7493  -13.8331   20.1123 C   0  0  1  0  0  0  0  0  0  0  0  0
    8.8187  -12.8924   19.5526 C   0  0  0  0  0  0  0  0  0  0  0  0
    8.0217  -14.0077   21.5645 C   0  0  0  0  0  0  0  0  0  0  0  0
    9.2491  -14.8055   21.8873 C   0  0  2  0  0  0  0  0  0  0  0  0
    9.1530  -16.0943   21.2150 N   0  0  0  0  0  0  0  0  0  0  0  0
    9.4667  -14.9737   23.3396 C   0  0  0  0  0  0  0  0  0  0  0  0
    9.7556  -13.9727   24.0226 O   0  0  0  0  0  0  0  0  0  0  0  0
    6.2496  -11.0355   26.8760 O   0  0  0  0  0  0  0  0  0  0  0  0
    6.7163  -12.3312   26.6698 C   0  0  0  0  0  0  0  0  0  0  0  0
    6.0185  -13.2047   25.8634 C   0  0  0  0  0  0  0  0  0  0  0  0
    6.4558  -14.4965   25.6393 C   0  0  0  0  0  0  0  0  0  0  0  0
    7.6168  -14.9715   26.2163 C   0  0  0  0  0  0  0  0  0  0  0  0
    8.1295  -16.3434   26.0136 C   0  0  0  0  0  0  0  0  0  0  0  0
    9.5257  -16.3921   25.4409 C   0  0  2  0  0  0  0  0  0  0  0  0
    9.3582  -16.2393   23.9880 N   0  0  0  0  0  0  0  0  0  0  0  0
   10.1989  -17.6950   25.6398 C   0  0  0  0  0  0  0  0  0  0  0  0
   10.6068  -18.5152   24.5943 O   0  0  0  0  0  0  0  0  0  0  0  0
    8.3210  -14.1042   27.0247 C   0  0  0  0  0  0  0  0  0  0  0  0
    7.8764  -12.8001   27.2487 C   0  0  0  0  0  0  0  0  0  0  0  0
   10.4173  -18.0879   26.8362 O   0  0  0  0  0  0  0  0  0  0  0  0
  2  1  1  6
  2  3  1  0
  4  3  1  0
  4  8  1  0
  5  4  2  0
  6  2  1  0
  7  6  2  0
 10 12  1  0
 10  9  1  1
 11 10  1  0
 13 12  1  1
 13 14  1  0
 14  6  1  0
 15 24  1  0
 15 13  1  0
 16 15  2  0
 18 17  1  0
 19 18  2  0
 20 19  1  0
 21 20  2  0
 21 27  1  0
 23 22  1  1
 22 21  1  0
 23 25  1  0
 23 24  1  0
 25 26  1  0
 27 28  2  0
 28 18  1  0
 29 25  2  0
M  END
$$$$
