DLY.pdb
     RDKit          3D

 29 29  0  0  1  0  0  0  0  0999 V2000
    8.3031  -17.1149   19.4135 N   0  0  0  0  0  0  0  0  0  0  0  0
    7.9060  -17.2913   20.7911 C   0  0  1  0  0  0  0  0  0  0  0  0
    8.4929  -18.5579   21.3207 C   0  0  0  0  0  0  0  0  0  0  0  0
    8.0365  -19.7891   20.6688 C   0  0  0  0  0  0  0  0  0  0  0  0
    7.2674  -19.8643   19.6903 O   0  0  0  0  0  0  0  0  0  0  0  0
    8.3127  -16.1248   21.6271 C   0  0  0  0  0  0  0  0  0  0  0  0
    9.4326  -15.5435   21.4216 O   0  0  0  0  0  0  0  0  0  0  0  0
    8.5058  -20.9929   21.1910 O   0  0  0  0  0  0  0  0  0  0  0  0
    7.3630  -11.7507   24.6997 C   0  0  0  0  0  0  0  0  0  0  0  0
    7.2057  -13.0642   25.4356 C   0  0  1  0  0  0  0  0  0  0  0  0
    5.9949  -12.8840   26.3537 C   0  0  0  0  0  0  0  0  0  0  0  0
    6.8951  -14.1762   24.4972 C   0  0  0  0  0  0  0  0  0  0  0  0
    8.0115  -14.5534   23.5706 C   0  0  2  0  0  0  0  0  0  0  0  0
    7.5318  -15.5904   22.6668 N   0  0  0  0  0  0  0  0  0  0  0  0
    9.2341  -14.9851   24.2803 C   0  0  0  0  0  0  0  0  0  0  0  0
   10.0642  -14.1221   24.6243 O   0  0  0  0  0  0  0  0  0  0  0  0
   10.9749  -13.9310   31.2737 O   0  0  0  0  0  0  0  0  0  0  0  0
   10.7048  -14.7304   30.1660 C   0  0  0  0  0  0  0  0  0  0  0  0
   11.1916  -16.0183   30.0987 C   0  0  0  0  0  0  0  0  0  0  0  0
   10.9408  -16.8360   29.0131 C   0  0  0  0  0  0  0  0  0  0  0  0
   10.1876  -16.3967   27.9425 C   0  0  0  0  0  0  0  0  0  0  0  0
    9.8906  -17.2267   26.7555 C   0  0  0  0  0  0  0  0  0  0  0  0
   10.5801  -16.7566   25.4972 C   0  0  2  0  0  0  0  0  0  0  0  0
    9.4989  -16.3527   24.5860 N   0  0  0  0  0  0  0  0  0  0  0  0
   11.3246  -17.8278   24.7982 C   0  0  0  0  0  0  0  0  0  0  0  0
   10.9476  -18.3444   23.5640 O   0  0  0  0  0  0  0  0  0  0  0  0
    9.6967  -15.1093   28.0015 C   0  0  0  0  0  0  0  0  0  0  0  0
    9.9520  -14.2863   29.0996 C   0  0  0  0  0  0  0  0  0  0  0  0
   12.3701  -18.3040   25.3582 O   0  0  0  0  0  0  0  0  0  0  0  0
  2  1  1  6
  2  3  1  0
  4  3  1  0
  4  8  1  0
  5  4  2  0
  6  2  1  0
  7  6  2  0
 10 12  1  0
 10  9  1  6
 11 10  1  0
 13 12  1  1
 13 14  1  0
 14  6  1  0
 15 24  1  0
 15 13  1  0
 16 15  2  0
 18 17  1  0
 19 18  2  0
 20 19  1  0
 21 20  2  0
 21 27  1  0
 23 22  1  1
 22 21  1  0
 23 25  1  0
 23 24  1  0
 25 26  1  0
 27 28  2  0
 28 18  1  0
 29 25  2  0
M  END
$$$$
