DLY.pdb
     RDKit          3D

 29 29  0  0  1  0  0  0  0  0999 V2000
   10.7169  -18.6387   18.9428 N   0  0  0  0  0  0  0  0  0  0  0  0
    9.8303  -18.5093   20.0757 C   0  0  1  0  0  0  0  0  0  0  0  0
    9.9729  -19.7045   20.9592 C   0  0  0  0  0  0  0  0  0  0  0  0
    9.8812  -21.0041   20.2871 C   0  0  0  0  0  0  0  0  0  0  0  0
   10.1145  -21.2302   19.0834 O   0  0  0  0  0  0  0  0  0  0  0  0
   10.0963  -17.2518   20.8327 C   0  0  0  0  0  0  0  0  0  0  0  0
   11.2975  -16.8835   21.0690 O   0  0  0  0  0  0  0  0  0  0  0  0
    9.4962  -22.0935   21.0662 O   0  0  0  0  0  0  0  0  0  0  0  0
    6.4682  -13.2553   20.1960 C   0  0  0  0  0  0  0  0  0  0  0  0
    7.7608  -14.0367   20.2973 C   0  0  1  0  0  0  0  0  0  0  0  0
    8.8243  -13.1708   19.6185 C   0  0  0  0  0  0  0  0  0  0  0  0
    8.1715  -14.2215   21.7153 C   0  0  0  0  0  0  0  0  0  0  0  0
    9.3686  -15.1006   21.9186 C   0  0  2  0  0  0  0  0  0  0  0  0
    9.0912  -16.4033   21.3286 N   0  0  0  0  0  0  0  0  0  0  0  0
    9.7609  -15.2279   23.3380 C   0  0  0  0  0  0  0  0  0  0  0  0
   10.6006  -14.4329   23.8018 O   0  0  0  0  0  0  0  0  0  0  0  0
    6.4846  -10.8007   26.7795 O   0  0  0  0  0  0  0  0  0  0  0  0
    6.9312  -12.1160   26.6818 C   0  0  0  0  0  0  0  0  0  0  0  0
    6.0487  -13.1331   26.3871 C   0  0  0  0  0  0  0  0  0  0  0  0
    6.4612  -14.4481   26.2833 C   0  0  0  0  0  0  0  0  0  0  0  0
    7.7823  -14.8029   26.4713 C   0  0  0  0  0  0  0  0  0  0  0  0
    8.2781  -16.1925   26.3751 C   0  0  0  0  0  0  0  0  0  0  0  0
    9.5779  -16.3229   25.6180 C   0  0  2  0  0  0  0  0  0  0  0  0
    9.2140  -16.2268   24.1964 N   0  0  0  0  0  0  0  0  0  0  0  0
   10.2271  -17.6424   25.7852 C   0  0  0  0  0  0  0  0  0  0  0  0
   10.4256  -18.5376   24.7404 O   0  0  0  0  0  0  0  0  0  0  0  0
    8.6720  -13.7914   26.7666 C   0  0  0  0  0  0  0  0  0  0  0  0
    8.2518  -12.4644   26.8705 C   0  0  0  0  0  0  0  0  0  0  0  0
   10.6269  -17.9777   26.9518 O   0  0  0  0  0  0  0  0  0  0  0  0
  2  1  1  6
  2  3  1  0
  4  3  1  0
  4  8  1  0
  5  4  2  0
  6  2  1  0
  7  6  2  0
 10 12  1  0
 10  9  1  1
 11 10  1  0
 13 12  1  1
 13 14  1  0
 14  6  1  0
 15 24  1  0
 15 13  1  0
 16 15  2  0
 18 17  1  0
 19 18  2  0
 20 19  1  0
 21 20  2  0
 21 27  1  0
 23 22  1  1
 22 21  1  0
 23 25  1  0
 23 24  1  0
 25 26  1  0
 27 28  2  0
 28 18  1  0
 29 25  2  0
M  END
$$$$
