DLY.pdb
     RDKit          3D

 29 29  0  0  1  0  0  0  0  0999 V2000
    6.9843  -17.5017   21.6385 N   0  0  0  0  0  0  0  0  0  0  0  0
    8.2450  -17.1393   21.0339 C   0  0  1  0  0  0  0  0  0  0  0  0
    8.0043  -16.6102   19.6586 C   0  0  0  0  0  0  0  0  0  0  0  0
    7.3111  -17.5201   18.7417 C   0  0  0  0  0  0  0  0  0  0  0  0
    6.9225  -18.6756   19.0028 O   0  0  0  0  0  0  0  0  0  0  0  0
    8.9806  -16.1443   21.8669 C   0  0  0  0  0  0  0  0  0  0  0  0
   10.1027  -15.6763   21.4714 O   0  0  0  0  0  0  0  0  0  0  0  0
    7.0611  -17.0509   17.4535 O   0  0  0  0  0  0  0  0  0  0  0  0
    6.1132  -13.0352   25.2007 C   0  0  0  0  0  0  0  0  0  0  0  0
    7.0902  -13.5905   24.1864 C   0  0  1  0  0  0  0  0  0  0  0  0
    7.4087  -12.4323   23.2385 C   0  0  0  0  0  0  0  0  0  0  0  0
    8.3648  -14.0038   24.8332 C   0  0  0  0  0  0  0  0  0  0  0  0
    9.3042  -14.7687   23.9501 C   0  0  2  0  0  0  0  0  0  0  0  0
    8.5213  -15.6592   23.1038 N   0  0  0  0  0  0  0  0  0  0  0  0
   10.3330  -15.5145   24.7052 C   0  0  0  0  0  0  0  0  0  0  0  0
   11.2012  -14.8743   25.3286 O   0  0  0  0  0  0  0  0  0  0  0  0
   10.7665  -14.1529   31.1156 O   0  0  0  0  0  0  0  0  0  0  0  0
   10.6525  -15.0841   30.0865 C   0  0  0  0  0  0  0  0  0  0  0  0
    9.7212  -14.9082   29.0856 C   0  0  0  0  0  0  0  0  0  0  0  0
    9.5839  -15.8144   28.0511 C   0  0  0  0  0  0  0  0  0  0  0  0
   10.3777  -16.9415   27.9741 C   0  0  0  0  0  0  0  0  0  0  0  0
   10.2725  -17.9443   26.8928 C   0  0  0  0  0  0  0  0  0  0  0  0
   11.1875  -17.6745   25.7225 C   0  0  2  0  0  0  0  0  0  0  0  0
   10.3687  -16.9396   24.7469 N   0  0  0  0  0  0  0  0  0  0  0  0
   11.6398  -18.9035   25.0329 C   0  0  0  0  0  0  0  0  0  0  0  0
   11.2340  -19.2576   23.7514 O   0  0  0  0  0  0  0  0  0  0  0  0
   11.3121  -17.1252   28.9716 C   0  0  0  0  0  0  0  0  0  0  0  0
   11.4480  -16.2079   30.0149 C   0  0  0  0  0  0  0  0  0  0  0  0
   12.4464  -19.6813   25.6474 O   0  0  0  0  0  0  0  0  0  0  0  0
  2  1  1  1
  2  3  1  0
  4  3  1  0
  4  8  1  0
  5  4  2  0
  6  2  1  0
  7  6  2  0
 10 12  1  0
 10  9  1  1
 11 10  1  0
 13 12  1  1
 13 14  1  0
 14  6  1  0
 15 24  1  0
 15 13  1  0
 16 15  2  0
 18 17  1  0
 19 18  2  0
 20 19  1  0
 21 20  2  0
 21 27  1  0
 23 22  1  1
 22 21  1  0
 23 25  1  0
 23 24  1  0
 25 26  1  0
 27 28  2  0
 28 18  1  0
 29 25  2  0
M  END
$$$$
