DLY.pdb
     RDKit          3D

 29 29  0  0  1  0  0  0  0  0999 V2000
   10.3359  -17.3067   17.5507 N   0  0  0  0  0  0  0  0  0  0  0  0
   11.3296  -17.2627   18.5981 C   0  0  1  0  0  0  0  0  0  0  0  0
   12.6516  -16.8856   18.0154 C   0  0  0  0  0  0  0  0  0  0  0  0
   13.3475  -17.9479   17.2830 C   0  0  0  0  0  0  0  0  0  0  0  0
   12.8559  -19.0315   16.9109 O   0  0  0  0  0  0  0  0  0  0  0  0
   10.9351  -16.3163   19.6816 C   0  0  0  0  0  0  0  0  0  0  0  0
   11.8228  -15.8072   20.4477 O   0  0  0  0  0  0  0  0  0  0  0  0
   14.6879  -17.7280   16.9713 O   0  0  0  0  0  0  0  0  0  0  0  0
    6.3364  -13.1668   19.2977 C   0  0  0  0  0  0  0  0  0  0  0  0
    7.7406  -13.7055   19.4701 C   0  0  1  0  0  0  0  0  0  0  0  0
    8.6469  -12.4773   19.5768 C   0  0  0  0  0  0  0  0  0  0  0  0
    7.8738  -14.4725   20.7380 C   0  0  0  0  0  0  0  0  0  0  0  0
    9.2469  -15.0074   21.0134 C   0  0  2  0  0  0  0  0  0  0  0  0
    9.6105  -15.9225   19.9398 N   0  0  0  0  0  0  0  0  0  0  0  0
    9.3615  -15.6594   22.3349 C   0  0  0  0  0  0  0  0  0  0  0  0
    9.0531  -16.8620   22.4390 O   0  0  0  0  0  0  0  0  0  0  0  0
   10.7018  -16.2853   31.1683 O   0  0  0  0  0  0  0  0  0  0  0  0
   10.6413  -15.8685   29.8410 C   0  0  0  0  0  0  0  0  0  0  0  0
    9.9025  -14.7588   29.4905 C   0  0  0  0  0  0  0  0  0  0  0  0
    9.8229  -14.3202   28.1822 C   0  0  0  0  0  0  0  0  0  0  0  0
   10.4833  -14.9778   27.1634 C   0  0  0  0  0  0  0  0  0  0  0  0
   10.4311  -14.5549   25.7476 C   0  0  0  0  0  0  0  0  0  0  0  0
    9.8239  -15.5862   24.8272 C   0  0  2  0  0  0  0  0  0  0  0  0
    9.8121  -14.9633   23.4952 N   0  0  0  0  0  0  0  0  0  0  0  0
    8.4126  -15.9002   25.1438 C   0  0  0  0  0  0  0  0  0  0  0  0
    7.3334  -15.2106   24.6034 O   0  0  0  0  0  0  0  0  0  0  0  0
   11.2247  -16.0892   27.5054 C   0  0  0  0  0  0  0  0  0  0  0  0
   11.3028  -16.5291   28.8277 C   0  0  0  0  0  0  0  0  0  0  0  0
    8.1722  -16.8560   25.9574 O   0  0  0  0  0  0  0  0  0  0  0  0
  2  1  1  6
  2  3  1  0
  4  3  1  0
  4  8  1  0
  5  4  2  0
  6  2  1  0
  7  6  2  0
 10 12  1  0
 10  9  1  1
 11 10  1  0
 13 12  1  6
 13 14  1  0
 14  6  1  0
 15 24  1  0
 15 13  1  0
 16 15  2  0
 18 17  1  0
 19 18  2  0
 20 19  1  0
 21 20  2  0
 21 27  1  0
 23 22  1  1
 22 21  1  0
 23 25  1  0
 23 24  1  0
 25 26  1  0
 27 28  2  0
 28 18  1  0
 29 25  2  0
M  END
$$$$
