DLY.pdb
     RDKit          3D

 29 29  0  0  1  0  0  0  0  0999 V2000
   11.6269  -17.7649   20.9677 N   0  0  0  0  0  0  0  0  0  0  0  0
   10.5519  -17.8857   21.9248 C   0  0  1  0  0  0  0  0  0  0  0  0
   11.0277  -18.6522   23.1146 C   0  0  0  0  0  0  0  0  0  0  0  0
   11.3778  -20.0540   22.8669 C   0  0  0  0  0  0  0  0  0  0  0  0
   11.4106  -20.6212   21.7571 O   0  0  0  0  0  0  0  0  0  0  0  0
   10.0295  -16.5475   22.3266 C   0  0  0  0  0  0  0  0  0  0  0  0
   10.7455  -15.7631   23.0382 O   0  0  0  0  0  0  0  0  0  0  0  0
   11.7061  -20.8298   23.9771 O   0  0  0  0  0  0  0  0  0  0  0  0
    6.5578  -13.7586   19.0296 C   0  0  0  0  0  0  0  0  0  0  0  0
    7.6989  -14.1446   19.9464 C   0  0  1  0  0  0  0  0  0  0  0  0
    8.6673  -12.9600   19.9263 C   0  0  0  0  0  0  0  0  0  0  0  0
    7.2315  -14.3177   21.3483 C   0  0  0  0  0  0  0  0  0  0  0  0
    8.2941  -14.7241   22.3246 C   0  0  2  0  0  0  0  0  0  0  0  0
    8.7602  -16.0584   21.9719 N   0  0  0  0  0  0  0  0  0  0  0  0
    7.8420  -14.6689   23.7308 C   0  0  0  0  0  0  0  0  0  0  0  0
    7.2259  -15.6441   24.2013 O   0  0  0  0  0  0  0  0  0  0  0  0
   11.1715  -17.4755   29.4874 O   0  0  0  0  0  0  0  0  0  0  0  0
   10.5872  -16.4020   28.8201 C   0  0  0  0  0  0  0  0  0  0  0  0
   10.1131  -15.3162   29.5246 C   0  0  0  0  0  0  0  0  0  0  0  0
    9.5283  -14.2359   28.8912 C   0  0  0  0  0  0  0  0  0  0  0  0
    9.3925  -14.1965   27.5178 C   0  0  0  0  0  0  0  0  0  0  0  0
    8.7733  -13.0690   26.7887 C   0  0  0  0  0  0  0  0  0  0  0  0
    7.5834  -13.4681   25.9494 C   0  0  2  0  0  0  0  0  0  0  0  0
    8.0850  -13.5409   24.5689 N   0  0  0  0  0  0  0  0  0  0  0  0
    6.5038  -12.4558   25.9389 C   0  0  0  0  0  0  0  0  0  0  0  0
    5.5126  -12.3813   26.9106 O   0  0  0  0  0  0  0  0  0  0  0  0
    9.8641  -15.2789   26.8051 C   0  0  0  0  0  0  0  0  0  0  0  0
   10.4542  -16.3682   27.4482 C   0  0  0  0  0  0  0  0  0  0  0  0
    6.4808  -11.6042   24.9862 O   0  0  0  0  0  0  0  0  0  0  0  0
  2  1  1  6
  2  3  1  0
  4  3  1  0
  4  8  1  0
  5  4  2  0
  6  2  1  0
  7  6  2  0
 10 12  1  0
 10  9  1  6
 11 10  1  0
 13 12  1  6
 13 14  1  0
 14  6  1  0
 15 24  1  0
 15 13  1  0
 16 15  2  0
 18 17  1  0
 19 18  2  0
 20 19  1  0
 21 20  2  0
 21 27  1  0
 23 22  1  1
 22 21  1  0
 23 25  1  0
 23 24  1  0
 25 26  1  0
 27 28  2  0
 28 18  1  0
 29 25  2  0
M  END
$$$$
