DLY.pdb
     RDKit          3D

 29 29  0  0  1  0  0  0  0  0999 V2000
   10.5131  -17.6016   17.6670 N   0  0  0  0  0  0  0  0  0  0  0  0
   11.5999  -17.1506   18.5048 C   0  0  1  0  0  0  0  0  0  0  0  0
   12.6511  -16.5131   17.6575 C   0  0  0  0  0  0  0  0  0  0  0  0
   13.3318  -17.4052   16.7141 C   0  0  0  0  0  0  0  0  0  0  0  0
   12.8447  -18.4175   16.1735 O   0  0  0  0  0  0  0  0  0  0  0  0
   11.1195  -16.2088   19.5571 C   0  0  0  0  0  0  0  0  0  0  0  0
   11.9546  -15.6214   20.3264 O   0  0  0  0  0  0  0  0  0  0  0  0
   14.6506  -17.0940   16.3884 O   0  0  0  0  0  0  0  0  0  0  0  0
    6.3285  -13.4258   19.0024 C   0  0  0  0  0  0  0  0  0  0  0  0
    7.7785  -13.7611   19.2794 C   0  0  1  0  0  0  0  0  0  0  0  0
    8.4782  -12.4203   19.5119 C   0  0  0  0  0  0  0  0  0  0  0  0
    7.9199  -14.5624   20.5250 C   0  0  0  0  0  0  0  0  0  0  0  0
    9.3175  -15.0051   20.8380 C   0  0  2  0  0  0  0  0  0  0  0  0
    9.7661  -15.9020   19.7813 N   0  0  0  0  0  0  0  0  0  0  0  0
    9.4414  -15.6393   22.1674 C   0  0  0  0  0  0  0  0  0  0  0  0
    9.3592  -16.8797   22.2501 O   0  0  0  0  0  0  0  0  0  0  0  0
   10.6216  -16.0148   31.0802 O   0  0  0  0  0  0  0  0  0  0  0  0
   10.5007  -15.6171   29.7512 C   0  0  0  0  0  0  0  0  0  0  0  0
   10.7467  -16.5098   28.7300 C   0  0  0  0  0  0  0  0  0  0  0  0
   10.6352  -16.1454   27.4014 C   0  0  0  0  0  0  0  0  0  0  0  0
   10.2706  -14.8646   27.0366 C   0  0  0  0  0  0  0  0  0  0  0  0
   10.1387  -14.4198   25.6328 C   0  0  0  0  0  0  0  0  0  0  0  0
    9.7096  -15.5148   24.6860 C   0  0  2  0  0  0  0  0  0  0  0  0
    9.6517  -14.8842   23.3588 N   0  0  0  0  0  0  0  0  0  0  0  0
    8.3470  -16.0259   24.9553 C   0  0  0  0  0  0  0  0  0  0  0  0
    8.0883  -17.1461   25.7366 O   0  0  0  0  0  0  0  0  0  0  0  0
   10.0227  -13.9651   28.0521 C   0  0  0  0  0  0  0  0  0  0  0  0
   10.1362  -14.3366   29.3928 C   0  0  0  0  0  0  0  0  0  0  0  0
    7.3546  -15.4049   24.4426 O   0  0  0  0  0  0  0  0  0  0  0  0
  2  1  1  6
  2  3  1  0
  4  3  1  0
  4  8  1  0
  5  4  2  0
  6  2  1  0
  7  6  2  0
 10 12  1  0
 10  9  1  1
 11 10  1  0
 13 12  1  6
 13 14  1  0
 14  6  1  0
 15 24  1  0
 15 13  1  0
 16 15  2  0
 18 17  1  0
 19 18  2  0
 20 19  1  0
 21 20  2  0
 21 27  1  0
 23 22  1  1
 22 21  1  0
 23 25  1  0
 23 24  1  0
 25 26  1  0
 27 28  2  0
 28 18  1  0
 29 25  2  0
M  END
$$$$
