DLY.pdb
     RDKit          3D

 29 29  0  0  1  0  0  0  0  0999 V2000
    9.0930  -18.8353   20.4115 N   0  0  0  0  0  0  0  0  0  0  0  0
   10.4093  -18.2575   20.2704 C   0  0  1  0  0  0  0  0  0  0  0  0
   10.7857  -18.2218   18.8259 C   0  0  0  0  0  0  0  0  0  0  0  0
   10.8780  -19.5259   18.1626 C   0  0  0  0  0  0  0  0  0  0  0  0
   10.6921  -20.6384   18.6938 O   0  0  0  0  0  0  0  0  0  0  0  0
   10.4708  -16.8935   20.8713 C   0  0  0  0  0  0  0  0  0  0  0  0
   11.5823  -16.2647   20.9306 O   0  0  0  0  0  0  0  0  0  0  0  0
   11.2049  -19.5249   16.8079 O   0  0  0  0  0  0  0  0  0  0  0  0
    6.5430  -13.3641   19.9986 C   0  0  0  0  0  0  0  0  0  0  0  0
    7.8953  -14.0050   20.2274 C   0  0  1  0  0  0  0  0  0  0  0  0
    8.9202  -13.0363   19.6335 C   0  0  0  0  0  0  0  0  0  0  0  0
    8.1924  -14.1373   21.6793 C   0  0  0  0  0  0  0  0  0  0  0  0
    9.4469  -14.8915   22.0028 C   0  0  2  0  0  0  0  0  0  0  0  0
    9.3591  -16.2150   21.4004 N   0  0  0  0  0  0  0  0  0  0  0  0
    9.7129  -14.9801   23.4541 C   0  0  0  0  0  0  0  0  0  0  0  0
   10.0721  -13.9534   24.0617 O   0  0  0  0  0  0  0  0  0  0  0  0
    5.6476  -11.2085   26.2991 O   0  0  0  0  0  0  0  0  0  0  0  0
    6.2706  -12.4529   26.2505 C   0  0  0  0  0  0  0  0  0  0  0  0
    5.5937  -13.5547   25.7730 C   0  0  0  0  0  0  0  0  0  0  0  0
    6.1845  -14.8027   25.7123 C   0  0  0  0  0  0  0  0  0  0  0  0
    7.4855  -15.0019   26.1294 C   0  0  0  0  0  0  0  0  0  0  0  0
    8.1660  -16.3139   26.0894 C   0  0  0  0  0  0  0  0  0  0  0  0
    9.6096  -16.2369   25.6542 C   0  0  2  0  0  0  0  0  0  0  0  0
    9.5738  -16.1970   24.1847 N   0  0  0  0  0  0  0  0  0  0  0  0
   10.3974  -17.4380   26.0111 C   0  0  0  0  0  0  0  0  0  0  0  0
   10.8098  -17.7279   27.3065 O   0  0  0  0  0  0  0  0  0  0  0  0
    8.1701  -13.9048   26.6087 C   0  0  0  0  0  0  0  0  0  0  0  0
    7.5702  -12.6459   26.6685 C   0  0  0  0  0  0  0  0  0  0  0  0
   10.7158  -18.2528   25.0793 O   0  0  0  0  0  0  0  0  0  0  0  0
  2  1  1  6
  2  3  1  0
  4  3  1  0
  4  8  1  0
  5  4  2  0
  6  2  1  0
  7  6  2  0
 10 12  1  0
 10  9  1  1
 11 10  1  0
 13 12  1  1
 13 14  1  0
 14  6  1  0
 15 24  1  0
 15 13  1  0
 16 15  2  0
 18 17  1  0
 19 18  2  0
 20 19  1  0
 21 20  2  0
 21 27  1  0
 23 22  1  1
 22 21  1  0
 23 25  1  0
 23 24  1  0
 25 26  1  0
 27 28  2  0
 28 18  1  0
 29 25  2  0
M  END
$$$$
