YNI.pdb
     RDKit          3D

 29 29  0  0  1  0  0  0  0  0999 V2000
   23.3244  -19.8628  -21.8577 O   0  0  0  0  0  0  0  0  0  0  0  0
   23.2061  -19.6851  -20.4839 C   0  0  0  0  0  0  0  0  0  0  0  0
   22.5819  -20.5722  -19.6444 C   0  0  0  0  0  0  0  0  0  0  0  0
   22.5073  -20.3177  -18.2751 C   0  0  0  0  0  0  0  0  0  0  0  0
   23.0486  -19.1823  -17.7143 C   0  0  0  0  0  0  0  0  0  0  0  0
   22.9895  -18.8786  -16.2717 C   0  0  0  0  0  0  0  0  0  0  0  0
   24.1707  -19.4965  -15.5187 C   0  0  2  0  0  0  0  0  0  0  0  0
   24.1732  -20.9334  -15.6809 N   0  0  0  0  0  0  0  0  0  0  0  0
   24.0155  -19.0697  -14.1072 C   0  0  0  0  0  0  0  0  0  0  0  0
   23.2843  -18.0675  -13.8976 O   0  0  0  0  0  0  0  0  0  0  0  0
   23.6788  -18.2859  -18.5605 C   0  0  0  0  0  0  0  0  0  0  0  0
   23.7510  -18.5446  -19.9305 C   0  0  0  0  0  0  0  0  0  0  0  0
   21.1760  -19.6040  -10.0315 N   0  0  0  0  0  0  0  0  0  0  0  0
   21.9938  -20.6662  -10.5172 C   0  0  0  0  0  0  0  0  0  0  0  0
   22.1520  -21.6594   -9.7881 O   0  0  0  0  0  0  0  0  0  0  0  0
   22.6342  -20.5929  -11.8464 C   0  0  0  0  0  0  0  0  0  0  0  0
   23.9459  -19.8483  -11.7172 C   0  0  2  0  0  0  0  0  0  0  0  0
   24.6119  -19.6843  -12.9916 N   0  0  0  0  0  0  0  0  0  0  0  0
   24.7775  -20.5642  -10.7337 C   0  0  0  0  0  0  0  0  0  0  0  0
   25.0745  -21.7882  -10.8115 O   0  0  0  0  0  0  0  0  0  0  0  0
   28.9627  -18.9265   -6.4319 C   0  0  0  0  0  0  0  0  0  0  0  0
   27.9825  -19.9255   -6.9433 C   0  0  0  0  0  0  0  0  0  0  0  0
   27.0548  -19.4493   -8.0164 C   0  0  2  0  0  0  0  0  0  0  0  0
   26.5330  -18.0918   -7.6429 C   0  0  0  0  0  0  0  0  0  0  0  0
   26.0816  -20.4202   -8.5574 C   0  0  2  0  0  0  0  0  0  0  0  0
   25.2780  -19.8336   -9.6297 N   0  0  0  0  0  0  0  0  0  0  0  0
   25.2178  -21.1476   -7.6300 C   0  0  0  0  0  0  0  0  0  0  0  0
   23.9700  -20.8753   -7.6183 O   0  0  0  0  0  0  0  0  0  0  0  0
   25.5991  -22.1295   -6.7385 O   0  0  0  0  0  0  0  0  0  0  0  0
  2  1  1  0
  3  2  2  0
  4  3  1  0
  5 11  1  0
  5  4  2  0
  6  5  1  0
  7  8  1  1
  7  6  1  0
  9  7  1  0
 10  9  2  0
 11 12  2  0
 12  2  1  0
 13 14  1  0
 14 15  2  0
 16 14  1  0
 17 16  1  6
 17 18  1  0
 18  9  1  0
 19 26  1  0
 19 17  1  0
 20 19  2  0
 22 21  1  0
 23 22  1  0
 23 24  1  1
 25 23  1  0
 25 26  1  6
 27 25  1  0
 28 27  2  0
 29 27  1  0
M  END
$$$$
