YNI.pdb
     RDKit          3D

 29 29  0  0  1  0  0  0  0  0999 V2000
   16.2072  -27.5371   -4.6815 O   0  0  0  0  0  0  0  0  0  0  0  0
   16.0485  -26.3699   -3.9433 C   0  0  0  0  0  0  0  0  0  0  0  0
   15.8850  -25.1257   -4.4969 C   0  0  0  0  0  0  0  0  0  0  0  0
   15.7316  -24.0037   -3.6829 C   0  0  0  0  0  0  0  0  0  0  0  0
   15.7374  -24.0940   -2.3087 C   0  0  0  0  0  0  0  0  0  0  0  0
   15.5784  -22.9307   -1.4152 C   0  0  0  0  0  0  0  0  0  0  0  0
   14.1384  -22.8021   -0.9113 C   0  0  2  0  0  0  0  0  0  0  0  0
   13.2598  -22.4199   -1.9943 N   0  0  0  0  0  0  0  0  0  0  0  0
   14.1829  -21.8029    0.1833 C   0  0  0  0  0  0  0  0  0  0  0  0
   13.7200  -20.6618   -0.0748 O   0  0  0  0  0  0  0  0  0  0  0  0
   15.9025  -25.3492   -1.7484 C   0  0  0  0  0  0  0  0  0  0  0  0
   16.0558  -26.4695   -2.5671 C   0  0  0  0  0  0  0  0  0  0  0  0
   11.6040  -20.7511    3.8889 N   0  0  0  0  0  0  0  0  0  0  0  0
   12.5821  -21.7150    3.5051 C   0  0  0  0  0  0  0  0  0  0  0  0
   12.1911  -22.7434    2.9284 O   0  0  0  0  0  0  0  0  0  0  0  0
   14.0174  -21.5009    3.7814 C   0  0  0  0  0  0  0  0  0  0  0  0
   14.6921  -21.0149    2.5164 C   0  0  2  0  0  0  0  0  0  0  0  0
   14.6951  -22.0200    1.4750 N   0  0  0  0  0  0  0  0  0  0  0  0
   16.0499  -20.5661    2.8716 C   0  0  0  0  0  0  0  0  0  0  0  0
   17.0253  -21.3418    3.0697 O   0  0  0  0  0  0  0  0  0  0  0  0
   20.1313  -17.2927    1.6467 C   0  0  0  0  0  0  0  0  0  0  0  0
   19.1627  -16.7241    2.6259 C   0  0  0  0  0  0  0  0  0  0  0  0
   17.7858  -17.3095    2.6070 C   0  0  2  0  0  0  0  0  0  0  0  0
   16.7873  -16.2153    2.8521 C   0  0  0  0  0  0  0  0  0  0  0  0
   17.5769  -18.5854    3.3217 C   0  0  2  0  0  0  0  0  0  0  0  0
   16.2779  -19.1751    2.9983 N   0  0  0  0  0  0  0  0  0  0  0  0
   17.7984  -18.6321    4.7654 C   0  0  0  0  0  0  0  0  0  0  0  0
   16.7860  -18.5539    5.5401 O   0  0  0  0  0  0  0  0  0  0  0  0
   19.0093  -18.7593    5.4148 O   0  0  0  0  0  0  0  0  0  0  0  0
  2  1  1  0
  3  2  2  0
  4  3  1  0
  5 11  1  0
  5  4  2  0
  6  5  1  0
  7  8  1  6
  7  6  1  0
  9  7  1  0
 10  9  2  0
 11 12  2  0
 12  2  1  0
 13 14  1  0
 14 15  2  0
 16 14  1  0
 17 16  1  1
 17 18  1  0
 18  9  1  0
 19 26  1  0
 19 17  1  0
 20 19  2  0
 22 21  1  0
 23 22  1  0
 23 24  1  1
 25 23  1  0
 25 26  1  1
 27 25  1  0
 28 27  2  0
 29 27  1  0
M  END
$$$$
