YNI.pdb
     RDKit          3D

 29 29  0  0  1  0  0  0  0  0999 V2000
   16.8538  -16.0889  -17.0194 O   0  0  0  0  0  0  0  0  0  0  0  0
   17.9145  -16.8611  -16.5597 C   0  0  0  0  0  0  0  0  0  0  0  0
   17.7861  -18.1443  -16.0924 C   0  0  0  0  0  0  0  0  0  0  0  0
   18.9039  -18.8508  -15.6490 C   0  0  0  0  0  0  0  0  0  0  0  0
   20.1660  -18.3001  -15.6607 C   0  0  0  0  0  0  0  0  0  0  0  0
   21.3713  -19.0156  -15.2000 C   0  0  0  0  0  0  0  0  0  0  0  0
   22.1071  -19.6841  -16.3643 C   0  0  2  0  0  0  0  0  0  0  0  0
   21.3124  -20.7634  -16.9069 N   0  0  0  0  0  0  0  0  0  0  0  0
   23.4062  -20.1377  -15.8118 C   0  0  0  0  0  0  0  0  0  0  0  0
   23.4164  -21.2590  -15.2412 O   0  0  0  0  0  0  0  0  0  0  0  0
   20.2971  -17.0049  -16.1319 C   0  0  0  0  0  0  0  0  0  0  0  0
   19.1756  -16.3013  -16.5746 C   0  0  0  0  0  0  0  0  0  0  0  0
   28.9030  -18.8034  -13.9164 N   0  0  0  0  0  0  0  0  0  0  0  0
   28.2171  -19.5837  -14.8930 C   0  0  0  0  0  0  0  0  0  0  0  0
   28.6438  -20.7260  -15.1301 O   0  0  0  0  0  0  0  0  0  0  0  0
   27.0344  -19.0546  -15.6028 C   0  0  0  0  0  0  0  0  0  0  0  0
   25.8074  -19.8111  -15.1404 C   0  0  2  0  0  0  0  0  0  0  0  0
   24.6183  -19.4267  -15.8703 N   0  0  0  0  0  0  0  0  0  0  0  0
   25.6695  -19.6050  -13.6879 C   0  0  0  0  0  0  0  0  0  0  0  0
   24.8305  -18.8259  -13.1575 O   0  0  0  0  0  0  0  0  0  0  0  0
   22.5686  -20.2981  -11.0024 C   0  0  0  0  0  0  0  0  0  0  0  0
   23.9306  -19.8528  -11.4109 C   0  0  0  0  0  0  0  0  0  0  0  0
   25.0717  -20.6873  -10.9204 C   0  0  2  0  0  0  0  0  0  0  0  0
   24.8849  -20.9559   -9.4550 C   0  0  0  0  0  0  0  0  0  0  0  0
   26.4296  -20.3185  -11.3704 C   0  0  2  0  0  0  0  0  0  0  0  0
   26.5322  -20.3276  -12.8295 N   0  0  0  0  0  0  0  0  0  0  0  0
   27.5795  -21.0062  -10.7870 C   0  0  0  0  0  0  0  0  0  0  0  0
   28.0248  -22.0514  -11.3704 O   0  0  0  0  0  0  0  0  0  0  0  0
   28.2684  -20.6483   -9.6461 O   0  0  0  0  0  0  0  0  0  0  0  0
  2  1  1  0
  3  2  2  0
  4  3  1  0
  5 11  1  0
  5  4  2  0
  6  5  1  0
  7  8  1  1
  7  6  1  0
  9  7  1  0
 10  9  2  0
 11 12  2  0
 12  2  1  0
 13 14  1  0
 14 15  2  0
 16 14  1  0
 17 16  1  6
 17 18  1  0
 18  9  1  0
 19 26  1  0
 19 17  1  0
 20 19  2  0
 22 21  1  0
 23 22  1  0
 23 24  1  1
 25 23  1  0
 25 26  1  6
 27 25  1  0
 28 27  2  0
 29 27  1  0
M  END
$$$$
