YNI.pdb
     RDKit          3D

 29 29  0  0  1  0  0  0  0  0999 V2000
   33.0189  -15.8510  -19.7298 O   0  0  0  0  0  0  0  0  0  0  0  0
   31.7457  -15.9681  -19.1839 C   0  0  0  0  0  0  0  0  0  0  0  0
   30.6945  -15.1457  -19.4999 C   0  0  0  0  0  0  0  0  0  0  0  0
   29.4467  -15.3322  -18.9054 C   0  0  0  0  0  0  0  0  0  0  0  0
   29.2185  -16.3347  -17.9892 C   0  0  0  0  0  0  0  0  0  0  0  0
   27.9136  -16.5629  -17.3396 C   0  0  0  0  0  0  0  0  0  0  0  0
   27.2760  -17.8745  -17.8055 C   0  0  2  0  0  0  0  0  0  0  0  0
   26.9937  -17.8200  -19.2226 N   0  0  0  0  0  0  0  0  0  0  0  0
   26.0597  -18.0477  -16.9752 C   0  0  0  0  0  0  0  0  0  0  0  0
   25.1300  -17.2195  -17.1563 O   0  0  0  0  0  0  0  0  0  0  0  0
   30.2787  -17.1656  -17.6691 C   0  0  0  0  0  0  0  0  0  0  0  0
   31.5260  -16.9751  -18.2665 C   0  0  0  0  0  0  0  0  0  0  0  0
   21.3654  -18.5399  -14.9708 N   0  0  0  0  0  0  0  0  0  0  0  0
   22.2444  -19.6226  -15.2674 C   0  0  0  0  0  0  0  0  0  0  0  0
   21.9814  -20.7357  -14.7826 O   0  0  0  0  0  0  0  0  0  0  0  0
   23.4318  -19.4318  -16.1253 C   0  0  0  0  0  0  0  0  0  0  0  0
   24.6386  -19.1905  -15.2438 C   0  0  2  0  0  0  0  0  0  0  0  0
   25.8585  -19.0504  -16.0097 N   0  0  0  0  0  0  0  0  0  0  0  0
   24.7102  -20.2890  -14.2642 C   0  0  0  0  0  0  0  0  0  0  0  0
   24.8665  -21.5035  -14.5691 O   0  0  0  0  0  0  0  0  0  0  0  0
   28.4988  -20.7647  -11.0726 C   0  0  0  0  0  0  0  0  0  0  0  0
   27.2364  -20.9625  -11.8391 C   0  0  0  0  0  0  0  0  0  0  0  0
   25.9646  -20.8053  -11.0665 C   0  0  2  0  0  0  0  0  0  0  0  0
   26.0853  -21.5544   -9.7709 C   0  0  0  0  0  0  0  0  0  0  0  0
   24.6943  -20.9417  -11.8083 C   0  0  2  0  0  0  0  0  0  0  0  0
   24.5978  -19.9633  -12.8915 N   0  0  0  0  0  0  0  0  0  0  0  0
   23.4393  -20.9812  -11.0609 C   0  0  0  0  0  0  0  0  0  0  0  0
   22.7683  -19.9012  -10.9391 O   0  0  0  0  0  0  0  0  0  0  0  0
   22.8697  -22.0820  -10.4542 O   0  0  0  0  0  0  0  0  0  0  0  0
  2  1  1  0
  3  2  2  0
  4  3  1  0
  5 11  1  0
  5  4  2  0
  6  5  1  0
  7  8  1  6
  7  6  1  0
  9  7  1  0
 10  9  2  0
 11 12  2  0
 12  2  1  0
 13 14  1  0
 14 15  2  0
 16 14  1  0
 17 16  1  6
 17 18  1  0
 18  9  1  0
 19 26  1  0
 19 17  1  0
 20 19  2  0
 22 21  1  0
 23 22  1  0
 23 24  1  1
 25 23  1  0
 25 26  1  6
 27 25  1  0
 28 27  2  0
 29 27  1  0
M  END
$$$$
