YNI.pdb
     RDKit          3D

 29 29  0  0  1  0  0  0  0  0999 V2000
   20.8790  -24.7849  -22.2722 O   0  0  0  0  0  0  0  0  0  0  0  0
   21.4360  -24.0229  -21.2515 C   0  0  0  0  0  0  0  0  0  0  0  0
   22.3892  -23.0559  -21.4456 C   0  0  0  0  0  0  0  0  0  0  0  0
   22.8963  -22.3352  -20.3646 C   0  0  0  0  0  0  0  0  0  0  0  0
   22.4691  -22.5590  -19.0747 C   0  0  0  0  0  0  0  0  0  0  0  0
   22.9817  -21.8177  -17.9066 C   0  0  0  0  0  0  0  0  0  0  0  0
   21.9390  -20.8384  -17.3610 C   0  0  2  0  0  0  0  0  0  0  0  0
   21.6961  -19.7801  -18.3159 N   0  0  0  0  0  0  0  0  0  0  0  0
   22.4841  -20.3469  -16.0726 C   0  0  0  0  0  0  0  0  0  0  0  0
   23.6066  -19.7801  -16.1140 O   0  0  0  0  0  0  0  0  0  0  0  0
   21.5070  -23.5349  -18.8771 C   0  0  0  0  0  0  0  0  0  0  0  0
   21.0024  -24.2540  -19.9621 C   0  0  0  0  0  0  0  0  0  0  0  0
   20.7633  -21.2742  -10.8670 N   0  0  0  0  0  0  0  0  0  0  0  0
   20.6163  -20.7575  -12.1878 C   0  0  0  0  0  0  0  0  0  0  0  0
   19.8816  -21.3753  -12.9763 O   0  0  0  0  0  0  0  0  0  0  0  0
   21.3132  -19.5252  -12.6098 C   0  0  0  0  0  0  0  0  0  0  0  0
   22.3971  -19.8911  -13.6012 C   0  0  2  0  0  0  0  0  0  0  0  0
   21.8586  -20.4602  -14.8180 N   0  0  0  0  0  0  0  0  0  0  0  0
   23.3421  -20.7968  -12.9245 C   0  0  0  0  0  0  0  0  0  0  0  0
   23.2950  -22.0558  -12.9969 O   0  0  0  0  0  0  0  0  0  0  0  0
   29.2052  -21.3306  -12.0283 C   0  0  0  0  0  0  0  0  0  0  0  0
   27.8506  -21.6361  -11.4879 C   0  0  0  0  0  0  0  0  0  0  0  0
   26.7153  -20.8596  -12.0770 C   0  0  2  0  0  0  0  0  0  0  0  0
   27.1869  -19.4695  -12.3925 C   0  0  0  0  0  0  0  0  0  0  0  0
   25.3915  -20.9929  -11.4348 C   0  0  2  0  0  0  0  0  0  0  0  0
   24.3714  -20.2199  -12.1429 N   0  0  0  0  0  0  0  0  0  0  0  0
   25.2773  -20.7660   -9.9957 C   0  0  0  0  0  0  0  0  0  0  0  0
   24.7354  -19.6827   -9.5907 O   0  0  0  0  0  0  0  0  0  0  0  0
   25.6939  -21.6110   -8.9874 O   0  0  0  0  0  0  0  0  0  0  0  0
  2  1  1  0
  3  2  2  0
  4  3  1  0
  5 11  1  0
  5  4  2  0
  6  5  1  0
  7  8  1  6
  7  6  1  0
  9  7  1  0
 10  9  2  0
 11 12  2  0
 12  2  1  0
 13 14  1  0
 14 15  2  0
 16 14  1  0
 17 16  1  1
 17 18  1  0
 18  9  1  0
 19 26  1  0
 19 17  1  0
 20 19  2  0
 22 21  1  0
 23 22  1  0
 23 24  1  1
 25 23  1  0
 25 26  1  6
 27 25  1  0
 28 27  2  0
 29 27  1  0
M  END
$$$$
