YNI.pdb
     RDKit          3D

 29 29  0  0  1  0  0  0  0  0999 V2000
   18.4788  -13.8049  -17.1664 O   0  0  0  0  0  0  0  0  0  0  0  0
   19.2937  -14.9094  -16.9457 C   0  0  0  0  0  0  0  0  0  0  0  0
   19.7349  -15.3050  -15.7086 C   0  0  0  0  0  0  0  0  0  0  0  0
   20.5512  -16.4278  -15.5744 C   0  0  0  0  0  0  0  0  0  0  0  0
   20.9440  -17.1774  -16.6609 C   0  0  0  0  0  0  0  0  0  0  0  0
   21.8062  -18.3703  -16.5588 C   0  0  0  0  0  0  0  0  0  0  0  0
   23.2887  -17.9901  -16.5185 C   0  0  2  0  0  0  0  0  0  0  0  0
   23.6395  -17.2128  -17.6863 N   0  0  0  0  0  0  0  0  0  0  0  0
   24.0301  -19.2709  -16.4267 C   0  0  0  0  0  0  0  0  0  0  0  0
   24.6572  -19.6351  -17.4548 O   0  0  0  0  0  0  0  0  0  0  0  0
   20.4995  -16.7792  -17.9102 C   0  0  0  0  0  0  0  0  0  0  0  0
   19.6828  -15.6545  -18.0399 C   0  0  0  0  0  0  0  0  0  0  0  0
   27.5872  -22.1752  -14.4070 N   0  0  0  0  0  0  0  0  0  0  0  0
   27.6959  -20.7681  -14.6096 C   0  0  0  0  0  0  0  0  0  0  0  0
   28.8314  -20.2645  -14.6004 O   0  0  0  0  0  0  0  0  0  0  0  0
   26.4980  -19.9309  -14.8254 C   0  0  0  0  0  0  0  0  0  0  0  0
   25.2809  -20.8280  -14.8988 C   0  0  2  0  0  0  0  0  0  0  0  0
   24.0910  -20.1071  -15.2974 N   0  0  0  0  0  0  0  0  0  0  0  0
   25.1279  -21.4909  -13.5918 C   0  0  0  0  0  0  0  0  0  0  0  0
   25.0381  -22.7397  -13.4348 O   0  0  0  0  0  0  0  0  0  0  0  0
   27.0205  -20.6077   -8.5860 C   0  0  0  0  0  0  0  0  0  0  0  0
   26.3504  -21.0216   -9.8509 C   0  0  0  0  0  0  0  0  0  0  0  0
   24.9245  -20.5969  -10.0111 C   0  0  2  0  0  0  0  0  0  0  0  0
   24.1886  -20.8663   -8.7303 C   0  0  0  0  0  0  0  0  0  0  0  0
   24.2419  -20.9595  -11.2700 C   0  0  2  0  0  0  0  0  0  0  0  0
   25.0795  -20.6763  -12.4353 N   0  0  0  0  0  0  0  0  0  0  0  0
   22.8839  -20.4731  -11.5040 C   0  0  0  0  0  0  0  0  0  0  0  0
   22.7315  -19.3616  -12.1145 O   0  0  0  0  0  0  0  0  0  0  0  0
   21.7066  -21.0923  -11.1369 O   0  0  0  0  0  0  0  0  0  0  0  0
  2  1  1  0
  3  2  2  0
  4  3  1  0
  5 11  1  0
  5  4  2  0
  6  5  1  0
  7  8  1  6
  7  6  1  0
  9  7  1  0
 10  9  2  0
 11 12  2  0
 12  2  1  0
 13 14  1  0
 14 15  2  0
 16 14  1  0
 17 16  1  1
 17 18  1  0
 18  9  1  0
 19 26  1  0
 19 17  1  0
 20 19  2  0
 22 21  1  0
 23 22  1  0
 23 24  1  1
 25 23  1  0
 25 26  1  6
 27 25  1  0
 28 27  2  0
 29 27  1  0
M  END
$$$$
