YNI.pdb
     RDKit          3D

 29 29  0  0  1  0  0  0  0  0999 V2000
   19.4608  -14.8531  -19.0256 O   0  0  0  0  0  0  0  0  0  0  0  0
   20.1525  -15.7803  -18.2546 C   0  0  0  0  0  0  0  0  0  0  0  0
   19.6222  -16.9687  -17.8209 C   0  0  0  0  0  0  0  0  0  0  0  0
   20.3859  -17.8446  -17.0498 C   0  0  0  0  0  0  0  0  0  0  0  0
   21.6858  -17.5597  -16.6954 C   0  0  0  0  0  0  0  0  0  0  0  0
   22.5243  -18.4604  -15.8814 C   0  0  0  0  0  0  0  0  0  0  0  0
   23.4090  -19.3500  -16.7589 C   0  0  2  0  0  0  0  0  0  0  0  0
   22.6090  -20.3556  -17.4219 N   0  0  0  0  0  0  0  0  0  0  0  0
   24.4300  -19.9238  -15.8496 C   0  0  0  0  0  0  0  0  0  0  0  0
   24.1073  -20.9671  -15.2250 O   0  0  0  0  0  0  0  0  0  0  0  0
   22.2224  -16.3606  -17.1323 C   0  0  0  0  0  0  0  0  0  0  0  0
   21.4542  -15.4867  -17.9038 C   0  0  0  0  0  0  0  0  0  0  0  0
   28.2887  -20.7032  -12.6228 N   0  0  0  0  0  0  0  0  0  0  0  0
   28.8411  -19.8595  -13.6309 C   0  0  0  0  0  0  0  0  0  0  0  0
   30.0515  -19.5884  -13.5643 O   0  0  0  0  0  0  0  0  0  0  0  0
   28.0039  -19.3231  -14.7235 C   0  0  0  0  0  0  0  0  0  0  0  0
   26.6028  -19.8790  -14.5845 C   0  0  2  0  0  0  0  0  0  0  0  0
   25.7182  -19.4048  -15.6271 N   0  0  0  0  0  0  0  0  0  0  0  0
   26.1150  -19.5442  -13.2349 C   0  0  0  0  0  0  0  0  0  0  0  0
   25.8529  -18.3731  -12.8446 O   0  0  0  0  0  0  0  0  0  0  0  0
   21.7945  -20.2003   -9.5963 C   0  0  0  0  0  0  0  0  0  0  0  0
   23.2831  -20.1373   -9.6087 C   0  0  0  0  0  0  0  0  0  0  0  0
   23.9444  -20.4287  -10.9190 C   0  0  2  0  0  0  0  0  0  0  0  0
   23.2475  -21.5887  -11.5696 C   0  0  0  0  0  0  0  0  0  0  0  0
   25.4213  -20.4237  -10.9540 C   0  0  2  0  0  0  0  0  0  0  0  0
   25.9263  -20.6031  -12.3150 N   0  0  0  0  0  0  0  0  0  0  0  0
   26.1537  -21.2909  -10.0337 C   0  0  0  0  0  0  0  0  0  0  0  0
   26.1829  -20.9792   -8.7955 O   0  0  0  0  0  0  0  0  0  0  0  0
   26.8369  -22.4473  -10.3505 O   0  0  0  0  0  0  0  0  0  0  0  0
  2  1  1  0
  3  2  2  0
  4  3  1  0
  5 11  1  0
  5  4  2  0
  6  5  1  0
  7  8  1  1
  7  6  1  0
  9  7  1  0
 10  9  2  0
 11 12  2  0
 12  2  1  0
 13 14  1  0
 14 15  2  0
 16 14  1  0
 17 16  1  6
 17 18  1  0
 18  9  1  0
 19 26  1  0
 19 17  1  0
 20 19  2  0
 22 21  1  0
 23 22  1  0
 23 24  1  1
 25 23  1  0
 25 26  1  6
 27 25  1  0
 28 27  2  0
 29 27  1  0
M  END
$$$$
