YNI.pdb
     RDKit          3D

 29 29  0  0  1  0  0  0  0  0999 V2000
   20.2408  -12.1074  -25.3538 O   0  0  0  0  0  0  0  0  0  0  0  0
   20.1616  -11.5573  -24.0795 C   0  0  0  0  0  0  0  0  0  0  0  0
   21.1539  -10.8062  -23.5028 C   0  0  0  0  0  0  0  0  0  0  0  0
   20.9938  -10.2900  -22.2171 C   0  0  0  0  0  0  0  0  0  0  0  0
   19.8503  -10.5080  -21.4814 C   0  0  0  0  0  0  0  0  0  0  0  0
   19.6447   -9.9791  -20.1195 C   0  0  0  0  0  0  0  0  0  0  0  0
   20.1664  -10.9486  -19.0556 C   0  0  2  0  0  0  0  0  0  0  0  0
   19.3685  -12.1544  -19.0406 N   0  0  0  0  0  0  0  0  0  0  0  0
   20.1201  -10.2031  -17.7747 C   0  0  0  0  0  0  0  0  0  0  0  0
   19.3405  -10.6457  -16.8919 O   0  0  0  0  0  0  0  0  0  0  0  0
   18.8479  -11.2661  -22.0622 C   0  0  0  0  0  0  0  0  0  0  0  0
   19.0125  -11.7810  -23.3493 C   0  0  0  0  0  0  0  0  0  0  0  0
   20.2146   -8.3711  -13.0892 N   0  0  0  0  0  0  0  0  0  0  0  0
   21.4240   -8.6354  -13.7965 C   0  0  0  0  0  0  0  0  0  0  0  0
   22.4901   -8.2428  -13.2941 O   0  0  0  0  0  0  0  0  0  0  0  0
   21.4147   -9.3546  -15.0869 C   0  0  0  0  0  0  0  0  0  0  0  0
   20.8748   -8.4312  -16.1579 C   0  0  2  0  0  0  0  0  0  0  0  0
   20.8668   -9.0522  -17.4651 N   0  0  0  0  0  0  0  0  0  0  0  0
   21.6686   -7.1901  -16.1275 C   0  0  0  0  0  0  0  0  0  0  0  0
   22.8542   -7.0947  -16.5490 O   0  0  0  0  0  0  0  0  0  0  0  0
   19.5932   -3.3320  -18.7349 C   0  0  0  0  0  0  0  0  0  0  0  0
   20.5012   -4.2159  -17.9511 C   0  0  0  0  0  0  0  0  0  0  0  0
   20.7566   -3.8083  -16.5341 C   0  0  2  0  0  0  0  0  0  0  0  0
   21.0375   -2.3338  -16.4939 C   0  0  0  0  0  0  0  0  0  0  0  0
   21.6244   -4.6824  -15.7185 C   0  0  2  0  0  0  0  0  0  0  0  0
   21.0640   -6.0277  -15.5924 N   0  0  0  0  0  0  0  0  0  0  0  0
   22.0787   -4.2088  -14.4129 C   0  0  0  0  0  0  0  0  0  0  0  0
   21.3802   -4.4970  -13.3832 O   0  0  0  0  0  0  0  0  0  0  0  0
   23.2117   -3.4668  -14.1483 O   0  0  0  0  0  0  0  0  0  0  0  0
  2  1  1  0
  3  2  2  0
  4  3  1  0
  5 11  1  0
  5  4  2  0
  6  5  1  0
  7  8  1  1
  7  6  1  0
  9  7  1  0
 10  9  2  0
 11 12  2  0
 12  2  1  0
 13 14  1  0
 14 15  2  0
 16 14  1  0
 17 16  1  1
 17 18  1  0
 18  9  1  0
 19 26  1  0
 19 17  1  0
 20 19  2  0
 22 21  1  0
 23 22  1  0
 23 24  1  6
 25 23  1  0
 25 26  1  1
 27 25  1  0
 28 27  2  0
 29 27  1  0
M  END
$$$$
