YNI.pdb
     RDKit          3D

 29 29  0  0  1  0  0  0  0  0999 V2000
   23.7441  -21.5321   -6.6338 O   0  0  0  0  0  0  0  0  0  0  0  0
   24.1552  -21.2107   -7.9223 C   0  0  0  0  0  0  0  0  0  0  0  0
   23.3039  -21.0678   -8.9883 C   0  0  0  0  0  0  0  0  0  0  0  0
   23.7995  -20.7429  -10.2508 C   0  0  0  0  0  0  0  0  0  0  0  0
   25.1443  -20.5540  -10.4794 C   0  0  0  0  0  0  0  0  0  0  0  0
   25.7057  -20.2099  -11.7998 C   0  0  0  0  0  0  0  0  0  0  0  0
   25.1655  -21.1309  -12.8971 C   0  0  2  0  0  0  0  0  0  0  0  0
   25.6232  -22.4861  -12.6855 N   0  0  0  0  0  0  0  0  0  0  0  0
   25.6363  -20.5500  -14.1776 C   0  0  0  0  0  0  0  0  0  0  0  0
   26.6475  -21.0844  -14.7018 O   0  0  0  0  0  0  0  0  0  0  0  0
   26.0048  -20.6979   -9.4044 C   0  0  0  0  0  0  0  0  0  0  0  0
   25.5044  -21.0234   -8.1425 C   0  0  0  0  0  0  0  0  0  0  0  0
   25.2604  -20.9785  -19.0883 N   0  0  0  0  0  0  0  0  0  0  0  0
   24.1659  -20.4620  -18.3344 C   0  0  0  0  0  0  0  0  0  0  0  0
   23.2274  -19.9365  -18.9557 O   0  0  0  0  0  0  0  0  0  0  0  0
   24.1437  -20.5479  -16.8598 C   0  0  0  0  0  0  0  0  0  0  0  0
   24.9272  -19.3847  -16.2900 C   0  0  2  0  0  0  0  0  0  0  0  0
   25.0539  -19.4609  -14.8503 N   0  0  0  0  0  0  0  0  0  0  0  0
   24.2759  -18.1398  -16.7342 C   0  0  0  0  0  0  0  0  0  0  0  0
   23.3369  -17.5689  -16.1138 O   0  0  0  0  0  0  0  0  0  0  0  0
   28.5437  -15.5796  -16.2918 C   0  0  0  0  0  0  0  0  0  0  0  0
   27.5367  -16.2108  -17.1905 C   0  0  0  0  0  0  0  0  0  0  0  0
   26.1172  -15.7793  -16.9960 C   0  0  2  0  0  0  0  0  0  0  0  0
   25.7191  -16.0396  -15.5719 C   0  0  0  0  0  0  0  0  0  0  0  0
   25.1434  -16.1434  -18.0456 C   0  0  2  0  0  0  0  0  0  0  0  0
   24.7320  -17.5427  -17.9336 N   0  0  0  0  0  0  0  0  0  0  0  0
   25.4523  -15.8261  -19.4382 C   0  0  0  0  0  0  0  0  0  0  0  0
   25.5948  -14.6002  -19.7667 O   0  0  0  0  0  0  0  0  0  0  0  0
   25.6188  -16.7211  -20.4752 O   0  0  0  0  0  0  0  0  0  0  0  0
  2  1  1  0
  3  2  2  0
  4  3  1  0
  5 11  1  0
  5  4  2  0
  6  5  1  0
  7  8  1  1
  7  6  1  0
  9  7  1  0
 10  9  2  0
 11 12  2  0
 12  2  1  0
 13 14  1  0
 14 15  2  0
 16 14  1  0
 17 16  1  1
 17 18  1  0
 18  9  1  0
 19 26  1  0
 19 17  1  0
 20 19  2  0
 22 21  1  0
 23 22  1  0
 23 24  1  1
 25 23  1  0
 25 26  1  6
 27 25  1  0
 28 27  2  0
 29 27  1  0
M  END
$$$$
