YNI.pdb
     RDKit          3D

 29 29  0  0  1  0  0  0  0  0999 V2000
   28.2738  -28.2595  -16.8895 O   0  0  0  0  0  0  0  0  0  0  0  0
   27.9285  -26.9408  -16.6168 C   0  0  0  0  0  0  0  0  0  0  0  0
   28.7832  -25.8771  -16.7565 C   0  0  0  0  0  0  0  0  0  0  0  0
   28.3560  -24.5827  -16.4611 C   0  0  0  0  0  0  0  0  0  0  0  0
   27.0772  -24.3195  -16.0232 C   0  0  0  0  0  0  0  0  0  0  0  0
   26.5891  -22.9650  -15.7008 C   0  0  0  0  0  0  0  0  0  0  0  0
   25.9885  -22.2771  -16.9297 C   0  0  2  0  0  0  0  0  0  0  0  0
   27.0387  -21.8105  -17.8074 N   0  0  0  0  0  0  0  0  0  0  0  0
   25.1398  -21.1814  -16.4027 C   0  0  0  0  0  0  0  0  0  0  0  0
   25.4514  -20.0115  -16.7449 O   0  0  0  0  0  0  0  0  0  0  0  0
   26.2134  -25.3922  -15.8816 C   0  0  0  0  0  0  0  0  0  0  0  0
   26.6453  -26.6861  -16.1781 C   0  0  0  0  0  0  0  0  0  0  0  0
   21.4722  -18.1753  -14.6685 N   0  0  0  0  0  0  0  0  0  0  0  0
   21.6484  -18.4988  -16.0459 C   0  0  0  0  0  0  0  0  0  0  0  0
   21.0359  -17.8197  -16.8865 O   0  0  0  0  0  0  0  0  0  0  0  0
   22.5322  -19.6058  -16.4652 C   0  0  0  0  0  0  0  0  0  0  0  0
   23.1135  -20.2622  -15.2311 C   0  0  2  0  0  0  0  0  0  0  0  0
   24.0253  -21.3372  -15.5591 N   0  0  0  0  0  0  0  0  0  0  0  0
   21.9924  -20.7108  -14.3866 C   0  0  0  0  0  0  0  0  0  0  0  0
   21.1667  -21.6054  -14.7186 O   0  0  0  0  0  0  0  0  0  0  0  0
   22.2208  -20.5198   -8.1902 C   0  0  0  0  0  0  0  0  0  0  0  0
   21.5474  -21.0077   -9.4266 C   0  0  0  0  0  0  0  0  0  0  0  0
   21.9775  -20.3666  -10.7084 C   0  0  2  0  0  0  0  0  0  0  0  0
   22.1448  -18.8914  -10.4837 C   0  0  0  0  0  0  0  0  0  0  0  0
   21.2885  -20.7861  -11.9460 C   0  0  2  0  0  0  0  0  0  0  0  0
   21.8295  -20.1011  -13.1198 N   0  0  0  0  0  0  0  0  0  0  0  0
   19.8280  -20.7620  -11.9856 C   0  0  0  0  0  0  0  0  0  0  0  0
   19.2500  -19.7755  -12.5550 O   0  0  0  0  0  0  0  0  0  0  0  0
   18.9687  -21.7101  -11.4690 O   0  0  0  0  0  0  0  0  0  0  0  0
  2  1  1  0
  3  2  2  0
  4  3  1  0
  5 11  1  0
  5  4  2  0
  6  5  1  0
  7  8  1  6
  7  6  1  0
  9  7  1  0
 10  9  2  0
 11 12  2  0
 12  2  1  0
 13 14  1  0
 14 15  2  0
 16 14  1  0
 17 16  1  6
 17 18  1  0
 18  9  1  0
 19 26  1  0
 19 17  1  0
 20 19  2  0
 22 21  1  0
 23 22  1  0
 23 24  1  1
 25 23  1  0
 25 26  1  6
 27 25  1  0
 28 27  2  0
 29 27  1  0
M  END
$$$$
