YNI.pdb
     RDKit          3D

 29 29  0  0  1  0  0  0  0  0999 V2000
   26.8385  -11.7968  -17.8633 O   0  0  0  0  0  0  0  0  0  0  0  0
   26.4631  -12.9869  -17.2506 C   0  0  0  0  0  0  0  0  0  0  0  0
   26.9343  -13.4074  -16.0330 C   0  0  0  0  0  0  0  0  0  0  0  0
   26.5054  -14.6173  -15.4878 C   0  0  0  0  0  0  0  0  0  0  0  0
   25.6037  -15.4306  -16.1376 C   0  0  0  0  0  0  0  0  0  0  0  0
   25.1269  -16.7163  -15.5934 C   0  0  0  0  0  0  0  0  0  0  0  0
   26.1922  -17.8089  -15.7186 C   0  0  2  0  0  0  0  0  0  0  0  0
   26.4413  -18.1100  -17.1107 N   0  0  0  0  0  0  0  0  0  0  0  0
   25.6706  -18.9685  -14.9558 C   0  0  0  0  0  0  0  0  0  0  0  0
   24.9592  -19.7886  -15.5917 O   0  0  0  0  0  0  0  0  0  0  0  0
   25.1273  -15.0075  -17.3668 C   0  0  0  0  0  0  0  0  0  0  0  0
   25.5596  -13.7958  -17.9088 C   0  0  0  0  0  0  0  0  0  0  0  0
   25.6936  -22.9654  -11.0365 N   0  0  0  0  0  0  0  0  0  0  0  0
   25.1938  -21.6449  -10.8379 C   0  0  0  0  0  0  0  0  0  0  0  0
   24.1982  -21.5028  -10.1087 O   0  0  0  0  0  0  0  0  0  0  0  0
   25.8373  -20.4786  -11.4765 C   0  0  0  0  0  0  0  0  0  0  0  0
   25.2508  -20.2925  -12.8596 C   0  0  2  0  0  0  0  0  0  0  0  0
   25.9009  -19.2274  -13.5927 N   0  0  0  0  0  0  0  0  0  0  0  0
   23.8015  -20.0723  -12.7105 C   0  0  0  0  0  0  0  0  0  0  0  0
   23.2886  -19.0333  -12.2108 O   0  0  0  0  0  0  0  0  0  0  0  0
   19.1852  -19.0069  -15.6238 C   0  0  0  0  0  0  0  0  0  0  0  0
   19.6190  -19.7059  -14.3815 C   0  0  0  0  0  0  0  0  0  0  0  0
   20.9962  -20.2906  -14.4006 C   0  0  2  0  0  0  0  0  0  0  0  0
   21.2020  -21.0113  -15.7017 C   0  0  0  0  0  0  0  0  0  0  0  0
   21.4680  -20.9655  -13.1741 C   0  0  2  0  0  0  0  0  0  0  0  0
   22.9254  -21.0902  -13.1572 N   0  0  0  0  0  0  0  0  0  0  0  0
   20.8561  -22.2340  -12.7845 C   0  0  0  0  0  0  0  0  0  0  0  0
   21.4736  -23.3180  -13.0583 O   0  0  0  0  0  0  0  0  0  0  0  0
   19.6536  -22.4082  -12.1305 O   0  0  0  0  0  0  0  0  0  0  0  0
  2  1  1  0
  3  2  2  0
  4  3  1  0
  5 11  1  0
  5  4  2  0
  6  5  1  0
  7  8  1  6
  7  6  1  0
  9  7  1  0
 10  9  2  0
 11 12  2  0
 12  2  1  0
 13 14  1  0
 14 15  2  0
 16 14  1  0
 17 16  1  1
 17 18  1  0
 18  9  1  0
 19 26  1  0
 19 17  1  0
 20 19  2  0
 22 21  1  0
 23 22  1  0
 23 24  1  6
 25 23  1  0
 25 26  1  6
 27 25  1  0
 28 27  2  0
 29 27  1  0
M  END
$$$$
