YNI.pdb
     RDKit          3D

 29 29  0  0  1  0  0  0  0  0999 V2000
   18.2280  -13.4478  -16.5047 O   0  0  0  0  0  0  0  0  0  0  0  0
   18.9427  -14.6356  -16.4005 C   0  0  0  0  0  0  0  0  0  0  0  0
   18.5935  -15.8016  -17.0329 C   0  0  0  0  0  0  0  0  0  0  0  0
   19.3673  -16.9512  -16.8752 C   0  0  0  0  0  0  0  0  0  0  0  0
   20.4985  -16.9662  -16.0899 C   0  0  0  0  0  0  0  0  0  0  0  0
   21.3416  -18.1618  -15.8988 C   0  0  0  0  0  0  0  0  0  0  0  0
   22.4407  -18.2498  -16.9610 C   0  0  2  0  0  0  0  0  0  0  0  0
   21.8670  -18.5538  -18.2530 N   0  0  0  0  0  0  0  0  0  0  0  0
   23.3812  -19.2909  -16.4814 C   0  0  0  0  0  0  0  0  0  0  0  0
   23.4725  -20.3338  -17.1792 O   0  0  0  0  0  0  0  0  0  0  0  0
   20.8522  -15.7901  -15.4508 C   0  0  0  0  0  0  0  0  0  0  0  0
   20.0746  -14.6418  -15.6114 C   0  0  0  0  0  0  0  0  0  0  0  0
   27.2232  -21.9864  -14.7873 N   0  0  0  0  0  0  0  0  0  0  0  0
   27.4240  -20.9873  -15.7845 C   0  0  0  0  0  0  0  0  0  0  0  0
   28.4947  -21.0002  -16.4143 O   0  0  0  0  0  0  0  0  0  0  0  0
   26.3930  -19.9670  -16.0646 C   0  0  0  0  0  0  0  0  0  0  0  0
   25.2802  -20.1038  -15.0475 C   0  0  2  0  0  0  0  0  0  0  0  0
   24.1733  -19.2129  -15.3218 N   0  0  0  0  0  0  0  0  0  0  0  0
   25.8604  -19.8880  -13.7103 C   0  0  0  0  0  0  0  0  0  0  0  0
   26.4503  -18.8309  -13.3541 O   0  0  0  0  0  0  0  0  0  0  0  0
   22.2502  -20.0913  -10.3401 C   0  0  0  0  0  0  0  0  0  0  0  0
   23.5174  -20.0227  -11.1208 C   0  0  0  0  0  0  0  0  0  0  0  0
   24.6633  -20.8251  -10.5896 C   0  0  2  0  0  0  0  0  0  0  0  0
   24.7183  -20.6681   -9.0973 C   0  0  0  0  0  0  0  0  0  0  0  0
   25.9440  -20.7540  -11.3226 C   0  0  2  0  0  0  0  0  0  0  0  0
   25.7493  -20.9322  -12.7614 N   0  0  0  0  0  0  0  0  0  0  0  0
   27.0659  -21.5723  -10.8678 C   0  0  0  0  0  0  0  0  0  0  0  0
   27.1174  -22.7944  -11.2355 O   0  0  0  0  0  0  0  0  0  0  0  0
   28.1143  -21.1699  -10.0657 O   0  0  0  0  0  0  0  0  0  0  0  0
  2  1  1  0
  3  2  2  0
  4  3  1  0
  5 11  1  0
  5  4  2  0
  6  5  1  0
  7  8  1  6
  7  6  1  0
  9  7  1  0
 10  9  2  0
 11 12  2  0
 12  2  1  0
 13 14  1  0
 14 15  2  0
 16 14  1  0
 17 16  1  6
 17 18  1  0
 18  9  1  0
 19 26  1  0
 19 17  1  0
 20 19  2  0
 22 21  1  0
 23 22  1  0
 23 24  1  1
 25 23  1  0
 25 26  1  6
 27 25  1  0
 28 27  2  0
 29 27  1  0
M  END
$$$$
