WFE.pdb
     RDKit          3D

 35 37  0  0  1  0  0  0  0  0999 V2000
   14.5362  -14.6420    6.6761 N   0  0  0  0  0  0  0  0  0  0  0  0
   15.6734  -15.0967    5.9452 C   0  0  1  0  0  0  0  0  0  0  0  0
   16.9464  -14.7603    6.6841 C   0  0  0  0  0  0  0  0  0  0  0  0
   17.7738  -13.8954    5.8072 C   0  0  0  0  0  0  0  0  0  0  0  0
   18.1797  -12.5969    6.1376 C   0  0  0  0  0  0  0  0  0  0  0  0
   18.9464  -12.0871    5.1611 N   0  0  0  0  0  0  0  0  0  0  0  0
   19.0534  -13.0190    4.1970 C   0  0  0  0  0  0  0  0  0  0  0  0
   19.7323  -12.9841    2.9725 C   0  0  0  0  0  0  0  0  0  0  0  0
   19.6892  -14.0749    2.1321 C   0  0  0  0  0  0  0  0  0  0  0  0
   18.9682  -15.1822    2.5290 C   0  0  0  0  0  0  0  0  0  0  0  0
   18.2875  -15.2228    3.7526 C   0  0  0  0  0  0  0  0  0  0  0  0
   18.3371  -14.1428    4.5747 C   0  0  0  0  0  0  0  0  0  0  0  0
   15.5439  -16.5584    5.7130 C   0  0  0  0  0  0  0  0  0  0  0  0
   15.0324  -17.3049    6.6007 O   0  0  0  0  0  0  0  0  0  0  0  0
   15.9666  -17.1867    4.5313 N   0  0  0  0  0  0  0  0  0  0  0  0
   15.9091  -18.6380    4.3721 C   0  0  1  0  0  0  0  0  0  0  0  0
   16.2028  -18.9030    2.9112 C   0  0  0  0  0  0  0  0  0  0  0  0
   16.0110  -20.3832    2.7223 C   0  0  0  0  0  0  0  0  0  0  0  0
   17.0996  -21.2128    2.7896 C   0  0  0  0  0  0  0  0  0  0  0  0
   16.9421  -22.5673    2.6201 C   0  0  0  0  0  0  0  0  0  0  0  0
   15.7095  -23.1430    2.3798 C   0  0  0  0  0  0  0  0  0  0  0  0
   14.6339  -22.2738    2.3187 C   0  0  0  0  0  0  0  0  0  0  0  0
   14.7701  -20.9224    2.4847 C   0  0  0  0  0  0  0  0  0  0  0  0
   16.9255  -19.2512    5.2626 C   0  0  0  0  0  0  0  0  0  0  0  0
   18.0563  -18.7290    5.3174 O   0  0  0  0  0  0  0  0  0  0  0  0
   16.6375  -20.4017    6.0392 N   0  0  0  0  0  0  0  0  0  0  0  0
   17.6192  -21.0284    6.9367 C   0  0  1  0  0  0  0  0  0  0  0  0
   17.1534  -20.9097    8.3616 C   0  0  0  0  0  0  0  0  0  0  0  0
   18.1462  -21.5479    9.2913 C   0  0  0  0  0  0  0  0  0  0  0  0
   17.6986  -21.4050   10.7196 C   0  0  0  0  0  0  0  0  0  0  0  0
   17.1570  -22.4065   11.2507 O   0  0  0  0  0  0  0  0  0  0  0  0
   17.8937  -22.4022    6.5522 C   0  0  0  0  0  0  0  0  0  0  0  0
   19.0561  -23.0730    6.8284 O   0  0  0  0  0  0  0  0  0  0  0  0
   17.8477  -20.2613   11.4576 O   0  0  0  0  0  0  0  0  0  0  0  0
   17.0078  -23.0500    5.9088 O   0  0  0  0  0  0  0  0  0  0  0  0
  2  1  1  1
  3  2  1  0
  3  4  1  0
  4  5  2  0
  5  6  1  0
  7  6  1  0
  8  7  2  0
  9  8  1  0
 10 11  1  0
 10  9  2  0
 11 12  2  0
 12  4  1  0
 12  7  1  0
 13 14  2  0
 13  2  1  0
 15 13  1  0
 16 15  1  0
 16 17  1  6
 18 19  2  0
 18 17  1  0
 20 19  1  0
 21 20  2  0
 22 21  1  0
 22 23  2  0
 23 18  1  0
 24 16  1  0
 24 25  2  0
 26 27  1  0
 26 24  1  0
 27 28  1  1
 28 29  1  0
 29 30  1  0
 30 34  1  0
 31 30  2  0
 32 27  1  0
 33 32  1  0
 35 32  2  0
M  END
$$$$
