WFE.pdb
     RDKit          3D

 35 37  0  0  1  0  0  0  0  0999 V2000
   16.3832  -21.1586    1.6247 N   0  0  0  0  0  0  0  0  0  0  0  0
   15.5401  -20.3881    2.4790 C   0  0  1  0  0  0  0  0  0  0  0  0
   14.9575  -21.2550    3.5693 C   0  0  0  0  0  0  0  0  0  0  0  0
   13.9152  -22.1199    2.9632 C   0  0  0  0  0  0  0  0  0  0  0  0
   14.0731  -22.8197    1.7609 C   0  0  0  0  0  0  0  0  0  0  0  0
   12.9728  -23.5408    1.4951 N   0  0  0  0  0  0  0  0  0  0  0  0
   12.0958  -23.3311    2.4932 C   0  0  0  0  0  0  0  0  0  0  0  0
   10.8053  -23.8387    2.6888 C   0  0  0  0  0  0  0  0  0  0  0  0
   10.0825  -23.4672    3.8012 C   0  0  0  0  0  0  0  0  0  0  0  0
   10.6611  -22.5944    4.6996 C   0  0  0  0  0  0  0  0  0  0  0  0
   11.9516  -22.0837    4.5092 C   0  0  0  0  0  0  0  0  0  0  0  0
   12.6565  -22.4570    3.4099 C   0  0  0  0  0  0  0  0  0  0  0  0
   16.3250  -19.2573    3.0381 C   0  0  0  0  0  0  0  0  0  0  0  0
   17.5328  -19.4256    3.3842 O   0  0  0  0  0  0  0  0  0  0  0  0
   15.7951  -17.9696    3.2128 N   0  0  0  0  0  0  0  0  0  0  0  0
   16.6244  -16.8542    3.6638 C   0  0  1  0  0  0  0  0  0  0  0  0
   16.0932  -15.6314    2.9474 C   0  0  0  0  0  0  0  0  0  0  0  0
   17.0467  -14.5182    3.2866 C   0  0  0  0  0  0  0  0  0  0  0  0
   18.2607  -14.4609    2.6536 C   0  0  0  0  0  0  0  0  0  0  0  0
   19.1431  -13.4504    2.9509 C   0  0  0  0  0  0  0  0  0  0  0  0
   18.8557  -12.4685    3.8790 C   0  0  0  0  0  0  0  0  0  0  0  0
   17.6207  -12.5591    4.4977 C   0  0  0  0  0  0  0  0  0  0  0  0
   16.7283  -13.5574    4.2155 C   0  0  0  0  0  0  0  0  0  0  0  0
   16.4941  -16.7346    5.1371 C   0  0  0  0  0  0  0  0  0  0  0  0
   15.3488  -16.6935    5.6284 O   0  0  0  0  0  0  0  0  0  0  0  0
   17.6306  -16.6672    5.9818 N   0  0  0  0  0  0  0  0  0  0  0  0
   17.5359  -16.5191    7.4416 C   0  0  1  0  0  0  0  0  0  0  0  0
   18.7729  -17.0764    8.0902 C   0  0  0  0  0  0  0  0  0  0  0  0
   18.6702  -16.9753    9.5856 C   0  0  0  0  0  0  0  0  0  0  0  0
   19.4802  -18.0573   10.2442 C   0  0  0  0  0  0  0  0  0  0  0  0
   20.3690  -18.6086    9.5480 O   0  0  0  0  0  0  0  0  0  0  0  0
   17.2784  -15.1413    7.8232 C   0  0  0  0  0  0  0  0  0  0  0  0
   16.4343  -14.7547    8.8309 O   0  0  0  0  0  0  0  0  0  0  0  0
   19.3028  -18.4656   11.5391 O   0  0  0  0  0  0  0  0  0  0  0  0
   17.8645  -14.2071    7.1889 O   0  0  0  0  0  0  0  0  0  0  0  0
  2  1  1  6
  3  2  1  0
  3  4  1  0
  4  5  2  0
  5  6  1  0
  7  6  1  0
  8  7  2  0
  9  8  1  0
 10 11  1  0
 10  9  2  0
 11 12  2  0
 12  4  1  0
 12  7  1  0
 13 14  2  0
 13  2  1  0
 15 13  1  0
 16 15  1  0
 16 17  1  6
 18 19  2  0
 18 17  1  0
 20 19  1  0
 21 20  2  0
 22 21  1  0
 22 23  2  0
 23 18  1  0
 24 16  1  0
 24 25  2  0
 26 27  1  0
 26 24  1  0
 27 28  1  1
 28 29  1  0
 29 30  1  0
 30 34  1  0
 31 30  2  0
 32 27  1  0
 33 32  1  0
 35 32  2  0
M  END
$$$$
