WFE.pdb
     RDKit          3D

 35 37  0  0  1  0  0  0  0  0999 V2000
   14.5793  -15.1142    6.1992 N   0  0  0  0  0  0  0  0  0  0  0  0
   15.8485  -15.5961    5.7622 C   0  0  1  0  0  0  0  0  0  0  0  0
   16.9388  -15.1442    6.7039 C   0  0  0  0  0  0  0  0  0  0  0  0
   17.6974  -14.0542    6.0420 C   0  0  0  0  0  0  0  0  0  0  0  0
   17.8945  -12.7830    6.5945 C   0  0  0  0  0  0  0  0  0  0  0  0
   18.6496  -12.0330    5.7769 N   0  0  0  0  0  0  0  0  0  0  0  0
   18.9528  -12.7804    4.7005 C   0  0  0  0  0  0  0  0  0  0  0  0
   19.7046  -12.4676    3.5611 C   0  0  0  0  0  0  0  0  0  0  0  0
   19.8730  -13.4091    2.5696 C   0  0  0  0  0  0  0  0  0  0  0  0
   19.2869  -14.6474    2.7328 C   0  0  0  0  0  0  0  0  0  0  0  0
   18.5340  -14.9659    3.8704 C   0  0  0  0  0  0  0  0  0  0  0  0
   18.3749  -14.0312    4.8428 C   0  0  0  0  0  0  0  0  0  0  0  0
   15.7921  -17.0771    5.6589 C   0  0  0  0  0  0  0  0  0  0  0  0
   14.9854  -17.7388    6.3786 O   0  0  0  0  0  0  0  0  0  0  0  0
   16.6038  -17.8153    4.7837 N   0  0  0  0  0  0  0  0  0  0  0  0
   16.5264  -19.2727    4.7121 C   0  0  1  0  0  0  0  0  0  0  0  0
   16.9418  -19.6374    3.3032 C   0  0  0  0  0  0  0  0  0  0  0  0
   15.6885  -19.5465    2.4759 C   0  0  0  0  0  0  0  0  0  0  0  0
   15.3059  -18.3307    1.9726 C   0  0  0  0  0  0  0  0  0  0  0  0
   14.1644  -18.2299    1.2143 C   0  0  0  0  0  0  0  0  0  0  0  0
   13.3679  -19.3223    0.9303 C   0  0  0  0  0  0  0  0  0  0  0  0
   13.7860  -20.5328    1.4554 C   0  0  0  0  0  0  0  0  0  0  0  0
   14.9194  -20.6538    2.2127 C   0  0  0  0  0  0  0  0  0  0  0  0
   17.4453  -19.8446    5.7273 C   0  0  0  0  0  0  0  0  0  0  0  0
   18.5759  -19.3350    5.8558 O   0  0  0  0  0  0  0  0  0  0  0  0
   17.0660  -20.9424    6.5400 N   0  0  0  0  0  0  0  0  0  0  0  0
   17.9368  -21.5060    7.5822 C   0  0  1  0  0  0  0  0  0  0  0  0
   17.0991  -22.0280    8.7168 C   0  0  0  0  0  0  0  0  0  0  0  0
   17.9751  -22.6173    9.7856 C   0  0  0  0  0  0  0  0  0  0  0  0
   17.2157  -22.7490   11.0766 C   0  0  0  0  0  0  0  0  0  0  0  0
   15.9811  -22.5188   11.0384 O   0  0  0  0  0  0  0  0  0  0  0  0
   18.8338  -22.5128    7.0418 C   0  0  0  0  0  0  0  0  0  0  0  0
   20.0410  -22.8583    7.5901 O   0  0  0  0  0  0  0  0  0  0  0  0
   17.7890  -23.1001   12.2695 O   0  0  0  0  0  0  0  0  0  0  0  0
   18.4985  -23.1305    5.9814 O   0  0  0  0  0  0  0  0  0  0  0  0
  2  1  1  1
  3  2  1  0
  3  4  1  0
  4  5  2  0
  5  6  1  0
  7  6  1  0
  8  7  2  0
  9  8  1  0
 10 11  1  0
 10  9  2  0
 11 12  2  0
 12  4  1  0
 12  7  1  0
 13 14  2  0
 13  2  1  0
 15 13  1  0
 16 15  1  0
 16 17  1  6
 18 19  2  0
 18 17  1  0
 20 19  1  0
 21 20  2  0
 22 21  1  0
 22 23  2  0
 23 18  1  0
 24 16  1  0
 24 25  2  0
 26 27  1  0
 26 24  1  0
 27 28  1  1
 28 29  1  0
 29 30  1  0
 30 34  1  0
 31 30  2  0
 32 27  1  0
 33 32  1  0
 35 32  2  0
M  END
$$$$
