WFE.pdb
     RDKit          3D

 35 37  0  0  1  0  0  0  0  0999 V2000
   28.6187  -20.7043  -14.9541 N   0  0  0  0  0  0  0  0  0  0  0  0
   27.4825  -20.1680  -14.2790 C   0  0  1  0  0  0  0  0  0  0  0  0
   26.4347  -19.7290  -15.2735 C   0  0  0  0  0  0  0  0  0  0  0  0
   26.9244  -18.5011  -15.9476 C   0  0  0  0  0  0  0  0  0  0  0  0
   27.3839  -18.4577  -17.2693 C   0  0  0  0  0  0  0  0  0  0  0  0
   27.7224  -17.2024  -17.6025 N   0  0  0  0  0  0  0  0  0  0  0  0
   27.4970  -16.4205  -16.5315 C   0  0  0  0  0  0  0  0  0  0  0  0
   27.6910  -15.0447  -16.3554 C   0  0  0  0  0  0  0  0  0  0  0  0
   27.3920  -14.4583  -15.1452 C   0  0  0  0  0  0  0  0  0  0  0  0
   26.9045  -15.2564  -14.1308 C   0  0  0  0  0  0  0  0  0  0  0  0
   26.7082  -16.6329  -14.3013 C   0  0  0  0  0  0  0  0  0  0  0  0
   27.0049  -17.2013  -15.4987 C   0  0  0  0  0  0  0  0  0  0  0  0
   26.9531  -21.1903  -13.3399 C   0  0  0  0  0  0  0  0  0  0  0  0
   26.9728  -22.4185  -13.6529 O   0  0  0  0  0  0  0  0  0  0  0  0
   26.4142  -20.8707  -12.0841 N   0  0  0  0  0  0  0  0  0  0  0  0
   25.2095  -21.5247  -11.5780 C   0  0  1  0  0  0  0  0  0  0  0  0
   25.3097  -21.4596  -10.0693 C   0  0  0  0  0  0  0  0  0  0  0  0
   26.7020  -20.9700   -9.7774 C   0  0  0  0  0  0  0  0  0  0  0  0
   26.8688  -19.7662   -9.1442 C   0  0  0  0  0  0  0  0  0  0  0  0
   28.1334  -19.3045   -8.8692 C   0  0  0  0  0  0  0  0  0  0  0  0
   29.2687  -20.0141   -9.2095 C   0  0  0  0  0  0  0  0  0  0  0  0
   29.0608  -21.2248   -9.8474 C   0  0  0  0  0  0  0  0  0  0  0  0
   27.8098  -21.7018  -10.1300 C   0  0  0  0  0  0  0  0  0  0  0  0
   24.0246  -20.7910  -12.0877 C   0  0  0  0  0  0  0  0  0  0  0  0
   24.0331  -19.5452  -12.0368 O   0  0  0  0  0  0  0  0  0  0  0  0
   22.9016  -21.4710  -12.6226 N   0  0  0  0  0  0  0  0  0  0  0  0
   21.7590  -20.7744  -13.2319 C   0  0  1  0  0  0  0  0  0  0  0  0
   21.3300  -21.4965  -14.4793 C   0  0  0  0  0  0  0  0  0  0  0  0
   20.8382  -22.8755  -14.1424 C   0  0  0  0  0  0  0  0  0  0  0  0
   19.9950  -23.4225  -15.2607 C   0  0  0  0  0  0  0  0  0  0  0  0
   18.8416  -23.8219  -14.9629 O   0  0  0  0  0  0  0  0  0  0  0  0
   20.6711  -20.6027  -12.2847 C   0  0  0  0  0  0  0  0  0  0  0  0
   19.6237  -19.7344  -12.4473 O   0  0  0  0  0  0  0  0  0  0  0  0
   20.4113  -23.5065  -16.5625 O   0  0  0  0  0  0  0  0  0  0  0  0
   20.6693  -21.2950  -11.2173 O   0  0  0  0  0  0  0  0  0  0  0  0
  2  1  1  6
  3  2  1  0
  3  4  1  0
  4  5  2  0
  5  6  1  0
  7  6  1  0
  8  7  2  0
  9  8  1  0
 10 11  1  0
 10  9  2  0
 11 12  2  0
 12  4  1  0
 12  7  1  0
 13 14  2  0
 13  2  1  0
 15 13  1  0
 16 15  1  0
 16 17  1  1
 18 19  2  0
 18 17  1  0
 20 19  1  0
 21 20  2  0
 22 21  1  0
 22 23  2  0
 23 18  1  0
 24 16  1  0
 24 25  2  0
 26 27  1  0
 26 24  1  0
 27 28  1  6
 28 29  1  0
 29 30  1  0
 30 34  1  0
 31 30  2  0
 32 27  1  0
 33 32  1  0
 35 32  2  0
M  END
$$$$
