WFE.pdb
     RDKit          3D

 35 37  0  0  1  0  0  0  0  0999 V2000
   23.4664  -10.2379  -16.8969 N   0  0  0  0  0  0  0  0  0  0  0  0
   23.7999   -9.4182  -15.7785 C   0  0  1  0  0  0  0  0  0  0  0  0
   24.7520   -8.3215  -16.1914 C   0  0  0  0  0  0  0  0  0  0  0  0
   25.9918   -8.9558  -16.7035 C   0  0  0  0  0  0  0  0  0  0  0  0
   26.8487   -8.3673  -17.6413 C   0  0  0  0  0  0  0  0  0  0  0  0
   27.9005   -9.1672  -17.8758 N   0  0  0  0  0  0  0  0  0  0  0  0
   27.7550  -10.2671  -17.1154 C   0  0  0  0  0  0  0  0  0  0  0  0
   28.5675  -11.4015  -16.9956 C   0  0  0  0  0  0  0  0  0  0  0  0
   28.2019  -12.4214  -16.1448 C   0  0  0  0  0  0  0  0  0  0  0  0
   27.0302  -12.2911  -15.4281 C   0  0  0  0  0  0  0  0  0  0  0  0
   26.2138  -11.1587  -15.5437 C   0  0  0  0  0  0  0  0  0  0  0  0
   26.5836  -10.1580  -16.3843 C   0  0  0  0  0  0  0  0  0  0  0  0
   22.5495   -8.8679  -15.1945 C   0  0  0  0  0  0  0  0  0  0  0  0
   21.4607   -8.9274  -15.8409 O   0  0  0  0  0  0  0  0  0  0  0  0
   22.4960   -8.2656  -13.9280 N   0  0  0  0  0  0  0  0  0  0  0  0
   21.2336   -7.8146  -13.3465 C   0  0  1  0  0  0  0  0  0  0  0  0
   21.4125   -7.9162  -11.8471 C   0  0  0  0  0  0  0  0  0  0  0  0
   20.0657   -7.5981  -11.2569 C   0  0  0  0  0  0  0  0  0  0  0  0
   19.7557   -6.2967  -10.9602 C   0  0  0  0  0  0  0  0  0  0  0  0
   18.5298   -5.9885  -10.4215 C   0  0  0  0  0  0  0  0  0  0  0  0
   17.5751   -6.9519  -10.1595 C   0  0  0  0  0  0  0  0  0  0  0  0
   17.9239   -8.2545  -10.4720 C   0  0  0  0  0  0  0  0  0  0  0  0
   19.1393   -8.5818  -11.0091 C   0  0  0  0  0  0  0  0  0  0  0  0
   20.9854   -6.4181  -13.7824 C   0  0  0  0  0  0  0  0  0  0  0  0
   21.9470   -5.6248  -13.8025 O   0  0  0  0  0  0  0  0  0  0  0  0
   19.6948   -5.9777  -14.1701 N   0  0  0  0  0  0  0  0  0  0  0  0
   19.4115   -4.5963  -14.5865 C   0  0  1  0  0  0  0  0  0  0  0  0
   19.2540   -4.5382  -16.0809 C   0  0  0  0  0  0  0  0  0  0  0  0
   18.9266   -3.1387  -16.5183 C   0  0  0  0  0  0  0  0  0  0  0  0
   20.0841   -2.5350  -17.2643 C   0  0  0  0  0  0  0  0  0  0  0  0
   20.9709   -3.3238  -17.6767 O   0  0  0  0  0  0  0  0  0  0  0  0
   18.2634   -4.0511  -13.8830 C   0  0  0  0  0  0  0  0  0  0  0  0
   18.1462   -2.7499  -13.4700 O   0  0  0  0  0  0  0  0  0  0  0  0
   20.2194   -1.1953  -17.5128 O   0  0  0  0  0  0  0  0  0  0  0  0
   17.2839   -4.8178  -13.6162 O   0  0  0  0  0  0  0  0  0  0  0  0
  2  1  1  6
  3  2  1  0
  3  4  1  0
  4  5  2  0
  5  6  1  0
  7  6  1  0
  8  7  2  0
  9  8  1  0
 10 11  1  0
 10  9  2  0
 11 12  2  0
 12  4  1  0
 12  7  1  0
 13 14  2  0
 13  2  1  0
 15 13  1  0
 16 15  1  0
 16 17  1  1
 18 19  2  0
 18 17  1  0
 20 19  1  0
 21 20  2  0
 22 21  1  0
 22 23  2  0
 23 18  1  0
 24 16  1  0
 24 25  2  0
 26 27  1  0
 26 24  1  0
 27 28  1  6
 28 29  1  0
 29 30  1  0
 30 34  1  0
 31 30  2  0
 32 27  1  0
 33 32  1  0
 35 32  2  0
M  END
$$$$
