WFE.pdb
     RDKit          3D

 35 37  0  0  1  0  0  0  0  0999 V2000
   27.9068  -20.9550   -8.6619 N   0  0  0  0  0  0  0  0  0  0  0  0
   26.4839  -21.0178   -8.5863 C   0  0  1  0  0  0  0  0  0  0  0  0
   25.9793  -20.1991   -7.4224 C   0  0  0  0  0  0  0  0  0  0  0  0
   27.1496  -19.5808   -6.7517 C   0  0  0  0  0  0  0  0  0  0  0  0
   27.6757  -18.3263   -7.0826 C   0  0  0  0  0  0  0  0  0  0  0  0
   28.7061  -18.0272   -6.2764 N   0  0  0  0  0  0  0  0  0  0  0  0
   28.8700  -19.0550   -5.4244 C   0  0  0  0  0  0  0  0  0  0  0  0
   29.8033  -19.2421   -4.3970 C   0  0  0  0  0  0  0  0  0  0  0  0
   29.7813  -20.4006   -3.6518 C   0  0  0  0  0  0  0  0  0  0  0  0
   28.8274  -21.3531   -3.9458 C   0  0  0  0  0  0  0  0  0  0  0  0
   27.8914  -21.1713   -4.9720 C   0  0  0  0  0  0  0  0  0  0  0  0
   27.9206  -20.0251   -5.7001 C   0  0  0  0  0  0  0  0  0  0  0  0
   25.9118  -20.5496   -9.8751 C   0  0  0  0  0  0  0  0  0  0  0  0
   25.7788  -19.3099  -10.1038 O   0  0  0  0  0  0  0  0  0  0  0  0
   25.4953  -21.4240  -10.8908 N   0  0  0  0  0  0  0  0  0  0  0  0
   25.1179  -20.9358  -12.2153 C   0  0  1  0  0  0  0  0  0  0  0  0
   25.9574  -21.7233  -13.1980 C   0  0  0  0  0  0  0  0  0  0  0  0
   27.2190  -20.9246  -13.3828 C   0  0  0  0  0  0  0  0  0  0  0  0
   28.3746  -21.3506  -12.7821 C   0  0  0  0  0  0  0  0  0  0  0  0
   29.5359  -20.6335  -12.9412 C   0  0  0  0  0  0  0  0  0  0  0  0
   29.5924  -19.4776  -13.6955 C   0  0  0  0  0  0  0  0  0  0  0  0
   28.4060  -19.0786  -14.2867 C   0  0  0  0  0  0  0  0  0  0  0  0
   27.2395  -19.7788  -14.1403 C   0  0  0  0  0  0  0  0  0  0  0  0
   23.6662  -21.1737  -12.4101 C   0  0  0  0  0  0  0  0  0  0  0  0
   23.1879  -22.2594  -12.0266 O   0  0  0  0  0  0  0  0  0  0  0  0
   22.8276  -20.2039  -13.0149 N   0  0  0  0  0  0  0  0  0  0  0  0
   21.4209  -20.4621  -13.3559 C   0  0  1  0  0  0  0  0  0  0  0  0
   20.7784  -19.1972  -13.8546 C   0  0  0  0  0  0  0  0  0  0  0  0
   19.3532  -19.4564  -14.2531 C   0  0  0  0  0  0  0  0  0  0  0  0
   18.4177  -19.0874  -13.1352 C   0  0  0  0  0  0  0  0  0  0  0  0
   17.2260  -19.4718  -13.2382 O   0  0  0  0  0  0  0  0  0  0  0  0
   21.2924  -21.5615  -14.2968 C   0  0  0  0  0  0  0  0  0  0  0  0
   22.1018  -21.7567  -15.3850 O   0  0  0  0  0  0  0  0  0  0  0  0
   18.7902  -18.3676  -12.0316 O   0  0  0  0  0  0  0  0  0  0  0  0
   20.3671  -22.4168  -14.1215 O   0  0  0  0  0  0  0  0  0  0  0  0
  2  1  1  6
  3  2  1  0
  3  4  1  0
  4  5  2  0
  5  6  1  0
  7  6  1  0
  8  7  2  0
  9  8  1  0
 10 11  1  0
 10  9  2  0
 11 12  2  0
 12  4  1  0
 12  7  1  0
 13 14  2  0
 13  2  1  0
 15 13  1  0
 16 15  1  0
 16 17  1  6
 18 19  2  0
 18 17  1  0
 20 19  1  0
 21 20  2  0
 22 21  1  0
 22 23  2  0
 23 18  1  0
 24 16  1  0
 24 25  2  0
 26 27  1  0
 26 24  1  0
 27 28  1  6
 28 29  1  0
 29 30  1  0
 30 34  1  0
 31 30  2  0
 32 27  1  0
 33 32  1  0
 35 32  2  0
M  END
$$$$
