WFE.pdb
     RDKit          3D

 35 37  0  0  1  0  0  0  0  0999 V2000
   27.5392  -20.6899  -16.8100 N   0  0  0  0  0  0  0  0  0  0  0  0
   26.8533  -20.0373  -15.7433 C   0  0  1  0  0  0  0  0  0  0  0  0
   25.6497  -19.2909  -16.2665 C   0  0  0  0  0  0  0  0  0  0  0  0
   26.1264  -18.0455  -16.9171 C   0  0  0  0  0  0  0  0  0  0  0  0
   26.1646  -17.8448  -18.3022 C   0  0  0  0  0  0  0  0  0  0  0  0
   26.6079  -16.6090  -18.5806 N   0  0  0  0  0  0  0  0  0  0  0  0
   26.8624  -15.9933  -17.4121 C   0  0  0  0  0  0  0  0  0  0  0  0
   27.3464  -14.7051  -17.1517 C   0  0  0  0  0  0  0  0  0  0  0  0
   27.5388  -14.2937  -15.8511 C   0  0  0  0  0  0  0  0  0  0  0  0
   27.2448  -15.1764  -14.8323 C   0  0  0  0  0  0  0  0  0  0  0  0
   26.7603  -16.4659  -15.0868 C   0  0  0  0  0  0  0  0  0  0  0  0
   26.5729  -16.8616  -16.3725 C   0  0  0  0  0  0  0  0  0  0  0  0
   26.4710  -21.0498  -14.7255 C   0  0  0  0  0  0  0  0  0  0  0  0
   26.0732  -22.1990  -15.0835 O   0  0  0  0  0  0  0  0  0  0  0  0
   26.5248  -20.8058  -13.3444 N   0  0  0  0  0  0  0  0  0  0  0  0
   25.8520  -21.6788  -12.3850 C   0  0  1  0  0  0  0  0  0  0  0  0
   26.8464  -21.9035  -11.2665 C   0  0  0  0  0  0  0  0  0  0  0  0
   26.2970  -21.1573  -10.0812 C   0  0  0  0  0  0  0  0  0  0  0  0
   26.9502  -20.0391   -9.6332 C   0  0  0  0  0  0  0  0  0  0  0  0
   26.4617  -19.3452   -8.5524 C   0  0  0  0  0  0  0  0  0  0  0  0
   25.3171  -19.7322   -7.8827 C   0  0  0  0  0  0  0  0  0  0  0  0
   24.6848  -20.8658   -8.3637 C   0  0  0  0  0  0  0  0  0  0  0  0
   25.1555  -21.5703   -9.4383 C   0  0  0  0  0  0  0  0  0  0  0  0
   24.6237  -20.9970  -11.9071 C   0  0  0  0  0  0  0  0  0  0  0  0
   24.7273  -20.1772  -10.9734 O   0  0  0  0  0  0  0  0  0  0  0  0
   23.3554  -21.2575  -12.4842 N   0  0  0  0  0  0  0  0  0  0  0  0
   22.1200  -20.6000  -12.0334 C   0  0  1  0  0  0  0  0  0  0  0  0
   21.7621  -19.4873  -12.9797 C   0  0  0  0  0  0  0  0  0  0  0  0
   21.5992  -20.0197  -14.3751 C   0  0  0  0  0  0  0  0  0  0  0  0
   21.0496  -18.9558  -15.2845 C   0  0  0  0  0  0  0  0  0  0  0  0
   20.7912  -19.2936  -16.4668 O   0  0  0  0  0  0  0  0  0  0  0  0
   21.0389  -21.5548  -11.8608 C   0  0  0  0  0  0  0  0  0  0  0  0
   21.0846  -22.8660  -12.2559 O   0  0  0  0  0  0  0  0  0  0  0  0
   20.8205  -17.6623  -14.8983 O   0  0  0  0  0  0  0  0  0  0  0  0
   19.9596  -21.1696  -11.3083 O   0  0  0  0  0  0  0  0  0  0  0  0
  2  1  1  6
  3  2  1  0
  3  4  1  0
  4  5  2  0
  5  6  1  0
  7  6  1  0
  8  7  2  0
  9  8  1  0
 10 11  1  0
 10  9  2  0
 11 12  2  0
 12  4  1  0
 12  7  1  0
 13 14  2  0
 13  2  1  0
 15 13  1  0
 16 15  1  0
 16 17  1  1
 18 19  2  0
 18 17  1  0
 20 19  1  0
 21 20  2  0
 22 21  1  0
 22 23  2  0
 23 18  1  0
 24 16  1  0
 24 25  2  0
 26 27  1  0
 26 24  1  0
 27 28  1  6
 28 29  1  0
 29 30  1  0
 30 34  1  0
 31 30  2  0
 32 27  1  0
 33 32  1  0
 35 32  2  0
M  END
$$$$
