WFE.pdb
     RDKit          3D

 35 37  0  0  1  0  0  0  0  0999 V2000
   28.2128  -21.6620  -13.1324 N   0  0  0  0  0  0  0  0  0  0  0  0
   27.3607  -20.5811  -12.7587 C   0  0  1  0  0  0  0  0  0  0  0  0
   26.3722  -20.2815  -13.8600 C   0  0  0  0  0  0  0  0  0  0  0  0
   27.0824  -19.5323  -14.9259 C   0  0  0  0  0  0  0  0  0  0  0  0
   27.6076  -20.1175  -16.0843 C   0  0  0  0  0  0  0  0  0  0  0  0
   28.1562  -19.1789  -16.8712 N   0  0  0  0  0  0  0  0  0  0  0  0
   28.0047  -17.9916  -16.2576 C   0  0  0  0  0  0  0  0  0  0  0  0
   28.4048  -16.7086  -16.6519 C   0  0  0  0  0  0  0  0  0  0  0  0
   28.1430  -15.6275  -15.8393 C   0  0  0  0  0  0  0  0  0  0  0  0
   27.4861  -15.8462  -14.6459 C   0  0  0  0  0  0  0  0  0  0  0  0
   27.0834  -17.1271  -14.2465 C   0  0  0  0  0  0  0  0  0  0  0  0
   27.3451  -18.1863  -15.0553 C   0  0  0  0  0  0  0  0  0  0  0  0
   26.6760  -20.9251  -11.4859 C   0  0  0  0  0  0  0  0  0  0  0  0
   26.3080  -22.1166  -11.2585 O   0  0  0  0  0  0  0  0  0  0  0  0
   26.4019  -19.9810  -10.4842 N   0  0  0  0  0  0  0  0  0  0  0  0
   25.6842  -20.3443   -9.2643 C   0  0  1  0  0  0  0  0  0  0  0  0
   25.8609  -19.1749   -8.3200 C   0  0  0  0  0  0  0  0  0  0  0  0
   26.6405  -19.7132   -7.1513 C   0  0  0  0  0  0  0  0  0  0  0  0
   26.4354  -21.0071   -6.7492 C   0  0  0  0  0  0  0  0  0  0  0  0
   27.1396  -21.5150   -5.6842 C   0  0  0  0  0  0  0  0  0  0  0  0
   28.0648  -20.7642   -4.9853 C   0  0  0  0  0  0  0  0  0  0  0  0
   28.2449  -19.4624   -5.4201 C   0  0  0  0  0  0  0  0  0  0  0  0
   27.5536  -18.9382   -6.4784 C   0  0  0  0  0  0  0  0  0  0  0  0
   24.2581  -20.5715   -9.6056 C   0  0  0  0  0  0  0  0  0  0  0  0
   23.7888  -19.9905  -10.6039 O   0  0  0  0  0  0  0  0  0  0  0  0
   23.4336  -21.4238   -8.8287 N   0  0  0  0  0  0  0  0  0  0  0  0
   22.0062  -21.6337   -9.1123 C   0  0  1  0  0  0  0  0  0  0  0  0
   21.4107  -22.5454   -8.0752 C   0  0  0  0  0  0  0  0  0  0  0  0
   19.9300  -22.6834   -8.2884 C   0  0  0  0  0  0  0  0  0  0  0  0
   19.6412  -23.7509   -9.3072 C   0  0  0  0  0  0  0  0  0  0  0  0
   20.5992  -24.4893   -9.6471 O   0  0  0  0  0  0  0  0  0  0  0  0
   21.2926  -20.3732   -9.2228 C   0  0  0  0  0  0  0  0  0  0  0  0
   20.1944  -20.1644  -10.0151 O   0  0  0  0  0  0  0  0  0  0  0  0
   18.4114  -23.9560   -9.8733 O   0  0  0  0  0  0  0  0  0  0  0  0
   21.6989  -19.3745   -8.5476 O   0  0  0  0  0  0  0  0  0  0  0  0
  2  1  1  6
  3  2  1  0
  3  4  1  0
  4  5  2  0
  5  6  1  0
  7  6  1  0
  8  7  2  0
  9  8  1  0
 10 11  1  0
 10  9  2  0
 11 12  2  0
 12  4  1  0
 12  7  1  0
 13 14  2  0
 13  2  1  0
 15 13  1  0
 16 15  1  0
 16 17  1  1
 18 19  2  0
 18 17  1  0
 20 19  1  0
 21 20  2  0
 22 21  1  0
 22 23  2  0
 23 18  1  0
 24 16  1  0
 24 25  2  0
 26 27  1  0
 26 24  1  0
 27 28  1  1
 28 29  1  0
 29 30  1  0
 30 34  1  0
 31 30  2  0
 32 27  1  0
 33 32  1  0
 35 32  2  0
M  END
$$$$
