WFE.pdb
     RDKit          3D

 35 37  0  0  1  0  0  0  0  0999 V2000
   28.1879  -21.4374  -17.6650 N   0  0  0  0  0  0  0  0  0  0  0  0
   27.6496  -20.3711  -16.8856 C   0  0  1  0  0  0  0  0  0  0  0  0
   26.6507  -19.5774  -17.6930 C   0  0  0  0  0  0  0  0  0  0  0  0
   27.2604  -18.2646  -18.0192 C   0  0  0  0  0  0  0  0  0  0  0  0
   27.8415  -17.9505  -19.2536 C   0  0  0  0  0  0  0  0  0  0  0  0
   28.2708  -16.6790  -19.2549 N   0  0  0  0  0  0  0  0  0  0  0  0
   27.9864  -16.1504  -18.0512 C   0  0  0  0  0  0  0  0  0  0  0  0
   28.2310  -14.8688  -17.5422 C   0  0  0  0  0  0  0  0  0  0  0  0
   27.8510  -14.5570  -16.2552 C   0  0  0  0  0  0  0  0  0  0  0  0
   27.2332  -15.5310  -15.4981 C   0  0  0  0  0  0  0  0  0  0  0  0
   26.9858  -16.8144  -16.0022 C   0  0  0  0  0  0  0  0  0  0  0  0
   27.3632  -17.1116  -17.2726 C   0  0  0  0  0  0  0  0  0  0  0  0
   27.0361  -20.9353  -15.6557 C   0  0  0  0  0  0  0  0  0  0  0  0
   26.4479  -22.0576  -15.6906 O   0  0  0  0  0  0  0  0  0  0  0  0
   27.0685  -20.2814  -14.4143 N   0  0  0  0  0  0  0  0  0  0  0  0
   26.3147  -20.7793  -13.2658 C   0  0  1  0  0  0  0  0  0  0  0  0
   27.0053  -20.2127  -12.0442 C   0  0  0  0  0  0  0  0  0  0  0  0
   26.1967  -20.6857  -10.8669 C   0  0  0  0  0  0  0  0  0  0  0  0
   26.4269  -21.9363  -10.3563 C   0  0  0  0  0  0  0  0  0  0  0  0
   25.6979  -22.3837   -9.2808 C   0  0  0  0  0  0  0  0  0  0  0  0
   24.7225  -21.6133   -8.6781 C   0  0  0  0  0  0  0  0  0  0  0  0
   24.5183  -20.3565   -9.2211 C   0  0  0  0  0  0  0  0  0  0  0  0
   25.2337  -19.8928  -10.2915 C   0  0  0  0  0  0  0  0  0  0  0  0
   24.9128  -20.3063  -13.3803 C   0  0  0  0  0  0  0  0  0  0  0  0
   24.7138  -19.1129  -13.6812 O   0  0  0  0  0  0  0  0  0  0  0  0
   23.8141  -21.1738  -13.1570 N   0  0  0  0  0  0  0  0  0  0  0  0
   22.4142  -20.7349  -13.2551 C   0  0  1  0  0  0  0  0  0  0  0  0
   21.7772  -21.3373  -14.4768 C   0  0  0  0  0  0  0  0  0  0  0  0
   21.8932  -20.3985  -15.6440 C   0  0  0  0  0  0  0  0  0  0  0  0
   22.7027  -21.0245  -16.7457 C   0  0  0  0  0  0  0  0  0  0  0  0
   23.5361  -20.2882  -17.3305 O   0  0  0  0  0  0  0  0  0  0  0  0
   21.6759  -21.0282  -12.0389 C   0  0  0  0  0  0  0  0  0  0  0  0
   20.4914  -20.4386  -11.6830 O   0  0  0  0  0  0  0  0  0  0  0  0
   22.5810  -22.3308  -17.1375 O   0  0  0  0  0  0  0  0  0  0  0  0
   22.1437  -21.8889  -11.2272 O   0  0  0  0  0  0  0  0  0  0  0  0
  2  1  1  6
  3  2  1  0
  3  4  1  0
  4  5  2  0
  5  6  1  0
  7  6  1  0
  8  7  2  0
  9  8  1  0
 10 11  1  0
 10  9  2  0
 11 12  2  0
 12  4  1  0
 12  7  1  0
 13 14  2  0
 13  2  1  0
 15 13  1  0
 16 15  1  0
 16 17  1  1
 18 19  2  0
 18 17  1  0
 20 19  1  0
 21 20  2  0
 22 21  1  0
 22 23  2  0
 23 18  1  0
 24 16  1  0
 24 25  2  0
 26 27  1  0
 26 24  1  0
 27 28  1  6
 28 29  1  0
 29 30  1  0
 30 34  1  0
 31 30  2  0
 32 27  1  0
 33 32  1  0
 35 32  2  0
M  END
$$$$
