WFE.pdb
     RDKit          3D

 35 37  0  0  1  0  0  0  0  0999 V2000
   26.8368  -21.2166  -13.0367 N   0  0  0  0  0  0  0  0  0  0  0  0
   25.7693  -20.7659  -12.2051 C   0  0  1  0  0  0  0  0  0  0  0  0
   24.4763  -21.4438  -12.5901 C   0  0  0  0  0  0  0  0  0  0  0  0
   23.9315  -20.7531  -13.7851 C   0  0  0  0  0  0  0  0  0  0  0  0
   24.4449  -20.8952  -15.0798 C   0  0  0  0  0  0  0  0  0  0  0  0
   23.7185  -20.1758  -15.9492 N   0  0  0  0  0  0  0  0  0  0  0  0
   22.7409  -19.5640  -15.2570 C   0  0  0  0  0  0  0  0  0  0  0  0
   21.7268  -18.7002  -15.6892 C   0  0  0  0  0  0  0  0  0  0  0  0
   20.8316  -18.1823  -14.7792 C   0  0  0  0  0  0  0  0  0  0  0  0
   20.9648  -18.5358  -13.4522 C   0  0  0  0  0  0  0  0  0  0  0  0
   21.9769  -19.3996  -13.0142 C   0  0  0  0  0  0  0  0  0  0  0  0
   22.8538  -19.9058  -13.9194 C   0  0  0  0  0  0  0  0  0  0  0  0
   26.1225  -21.0243  -10.7853 C   0  0  0  0  0  0  0  0  0  0  0  0
   26.1990  -22.2126  -10.3507 O   0  0  0  0  0  0  0  0  0  0  0  0
   26.3864  -19.9999   -9.8631 N   0  0  0  0  0  0  0  0  0  0  0  0
   26.6386  -20.2849   -8.4523 C   0  0  1  0  0  0  0  0  0  0  0  0
   27.3515  -19.0660   -7.9079 C   0  0  0  0  0  0  0  0  0  0  0  0
   28.0060  -19.5173   -6.6306 C   0  0  0  0  0  0  0  0  0  0  0  0
   28.9033  -20.5523   -6.6680 C   0  0  0  0  0  0  0  0  0  0  0  0
   29.5107  -20.9765   -5.5108 C   0  0  0  0  0  0  0  0  0  0  0  0
   29.2523  -20.3944   -4.2850 C   0  0  0  0  0  0  0  0  0  0  0  0
   28.3409  -19.3525   -4.2865 C   0  0  0  0  0  0  0  0  0  0  0  0
   27.7255  -18.9154   -5.4280 C   0  0  0  0  0  0  0  0  0  0  0  0
   25.3372  -20.5143   -7.7771 C   0  0  0  0  0  0  0  0  0  0  0  0
   24.4526  -19.6424   -7.8854 O   0  0  0  0  0  0  0  0  0  0  0  0
   25.0866  -21.6885   -7.0234 N   0  0  0  0  0  0  0  0  0  0  0  0
   23.8705  -21.8798   -6.2193 C   0  0  1  0  0  0  0  0  0  0  0  0
   23.4099  -23.3073   -6.3261 C   0  0  0  0  0  0  0  0  0  0  0  0
   22.2582  -23.5564   -5.3942 C   0  0  0  0  0  0  0  0  0  0  0  0
   20.9594  -23.5660   -6.1518 C   0  0  0  0  0  0  0  0  0  0  0  0
   20.9657  -24.1020   -7.2881 O   0  0  0  0  0  0  0  0  0  0  0  0
   24.0684  -21.4590   -4.8430 C   0  0  0  0  0  0  0  0  0  0  0  0
   25.2901  -21.2943   -4.2447 O   0  0  0  0  0  0  0  0  0  0  0  0
   19.7921  -23.0308   -5.6765 O   0  0  0  0  0  0  0  0  0  0  0  0
   23.0494  -21.2234   -4.1188 O   0  0  0  0  0  0  0  0  0  0  0  0
  2  1  1  6
  3  2  1  0
  3  4  1  0
  4  5  2  0
  5  6  1  0
  7  6  1  0
  8  7  2  0
  9  8  1  0
 10 11  1  0
 10  9  2  0
 11 12  2  0
 12  4  1  0
 12  7  1  0
 13 14  2  0
 13  2  1  0
 15 13  1  0
 16 15  1  0
 16 17  1  1
 18 19  2  0
 18 17  1  0
 20 19  1  0
 21 20  2  0
 22 21  1  0
 22 23  2  0
 23 18  1  0
 24 16  1  0
 24 25  2  0
 26 27  1  0
 26 24  1  0
 27 28  1  1
 28 29  1  0
 29 30  1  0
 30 34  1  0
 31 30  2  0
 32 27  1  0
 33 32  1  0
 35 32  2  0
M  END
$$$$
