WFE.pdb
     RDKit          3D

 35 37  0  0  1  0  0  0  0  0999 V2000
   27.5532  -20.6863  -19.0702 N   0  0  0  0  0  0  0  0  0  0  0  0
   26.8734  -19.7571  -18.2284 C   0  0  1  0  0  0  0  0  0  0  0  0
   25.5581  -19.3475  -18.8463 C   0  0  0  0  0  0  0  0  0  0  0  0
   25.8479  -18.6041  -20.0973 C   0  0  0  0  0  0  0  0  0  0  0  0
   25.4088  -18.9969  -21.3672 C   0  0  0  0  0  0  0  0  0  0  0  0
   25.7976  -18.1036  -22.2902 N   0  0  0  0  0  0  0  0  0  0  0  0
   26.4821  -17.1339  -21.6576 C   0  0  0  0  0  0  0  0  0  0  0  0
   27.1013  -15.9833  -22.1617 C   0  0  0  0  0  0  0  0  0  0  0  0
   27.7621  -15.1285  -21.3070 C   0  0  0  0  0  0  0  0  0  0  0  0
   27.7936  -15.4378  -19.9627 C   0  0  0  0  0  0  0  0  0  0  0  0
   27.1759  -16.5870  -19.4529 C   0  0  0  0  0  0  0  0  0  0  0  0
   26.5259  -17.4228  -20.3036 C   0  0  0  0  0  0  0  0  0  0  0  0
   26.6826  -20.3708  -16.8888 C   0  0  0  0  0  0  0  0  0  0  0  0
   26.2613  -21.5618  -16.7843 O   0  0  0  0  0  0  0  0  0  0  0  0
   26.9491  -19.6913  -15.6901 N   0  0  0  0  0  0  0  0  0  0  0  0
   26.4927  -20.2045  -14.4004 C   0  0  1  0  0  0  0  0  0  0  0  0
   27.1854  -19.3592  -13.3534 C   0  0  0  0  0  0  0  0  0  0  0  0
   26.6538  -19.8387  -12.0302 C   0  0  0  0  0  0  0  0  0  0  0  0
   27.1563  -20.9912  -11.4852 C   0  0  0  0  0  0  0  0  0  0  0  0
   26.6826  -21.4429  -10.2770 C   0  0  0  0  0  0  0  0  0  0  0  0
   25.7015  -20.7733   -9.5717 C   0  0  0  0  0  0  0  0  0  0  0  0
   25.2183  -19.6138  -10.1533 C   0  0  0  0  0  0  0  0  0  0  0  0
   25.6770  -19.1476  -11.3553 C   0  0  0  0  0  0  0  0  0  0  0  0
   25.0164  -20.0699  -14.3345 C   0  0  0  0  0  0  0  0  0  0  0  0
   24.5078  -18.9742  -14.6430 O   0  0  0  0  0  0  0  0  0  0  0  0
   24.1879  -21.1481  -13.9332 N   0  0  0  0  0  0  0  0  0  0  0  0
   22.7413  -21.0070  -13.7111 C   0  0  1  0  0  0  0  0  0  0  0  0
   22.0254  -22.2190  -14.2401 C   0  0  0  0  0  0  0  0  0  0  0  0
   20.5519  -22.1177  -13.9648 C   0  0  0  0  0  0  0  0  0  0  0  0
   19.8194  -21.6340  -15.1856 C   0  0  0  0  0  0  0  0  0  0  0  0
   20.4698  -21.5859  -16.2595 O   0  0  0  0  0  0  0  0  0  0  0  0
   22.4383  -20.7453  -12.3147 C   0  0  0  0  0  0  0  0  0  0  0  0
   23.2387  -21.1025  -11.2616 O   0  0  0  0  0  0  0  0  0  0  0  0
   18.5050  -21.2502  -15.1876 O   0  0  0  0  0  0  0  0  0  0  0  0
   21.3555  -20.1451  -12.0218 O   0  0  0  0  0  0  0  0  0  0  0  0
  2  1  1  6
  3  2  1  0
  3  4  1  0
  4  5  2  0
  5  6  1  0
  7  6  1  0
  8  7  2  0
  9  8  1  0
 10 11  1  0
 10  9  2  0
 11 12  2  0
 12  4  1  0
 12  7  1  0
 13 14  2  0
 13  2  1  0
 15 13  1  0
 16 15  1  0
 16 17  1  1
 18 19  2  0
 18 17  1  0
 20 19  1  0
 21 20  2  0
 22 21  1  0
 22 23  2  0
 23 18  1  0
 24 16  1  0
 24 25  2  0
 26 27  1  0
 26 24  1  0
 27 28  1  1
 28 29  1  0
 29 30  1  0
 30 34  1  0
 31 30  2  0
 32 27  1  0
 33 32  1  0
 35 32  2  0
M  END
$$$$
