WFE.pdb
     RDKit          3D

 35 37  0  0  1  0  0  0  0  0999 V2000
   15.2685  -15.0457    3.9717 N   0  0  0  0  0  0  0  0  0  0  0  0
   16.5636  -15.1099    4.5656 C   0  0  1  0  0  0  0  0  0  0  0  0
   16.6600  -14.1527    5.7293 C   0  0  0  0  0  0  0  0  0  0  0  0
   17.8710  -13.3165    5.5395 C   0  0  0  0  0  0  0  0  0  0  0  0
   17.9289  -12.1904    4.7098 C   0  0  0  0  0  0  0  0  0  0  0  0
   19.1448  -11.6260    4.7766 N   0  0  0  0  0  0  0  0  0  0  0  0
   19.8871  -12.3546    5.6295 C   0  0  0  0  0  0  0  0  0  0  0  0
   21.2167  -12.1952    6.0395 C   0  0  0  0  0  0  0  0  0  0  0  0
   21.7726  -13.0877    6.9297 C   0  0  0  0  0  0  0  0  0  0  0  0
   20.9907  -14.1248    7.3951 C   0  0  0  0  0  0  0  0  0  0  0  0
   19.6602  -14.2890    6.9887 C   0  0  0  0  0  0  0  0  0  0  0  0
   19.1211  -13.4031    6.1116 C   0  0  0  0  0  0  0  0  0  0  0  0
   16.8332  -16.5099    4.9833 C   0  0  0  0  0  0  0  0  0  0  0  0
   15.8949  -17.2379    5.4265 O   0  0  0  0  0  0  0  0  0  0  0  0
   18.1058  -17.0979    4.9152 N   0  0  0  0  0  0  0  0  0  0  0  0
   18.3275  -18.4915    5.2946 C   0  0  1  0  0  0  0  0  0  0  0  0
   19.2908  -19.0483    4.2687 C   0  0  0  0  0  0  0  0  0  0  0  0
   18.4570  -19.3508    3.0535 C   0  0  0  0  0  0  0  0  0  0  0  0
   17.6692  -20.4720    3.0449 C   0  0  0  0  0  0  0  0  0  0  0  0
   16.9007  -20.7628    1.9435 C   0  0  0  0  0  0  0  0  0  0  0  0
   16.8862  -19.9588    0.8203 C   0  0  0  0  0  0  0  0  0  0  0  0
   17.6943  -18.8358    0.8656 C   0  0  0  0  0  0  0  0  0  0  0  0
   18.4666  -18.5289    1.9528 C   0  0  0  0  0  0  0  0  0  0  0  0
   18.8964  -18.5229    6.6647 C   0  0  0  0  0  0  0  0  0  0  0  0
   19.7849  -17.6978    6.9555 O   0  0  0  0  0  0  0  0  0  0  0  0
   18.4545  -19.4595    7.6328 N   0  0  0  0  0  0  0  0  0  0  0  0
   18.9967  -19.5160    8.9984 C   0  0  1  0  0  0  0  0  0  0  0  0
   17.9698  -20.0999    9.9290 C   0  0  0  0  0  0  0  0  0  0  0  0
   18.5050  -20.1523   11.3319 C   0  0  0  0  0  0  0  0  0  0  0  0
   17.5155  -20.8156   12.2493 C   0  0  0  0  0  0  0  0  0  0  0  0
   16.5543  -20.1150   12.6542 O   0  0  0  0  0  0  0  0  0  0  0  0
   20.2602  -20.2315    9.0424 C   0  0  0  0  0  0  0  0  0  0  0  0
   21.3238  -19.8901    9.8359 O   0  0  0  0  0  0  0  0  0  0  0  0
   17.6059  -22.1190   12.6589 O   0  0  0  0  0  0  0  0  0  0  0  0
   20.4168  -21.2505    8.2971 O   0  0  0  0  0  0  0  0  0  0  0  0
  2  1  1  1
  3  2  1  0
  3  4  1  0
  4  5  2  0
  5  6  1  0
  7  6  1  0
  8  7  2  0
  9  8  1  0
 10 11  1  0
 10  9  2  0
 11 12  2  0
 12  4  1  0
 12  7  1  0
 13 14  2  0
 13  2  1  0
 15 13  1  0
 16 15  1  0
 16 17  1  6
 18 19  2  0
 18 17  1  0
 20 19  1  0
 21 20  2  0
 22 21  1  0
 22 23  2  0
 23 18  1  0
 24 16  1  0
 24 25  2  0
 26 27  1  0
 26 24  1  0
 27 28  1  1
 28 29  1  0
 29 30  1  0
 30 34  1  0
 31 30  2  0
 32 27  1  0
 33 32  1  0
 35 32  2  0
M  END
$$$$
