WFE.pdb
     RDKit          3D

 35 37  0  0  1  0  0  0  0  0999 V2000
   25.2683  -22.0145  -12.9163 N   0  0  0  0  0  0  0  0  0  0  0  0
   25.4088  -20.8600  -12.0908 C   0  0  1  0  0  0  0  0  0  0  0  0
   24.0820  -20.1563  -11.9352 C   0  0  0  0  0  0  0  0  0  0  0  0
   23.6366  -19.7098  -13.2783 C   0  0  0  0  0  0  0  0  0  0  0  0
   22.7104  -20.3986  -14.0706 C   0  0  0  0  0  0  0  0  0  0  0  0
   22.4846  -19.7277  -15.2109 N   0  0  0  0  0  0  0  0  0  0  0  0
   23.2405  -18.6153  -15.1870 C   0  0  0  0  0  0  0  0  0  0  0  0
   23.3763  -17.5900  -16.1314 C   0  0  0  0  0  0  0  0  0  0  0  0
   24.2330  -16.5395  -15.8860 C   0  0  0  0  0  0  0  0  0  0  0  0
   24.9400  -16.5309  -14.7012 C   0  0  0  0  0  0  0  0  0  0  0  0
   24.8079  -17.5535  -13.7530 C   0  0  0  0  0  0  0  0  0  0  0  0
   23.9599  -18.5843  -14.0038 C   0  0  0  0  0  0  0  0  0  0  0  0
   25.9684  -21.2719  -10.7776 C   0  0  0  0  0  0  0  0  0  0  0  0
   25.6109  -22.3646  -10.2436 O   0  0  0  0  0  0  0  0  0  0  0  0
   26.9009  -20.5008  -10.0665 N   0  0  0  0  0  0  0  0  0  0  0  0
   27.0718  -20.6441   -8.6224 C   0  0  1  0  0  0  0  0  0  0  0  0
   28.1642  -19.6693   -8.2394 C   0  0  0  0  0  0  0  0  0  0  0  0
   28.3369  -19.8195   -6.7524 C   0  0  0  0  0  0  0  0  0  0  0  0
   27.9112  -18.8139   -5.9244 C   0  0  0  0  0  0  0  0  0  0  0  0
   28.0605  -18.9352   -4.5639 C   0  0  0  0  0  0  0  0  0  0  0  0
   28.6327  -20.0490   -3.9803 C   0  0  0  0  0  0  0  0  0  0  0  0
   29.0504  -21.0434   -4.8479 C   0  0  0  0  0  0  0  0  0  0  0  0
   28.9105  -20.9415   -6.2053 C   0  0  0  0  0  0  0  0  0  0  0  0
   25.7834  -20.3220   -7.9604 C   0  0  0  0  0  0  0  0  0  0  0  0
   25.1683  -19.3015   -8.3277 O   0  0  0  0  0  0  0  0  0  0  0  0
   25.2487  -21.1411   -6.9343 N   0  0  0  0  0  0  0  0  0  0  0  0
   24.0345  -20.7922   -6.1819 C   0  0  1  0  0  0  0  0  0  0  0  0
   22.8212  -21.0230   -7.0399 C   0  0  0  0  0  0  0  0  0  0  0  0
   22.5256  -22.4923   -7.1433 C   0  0  0  0  0  0  0  0  0  0  0  0
   21.3018  -22.7261   -7.9850 C   0  0  0  0  0  0  0  0  0  0  0  0
   20.9273  -23.9167   -8.1291 O   0  0  0  0  0  0  0  0  0  0  0  0
   23.9669  -21.5035   -4.9172 C   0  0  0  0  0  0  0  0  0  0  0  0
   22.9898  -21.3269   -3.9731 O   0  0  0  0  0  0  0  0  0  0  0  0
   20.5876  -21.7274   -8.5912 O   0  0  0  0  0  0  0  0  0  0  0  0
   24.8706  -22.3553   -4.6409 O   0  0  0  0  0  0  0  0  0  0  0  0
  2  1  1  6
  3  2  1  0
  3  4  1  0
  4  5  2  0
  5  6  1  0
  7  6  1  0
  8  7  2  0
  9  8  1  0
 10 11  1  0
 10  9  2  0
 11 12  2  0
 12  4  1  0
 12  7  1  0
 13 14  2  0
 13  2  1  0
 15 13  1  0
 16 15  1  0
 16 17  1  1
 18 19  2  0
 18 17  1  0
 20 19  1  0
 21 20  2  0
 22 21  1  0
 22 23  2  0
 23 18  1  0
 24 16  1  0
 24 25  2  0
 26 27  1  0
 26 24  1  0
 27 28  1  6
 28 29  1  0
 29 30  1  0
 30 34  1  0
 31 30  2  0
 32 27  1  0
 33 32  1  0
 35 32  2  0
M  END
$$$$
