WFE.pdb
     RDKit          3D

 35 37  0  0  1  0  0  0  0  0999 V2000
   27.8389  -21.7280  -15.3519 N   0  0  0  0  0  0  0  0  0  0  0  0
   26.9401  -20.6338  -15.1813 C   0  0  1  0  0  0  0  0  0  0  0  0
   26.3235  -20.2445  -16.5034 C   0  0  0  0  0  0  0  0  0  0  0  0
   27.1788  -19.2015  -17.1218 C   0  0  0  0  0  0  0  0  0  0  0  0
   27.8562  -19.3565  -18.3372 C   0  0  0  0  0  0  0  0  0  0  0  0
   28.5138  -18.2291  -18.6496 N   0  0  0  0  0  0  0  0  0  0  0  0
   28.2855  -17.3376  -17.6686 C   0  0  0  0  0  0  0  0  0  0  0  0
   28.7437  -16.0234  -17.5119 C   0  0  0  0  0  0  0  0  0  0  0  0
   28.3779  -15.2966  -16.4003 C   0  0  0  0  0  0  0  0  0  0  0  0
   27.5607  -15.8950  -15.4635 C   0  0  0  0  0  0  0  0  0  0  0  0
   27.0992  -17.2089  -15.6151 C   0  0  0  0  0  0  0  0  0  0  0  0
   27.4645  -17.9168  -16.7152 C   0  0  0  0  0  0  0  0  0  0  0  0
   25.9058  -21.0110  -14.1837 C   0  0  0  0  0  0  0  0  0  0  0  0
   25.5493  -22.2208  -14.0572 O   0  0  0  0  0  0  0  0  0  0  0  0
   25.2770  -20.0796  -13.3429 N   0  0  0  0  0  0  0  0  0  0  0  0
   24.3284  -20.4955  -12.3122 C   0  0  1  0  0  0  0  0  0  0  0  0
   24.4951  -19.5078  -11.1778 C   0  0  0  0  0  0  0  0  0  0  0  0
   25.1763  -20.2706  -10.0744 C   0  0  0  0  0  0  0  0  0  0  0  0
   26.5455  -20.2924  -10.0225 C   0  0  0  0  0  0  0  0  0  0  0  0
   27.1838  -20.9836   -9.0210 C   0  0  0  0  0  0  0  0  0  0  0  0
   26.4928  -21.6724   -8.0431 C   0  0  0  0  0  0  0  0  0  0  0  0
   25.1119  -21.6277   -8.1281 C   0  0  0  0  0  0  0  0  0  0  0  0
   24.4577  -20.9451   -9.1174 C   0  0  0  0  0  0  0  0  0  0  0  0
   22.9604  -20.4560  -12.8861 C   0  0  0  0  0  0  0  0  0  0  0  0
   22.5711  -19.3961  -13.4148 O   0  0  0  0  0  0  0  0  0  0  0  0
   22.1028  -21.5840  -12.8441 N   0  0  0  0  0  0  0  0  0  0  0  0
   20.7461  -21.5802  -13.4109 C   0  0  1  0  0  0  0  0  0  0  0  0
   20.3340  -22.9856  -13.7522 C   0  0  0  0  0  0  0  0  0  0  0  0
   18.9596  -22.9949  -14.3588 C   0  0  0  0  0  0  0  0  0  0  0  0
   18.6146  -24.3692  -14.8619 C   0  0  0  0  0  0  0  0  0  0  0  0
   17.4819  -24.5175  -15.3850 O   0  0  0  0  0  0  0  0  0  0  0  0
   19.8001  -20.9204  -12.5278 C   0  0  0  0  0  0  0  0  0  0  0  0
   18.6669  -20.2711  -12.9422 O   0  0  0  0  0  0  0  0  0  0  0  0
   19.4549  -25.4472  -14.7810 O   0  0  0  0  0  0  0  0  0  0  0  0
   20.0187  -20.9290  -11.2746 O   0  0  0  0  0  0  0  0  0  0  0  0
  2  1  1  6
  3  2  1  0
  3  4  1  0
  4  5  2  0
  5  6  1  0
  7  6  1  0
  8  7  2  0
  9  8  1  0
 10 11  1  0
 10  9  2  0
 11 12  2  0
 12  4  1  0
 12  7  1  0
 13 14  2  0
 13  2  1  0
 15 13  1  0
 16 15  1  0
 16 17  1  1
 18 19  2  0
 18 17  1  0
 20 19  1  0
 21 20  2  0
 22 21  1  0
 22 23  2  0
 23 18  1  0
 24 16  1  0
 24 25  2  0
 26 27  1  0
 26 24  1  0
 27 28  1  1
 28 29  1  0
 29 30  1  0
 30 34  1  0
 31 30  2  0
 32 27  1  0
 33 32  1  0
 35 32  2  0
M  END
$$$$
