FDD.pdb
     RDKit          3D

 28 28  0  0  1  0  0  0  0  0999 V2000
    8.6642  -16.6965   20.7595 N   0  0  0  0  0  0  0  0  0  0  0  0
    9.0247  -17.0064   19.3880 C   0  0  1  0  0  0  0  0  0  0  0  0
    8.1584  -16.1057   18.5242 C   0  0  0  0  0  0  0  0  0  0  0  0
    8.1381  -14.7402   19.1185 C   0  0  0  0  0  0  0  0  0  0  0  0
    8.9662  -13.7395   18.6051 C   0  0  0  0  0  0  0  0  0  0  0  0
    8.9301  -12.4858   19.1628 C   0  0  0  0  0  0  0  0  0  0  0  0
    8.0826  -12.1855   20.2302 C   0  0  0  0  0  0  0  0  0  0  0  0
    7.2586  -13.1585   20.7501 C   0  0  0  0  0  0  0  0  0  0  0  0
    7.3121  -14.4285   20.1679 C   0  0  0  0  0  0  0  0  0  0  0  0
   10.4578  -16.5835   19.1645 C   0  0  0  0  0  0  0  0  0  0  0  0
   11.1645  -17.0221   18.2271 O   0  0  0  0  0  0  0  0  0  0  0  0
   11.0606  -15.6279   20.0619 N   0  0  0  0  0  0  0  0  0  0  0  0
   12.4676  -15.6886   20.3461 C   0  0  1  0  0  0  0  0  0  0  0  0
   13.1051  -14.3922   19.8243 C   0  0  0  0  0  0  0  0  0  0  0  0
   13.6089  -14.6565   18.4608 C   0  0  0  0  0  0  0  0  0  0  0  0
   13.4185  -13.9287   17.4551 O   0  0  0  0  0  0  0  0  0  0  0  0
   12.7746  -15.8037   21.7714 C   0  0  0  0  0  0  0  0  0  0  0  0
   12.3072  -15.0533   22.6677 O   0  0  0  0  0  0  0  0  0  0  0  0
   14.3733  -15.8149   18.2172 O   0  0  0  0  0  0  0  0  0  0  0  0
   13.6622  -16.8225   22.2103 N   0  0  0  0  0  0  0  0  0  0  0  0
   14.0103  -17.0339   23.6007 C   0  0  1  0  0  0  0  0  0  0  0  0
   13.3103  -18.3484   23.9767 C   0  0  0  0  0  0  0  0  0  0  0  0
   13.6311  -18.7622   25.3551 C   0  0  0  0  0  0  0  0  0  0  0  0
   14.4236  -18.0469   26.0458 O   0  0  0  0  0  0  0  0  0  0  0  0
   15.4476  -17.3033   23.6959 C   0  0  0  0  0  0  0  0  0  0  0  0
   16.0615  -17.7637   22.7123 O   0  0  0  0  0  0  0  0  0  0  0  0
   13.1075  -19.8920   25.9379 O   0  0  0  0  0  0  0  0  0  0  0  0
   16.1923  -17.0672   24.8597 O   0  0  0  0  0  0  0  0  0  0  0  0
  2  1  1  1
  3  4  1  0
  3  2  1  0
  4  9  2  0
  5  6  2  0
  5  4  1  0
  6  7  1  0
  7  8  2  0
  9  8  1  0
 10  2  1  0
 10 12  1  0
 11 10  2  0
 13 12  1  0
 13 14  1  1
 14 15  1  0
 15 16  2  0
 17 13  1  0
 18 17  2  0
 19 15  1  0
 20 17  1  0
 21 20  1  0
 21 25  1  0
 21 22  1  6
 23 24  2  0
 23 22  1  0
 25 28  1  0
 26 25  2  0
 27 23  1  0
M  END
$$$$
