FDD.pdb
     RDKit          3D

 28 28  0  0  1  0  0  0  0  0999 V2000
    6.7945  -16.7961   26.0278 N   0  0  0  0  0  0  0  0  0  0  0  0
    7.0621  -15.8254   24.9823 C   0  0  1  0  0  0  0  0  0  0  0  0
    8.1036  -14.8812   25.5581 C   0  0  0  0  0  0  0  0  0  0  0  0
    7.4112  -13.7146   26.1726 C   0  0  0  0  0  0  0  0  0  0  0  0
    6.4258  -13.0283   25.4593 C   0  0  0  0  0  0  0  0  0  0  0  0
    5.7952  -11.9585   26.0442 C   0  0  0  0  0  0  0  0  0  0  0  0
    6.1132  -11.5410   27.3373 C   0  0  0  0  0  0  0  0  0  0  0  0
    7.0818  -12.2048   28.0566 C   0  0  0  0  0  0  0  0  0  0  0  0
    7.7121  -13.2907   27.4418 C   0  0  0  0  0  0  0  0  0  0  0  0
    7.7121  -16.5417   23.8217 C   0  0  0  0  0  0  0  0  0  0  0  0
    7.9280  -17.7761   23.8111 O   0  0  0  0  0  0  0  0  0  0  0  0
    8.1099  -15.7862   22.6585 N   0  0  0  0  0  0  0  0  0  0  0  0
    8.6371  -16.4586   21.5035 C   0  0  1  0  0  0  0  0  0  0  0  0
    8.3883  -15.5570   20.2851 C   0  0  0  0  0  0  0  0  0  0  0  0
    8.8428  -16.2886   19.0847 C   0  0  0  0  0  0  0  0  0  0  0  0
    9.6461  -15.8547   18.2222 O   0  0  0  0  0  0  0  0  0  0  0  0
   10.0725  -16.7269   21.5843 C   0  0  0  0  0  0  0  0  0  0  0  0
   10.8430  -16.8082   20.5919 O   0  0  0  0  0  0  0  0  0  0  0  0
    8.3591  -17.5896   18.8418 O   0  0  0  0  0  0  0  0  0  0  0  0
   10.6727  -16.9170   22.8579 N   0  0  0  0  0  0  0  0  0  0  0  0
   12.0870  -17.1698   23.0445 C   0  0  1  0  0  0  0  0  0  0  0  0
   12.7741  -15.8821   22.5660 C   0  0  0  0  0  0  0  0  0  0  0  0
   14.2252  -16.0726   22.3866 C   0  0  0  0  0  0  0  0  0  0  0  0
   14.6598  -17.2166   22.0417 O   0  0  0  0  0  0  0  0  0  0  0  0
   12.3683  -17.2650   24.4796 C   0  0  0  0  0  0  0  0  0  0  0  0
   11.5131  -16.8925   25.3080 O   0  0  0  0  0  0  0  0  0  0  0  0
   15.1405  -15.0635   22.5716 O   0  0  0  0  0  0  0  0  0  0  0  0
   13.5751  -17.7640   24.9887 O   0  0  0  0  0  0  0  0  0  0  0  0
  2  1  1  1
  3  4  1  0
  3  2  1  0
  4  9  2  0
  5  6  2  0
  5  4  1  0
  6  7  1  0
  7  8  2  0
  9  8  1  0
 10  2  1  0
 10 12  1  0
 11 10  2  0
 13 12  1  0
 13 14  1  6
 14 15  1  0
 15 16  2  0
 17 13  1  0
 18 17  2  0
 19 15  1  0
 20 17  1  0
 21 20  1  0
 21 25  1  0
 21 22  1  1
 23 24  2  0
 23 22  1  0
 25 28  1  0
 26 25  2  0
 27 23  1  0
M  END
$$$$
