FDD.pdb
     RDKit          3D

 28 28  0  0  1  0  0  0  0  0999 V2000
    5.8956  -17.5427   25.6284 N   0  0  0  0  0  0  0  0  0  0  0  0
    6.4126  -16.2688   25.1625 C   0  0  1  0  0  0  0  0  0  0  0  0
    7.0579  -15.6213   26.3758 C   0  0  0  0  0  0  0  0  0  0  0  0
    6.9006  -14.1437   26.2758 C   0  0  0  0  0  0  0  0  0  0  0  0
    7.9945  -13.3431   25.9393 C   0  0  0  0  0  0  0  0  0  0  0  0
    7.8289  -11.9836   25.8473 C   0  0  0  0  0  0  0  0  0  0  0  0
    6.5917  -11.3811   26.0794 C   0  0  0  0  0  0  0  0  0  0  0  0
    5.5013  -12.1535   26.4122 C   0  0  0  0  0  0  0  0  0  0  0  0
    5.6922  -13.5356   26.5014 C   0  0  0  0  0  0  0  0  0  0  0  0
    7.5177  -16.5377   24.1680 C   0  0  0  0  0  0  0  0  0  0  0  0
    8.4718  -17.3175   24.3965 O   0  0  0  0  0  0  0  0  0  0  0  0
    7.4912  -15.8758   22.8863 N   0  0  0  0  0  0  0  0  0  0  0  0
    8.5834  -16.0343   21.9663 C   0  0  1  0  0  0  0  0  0  0  0  0
    8.2882  -15.1617   20.7373 C   0  0  0  0  0  0  0  0  0  0  0  0
    9.2188  -15.5678   19.6640 C   0  0  0  0  0  0  0  0  0  0  0  0
    9.9253  -14.7919   18.9740 O   0  0  0  0  0  0  0  0  0  0  0  0
    9.8765  -15.6252   22.5136 C   0  0  0  0  0  0  0  0  0  0  0  0
   10.1399  -14.4714   22.9429 O   0  0  0  0  0  0  0  0  0  0  0  0
    9.3591  -16.9340   19.3491 O   0  0  0  0  0  0  0  0  0  0  0  0
   10.9340  -16.5717   22.5776 N   0  0  0  0  0  0  0  0  0  0  0  0
   12.2572  -16.2581   23.0774 C   0  0  1  0  0  0  0  0  0  0  0  0
   12.4288  -17.1642   24.3059 C   0  0  0  0  0  0  0  0  0  0  0  0
   13.7785  -17.0446   24.8875 C   0  0  0  0  0  0  0  0  0  0  0  0
   14.5960  -16.2109   24.3842 O   0  0  0  0  0  0  0  0  0  0  0  0
   13.2538  -16.7107   22.1029 C   0  0  0  0  0  0  0  0  0  0  0  0
   14.4099  -16.2429   22.1314 O   0  0  0  0  0  0  0  0  0  0  0  0
   14.1997  -17.7942   25.9603 O   0  0  0  0  0  0  0  0  0  0  0  0
   12.9753  -17.6644   21.1143 O   0  0  0  0  0  0  0  0  0  0  0  0
  2  1  1  1
  3  4  1  0
  3  2  1  0
  4  9  2  0
  5  6  2  0
  5  4  1  0
  6  7  1  0
  7  8  2  0
  9  8  1  0
 10  2  1  0
 10 12  1  0
 11 10  2  0
 13 12  1  0
 13 14  1  6
 14 15  1  0
 15 16  2  0
 17 13  1  0
 18 17  2  0
 19 15  1  0
 20 17  1  0
 21 20  1  0
 21 25  1  0
 21 22  1  1
 23 24  2  0
 23 22  1  0
 25 28  1  0
 26 25  2  0
 27 23  1  0
M  END
$$$$
