FDD.pdb
     RDKit          3D

 28 28  0  0  1  0  0  0  0  0999 V2000
    8.3039  -16.7579   16.5941 N   0  0  0  0  0  0  0  0  0  0  0  0
    8.9893  -15.9191   17.5605 C   0  0  1  0  0  0  0  0  0  0  0  0
    8.0502  -15.8150   18.7501 C   0  0  0  0  0  0  0  0  0  0  0  0
    8.1452  -14.4432   19.3221 C   0  0  0  0  0  0  0  0  0  0  0  0
    8.8891  -13.4597   18.6663 C   0  0  0  0  0  0  0  0  0  0  0  0
    8.9610  -12.1999   19.2063 C   0  0  0  0  0  0  0  0  0  0  0  0
    8.3054  -11.8763   20.3951 C   0  0  0  0  0  0  0  0  0  0  0  0
    7.5668  -12.8321   21.0563 C   0  0  0  0  0  0  0  0  0  0  0  0
    7.5078  -14.1088   20.4895 C   0  0  0  0  0  0  0  0  0  0  0  0
   10.2225  -16.6505   18.0368 C   0  0  0  0  0  0  0  0  0  0  0  0
   10.2310  -17.8722   18.3154 O   0  0  0  0  0  0  0  0  0  0  0  0
   11.4614  -15.9255   18.1833 N   0  0  0  0  0  0  0  0  0  0  0  0
   12.5600  -16.5068   18.9040 C   0  0  1  0  0  0  0  0  0  0  0  0
   13.8596  -15.9793   18.2778 C   0  0  0  0  0  0  0  0  0  0  0  0
   13.8749  -14.5114   18.4442 C   0  0  0  0  0  0  0  0  0  0  0  0
   14.1715  -13.8962   19.4982 O   0  0  0  0  0  0  0  0  0  0  0  0
   12.5726  -16.1703   20.3272 C   0  0  0  0  0  0  0  0  0  0  0  0
   11.8743  -15.2658   20.8557 O   0  0  0  0  0  0  0  0  0  0  0  0
   13.5325  -13.6871   17.3539 O   0  0  0  0  0  0  0  0  0  0  0  0
   13.4241  -16.8945   21.2042 N   0  0  0  0  0  0  0  0  0  0  0  0
   13.1216  -17.1235   22.6024 C   0  0  1  0  0  0  0  0  0  0  0  0
   11.9184  -18.0782   22.5840 C   0  0  0  0  0  0  0  0  0  0  0  0
   11.5220  -18.4824   23.9455 C   0  0  0  0  0  0  0  0  0  0  0  0
   10.8374  -17.6782   24.6535 O   0  0  0  0  0  0  0  0  0  0  0  0
   14.2219  -17.8767   23.2103 C   0  0  0  0  0  0  0  0  0  0  0  0
   14.6352  -18.9218   22.6689 O   0  0  0  0  0  0  0  0  0  0  0  0
   11.8557  -19.6994   24.4914 O   0  0  0  0  0  0  0  0  0  0  0  0
   14.8537  -17.4797   24.3969 O   0  0  0  0  0  0  0  0  0  0  0  0
  2  1  1  6
  3  4  1  0
  3  2  1  0
  4  9  2  0
  5  6  2  0
  5  4  1  0
  6  7  1  0
  7  8  2  0
  9  8  1  0
 10  2  1  0
 10 12  1  0
 11 10  2  0
 13 12  1  0
 13 14  1  6
 14 15  1  0
 15 16  2  0
 17 13  1  0
 18 17  2  0
 19 15  1  0
 20 17  1  0
 21 20  1  0
 21 25  1  0
 21 22  1  6
 23 24  2  0
 23 22  1  0
 25 28  1  0
 26 25  2  0
 27 23  1  0
M  END
$$$$
