FDD.pdb
     RDKit          3D

 28 28  0  0  1  0  0  0  0  0999 V2000
    5.9378  -16.9899   23.6851 N   0  0  0  0  0  0  0  0  0  0  0  0
    7.0041  -16.1421   24.1862 C   0  0  1  0  0  0  0  0  0  0  0  0
    6.6058  -15.7811   25.6070 C   0  0  0  0  0  0  0  0  0  0  0  0
    6.8641  -14.3310   25.8276 C   0  0  0  0  0  0  0  0  0  0  0  0
    8.1728  -13.8663   25.9759 C   0  0  0  0  0  0  0  0  0  0  0  0
    8.3913  -12.5257   26.1736 C   0  0  0  0  0  0  0  0  0  0  0  0
    7.3361  -11.6139   26.2273 C   0  0  0  0  0  0  0  0  0  0  0  0
    6.0389  -12.0526   26.0832 C   0  0  0  0  0  0  0  0  0  0  0  0
    5.8388  -13.4218   25.8837 C   0  0  0  0  0  0  0  0  0  0  0  0
    8.2658  -16.9681   24.2798 C   0  0  0  0  0  0  0  0  0  0  0  0
    8.2899  -18.1346   24.7371 O   0  0  0  0  0  0  0  0  0  0  0  0
    9.5140  -16.4055   23.8246 N   0  0  0  0  0  0  0  0  0  0  0  0
   10.7412  -17.1331   23.9943 C   0  0  1  0  0  0  0  0  0  0  0  0
   11.8454  -16.3638   23.2539 C   0  0  0  0  0  0  0  0  0  0  0  0
   11.5658  -16.4588   21.8063 C   0  0  0  0  0  0  0  0  0  0  0  0
   11.5750  -17.5142   21.1257 O   0  0  0  0  0  0  0  0  0  0  0  0
   11.1486  -17.2800   25.3912 C   0  0  0  0  0  0  0  0  0  0  0  0
   11.4200  -16.3229   26.1627 O   0  0  0  0  0  0  0  0  0  0  0  0
   11.2588  -15.2898   21.0820 O   0  0  0  0  0  0  0  0  0  0  0  0
   11.2588  -18.5821   25.9489 N   0  0  0  0  0  0  0  0  0  0  0  0
   11.7379  -18.8375   27.2921 C   0  0  1  0  0  0  0  0  0  0  0  0
   11.0071  -20.1177   27.7239 C   0  0  0  0  0  0  0  0  0  0  0  0
    9.6346  -19.8340   28.1823 C   0  0  0  0  0  0  0  0  0  0  0  0
    8.7858  -20.7801   28.2125 O   0  0  0  0  0  0  0  0  0  0  0  0
   13.1595  -19.1882   27.2318 C   0  0  0  0  0  0  0  0  0  0  0  0
   13.7184  -19.3355   26.1262 O   0  0  0  0  0  0  0  0  0  0  0  0
    9.2243  -18.5856   28.5868 O   0  0  0  0  0  0  0  0  0  0  0  0
   13.9486  -19.3727   28.3754 O   0  0  0  0  0  0  0  0  0  0  0  0
  2  1  1  1
  3  4  1  0
  3  2  1  0
  4  9  2  0
  5  6  2  0
  5  4  1  0
  6  7  1  0
  7  8  2  0
  9  8  1  0
 10  2  1  0
 10 12  1  0
 11 10  2  0
 13 12  1  0
 13 14  1  6
 14 15  1  0
 15 16  2  0
 17 13  1  0
 18 17  2  0
 19 15  1  0
 20 17  1  0
 21 20  1  0
 21 25  1  0
 21 22  1  6
 23 24  2  0
 23 22  1  0
 25 28  1  0
 26 25  2  0
 27 23  1  0
M  END
$$$$
