FDD.pdb
     RDKit          3D

 28 28  0  0  1  0  0  0  0  0999 V2000
    7.3285  -13.9723   22.7575 N   0  0  0  0  0  0  0  0  0  0  0  0
    8.2250  -14.6094   23.7049 C   0  0  1  0  0  0  0  0  0  0  0  0
    7.3734  -14.9305   24.9212 C   0  0  0  0  0  0  0  0  0  0  0  0
    7.0117  -13.6590   25.6071 C   0  0  0  0  0  0  0  0  0  0  0  0
    6.4809  -13.6852   26.8987 C   0  0  0  0  0  0  0  0  0  0  0  0
    6.1581  -12.5028   27.5165 C   0  0  0  0  0  0  0  0  0  0  0  0
    6.3504  -11.2729   26.8857 C   0  0  0  0  0  0  0  0  0  0  0  0
    6.8727  -11.2263   25.6124 C   0  0  0  0  0  0  0  0  0  0  0  0
    7.1935  -12.4421   25.0013 C   0  0  0  0  0  0  0  0  0  0  0  0
    8.6746  -15.9291   23.1224 C   0  0  0  0  0  0  0  0  0  0  0  0
    8.5880  -17.0165   23.7393 O   0  0  0  0  0  0  0  0  0  0  0  0
    9.2324  -15.9608   21.7922 N   0  0  0  0  0  0  0  0  0  0  0  0
   10.1860  -16.9727   21.4304 C   0  0  1  0  0  0  0  0  0  0  0  0
   10.4390  -16.8563   19.9199 C   0  0  0  0  0  0  0  0  0  0  0  0
   11.1617  -18.0713   19.4905 C   0  0  0  0  0  0  0  0  0  0  0  0
   12.2606  -18.0942   18.8828 O   0  0  0  0  0  0  0  0  0  0  0  0
   11.4705  -16.8418   22.1173 C   0  0  0  0  0  0  0  0  0  0  0  0
   12.1883  -15.8076   22.1030 O   0  0  0  0  0  0  0  0  0  0  0  0
   10.6088  -19.3386   19.7623 O   0  0  0  0  0  0  0  0  0  0  0  0
   11.9755  -17.9421   22.8608 N   0  0  0  0  0  0  0  0  0  0  0  0
   13.2100  -17.8952   23.6176 C   0  0  1  0  0  0  0  0  0  0  0  0
   13.0002  -18.9025   24.7581 C   0  0  0  0  0  0  0  0  0  0  0  0
   12.2744  -18.3000   25.8914 C   0  0  0  0  0  0  0  0  0  0  0  0
   12.3083  -17.0384   26.0456 O   0  0  0  0  0  0  0  0  0  0  0  0
   14.2936  -18.4403   22.7952 C   0  0  0  0  0  0  0  0  0  0  0  0
   14.0330  -18.9888   21.7056 O   0  0  0  0  0  0  0  0  0  0  0  0
   11.5521  -19.0416   26.7961 O   0  0  0  0  0  0  0  0  0  0  0  0
   15.6421  -18.3790   23.1727 O   0  0  0  0  0  0  0  0  0  0  0  0
  2  1  1  6
  3  4  1  0
  3  2  1  0
  4  9  2  0
  5  6  2  0
  5  4  1  0
  6  7  1  0
  7  8  2  0
  9  8  1  0
 10  2  1  0
 10 12  1  0
 11 10  2  0
 13 12  1  0
 13 14  1  6
 14 15  1  0
 15 16  2  0
 17 13  1  0
 18 17  2  0
 19 15  1  0
 20 17  1  0
 21 20  1  0
 21 25  1  0
 21 22  1  1
 23 24  2  0
 23 22  1  0
 25 28  1  0
 26 25  2  0
 27 23  1  0
M  END
$$$$
