FDD.pdb
     RDKit          3D

 28 28  0  0  1  0  0  0  0  0999 V2000
    7.0606  -16.0610   25.9107 N   0  0  0  0  0  0  0  0  0  0  0  0
    7.4353  -15.4988   24.6259 C   0  0  1  0  0  0  0  0  0  0  0  0
    8.2014  -14.2263   24.9443 C   0  0  0  0  0  0  0  0  0  0  0  0
    7.3081  -13.2987   25.6923 C   0  0  0  0  0  0  0  0  0  0  0  0
    6.1105  -12.8643   25.1199 C   0  0  0  0  0  0  0  0  0  0  0  0
    5.2978  -12.0133   25.8267 C   0  0  0  0  0  0  0  0  0  0  0  0
    5.6384  -11.5731   27.1065 C   0  0  0  0  0  0  0  0  0  0  0  0
    6.8148  -11.9903   27.6879 C   0  0  0  0  0  0  0  0  0  0  0  0
    7.6280  -12.8560   26.9504 C   0  0  0  0  0  0  0  0  0  0  0  0
    8.4083  -16.4423   23.9582 C   0  0  0  0  0  0  0  0  0  0  0  0
    8.9301  -17.4186   24.5455 O   0  0  0  0  0  0  0  0  0  0  0  0
    8.7663  -16.2270   22.5772 N   0  0  0  0  0  0  0  0  0  0  0  0
    9.7430  -17.0681   21.9424 C   0  0  1  0  0  0  0  0  0  0  0  0
    9.3919  -17.1454   20.4491 C   0  0  0  0  0  0  0  0  0  0  0  0
    8.1691  -17.9641   20.3170 C   0  0  0  0  0  0  0  0  0  0  0  0
    7.9261  -19.0251   20.9434 O   0  0  0  0  0  0  0  0  0  0  0  0
   11.1130  -16.5704   22.0615 C   0  0  0  0  0  0  0  0  0  0  0  0
   11.4234  -15.3651   22.2511 O   0  0  0  0  0  0  0  0  0  0  0  0
    7.1591  -17.5609   19.4209 O   0  0  0  0  0  0  0  0  0  0  0  0
   12.1953  -17.4850   21.9579 N   0  0  0  0  0  0  0  0  0  0  0  0
   13.5787  -17.1129   22.1742 C   0  0  1  0  0  0  0  0  0  0  0  0
   13.6596  -16.7884   23.6734 C   0  0  0  0  0  0  0  0  0  0  0  0
   14.9803  -16.2474   24.0438 C   0  0  0  0  0  0  0  0  0  0  0  0
   16.0261  -16.7915   23.5675 O   0  0  0  0  0  0  0  0  0  0  0  0
   14.4259  -18.2916   21.9726 C   0  0  0  0  0  0  0  0  0  0  0  0
   15.3451  -18.2612   21.1298 O   0  0  0  0  0  0  0  0  0  0  0  0
   15.1386  -15.1704   24.8837 O   0  0  0  0  0  0  0  0  0  0  0  0
   14.2582  -19.4831   22.6916 O   0  0  0  0  0  0  0  0  0  0  0  0
  2  1  1  1
  3  4  1  0
  3  2  1  0
  4  9  2  0
  5  6  2  0
  5  4  1  0
  6  7  1  0
  7  8  2  0
  9  8  1  0
 10  2  1  0
 10 12  1  0
 11 10  2  0
 13 12  1  0
 13 14  1  6
 14 15  1  0
 15 16  2  0
 17 13  1  0
 18 17  2  0
 19 15  1  0
 20 17  1  0
 21 20  1  0
 21 25  1  0
 21 22  1  1
 23 24  2  0
 23 22  1  0
 25 28  1  0
 26 25  2  0
 27 23  1  0
M  END
$$$$
