FDD.pdb
     RDKit          3D

 28 28  0  0  1  0  0  0  0  0999 V2000
    6.4906  -15.6194   23.2226 N   0  0  0  0  0  0  0  0  0  0  0  0
    7.6481  -16.1248   22.5073 C   0  0  1  0  0  0  0  0  0  0  0  0
    8.6131  -14.9553   22.4133 C   0  0  0  0  0  0  0  0  0  0  0  0
    8.1904  -14.0688   21.2937 C   0  0  0  0  0  0  0  0  0  0  0  0
    7.5715  -12.8460   21.5627 C   0  0  0  0  0  0  0  0  0  0  0  0
    7.1934  -12.0402   20.5177 C   0  0  0  0  0  0  0  0  0  0  0  0
    7.4152  -12.4123   19.1911 C   0  0  0  0  0  0  0  0  0  0  0  0
    8.0241  -13.6139   18.9056 C   0  0  0  0  0  0  0  0  0  0  0  0
    8.4002  -14.4196   19.9846 C   0  0  0  0  0  0  0  0  0  0  0  0
    8.3148  -17.1771   23.3622 C   0  0  0  0  0  0  0  0  0  0  0  0
    8.3650  -17.1146   24.6128 O   0  0  0  0  0  0  0  0  0  0  0  0
    8.9283  -18.3184   22.7274 N   0  0  0  0  0  0  0  0  0  0  0  0
    9.6376  -19.2899   23.5131 C   0  0  1  0  0  0  0  0  0  0  0  0
    9.4107  -20.6658   22.8692 C   0  0  0  0  0  0  0  0  0  0  0  0
    9.9833  -21.6847   23.7729 C   0  0  0  0  0  0  0  0  0  0  0  0
   10.8466  -22.5411   23.4588 O   0  0  0  0  0  0  0  0  0  0  0  0
   11.0790  -19.0522   23.5801 C   0  0  0  0  0  0  0  0  0  0  0  0
   11.8791  -19.2270   22.6239 O   0  0  0  0  0  0  0  0  0  0  0  0
    9.5534  -21.7415   25.1136 O   0  0  0  0  0  0  0  0  0  0  0  0
   11.6511  -18.5933   24.7970 N   0  0  0  0  0  0  0  0  0  0  0  0
   13.0775  -18.4441   25.0025 C   0  0  1  0  0  0  0  0  0  0  0  0
   13.3360  -16.9403   24.8262 C   0  0  0  0  0  0  0  0  0  0  0  0
   13.8367  -16.6277   23.4750 C   0  0  0  0  0  0  0  0  0  0  0  0
   13.9676  -17.5703   22.6318 O   0  0  0  0  0  0  0  0  0  0  0  0
   13.3906  -18.7435   26.4025 C   0  0  0  0  0  0  0  0  0  0  0  0
   12.4715  -18.8294   27.2417 O   0  0  0  0  0  0  0  0  0  0  0  0
   14.1682  -15.3543   23.0762 O   0  0  0  0  0  0  0  0  0  0  0  0
   14.6983  -18.9443   26.8653 O   0  0  0  0  0  0  0  0  0  0  0  0
  2  1  1  1
  3  4  1  0
  3  2  1  0
  4  9  2  0
  5  6  2  0
  5  4  1  0
  6  7  1  0
  7  8  2  0
  9  8  1  0
 10  2  1  0
 10 12  1  0
 11 10  2  0
 13 12  1  0
 13 14  1  6
 14 15  1  0
 15 16  2  0
 17 13  1  0
 18 17  2  0
 19 15  1  0
 20 17  1  0
 21 20  1  0
 21 25  1  0
 21 22  1  1
 23 24  2  0
 23 22  1  0
 25 28  1  0
 26 25  2  0
 27 23  1  0
M  END
$$$$
