FDD.pdb
     RDKit          3D

 28 28  0  0  1  0  0  0  0  0999 V2000
    7.1159  -16.1193   25.2393 N   0  0  0  0  0  0  0  0  0  0  0  0
    6.8993  -15.8794   23.8241 C   0  0  1  0  0  0  0  0  0  0  0  0
    6.6275  -14.3901   23.6989 C   0  0  0  0  0  0  0  0  0  0  0  0
    6.8038  -13.7528   25.0334 C   0  0  0  0  0  0  0  0  0  0  0  0
    7.9521  -13.0068   25.3082 C   0  0  0  0  0  0  0  0  0  0  0  0
    8.0946  -12.4229   26.5423 C   0  0  0  0  0  0  0  0  0  0  0  0
    7.1171  -12.5544   27.5297 C   0  0  0  0  0  0  0  0  0  0  0  0
    5.9779  -13.2857   27.2778 C   0  0  0  0  0  0  0  0  0  0  0  0
    5.8535  -13.8727   26.0150 C   0  0  0  0  0  0  0  0  0  0  0  0
    8.1915  -16.1535   23.0909 C   0  0  0  0  0  0  0  0  0  0  0  0
    8.3023  -16.0800   21.8447 O   0  0  0  0  0  0  0  0  0  0  0  0
    9.3674  -16.5177   23.8435 N   0  0  0  0  0  0  0  0  0  0  0  0
   10.5672  -16.9201   23.1631 C   0  0  1  0  0  0  0  0  0  0  0  0
   11.0382  -15.7343   22.3079 C   0  0  0  0  0  0  0  0  0  0  0  0
   11.6932  -16.2820   21.1023 C   0  0  0  0  0  0  0  0  0  0  0  0
   11.8101  -17.5005   20.8211 O   0  0  0  0  0  0  0  0  0  0  0  0
   11.6574  -17.2911   24.0646 C   0  0  0  0  0  0  0  0  0  0  0  0
   12.6484  -16.5610   24.3287 O   0  0  0  0  0  0  0  0  0  0  0  0
   12.2523  -15.3999   20.1564 O   0  0  0  0  0  0  0  0  0  0  0  0
   11.6291  -18.5602   24.7026 N   0  0  0  0  0  0  0  0  0  0  0  0
   11.8436  -18.7445   26.1236 C   0  0  1  0  0  0  0  0  0  0  0  0
   10.6250  -18.0835   26.7852 C   0  0  0  0  0  0  0  0  0  0  0  0
   10.6483  -18.2404   28.2511 C   0  0  0  0  0  0  0  0  0  0  0  0
   11.5227  -17.6103   28.9256 O   0  0  0  0  0  0  0  0  0  0  0  0
   11.7456  -20.1724   26.4386 C   0  0  0  0  0  0  0  0  0  0  0  0
   11.1513  -20.9430   25.6581 O   0  0  0  0  0  0  0  0  0  0  0  0
    9.7600  -19.0389   28.9321 O   0  0  0  0  0  0  0  0  0  0  0  0
   12.2960  -20.7371   27.5973 O   0  0  0  0  0  0  0  0  0  0  0  0
  2  1  1  1
  3  4  1  0
  3  2  1  0
  4  9  2  0
  5  6  2  0
  5  4  1  0
  6  7  1  0
  7  8  2  0
  9  8  1  0
 10  2  1  0
 10 12  1  0
 11 10  2  0
 13 12  1  0
 13 14  1  1
 14 15  1  0
 15 16  2  0
 17 13  1  0
 18 17  2  0
 19 15  1  0
 20 17  1  0
 21 20  1  0
 21 25  1  0
 21 22  1  1
 23 24  2  0
 23 22  1  0
 25 28  1  0
 26 25  2  0
 27 23  1  0
M  END
$$$$
