FDD.pdb
     RDKit          3D

 28 28  0  0  1  0  0  0  0  0999 V2000
    6.3671  -17.4247   25.8365 N   0  0  0  0  0  0  0  0  0  0  0  0
    7.0753  -16.3573   25.1539 C   0  0  1  0  0  0  0  0  0  0  0  0
    7.9150  -15.6761   26.2211 C   0  0  0  0  0  0  0  0  0  0  0  0
    7.5194  -14.2428   26.3054 C   0  0  0  0  0  0  0  0  0  0  0  0
    6.2259  -13.8942   26.7005 C   0  0  0  0  0  0  0  0  0  0  0  0
    5.8813  -12.5678   26.7769 C   0  0  0  0  0  0  0  0  0  0  0  0
    6.7942  -11.5573   26.4717 C   0  0  0  0  0  0  0  0  0  0  0  0
    8.0742  -11.8808   26.0804 C   0  0  0  0  0  0  0  0  0  0  0  0
    8.4038  -13.2376   26.0083 C   0  0  0  0  0  0  0  0  0  0  0  0
    8.0371  -16.9777   24.1677 C   0  0  0  0  0  0  0  0  0  0  0  0
    8.4673  -18.1500   24.2735 O   0  0  0  0  0  0  0  0  0  0  0  0
    8.4937  -16.2001   23.0414 N   0  0  0  0  0  0  0  0  0  0  0  0
    9.1737  -16.8382   21.9484 C   0  0  1  0  0  0  0  0  0  0  0  0
    9.0419  -15.9251   20.7203 C   0  0  0  0  0  0  0  0  0  0  0  0
    9.7484  -16.5766   19.5983 C   0  0  0  0  0  0  0  0  0  0  0  0
    9.8840  -17.8148   19.4373 O   0  0  0  0  0  0  0  0  0  0  0  0
   10.5974  -17.0653   22.1946 C   0  0  0  0  0  0  0  0  0  0  0  0
   11.4325  -17.3984   21.3133 O   0  0  0  0  0  0  0  0  0  0  0  0
   10.3401  -15.7811   18.5969 O   0  0  0  0  0  0  0  0  0  0  0  0
   11.1075  -16.9102   23.5115 N   0  0  0  0  0  0  0  0  0  0  0  0
   12.5097  -17.0535   23.8466 C   0  0  1  0  0  0  0  0  0  0  0  0
   13.1735  -15.7939   23.2703 C   0  0  0  0  0  0  0  0  0  0  0  0
   14.6181  -15.9908   23.0504 C   0  0  0  0  0  0  0  0  0  0  0  0
   15.1172  -17.1471   23.2248 O   0  0  0  0  0  0  0  0  0  0  0  0
   12.6637  -16.9584   25.3009 C   0  0  0  0  0  0  0  0  0  0  0  0
   13.7790  -17.1564   25.8234 O   0  0  0  0  0  0  0  0  0  0  0  0
   15.4599  -14.9769   22.6581 O   0  0  0  0  0  0  0  0  0  0  0  0
   11.6014  -16.6494   26.1616 O   0  0  0  0  0  0  0  0  0  0  0  0
  2  1  1  1
  3  4  1  0
  3  2  1  0
  4  9  2  0
  5  6  2  0
  5  4  1  0
  6  7  1  0
  7  8  2  0
  9  8  1  0
 10  2  1  0
 10 12  1  0
 11 10  2  0
 13 12  1  0
 13 14  1  6
 14 15  1  0
 15 16  2  0
 17 13  1  0
 18 17  2  0
 19 15  1  0
 20 17  1  0
 21 20  1  0
 21 25  1  0
 21 22  1  6
 23 24  2  0
 23 22  1  0
 25 28  1  0
 26 25  2  0
 27 23  1  0
M  END
$$$$
