FDD.pdb
     RDKit          3D

 28 28  0  0  1  0  0  0  0  0999 V2000
    5.7660  -17.8135   23.5269 N   0  0  0  0  0  0  0  0  0  0  0  0
    6.5532  -16.6462   23.8800 C   0  0  1  0  0  0  0  0  0  0  0  0
    6.0919  -16.2478   25.2715 C   0  0  0  0  0  0  0  0  0  0  0  0
    6.6585  -14.9113   25.6042 C   0  0  0  0  0  0  0  0  0  0  0  0
    7.1501  -14.6574   26.8866 C   0  0  0  0  0  0  0  0  0  0  0  0
    7.6730  -13.4210   27.1731 C   0  0  0  0  0  0  0  0  0  0  0  0
    7.7280  -12.4107   26.2118 C   0  0  0  0  0  0  0  0  0  0  0  0
    7.2486  -12.6418   24.9418 C   0  0  0  0  0  0  0  0  0  0  0  0
    6.7195  -13.9074   24.6717 C   0  0  0  0  0  0  0  0  0  0  0  0
    7.9999  -17.0652   23.9998 C   0  0  0  0  0  0  0  0  0  0  0  0
    8.3676  -18.0949   24.6121 O   0  0  0  0  0  0  0  0  0  0  0  0
    9.0233  -16.2549   23.3852 N   0  0  0  0  0  0  0  0  0  0  0  0
   10.4071  -16.6223   23.5044 C   0  0  1  0  0  0  0  0  0  0  0  0
   11.2210  -15.6681   22.6177 C   0  0  0  0  0  0  0  0  0  0  0  0
   10.9732  -16.0417   21.2100 C   0  0  0  0  0  0  0  0  0  0  0  0
   10.3664  -15.3420   20.3617 O   0  0  0  0  0  0  0  0  0  0  0  0
   10.9248  -16.5266   24.8689 C   0  0  0  0  0  0  0  0  0  0  0  0
   10.6796  -15.5814   25.6635 O   0  0  0  0  0  0  0  0  0  0  0  0
   11.4374  -17.2828   20.7307 O   0  0  0  0  0  0  0  0  0  0  0  0
   11.7700  -17.5555   25.3644 N   0  0  0  0  0  0  0  0  0  0  0  0
   12.0754  -17.7304   26.7698 C   0  0  1  0  0  0  0  0  0  0  0  0
   10.7372  -18.1343   27.4066 C   0  0  0  0  0  0  0  0  0  0  0  0
   10.8801  -18.4088   28.8483 C   0  0  0  0  0  0  0  0  0  0  0  0
   12.0365  -18.3592   29.3745 O   0  0  0  0  0  0  0  0  0  0  0  0
   12.9590  -18.8893   26.9243 C   0  0  0  0  0  0  0  0  0  0  0  0
   13.0069  -19.7594   26.0317 O   0  0  0  0  0  0  0  0  0  0  0  0
    9.8139  -18.7145   29.6607 O   0  0  0  0  0  0  0  0  0  0  0  0
   13.7754  -19.0814   28.0474 O   0  0  0  0  0  0  0  0  0  0  0  0
  2  1  1  1
  3  4  1  0
  3  2  1  0
  4  9  2  0
  5  6  2  0
  5  4  1  0
  6  7  1  0
  7  8  2  0
  9  8  1  0
 10  2  1  0
 10 12  1  0
 11 10  2  0
 13 12  1  0
 13 14  1  6
 14 15  1  0
 15 16  2  0
 17 13  1  0
 18 17  2  0
 19 15  1  0
 20 17  1  0
 21 20  1  0
 21 25  1  0
 21 22  1  1
 23 24  2  0
 23 22  1  0
 25 28  1  0
 26 25  2  0
 27 23  1  0
M  END
$$$$
