FDD.pdb
     RDKit          3D

 28 28  0  0  1  0  0  0  0  0999 V2000
   10.0189  -16.3616   19.8460 N   0  0  0  0  0  0  0  0  0  0  0  0
   10.5246  -15.6293   20.9928 C   0  0  1  0  0  0  0  0  0  0  0  0
    9.2956  -15.1464   21.7438 C   0  0  0  0  0  0  0  0  0  0  0  0
    8.5781  -14.1471   20.9045 C   0  0  0  0  0  0  0  0  0  0  0  0
    9.2537  -13.4733   19.8846 C   0  0  0  0  0  0  0  0  0  0  0  0
    8.5743  -12.5593   19.1184 C   0  0  0  0  0  0  0  0  0  0  0  0
    7.2221  -12.2884   19.3322 C   0  0  0  0  0  0  0  0  0  0  0  0
    6.5386  -12.9424   20.3327 C   0  0  0  0  0  0  0  0  0  0  0  0
    7.2498  -13.8685   21.1018 C   0  0  0  0  0  0  0  0  0  0  0  0
   11.2409  -16.6013   21.9010 C   0  0  0  0  0  0  0  0  0  0  0  0
   11.5919  -16.3170   23.0700 O   0  0  0  0  0  0  0  0  0  0  0  0
   11.5437  -17.9270   21.4187 N   0  0  0  0  0  0  0  0  0  0  0  0
   12.3429  -18.8208   22.2103 C   0  0  1  0  0  0  0  0  0  0  0  0
   12.0233  -20.2543   21.7606 C   0  0  0  0  0  0  0  0  0  0  0  0
   12.7542  -21.1783   22.6520 C   0  0  0  0  0  0  0  0  0  0  0  0
   12.7838  -21.1170   23.9061 O   0  0  0  0  0  0  0  0  0  0  0  0
   13.7824  -18.6089   22.0624 C   0  0  0  0  0  0  0  0  0  0  0  0
   14.3750  -18.4584   20.9618 O   0  0  0  0  0  0  0  0  0  0  0  0
   13.4992  -22.2358   22.0932 O   0  0  0  0  0  0  0  0  0  0  0  0
   14.6008  -18.5672   23.2230 N   0  0  0  0  0  0  0  0  0  0  0  0
   15.9985  -18.1867   23.2012 C   0  0  1  0  0  0  0  0  0  0  0  0
   15.9797  -16.6513   23.2422 C   0  0  0  0  0  0  0  0  0  0  0  0
   16.8163  -16.0671   22.1778 C   0  0  0  0  0  0  0  0  0  0  0  0
   17.4072  -16.8423   21.3614 O   0  0  0  0  0  0  0  0  0  0  0  0
   16.6277  -18.6137   24.4540 C   0  0  0  0  0  0  0  0  0  0  0  0
   17.8609  -18.4982   24.6026 O   0  0  0  0  0  0  0  0  0  0  0  0
   16.9876  -14.7120   22.0202 O   0  0  0  0  0  0  0  0  0  0  0  0
   15.9042  -19.1589   25.5236 O   0  0  0  0  0  0  0  0  0  0  0  0
  2  1  1  6
  3  4  1  0
  3  2  1  0
  4  9  2  0
  5  6  2  0
  5  4  1  0
  6  7  1  0
  7  8  2  0
  9  8  1  0
 10  2  1  0
 10 12  1  0
 11 10  2  0
 13 12  1  0
 13 14  1  6
 14 15  1  0
 15 16  2  0
 17 13  1  0
 18 17  2  0
 19 15  1  0
 20 17  1  0
 21 20  1  0
 21 25  1  0
 21 22  1  1
 23 24  2  0
 23 22  1  0
 25 28  1  0
 26 25  2  0
 27 23  1  0
M  END
$$$$
