DIY.pdb
     RDKit          3D

 29 29  0  0  1  0  0  0  0  0999 V2000
   72.7030  -86.0533   46.8678 N   0  0  0  0  0  0  0  0  0  0  0  0
   71.8456  -86.8333   47.7814 C   0  0  1  0  0  0  0  0  0  0  0  0
   72.2247  -88.2598   47.5719 C   0  0  0  0  0  0  0  0  0  0  0  0
   72.8836  -88.9212   48.7082 C   0  0  0  0  0  0  0  0  0  0  0  0
   72.5444  -88.8260   49.9139 O   0  0  0  0  0  0  0  0  0  0  0  0
   72.1700  -86.3451   49.1805 C   0  0  0  0  0  0  0  0  0  0  0  0
   71.5572  -86.8396   50.1627 O   0  0  0  0  0  0  0  0  0  0  0  0
   73.9936  -89.7275   48.3752 O   0  0  0  0  0  0  0  0  0  0  0  0
   73.5628  -83.5046   53.5219 C   0  0  0  0  0  0  0  0  0  0  0  0
   73.9593  -84.6489   52.5661 C   0  0  0  0  0  0  0  0  0  0  0  0
   74.2068  -84.1415   51.1974 C   0  0  2  0  0  0  0  0  0  0  0  0
   74.9741  -82.8386   51.1858 C   0  0  0  0  0  0  0  0  0  0  0  0
   73.0377  -84.2174   50.3054 C   0  0  2  0  0  0  0  0  0  0  0  0
   73.1392  -85.3545   49.3935 N   0  0  0  0  0  0  0  0  0  0  0  0
   72.6338  -82.9953   49.6053 C   0  0  0  0  0  0  0  0  0  0  0  0
   73.2863  -81.8949   49.8058 O   0  0  0  0  0  0  0  0  0  0  0  0
   75.1972  -82.7437   41.7089 O   0  0  0  0  0  0  0  0  0  0  0  0
   74.7384  -82.7842   43.0174 C   0  0  0  0  0  0  0  0  0  0  0  0
   73.8462  -81.8489   43.4938 C   0  0  0  0  0  0  0  0  0  0  0  0
   73.3899  -81.8921   44.8006 C   0  0  0  0  0  0  0  0  0  0  0  0
   73.7978  -82.8626   45.6914 C   0  0  0  0  0  0  0  0  0  0  0  0
   73.3179  -82.9059   47.0888 C   0  0  0  0  0  0  0  0  0  0  0  0
   71.8299  -82.6997   47.2344 C   0  0  2  0  0  0  0  0  0  0  0  0
   71.5868  -82.8322   48.6916 N   0  0  0  0  0  0  0  0  0  0  0  0
   71.1349  -83.7785   46.5027 C   0  0  0  0  0  0  0  0  0  0  0  0
   70.9160  -83.6436   45.1180 O   0  0  0  0  0  0  0  0  0  0  0  0
   74.7026  -83.8080   45.2011 C   0  0  0  0  0  0  0  0  0  0  0  0
   75.1572  -83.7660   43.9003 C   0  0  0  0  0  0  0  0  0  0  0  0
   70.7141  -84.8248   47.0157 O   0  0  0  0  0  0  0  0  0  0  0  0
  2  1  1  6
  2  3  1  0
  3  4  1  0
  4  8  1  0
  5  4  2  0
  6  2  1  0
  7  6  2  0
 10  9  1  0
 11 12  1  1
 11 10  1  0
 13 11  1  0
 13 14  1  6
 14  6  1  0
 15 24  1  0
 15 13  1  0
 16 15  2  0
 18 28  2  0
 18 17  1  0
 19 18  1  0
 20 21  1  0
 20 19  2  0
 21 27  2  0
 22 21  1  0
 23 22  1  1
 23 24  1  0
 25 23  1  0
 25 26  1  0
 27 28  1  0
 29 25  2  0
M  END
$$$$
