DIY.pdb
     RDKit          3D

 29 29  0  0  1  0  0  0  0  0999 V2000
   11.0710  -16.8612   17.3623 N   0  0  0  0  0  0  0  0  0  0  0  0
   10.7933  -17.5936   18.6132 C   0  0  1  0  0  0  0  0  0  0  0  0
   11.9653  -18.4906   18.8246 C   0  0  0  0  0  0  0  0  0  0  0  0
   11.9649  -19.7391   18.0477 C   0  0  0  0  0  0  0  0  0  0  0  0
   11.1743  -20.0263   17.1149 O   0  0  0  0  0  0  0  0  0  0  0  0
   10.6651  -16.5398   19.6967 C   0  0  0  0  0  0  0  0  0  0  0  0
   11.7071  -16.0559   20.2113 O   0  0  0  0  0  0  0  0  0  0  0  0
   12.9569  -20.6757   18.4116 O   0  0  0  0  0  0  0  0  0  0  0  0
    6.7727  -12.7437   19.2330 C   0  0  0  0  0  0  0  0  0  0  0  0
    8.0822  -13.4909   19.5606 C   0  0  0  0  0  0  0  0  0  0  0  0
    7.9483  -14.2863   20.8022 C   0  0  2  0  0  0  0  0  0  0  0  0
    7.3190  -13.5046   21.9334 C   0  0  0  0  0  0  0  0  0  0  0  0
    9.1416  -15.0788   21.1424 C   0  0  2  0  0  0  0  0  0  0  0  0
    9.4067  -16.0994   20.1309 N   0  0  0  0  0  0  0  0  0  0  0  0
    9.2343  -15.6234   22.4995 C   0  0  0  0  0  0  0  0  0  0  0  0
    8.5696  -16.6905   22.8098 O   0  0  0  0  0  0  0  0  0  0  0  0
   10.4784  -16.1251   31.3569 O   0  0  0  0  0  0  0  0  0  0  0  0
   10.4826  -15.7799   30.0134 C   0  0  0  0  0  0  0  0  0  0  0  0
   10.8945  -16.6694   29.0456 C   0  0  0  0  0  0  0  0  0  0  0  0
   10.8974  -16.3217   27.7051 C   0  0  0  0  0  0  0  0  0  0  0  0
   10.4930  -15.0787   27.2657 C   0  0  0  0  0  0  0  0  0  0  0  0
   10.5026  -14.7031   25.8362 C   0  0  0  0  0  0  0  0  0  0  0  0
    9.9242  -15.7542   24.9205 C   0  0  2  0  0  0  0  0  0  0  0  0
    9.9852  -15.1348   23.5741 N   0  0  0  0  0  0  0  0  0  0  0  0
    8.5185  -15.9898   25.3087 C   0  0  0  0  0  0  0  0  0  0  0  0
    7.5337  -15.0540   24.9377 O   0  0  0  0  0  0  0  0  0  0  0  0
   10.0764  -14.1818   28.2530 C   0  0  0  0  0  0  0  0  0  0  0  0
   10.0729  -14.5270   29.5877 C   0  0  0  0  0  0  0  0  0  0  0  0
    8.1164  -16.9692   25.9523 O   0  0  0  0  0  0  0  0  0  0  0  0
  2  1  1  6
  2  3  1  0
  3  4  1  0
  4  8  1  0
  5  4  2  0
  6  2  1  0
  7  6  2  0
 10  9  1  0
 11 12  1  1
 11 10  1  0
 13 11  1  0
 13 14  1  6
 14  6  1  0
 15 24  1  0
 15 13  1  0
 16 15  2  0
 18 28  2  0
 18 17  1  0
 19 18  1  0
 20 21  1  0
 20 19  2  0
 21 27  2  0
 22 21  1  0
 23 22  1  1
 23 24  1  0
 25 23  1  0
 25 26  1  0
 27 28  1  0
 29 25  2  0
M  END
$$$$
