DIY.pdb
     RDKit          3D

 29 29  0  0  1  0  0  0  0  0999 V2000
   10.3553  -17.4028   16.6634 N   0  0  0  0  0  0  0  0  0  0  0  0
    9.6359  -17.8046   17.8879 C   0  0  1  0  0  0  0  0  0  0  0  0
   10.1335  -19.1704   18.2189 C   0  0  0  0  0  0  0  0  0  0  0  0
    9.4841  -20.2795   17.5043 C   0  0  0  0  0  0  0  0  0  0  0  0
    8.6617  -20.1676   16.5616 O   0  0  0  0  0  0  0  0  0  0  0  0
   10.0027  -16.7804   18.9450 C   0  0  0  0  0  0  0  0  0  0  0  0
   11.1792  -16.3345   18.9882 O   0  0  0  0  0  0  0  0  0  0  0  0
    9.8417  -21.5722   17.9455 O   0  0  0  0  0  0  0  0  0  0  0  0
    6.8875  -12.6157   19.9532 C   0  0  0  0  0  0  0  0  0  0  0  0
    8.0793  -13.5884   19.8351 C   0  0  0  0  0  0  0  0  0  0  0  0
    8.2451  -14.3844   21.0724 C   0  0  2  0  0  0  0  0  0  0  0  0
    8.2428  -13.5322   22.3216 C   0  0  0  0  0  0  0  0  0  0  0  0
    9.2917  -15.4167   20.9897 C   0  0  2  0  0  0  0  0  0  0  0  0
    9.0529  -16.3257   19.8708 N   0  0  0  0  0  0  0  0  0  0  0  0
    9.6308  -16.1436   22.2159 C   0  0  0  0  0  0  0  0  0  0  0  0
    8.7143  -16.8118   22.8405 O   0  0  0  0  0  0  0  0  0  0  0  0
   10.3837  -14.3716   30.4583 O   0  0  0  0  0  0  0  0  0  0  0  0
   10.4300  -14.5040   29.0783 C   0  0  0  0  0  0  0  0  0  0  0  0
    9.4332  -13.9952   28.2751 C   0  0  0  0  0  0  0  0  0  0  0  0
    9.4824  -14.1291   26.8975 C   0  0  0  0  0  0  0  0  0  0  0  0
   10.5201  -14.7725   26.2566 C   0  0  0  0  0  0  0  0  0  0  0  0
   10.5706  -14.9231   24.7871 C   0  0  0  0  0  0  0  0  0  0  0  0
   11.0050  -16.2922   24.3240 C   0  0  2  0  0  0  0  0  0  0  0  0
   10.8760  -16.2330   22.8476 N   0  0  0  0  0  0  0  0  0  0  0  0
   10.0678  -17.2916   24.8767 C   0  0  0  0  0  0  0  0  0  0  0  0
   10.5784  -18.4206   25.5460 O   0  0  0  0  0  0  0  0  0  0  0  0
   11.5276  -15.2859   27.0778 C   0  0  0  0  0  0  0  0  0  0  0  0
   11.4797  -15.1530   28.4491 C   0  0  0  0  0  0  0  0  0  0  0  0
    8.8331  -17.2221   24.8011 O   0  0  0  0  0  0  0  0  0  0  0  0
  2  1  1  6
  2  3  1  0
  3  4  1  0
  4  8  1  0
  5  4  2  0
  6  2  1  0
  7  6  2  0
 10  9  1  0
 11 12  1  1
 11 10  1  0
 13 11  1  0
 13 14  1  6
 14  6  1  0
 15 24  1  0
 15 13  1  0
 16 15  2  0
 18 28  2  0
 18 17  1  0
 19 18  1  0
 20 21  1  0
 20 19  2  0
 21 27  2  0
 22 21  1  0
 23 22  1  1
 23 24  1  0
 25 23  1  0
 25 26  1  0
 27 28  1  0
 29 25  2  0
M  END
$$$$
