DIY.pdb
     RDKit          3D

 29 29  0  0  1  0  0  0  0  0999 V2000
   11.2417  -17.8730   17.8194 N   0  0  0  0  0  0  0  0  0  0  0  0
   10.1793  -18.1287   18.8115 C   0  0  1  0  0  0  0  0  0  0  0  0
   10.5075  -19.4479   19.4237 C   0  0  0  0  0  0  0  0  0  0  0  0
   10.4214  -20.6098   18.5265 C   0  0  0  0  0  0  0  0  0  0  0  0
   10.4209  -21.8151   18.8797 O   0  0  0  0  0  0  0  0  0  0  0  0
   10.2550  -16.9896   19.8103 C   0  0  0  0  0  0  0  0  0  0  0  0
   11.3806  -16.6103   20.2274 O   0  0  0  0  0  0  0  0  0  0  0  0
   10.3324  -20.3038   17.1509 O   0  0  0  0  0  0  0  0  0  0  0  0
    7.0907  -12.7301   19.2375 C   0  0  0  0  0  0  0  0  0  0  0  0
    8.2398  -13.6919   19.6046 C   0  0  0  0  0  0  0  0  0  0  0  0
    8.0339  -14.2845   20.9456 C   0  0  2  0  0  0  0  0  0  0  0  0
    7.7411  -13.2467   22.0057 C   0  0  0  0  0  0  0  0  0  0  0  0
    9.0148  -15.3227   21.3033 C   0  0  2  0  0  0  0  0  0  0  0  0
    9.0930  -16.3560   20.2732 N   0  0  0  0  0  0  0  0  0  0  0  0
    8.9356  -15.9016   22.6470 C   0  0  0  0  0  0  0  0  0  0  0  0
    8.0242  -16.7817   22.9143 O   0  0  0  0  0  0  0  0  0  0  0  0
    5.9251  -10.6472   27.5394 O   0  0  0  0  0  0  0  0  0  0  0  0
    6.3713  -11.8050   26.9193 C   0  0  0  0  0  0  0  0  0  0  0  0
    7.4711  -11.7962   26.0898 C   0  0  0  0  0  0  0  0  0  0  0  0
    7.9142  -12.9539   25.4722 C   0  0  0  0  0  0  0  0  0  0  0  0
    7.2872  -14.1693   25.6492 C   0  0  0  0  0  0  0  0  0  0  0  0
    7.7539  -15.4045   24.9848 C   0  0  0  0  0  0  0  0  0  0  0  0
    9.2325  -15.6643   25.1390 C   0  0  2  0  0  0  0  0  0  0  0  0
    9.7527  -15.6321   23.7504 N   0  0  0  0  0  0  0  0  0  0  0  0
    9.4124  -17.0113   25.7183 C   0  0  0  0  0  0  0  0  0  0  0  0
    9.5098  -18.1242   24.8608 O   0  0  0  0  0  0  0  0  0  0  0  0
    6.1724  -14.1706   26.4919 C   0  0  0  0  0  0  0  0  0  0  0  0
    5.7308  -13.0188   27.1073 C   0  0  0  0  0  0  0  0  0  0  0  0
    9.4876  -17.2564   26.9305 O   0  0  0  0  0  0  0  0  0  0  0  0
  2  1  1  6
  2  3  1  0
  3  4  1  0
  4  8  1  0
  5  4  2  0
  6  2  1  0
  7  6  2  0
 10  9  1  0
 11 12  1  1
 11 10  1  0
 13 11  1  0
 13 14  1  6
 14  6  1  0
 15 24  1  0
 15 13  1  0
 16 15  2  0
 18 28  2  0
 18 17  1  0
 19 18  1  0
 20 21  1  0
 20 19  2  0
 21 27  2  0
 22 21  1  0
 23 22  1  6
 23 24  1  0
 25 23  1  0
 25 26  1  0
 27 28  1  0
 29 25  2  0
M  END
$$$$
