DIY.pdb
     RDKit          3D

 29 29  0  0  1  0  0  0  0  0999 V2000
   12.8327  -17.2808   19.3943 N   0  0  0  0  0  0  0  0  0  0  0  0
   11.3805  -17.5269   19.4885 C   0  0  1  0  0  0  0  0  0  0  0  0
   11.2374  -18.9667   19.8476 C   0  0  0  0  0  0  0  0  0  0  0  0
   11.8231  -19.9251   18.8985 C   0  0  0  0  0  0  0  0  0  0  0  0
   12.5844  -20.8802   19.1910 O   0  0  0  0  0  0  0  0  0  0  0  0
   10.8681  -16.6027   20.5768 C   0  0  0  0  0  0  0  0  0  0  0  0
   11.5803  -16.3951   21.5939 O   0  0  0  0  0  0  0  0  0  0  0  0
   11.4759  -19.7216   17.5451 O   0  0  0  0  0  0  0  0  0  0  0  0
    7.3678  -12.5672   19.2857 C   0  0  0  0  0  0  0  0  0  0  0  0
    8.4546  -13.5022   19.8557 C   0  0  0  0  0  0  0  0  0  0  0  0
    7.9253  -14.3214   20.9696 C   0  0  2  0  0  0  0  0  0  0  0  0
    7.1380  -13.5079   21.9721 C   0  0  0  0  0  0  0  0  0  0  0  0
    8.8937  -15.2810   21.5258 C   0  0  2  0  0  0  0  0  0  0  0  0
    9.6171  -15.9793   20.4656 N   0  0  0  0  0  0  0  0  0  0  0  0
    8.4208  -16.2056   22.5594 C   0  0  0  0  0  0  0  0  0  0  0  0
    8.8443  -17.4292   22.5688 O   0  0  0  0  0  0  0  0  0  0  0  0
   11.2401  -15.1610   30.4882 O   0  0  0  0  0  0  0  0  0  0  0  0
   10.6648  -15.1258   29.2264 C   0  0  0  0  0  0  0  0  0  0  0  0
   10.7696  -16.1919   28.3604 C   0  0  0  0  0  0  0  0  0  0  0  0
   10.1940  -16.1537   27.1013 C   0  0  0  0  0  0  0  0  0  0  0  0
    9.4906  -15.0584   26.6461 C   0  0  0  0  0  0  0  0  0  0  0  0
    8.8821  -15.0127   25.2998 C   0  0  0  0  0  0  0  0  0  0  0  0
    7.9090  -16.1335   25.0266 C   0  0  2  0  0  0  0  0  0  0  0  0
    7.5290  -15.9448   23.6054 N   0  0  0  0  0  0  0  0  0  0  0  0
    6.7295  -15.9509   25.8971 C   0  0  0  0  0  0  0  0  0  0  0  0
    6.4356  -16.9217   26.8741 O   0  0  0  0  0  0  0  0  0  0  0  0
    9.3883  -13.9810   27.5300 C   0  0  0  0  0  0  0  0  0  0  0  0
    9.9607  -14.0181   28.7836 C   0  0  0  0  0  0  0  0  0  0  0  0
    5.9511  -14.9885   25.8419 O   0  0  0  0  0  0  0  0  0  0  0  0
  2  1  1  1
  2  3  1  0
  3  4  1  0
  4  8  1  0
  5  4  2  0
  6  2  1  0
  7  6  2  0
 10  9  1  0
 11 12  1  1
 11 10  1  0
 13 11  1  0
 13 14  1  6
 14  6  1  0
 15 24  1  0
 15 13  1  0
 16 15  2  0
 18 28  2  0
 18 17  1  0
 19 18  1  0
 20 21  1  0
 20 19  2  0
 21 27  2  0
 22 21  1  0
 23 22  1  1
 23 24  1  0
 25 23  1  0
 25 26  1  0
 27 28  1  0
 29 25  2  0
M  END
$$$$
