DIY.pdb
     RDKit          3D

 29 29  0  0  1  0  0  0  0  0999 V2000
    9.6618  -18.1552   18.1838 N   0  0  0  0  0  0  0  0  0  0  0  0
   11.0065  -17.7352   18.6239 C   0  0  1  0  0  0  0  0  0  0  0  0
   11.7229  -17.3130   17.3865 C   0  0  0  0  0  0  0  0  0  0  0  0
   12.1856  -18.4005   16.5114 C   0  0  0  0  0  0  0  0  0  0  0  0
   11.9788  -19.6268   16.6877 O   0  0  0  0  0  0  0  0  0  0  0  0
   10.7916  -16.5869   19.5914 C   0  0  0  0  0  0  0  0  0  0  0  0
   11.7705  -15.8662   19.9187 O   0  0  0  0  0  0  0  0  0  0  0  0
   12.9259  -17.9909   15.3811 O   0  0  0  0  0  0  0  0  0  0  0  0
    6.6669  -13.2258   19.0693 C   0  0  0  0  0  0  0  0  0  0  0  0
    8.0200  -13.8757   19.4260 C   0  0  0  0  0  0  0  0  0  0  0  0
    7.9496  -14.5788   20.7270 C   0  0  2  0  0  0  0  0  0  0  0  0
    7.3032  -13.7439   21.8095 C   0  0  0  0  0  0  0  0  0  0  0  0
    9.1875  -15.2836   21.0994 C   0  0  2  0  0  0  0  0  0  0  0  0
    9.5226  -16.3186   20.1240 N   0  0  0  0  0  0  0  0  0  0  0  0
    9.3044  -15.7762   22.4744 C   0  0  0  0  0  0  0  0  0  0  0  0
    8.7038  -16.8709   22.8175 O   0  0  0  0  0  0  0  0  0  0  0  0
   10.7548  -15.9900   31.3215 O   0  0  0  0  0  0  0  0  0  0  0  0
   10.6462  -15.6589   29.9788 C   0  0  0  0  0  0  0  0  0  0  0  0
   10.9413  -16.5706   28.9892 C   0  0  0  0  0  0  0  0  0  0  0  0
   10.8317  -16.2370   27.6495 C   0  0  0  0  0  0  0  0  0  0  0  0
   10.4259  -14.9866   27.2327 C   0  0  0  0  0  0  0  0  0  0  0  0
   10.3158  -14.6262   25.8034 C   0  0  0  0  0  0  0  0  0  0  0  0
    9.9949  -15.7908   24.8988 C   0  0  2  0  0  0  0  0  0  0  0  0
   10.0173  -15.2073   23.5354 N   0  0  0  0  0  0  0  0  0  0  0  0
    8.6371  -16.2741   25.2229 C   0  0  0  0  0  0  0  0  0  0  0  0
    7.5233  -15.4802   24.8871 O   0  0  0  0  0  0  0  0  0  0  0  0
   10.1282  -14.0672   28.2421 C   0  0  0  0  0  0  0  0  0  0  0  0
   10.2367  -14.3984   29.5759 C   0  0  0  0  0  0  0  0  0  0  0  0
    8.3832  -17.3504   25.7817 O   0  0  0  0  0  0  0  0  0  0  0  0
  2  1  1  6
  2  3  1  0
  3  4  1  0
  4  8  1  0
  5  4  2  0
  6  2  1  0
  7  6  2  0
 10  9  1  0
 11 12  1  1
 11 10  1  0
 13 11  1  0
 13 14  1  6
 14  6  1  0
 15 24  1  0
 15 13  1  0
 16 15  2  0
 18 28  2  0
 18 17  1  0
 19 18  1  0
 20 21  1  0
 20 19  2  0
 21 27  2  0
 22 21  1  0
 23 22  1  1
 23 24  1  0
 25 23  1  0
 25 26  1  0
 27 28  1  0
 29 25  2  0
M  END
$$$$
