DIY.pdb
     RDKit          3D

 29 29  0  0  1  0  0  0  0  0999 V2000
    7.6814  -15.5684   20.2166 N   0  0  0  0  0  0  0  0  0  0  0  0
    8.2537  -16.5281   21.1809 C   0  0  1  0  0  0  0  0  0  0  0  0
    9.1426  -17.4204   20.3833 C   0  0  0  0  0  0  0  0  0  0  0  0
    8.4715  -18.2694   19.3876 C   0  0  0  0  0  0  0  0  0  0  0  0
    7.3108  -18.1011   18.9381 O   0  0  0  0  0  0  0  0  0  0  0  0
    9.0202  -15.6987   22.1935 C   0  0  0  0  0  0  0  0  0  0  0  0
   10.2297  -15.4255   21.9764 O   0  0  0  0  0  0  0  0  0  0  0  0
    9.2314  -19.3626   18.9174 O   0  0  0  0  0  0  0  0  0  0  0  0
    6.0050  -12.3232   25.3606 C   0  0  0  0  0  0  0  0  0  0  0  0
    7.1233  -12.9056   24.4714 C   0  0  0  0  0  0  0  0  0  0  0  0
    8.0361  -13.7680   25.2556 C   0  0  2  0  0  0  0  0  0  0  0  0
    8.5492  -13.0920   26.5072 C   0  0  0  0  0  0  0  0  0  0  0  0
    9.0356  -14.4830   24.4447 C   0  0  2  0  0  0  0  0  0  0  0  0
    8.4021  -15.2343   23.3633 N   0  0  0  0  0  0  0  0  0  0  0  0
   10.0367  -15.2875   25.1499 C   0  0  0  0  0  0  0  0  0  0  0  0
   10.6592  -14.7883   26.1697 O   0  0  0  0  0  0  0  0  0  0  0  0
   10.9818  -14.1334   31.3567 O   0  0  0  0  0  0  0  0  0  0  0  0
   10.8809  -15.0060   30.2831 C   0  0  0  0  0  0  0  0  0  0  0  0
   10.9708  -14.5577   28.9837 C   0  0  0  0  0  0  0  0  0  0  0  0
   10.8698  -15.4315   27.9140 C   0  0  0  0  0  0  0  0  0  0  0  0
   10.6751  -16.7860   28.0852 C   0  0  0  0  0  0  0  0  0  0  0  0
   10.5594  -17.7190   26.9447 C   0  0  0  0  0  0  0  0  0  0  0  0
   11.3889  -17.3299   25.7454 C   0  0  2  0  0  0  0  0  0  0  0  0
   10.4404  -16.5978   24.8711 N   0  0  0  0  0  0  0  0  0  0  0  0
   11.8495  -18.5635   25.0757 C   0  0  0  0  0  0  0  0  0  0  0  0
   12.8377  -19.3556   25.6916 O   0  0  0  0  0  0  0  0  0  0  0  0
   10.5850  -17.2333   29.4060 C   0  0  0  0  0  0  0  0  0  0  0  0
   10.6856  -16.3644   30.4715 C   0  0  0  0  0  0  0  0  0  0  0  0
   11.4299  -18.9760   23.9853 O   0  0  0  0  0  0  0  0  0  0  0  0
  2  1  1  6
  2  3  1  0
  3  4  1  0
  4  8  1  0
  5  4  2  0
  6  2  1  0
  7  6  2  0
 10  9  1  0
 11 12  1  1
 11 10  1  0
 13 11  1  0
 13 14  1  6
 14  6  1  0
 15 24  1  0
 15 13  1  0
 16 15  2  0
 18 28  2  0
 18 17  1  0
 19 18  1  0
 20 21  1  0
 20 19  2  0
 21 27  2  0
 22 21  1  0
 23 22  1  1
 23 24  1  0
 25 23  1  0
 25 26  1  0
 27 28  1  0
 29 25  2  0
M  END
$$$$
