DIY.pdb
     RDKit          3D

 29 29  0  0  1  0  0  0  0  0999 V2000
    6.5893  -17.5117   22.4174 N   0  0  0  0  0  0  0  0  0  0  0  0
    7.6218  -17.1371   21.4314 C   0  0  1  0  0  0  0  0  0  0  0  0
    6.8963  -16.9315   20.1454 C   0  0  0  0  0  0  0  0  0  0  0  0
    6.2339  -18.1194   19.5864 C   0  0  0  0  0  0  0  0  0  0  0  0
    6.7821  -19.2232   19.3439 O   0  0  0  0  0  0  0  0  0  0  0  0
    8.2554  -15.8609   21.9518 C   0  0  0  0  0  0  0  0  0  0  0  0
    9.1327  -15.2822   21.2588 O   0  0  0  0  0  0  0  0  0  0  0  0
    4.8576  -17.9679   19.3099 O   0  0  0  0  0  0  0  0  0  0  0  0
    5.2350  -12.7575   25.3535 C   0  0  0  0  0  0  0  0  0  0  0  0
    6.2269  -13.1731   24.2472 C   0  0  0  0  0  0  0  0  0  0  0  0
    7.5353  -13.5627   24.8202 C   0  0  2  0  0  0  0  0  0  0  0  0
    8.1087  -12.5085   25.7403 C   0  0  0  0  0  0  0  0  0  0  0  0
    8.4676  -14.1553   23.8469 C   0  0  2  0  0  0  0  0  0  0  0  0
    7.8786  -15.3195   23.1891 N   0  0  0  0  0  0  0  0  0  0  0  0
    9.8392  -14.4189   24.2898 C   0  0  0  0  0  0  0  0  0  0  0  0
   10.6680  -13.4344   24.4333 O   0  0  0  0  0  0  0  0  0  0  0  0
   11.7547  -16.6808   32.2821 O   0  0  0  0  0  0  0  0  0  0  0  0
   11.3372  -16.4484   30.9799 C   0  0  0  0  0  0  0  0  0  0  0  0
   11.2370  -15.1702   30.4761 C   0  0  0  0  0  0  0  0  0  0  0  0
   10.8199  -14.9416   29.1755 C   0  0  0  0  0  0  0  0  0  0  0  0
   10.4839  -15.9684   28.3184 C   0  0  0  0  0  0  0  0  0  0  0  0
   10.0312  -15.7260   26.9324 C   0  0  0  0  0  0  0  0  0  0  0  0
   11.1156  -15.8849   25.8949 C   0  0  2  0  0  0  0  0  0  0  0  0
   10.4202  -15.6519   24.6056 N   0  0  0  0  0  0  0  0  0  0  0  0
   11.6216  -17.2715   25.9564 C   0  0  0  0  0  0  0  0  0  0  0  0
   10.9641  -18.2794   25.2249 O   0  0  0  0  0  0  0  0  0  0  0  0
   10.5881  -17.2621   28.8364 C   0  0  0  0  0  0  0  0  0  0  0  0
   11.0034  -17.4908   30.1308 C   0  0  0  0  0  0  0  0  0  0  0  0
   12.6047  -17.6378   26.6156 O   0  0  0  0  0  0  0  0  0  0  0  0
  2  1  1  1
  2  3  1  0
  3  4  1  0
  4  8  1  0
  5  4  2  0
  6  2  1  0
  7  6  2  0
 10  9  1  0
 11 12  1  6
 11 10  1  0
 13 11  1  0
 13 14  1  1
 14  6  1  0
 15 24  1  0
 15 13  1  0
 16 15  2  0
 18 28  2  0
 18 17  1  0
 19 18  1  0
 20 21  1  0
 20 19  2  0
 21 27  2  0
 22 21  1  0
 23 22  1  1
 23 24  1  0
 25 23  1  0
 25 26  1  0
 27 28  1  0
 29 25  2  0
M  END
$$$$
