DIY.pdb
     RDKit          3D

 29 29  0  0  1  0  0  0  0  0999 V2000
    9.2532  -18.0270   18.8299 N   0  0  0  0  0  0  0  0  0  0  0  0
   10.6186  -17.7289   19.3044 C   0  0  1  0  0  0  0  0  0  0  0  0
   11.4201  -17.4500   18.0787 C   0  0  0  0  0  0  0  0  0  0  0  0
   11.4206  -18.5092   17.0587 C   0  0  0  0  0  0  0  0  0  0  0  0
   10.7599  -19.5765   17.1044 O   0  0  0  0  0  0  0  0  0  0  0  0
   10.4938  -16.5153   20.2058 C   0  0  0  0  0  0  0  0  0  0  0  0
   11.5283  -15.8660   20.5108 O   0  0  0  0  0  0  0  0  0  0  0  0
   12.2504  -18.2699   15.9416 O   0  0  0  0  0  0  0  0  0  0  0  0
    6.9827  -12.7794   19.3557 C   0  0  0  0  0  0  0  0  0  0  0  0
    8.2005  -13.5829   19.8574 C   0  0  0  0  0  0  0  0  0  0  0  0
    7.9642  -14.1202   21.2166 C   0  0  2  0  0  0  0  0  0  0  0  0
    7.5301  -13.0562   22.1995 C   0  0  0  0  0  0  0  0  0  0  0  0
    9.0008  -15.0554   21.6841 C   0  0  2  0  0  0  0  0  0  0  0  0
    9.2469  -16.1087   20.7018 N   0  0  0  0  0  0  0  0  0  0  0  0
    8.8690  -15.5976   23.0390 C   0  0  0  0  0  0  0  0  0  0  0  0
    7.9195  -16.4368   23.3051 O   0  0  0  0  0  0  0  0  0  0  0  0
    6.3272  -10.8609   28.0411 O   0  0  0  0  0  0  0  0  0  0  0  0
    6.7125  -12.0616   27.4631 C   0  0  0  0  0  0  0  0  0  0  0  0
    8.0409  -12.3711   27.2703 C   0  0  0  0  0  0  0  0  0  0  0  0
    8.4223  -13.5708   26.6930 C   0  0  0  0  0  0  0  0  0  0  0  0
    7.5050  -14.5148   26.2817 C   0  0  0  0  0  0  0  0  0  0  0  0
    7.9099  -15.7924   25.6584 C   0  0  0  0  0  0  0  0  0  0  0  0
    9.4007  -15.9435   25.4787 C   0  0  2  0  0  0  0  0  0  0  0  0
    9.6698  -15.3311   24.1548 N   0  0  0  0  0  0  0  0  0  0  0  0
    9.7239  -17.3847   25.4475 C   0  0  0  0  0  0  0  0  0  0  0  0
   10.2096  -17.9576   24.2561 O   0  0  0  0  0  0  0  0  0  0  0  0
    6.1595  -14.1939   26.4805 C   0  0  0  0  0  0  0  0  0  0  0  0
    5.7788  -13.0001   27.0553 C   0  0  0  0  0  0  0  0  0  0  0  0
    9.6018  -18.1585   26.4073 O   0  0  0  0  0  0  0  0  0  0  0  0
  2  1  1  6
  2  3  1  0
  3  4  1  0
  4  8  1  0
  5  4  2  0
  6  2  1  0
  7  6  2  0
 10  9  1  0
 11 12  1  1
 11 10  1  0
 13 11  1  0
 13 14  1  6
 14  6  1  0
 15 24  1  0
 15 13  1  0
 16 15  2  0
 18 28  2  0
 18 17  1  0
 19 18  1  0
 20 21  1  0
 20 19  2  0
 21 27  2  0
 22 21  1  0
 23 22  1  6
 23 24  1  0
 25 23  1  0
 25 26  1  0
 27 28  1  0
 29 25  2  0
M  END
$$$$
