DIY.pdb
     RDKit          3D

 29 29  0  0  1  0  0  0  0  0999 V2000
    8.6805  -18.9823   18.0030 N   0  0  0  0  0  0  0  0  0  0  0  0
    7.7927  -18.4649   19.0625 C   0  0  1  0  0  0  0  0  0  0  0  0
    7.5269  -19.6202   19.9664 C   0  0  0  0  0  0  0  0  0  0  0  0
    6.7478  -20.7232   19.3843 C   0  0  0  0  0  0  0  0  0  0  0  0
    6.4069  -20.8293   18.1800 O   0  0  0  0  0  0  0  0  0  0  0  0
    8.5635  -17.3542   19.7503 C   0  0  0  0  0  0  0  0  0  0  0  0
    9.8218  -17.3621   19.7107 O   0  0  0  0  0  0  0  0  0  0  0  0
    6.3663  -21.7360   20.2912 O   0  0  0  0  0  0  0  0  0  0  0  0
    6.4925  -12.3356   19.7896 C   0  0  0  0  0  0  0  0  0  0  0  0
    7.4562  -13.5406   19.7837 C   0  0  0  0  0  0  0  0  0  0  0  0
    7.7202  -14.0214   21.1588 C   0  0  2  0  0  0  0  0  0  0  0  0
    8.1402  -12.9119   22.0966 C   0  0  0  0  0  0  0  0  0  0  0  0
    8.5098  -15.2625   21.2226 C   0  0  2  0  0  0  0  0  0  0  0  0
    7.8961  -16.3231   20.4266 N   0  0  0  0  0  0  0  0  0  0  0  0
    8.9177  -15.7440   22.5450 C   0  0  0  0  0  0  0  0  0  0  0  0
    8.0413  -16.2852   23.3297 O   0  0  0  0  0  0  0  0  0  0  0  0
    6.0940  -20.6641   26.4485 O   0  0  0  0  0  0  0  0  0  0  0  0
    7.1487  -19.9901   25.8506 C   0  0  0  0  0  0  0  0  0  0  0  0
    8.4316  -20.0841   26.3436 C   0  0  0  0  0  0  0  0  0  0  0  0
    9.4825  -19.4100   25.7443 C   0  0  0  0  0  0  0  0  0  0  0  0
    9.3080  -18.6140   24.6317 C   0  0  0  0  0  0  0  0  0  0  0  0
   10.4270  -17.8877   23.9952 C   0  0  0  0  0  0  0  0  0  0  0  0
   10.5091  -16.4296   24.3759 C   0  0  2  0  0  0  0  0  0  0  0  0
   10.1933  -15.7088   23.1186 N   0  0  0  0  0  0  0  0  0  0  0  0
   11.8936  -16.1339   24.7977 C   0  0  0  0  0  0  0  0  0  0  0  0
   12.7329  -15.3943   23.9421 O   0  0  0  0  0  0  0  0  0  0  0  0
    8.0042  -18.5236   24.1372 C   0  0  0  0  0  0  0  0  0  0  0  0
    6.9574  -19.1944   24.7329 C   0  0  0  0  0  0  0  0  0  0  0  0
   12.3979  -16.4904   25.8718 O   0  0  0  0  0  0  0  0  0  0  0  0
  2  1  1  6
  2  3  1  0
  3  4  1  0
  4  8  1  0
  5  4  2  0
  6  2  1  0
  7  6  2  0
 10  9  1  0
 11 12  1  1
 11 10  1  0
 13 11  1  0
 13 14  1  1
 14  6  1  0
 15 24  1  0
 15 13  1  0
 16 15  2  0
 18 28  2  0
 18 17  1  0
 19 18  1  0
 20 21  1  0
 20 19  2  0
 21 27  2  0
 22 21  1  0
 23 22  1  6
 23 24  1  0
 25 23  1  0
 25 26  1  0
 27 28  1  0
 29 25  2  0
M  END
$$$$
