MQM.pdb
     RDKit          3D

 26 25  0  0  1  0  0  0  0  0999 V2000
    7.7140  -11.4485   26.1586 C   0  0  0  0  0  0  0  0  0  0  0  0
    6.0057  -12.0120   25.8662 S   0  0  0  0  0  0  0  0  0  0  0  0
    6.0420  -13.1020   24.4376 C   0  0  0  0  0  0  0  0  0  0  0  0
    7.2672  -14.0254   24.4574 C   0  0  0  0  0  0  0  0  0  0  0  0
    7.1940  -14.8471   23.2125 C   0  0  2  0  0  0  0  0  0  0  0  0
    5.9931  -15.6559   23.2818 N   0  0  0  0  0  0  0  0  0  0  0  0
    8.3505  -15.7284   22.9888 C   0  0  0  0  0  0  0  0  0  0  0  0
    8.3567  -16.8943   23.4502 O   0  0  0  0  0  0  0  0  0  0  0  0
   13.2556  -14.7084   19.0390 N   0  0  0  0  0  0  0  0  0  0  0  0
   13.3925  -16.0312   19.5112 C   0  0  0  0  0  0  0  0  0  0  0  0
   14.0684  -16.8299   18.8209 O   0  0  0  0  0  0  0  0  0  0  0  0
   12.7529  -16.4710   20.7949 C   0  0  0  0  0  0  0  0  0  0  0  0
   11.4784  -15.6810   20.9505 C   0  0  0  0  0  0  0  0  0  0  0  0
   10.7419  -16.0021   22.1972 C   0  0  2  0  0  0  0  0  0  0  0  0
    9.4825  -15.2948   22.2536 N   0  0  0  0  0  0  0  0  0  0  0  0
   11.4871  -15.7537   23.4600 C   0  0  0  0  0  0  0  0  0  0  0  0
   11.7958  -14.5647   23.7399 O   0  0  0  0  0  0  0  0  0  0  0  0
   10.1546  -14.3989   30.4257 C   0  0  0  0  0  0  0  0  0  0  0  0
    9.8825  -14.7186   28.6834 S   0  0  0  0  0  0  0  0  0  0  0  0
   11.1463  -15.8135   27.9614 C   0  0  0  0  0  0  0  0  0  0  0  0
   10.9668  -15.8752   26.4713 C   0  0  0  0  0  0  0  0  0  0  0  0
   12.0249  -16.7083   25.7690 C   0  0  2  0  0  0  0  0  0  0  0  0
   11.8494  -16.7946   24.3404 N   0  0  0  0  0  0  0  0  0  0  0  0
   12.0493  -18.0628   26.3691 C   0  0  0  0  0  0  0  0  0  0  0  0
   13.1353  -18.5171   26.7913 O   0  0  0  0  0  0  0  0  0  0  0  0
   10.9178  -18.8487   26.4828 O   0  0  0  0  0  0  0  0  0  0  0  0
  2  1  1  0
  3  2  1  0
  4  3  1  0
  5  4  1  0
  5  6  1  1
  7 15  1  0
  7  5  1  0
  8  7  2  0
 10 12  1  0
 10  9  1  0
 11 10  2  0
 13 12  1  0
 14 15  1  0
 14 13  1  6
 16 14  1  0
 17 16  2  0
 18 19  1  0
 20 19  1  0
 20 21  1  0
 22 21  1  1
 22 24  1  0
 22 23  1  0
 23 16  1  0
 24 26  1  0
 25 24  2  0
M  END
$$$$
