MQM.pdb
     RDKit          3D

 26 25  0  0  1  0  0  0  0  0999 V2000
    7.6959  -11.4640   19.3596 C   0  0  0  0  0  0  0  0  0  0  0  0
    7.3498  -12.9632   18.3830 S   0  0  0  0  0  0  0  0  0  0  0  0
    8.5817  -14.1906   18.8374 C   0  0  0  0  0  0  0  0  0  0  0  0
    9.6548  -13.6037   19.7638 C   0  0  0  0  0  0  0  0  0  0  0  0
   10.5705  -14.7308   20.1127 C   0  0  2  0  0  0  0  0  0  0  0  0
   10.5823  -15.6573   18.9980 N   0  0  0  0  0  0  0  0  0  0  0  0
   10.2071  -15.4616   21.3366 C   0  0  0  0  0  0  0  0  0  0  0  0
    9.5184  -14.9058   22.2250 O   0  0  0  0  0  0  0  0  0  0  0  0
   12.3462  -21.2017   22.7242 N   0  0  0  0  0  0  0  0  0  0  0  0
   11.3579  -21.0557   23.7209 C   0  0  0  0  0  0  0  0  0  0  0  0
   11.2045  -21.9986   24.5327 O   0  0  0  0  0  0  0  0  0  0  0  0
   10.5171  -19.8166   23.8100 C   0  0  0  0  0  0  0  0  0  0  0  0
   10.9494  -18.9042   22.6904 C   0  0  0  0  0  0  0  0  0  0  0  0
   10.2439  -17.5996   22.6961 C   0  0  2  0  0  0  0  0  0  0  0  0
   10.6180  -16.8015   21.5503 N   0  0  0  0  0  0  0  0  0  0  0  0
   10.4224  -16.7835   23.9265 C   0  0  0  0  0  0  0  0  0  0  0  0
   11.5369  -16.2247   24.1084 O   0  0  0  0  0  0  0  0  0  0  0  0
    6.2281  -11.4573   26.4569 C   0  0  0  0  0  0  0  0  0  0  0  0
    6.4052  -13.2250   26.6928 S   0  0  0  0  0  0  0  0  0  0  0  0
    8.0789  -13.8251   26.2981 C   0  0  0  0  0  0  0  0  0  0  0  0
    8.1663  -15.2971   26.5849 C   0  0  0  0  0  0  0  0  0  0  0  0
    9.4766  -15.9229   26.1393 C   0  0  2  0  0  0  0  0  0  0  0  0
    9.3948  -16.6176   24.8784 N   0  0  0  0  0  0  0  0  0  0  0  0
    9.9612  -16.8354   27.2013 C   0  0  0  0  0  0  0  0  0  0  0  0
    9.8573  -18.0700   27.0307 O   0  0  0  0  0  0  0  0  0  0  0  0
   10.5260  -16.3780   28.3771 O   0  0  0  0  0  0  0  0  0  0  0  0
  2  1  1  0
  3  2  1  0
  4  3  1  0
  5  4  1  0
  5  6  1  6
  7 15  1  0
  7  5  1  0
  8  7  2  0
 10 12  1  0
 10  9  1  0
 11 10  2  0
 13 12  1  0
 14 15  1  0
 14 13  1  1
 16 14  1  0
 17 16  2  0
 18 19  1  0
 20 19  1  0
 20 21  1  0
 22 21  1  1
 22 24  1  0
 22 23  1  0
 23 16  1  0
 24 26  1  0
 25 24  2  0
M  END
$$$$
