MQM.pdb
     RDKit          3D

 26 25  0  0  1  0  0  0  0  0999 V2000
    7.8843  -11.7488   20.4421 C   0  0  0  0  0  0  0  0  0  0  0  0
    8.2869  -13.1107   19.3000 S   0  0  0  0  0  0  0  0  0  0  0  0
    7.0764  -14.4106   19.5742 C   0  0  0  0  0  0  0  0  0  0  0  0
    7.1046  -14.9182   21.0218 C   0  0  0  0  0  0  0  0  0  0  0  0
    8.4387  -15.5608   21.2156 C   0  0  2  0  0  0  0  0  0  0  0  0
    8.5453  -16.6596   20.2762 N   0  0  0  0  0  0  0  0  0  0  0  0
    8.6847  -16.0689   22.5741 C   0  0  0  0  0  0  0  0  0  0  0  0
    7.9365  -15.7307   23.5217 O   0  0  0  0  0  0  0  0  0  0  0  0
   11.8850  -21.1373   24.1598 N   0  0  0  0  0  0  0  0  0  0  0  0
   11.5528  -20.4827   25.3650 C   0  0  0  0  0  0  0  0  0  0  0  0
   11.2509  -21.1948   26.3515 O   0  0  0  0  0  0  0  0  0  0  0  0
   11.5592  -18.9861   25.4669 C   0  0  0  0  0  0  0  0  0  0  0  0
   11.1760  -18.4462   24.1126 C   0  0  0  0  0  0  0  0  0  0  0  0
   10.1240  -17.4027   24.1772 C   0  0  2  0  0  0  0  0  0  0  0  0
    9.7622  -16.9467   22.8540 N   0  0  0  0  0  0  0  0  0  0  0  0
   10.4497  -16.2202   25.0183 C   0  0  0  0  0  0  0  0  0  0  0  0
   11.3710  -15.4540   24.6292 O   0  0  0  0  0  0  0  0  0  0  0  0
    5.7150  -13.0877   26.3869 C   0  0  0  0  0  0  0  0  0  0  0  0
    7.0070  -12.1898   27.2449 S   0  0  0  0  0  0  0  0  0  0  0  0
    8.6711  -12.8418   26.8947 C   0  0  0  0  0  0  0  0  0  0  0  0
    8.8835  -14.1165   27.6605 C   0  0  0  0  0  0  0  0  0  0  0  0
   10.0852  -14.9143   27.1848 C   0  0  2  0  0  0  0  0  0  0  0  0
    9.7650  -15.9353   26.2182 N   0  0  0  0  0  0  0  0  0  0  0  0
   10.7646  -15.5099   28.3592 C   0  0  0  0  0  0  0  0  0  0  0  0
   10.7671  -16.7537   28.4892 O   0  0  0  0  0  0  0  0  0  0  0  0
   11.3986  -14.7458   29.3209 O   0  0  0  0  0  0  0  0  0  0  0  0
  2  1  1  0
  3  2  1  0
  4  3  1  0
  5  4  1  0
  5  6  1  6
  7 15  1  0
  7  5  1  0
  8  7  2  0
 10 12  1  0
 10  9  1  0
 11 10  2  0
 13 12  1  0
 14 15  1  0
 14 13  1  6
 16 14  1  0
 17 16  2  0
 18 19  1  0
 20 19  1  0
 20 21  1  0
 22 21  1  1
 22 24  1  0
 22 23  1  0
 23 16  1  0
 24 26  1  0
 25 24  2  0
M  END
$$$$
