MQM.pdb
     RDKit          3D

 26 25  0  0  1  0  0  0  0  0999 V2000
    7.8085  -11.6881   20.2973 C   0  0  0  0  0  0  0  0  0  0  0  0
    8.0341  -12.2266   18.5709 S   0  0  0  0  0  0  0  0  0  0  0  0
    8.2035  -14.0158   18.5893 C   0  0  0  0  0  0  0  0  0  0  0  0
    8.4752  -14.5471   20.0029 C   0  0  0  0  0  0  0  0  0  0  0  0
    8.6516  -16.0242   19.8696 C   0  0  2  0  0  0  0  0  0  0  0  0
    7.4364  -16.5686   19.2969 N   0  0  0  0  0  0  0  0  0  0  0  0
    8.9404  -16.7249   21.1304 C   0  0  0  0  0  0  0  0  0  0  0  0
    8.0166  -16.9801   21.9390 O   0  0  0  0  0  0  0  0  0  0  0  0
   14.3578  -18.1946   21.5586 N   0  0  0  0  0  0  0  0  0  0  0  0
   13.4421  -19.0246   20.8773 C   0  0  0  0  0  0  0  0  0  0  0  0
   13.8407  -19.6042   19.8397 O   0  0  0  0  0  0  0  0  0  0  0  0
   12.0389  -19.2101   21.3741 C   0  0  0  0  0  0  0  0  0  0  0  0
   11.9131  -18.4258   22.6553 C   0  0  0  0  0  0  0  0  0  0  0  0
   10.6406  -17.6703   22.7540 C   0  0  2  0  0  0  0  0  0  0  0  0
   10.2560  -17.1299   21.4696 N   0  0  0  0  0  0  0  0  0  0  0  0
   10.6265  -16.5735   23.7582 C   0  0  0  0  0  0  0  0  0  0  0  0
   11.3232  -15.5500   23.5252 O   0  0  0  0  0  0  0  0  0  0  0  0
    5.7070  -12.9336   26.6416 C   0  0  0  0  0  0  0  0  0  0  0  0
    7.4285  -12.4386   26.7007 S   0  0  0  0  0  0  0  0  0  0  0  0
    8.5428  -13.8124   27.1346 C   0  0  0  0  0  0  0  0  0  0  0  0
    8.5811  -14.8045   26.0073 C   0  0  0  0  0  0  0  0  0  0  0  0
    9.8231  -15.6787   26.0134 C   0  0  2  0  0  0  0  0  0  0  0  0
    9.8649  -16.6443   24.9434 N   0  0  0  0  0  0  0  0  0  0  0  0
    9.9289  -16.3575   27.3262 C   0  0  0  0  0  0  0  0  0  0  0  0
    9.1504  -17.3022   27.5823 O   0  0  0  0  0  0  0  0  0  0  0  0
   10.8556  -15.9896   28.2836 O   0  0  0  0  0  0  0  0  0  0  0  0
  2  1  1  0
  3  2  1  0
  4  3  1  0
  5  4  1  0
  5  6  1  1
  7 15  1  0
  7  5  1  0
  8  7  2  0
 10 12  1  0
 10  9  1  0
 11 10  2  0
 13 12  1  0
 14 15  1  0
 14 13  1  6
 16 14  1  0
 17 16  2  0
 18 19  1  0
 20 19  1  0
 20 21  1  0
 22 21  1  1
 22 24  1  0
 22 23  1  0
 23 16  1  0
 24 26  1  0
 25 24  2  0
M  END
$$$$
