MQM.pdb
     RDKit          3D

 26 25  0  0  1  0  0  0  0  0999 V2000
    7.9549  -11.2951   20.5985 C   0  0  0  0  0  0  0  0  0  0  0  0
    8.0169  -12.5452   19.2739 S   0  0  0  0  0  0  0  0  0  0  0  0
    6.8529  -13.8428   19.7119 C   0  0  0  0  0  0  0  0  0  0  0  0
    7.1638  -14.4453   21.0883 C   0  0  0  0  0  0  0  0  0  0  0  0
    7.4554  -15.8917   20.8575 C   0  0  2  0  0  0  0  0  0  0  0  0
    6.2080  -16.5504   20.5235 N   0  0  0  0  0  0  0  0  0  0  0  0
    8.0698  -16.5848   22.0004 C   0  0  0  0  0  0  0  0  0  0  0  0
    7.3699  -16.9322   22.9810 O   0  0  0  0  0  0  0  0  0  0  0  0
   11.7983  -21.2111   23.4792 N   0  0  0  0  0  0  0  0  0  0  0  0
   11.4845  -20.0495   24.2166 C   0  0  0  0  0  0  0  0  0  0  0  0
   10.6352  -20.1520   25.1329 O   0  0  0  0  0  0  0  0  0  0  0  0
   12.1422  -18.7348   23.9179 C   0  0  0  0  0  0  0  0  0  0  0  0
   11.3968  -18.1167   22.7625 C   0  0  0  0  0  0  0  0  0  0  0  0
   10.1521  -17.4238   23.1754 C   0  0  2  0  0  0  0  0  0  0  0  0
    9.4562  -16.8795   22.0312 N   0  0  0  0  0  0  0  0  0  0  0  0
   10.3271  -16.3468   24.1858 C   0  0  0  0  0  0  0  0  0  0  0  0
   11.2901  -15.5480   24.0373 O   0  0  0  0  0  0  0  0  0  0  0  0
    6.8181  -11.4257   27.2731 C   0  0  0  0  0  0  0  0  0  0  0  0
    6.4554  -12.6385   26.0045 S   0  0  0  0  0  0  0  0  0  0  0  0
    7.9155  -13.6157   25.5248 C   0  0  0  0  0  0  0  0  0  0  0  0
    8.3571  -14.4629   26.6840 C   0  0  0  0  0  0  0  0  0  0  0  0
    9.6021  -15.2830   26.3937 C   0  0  2  0  0  0  0  0  0  0  0  0
    9.4576  -16.1949   25.2861 N   0  0  0  0  0  0  0  0  0  0  0  0
    9.9929  -16.0174   27.6198 C   0  0  0  0  0  0  0  0  0  0  0  0
   10.2304  -15.3691   28.6625 O   0  0  0  0  0  0  0  0  0  0  0  0
   10.1062  -17.3944   27.6601 O   0  0  0  0  0  0  0  0  0  0  0  0
  2  1  1  0
  3  2  1  0
  4  3  1  0
  5  4  1  0
  5  6  1  1
  7 15  1  0
  7  5  1  0
  8  7  2  0
 10 12  1  0
 10  9  1  0
 11 10  2  0
 13 12  1  0
 14 15  1  0
 14 13  1  6
 16 14  1  0
 17 16  2  0
 18 19  1  0
 20 19  1  0
 20 21  1  0
 22 21  1  1
 22 24  1  0
 22 23  1  0
 23 16  1  0
 24 26  1  0
 25 24  2  0
M  END
$$$$
