MQM.pdb
     RDKit          3D

 26 25  0  0  1  0  0  0  0  0999 V2000
    8.9284  -11.8664   19.8075 C   0  0  0  0  0  0  0  0  0  0  0  0
    7.5301  -12.2771   18.7132 S   0  0  0  0  0  0  0  0  0  0  0  0
    7.7352  -13.9896   18.2075 C   0  0  0  0  0  0  0  0  0  0  0  0
    7.5756  -14.9549   19.3893 C   0  0  0  0  0  0  0  0  0  0  0  0
    8.8775  -14.9422   20.1209 C   0  0  2  0  0  0  0  0  0  0  0  0
    9.9112  -15.3704   19.1993 N   0  0  0  0  0  0  0  0  0  0  0  0
    8.9194  -15.7986   21.3162 C   0  0  0  0  0  0  0  0  0  0  0  0
    7.9648  -15.7981   22.1293 O   0  0  0  0  0  0  0  0  0  0  0  0
   12.6366  -21.0372   22.5920 N   0  0  0  0  0  0  0  0  0  0  0  0
   12.6894  -20.1061   23.6510 C   0  0  0  0  0  0  0  0  0  0  0  0
   13.7266  -20.0813   24.3547 O   0  0  0  0  0  0  0  0  0  0  0  0
   11.5461  -19.1756   23.9291 C   0  0  0  0  0  0  0  0  0  0  0  0
   11.3351  -18.3466   22.6877 C   0  0  0  0  0  0  0  0  0  0  0  0
   10.2024  -17.3965   22.8066 C   0  0  2  0  0  0  0  0  0  0  0  0
   10.0261  -16.6426   21.5858 N   0  0  0  0  0  0  0  0  0  0  0  0
   10.2839  -16.4467   23.9480 C   0  0  0  0  0  0  0  0  0  0  0  0
   10.9789  -15.4060   23.8023 O   0  0  0  0  0  0  0  0  0  0  0  0
    5.9909  -12.1893   26.3721 C   0  0  0  0  0  0  0  0  0  0  0  0
    7.6510  -12.5008   26.9710 S   0  0  0  0  0  0  0  0  0  0  0  0
    7.8894  -14.2186   27.5274 C   0  0  0  0  0  0  0  0  0  0  0  0
    8.0735  -15.1129   26.3345 C   0  0  0  0  0  0  0  0  0  0  0  0
    9.4522  -15.7460   26.2609 C   0  0  2  0  0  0  0  0  0  0  0  0
    9.6133  -16.6730   25.1682 N   0  0  0  0  0  0  0  0  0  0  0  0
    9.7468  -16.4122   27.5511 C   0  0  0  0  0  0  0  0  0  0  0  0
   10.2819  -15.7479   28.4657 O   0  0  0  0  0  0  0  0  0  0  0  0
    9.4538  -17.7422   27.7877 O   0  0  0  0  0  0  0  0  0  0  0  0
  2  1  1  0
  3  2  1  0
  4  3  1  0
  5  4  1  0
  5  6  1  6
  7 15  1  0
  7  5  1  0
  8  7  2  0
 10 12  1  0
 10  9  1  0
 11 10  2  0
 13 12  1  0
 14 15  1  0
 14 13  1  6
 16 14  1  0
 17 16  2  0
 18 19  1  0
 20 19  1  0
 20 21  1  0
 22 21  1  1
 22 24  1  0
 22 23  1  0
 23 16  1  0
 24 26  1  0
 25 24  2  0
M  END
$$$$
