MQM.pdb
     RDKit          3D

 26 25  0  0  1  0  0  0  0  0999 V2000
    6.8410  -12.4425   21.3796 C   0  0  0  0  0  0  0  0  0  0  0  0
    8.0367  -12.3361   20.0083 S   0  0  0  0  0  0  0  0  0  0  0  0
    8.6319  -14.0021   19.6908 C   0  0  0  0  0  0  0  0  0  0  0  0
    7.4964  -14.9394   19.2592 C   0  0  0  0  0  0  0  0  0  0  0  0
    8.0602  -16.3221   19.2860 C   0  0  2  0  0  0  0  0  0  0  0  0
    7.0514  -17.2253   18.7685 N   0  0  0  0  0  0  0  0  0  0  0  0
    8.4810  -16.7887   20.6162 C   0  0  0  0  0  0  0  0  0  0  0  0
    7.6270  -17.1550   21.4581 O   0  0  0  0  0  0  0  0  0  0  0  0
   13.6527  -20.3923   22.7311 N   0  0  0  0  0  0  0  0  0  0  0  0
   13.6039  -19.0288   23.0915 C   0  0  0  0  0  0  0  0  0  0  0  0
   14.6862  -18.3976   23.1337 O   0  0  0  0  0  0  0  0  0  0  0  0
   12.3038  -18.3535   23.4140 C   0  0  0  0  0  0  0  0  0  0  0  0
   11.7283  -17.8523   22.1139 C   0  0  0  0  0  0  0  0  0  0  0  0
   10.3373  -17.3546   22.2454 C   0  0  2  0  0  0  0  0  0  0  0  0
    9.8486  -16.8391   20.9864 N   0  0  0  0  0  0  0  0  0  0  0  0
   10.1251  -16.3260   23.2983 C   0  0  0  0  0  0  0  0  0  0  0  0
   10.5091  -15.1497   23.0612 O   0  0  0  0  0  0  0  0  0  0  0  0
    7.0393  -11.4083   27.4153 C   0  0  0  0  0  0  0  0  0  0  0  0
    7.3448  -12.6390   26.1487 S   0  0  0  0  0  0  0  0  0  0  0  0
    7.5099  -14.3218   26.8255 C   0  0  0  0  0  0  0  0  0  0  0  0
    7.7808  -15.2890   25.7086 C   0  0  0  0  0  0  0  0  0  0  0  0
    9.2368  -15.7114   25.6146 C   0  0  2  0  0  0  0  0  0  0  0  0
    9.5129  -16.6248   24.5336 N   0  0  0  0  0  0  0  0  0  0  0  0
    9.6523  -16.3018   26.9085 C   0  0  0  0  0  0  0  0  0  0  0  0
    9.3124  -17.4757   27.1738 O   0  0  0  0  0  0  0  0  0  0  0  0
   10.4031  -15.6073   27.8383 O   0  0  0  0  0  0  0  0  0  0  0  0
  2  1  1  0
  3  2  1  0
  4  3  1  0
  5  4  1  0
  5  6  1  1
  7 15  1  0
  7  5  1  0
  8  7  2  0
 10 12  1  0
 10  9  1  0
 11 10  2  0
 13 12  1  0
 14 15  1  0
 14 13  1  6
 16 14  1  0
 17 16  2  0
 18 19  1  0
 20 19  1  0
 20 21  1  0
 22 21  1  1
 22 24  1  0
 22 23  1  0
 23 16  1  0
 24 26  1  0
 25 24  2  0
M  END
$$$$
