MQM.pdb
     RDKit          3D

 26 25  0  0  1  0  0  0  0  0999 V2000
    7.4405  -12.3660   20.1442 C   0  0  0  0  0  0  0  0  0  0  0  0
    7.2549  -13.7739   19.0019 S   0  0  0  0  0  0  0  0  0  0  0  0
    8.2961  -15.1019   19.6205 C   0  0  0  0  0  0  0  0  0  0  0  0
    9.6426  -14.5765   20.1355 C   0  0  0  0  0  0  0  0  0  0  0  0
   10.3665  -15.7558   20.6972 C   0  0  2  0  0  0  0  0  0  0  0  0
   10.1853  -16.8669   19.7840 N   0  0  0  0  0  0  0  0  0  0  0  0
    9.9260  -16.1651   22.0398 C   0  0  0  0  0  0  0  0  0  0  0  0
    9.8156  -15.3163   22.9561 O   0  0  0  0  0  0  0  0  0  0  0  0
    9.6374  -21.3612   25.3296 N   0  0  0  0  0  0  0  0  0  0  0  0
   10.2815  -21.3563   24.0740 C   0  0  0  0  0  0  0  0  0  0  0  0
   11.1470  -22.2373   23.8591 O   0  0  0  0  0  0  0  0  0  0  0  0
    9.9452  -20.3339   23.0291 C   0  0  0  0  0  0  0  0  0  0  0  0
    8.8860  -19.4335   23.6122 C   0  0  0  0  0  0  0  0  0  0  0  0
    9.2937  -18.0083   23.6595 C   0  0  2  0  0  0  0  0  0  0  0  0
    9.6156  -17.5156   22.3392 N   0  0  0  0  0  0  0  0  0  0  0  0
   10.4244  -17.6985   24.5746 C   0  0  0  0  0  0  0  0  0  0  0  0
   11.5931  -17.9462   24.1746 O   0  0  0  0  0  0  0  0  0  0  0  0
   10.0090  -12.1509   28.5700 C   0  0  0  0  0  0  0  0  0  0  0  0
    9.2733  -13.7754   28.7480 S   0  0  0  0  0  0  0  0  0  0  0  0
    9.7434  -14.9135   27.4060 C   0  0  0  0  0  0  0  0  0  0  0  0
   10.8179  -15.8451   27.8896 C   0  0  0  0  0  0  0  0  0  0  0  0
   11.2329  -16.8776   26.8558 C   0  0  2  0  0  0  0  0  0  0  0  0
   10.2284  -17.1413   25.8555 N   0  0  0  0  0  0  0  0  0  0  0  0
   11.6117  -18.1305   27.5502 C   0  0  0  0  0  0  0  0  0  0  0  0
   10.9032  -19.1483   27.3892 O   0  0  0  0  0  0  0  0  0  0  0  0
   12.7198  -18.2223   28.3715 O   0  0  0  0  0  0  0  0  0  0  0  0
  2  1  1  0
  3  2  1  0
  4  3  1  0
  5  4  1  0
  5  6  1  6
  7 15  1  0
  7  5  1  0
  8  7  2  0
 10 12  1  0
 10  9  1  0
 11 10  2  0
 13 12  1  0
 14 15  1  0
 14 13  1  6
 16 14  1  0
 17 16  2  0
 18 19  1  0
 20 19  1  0
 20 21  1  0
 22 21  1  1
 22 24  1  0
 22 23  1  0
 23 16  1  0
 24 26  1  0
 25 24  2  0
M  END
$$$$
