MQM.pdb
     RDKit          3D

 26 25  0  0  1  0  0  0  0  0999 V2000
    6.6656  -12.1180   26.4797 C   0  0  0  0  0  0  0  0  0  0  0  0
    7.6064  -13.6600   26.2383 S   0  0  0  0  0  0  0  0  0  0  0  0
    6.5909  -15.0060   26.8606 C   0  0  0  0  0  0  0  0  0  0  0  0
    7.0787  -16.3690   26.3521 C   0  0  0  0  0  0  0  0  0  0  0  0
    6.4561  -16.5632   25.0085 C   0  0  2  0  0  0  0  0  0  0  0  0
    5.7132  -17.8077   25.0369 N   0  0  0  0  0  0  0  0  0  0  0  0
    7.4097  -16.6023   23.8891 C   0  0  0  0  0  0  0  0  0  0  0  0
    8.0706  -17.6421   23.6563 O   0  0  0  0  0  0  0  0  0  0  0  0
    7.2336  -12.8964   18.9274 N   0  0  0  0  0  0  0  0  0  0  0  0
    8.4101  -13.6267   18.6557 C   0  0  0  0  0  0  0  0  0  0  0  0
    8.9167  -13.5131   17.5147 O   0  0  0  0  0  0  0  0  0  0  0  0
    9.0368  -14.5101   19.6936 C   0  0  0  0  0  0  0  0  0  0  0  0
    8.0888  -14.5624   20.8646 C   0  0  0  0  0  0  0  0  0  0  0  0
    8.5718  -15.4283   21.9677 C   0  0  2  0  0  0  0  0  0  0  0  0
    7.6111  -15.4800   23.0466 N   0  0  0  0  0  0  0  0  0  0  0  0
    9.9010  -15.0658   22.5276 C   0  0  0  0  0  0  0  0  0  0  0  0
   10.2780  -13.8678   22.4265 O   0  0  0  0  0  0  0  0  0  0  0  0
   10.6025  -13.7877   29.1650 C   0  0  0  0  0  0  0  0  0  0  0  0
   10.2522  -14.1035   27.4360 S   0  0  0  0  0  0  0  0  0  0  0  0
   10.5386  -15.8391   26.9639 C   0  0  0  0  0  0  0  0  0  0  0  0
   10.0725  -16.0602   25.5531 C   0  0  0  0  0  0  0  0  0  0  0  0
   11.1922  -15.9925   24.5291 C   0  0  2  0  0  0  0  0  0  0  0  0
   10.7365  -16.0093   23.1611 N   0  0  0  0  0  0  0  0  0  0  0  0
   12.1369  -17.1077   24.7725 C   0  0  0  0  0  0  0  0  0  0  0  0
   13.0120  -16.9761   25.6561 O   0  0  0  0  0  0  0  0  0  0  0  0
   12.0914  -18.2923   24.0616 O   0  0  0  0  0  0  0  0  0  0  0  0
  2  1  1  0
  3  2  1  0
  4  3  1  0
  5  4  1  0
  5  6  1  1
  7 15  1  0
  7  5  1  0
  8  7  2  0
 10 12  1  0
 10  9  1  0
 11 10  2  0
 13 12  1  0
 14 15  1  0
 14 13  1  6
 16 14  1  0
 17 16  2  0
 18 19  1  0
 20 19  1  0
 20 21  1  0
 22 21  1  1
 22 24  1  0
 22 23  1  0
 23 16  1  0
 24 26  1  0
 25 24  2  0
M  END
$$$$
