VQN.pdb
     RDKit          3D

 25 24  0  0  1  0  0  0  0  0999 V2000
   11.4904   -9.1032  -10.4826 C   0  0  0  0  0  0  0  0  0  0  0  0
   11.8286  -10.5714  -10.7299 C   0  0  1  0  0  0  0  0  0  0  0  0
   10.5835  -11.4033  -10.8592 C   0  0  0  0  0  0  0  0  0  0  0  0
   12.6699  -10.7341  -11.9708 C   0  0  2  0  0  0  0  0  0  0  0  0
   12.9784  -12.1140  -12.1577 N   0  0  0  0  0  0  0  0  0  0  0  0
   13.9000   -9.8977  -11.7856 C   0  0  0  0  0  0  0  0  0  0  0  0
   14.9106  -10.3972  -11.2300 O   0  0  0  0  0  0  0  0  0  0  0  0
   16.6185   -6.6520  -16.0368 N   0  0  0  0  0  0  0  0  0  0  0  0
   17.1379   -6.0528  -14.8640 C   0  0  0  0  0  0  0  0  0  0  0  0
   18.0737   -5.2073  -14.9662 O   0  0  0  0  0  0  0  0  0  0  0  0
   16.6375   -6.3674  -13.5045 C   0  0  0  0  0  0  0  0  0  0  0  0
   15.4682   -7.3130  -13.6056 C   0  0  0  0  0  0  0  0  0  0  0  0
   15.0034   -7.7308  -12.2225 C   0  0  2  0  0  0  0  0  0  0  0  0
   13.8468   -8.5633  -12.2593 N   0  0  0  0  0  0  0  0  0  0  0  0
   14.7028   -6.4791  -11.4588 C   0  0  0  0  0  0  0  0  0  0  0  0
   13.7079   -5.7603  -11.7193 O   0  0  0  0  0  0  0  0  0  0  0  0
   15.3208   -7.2246   -6.9559 N   0  0  0  0  0  0  0  0  0  0  0  0
   14.7612   -6.0687   -7.5494 C   0  0  0  0  0  0  0  0  0  0  0  0
   13.5227   -5.8766   -7.4985 O   0  0  0  0  0  0  0  0  0  0  0  0
   15.6283   -5.1016   -8.2204 C   0  0  0  0  0  0  0  0  0  0  0  0
   15.1989   -4.8559   -9.6738 C   0  0  2  0  0  0  0  0  0  0  0  0
   15.5473   -6.0604  -10.4008 N   0  0  0  0  0  0  0  0  0  0  0  0
   15.9202   -3.6725  -10.1736 C   0  0  0  0  0  0  0  0  0  0  0  0
   16.7569   -3.8234  -11.0922 O   0  0  0  0  0  0  0  0  0  0  0  0
   15.7104   -2.4045   -9.6705 O   0  0  0  0  0  0  0  0  0  0  0  0
  2  1  1  6
  2  3  1  0
  4  6  1  0
  4  2  1  0
  4  5  1  1
  6  7  2  0
  9  8  1  0
 10  9  2  0
 11  9  1  0
 12 11  1  0
 13 12  1  6
 14 13  1  0
 14  6  1  0
 15 13  1  0
 16 15  2  0
 18 17  1  0
 18 19  2  0
 20 18  1  0
 21 20  1  1
 21 22  1  0
 22 15  1  0
 23 21  1  0
 23 25  1  0
 24 23  2  0
M  END
$$$$
