VQN.pdb
     RDKit          3D

 25 24  0  0  1  0  0  0  0  0999 V2000
   15.6088  -12.0925  -15.6196 C   0  0  0  0  0  0  0  0  0  0  0  0
   15.5186  -10.7261  -14.9445 C   0  0  1  0  0  0  0  0  0  0  0  0
   14.7507  -10.8048  -13.6549 C   0  0  0  0  0  0  0  0  0  0  0  0
   16.8906  -10.1607  -14.6759 C   0  0  2  0  0  0  0  0  0  0  0  0
   17.5975  -11.0292  -13.7926 N   0  0  0  0  0  0  0  0  0  0  0  0
   16.7004   -8.7923  -14.0942 C   0  0  0  0  0  0  0  0  0  0  0  0
   16.1364   -7.9015  -14.7784 O   0  0  0  0  0  0  0  0  0  0  0  0
   15.5933   -6.7655   -8.2942 N   0  0  0  0  0  0  0  0  0  0  0  0
   14.8130   -6.4200   -9.4239 C   0  0  0  0  0  0  0  0  0  0  0  0
   13.6421   -5.9726   -9.2510 O   0  0  0  0  0  0  0  0  0  0  0  0
   15.3011   -6.5565  -10.8171 C   0  0  0  0  0  0  0  0  0  0  0  0
   16.6572   -7.2141  -10.8125 C   0  0  0  0  0  0  0  0  0  0  0  0
   17.2234   -7.2706  -12.2195 C   0  0  2  0  0  0  0  0  0  0  0  0
   17.1799   -8.5816  -12.7776 N   0  0  0  0  0  0  0  0  0  0  0  0
   18.6417   -6.7980  -12.1460 C   0  0  0  0  0  0  0  0  0  0  0  0
   19.3695   -7.0215  -11.1487 O   0  0  0  0  0  0  0  0  0  0  0  0
   21.1988   -8.8334  -15.1354 N   0  0  0  0  0  0  0  0  0  0  0  0
   21.3555   -7.9267  -14.0609 C   0  0  0  0  0  0  0  0  0  0  0  0
   21.5468   -8.3601  -12.8995 O   0  0  0  0  0  0  0  0  0  0  0  0
   21.2941   -6.4869  -14.3074 C   0  0  0  0  0  0  0  0  0  0  0  0
   20.6231   -5.7336  -13.1501 C   0  0  2  0  0  0  0  0  0  0  0  0
   19.2153   -6.0710  -13.2186 N   0  0  0  0  0  0  0  0  0  0  0  0
   20.8628   -4.2921  -13.3382 C   0  0  0  0  0  0  0  0  0  0  0  0
   22.0289   -3.8559  -13.2093 O   0  0  0  0  0  0  0  0  0  0  0  0
   19.8541   -3.4037  -13.6512 O   0  0  0  0  0  0  0  0  0  0  0  0
  2  1  1  1
  2  3  1  0
  4  6  1  0
  4  2  1  0
  4  5  1  1
  6  7  2  0
  9  8  1  0
 10  9  2  0
 11  9  1  0
 12 11  1  0
 13 12  1  1
 14 13  1  0
 14  6  1  0
 15 13  1  0
 16 15  2  0
 18 17  1  0
 18 19  2  0
 20 18  1  0
 21 20  1  6
 21 22  1  0
 22 15  1  0
 23 21  1  0
 23 25  1  0
 24 23  2  0
M  END
$$$$
