VQN.pdb
     RDKit          3D

 25 24  0  0  1  0  0  0  0  0999 V2000
   20.5908  -13.9853  -20.5172 C   0  0  0  0  0  0  0  0  0  0  0  0
   21.2280  -14.0512  -19.1313 C   0  0  1  0  0  0  0  0  0  0  0  0
   22.2368  -15.1622  -19.0475 C   0  0  0  0  0  0  0  0  0  0  0  0
   21.8920  -12.7448  -18.7755 C   0  0  2  0  0  0  0  0  0  0  0  0
   22.6181  -12.8976  -17.5574 N   0  0  0  0  0  0  0  0  0  0  0  0
   20.8104  -11.7128  -18.6657 C   0  0  0  0  0  0  0  0  0  0  0  0
   20.1483  -11.3987  -19.6867 O   0  0  0  0  0  0  0  0  0  0  0  0
   16.3159  -11.0125  -14.6956 N   0  0  0  0  0  0  0  0  0  0  0  0
   16.4171   -9.7257  -15.2773 C   0  0  0  0  0  0  0  0  0  0  0  0
   15.5028   -8.8781  -15.0617 O   0  0  0  0  0  0  0  0  0  0  0  0
   17.5520   -9.3132  -16.1373 C   0  0  0  0  0  0  0  0  0  0  0  0
   18.5145  -10.4635  -16.2854 C   0  0  0  0  0  0  0  0  0  0  0  0
   19.6558  -10.0836  -17.2109 C   0  0  2  0  0  0  0  0  0  0  0  0
   20.5959  -11.1407  -17.3872 N   0  0  0  0  0  0  0  0  0  0  0  0
   20.3374   -8.8944  -16.6097 C   0  0  0  0  0  0  0  0  0  0  0  0
   21.0559   -8.9835  -15.5850 O   0  0  0  0  0  0  0  0  0  0  0  0
   21.9794   -4.5260  -15.0003 N   0  0  0  0  0  0  0  0  0  0  0  0
   21.1050   -5.4236  -14.3439 C   0  0  0  0  0  0  0  0  0  0  0  0
   20.8594   -5.2771  -13.1226 O   0  0  0  0  0  0  0  0  0  0  0  0
   20.4900   -6.5194  -15.0912 C   0  0  0  0  0  0  0  0  0  0  0  0
   20.8781   -6.4916  -16.5764 C   0  0  2  0  0  0  0  0  0  0  0  0
   20.1888   -7.6097  -17.1889 N   0  0  0  0  0  0  0  0  0  0  0  0
   22.3429   -6.6168  -16.6723 C   0  0  0  0  0  0  0  0  0  0  0  0
   22.8226   -7.6060  -17.2706 O   0  0  0  0  0  0  0  0  0  0  0  0
   23.2073   -5.6878  -16.1297 O   0  0  0  0  0  0  0  0  0  0  0  0
  2  1  1  6
  2  3  1  0
  4  6  1  0
  4  2  1  0
  4  5  1  1
  6  7  2  0
  9  8  1  0
 10  9  2  0
 11  9  1  0
 12 11  1  0
 13 12  1  1
 14 13  1  0
 14  6  1  0
 15 13  1  0
 16 15  2  0
 18 17  1  0
 18 19  2  0
 20 18  1  0
 21 20  1  1
 21 22  1  0
 22 15  1  0
 23 21  1  0
 23 25  1  0
 24 23  2  0
M  END
$$$$
