VQN.pdb
     RDKit          3D

 25 24  0  0  1  0  0  0  0  0999 V2000
   26.3767  -18.4459  -15.7754 C   0  0  0  0  0  0  0  0  0  0  0  0
   27.1867  -19.6129  -16.3347 C   0  0  1  0  0  0  0  0  0  0  0  0
   28.3282  -19.1270  -17.1832 C   0  0  0  0  0  0  0  0  0  0  0  0
   27.7228  -20.4835  -15.2262 C   0  0  2  0  0  0  0  0  0  0  0  0
   28.5192  -21.5266  -15.7846 N   0  0  0  0  0  0  0  0  0  0  0  0
   26.5430  -21.0140  -14.4688 C   0  0  0  0  0  0  0  0  0  0  0  0
   25.8066  -21.8835  -14.9992 O   0  0  0  0  0  0  0  0  0  0  0  0
   25.6685  -20.0455   -8.1987 N   0  0  0  0  0  0  0  0  0  0  0  0
   26.6790  -20.7921   -8.8515 C   0  0  0  0  0  0  0  0  0  0  0  0
   27.6972  -21.1571   -8.1950 O   0  0  0  0  0  0  0  0  0  0  0  0
   26.6069  -21.1736  -10.2822 C   0  0  0  0  0  0  0  0  0  0  0  0
   25.3857  -20.5501  -10.9079 C   0  0  0  0  0  0  0  0  0  0  0  0
   25.2579  -20.9756  -12.3591 C   0  0  2  0  0  0  0  0  0  0  0  0
   26.3247  -20.4900  -13.1705 N   0  0  0  0  0  0  0  0  0  0  0  0
   23.9538  -20.4425  -12.8643 C   0  0  0  0  0  0  0  0  0  0  0  0
   23.8107  -19.2450  -13.2103 O   0  0  0  0  0  0  0  0  0  0  0  0
   19.2110  -21.6005  -15.9476 N   0  0  0  0  0  0  0  0  0  0  0  0
   20.1872  -20.6802  -15.4988 C   0  0  0  0  0  0  0  0  0  0  0  0
   19.9867  -19.4477  -15.6178 O   0  0  0  0  0  0  0  0  0  0  0  0
   21.4272  -21.1685  -14.8976 C   0  0  0  0  0  0  0  0  0  0  0  0
   21.5741  -20.7185  -13.4371 C   0  0  2  0  0  0  0  0  0  0  0  0
   22.8216  -21.2883  -12.9685 N   0  0  0  0  0  0  0  0  0  0  0  0
   20.4121  -21.2184  -12.6818 C   0  0  0  0  0  0  0  0  0  0  0  0
   20.4950  -22.3354  -12.1232 O   0  0  0  0  0  0  0  0  0  0  0  0
   19.2365  -20.5049  -12.5648 O   0  0  0  0  0  0  0  0  0  0  0  0
  2  1  1  1
  2  3  1  0
  4  6  1  0
  4  2  1  0
  4  5  1  6
  6  7  2  0
  9  8  1  0
 10  9  2  0
 11  9  1  0
 12 11  1  0
 13 12  1  1
 14 13  1  0
 14  6  1  0
 15 13  1  0
 16 15  2  0
 18 17  1  0
 18 19  2  0
 20 18  1  0
 21 20  1  6
 21 22  1  0
 22 15  1  0
 23 21  1  0
 23 25  1  0
 24 23  2  0
M  END
$$$$
