VQN.pdb
     RDKit          3D

 25 24  0  0  1  0  0  0  0  0999 V2000
   27.8499  -15.4835  -19.3641 C   0  0  0  0  0  0  0  0  0  0  0  0
   27.6090  -16.9800  -19.5469 C   0  0  1  0  0  0  0  0  0  0  0  0
   28.8727  -17.6911  -19.9424 C   0  0  0  0  0  0  0  0  0  0  0  0
   27.0594  -17.6002  -18.2870 C   0  0  2  0  0  0  0  0  0  0  0  0
   27.1303  -19.0212  -18.3874 N   0  0  0  0  0  0  0  0  0  0  0  0
   25.6508  -17.1121  -18.1301 C   0  0  0  0  0  0  0  0  0  0  0  0
   25.4380  -15.8906  -17.9244 O   0  0  0  0  0  0  0  0  0  0  0  0
   21.0786  -18.1414  -21.8354 N   0  0  0  0  0  0  0  0  0  0  0  0
   20.4207  -17.6317  -20.6900 C   0  0  0  0  0  0  0  0  0  0  0  0
   19.2022  -17.3015  -20.7749 O   0  0  0  0  0  0  0  0  0  0  0  0
   21.0922  -17.4617  -19.3794 C   0  0  0  0  0  0  0  0  0  0  0  0
   22.5345  -17.8836  -19.4950 C   0  0  0  0  0  0  0  0  0  0  0  0
   23.2500  -17.6938  -18.1701 C   0  0  2  0  0  0  0  0  0  0  0  0
   24.6210  -18.0807  -18.2252 N   0  0  0  0  0  0  0  0  0  0  0  0
   22.5297  -18.5240  -17.1542 C   0  0  0  0  0  0  0  0  0  0  0  0
   22.7719  -19.7448  -16.9958 O   0  0  0  0  0  0  0  0  0  0  0  0
   19.9204  -20.0371  -13.0823 N   0  0  0  0  0  0  0  0  0  0  0  0
   20.5532  -18.7920  -12.8574 C   0  0  0  0  0  0  0  0  0  0  0  0
   20.6255  -18.3280  -11.6943 O   0  0  0  0  0  0  0  0  0  0  0  0
   21.1211  -18.0496  -13.9816 C   0  0  0  0  0  0  0  0  0  0  0  0
   20.9086  -18.7768  -15.3170 C   0  0  2  0  0  0  0  0  0  0  0  0
   21.5349  -17.9466  -16.3264 N   0  0  0  0  0  0  0  0  0  0  0  0
   19.4591  -18.9253  -15.5351 C   0  0  0  0  0  0  0  0  0  0  0  0
   18.8442  -18.0089  -16.1256 O   0  0  0  0  0  0  0  0  0  0  0  0
   18.7521  -20.0337  -15.1153 O   0  0  0  0  0  0  0  0  0  0  0  0
  2  1  1  1
  2  3  1  0
  4  6  1  0
  4  2  1  0
  4  5  1  6
  6  7  2  0
  9  8  1  0
 10  9  2  0
 11  9  1  0
 12 11  1  0
 13 12  1  6
 14 13  1  0
 14  6  1  0
 15 13  1  0
 16 15  2  0
 18 17  1  0
 18 19  2  0
 20 18  1  0
 21 20  1  1
 21 22  1  0
 22 15  1  0
 23 21  1  0
 23 25  1  0
 24 23  2  0
M  END
$$$$
