VQN.pdb
     RDKit          3D

 25 24  0  0  1  0  0  0  0  0999 V2000
   19.5479  -13.2445  -16.2899 C   0  0  0  0  0  0  0  0  0  0  0  0
   20.5913  -13.2161  -17.4041 C   0  0  1  0  0  0  0  0  0  0  0  0
   20.1914  -14.1052  -18.5481 C   0  0  0  0  0  0  0  0  0  0  0  0
   20.8059  -11.8128  -17.9126 C   0  0  2  0  0  0  0  0  0  0  0  0
   21.6438  -11.8488  -19.0663 N   0  0  0  0  0  0  0  0  0  0  0  0
   21.4151  -11.0235  -16.7933 C   0  0  0  0  0  0  0  0  0  0  0  0
   20.8017  -10.9233  -15.7009 O   0  0  0  0  0  0  0  0  0  0  0  0
   27.5891  -10.4604  -16.2115 N   0  0  0  0  0  0  0  0  0  0  0  0
   26.7218  -11.4936  -15.7818 C   0  0  0  0  0  0  0  0  0  0  0  0
   27.2129  -12.6086  -15.4403 O   0  0  0  0  0  0  0  0  0  0  0  0
   25.2494  -11.3369  -15.7101 C   0  0  0  0  0  0  0  0  0  0  0  0
   24.8752   -9.9258  -16.0847 C   0  0  0  0  0  0  0  0  0  0  0  0
   23.3714   -9.7373  -16.0043 C   0  0  2  0  0  0  0  0  0  0  0  0
   22.6749  -10.4242  -17.0413 N   0  0  0  0  0  0  0  0  0  0  0  0
   23.1028   -8.2681  -16.1006 C   0  0  0  0  0  0  0  0  0  0  0  0
   23.1726   -7.6460  -17.1880 O   0  0  0  0  0  0  0  0  0  0  0  0
   21.4816   -3.5846  -15.5626 N   0  0  0  0  0  0  0  0  0  0  0  0
   20.7077   -4.6522  -16.0751 C   0  0  0  0  0  0  0  0  0  0  0  0
   19.6262   -4.4143  -16.6644 O   0  0  0  0  0  0  0  0  0  0  0  0
   21.1709   -6.0298  -15.9164 C   0  0  0  0  0  0  0  0  0  0  0  0
   22.4674   -6.1097  -15.0980 C   0  0  2  0  0  0  0  0  0  0  0  0
   22.7562   -7.5219  -14.9468 N   0  0  0  0  0  0  0  0  0  0  0  0
   22.2372   -5.4441  -13.8039 C   0  0  0  0  0  0  0  0  0  0  0  0
   22.1429   -4.1962  -13.7795 O   0  0  0  0  0  0  0  0  0  0  0  0
   22.1209   -6.1404  -12.6181 O   0  0  0  0  0  0  0  0  0  0  0  0
  2  1  1  1
  2  3  1  0
  4  6  1  0
  4  2  1  0
  4  5  1  6
  6  7  2  0
  9  8  1  0
 10  9  2  0
 11  9  1  0
 12 11  1  0
 13 12  1  6
 14 13  1  0
 14  6  1  0
 15 13  1  0
 16 15  2  0
 18 17  1  0
 18 19  2  0
 20 18  1  0
 21 20  1  6
 21 22  1  0
 22 15  1  0
 23 21  1  0
 23 25  1  0
 24 23  2  0
M  END
$$$$
