VQN.pdb
     RDKit          3D

 25 24  0  0  1  0  0  0  0  0999 V2000
   28.1009  -11.9438  -15.3936 C   0  0  0  0  0  0  0  0  0  0  0  0
   26.7677  -11.4029  -15.9045 C   0  0  1  0  0  0  0  0  0  0  0  0
   26.9571  -10.5574  -17.1326 C   0  0  0  0  0  0  0  0  0  0  0  0
   25.8080  -12.5246  -16.2127 C   0  0  2  0  0  0  0  0  0  0  0  0
   26.3934  -13.3992  -17.1753 N   0  0  0  0  0  0  0  0  0  0  0  0
   24.5401  -11.8993  -16.7111 C   0  0  0  0  0  0  0  0  0  0  0  0
   24.2201  -12.0271  -17.9198 O   0  0  0  0  0  0  0  0  0  0  0  0
   19.2260  -13.4150  -15.9022 N   0  0  0  0  0  0  0  0  0  0  0  0
   18.9833  -12.0771  -16.2966 C   0  0  0  0  0  0  0  0  0  0  0  0
   17.8039  -11.7253  -16.5904 O   0  0  0  0  0  0  0  0  0  0  0  0
   20.0514  -11.0528  -16.3852 C   0  0  0  0  0  0  0  0  0  0  0  0
   21.3666  -11.6610  -15.9709 C   0  0  0  0  0  0  0  0  0  0  0  0
   22.4894  -10.6517  -16.1262 C   0  0  2  0  0  0  0  0  0  0  0  0
   23.7617  -11.1850  -15.7668 N   0  0  0  0  0  0  0  0  0  0  0  0
   22.1622   -9.4854  -15.2471 C   0  0  0  0  0  0  0  0  0  0  0  0
   22.6537   -9.3547  -14.1001 O   0  0  0  0  0  0  0  0  0  0  0  0
   22.6181   -4.1621  -14.4082 N   0  0  0  0  0  0  0  0  0  0  0  0
   22.2984   -5.4262  -13.8595 C   0  0  0  0  0  0  0  0  0  0  0  0
   21.9362   -5.5148  -12.6618 O   0  0  0  0  0  0  0  0  0  0  0  0
   22.3912   -6.6257  -14.6901 C   0  0  0  0  0  0  0  0  0  0  0  0
   21.0366   -7.3347  -14.8295 C   0  0  2  0  0  0  0  0  0  0  0  0
   21.2716   -8.4764  -15.6908 N   0  0  0  0  0  0  0  0  0  0  0  0
   20.0760   -6.3821  -15.4130 C   0  0  0  0  0  0  0  0  0  0  0  0
   19.9194   -6.3727  -16.6548 O   0  0  0  0  0  0  0  0  0  0  0  0
   19.3416   -5.5004  -14.6462 O   0  0  0  0  0  0  0  0  0  0  0  0
  2  1  1  6
  2  3  1  0
  4  6  1  0
  4  2  1  0
  4  5  1  6
  6  7  2  0
  9  8  1  0
 10  9  2  0
 11  9  1  0
 12 11  1  0
 13 12  1  1
 14 13  1  0
 14  6  1  0
 15 13  1  0
 16 15  2  0
 18 17  1  0
 18 19  2  0
 20 18  1  0
 21 20  1  6
 21 22  1  0
 22 15  1  0
 23 21  1  0
 23 25  1  0
 24 23  2  0
M  END
$$$$
