VQN.pdb
     RDKit          3D

 25 24  0  0  1  0  0  0  0  0999 V2000
   17.4995  -12.8433  -13.9325 C   0  0  0  0  0  0  0  0  0  0  0  0
   17.3828  -11.3577  -13.6002 C   0  0  1  0  0  0  0  0  0  0  0  0
   17.6502  -10.5060  -14.8095 C   0  0  0  0  0  0  0  0  0  0  0  0
   16.0181  -11.0293  -13.0491 C   0  0  2  0  0  0  0  0  0  0  0  0
   15.0196  -11.4205  -13.9894 N   0  0  0  0  0  0  0  0  0  0  0  0
   15.9931   -9.5557  -12.7750 C   0  0  0  0  0  0  0  0  0  0  0  0
   15.6865   -8.7593  -13.6977 O   0  0  0  0  0  0  0  0  0  0  0  0
   15.1285   -6.9208   -7.1258 N   0  0  0  0  0  0  0  0  0  0  0  0
   14.1636   -7.2025   -8.1229 C   0  0  0  0  0  0  0  0  0  0  0  0
   12.9398   -7.2390   -7.8035 O   0  0  0  0  0  0  0  0  0  0  0  0
   14.5152   -7.4605   -9.5397 C   0  0  0  0  0  0  0  0  0  0  0  0
   16.0147   -7.4757   -9.6908 C   0  0  0  0  0  0  0  0  0  0  0  0
   16.3993   -7.7560  -11.1319 C   0  0  2  0  0  0  0  0  0  0  0  0
   16.3250   -9.1410  -11.4614 N   0  0  0  0  0  0  0  0  0  0  0  0
   17.8005   -7.2648  -11.3206 C   0  0  0  0  0  0  0  0  0  0  0  0
   18.7706   -7.7559  -10.6945 O   0  0  0  0  0  0  0  0  0  0  0  0
   22.0637   -5.4592  -13.2399 N   0  0  0  0  0  0  0  0  0  0  0  0
   21.5300   -6.7523  -13.4507 C   0  0  0  0  0  0  0  0  0  0  0  0
   22.2476   -7.6513  -13.9510 O   0  0  0  0  0  0  0  0  0  0  0  0
   20.1435   -7.0369  -13.0847 C   0  0  0  0  0  0  0  0  0  0  0  0
   19.4601   -5.8255  -12.4347 C   0  0  2  0  0  0  0  0  0  0  0  0
   18.0787   -6.2117  -12.2270 N   0  0  0  0  0  0  0  0  0  0  0  0
   19.5888   -4.6780  -13.3497 C   0  0  0  0  0  0  0  0  0  0  0  0
   20.7071   -4.1290  -13.4701 O   0  0  0  0  0  0  0  0  0  0  0  0
   18.5267   -4.1844  -14.0797 O   0  0  0  0  0  0  0  0  0  0  0  0
  2  1  1  6
  2  3  1  0
  4  6  1  0
  4  2  1  0
  4  5  1  6
  6  7  2  0
  9  8  1  0
 10  9  2  0
 11  9  1  0
 12 11  1  0
 13 12  1  1
 14 13  1  0
 14  6  1  0
 15 13  1  0
 16 15  2  0
 18 17  1  0
 18 19  2  0
 20 18  1  0
 21 20  1  6
 21 22  1  0
 22 15  1  0
 23 21  1  0
 23 25  1  0
 24 23  2  0
M  END
$$$$
