VQN.pdb
     RDKit          3D

 25 24  0  0  1  0  0  0  0  0999 V2000
   22.8120  -12.4135  -15.0836 C   0  0  0  0  0  0  0  0  0  0  0  0
   21.9817  -11.1324  -15.0627 C   0  0  1  0  0  0  0  0  0  0  0  0
   22.2396  -10.2957  -16.2844 C   0  0  0  0  0  0  0  0  0  0  0  0
   20.5085  -11.4406  -14.9694 C   0  0  2  0  0  0  0  0  0  0  0  0
   20.0962  -12.1464  -16.1382 N   0  0  0  0  0  0  0  0  0  0  0  0
   19.7909  -10.1338  -14.8131 C   0  0  0  0  0  0  0  0  0  0  0  0
   19.1709   -9.6469  -15.7919 O   0  0  0  0  0  0  0  0  0  0  0  0
   16.9520   -8.2817   -9.5863 N   0  0  0  0  0  0  0  0  0  0  0  0
   16.8446   -7.1841  -10.4741 C   0  0  0  0  0  0  0  0  0  0  0  0
   16.0661   -6.2299  -10.1833 O   0  0  0  0  0  0  0  0  0  0  0  0
   17.6054   -7.0919  -11.7430 C   0  0  0  0  0  0  0  0  0  0  0  0
   18.3936   -8.3598  -11.9499 C   0  0  0  0  0  0  0  0  0  0  0  0
   19.1296   -8.3159  -13.2764 C   0  0  2  0  0  0  0  0  0  0  0  0
   19.8575   -9.5126  -13.5413 N   0  0  0  0  0  0  0  0  0  0  0  0
   20.0694   -7.1522  -13.2238 C   0  0  0  0  0  0  0  0  0  0  0  0
   21.0152   -7.0940  -12.4014 O   0  0  0  0  0  0  0  0  0  0  0  0
   22.5269   -2.8005  -14.3120 N   0  0  0  0  0  0  0  0  0  0  0  0
   22.3403   -3.6065  -15.4594 C   0  0  0  0  0  0  0  0  0  0  0  0
   22.9481   -3.3324  -16.5220 O   0  0  0  0  0  0  0  0  0  0  0  0
   21.4397   -4.7568  -15.4034 C   0  0  0  0  0  0  0  0  0  0  0  0
   20.8335   -4.9449  -14.0054 C   0  0  2  0  0  0  0  0  0  0  0  0
   19.9168   -6.0620  -14.1161 N   0  0  0  0  0  0  0  0  0  0  0  0
   20.1501   -3.6955  -13.6277 C   0  0  0  0  0  0  0  0  0  0  0  0
   18.9478   -3.5501  -13.9439 O   0  0  0  0  0  0  0  0  0  0  0  0
   20.7814   -2.6796  -12.9392 O   0  0  0  0  0  0  0  0  0  0  0  0
  2  1  1  6
  2  3  1  0
  4  6  1  0
  4  2  1  0
  4  5  1  6
  6  7  2  0
  9  8  1  0
 10  9  2  0
 11  9  1  0
 12 11  1  0
 13 12  1  1
 14 13  1  0
 14  6  1  0
 15 13  1  0
 16 15  2  0
 18 17  1  0
 18 19  2  0
 20 18  1  0
 21 20  1  6
 21 22  1  0
 22 15  1  0
 23 21  1  0
 23 25  1  0
 24 23  2  0
M  END
$$$$
