VQN.pdb
     RDKit          3D

 25 24  0  0  1  0  0  0  0  0999 V2000
   18.6812  -12.7061  -18.6140 C   0  0  0  0  0  0  0  0  0  0  0  0
   19.3888  -11.8943  -17.5317 C   0  0  1  0  0  0  0  0  0  0  0  0
   18.4741  -11.6190  -16.3713 C   0  0  0  0  0  0  0  0  0  0  0  0
   20.6231  -12.6062  -17.0376 C   0  0  2  0  0  0  0  0  0  0  0  0
   20.2501  -13.8516  -16.4511 N   0  0  0  0  0  0  0  0  0  0  0  0
   21.2971  -11.6959  -16.0557 C   0  0  0  0  0  0  0  0  0  0  0  0
   20.9824  -11.7541  -14.8403 O   0  0  0  0  0  0  0  0  0  0  0  0
   27.1891  -10.4758  -16.2797 N   0  0  0  0  0  0  0  0  0  0  0  0
   26.4302  -11.4929  -15.6518 C   0  0  0  0  0  0  0  0  0  0  0  0
   27.0126  -12.5484  -15.2677 O   0  0  0  0  0  0  0  0  0  0  0  0
   24.9703  -11.3858  -15.4177 C   0  0  0  0  0  0  0  0  0  0  0  0
   24.4871  -10.0309  -15.8674 C   0  0  0  0  0  0  0  0  0  0  0  0
   22.9821   -9.9238  -15.7035 C   0  0  2  0  0  0  0  0  0  0  0  0
   22.2705  -10.8040  -16.5702 N   0  0  0  0  0  0  0  0  0  0  0  0
   22.6036   -8.5062  -15.9991 C   0  0  0  0  0  0  0  0  0  0  0  0
   22.1669   -8.1512  -17.1205 O   0  0  0  0  0  0  0  0  0  0  0  0
   19.0784   -4.9359  -16.6438 N   0  0  0  0  0  0  0  0  0  0  0  0
   20.0711   -5.0059  -15.6383 C   0  0  0  0  0  0  0  0  0  0  0  0
   20.4026   -3.9700  -15.0134 O   0  0  0  0  0  0  0  0  0  0  0  0
   20.7078   -6.2855  -15.3306 C   0  0  0  0  0  0  0  0  0  0  0  0
   22.2387   -6.1730  -15.2988 C   0  0  2  0  0  0  0  0  0  0  0  0
   22.7296   -7.5045  -15.0046 N   0  0  0  0  0  0  0  0  0  0  0  0
   22.6074   -5.1981  -14.2576 C   0  0  0  0  0  0  0  0  0  0  0  0
   22.6597   -5.5821  -13.0675 O   0  0  0  0  0  0  0  0  0  0  0  0
   22.8980   -3.8790  -14.5412 O   0  0  0  0  0  0  0  0  0  0  0  0
  2  1  1  6
  2  3  1  0
  4  6  1  0
  4  2  1  0
  4  5  1  1
  6  7  2  0
  9  8  1  0
 10  9  2  0
 11  9  1  0
 12 11  1  0
 13 12  1  6
 14 13  1  0
 14  6  1  0
 15 13  1  0
 16 15  2  0
 18 17  1  0
 18 19  2  0
 20 18  1  0
 21 20  1  1
 21 22  1  0
 22 15  1  0
 23 21  1  0
 23 25  1  0
 24 23  2  0
M  END
$$$$
