VQN.pdb
     RDKit          3D

 25 24  0  0  1  0  0  0  0  0999 V2000
   18.2854  -13.0698  -16.0271 C   0  0  0  0  0  0  0  0  0  0  0  0
   18.2097  -11.6228  -15.5460 C   0  0  1  0  0  0  0  0  0  0  0  0
   18.2396  -10.6620  -16.7015 C   0  0  0  0  0  0  0  0  0  0  0  0
   16.9637  -11.3853  -14.7304 C   0  0  2  0  0  0  0  0  0  0  0  0
   15.8141  -11.6594  -15.5288 N   0  0  0  0  0  0  0  0  0  0  0  0
   17.0038   -9.9615  -14.2634 C   0  0  0  0  0  0  0  0  0  0  0  0
   16.4719   -9.0645  -14.9648 O   0  0  0  0  0  0  0  0  0  0  0  0
   15.0379   -7.1967   -8.5351 N   0  0  0  0  0  0  0  0  0  0  0  0
   16.1542   -7.7952   -9.1679 C   0  0  0  0  0  0  0  0  0  0  0  0
   17.1428   -8.1535   -8.4642 O   0  0  0  0  0  0  0  0  0  0  0  0
   16.2276   -8.0272  -10.6302 C   0  0  0  0  0  0  0  0  0  0  0  0
   17.6563   -8.3003  -11.0248 C   0  0  0  0  0  0  0  0  0  0  0  0
   17.7834   -8.3774  -12.5352 C   0  0  2  0  0  0  0  0  0  0  0  0
   17.6548   -9.7079  -13.0306 N   0  0  0  0  0  0  0  0  0  0  0  0
   19.1293   -7.8305  -12.8954 C   0  0  0  0  0  0  0  0  0  0  0  0
   20.1255   -8.5718  -13.0751 O   0  0  0  0  0  0  0  0  0  0  0  0
   23.1356   -5.3635  -14.4070 N   0  0  0  0  0  0  0  0  0  0  0  0
   22.3141   -6.1847  -15.2144 C   0  0  0  0  0  0  0  0  0  0  0  0
   22.7061   -6.5345  -16.3535 O   0  0  0  0  0  0  0  0  0  0  0  0
   21.0106   -6.6234  -14.7187 C   0  0  0  0  0  0  0  0  0  0  0  0
   20.6471   -5.9535  -13.3859 C   0  0  2  0  0  0  0  0  0  0  0  0
   19.3228   -6.4348  -13.0466 N   0  0  0  0  0  0  0  0  0  0  0  0
   20.6790   -4.4935  -13.5803 C   0  0  0  0  0  0  0  0  0  0  0  0
   21.7843   -3.9073  -13.5439 O   0  0  0  0  0  0  0  0  0  0  0  0
   19.5400   -3.7462  -13.8014 O   0  0  0  0  0  0  0  0  0  0  0  0
  2  1  1  6
  2  3  1  0
  4  6  1  0
  4  2  1  0
  4  5  1  6
  6  7  2  0
  9  8  1  0
 10  9  2  0
 11  9  1  0
 12 11  1  0
 13 12  1  1
 14 13  1  0
 14  6  1  0
 15 13  1  0
 16 15  2  0
 18 17  1  0
 18 19  2  0
 20 18  1  0
 21 20  1  6
 21 22  1  0
 22 15  1  0
 23 21  1  0
 23 25  1  0
 24 23  2  0
M  END
$$$$
