QQR.pdb
     RDKit          3D

 30 29  0  0  1  0  0  0  0  0999 V2000
   23.2056  -30.1388   -9.7087 N   0  0  0  0  0  0  0  0  0  0  0  0
   22.4167  -30.7482  -10.7341 C   0  0  0  0  0  0  0  0  0  0  0  0
   22.8742  -31.7894  -11.2628 O   0  0  0  0  0  0  0  0  0  0  0  0
   21.1126  -30.2098  -11.1846 C   0  0  0  0  0  0  0  0  0  0  0  0
   20.8251  -28.9466  -10.4439 C   0  0  0  0  0  0  0  0  0  0  0  0
   19.8111  -29.0741   -9.3523 C   0  0  2  0  0  0  0  0  0  0  0  0
   19.2685  -30.3923   -9.2588 N   0  0  0  0  0  0  0  0  0  0  0  0
   18.7281  -28.0771   -9.4099 C   0  0  0  0  0  0  0  0  0  0  0  0
   17.6539  -28.2521  -10.0471 O   0  0  0  0  0  0  0  0  0  0  0  0
   16.7956  -24.3045   -5.1661 N   0  0  0  0  0  0  0  0  0  0  0  0
   16.6357  -25.7145   -5.2489 C   0  0  0  0  0  0  0  0  0  0  0  0
   16.2427  -26.3819   -4.2499 O   0  0  0  0  0  0  0  0  0  0  0  0
   16.9523  -26.3586   -6.5605 C   0  0  0  0  0  0  0  0  0  0  0  0
   17.4250  -25.2786   -7.4875 C   0  0  0  0  0  0  0  0  0  0  0  0
   17.9036  -25.7851   -8.8069 C   0  0  2  0  0  0  0  0  0  0  0  0
   18.8777  -26.8456   -8.7200 N   0  0  0  0  0  0  0  0  0  0  0  0
   18.3605  -24.6919   -9.7146 C   0  0  0  0  0  0  0  0  0  0  0  0
   19.5685  -24.5809  -10.0512 O   0  0  0  0  0  0  0  0  0  0  0  0
   22.4623  -22.0277  -14.5858 N   0  0  0  0  0  0  0  0  0  0  0  0
   21.5240  -22.2622  -15.6168 C   0  0  0  0  0  0  0  0  0  0  0  0
   21.8337  -22.1124  -16.8529 N   0  0  0  0  0  0  0  0  0  0  0  0
   20.1994  -22.6732  -15.2646 N   0  0  0  0  0  0  0  0  0  0  0  0
   19.7506  -22.6773  -13.8912 C   0  0  0  0  0  0  0  0  0  0  0  0
   18.2964  -23.2193  -13.8807 C   0  0  0  0  0  0  0  0  0  0  0  0
   18.0472  -23.9696  -12.6026 C   0  0  0  0  0  0  0  0  0  0  0  0
   17.6776  -23.0423  -11.5136 C   0  0  2  0  0  0  0  0  0  0  0  0
   17.4663  -23.7245  -10.2440 N   0  0  0  0  0  0  0  0  0  0  0  0
   16.5208  -22.2064  -11.8730 C   0  0  0  0  0  0  0  0  0  0  0  0
   16.7768  -21.0246  -12.5765 O   0  0  0  0  0  0  0  0  0  0  0  0
   15.3444  -22.4486  -11.6132 O   0  0  0  0  0  0  0  0  0  0  0  0
  1  2  1  0
  2  3  2  0
  2  4  1  0
  4  5  1  0
  5  6  1  0
  6  7  1  6
  8  6  1  0
  8 16  1  0
  9  8  2  0
 11 12  2  0
 11 10  1  0
 13 11  1  0
 14 13  1  0
 15 16  1  0
 15 14  1  1
 17 27  1  0
 17 15  1  0
 18 17  2  0
 20 19  1  0
 20 22  1  0
 21 20  2  0
 23 22  1  0
 24 23  1  0
 25 24  1  0
 26 27  1  0
 26 25  1  6
 28 26  1  0
 29 28  1  0
 30 28  2  0
M  END
$$$$
