QQR.pdb
     RDKit          3D

 30 29  0  0  1  0  0  0  0  0999 V2000
   25.1291  -19.0215  -21.5238 N   0  0  0  0  0  0  0  0  0  0  0  0
   26.1924  -19.5931  -22.2905 C   0  0  0  0  0  0  0  0  0  0  0  0
   26.0342  -19.6472  -23.5335 O   0  0  0  0  0  0  0  0  0  0  0  0
   27.4421  -20.1111  -21.6876 C   0  0  0  0  0  0  0  0  0  0  0  0
   27.3521  -19.9927  -20.2027 C   0  0  0  0  0  0  0  0  0  0  0  0
   28.2679  -18.9784  -19.5956 C   0  0  2  0  0  0  0  0  0  0  0  0
   29.4825  -19.5553  -19.1131 N   0  0  0  0  0  0  0  0  0  0  0  0
   27.6456  -18.1461  -18.5514 C   0  0  0  0  0  0  0  0  0  0  0  0
   28.0982  -17.0247  -18.1934 O   0  0  0  0  0  0  0  0  0  0  0  0
   26.6966  -13.4736  -15.8379 N   0  0  0  0  0  0  0  0  0  0  0  0
   26.0982  -14.1396  -16.9419 C   0  0  0  0  0  0  0  0  0  0  0  0
   25.1609  -13.5982  -17.5948 O   0  0  0  0  0  0  0  0  0  0  0  0
   26.6272  -15.4949  -17.2863 C   0  0  0  0  0  0  0  0  0  0  0  0
   25.4560  -16.4294  -17.3525 C   0  0  0  0  0  0  0  0  0  0  0  0
   25.7712  -17.8208  -16.9154 C   0  0  2  0  0  0  0  0  0  0  0  0
   26.4736  -18.6092  -17.8982 N   0  0  0  0  0  0  0  0  0  0  0  0
   24.5790  -18.5429  -16.3811 C   0  0  0  0  0  0  0  0  0  0  0  0
   23.6644  -18.9521  -17.1432 O   0  0  0  0  0  0  0  0  0  0  0  0
   23.4158  -21.2216   -8.3092 N   0  0  0  0  0  0  0  0  0  0  0  0
   24.2993  -21.3435   -9.4060 C   0  0  0  0  0  0  0  0  0  0  0  0
   25.5293  -21.6708   -9.2440 N   0  0  0  0  0  0  0  0  0  0  0  0
   23.8025  -21.0916  -10.7241 N   0  0  0  0  0  0  0  0  0  0  0  0
   22.4026  -20.8279  -10.9653 C   0  0  0  0  0  0  0  0  0  0  0  0
   22.2345  -20.5744  -12.4872 C   0  0  0  0  0  0  0  0  0  0  0  0
   23.3921  -19.7608  -12.9937 C   0  0  0  0  0  0  0  0  0  0  0  0
   23.2607  -19.5073  -14.4431 C   0  0  2  0  0  0  0  0  0  0  0  0
   24.4114  -18.8056  -14.9960 N   0  0  0  0  0  0  0  0  0  0  0  0
   22.0030  -18.8155  -14.7679 C   0  0  0  0  0  0  0  0  0  0  0  0
   20.8404  -19.5914  -14.8270 O   0  0  0  0  0  0  0  0  0  0  0  0
   21.8752  -17.6141  -14.9931 O   0  0  0  0  0  0  0  0  0  0  0  0
  1  2  1  0
  2  3  2  0
  2  4  1  0
  4  5  1  0
  5  6  1  0
  6  7  1  1
  8  6  1  0
  8 16  1  0
  9  8  2  0
 11 12  2  0
 11 10  1  0
 13 11  1  0
 14 13  1  0
 15 16  1  0
 15 14  1  6
 17 27  1  0
 17 15  1  0
 18 17  2  0
 20 19  1  0
 20 22  1  0
 21 20  2  0
 23 22  1  0
 24 23  1  0
 25 24  1  0
 26 27  1  0
 26 25  1  1
 28 26  1  0
 29 28  1  0
 30 28  2  0
M  END
$$$$
