QQR.pdb
     RDKit          3D

 30 29  0  0  1  0  0  0  0  0999 V2000
   27.4879  -16.7243  -16.4008 N   0  0  0  0  0  0  0  0  0  0  0  0
   27.2964  -17.3147  -17.6892 C   0  0  0  0  0  0  0  0  0  0  0  0
   28.3236  -17.5335  -18.3747 O   0  0  0  0  0  0  0  0  0  0  0  0
   25.9644  -17.6685  -18.2315 C   0  0  0  0  0  0  0  0  0  0  0  0
   24.9279  -17.3970  -17.1930 C   0  0  0  0  0  0  0  0  0  0  0  0
   24.4593  -18.6018  -16.4413 C   0  0  2  0  0  0  0  0  0  0  0  0
   23.9168  -19.6069  -17.2993 N   0  0  0  0  0  0  0  0  0  0  0  0
   23.5236  -18.3063  -15.3426 C   0  0  0  0  0  0  0  0  0  0  0  0
   23.3982  -17.1639  -14.8233 O   0  0  0  0  0  0  0  0  0  0  0  0
   18.3703  -17.5610  -14.3684 N   0  0  0  0  0  0  0  0  0  0  0  0
   19.2737  -16.5229  -14.7244 C   0  0  0  0  0  0  0  0  0  0  0  0
   18.9910  -15.3118  -14.4981 O   0  0  0  0  0  0  0  0  0  0  0  0
   20.5579  -16.9317  -15.3717 C   0  0  0  0  0  0  0  0  0  0  0  0
   20.5297  -18.4239  -15.5200 C   0  0  0  0  0  0  0  0  0  0  0  0
   21.3214  -19.1467  -14.4821 C   0  0  2  0  0  0  0  0  0  0  0  0
   22.7088  -19.3461  -14.8230 N   0  0  0  0  0  0  0  0  0  0  0  0
   20.6747  -20.4184  -14.0434 C   0  0  0  0  0  0  0  0  0  0  0  0
   20.6550  -21.4343  -14.7867 O   0  0  0  0  0  0  0  0  0  0  0  0
   17.1724  -26.3775   -7.8236 N   0  0  0  0  0  0  0  0  0  0  0  0
   17.2575  -25.1033   -8.4299 C   0  0  0  0  0  0  0  0  0  0  0  0
   16.3056  -24.6400   -9.1547 N   0  0  0  0  0  0  0  0  0  0  0  0
   18.4377  -24.3198   -8.2275 N   0  0  0  0  0  0  0  0  0  0  0  0
   18.5536  -22.9798   -8.7551 C   0  0  0  0  0  0  0  0  0  0  0  0
   18.9819  -23.1028  -10.2418 C   0  0  0  0  0  0  0  0  0  0  0  0
   19.1710  -21.7316  -10.8271 C   0  0  0  0  0  0  0  0  0  0  0  0
   19.5552  -21.8175  -12.2509 C   0  0  2  0  0  0  0  0  0  0  0  0
   20.0510  -20.5520  -12.7751 N   0  0  0  0  0  0  0  0  0  0  0  0
   18.4653  -22.3530  -13.0825 C   0  0  0  0  0  0  0  0  0  0  0  0
   17.5624  -21.4336  -13.6271 O   0  0  0  0  0  0  0  0  0  0  0  0
   18.2714  -23.5374  -13.3464 O   0  0  0  0  0  0  0  0  0  0  0  0
  1  2  1  0
  2  3  2  0
  2  4  1  0
  4  5  1  0
  5  6  1  0
  6  7  1  6
  8  6  1  0
  8 16  1  0
  9  8  2  0
 11 12  2  0
 11 10  1  0
 13 11  1  0
 14 13  1  0
 15 16  1  0
 15 14  1  6
 17 27  1  0
 17 15  1  0
 18 17  2  0
 20 19  1  0
 20 22  1  0
 21 20  2  0
 23 22  1  0
 24 23  1  0
 25 24  1  0
 26 27  1  0
 26 25  1  1
 28 26  1  0
 29 28  1  0
 30 28  2  0
M  END
$$$$
