QQR.pdb
     RDKit          3D

 30 29  0  0  1  0  0  0  0  0999 V2000
   20.0757  -26.0525  -15.5912 N   0  0  0  0  0  0  0  0  0  0  0  0
   20.6040  -27.1676  -14.8685 C   0  0  0  0  0  0  0  0  0  0  0  0
   20.3488  -28.3107  -15.3171 O   0  0  0  0  0  0  0  0  0  0  0  0
   21.4204  -27.0278  -13.6407 C   0  0  0  0  0  0  0  0  0  0  0  0
   21.6551  -25.5783  -13.3744 C   0  0  0  0  0  0  0  0  0  0  0  0
   22.7694  -24.9662  -14.1616 C   0  0  2  0  0  0  0  0  0  0  0  0
   23.9192  -25.8109  -14.2329 N   0  0  0  0  0  0  0  0  0  0  0  0
   23.1534  -23.6141  -13.7205 C   0  0  0  0  0  0  0  0  0  0  0  0
   22.3279  -22.6752  -13.5549 O   0  0  0  0  0  0  0  0  0  0  0  0
   24.9769  -21.4135   -9.7878 N   0  0  0  0  0  0  0  0  0  0  0  0
   25.6572  -20.3485  -10.4385 C   0  0  0  0  0  0  0  0  0  0  0  0
   25.5106  -19.1538  -10.0523 O   0  0  0  0  0  0  0  0  0  0  0  0
   26.5429  -20.7092  -11.5878 C   0  0  0  0  0  0  0  0  0  0  0  0
   26.1184  -22.0635  -12.0726 C   0  0  0  0  0  0  0  0  0  0  0  0
   24.9696  -22.0289  -13.0243 C   0  0  2  0  0  0  0  0  0  0  0  0
   24.5194  -23.3276  -13.4619 N   0  0  0  0  0  0  0  0  0  0  0  0
   25.2016  -21.1099  -14.1774 C   0  0  0  0  0  0  0  0  0  0  0  0
   26.1169  -21.3262  -15.0143 O   0  0  0  0  0  0  0  0  0  0  0  0
   24.0594  -14.0489  -17.5565 N   0  0  0  0  0  0  0  0  0  0  0  0
   23.2063  -14.5446  -18.5689 C   0  0  0  0  0  0  0  0  0  0  0  0
   23.1665  -14.0098  -19.7345 N   0  0  0  0  0  0  0  0  0  0  0  0
   22.3688  -15.6677  -18.2774 N   0  0  0  0  0  0  0  0  0  0  0  0
   22.3539  -16.2783  -16.9680 C   0  0  0  0  0  0  0  0  0  0  0  0
   23.4934  -17.3314  -16.9349 C   0  0  0  0  0  0  0  0  0  0  0  0
   23.4522  -18.0779  -15.6312 C   0  0  0  0  0  0  0  0  0  0  0  0
   24.4631  -19.1550  -15.6115 C   0  0  2  0  0  0  0  0  0  0  0  0
   24.4105  -19.9509  -14.3925 N   0  0  0  0  0  0  0  0  0  0  0  0
   25.8195  -18.6397  -15.8581 C   0  0  0  0  0  0  0  0  0  0  0  0
   26.5938  -18.3099  -14.7406 O   0  0  0  0  0  0  0  0  0  0  0  0
   26.3405  -18.4708  -16.9582 O   0  0  0  0  0  0  0  0  0  0  0  0
  1  2  1  0
  2  3  2  0
  2  4  1  0
  4  5  1  0
  5  6  1  0
  6  7  1  1
  8  6  1  0
  8 16  1  0
  9  8  2  0
 11 12  2  0
 11 10  1  0
 13 11  1  0
 14 13  1  0
 15 16  1  0
 15 14  1  6
 17 27  1  0
 17 15  1  0
 18 17  2  0
 20 19  1  0
 20 22  1  0
 21 20  2  0
 23 22  1  0
 24 23  1  0
 25 24  1  0
 26 27  1  0
 26 25  1  1
 28 26  1  0
 29 28  1  0
 30 28  2  0
M  END
$$$$
