QQR.pdb
     RDKit          3D

 30 29  0  0  1  0  0  0  0  0999 V2000
   25.5835  -25.6138  -18.7068 N   0  0  0  0  0  0  0  0  0  0  0  0
   26.0079  -24.6246  -19.6483 C   0  0  0  0  0  0  0  0  0  0  0  0
   26.4778  -25.0365  -20.7358 O   0  0  0  0  0  0  0  0  0  0  0  0
   25.9163  -23.1683  -19.3944 C   0  0  0  0  0  0  0  0  0  0  0  0
   25.2218  -22.9436  -18.0929 C   0  0  0  0  0  0  0  0  0  0  0  0
   26.1295  -22.7373  -16.9226 C   0  0  2  0  0  0  0  0  0  0  0  0
   27.3193  -23.5236  -17.0060 N   0  0  0  0  0  0  0  0  0  0  0  0
   25.4829  -22.9238  -15.6121 C   0  0  0  0  0  0  0  0  0  0  0  0
   25.2324  -24.0550  -15.1141 O   0  0  0  0  0  0  0  0  0  0  0  0
   26.6432  -19.5521  -10.8500 N   0  0  0  0  0  0  0  0  0  0  0  0
   25.6981  -20.4001  -10.2112 C   0  0  0  0  0  0  0  0  0  0  0  0
   25.5831  -20.4101   -8.9524 O   0  0  0  0  0  0  0  0  0  0  0  0
   24.8585  -21.2679  -11.0929 C   0  0  0  0  0  0  0  0  0  0  0  0
   25.3220  -21.0551  -12.5033 C   0  0  0  0  0  0  0  0  0  0  0  0
   24.5950  -21.8857  -13.5073 C   0  0  2  0  0  0  0  0  0  0  0  0
   25.1119  -21.7850  -14.8502 N   0  0  0  0  0  0  0  0  0  0  0  0
   23.1175  -21.6765  -13.4697 C   0  0  0  0  0  0  0  0  0  0  0  0
   22.5758  -20.7153  -14.0759 O   0  0  0  0  0  0  0  0  0  0  0  0
   17.3337  -26.4499   -9.2024 N   0  0  0  0  0  0  0  0  0  0  0  0
   17.7368  -25.1815   -8.7258 C   0  0  0  0  0  0  0  0  0  0  0  0
   17.6681  -24.8795   -7.4807 N   0  0  0  0  0  0  0  0  0  0  0  0
   18.2290  -24.2169   -9.6611 N   0  0  0  0  0  0  0  0  0  0  0  0
   17.9896  -24.3507  -11.0797 C   0  0  0  0  0  0  0  0  0  0  0  0
   18.6676  -23.1429  -11.7798 C   0  0  0  0  0  0  0  0  0  0  0  0
   20.1598  -23.3202  -11.7585 C   0  0  0  0  0  0  0  0  0  0  0  0
   20.8215  -22.2972  -12.5938 C   0  0  2  0  0  0  0  0  0  0  0  0
   22.2486  -22.5417  -12.7541 N   0  0  0  0  0  0  0  0  0  0  0  0
   20.5623  -20.9346  -12.1018 C   0  0  0  0  0  0  0  0  0  0  0  0
   19.5025  -20.2322  -12.6854 O   0  0  0  0  0  0  0  0  0  0  0  0
   21.1910  -20.3512  -11.2217 O   0  0  0  0  0  0  0  0  0  0  0  0
  1  2  1  0
  2  3  2  0
  2  4  1  0
  4  5  1  0
  5  6  1  0
  6  7  1  6
  8  6  1  0
  8 16  1  0
  9  8  2  0
 11 12  2  0
 11 10  1  0
 13 11  1  0
 14 13  1  0
 15 16  1  0
 15 14  1  1
 17 27  1  0
 17 15  1  0
 18 17  2  0
 20 19  1  0
 20 22  1  0
 21 20  2  0
 23 22  1  0
 24 23  1  0
 25 24  1  0
 26 27  1  0
 26 25  1  1
 28 26  1  0
 29 28  1  0
 30 28  2  0
M  END
$$$$
