QQR.pdb
     RDKit          3D

 30 29  0  0  1  0  0  0  0  0999 V2000
   25.6269  -14.9900  -21.6968 N   0  0  0  0  0  0  0  0  0  0  0  0
   24.5538  -14.3386  -21.0119 C   0  0  0  0  0  0  0  0  0  0  0  0
   24.5192  -13.0861  -21.0664 O   0  0  0  0  0  0  0  0  0  0  0  0
   23.5079  -15.0685  -20.2589 C   0  0  0  0  0  0  0  0  0  0  0  0
   23.7598  -16.5350  -20.3725 C   0  0  0  0  0  0  0  0  0  0  0  0
   23.0686  -17.3736  -19.3454 C   0  0  2  0  0  0  0  0  0  0  0  0
   22.1083  -16.6341  -18.5892 N   0  0  0  0  0  0  0  0  0  0  0  0
   23.9780  -18.1033  -18.4450 C   0  0  0  0  0  0  0  0  0  0  0  0
   24.9110  -18.8480  -18.8518 O   0  0  0  0  0  0  0  0  0  0  0  0
   27.6247  -19.3962  -15.5949 N   0  0  0  0  0  0  0  0  0  0  0  0
   27.7512  -18.1271  -16.2225 C   0  0  0  0  0  0  0  0  0  0  0  0
   28.7975  -17.8222  -16.8629 O   0  0  0  0  0  0  0  0  0  0  0  0
   26.5987  -17.1842  -16.0877 C   0  0  0  0  0  0  0  0  0  0  0  0
   25.5426  -17.8801  -15.2817 C   0  0  0  0  0  0  0  0  0  0  0  0
   24.6182  -18.7197  -16.0984 C   0  0  2  0  0  0  0  0  0  0  0  0
   23.8157  -17.9784  -17.0403 N   0  0  0  0  0  0  0  0  0  0  0  0
   23.7840  -19.6370  -15.2674 C   0  0  0  0  0  0  0  0  0  0  0  0
   22.5455  -19.4554  -15.1326 O   0  0  0  0  0  0  0  0  0  0  0  0
   29.0882  -20.8033   -9.2395 N   0  0  0  0  0  0  0  0  0  0  0  0
   28.8072  -20.9428  -10.6179 C   0  0  0  0  0  0  0  0  0  0  0  0
   29.7455  -21.0230  -11.4894 N   0  0  0  0  0  0  0  0  0  0  0  0
   27.4417  -20.9922  -11.0427 N   0  0  0  0  0  0  0  0  0  0  0  0
   26.3847  -21.3884  -10.1409 C   0  0  0  0  0  0  0  0  0  0  0  0
   25.0569  -21.3628  -10.9439 C   0  0  0  0  0  0  0  0  0  0  0  0
   25.3496  -21.0983  -12.3940 C   0  0  0  0  0  0  0  0  0  0  0  0
   24.0995  -21.0378  -13.1789 C   0  0  2  0  0  0  0  0  0  0  0  0
   24.3357  -20.7550  -14.5882 N   0  0  0  0  0  0  0  0  0  0  0  0
   23.1308  -20.0949  -12.5970 C   0  0  0  0  0  0  0  0  0  0  0  0
   22.2178  -20.6046  -11.6677 O   0  0  0  0  0  0  0  0  0  0  0  0
   23.0468  -18.8953  -12.8504 O   0  0  0  0  0  0  0  0  0  0  0  0
  1  2  1  0
  2  3  2  0
  2  4  1  0
  4  5  1  0
  5  6  1  0
  6  7  1  1
  8  6  1  0
  8 16  1  0
  9  8  2  0
 11 12  2  0
 11 10  1  0
 13 11  1  0
 14 13  1  0
 15 16  1  0
 15 14  1  1
 17 27  1  0
 17 15  1  0
 18 17  2  0
 20 19  1  0
 20 22  1  0
 21 20  2  0
 23 22  1  0
 24 23  1  0
 25 24  1  0
 26 27  1  0
 26 25  1  1
 28 26  1  0
 29 28  1  0
 30 28  2  0
M  END
$$$$
