QQR.pdb
     RDKit          3D

 30 29  0  0  1  0  0  0  0  0999 V2000
   23.0864  -20.3705   -9.6211 N   0  0  0  0  0  0  0  0  0  0  0  0
   23.9630  -20.6191   -8.5190 C   0  0  0  0  0  0  0  0  0  0  0  0
   23.4324  -20.9469   -7.4309 O   0  0  0  0  0  0  0  0  0  0  0  0
   25.4369  -20.5069   -8.6110 C   0  0  0  0  0  0  0  0  0  0  0  0
   25.8049  -20.0332   -9.9775 C   0  0  0  0  0  0  0  0  0  0  0  0
   25.5738  -21.0263  -11.0712 C   0  0  2  0  0  0  0  0  0  0  0  0
   26.5275  -22.0898  -11.0570 N   0  0  0  0  0  0  0  0  0  0  0  0
   25.4840  -20.4365  -12.4182 C   0  0  0  0  0  0  0  0  0  0  0  0
   24.8500  -19.3766  -12.6732 O   0  0  0  0  0  0  0  0  0  0  0  0
   28.7491  -22.4778  -17.3170 N   0  0  0  0  0  0  0  0  0  0  0  0
   28.2312  -21.2905  -17.9023 C   0  0  0  0  0  0  0  0  0  0  0  0
   28.5933  -20.9259  -19.0572 O   0  0  0  0  0  0  0  0  0  0  0  0
   27.2495  -20.5058  -17.0924 C   0  0  0  0  0  0  0  0  0  0  0  0
   27.1086  -21.1953  -15.7681 C   0  0  0  0  0  0  0  0  0  0  0  0
   26.1707  -20.5113  -14.8304 C   0  0  2  0  0  0  0  0  0  0  0  0
   26.1371  -21.0768  -13.5038 N   0  0  0  0  0  0  0  0  0  0  0  0
   24.7985  -20.3555  -15.3967 C   0  0  0  0  0  0  0  0  0  0  0  0
   23.9773  -21.3097  -15.3975 O   0  0  0  0  0  0  0  0  0  0  0  0
   19.8715  -13.3470  -18.3468 N   0  0  0  0  0  0  0  0  0  0  0  0
   19.0179  -14.4590  -18.1647 C   0  0  0  0  0  0  0  0  0  0  0  0
   17.7479  -14.3626  -18.3195 N   0  0  0  0  0  0  0  0  0  0  0  0
   19.5918  -15.7170  -17.7963 N   0  0  0  0  0  0  0  0  0  0  0  0
   20.9852  -15.8332  -17.4325 C   0  0  0  0  0  0  0  0  0  0  0  0
   21.2507  -17.3224  -17.0856 C   0  0  0  0  0  0  0  0  0  0  0  0
   22.7057  -17.5129  -16.7610 C   0  0  0  0  0  0  0  0  0  0  0  0
   22.9965  -18.9314  -16.4684 C   0  0  2  0  0  0  0  0  0  0  0  0
   24.3471  -19.1336  -15.9614 N   0  0  0  0  0  0  0  0  0  0  0  0
   22.7219  -19.7983  -17.6256 C   0  0  0  0  0  0  0  0  0  0  0  0
   21.4211  -20.2949  -17.7612 O   0  0  0  0  0  0  0  0  0  0  0  0
   23.5306  -20.1295  -18.4897 O   0  0  0  0  0  0  0  0  0  0  0  0
  1  2  1  0
  2  3  2  0
  2  4  1  0
  4  5  1  0
  5  6  1  0
  6  7  1  6
  8  6  1  0
  8 16  1  0
  9  8  2  0
 11 12  2  0
 11 10  1  0
 13 11  1  0
 14 13  1  0
 15 16  1  0
 15 14  1  6
 17 27  1  0
 17 15  1  0
 18 17  2  0
 20 19  1  0
 20 22  1  0
 21 20  2  0
 23 22  1  0
 24 23  1  0
 25 24  1  0
 26 27  1  0
 26 25  1  6
 28 26  1  0
 29 28  1  0
 30 28  2  0
M  END
$$$$
