QQR.pdb
     RDKit          3D

 30 29  0  0  1  0  0  0  0  0999 V2000
   19.5333  -23.5402   -9.4013 N   0  0  0  0  0  0  0  0  0  0  0  0
   18.7806  -23.9521  -10.5454 C   0  0  0  0  0  0  0  0  0  0  0  0
   17.8776  -23.1778  -10.9430 O   0  0  0  0  0  0  0  0  0  0  0  0
   19.0205  -25.2266  -11.2607 C   0  0  0  0  0  0  0  0  0  0  0  0
   20.0677  -26.0030  -10.5345 C   0  0  0  0  0  0  0  0  0  0  0  0
   19.5710  -27.2269   -9.8336 C   0  0  2  0  0  0  0  0  0  0  0  0
   19.2153  -28.2720  -10.7403 N   0  0  0  0  0  0  0  0  0  0  0  0
   18.4741  -26.9788   -8.8820 C   0  0  0  0  0  0  0  0  0  0  0  0
   17.2603  -26.9193   -9.2190 O   0  0  0  0  0  0  0  0  0  0  0  0
   19.1015  -26.9374   -2.6933 N   0  0  0  0  0  0  0  0  0  0  0  0
   17.7156  -26.6267   -2.7495 C   0  0  0  0  0  0  0  0  0  0  0  0
   17.0255  -26.5488   -1.6934 O   0  0  0  0  0  0  0  0  0  0  0  0
   17.1242  -26.4001   -4.1039 C   0  0  0  0  0  0  0  0  0  0  0  0
   18.2139  -26.6191   -5.1109 C   0  0  0  0  0  0  0  0  0  0  0  0
   17.7592  -26.4927   -6.5264 C   0  0  2  0  0  0  0  0  0  0  0  0
   18.7736  -26.7933   -7.5069 N   0  0  0  0  0  0  0  0  0  0  0  0
   17.0948  -25.1855   -6.8056 C   0  0  0  0  0  0  0  0  0  0  0  0
   17.7636  -24.1576   -7.0900 O   0  0  0  0  0  0  0  0  0  0  0  0
   11.9321  -22.0913  -11.8544 N   0  0  0  0  0  0  0  0  0  0  0  0
   12.0533  -20.9054  -11.0945 C   0  0  0  0  0  0  0  0  0  0  0  0
   11.2066  -19.9478  -11.2053 N   0  0  0  0  0  0  0  0  0  0  0  0
   13.1504  -20.7774  -10.1849 N   0  0  0  0  0  0  0  0  0  0  0  0
   14.0871  -21.8573   -9.9754 C   0  0  0  0  0  0  0  0  0  0  0  0
   13.5409  -22.7249   -8.8103 C   0  0  0  0  0  0  0  0  0  0  0  0
   14.4849  -23.8635   -8.5440 C   0  0  0  0  0  0  0  0  0  0  0  0
   14.9977  -23.8069   -7.1597 C   0  0  2  0  0  0  0  0  0  0  0  0
   15.6842  -25.0299   -6.7658 N   0  0  0  0  0  0  0  0  0  0  0  0
   13.9430  -23.4494   -6.1975 C   0  0  0  0  0  0  0  0  0  0  0  0
   13.3126  -22.2120   -6.3665 O   0  0  0  0  0  0  0  0  0  0  0  0
   13.5603  -24.1381   -5.2543 O   0  0  0  0  0  0  0  0  0  0  0  0
  1  2  1  0
  2  3  2  0
  2  4  1  0
  4  5  1  0
  5  6  1  0
  6  7  1  6
  8  6  1  0
  8 16  1  0
  9  8  2  0
 11 12  2  0
 11 10  1  0
 13 11  1  0
 14 13  1  0
 15 16  1  0
 15 14  1  1
 17 27  1  0
 17 15  1  0
 18 17  2  0
 20 19  1  0
 20 22  1  0
 21 20  2  0
 23 22  1  0
 24 23  1  0
 25 24  1  0
 26 27  1  0
 26 25  1  6
 28 26  1  0
 29 28  1  0
 30 28  2  0
M  END
$$$$
