QQR.pdb
     RDKit          3D

 30 29  0  0  1  0  0  0  0  0999 V2000
   24.1339  -28.2388  -16.3229 N   0  0  0  0  0  0  0  0  0  0  0  0
   23.5011  -27.7614  -17.5132 C   0  0  0  0  0  0  0  0  0  0  0  0
   23.5616  -28.4983  -18.5262 O   0  0  0  0  0  0  0  0  0  0  0  0
   22.7950  -26.4620  -17.5934 C   0  0  0  0  0  0  0  0  0  0  0  0
   22.7900  -25.8261  -16.2434 C   0  0  0  0  0  0  0  0  0  0  0  0
   21.4450  -25.7333  -15.5965 C   0  0  2  0  0  0  0  0  0  0  0  0
   20.4249  -25.3229  -16.5084 N   0  0  0  0  0  0  0  0  0  0  0  0
   21.4115  -24.9007  -14.3816 C   0  0  0  0  0  0  0  0  0  0  0  0
   22.2349  -25.0190  -13.4337 O   0  0  0  0  0  0  0  0  0  0  0  0
   20.0149  -19.1036  -14.1008 N   0  0  0  0  0  0  0  0  0  0  0  0
   20.0469  -19.2989  -12.6931 C   0  0  0  0  0  0  0  0  0  0  0  0
   19.9846  -18.3159  -11.9009 O   0  0  0  0  0  0  0  0  0  0  0  0
   20.1566  -20.7077  -12.2046 C   0  0  0  0  0  0  0  0  0  0  0  0
   20.3218  -21.5875  -13.4080 C   0  0  0  0  0  0  0  0  0  0  0  0
   20.3198  -23.0458  -13.0919 C   0  0  2  0  0  0  0  0  0  0  0  0
   20.4082  -23.9056  -14.2467 N   0  0  0  0  0  0  0  0  0  0  0  0
   19.1930  -23.4417  -12.1965 C   0  0  0  0  0  0  0  0  0  0  0  0
   18.0332  -23.6322  -12.6474 O   0  0  0  0  0  0  0  0  0  0  0  0
   18.4071  -26.6743   -3.8291 N   0  0  0  0  0  0  0  0  0  0  0  0
   17.1074  -26.3707   -4.2950 C   0  0  0  0  0  0  0  0  0  0  0  0
   16.0656  -26.6231   -3.5899 N   0  0  0  0  0  0  0  0  0  0  0  0
   16.9592  -25.7705   -5.5855 N   0  0  0  0  0  0  0  0  0  0  0  0
   18.1039  -25.3274   -6.3477 C   0  0  0  0  0  0  0  0  0  0  0  0
   17.5757  -24.7778   -7.6996 C   0  0  0  0  0  0  0  0  0  0  0  0
   18.7328  -24.3375   -8.5515 C   0  0  0  0  0  0  0  0  0  0  0  0
   18.2664  -23.8942   -9.8813 C   0  0  2  0  0  0  0  0  0  0  0  0
   19.3648  -23.6232  -10.7990 N   0  0  0  0  0  0  0  0  0  0  0  0
   17.3496  -22.7467   -9.7873 C   0  0  0  0  0  0  0  0  0  0  0  0
   16.0025  -23.0210   -9.5282 O   0  0  0  0  0  0  0  0  0  0  0  0
   17.6560  -21.5635   -9.9150 O   0  0  0  0  0  0  0  0  0  0  0  0
  1  2  1  0
  2  3  2  0
  2  4  1  0
  4  5  1  0
  5  6  1  0
  6  7  1  6
  8  6  1  0
  8 16  1  0
  9  8  2  0
 11 12  2  0
 11 10  1  0
 13 11  1  0
 14 13  1  0
 15 16  1  0
 15 14  1  6
 17 27  1  0
 17 15  1  0
 18 17  2  0
 20 19  1  0
 20 22  1  0
 21 20  2  0
 23 22  1  0
 24 23  1  0
 25 24  1  0
 26 27  1  0
 26 25  1  1
 28 26  1  0
 29 28  1  0
 30 28  2  0
M  END
$$$$
