QQR.pdb
     RDKit          3D

 30 29  0  0  1  0  0  0  0  0999 V2000
   28.6933  -17.4447  -17.6466 N   0  0  0  0  0  0  0  0  0  0  0  0
   27.5169  -18.2377  -17.8264 C   0  0  0  0  0  0  0  0  0  0  0  0
   26.8898  -18.0920  -18.9027 O   0  0  0  0  0  0  0  0  0  0  0  0
   27.0230  -19.2004  -16.8151 C   0  0  0  0  0  0  0  0  0  0  0  0
   27.9552  -19.2039  -15.6498 C   0  0  0  0  0  0  0  0  0  0  0  0
   28.1515  -20.5387  -15.0049 C   0  0  2  0  0  0  0  0  0  0  0  0
   28.7834  -21.4801  -15.8739 N   0  0  0  0  0  0  0  0  0  0  0  0
   26.9280  -21.1185  -14.4242 C   0  0  0  0  0  0  0  0  0  0  0  0
   26.2339  -21.9997  -15.0004 O   0  0  0  0  0  0  0  0  0  0  0  0
   24.9100  -20.4200   -8.5064 N   0  0  0  0  0  0  0  0  0  0  0  0
   26.2730  -20.5636   -8.8833 C   0  0  0  0  0  0  0  0  0  0  0  0
   27.1989  -20.4160   -8.0355 O   0  0  0  0  0  0  0  0  0  0  0  0
   26.5513  -20.8935  -10.3148 C   0  0  0  0  0  0  0  0  0  0  0  0
   25.2359  -20.9076  -11.0351 C   0  0  0  0  0  0  0  0  0  0  0  0
   25.3458  -21.2571  -12.4816 C   0  0  2  0  0  0  0  0  0  0  0  0
   26.4858  -20.6779  -13.1493 N   0  0  0  0  0  0  0  0  0  0  0  0
   24.0816  -21.0064  -13.2346 C   0  0  0  0  0  0  0  0  0  0  0  0
   23.8848  -19.9219  -13.8428 O   0  0  0  0  0  0  0  0  0  0  0  0
   17.3509  -26.1174  -16.3929 N   0  0  0  0  0  0  0  0  0  0  0  0
   16.9930  -24.7638  -16.5875 C   0  0  0  0  0  0  0  0  0  0  0  0
   15.9059  -24.4362  -17.1853 N   0  0  0  0  0  0  0  0  0  0  0  0
   17.8706  -23.7414  -16.1058 N   0  0  0  0  0  0  0  0  0  0  0  0
   19.0946  -24.0640  -15.4093 C   0  0  0  0  0  0  0  0  0  0  0  0
   19.8072  -22.7250  -15.0804 C   0  0  0  0  0  0  0  0  0  0  0  0
   21.0974  -23.0037  -14.3619 C   0  0  0  0  0  0  0  0  0  0  0  0
   21.7838  -21.7442  -14.0089 C   0  0  2  0  0  0  0  0  0  0  0  0
   23.0398  -21.9682  -13.3058 N   0  0  0  0  0  0  0  0  0  0  0  0
   20.9051  -20.8309  -13.2607 C   0  0  0  0  0  0  0  0  0  0  0  0
   19.9406  -20.1272  -13.9898 O   0  0  0  0  0  0  0  0  0  0  0  0
   20.9373  -20.6262  -12.0493 O   0  0  0  0  0  0  0  0  0  0  0  0
  1  2  1  0
  2  3  2  0
  2  4  1  0
  4  5  1  0
  5  6  1  0
  6  7  1  6
  8  6  1  0
  8 16  1  0
  9  8  2  0
 11 12  2  0
 11 10  1  0
 13 11  1  0
 14 13  1  0
 15 16  1  0
 15 14  1  1
 17 27  1  0
 17 15  1  0
 18 17  2  0
 20 19  1  0
 20 22  1  0
 21 20  2  0
 23 22  1  0
 24 23  1  0
 25 24  1  0
 26 27  1  0
 26 25  1  1
 28 26  1  0
 29 28  1  0
 30 28  2  0
M  END
$$$$
