QQR.pdb
     RDKit          3D

 30 29  0  0  1  0  0  0  0  0999 V2000
   26.9605  -19.7035  -13.3802 N   0  0  0  0  0  0  0  0  0  0  0  0
   27.4787  -19.4683  -14.6921 C   0  0  0  0  0  0  0  0  0  0  0  0
   28.4101  -20.2135  -15.0796 O   0  0  0  0  0  0  0  0  0  0  0  0
   26.9704  -18.4044  -15.5884 C   0  0  0  0  0  0  0  0  0  0  0  0
   25.8356  -17.7041  -14.9185 C   0  0  0  0  0  0  0  0  0  0  0  0
   25.2257  -16.5927  -15.7115 C   0  0  2  0  0  0  0  0  0  0  0  0
   25.4499  -16.7333  -17.1153 N   0  0  0  0  0  0  0  0  0  0  0  0
   25.6124  -15.2437  -15.2634 C   0  0  0  0  0  0  0  0  0  0  0  0
   25.5384  -14.8605  -14.0642 O   0  0  0  0  0  0  0  0  0  0  0  0
   29.8497  -11.4772  -17.3584 N   0  0  0  0  0  0  0  0  0  0  0  0
   29.1991  -10.5529  -16.4965 C   0  0  0  0  0  0  0  0  0  0  0  0
   29.7448   -9.4533  -16.1950 O   0  0  0  0  0  0  0  0  0  0  0  0
   27.8545  -10.9431  -15.9720 C   0  0  0  0  0  0  0  0  0  0  0  0
   27.6107  -12.3660  -16.3786 C   0  0  0  0  0  0  0  0  0  0  0  0
   26.3129  -12.9172  -15.8906 C   0  0  2  0  0  0  0  0  0  0  0  0
   26.0969  -14.3065  -16.2132 N   0  0  0  0  0  0  0  0  0  0  0  0
   25.1440  -12.0743  -16.2795 C   0  0  0  0  0  0  0  0  0  0  0  0
   24.7288  -12.0371  -17.4674 O   0  0  0  0  0  0  0  0  0  0  0  0
   16.8397  -11.8665  -14.3203 N   0  0  0  0  0  0  0  0  0  0  0  0
   17.0338  -10.8898  -15.3236 C   0  0  0  0  0  0  0  0  0  0  0  0
   16.0436  -10.3542  -15.9394 N   0  0  0  0  0  0  0  0  0  0  0  0
   18.3690  -10.4971  -15.6560 N   0  0  0  0  0  0  0  0  0  0  0  0
   19.5157  -11.1315  -15.0477 C   0  0  0  0  0  0  0  0  0  0  0  0
   20.7835  -10.4394  -15.6154 C   0  0  0  0  0  0  0  0  0  0  0  0
   22.0094  -11.1774  -15.1560 C   0  0  0  0  0  0  0  0  0  0  0  0
   23.2346  -10.5259  -15.6628 C   0  0  2  0  0  0  0  0  0  0  0  0
   24.4420  -11.2743  -15.3400 N   0  0  0  0  0  0  0  0  0  0  0  0
   23.3358   -9.1262  -15.2195 C   0  0  0  0  0  0  0  0  0  0  0  0
   22.5179   -8.1893  -15.8602 O   0  0  0  0  0  0  0  0  0  0  0  0
   24.0740   -8.6989  -14.3348 O   0  0  0  0  0  0  0  0  0  0  0  0
  1  2  1  0
  2  3  2  0
  2  4  1  0
  4  5  1  0
  5  6  1  0
  6  7  1  6
  8  6  1  0
  8 16  1  0
  9  8  2  0
 11 12  2  0
 11 10  1  0
 13 11  1  0
 14 13  1  0
 15 16  1  0
 15 14  1  6
 17 27  1  0
 17 15  1  0
 18 17  2  0
 20 19  1  0
 20 22  1  0
 21 20  2  0
 23 22  1  0
 24 23  1  0
 25 24  1  0
 26 27  1  0
 26 25  1  1
 28 26  1  0
 29 28  1  0
 30 28  2  0
M  END
$$$$
