QQR.pdb
     RDKit          3D

 30 29  0  0  1  0  0  0  0  0999 V2000
   28.1320  -24.4829  -17.0046 N   0  0  0  0  0  0  0  0  0  0  0  0
   28.8872  -23.3442  -17.4264 C   0  0  0  0  0  0  0  0  0  0  0  0
   29.5470  -23.4583  -18.4869 O   0  0  0  0  0  0  0  0  0  0  0  0
   28.9195  -22.0670  -16.6772 C   0  0  0  0  0  0  0  0  0  0  0  0
   28.0933  -22.2058  -15.4423 C   0  0  0  0  0  0  0  0  0  0  0  0
   27.1931  -21.0471  -15.1539 C   0  0  2  0  0  0  0  0  0  0  0  0
   27.9151  -19.8656  -14.8029 N   0  0  0  0  0  0  0  0  0  0  0  0
   26.1473  -21.3246  -14.1541 C   0  0  0  0  0  0  0  0  0  0  0  0
   25.2268  -22.1694  -14.3256 O   0  0  0  0  0  0  0  0  0  0  0  0
   25.9262  -19.0501   -8.3256 N   0  0  0  0  0  0  0  0  0  0  0  0
   26.5859  -20.2963   -8.5056 C   0  0  0  0  0  0  0  0  0  0  0  0
   27.3543  -20.7576   -7.6142 O   0  0  0  0  0  0  0  0  0  0  0  0
   26.3276  -21.0232   -9.7864 C   0  0  0  0  0  0  0  0  0  0  0  0
   25.4181  -20.1642  -10.6135 C   0  0  0  0  0  0  0  0  0  0  0  0
   25.0967  -20.7421  -11.9511 C   0  0  2  0  0  0  0  0  0  0  0  0
   26.1542  -20.6161  -12.9241 N   0  0  0  0  0  0  0  0  0  0  0  0
   23.7919  -20.2587  -12.4913 C   0  0  0  0  0  0  0  0  0  0  0  0
   23.6297  -19.0593  -12.8378 O   0  0  0  0  0  0  0  0  0  0  0  0
   20.9942  -16.9060  -17.8463 N   0  0  0  0  0  0  0  0  0  0  0  0
   20.8201  -18.1552  -18.4847 C   0  0  0  0  0  0  0  0  0  0  0  0
   20.7719  -18.2547  -19.7630 N   0  0  0  0  0  0  0  0  0  0  0  0
   20.6927  -19.3307  -17.6788 N   0  0  0  0  0  0  0  0  0  0  0  0
   20.6542  -19.2563  -16.2364 C   0  0  0  0  0  0  0  0  0  0  0  0
   20.5149  -20.7065  -15.7013 C   0  0  0  0  0  0  0  0  0  0  0  0
   21.7317  -21.0656  -14.8956 C   0  0  0  0  0  0  0  0  0  0  0  0
   21.5112  -20.7894  -13.4612 C   0  0  2  0  0  0  0  0  0  0  0  0
   22.6710  -21.1167  -12.6427 N   0  0  0  0  0  0  0  0  0  0  0  0
   20.2949  -21.4461  -12.9560 C   0  0  0  0  0  0  0  0  0  0  0  0
   19.0700  -20.8308  -13.2356 O   0  0  0  0  0  0  0  0  0  0  0  0
   20.2517  -22.4897  -12.3086 O   0  0  0  0  0  0  0  0  0  0  0  0
  1  2  1  0
  2  3  2  0
  2  4  1  0
  4  5  1  0
  5  6  1  0
  6  7  1  1
  8  6  1  0
  8 16  1  0
  9  8  2  0
 11 12  2  0
 11 10  1  0
 13 11  1  0
 14 13  1  0
 15 16  1  0
 15 14  1  1
 17 27  1  0
 17 15  1  0
 18 17  2  0
 20 19  1  0
 20 22  1  0
 21 20  2  0
 23 22  1  0
 24 23  1  0
 25 24  1  0
 26 27  1  0
 26 25  1  6
 28 26  1  0
 29 28  1  0
 30 28  2  0
M  END
$$$$
