QQR.pdb
     RDKit          3D

 30 29  0  0  1  0  0  0  0  0999 V2000
   32.7339  -25.9451  -14.8954 N   0  0  0  0  0  0  0  0  0  0  0  0
   33.0924  -26.0074  -16.2784 C   0  0  0  0  0  0  0  0  0  0  0  0
   33.7039  -27.0325  -16.6634 O   0  0  0  0  0  0  0  0  0  0  0  0
   32.7772  -24.9343  -17.2492 C   0  0  0  0  0  0  0  0  0  0  0  0
   31.9592  -23.8875  -16.5695 C   0  0  0  0  0  0  0  0  0  0  0  0
   30.4800  -24.0533  -16.7127 C   0  0  2  0  0  0  0  0  0  0  0  0
   30.0750  -24.2121  -18.0734 N   0  0  0  0  0  0  0  0  0  0  0  0
   29.6847  -22.9982  -16.0611 C   0  0  0  0  0  0  0  0  0  0  0  0
   29.9112  -22.5759  -14.8946 O   0  0  0  0  0  0  0  0  0  0  0  0
   25.9920  -19.1064  -19.1247 N   0  0  0  0  0  0  0  0  0  0  0  0
   25.7063  -18.6271  -17.8174 C   0  0  0  0  0  0  0  0  0  0  0  0
   24.9509  -17.6286  -17.6438 O   0  0  0  0  0  0  0  0  0  0  0  0
   26.3371  -19.3548  -16.6737 C   0  0  0  0  0  0  0  0  0  0  0  0
   27.1724  -20.4585  -17.2510 C   0  0  0  0  0  0  0  0  0  0  0  0
   27.8284  -21.3176  -16.2224 C   0  0  2  0  0  0  0  0  0  0  0  0
   28.6000  -22.4100  -16.7628 N   0  0  0  0  0  0  0  0  0  0  0  0
   26.8801  -21.7830  -15.1678 C   0  0  0  0  0  0  0  0  0  0  0  0
   26.0023  -22.6515  -15.4125 O   0  0  0  0  0  0  0  0  0  0  0  0
   22.6122  -21.3785   -7.5566 N   0  0  0  0  0  0  0  0  0  0  0  0
   22.1085  -20.7006   -8.6902 C   0  0  0  0  0  0  0  0  0  0  0  0
   20.8519  -20.4918   -8.8439 N   0  0  0  0  0  0  0  0  0  0  0  0
   23.0283  -20.2425   -9.6860 N   0  0  0  0  0  0  0  0  0  0  0  0
   24.1764  -21.0301  -10.0723 C   0  0  0  0  0  0  0  0  0  0  0  0
   24.9894  -20.1929  -11.0955 C   0  0  0  0  0  0  0  0  0  0  0  0
   26.2041  -20.9654  -11.5271 C   0  0  0  0  0  0  0  0  0  0  0  0
   25.9586  -21.6550  -12.8102 C   0  0  2  0  0  0  0  0  0  0  0  0
   26.9146  -21.2763  -13.8420 N   0  0  0  0  0  0  0  0  0  0  0  0
   24.5723  -21.4787  -13.2720 C   0  0  0  0  0  0  0  0  0  0  0  0
   23.6540  -22.4817  -12.9437 O   0  0  0  0  0  0  0  0  0  0  0  0
   24.1413  -20.5289  -13.9219 O   0  0  0  0  0  0  0  0  0  0  0  0
  1  2  1  0
  2  3  2  0
  2  4  1  0
  4  5  1  0
  5  6  1  0
  6  7  1  6
  8  6  1  0
  8 16  1  0
  9  8  2  0
 11 12  2  0
 11 10  1  0
 13 11  1  0
 14 13  1  0
 15 16  1  0
 15 14  1  6
 17 27  1  0
 17 15  1  0
 18 17  2  0
 20 19  1  0
 20 22  1  0
 21 20  2  0
 23 22  1  0
 24 23  1  0
 25 24  1  0
 26 27  1  0
 26 25  1  1
 28 26  1  0
 29 28  1  0
 30 28  2  0
M  END
$$$$
