QQR.pdb
     RDKit          3D

 30 29  0  0  1  0  0  0  0  0999 V2000
   24.4167  -21.1543  -18.4303 N   0  0  0  0  0  0  0  0  0  0  0  0
   25.6310  -21.1028  -19.1838 C   0  0  0  0  0  0  0  0  0  0  0  0
   25.9750  -22.1492  -19.7836 O   0  0  0  0  0  0  0  0  0  0  0  0
   26.4772  -19.8911  -19.2803 C   0  0  0  0  0  0  0  0  0  0  0  0
   26.5830  -19.2623  -17.9311 C   0  0  0  0  0  0  0  0  0  0  0  0
   27.5911  -19.8893  -17.0219 C   0  0  2  0  0  0  0  0  0  0  0  0
   28.4311  -20.8267  -17.6976 N   0  0  0  0  0  0  0  0  0  0  0  0
   27.0193  -20.4961  -15.8075 C   0  0  0  0  0  0  0  0  0  0  0  0
   27.2724  -21.6732  -15.4320 O   0  0  0  0  0  0  0  0  0  0  0  0
   27.7318  -21.4164  -11.4645 N   0  0  0  0  0  0  0  0  0  0  0  0
   26.5674  -21.0889  -10.7179 C   0  0  0  0  0  0  0  0  0  0  0  0
   26.2655  -21.7321   -9.6725 O   0  0  0  0  0  0  0  0  0  0  0  0
   25.7293  -19.9598  -11.2262 C   0  0  0  0  0  0  0  0  0  0  0  0
   26.3003  -19.5374  -12.5471 C   0  0  0  0  0  0  0  0  0  0  0  0
   25.6592  -20.2013  -13.7196 C   0  0  2  0  0  0  0  0  0  0  0  0
   26.1331  -19.7360  -15.0001 N   0  0  0  0  0  0  0  0  0  0  0  0
   24.1683  -20.1886  -13.6472 C   0  0  0  0  0  0  0  0  0  0  0  0
   23.5146  -19.1207  -13.7785 O   0  0  0  0  0  0  0  0  0  0  0  0
   17.8439  -24.2671  -10.3155 N   0  0  0  0  0  0  0  0  0  0  0  0
   17.1764  -24.0812  -11.5477 C   0  0  0  0  0  0  0  0  0  0  0  0
   15.9035  -23.9308  -11.6055 N   0  0  0  0  0  0  0  0  0  0  0  0
   17.9458  -24.0644  -12.7541 N   0  0  0  0  0  0  0  0  0  0  0  0
   19.3882  -24.1436  -12.7305 C   0  0  0  0  0  0  0  0  0  0  0  0
   19.9339  -22.6972  -12.8667 C   0  0  0  0  0  0  0  0  0  0  0  0
   21.4281  -22.7347  -13.0231 C   0  0  0  0  0  0  0  0  0  0  0  0
   21.9686  -21.3748  -13.2253 C   0  0  2  0  0  0  0  0  0  0  0  0
   23.4112  -21.3693  -13.4279 N   0  0  0  0  0  0  0  0  0  0  0  0
   21.5753  -20.4606  -12.1410 C   0  0  0  0  0  0  0  0  0  0  0  0
   20.3410  -19.8136  -12.2632 O   0  0  0  0  0  0  0  0  0  0  0  0
   22.2309  -20.2100  -11.1323 O   0  0  0  0  0  0  0  0  0  0  0  0
  1  2  1  0
  2  3  2  0
  2  4  1  0
  4  5  1  0
  5  6  1  0
  6  7  1  6
  8  6  1  0
  8 16  1  0
  9  8  2  0
 11 12  2  0
 11 10  1  0
 13 11  1  0
 14 13  1  0
 15 16  1  0
 15 14  1  1
 17 27  1  0
 17 15  1  0
 18 17  2  0
 20 19  1  0
 20 22  1  0
 21 20  2  0
 23 22  1  0
 24 23  1  0
 25 24  1  0
 26 27  1  0
 26 25  1  1
 28 26  1  0
 29 28  1  0
 30 28  2  0
M  END
$$$$
