QKW.pdb
     RDKit          3D

 33 34  0  0  1  0  0  0  0  0999 V2000
   27.8173  -14.9545  -16.0380 N   0  0  0  0  0  0  0  0  0  0  0  0
   26.4754  -15.4100  -16.0307 C   0  0  0  0  0  0  0  0  0  0  0  0
   25.6511  -14.8206  -15.2904 O   0  0  0  0  0  0  0  0  0  0  0  0
   26.1458  -16.5606  -16.9074 C   0  0  0  0  0  0  0  0  0  0  0  0
   27.4260  -17.0198  -17.5704 C   0  0  0  0  0  0  0  0  0  0  0  0
   27.1809  -18.2171  -18.4720 C   0  0  2  0  0  0  0  0  0  0  0  0
   26.2164  -17.8284  -19.5016 N   0  0  0  0  0  0  0  0  0  0  0  0
   26.6570  -19.3720  -17.7520 C   0  0  0  0  0  0  0  0  0  0  0  0
   25.4217  -19.4045  -17.4281 O   0  0  0  0  0  0  0  0  0  0  0  0
   27.3911  -20.5079  -17.3553 N   0  0  0  0  0  0  0  0  0  0  0  0
   26.8129  -21.6166  -16.5709 C   0  0  1  0  0  0  0  0  0  0  0  0
   27.6507  -22.8120  -17.0471 C   0  0  0  0  0  0  0  0  0  0  0  0
   27.2832  -24.1013  -16.4150 C   0  0  0  0  0  0  0  0  0  0  0  0
   28.1761  -25.2435  -16.9220 C   0  0  0  0  0  0  0  0  0  0  0  0
   27.7104  -26.5722  -16.3705 C   0  0  0  0  0  0  0  0  0  0  0  0
   28.5735  -27.6007  -16.9231 N   0  0  0  0  0  0  0  0  0  0  0  0
   26.9445  -21.3606  -15.1314 C   0  0  0  0  0  0  0  0  0  0  0  0
   28.0697  -20.9892  -14.6615 O   0  0  0  0  0  0  0  0  0  0  0  0
   25.8866  -21.4966  -14.2000 N   0  0  0  0  0  0  0  0  0  0  0  0
   26.0927  -21.2851  -12.7648 C   0  0  1  0  0  0  0  0  0  0  0  0
   25.2997  -20.1124  -12.2890 C   0  0  0  0  0  0  0  0  0  0  0  0
   23.8675  -20.2428  -12.5434 C   0  0  0  0  0  0  0  0  0  0  0  0
   22.9533  -20.7803  -11.6266 C   0  0  0  0  0  0  0  0  0  0  0  0
   21.7479  -20.8006  -12.1799 N   0  0  0  0  0  0  0  0  0  0  0  0
   21.8105  -20.3017  -13.4219 C   0  0  0  0  0  0  0  0  0  0  0  0
   20.8636  -20.0854  -14.3927 C   0  0  0  0  0  0  0  0  0  0  0  0
   21.1854  -19.5234  -15.6056 C   0  0  0  0  0  0  0  0  0  0  0  0
   22.4905  -19.1655  -15.8578 C   0  0  0  0  0  0  0  0  0  0  0  0
   23.4412  -19.3799  -14.8919 C   0  0  0  0  0  0  0  0  0  0  0  0
   23.1201  -19.9530  -13.6558 C   0  0  0  0  0  0  0  0  0  0  0  0
   25.8289  -22.4864  -11.9868 C   0  0  0  0  0  0  0  0  0  0  0  0
   25.2138  -23.4841  -12.4182 O   0  0  0  0  0  0  0  0  0  0  0  0
   26.2882  -22.5465  -10.6618 O   0  0  0  0  0  0  0  0  0  0  0  0
  2  1  1  0
  2  4  1  0
  3  2  2  0
  5  4  1  0
  6  7  1  6
  6  5  1  0
  8  9  2  0
  8  6  1  0
 10  8  1  0
 11 10  1  0
 11 17  1  0
 11 12  1  1
 13 12  1  0
 14 13  1  0
 15 14  1  0
 16 15  1  0
 17 19  1  0
 17 18  2  0
 19 20  1  0
 20 21  1  1
 21 22  1  0
 22 23  2  0
 23 24  1  0
 25 24  1  0
 26 25  2  0
 27 26  1  0
 28 29  1  0
 28 27  2  0
 29 30  2  0
 30 22  1  0
 30 25  1  0
 31 33  1  0
 31 20  1  0
 32 31  2  0
M  END
$$$$
