QKW.pdb
     RDKit          3D

 33 34  0  0  1  0  0  0  0  0999 V2000
   25.1049  -23.8040  -19.2002 N   0  0  0  0  0  0  0  0  0  0  0  0
   25.3867  -25.0932  -19.7167 C   0  0  0  0  0  0  0  0  0  0  0  0
   25.1523  -25.3122  -20.9299 O   0  0  0  0  0  0  0  0  0  0  0  0
   25.9422  -26.0944  -18.7733 C   0  0  0  0  0  0  0  0  0  0  0  0
   26.1297  -25.4154  -17.4342 C   0  0  0  0  0  0  0  0  0  0  0  0
   27.5306  -24.8453  -17.2968 C   0  0  2  0  0  0  0  0  0  0  0  0
   28.4282  -25.9243  -16.8827 N   0  0  0  0  0  0  0  0  0  0  0  0
   27.6113  -23.7676  -16.3177 C   0  0  0  0  0  0  0  0  0  0  0  0
   27.8514  -24.0454  -15.0941 O   0  0  0  0  0  0  0  0  0  0  0  0
   27.4479  -22.3923  -16.5792 N   0  0  0  0  0  0  0  0  0  0  0  0
   27.5094  -21.3527  -15.5331 C   0  0  1  0  0  0  0  0  0  0  0  0
   27.4227  -20.0635  -16.3626 C   0  0  0  0  0  0  0  0  0  0  0  0
   27.2498  -18.8325  -15.5551 C   0  0  0  0  0  0  0  0  0  0  0  0
   27.2122  -17.5830  -16.4475 C   0  0  0  0  0  0  0  0  0  0  0  0
   27.1397  -16.3276  -15.6079 C   0  0  0  0  0  0  0  0  0  0  0  0
   27.2579  -15.1938  -16.5072 N   0  0  0  0  0  0  0  0  0  0  0  0
   26.3984  -21.5010  -14.5851 C   0  0  0  0  0  0  0  0  0  0  0  0
   25.2211  -21.7087  -15.0273 O   0  0  0  0  0  0  0  0  0  0  0  0
   26.5398  -21.4310  -13.1778 N   0  0  0  0  0  0  0  0  0  0  0  0
   25.4383  -21.7768  -12.2755 C   0  0  1  0  0  0  0  0  0  0  0  0
   25.9658  -22.2107  -10.9474 C   0  0  0  0  0  0  0  0  0  0  0  0
   26.2240  -21.0978  -10.0375 C   0  0  0  0  0  0  0  0  0  0  0  0
   25.2228  -20.2851   -9.4877 C   0  0  0  0  0  0  0  0  0  0  0  0
   25.7901  -19.3429   -8.7460 N   0  0  0  0  0  0  0  0  0  0  0  0
   27.1220  -19.4861   -8.7717 C   0  0  0  0  0  0  0  0  0  0  0  0
   28.1490  -18.8014   -8.1696 C   0  0  0  0  0  0  0  0  0  0  0  0
   29.4626  -19.1706   -8.3387 C   0  0  0  0  0  0  0  0  0  0  0  0
   29.7612  -20.2556   -9.1316 C   0  0  0  0  0  0  0  0  0  0  0  0
   28.7394  -20.9432   -9.7365 C   0  0  0  0  0  0  0  0  0  0  0  0
   27.4003  -20.5714   -9.5692 C   0  0  0  0  0  0  0  0  0  0  0  0
   24.4613  -20.7043  -12.1615 C   0  0  0  0  0  0  0  0  0  0  0  0
   24.7214  -19.4940  -12.3269 O   0  0  0  0  0  0  0  0  0  0  0  0
   23.1335  -21.0320  -11.8455 O   0  0  0  0  0  0  0  0  0  0  0  0
  2  1  1  0
  2  4  1  0
  3  2  2  0
  5  4  1  0
  6  7  1  1
  6  5  1  0
  8  9  2  0
  8  6  1  0
 10  8  1  0
 11 10  1  0
 11 17  1  0
 11 12  1  6
 13 12  1  0
 14 13  1  0
 15 14  1  0
 16 15  1  0
 17 19  1  0
 17 18  2  0
 19 20  1  0
 20 21  1  1
 21 22  1  0
 22 23  2  0
 23 24  1  0
 25 24  1  0
 26 25  2  0
 27 26  1  0
 28 29  1  0
 28 27  2  0
 29 30  2  0
 30 22  1  0
 30 25  1  0
 31 33  1  0
 31 20  1  0
 32 31  2  0
M  END
$$$$
