QKW.pdb
     RDKit          3D

 33 34  0  0  1  0  0  0  0  0999 V2000
   20.0352  -21.1006  -13.8457 N   0  0  0  0  0  0  0  0  0  0  0  0
   19.8774  -20.2219  -14.9461 C   0  0  0  0  0  0  0  0  0  0  0  0
   18.8874  -20.3845  -15.7000 O   0  0  0  0  0  0  0  0  0  0  0  0
   20.9056  -19.1673  -15.1239 C   0  0  0  0  0  0  0  0  0  0  0  0
   21.9175  -19.3139  -14.0085 C   0  0  0  0  0  0  0  0  0  0  0  0
   23.0983  -20.1639  -14.4440 C   0  0  2  0  0  0  0  0  0  0  0  0
   23.2737  -21.2418  -13.4698 N   0  0  0  0  0  0  0  0  0  0  0  0
   24.3411  -19.4062  -14.5324 C   0  0  0  0  0  0  0  0  0  0  0  0
   24.9474  -19.0639  -13.4613 O   0  0  0  0  0  0  0  0  0  0  0  0
   24.9789  -18.9902  -15.7184 N   0  0  0  0  0  0  0  0  0  0  0  0
   26.3057  -18.3437  -15.7446 C   0  0  1  0  0  0  0  0  0  0  0  0
   27.0478  -19.1862  -16.7920 C   0  0  0  0  0  0  0  0  0  0  0  0
   27.6812  -20.4109  -16.2481 C   0  0  0  0  0  0  0  0  0  0  0  0
   28.4297  -21.1834  -17.3444 C   0  0  0  0  0  0  0  0  0  0  0  0
   29.1961  -22.3449  -16.7527 C   0  0  0  0  0  0  0  0  0  0  0  0
   28.2591  -23.4392  -16.5721 N   0  0  0  0  0  0  0  0  0  0  0  0
   26.1892  -16.9300  -16.1228 C   0  0  0  0  0  0  0  0  0  0  0  0
   25.4839  -16.6084  -17.1346 O   0  0  0  0  0  0  0  0  0  0  0  0
   26.8165  -15.8672  -15.4283 N   0  0  0  0  0  0  0  0  0  0  0  0
   26.7328  -14.4830  -15.9016 C   0  0  1  0  0  0  0  0  0  0  0  0
   27.4227  -13.5616  -14.9502 C   0  0  0  0  0  0  0  0  0  0  0  0
   27.4554  -12.1758  -15.4101 C   0  0  0  0  0  0  0  0  0  0  0  0
   26.4332  -11.2461  -15.1735 C   0  0  0  0  0  0  0  0  0  0  0  0
   26.7478  -10.0993  -15.7613 N   0  0  0  0  0  0  0  0  0  0  0  0
   27.9313  -10.2158  -16.3787 C   0  0  0  0  0  0  0  0  0  0  0  0
   28.7015   -9.3368  -17.0998 C   0  0  0  0  0  0  0  0  0  0  0  0
   29.9202   -9.7015  -17.6216 C   0  0  0  0  0  0  0  0  0  0  0  0
   30.3852  -10.9811  -17.4178 C   0  0  0  0  0  0  0  0  0  0  0  0
   29.6197  -11.8641  -16.6988 C   0  0  0  0  0  0  0  0  0  0  0  0
   28.3776  -11.4991  -16.1663 C   0  0  0  0  0  0  0  0  0  0  0  0
   27.2168  -14.3365  -17.2662 C   0  0  0  0  0  0  0  0  0  0  0  0
   28.2235  -14.9179  -17.7228 O   0  0  0  0  0  0  0  0  0  0  0  0
   26.5194  -13.4901  -18.1422 O   0  0  0  0  0  0  0  0  0  0  0  0
  2  1  1  0
  2  4  1  0
  3  2  2  0
  5  4  1  0
  6  7  1  1
  6  5  1  0
  8  9  2  0
  8  6  1  0
 10  8  1  0
 11 10  1  0
 11 17  1  0
 11 12  1  6
 13 12  1  0
 14 13  1  0
 15 14  1  0
 16 15  1  0
 17 19  1  0
 17 18  2  0
 19 20  1  0
 20 21  1  1
 21 22  1  0
 22 23  2  0
 23 24  1  0
 25 24  1  0
 26 25  2  0
 27 26  1  0
 28 29  1  0
 28 27  2  0
 29 30  2  0
 30 22  1  0
 30 25  1  0
 31 33  1  0
 31 20  1  0
 32 31  2  0
M  END
$$$$
