QKW.pdb
     RDKit          3D

 33 34  0  0  1  0  0  0  0  0999 V2000
   25.3346  -27.7811  -16.0436 N   0  0  0  0  0  0  0  0  0  0  0  0
   24.2706  -27.6046  -16.9628 C   0  0  0  0  0  0  0  0  0  0  0  0
   23.5140  -28.5794  -17.1914 O   0  0  0  0  0  0  0  0  0  0  0  0
   24.1323  -26.2674  -17.5904 C   0  0  0  0  0  0  0  0  0  0  0  0
   25.1831  -25.3613  -16.9868 C   0  0  0  0  0  0  0  0  0  0  0  0
   24.5648  -24.3709  -16.0157 C   0  0  2  0  0  0  0  0  0  0  0  0
   23.7180  -23.4497  -16.7745 N   0  0  0  0  0  0  0  0  0  0  0  0
   25.5605  -23.5965  -15.2840 C   0  0  0  0  0  0  0  0  0  0  0  0
   26.4577  -24.2040  -14.6072 O   0  0  0  0  0  0  0  0  0  0  0  0
   25.6505  -22.1907  -15.2366 N   0  0  0  0  0  0  0  0  0  0  0  0
   26.5860  -21.4649  -14.3551 C   0  0  1  0  0  0  0  0  0  0  0  0
   26.6730  -20.0958  -15.0446 C   0  0  0  0  0  0  0  0  0  0  0  0
   27.2458  -20.1394  -16.4110 C   0  0  0  0  0  0  0  0  0  0  0  0
   28.7425  -20.4821  -16.3757 C   0  0  0  0  0  0  0  0  0  0  0  0
   29.2959  -20.6086  -17.7772 C   0  0  0  0  0  0  0  0  0  0  0  0
   30.7001  -20.9598  -17.6618 N   0  0  0  0  0  0  0  0  0  0  0  0
   26.0586  -21.3863  -12.9874 C   0  0  0  0  0  0  0  0  0  0  0  0
   24.8142  -21.1769  -12.8070 O   0  0  0  0  0  0  0  0  0  0  0  0
   26.8487  -21.5318  -11.8213 N   0  0  0  0  0  0  0  0  0  0  0  0
   26.3272  -21.2024  -10.4922 C   0  0  1  0  0  0  0  0  0  0  0  0
   27.3825  -21.3950   -9.4531 C   0  0  0  0  0  0  0  0  0  0  0  0
   27.1434  -20.6215   -8.2375 C   0  0  0  0  0  0  0  0  0  0  0  0
   25.9311  -19.9843   -7.9385 C   0  0  0  0  0  0  0  0  0  0  0  0
   26.0578  -19.3315   -6.7907 N   0  0  0  0  0  0  0  0  0  0  0  0
   27.2954  -19.5018   -6.3063 C   0  0  0  0  0  0  0  0  0  0  0  0
   27.9221  -19.0659   -5.1648 C   0  0  0  0  0  0  0  0  0  0  0  0
   29.2227  -19.4068   -4.8776 C   0  0  0  0  0  0  0  0  0  0  0  0
   29.9194  -20.2070   -5.7548 C   0  0  0  0  0  0  0  0  0  0  0  0
   29.2988  -20.6450   -6.8975 C   0  0  0  0  0  0  0  0  0  0  0  0
   27.9754  -20.3001   -7.1960 C   0  0  0  0  0  0  0  0  0  0  0  0
   25.7375  -19.8728  -10.4450 C   0  0  0  0  0  0  0  0  0  0  0  0
   26.2373  -18.8611  -10.9803 O   0  0  0  0  0  0  0  0  0  0  0  0
   24.5269  -19.6956   -9.7571 O   0  0  0  0  0  0  0  0  0  0  0  0
  2  1  1  0
  2  4  1  0
  3  2  2  0
  5  4  1  0
  6  7  1  6
  6  5  1  0
  8  9  2  0
  8  6  1  0
 10  8  1  0
 11 10  1  0
 11 17  1  0
 11 12  1  6
 13 12  1  0
 14 13  1  0
 15 14  1  0
 16 15  1  0
 17 19  1  0
 17 18  2  0
 19 20  1  0
 20 21  1  1
 21 22  1  0
 22 23  2  0
 23 24  1  0
 25 24  1  0
 26 25  2  0
 27 26  1  0
 28 29  1  0
 28 27  2  0
 29 30  2  0
 30 22  1  0
 30 25  1  0
 31 33  1  0
 31 20  1  0
 32 31  2  0
M  END
$$$$
