QKW.pdb
     RDKit          3D

 33 34  0  0  1  0  0  0  0  0999 V2000
   28.5388  -22.4253  -15.5742 N   0  0  0  0  0  0  0  0  0  0  0  0
   29.7359  -21.8011  -16.0050 C   0  0  0  0  0  0  0  0  0  0  0  0
   30.4564  -22.4058  -16.8358 O   0  0  0  0  0  0  0  0  0  0  0  0
   30.0481  -20.4678  -15.4342 C   0  0  0  0  0  0  0  0  0  0  0  0
   28.9664  -20.1277  -14.4325 C   0  0  0  0  0  0  0  0  0  0  0  0
   27.6674  -19.7596  -15.1278 C   0  0  2  0  0  0  0  0  0  0  0  0
   27.9258  -18.6256  -16.0158 N   0  0  0  0  0  0  0  0  0  0  0  0
   26.6087  -19.3918  -14.1948 C   0  0  0  0  0  0  0  0  0  0  0  0
   26.5392  -18.1916  -13.7628 O   0  0  0  0  0  0  0  0  0  0  0  0
   25.6077  -20.2479  -13.6932 N   0  0  0  0  0  0  0  0  0  0  0  0
   24.5171  -19.7932  -12.8084 C   0  0  1  0  0  0  0  0  0  0  0  0
   23.2854  -20.4225  -13.4750 C   0  0  0  0  0  0  0  0  0  0  0  0
   22.2294  -19.4489  -13.8413 C   0  0  0  0  0  0  0  0  0  0  0  0
   21.0130  -20.1544  -14.4590 C   0  0  0  0  0  0  0  0  0  0  0  0
   19.9525  -19.1496  -14.8490 C   0  0  0  0  0  0  0  0  0  0  0  0
   18.8857  -19.8768  -15.5135 N   0  0  0  0  0  0  0  0  0  0  0  0
   24.7299  -20.2646  -11.4345 C   0  0  0  0  0  0  0  0  0  0  0  0
   23.8445  -20.0307  -10.5478 O   0  0  0  0  0  0  0  0  0  0  0  0
   25.8746  -20.9812  -11.0085 N   0  0  0  0  0  0  0  0  0  0  0  0
   26.0247  -21.4397   -9.6249 C   0  0  1  0  0  0  0  0  0  0  0  0
   27.4501  -21.3376   -9.1911 C   0  0  0  0  0  0  0  0  0  0  0  0
   27.6675  -20.3309   -8.1555 C   0  0  0  0  0  0  0  0  0  0  0  0
   26.8613  -19.1973   -7.9816 C   0  0  0  0  0  0  0  0  0  0  0  0
   27.3536  -18.4651   -6.9910 N   0  0  0  0  0  0  0  0  0  0  0  0
   28.4491  -19.0540   -6.4927 C   0  0  0  0  0  0  0  0  0  0  0  0
   29.3037  -18.7276   -5.4685 C   0  0  0  0  0  0  0  0  0  0  0  0
   30.3673  -19.5302   -5.1293 C   0  0  0  0  0  0  0  0  0  0  0  0
   30.5848  -20.6938   -5.8320 C   0  0  0  0  0  0  0  0  0  0  0  0
   29.7348  -21.0249   -6.8570 C   0  0  0  0  0  0  0  0  0  0  0  0
   28.6512  -20.2112   -7.2079 C   0  0  0  0  0  0  0  0  0  0  0  0
   25.1172  -20.7560   -8.7157 C   0  0  0  0  0  0  0  0  0  0  0  0
   24.6297  -19.6254   -8.9251 O   0  0  0  0  0  0  0  0  0  0  0  0
   24.7539  -21.3934   -7.5191 O   0  0  0  0  0  0  0  0  0  0  0  0
  2  1  1  0
  2  4  1  0
  3  2  2  0
  5  4  1  0
  6  7  1  6
  6  5  1  0
  8  9  2  0
  8  6  1  0
 10  8  1  0
 11 10  1  0
 11 17  1  0
 11 12  1  6
 13 12  1  0
 14 13  1  0
 15 14  1  0
 16 15  1  0
 17 19  1  0
 17 18  2  0
 19 20  1  0
 20 21  1  1
 21 22  1  0
 22 23  2  0
 23 24  1  0
 25 24  1  0
 26 25  2  0
 27 26  1  0
 28 29  1  0
 28 27  2  0
 29 30  2  0
 30 22  1  0
 30 25  1  0
 31 33  1  0
 31 20  1  0
 32 31  2  0
M  END
$$$$
