QKW.pdb
     RDKit          3D

 33 34  0  0  1  0  0  0  0  0999 V2000
   31.9817  -22.6663   -9.1854 N   0  0  0  0  0  0  0  0  0  0  0  0
   31.2878  -21.5699   -9.7550 C   0  0  0  0  0  0  0  0  0  0  0  0
   30.4138  -20.9943   -9.0623 O   0  0  0  0  0  0  0  0  0  0  0  0
   31.6517  -21.1837  -11.1405 C   0  0  0  0  0  0  0  0  0  0  0  0
   30.4858  -20.4206  -11.7303 C   0  0  0  0  0  0  0  0  0  0  0  0
   29.4580  -21.3630  -12.3319 C   0  0  2  0  0  0  0  0  0  0  0  0
   30.1298  -22.2051  -13.3224 N   0  0  0  0  0  0  0  0  0  0  0  0
   28.3575  -20.6619  -12.9828 C   0  0  0  0  0  0  0  0  0  0  0  0
   27.7155  -19.7636  -12.3401 O   0  0  0  0  0  0  0  0  0  0  0  0
   27.9010  -20.8712  -14.2997 N   0  0  0  0  0  0  0  0  0  0  0  0
   26.7308  -20.1789  -14.8744 C   0  0  1  0  0  0  0  0  0  0  0  0
   26.8122  -20.5920  -16.3510 C   0  0  0  0  0  0  0  0  0  0  0  0
   25.7246  -20.0436  -17.1957 C   0  0  0  0  0  0  0  0  0  0  0  0
   25.9050  -20.4486  -18.6663 C   0  0  0  0  0  0  0  0  0  0  0  0
   24.8209  -19.8389  -19.5262 C   0  0  0  0  0  0  0  0  0  0  0  0
   25.0420  -20.2865  -20.8896 N   0  0  0  0  0  0  0  0  0  0  0  0
   25.4919  -20.6205  -14.2223 C   0  0  0  0  0  0  0  0  0  0  0  0
   25.2777  -21.8669  -14.0632 O   0  0  0  0  0  0  0  0  0  0  0  0
   24.4903  -19.7425  -13.7415 N   0  0  0  0  0  0  0  0  0  0  0  0
   23.3973  -20.2155  -12.8878 C   0  0  1  0  0  0  0  0  0  0  0  0
   23.2346  -19.3222  -11.7022 C   0  0  0  0  0  0  0  0  0  0  0  0
   22.0838  -19.6684  -10.8723 C   0  0  0  0  0  0  0  0  0  0  0  0
   22.1591  -20.4570   -9.7157 C   0  0  0  0  0  0  0  0  0  0  0  0
   20.9377  -20.6222   -9.2253 N   0  0  0  0  0  0  0  0  0  0  0  0
   20.0488  -19.9817   -9.9965 C   0  0  0  0  0  0  0  0  0  0  0  0
   18.6867  -19.8232   -9.9214 C   0  0  0  0  0  0  0  0  0  0  0  0
   17.9922  -19.0793  -10.8460 C   0  0  0  0  0  0  0  0  0  0  0  0
   18.6766  -18.4747  -11.8762 C   0  0  0  0  0  0  0  0  0  0  0  0
   20.0375  -18.6301  -11.9569 C   0  0  0  0  0  0  0  0  0  0  0  0
   20.7498  -19.3873  -11.0195 C   0  0  0  0  0  0  0  0  0  0  0  0
   22.1558  -20.3891  -13.6269 C   0  0  0  0  0  0  0  0  0  0  0  0
   21.3278  -21.2986  -13.4096 O   0  0  0  0  0  0  0  0  0  0  0  0
   21.8510  -19.4844  -14.6560 O   0  0  0  0  0  0  0  0  0  0  0  0
  2  1  1  0
  2  4  1  0
  3  2  2  0
  5  4  1  0
  6  7  1  6
  6  5  1  0
  8  9  2  0
  8  6  1  0
 10  8  1  0
 11 10  1  0
 11 17  1  0
 11 12  1  6
 13 12  1  0
 14 13  1  0
 15 14  1  0
 16 15  1  0
 17 19  1  0
 17 18  2  0
 19 20  1  0
 20 21  1  1
 21 22  1  0
 22 23  2  0
 23 24  1  0
 25 24  1  0
 26 25  2  0
 27 26  1  0
 28 29  1  0
 28 27  2  0
 29 30  2  0
 30 22  1  0
 30 25  1  0
 31 33  1  0
 31 20  1  0
 32 31  2  0
M  END
$$$$
