QKW.pdb
     RDKit          3D

 33 34  0  0  1  0  0  0  0  0999 V2000
   24.4077  -16.0833  -17.6666 N   0  0  0  0  0  0  0  0  0  0  0  0
   25.4176  -15.1427  -17.3444 C   0  0  0  0  0  0  0  0  0  0  0  0
   25.0888  -13.9389  -17.2115 O   0  0  0  0  0  0  0  0  0  0  0  0
   26.7995  -15.6593  -17.1881 C   0  0  0  0  0  0  0  0  0  0  0  0
   26.7724  -17.1467  -17.4650 C   0  0  0  0  0  0  0  0  0  0  0  0
   26.5717  -17.9416  -16.1866 C   0  0  2  0  0  0  0  0  0  0  0  0
   27.5125  -17.4437  -15.1824 N   0  0  0  0  0  0  0  0  0  0  0  0
   26.7928  -19.3717  -16.3669 C   0  0  0  0  0  0  0  0  0  0  0  0
   26.1809  -19.9903  -17.3023 O   0  0  0  0  0  0  0  0  0  0  0  0
   27.6434  -20.1859  -15.5924 N   0  0  0  0  0  0  0  0  0  0  0  0
   27.7303  -21.6512  -15.7483 C   0  0  1  0  0  0  0  0  0  0  0  0
   29.2185  -21.9111  -15.4743 C   0  0  0  0  0  0  0  0  0  0  0  0
   29.6300  -23.3245  -15.6480 C   0  0  0  0  0  0  0  0  0  0  0  0
   31.1214  -23.5120  -15.3323 C   0  0  0  0  0  0  0  0  0  0  0  0
   31.5516  -24.9355  -15.6064 C   0  0  0  0  0  0  0  0  0  0  0  0
   32.9621  -25.0362  -15.2766 N   0  0  0  0  0  0  0  0  0  0  0  0
   26.8441  -22.3301  -14.7950 C   0  0  0  0  0  0  0  0  0  0  0  0
   27.1026  -23.5276  -14.4429 O   0  0  0  0  0  0  0  0  0  0  0  0
   25.6934  -21.7385  -14.2195 N   0  0  0  0  0  0  0  0  0  0  0  0
   25.5425  -21.6012  -12.7685 C   0  0  1  0  0  0  0  0  0  0  0  0
   26.8371  -21.1972  -12.1432 C   0  0  0  0  0  0  0  0  0  0  0  0
   26.7220  -20.9016  -10.7176 C   0  0  0  0  0  0  0  0  0  0  0  0
   25.5023  -20.7390  -10.0458 C   0  0  0  0  0  0  0  0  0  0  0  0
   25.7449  -20.4333   -8.7780 N   0  0  0  0  0  0  0  0  0  0  0  0
   27.0674  -20.3845   -8.5682 C   0  0  0  0  0  0  0  0  0  0  0  0
   27.8299  -20.1371   -7.4532 C   0  0  0  0  0  0  0  0  0  0  0  0
   29.2038  -20.1710   -7.4935 C   0  0  0  0  0  0  0  0  0  0  0  0
   29.8365  -20.4608   -8.6812 C   0  0  0  0  0  0  0  0  0  0  0  0
   29.0800  -20.7081   -9.7989 C   0  0  0  0  0  0  0  0  0  0  0  0
   27.6811  -20.6737   -9.7645 C   0  0  0  0  0  0  0  0  0  0  0  0
   24.4501  -20.7093  -12.4095 C   0  0  0  0  0  0  0  0  0  0  0  0
   24.1251  -19.6953  -13.0623 O   0  0  0  0  0  0  0  0  0  0  0  0
   23.7004  -20.9905  -11.2566 O   0  0  0  0  0  0  0  0  0  0  0  0
  2  1  1  0
  2  4  1  0
  3  2  2  0
  5  4  1  0
  6  7  1  1
  6  5  1  0
  8  9  2  0
  8  6  1  0
 10  8  1  0
 11 10  1  0
 11 17  1  0
 11 12  1  1
 13 12  1  0
 14 13  1  0
 15 14  1  0
 16 15  1  0
 17 19  1  0
 17 18  2  0
 19 20  1  0
 20 21  1  6
 21 22  1  0
 22 23  2  0
 23 24  1  0
 25 24  1  0
 26 25  2  0
 27 26  1  0
 28 29  1  0
 28 27  2  0
 29 30  2  0
 30 22  1  0
 30 25  1  0
 31 33  1  0
 31 20  1  0
 32 31  2  0
M  END
$$$$
