QKW.pdb
     RDKit          3D

 33 34  0  0  1  0  0  0  0  0999 V2000
   18.8398  -19.8324  -12.7596 N   0  0  0  0  0  0  0  0  0  0  0  0
   18.6452  -18.5414  -13.3105 C   0  0  0  0  0  0  0  0  0  0  0  0
   17.4771  -18.1906  -13.6062 O   0  0  0  0  0  0  0  0  0  0  0  0
   19.8500  -17.6960  -13.4974 C   0  0  0  0  0  0  0  0  0  0  0  0
   21.0330  -18.4403  -12.9177 C   0  0  0  0  0  0  0  0  0  0  0  0
   22.2680  -18.2736  -13.7856 C   0  0  2  0  0  0  0  0  0  0  0  0
   21.8673  -18.4063  -15.1868 N   0  0  0  0  0  0  0  0  0  0  0  0
   23.3010  -19.2621  -13.4986 C   0  0  0  0  0  0  0  0  0  0  0  0
   22.9945  -20.3260  -12.8611 O   0  0  0  0  0  0  0  0  0  0  0  0
   24.6601  -19.1741  -13.8612 N   0  0  0  0  0  0  0  0  0  0  0  0
   25.6693  -20.1832  -13.4842 C   0  0  1  0  0  0  0  0  0  0  0  0
   26.7366  -19.9846  -14.5701 C   0  0  0  0  0  0  0  0  0  0  0  0
   27.8959  -20.9011  -14.4568 C   0  0  0  0  0  0  0  0  0  0  0  0
   28.2579  -21.5106  -15.8193 C   0  0  0  0  0  0  0  0  0  0  0  0
   28.3362  -23.0179  -15.7277 C   0  0  0  0  0  0  0  0  0  0  0  0
   28.8095  -23.5090  -17.0095 N   0  0  0  0  0  0  0  0  0  0  0  0
   26.1757  -19.9330  -12.1292 C   0  0  0  0  0  0  0  0  0  0  0  0
   26.6792  -18.7961  -11.8487 O   0  0  0  0  0  0  0  0  0  0  0  0
   26.1443  -20.8843  -11.0808 N   0  0  0  0  0  0  0  0  0  0  0  0
   27.0134  -20.7653   -9.9071 C   0  0  1  0  0  0  0  0  0  0  0  0
   26.2066  -20.4688   -8.6859 C   0  0  0  0  0  0  0  0  0  0  0  0
   26.8781  -19.5646   -7.7561 C   0  0  0  0  0  0  0  0  0  0  0  0
   26.9290  -18.1726   -7.9140 C   0  0  0  0  0  0  0  0  0  0  0  0
   27.6505  -17.6523   -6.9298 N   0  0  0  0  0  0  0  0  0  0  0  0
   28.0839  -18.6282   -6.1204 C   0  0  0  0  0  0  0  0  0  0  0  0
   28.8338  -18.6263   -4.9700 C   0  0  0  0  0  0  0  0  0  0  0  0
   29.1287  -19.7877   -4.2959 C   0  0  0  0  0  0  0  0  0  0  0  0
   28.6613  -20.9873   -4.7833 C   0  0  0  0  0  0  0  0  0  0  0  0
   27.9122  -20.9958   -5.9329 C   0  0  0  0  0  0  0  0  0  0  0  0
   27.6099  -19.8167   -6.6243 C   0  0  0  0  0  0  0  0  0  0  0  0
   27.8723  -21.9276   -9.7367 C   0  0  0  0  0  0  0  0  0  0  0  0
   27.7228  -23.0090  -10.3435 O   0  0  0  0  0  0  0  0  0  0  0  0
   28.9450  -21.8475   -8.8351 O   0  0  0  0  0  0  0  0  0  0  0  0
  2  1  1  0
  2  4  1  0
  3  2  2  0
  5  4  1  0
  6  7  1  6
  6  5  1  0
  8  9  2  0
  8  6  1  0
 10  8  1  0
 11 10  1  0
 11 17  1  0
 11 12  1  6
 13 12  1  0
 14 13  1  0
 15 14  1  0
 16 15  1  0
 17 19  1  0
 17 18  2  0
 19 20  1  0
 20 21  1  1
 21 22  1  0
 22 23  2  0
 23 24  1  0
 25 24  1  0
 26 25  2  0
 27 26  1  0
 28 29  1  0
 28 27  2  0
 29 30  2  0
 30 22  1  0
 30 25  1  0
 31 33  1  0
 31 20  1  0
 32 31  2  0
M  END
$$$$
