QKW.pdb
     RDKit          3D

 33 34  0  0  1  0  0  0  0  0999 V2000
   29.1168  -17.9374  -18.1088 N   0  0  0  0  0  0  0  0  0  0  0  0
   28.6021  -18.9908  -17.3129 C   0  0  0  0  0  0  0  0  0  0  0  0
   28.0245  -19.9443  -17.8893 O   0  0  0  0  0  0  0  0  0  0  0  0
   28.7875  -18.8836  -15.8449 C   0  0  0  0  0  0  0  0  0  0  0  0
   27.6168  -18.1050  -15.2856 C   0  0  0  0  0  0  0  0  0  0  0  0
   26.3226  -18.8896  -15.4114 C   0  0  2  0  0  0  0  0  0  0  0  0
   25.4446  -18.1826  -16.3446 N   0  0  0  0  0  0  0  0  0  0  0  0
   25.6265  -19.0439  -14.1394 C   0  0  0  0  0  0  0  0  0  0  0  0
   25.5308  -18.0449  -13.3488 O   0  0  0  0  0  0  0  0  0  0  0  0
   25.0191  -20.2225  -13.6613 N   0  0  0  0  0  0  0  0  0  0  0  0
   24.3966  -20.3331  -12.3274 C   0  0  1  0  0  0  0  0  0  0  0  0
   23.3273  -21.4091  -12.5654 C   0  0  0  0  0  0  0  0  0  0  0  0
   21.9906  -21.0669  -12.0238 C   0  0  0  0  0  0  0  0  0  0  0  0
   20.9772  -20.8303  -13.1534 C   0  0  0  0  0  0  0  0  0  0  0  0
   19.6212  -20.4705  -12.5892 C   0  0  0  0  0  0  0  0  0  0  0  0
   19.0072  -21.6972  -12.1132 N   0  0  0  0  0  0  0  0  0  0  0  0
   25.3898  -20.7239  -11.3196 C   0  0  0  0  0  0  0  0  0  0  0  0
   26.1447  -21.7270  -11.5401 O   0  0  0  0  0  0  0  0  0  0  0  0
   25.5795  -20.0511  -10.0881 N   0  0  0  0  0  0  0  0  0  0  0  0
   26.5370  -20.5312   -9.0882 C   0  0  1  0  0  0  0  0  0  0  0  0
   27.3967  -19.4096   -8.6054 C   0  0  0  0  0  0  0  0  0  0  0  0
   28.3793  -19.8239   -7.6074 C   0  0  0  0  0  0  0  0  0  0  0  0
   29.3715  -20.7875   -7.8360 C   0  0  0  0  0  0  0  0  0  0  0  0
   30.0653  -20.9664   -6.7196 N   0  0  0  0  0  0  0  0  0  0  0  0
   29.5865  -20.1687   -5.7554 C   0  0  0  0  0  0  0  0  0  0  0  0
   29.9522  -19.9558   -4.4489 C   0  0  0  0  0  0  0  0  0  0  0  0
   29.3012  -19.0419   -3.6544 C   0  0  0  0  0  0  0  0  0  0  0  0
   28.2543  -18.3178   -4.1786 C   0  0  0  0  0  0  0  0  0  0  0  0
   27.8837  -18.5266   -5.4830 C   0  0  0  0  0  0  0  0  0  0  0  0
   28.5417  -19.4566   -6.2964 C   0  0  0  0  0  0  0  0  0  0  0  0
   25.8859  -21.2412   -7.9974 C   0  0  0  0  0  0  0  0  0  0  0  0
   24.7251  -21.0090   -7.5994 O   0  0  0  0  0  0  0  0  0  0  0  0
   26.5933  -22.2576   -7.3366 O   0  0  0  0  0  0  0  0  0  0  0  0
  2  1  1  0
  2  4  1  0
  3  2  2  0
  5  4  1  0
  6  7  1  6
  6  5  1  0
  8  9  2  0
  8  6  1  0
 10  8  1  0
 11 10  1  0
 11 17  1  0
 11 12  1  6
 13 12  1  0
 14 13  1  0
 15 14  1  0
 16 15  1  0
 17 19  1  0
 17 18  2  0
 19 20  1  0
 20 21  1  1
 21 22  1  0
 22 23  2  0
 23 24  1  0
 25 24  1  0
 26 25  2  0
 27 26  1  0
 28 29  1  0
 28 27  2  0
 29 30  2  0
 30 22  1  0
 30 25  1  0
 31 33  1  0
 31 20  1  0
 32 31  2  0
M  END
$$$$
