QKW.pdb
     RDKit          3D

 33 34  0  0  1  0  0  0  0  0999 V2000
   28.3744  -23.8064  -16.5183 N   0  0  0  0  0  0  0  0  0  0  0  0
   29.5295  -22.9949  -16.6417 C   0  0  0  0  0  0  0  0  0  0  0  0
   30.5586  -23.3238  -16.0031 O   0  0  0  0  0  0  0  0  0  0  0  0
   29.4317  -21.8070  -17.5250 C   0  0  0  0  0  0  0  0  0  0  0  0
   28.0283  -21.7632  -18.0891 C   0  0  0  0  0  0  0  0  0  0  0  0
   27.2331  -20.6114  -17.4997 C   0  0  2  0  0  0  0  0  0  0  0  0
   28.1689  -19.6855  -16.8606 N   0  0  0  0  0  0  0  0  0  0  0  0
   26.2544  -21.0455  -16.5096 C   0  0  0  0  0  0  0  0  0  0  0  0
   25.3998  -21.9426  -16.8206 O   0  0  0  0  0  0  0  0  0  0  0  0
   26.1390  -20.5670  -15.1890 N   0  0  0  0  0  0  0  0  0  0  0  0
   25.0891  -21.0120  -14.2516 C   0  0  1  0  0  0  0  0  0  0  0  0
   25.6661  -20.5727  -12.8982 C   0  0  0  0  0  0  0  0  0  0  0  0
   24.7586  -20.8008  -11.7486 C   0  0  0  0  0  0  0  0  0  0  0  0
   25.4299  -20.4080  -10.4241 C   0  0  0  0  0  0  0  0  0  0  0  0
   24.4844  -20.6158   -9.2626 C   0  0  0  0  0  0  0  0  0  0  0  0
   25.1368  -20.1020   -8.0715 N   0  0  0  0  0  0  0  0  0  0  0  0
   23.8059  -20.3709  -14.5638 C   0  0  0  0  0  0  0  0  0  0  0  0
   23.7148  -19.1001  -14.5250 O   0  0  0  0  0  0  0  0  0  0  0  0
   22.6300  -21.0766  -14.9167 N   0  0  0  0  0  0  0  0  0  0  0  0
   21.3474  -20.3921  -15.1002 C   0  0  1  0  0  0  0  0  0  0  0  0
   21.0975  -20.1276  -16.5486 C   0  0  0  0  0  0  0  0  0  0  0  0
   19.8725  -19.3713  -16.7942 C   0  0  0  0  0  0  0  0  0  0  0  0
   19.7060  -18.0188  -16.4653 C   0  0  0  0  0  0  0  0  0  0  0  0
   18.4699  -17.6484  -16.7730 N   0  0  0  0  0  0  0  0  0  0  0  0
   17.8015  -18.6868  -17.2927 C   0  0  0  0  0  0  0  0  0  0  0  0
   16.5261  -18.8289  -17.7819 C   0  0  0  0  0  0  0  0  0  0  0  0
   16.0767  -20.0221  -18.2963 C   0  0  0  0  0  0  0  0  0  0  0  0
   16.9247  -21.1062  -18.3244 C   0  0  0  0  0  0  0  0  0  0  0  0
   18.1999  -20.9706  -17.8364 C   0  0  0  0  0  0  0  0  0  0  0  0
   18.6627  -19.7588  -17.3102 C   0  0  0  0  0  0  0  0  0  0  0  0
   20.2470  -21.1040  -14.4678 C   0  0  0  0  0  0  0  0  0  0  0  0
   20.1281  -22.3472  -14.4530 O   0  0  0  0  0  0  0  0  0  0  0  0
   19.2429  -20.3616  -13.8268 O   0  0  0  0  0  0  0  0  0  0  0  0
  2  1  1  0
  2  4  1  0
  3  2  2  0
  5  4  1  0
  6  7  1  1
  6  5  1  0
  8  9  2  0
  8  6  1  0
 10  8  1  0
 11 10  1  0
 11 17  1  0
 11 12  1  1
 13 12  1  0
 14 13  1  0
 15 14  1  0
 16 15  1  0
 17 19  1  0
 17 18  2  0
 19 20  1  0
 20 21  1  6
 21 22  1  0
 22 23  2  0
 23 24  1  0
 25 24  1  0
 26 25  2  0
 27 26  1  0
 28 29  1  0
 28 27  2  0
 29 30  2  0
 30 22  1  0
 30 25  1  0
 31 33  1  0
 31 20  1  0
 32 31  2  0
M  END
$$$$
