QKW.pdb
     RDKit          3D

 33 34  0  0  1  0  0  0  0  0999 V2000
   27.3722  -20.6842  -19.2968 N   0  0  0  0  0  0  0  0  0  0  0  0
   28.4467  -21.6057  -19.2295 C   0  0  0  0  0  0  0  0  0  0  0  0
   28.7960  -22.1901  -20.2837 O   0  0  0  0  0  0  0  0  0  0  0  0
   29.0815  -21.8106  -17.9043 C   0  0  0  0  0  0  0  0  0  0  0  0
   28.3523  -20.9428  -16.9020 C   0  0  0  0  0  0  0  0  0  0  0  0
   27.6813  -21.7837  -15.8301 C   0  0  2  0  0  0  0  0  0  0  0  0
   26.6618  -22.6163  -16.4693 N   0  0  0  0  0  0  0  0  0  0  0  0
   27.0460  -20.9795  -14.7927 C   0  0  0  0  0  0  0  0  0  0  0  0
   27.7416  -20.1287  -14.1414 O   0  0  0  0  0  0  0  0  0  0  0  0
   25.6908  -21.0359  -14.4099 N   0  0  0  0  0  0  0  0  0  0  0  0
   25.1066  -20.1808  -13.3579 C   0  0  1  0  0  0  0  0  0  0  0  0
   23.6354  -20.1067  -13.7909 C   0  0  0  0  0  0  0  0  0  0  0  0
   23.3435  -19.0310  -14.7680 C   0  0  0  0  0  0  0  0  0  0  0  0
   21.8769  -19.0755  -15.2222 C   0  0  0  0  0  0  0  0  0  0  0  0
   21.5862  -17.9616  -16.2026 C   0  0  0  0  0  0  0  0  0  0  0  0
   20.2102  -18.1139  -16.6406 N   0  0  0  0  0  0  0  0  0  0  0  0
   25.2853  -20.7884  -12.0336 C   0  0  0  0  0  0  0  0  0  0  0  0
   24.7652  -21.9266  -11.7913 O   0  0  0  0  0  0  0  0  0  0  0  0
   26.0135  -20.1904  -10.9765 N   0  0  0  0  0  0  0  0  0  0  0  0
   26.0829  -20.8025   -9.6470 C   0  0  1  0  0  0  0  0  0  0  0  0
   27.3964  -20.5052   -9.0015 C   0  0  0  0  0  0  0  0  0  0  0  0
   27.3405  -20.5270   -7.5423 C   0  0  0  0  0  0  0  0  0  0  0  0
   26.3554  -21.1985   -6.8047 C   0  0  0  0  0  0  0  0  0  0  0  0
   26.5612  -20.9824   -5.5121 N   0  0  0  0  0  0  0  0  0  0  0  0
   27.6366  -20.2000   -5.3487 C   0  0  0  0  0  0  0  0  0  0  0  0
   28.2754  -19.7069   -4.2376 C   0  0  0  0  0  0  0  0  0  0  0  0
   29.4034  -18.9272   -4.3372 C   0  0  0  0  0  0  0  0  0  0  0  0
   29.9103  -18.6307   -5.5823 C   0  0  0  0  0  0  0  0  0  0  0  0
   29.2760  -19.1199   -6.6963 C   0  0  0  0  0  0  0  0  0  0  0  0
   28.1264  -19.9130   -6.6013 C   0  0  0  0  0  0  0  0  0  0  0  0
   24.9544  -20.4280   -8.8079 C   0  0  0  0  0  0  0  0  0  0  0  0
   24.3836  -19.3179   -8.8491 O   0  0  0  0  0  0  0  0  0  0  0  0
   24.4605  -21.3630   -7.8848 O   0  0  0  0  0  0  0  0  0  0  0  0
  2  1  1  0
  2  4  1  0
  3  2  2  0
  5  4  1  0
  6  7  1  6
  6  5  1  0
  8  9  2  0
  8  6  1  0
 10  8  1  0
 11 10  1  0
 11 17  1  0
 11 12  1  6
 13 12  1  0
 14 13  1  0
 15 14  1  0
 16 15  1  0
 17 19  1  0
 17 18  2  0
 19 20  1  0
 20 21  1  1
 21 22  1  0
 22 23  2  0
 23 24  1  0
 25 24  1  0
 26 25  2  0
 27 26  1  0
 28 29  1  0
 28 27  2  0
 29 30  2  0
 30 22  1  0
 30 25  1  0
 31 33  1  0
 31 20  1  0
 32 31  2  0
M  END
$$$$
