QKW.pdb
     RDKit          3D

 33 34  0  0  1  0  0  0  0  0999 V2000
   29.8813  -18.9819  -18.7433 N   0  0  0  0  0  0  0  0  0  0  0  0
   30.1440  -20.3555  -18.9720 C   0  0  0  0  0  0  0  0  0  0  0  0
   31.0249  -20.6608  -19.8122 O   0  0  0  0  0  0  0  0  0  0  0  0
   29.3489  -21.3362  -18.1929 C   0  0  0  0  0  0  0  0  0  0  0  0
   28.5451  -20.5695  -17.1656 C   0  0  0  0  0  0  0  0  0  0  0  0
   27.7299  -21.5070  -16.2921 C   0  0  2  0  0  0  0  0  0  0  0  0
   26.8394  -22.2831  -17.1559 N   0  0  0  0  0  0  0  0  0  0  0  0
   26.9243  -20.8028  -15.3013 C   0  0  0  0  0  0  0  0  0  0  0  0
   26.8283  -19.5301  -15.3575 O   0  0  0  0  0  0  0  0  0  0  0  0
   26.2067  -21.3927  -14.2414 N   0  0  0  0  0  0  0  0  0  0  0  0
   25.3772  -20.6232  -13.2933 C   0  0  1  0  0  0  0  0  0  0  0  0
   23.9585  -20.9232  -13.7981 C   0  0  0  0  0  0  0  0  0  0  0  0
   22.8807  -20.3684  -12.9451 C   0  0  0  0  0  0  0  0  0  0  0  0
   21.4937  -20.7443  -13.4873 C   0  0  0  0  0  0  0  0  0  0  0  0
   20.4034  -20.1006  -12.6607 C   0  0  0  0  0  0  0  0  0  0  0  0
   19.1312  -20.5973  -13.1538 N   0  0  0  0  0  0  0  0  0  0  0  0
   25.6041  -21.0765  -11.9156 C   0  0  0  0  0  0  0  0  0  0  0  0
   25.5855  -22.3242  -11.6556 O   0  0  0  0  0  0  0  0  0  0  0  0
   25.8509  -20.2089  -10.8240 N   0  0  0  0  0  0  0  0  0  0  0  0
   26.0573  -20.7197   -9.4662 C   0  0  1  0  0  0  0  0  0  0  0  0
   27.0506  -19.8775   -8.7352 C   0  0  0  0  0  0  0  0  0  0  0  0
   27.1259  -20.1812   -7.3086 C   0  0  0  0  0  0  0  0  0  0  0  0
   26.2129  -21.0020   -6.6318 C   0  0  0  0  0  0  0  0  0  0  0  0
   26.5333  -21.0349   -5.3449 N   0  0  0  0  0  0  0  0  0  0  0  0
   27.6168  -20.2771   -5.1278 C   0  0  0  0  0  0  0  0  0  0  0  0
   28.3513  -19.9946   -4.0024 C   0  0  0  0  0  0  0  0  0  0  0  0
   29.4636  -19.1877   -4.0474 C   0  0  0  0  0  0  0  0  0  0  0  0
   29.8558  -18.6467   -5.2509 C   0  0  0  0  0  0  0  0  0  0  0  0
   29.1255  -18.9248   -6.3787 C   0  0  0  0  0  0  0  0  0  0  0  0
   27.9914  -19.7444   -6.3390 C   0  0  0  0  0  0  0  0  0  0  0  0
   24.8073  -20.8645   -8.7355 C   0  0  0  0  0  0  0  0  0  0  0  0
   23.7586  -20.2410   -9.0029 O   0  0  0  0  0  0  0  0  0  0  0  0
   24.7569  -21.7594   -7.6553 O   0  0  0  0  0  0  0  0  0  0  0  0
  2  1  1  0
  2  4  1  0
  3  2  2  0
  5  4  1  0
  6  7  1  6
  6  5  1  0
  8  9  2  0
  8  6  1  0
 10  8  1  0
 11 10  1  0
 11 17  1  0
 11 12  1  6
 13 12  1  0
 14 13  1  0
 15 14  1  0
 16 15  1  0
 17 19  1  0
 17 18  2  0
 19 20  1  0
 20 21  1  1
 21 22  1  0
 22 23  2  0
 23 24  1  0
 25 24  1  0
 26 25  2  0
 27 26  1  0
 28 29  1  0
 28 27  2  0
 29 30  2  0
 30 22  1  0
 30 25  1  0
 31 33  1  0
 31 20  1  0
 32 31  2  0
M  END
$$$$
