QKW.pdb
     RDKit          3D

 33 34  0  0  1  0  0  0  0  0999 V2000
   21.4960  -16.9879  -16.4862 N   0  0  0  0  0  0  0  0  0  0  0  0
   21.4691  -16.9958  -17.9030 C   0  0  0  0  0  0  0  0  0  0  0  0
   20.9768  -16.0043  -18.4942 O   0  0  0  0  0  0  0  0  0  0  0  0
   22.0305  -18.1880  -18.5846 C   0  0  0  0  0  0  0  0  0  0  0  0
   22.2117  -19.2732  -17.5459 C   0  0  0  0  0  0  0  0  0  0  0  0
   23.2841  -18.8981  -16.5382 C   0  0  2  0  0  0  0  0  0  0  0  0
   24.0408  -17.7648  -17.0716 N   0  0  0  0  0  0  0  0  0  0  0  0
   24.2098  -19.9904  -16.2614 C   0  0  0  0  0  0  0  0  0  0  0  0
   23.7533  -21.1215  -15.8818 O   0  0  0  0  0  0  0  0  0  0  0  0
   25.6141  -19.9383  -16.3705 N   0  0  0  0  0  0  0  0  0  0  0  0
   26.5071  -21.0128  -15.8941 C   0  0  1  0  0  0  0  0  0  0  0  0
   27.6576  -20.9411  -16.9084 C   0  0  0  0  0  0  0  0  0  0  0  0
   27.2852  -21.3632  -18.2797 C   0  0  0  0  0  0  0  0  0  0  0  0
   27.9948  -22.6677  -18.6717 C   0  0  0  0  0  0  0  0  0  0  0  0
   27.7350  -23.0030  -20.1231 C   0  0  0  0  0  0  0  0  0  0  0  0
   28.3693  -24.2803  -20.3962 N   0  0  0  0  0  0  0  0  0  0  0  0
   26.9409  -20.7568  -14.5152 C   0  0  0  0  0  0  0  0  0  0  0  0
   27.7255  -19.7811  -14.2762 O   0  0  0  0  0  0  0  0  0  0  0  0
   26.5409  -21.5317  -13.3995 N   0  0  0  0  0  0  0  0  0  0  0  0
   26.6895  -21.0394  -12.0274 C   0  0  1  0  0  0  0  0  0  0  0  0
   25.9578  -19.7494  -11.8517 C   0  0  0  0  0  0  0  0  0  0  0  0
   26.2157  -19.1104  -10.5640 C   0  0  0  0  0  0  0  0  0  0  0  0
   26.7476  -17.8213  -10.4202 C   0  0  0  0  0  0  0  0  0  0  0  0
   26.9023  -17.5595   -9.1290 N   0  0  0  0  0  0  0  0  0  0  0  0
   26.4988  -18.6100   -8.4017 C   0  0  0  0  0  0  0  0  0  0  0  0
   26.4315  -18.8422   -7.0499 C   0  0  0  0  0  0  0  0  0  0  0  0
   25.9433  -20.0227   -6.5414 C   0  0  0  0  0  0  0  0  0  0  0  0
   25.5085  -21.0009   -7.4070 C   0  0  0  0  0  0  0  0  0  0  0  0
   25.5740  -20.7750   -8.7587 C   0  0  0  0  0  0  0  0  0  0  0  0
   26.0713  -19.5758   -9.2824 C   0  0  0  0  0  0  0  0  0  0  0  0
   26.3039  -22.0356  -11.0392 C   0  0  0  0  0  0  0  0  0  0  0  0
   25.1928  -22.6052  -11.0096 O   0  0  0  0  0  0  0  0  0  0  0  0
   27.2284  -22.3932  -10.0454 O   0  0  0  0  0  0  0  0  0  0  0  0
  2  1  1  0
  2  4  1  0
  3  2  2  0
  5  4  1  0
  6  7  1  6
  6  5  1  0
  8  9  2  0
  8  6  1  0
 10  8  1  0
 11 10  1  0
 11 17  1  0
 11 12  1  6
 13 12  1  0
 14 13  1  0
 15 14  1  0
 16 15  1  0
 17 19  1  0
 17 18  2  0
 19 20  1  0
 20 21  1  6
 21 22  1  0
 22 23  2  0
 23 24  1  0
 25 24  1  0
 26 25  2  0
 27 26  1  0
 28 29  1  0
 28 27  2  0
 29 30  2  0
 30 22  1  0
 30 25  1  0
 31 33  1  0
 31 20  1  0
 32 31  2  0
M  END
$$$$
