IID.pdb
     RDKit          3D

 25 24  0  0  1  0  0  0  0  0999 V2000
   11.4373  -15.7028   30.7993 C   0  0  0  0  0  0  0  0  0  0  0  0
   10.1704  -16.4121   30.3335 C   0  0  0  0  0  0  0  0  0  0  0  0
    9.8116  -16.0639   28.9179 C   0  0  2  0  0  0  0  0  0  0  0  0
    9.7489  -14.5617   28.7968 C   0  0  0  0  0  0  0  0  0  0  0  0
    8.5682  -16.7379   28.4124 C   0  0  2  0  0  0  0  0  0  0  0  0
    8.7403  -18.2015   28.5546 N   0  0  0  0  0  0  0  0  0  0  0  0
    8.2676  -16.5032   26.9907 C   0  0  0  0  0  0  0  0  0  0  0  0
    8.0122  -17.5078   26.2323 O   0  0  0  0  0  0  0  0  0  0  0  0
    6.2800  -11.8796   26.0936 C   0  0  0  0  0  0  0  0  0  0  0  0
    6.2246  -13.3537   25.7024 C   0  0  0  0  0  0  0  0  0  0  0  0
    7.3450  -13.7148   24.7806 C   0  0  2  0  0  0  0  0  0  0  0  0
    7.0904  -13.2985   23.3531 C   0  0  0  0  0  0  0  0  0  0  0  0
    7.8644  -15.1103   24.9167 C   0  0  2  0  0  0  0  0  0  0  0  0
    8.2224  -15.2554   26.3376 N   0  0  0  0  0  0  0  0  0  0  0  0
    9.0424  -15.4360   24.1163 C   0  0  0  0  0  0  0  0  0  0  0  0
    9.8485  -14.5063   23.7597 O   0  0  0  0  0  0  0  0  0  0  0  0
    9.4092  -16.7349   23.6707 N   0  0  0  0  0  0  0  0  0  0  0  0
   10.5848  -16.9587   22.8360 C   0  0  1  0  0  0  0  0  0  0  0  0
   10.5125  -16.2028   21.5578 C   0  0  0  0  0  0  0  0  0  0  0  0
    9.8984  -17.0339   20.5037 C   0  0  0  0  0  0  0  0  0  0  0  0
    9.4066  -18.1760   20.6720 O   0  0  0  0  0  0  0  0  0  0  0  0
   11.8259  -16.6096   23.5607 C   0  0  0  0  0  0  0  0  0  0  0  0
   12.2266  -15.2701   23.5332 O   0  0  0  0  0  0  0  0  0  0  0  0
    9.8524  -16.5188   19.1972 O   0  0  0  0  0  0  0  0  0  0  0  0
   12.5382  -17.4211   24.1922 O   0  0  0  0  0  0  0  0  0  0  0  0
  2  1  1  0
  3  2  1  0
  3  5  1  0
  3  4  1  1
  5  7  1  0
  5  6  1  6
  7  8  2  0
 10  9  1  0
 11 12  1  6
 11 13  1  0
 11 10  1  0
 13 14  1  1
 14  7  1  0
 15 17  1  0
 15 13  1  0
 16 15  2  0
 18 19  1  6
 18 17  1  0
 19 20  1  0
 20 24  1  0
 20 21  2  0
 22 23  1  0
 22 18  1  0
 25 22  2  0
M  END
$$$$
