IID.pdb
     RDKit          3D

 25 24  0  0  1  0  0  0  0  0999 V2000
    7.3960  -21.7608   27.4107 C   0  0  0  0  0  0  0  0  0  0  0  0
    6.4094  -20.6980   26.9395 C   0  0  0  0  0  0  0  0  0  0  0  0
    7.0984  -19.5202   26.3135 C   0  0  2  0  0  0  0  0  0  0  0  0
    8.1234  -18.9938   27.2868 C   0  0  0  0  0  0  0  0  0  0  0  0
    6.1669  -18.4509   25.8189 C   0  0  2  0  0  0  0  0  0  0  0  0
    5.2980  -19.0365   24.7729 N   0  0  0  0  0  0  0  0  0  0  0  0
    6.8256  -17.2923   25.1942 C   0  0  0  0  0  0  0  0  0  0  0  0
    7.2215  -17.3810   23.9756 O   0  0  0  0  0  0  0  0  0  0  0  0
    5.6892  -12.2479   26.7324 C   0  0  0  0  0  0  0  0  0  0  0  0
    6.0378  -13.3784   25.7683 C   0  0  0  0  0  0  0  0  0  0  0  0
    7.4913  -13.7221   25.8352 C   0  0  2  0  0  0  0  0  0  0  0  0
    8.3882  -12.5548   25.5051 C   0  0  0  0  0  0  0  0  0  0  0  0
    7.8829  -14.9934   25.1523 C   0  0  2  0  0  0  0  0  0  0  0  0
    7.0809  -16.0455   25.7991 N   0  0  0  0  0  0  0  0  0  0  0  0
    9.2911  -15.3683   25.2555 C   0  0  0  0  0  0  0  0  0  0  0  0
    9.7971  -15.6391   26.4009 O   0  0  0  0  0  0  0  0  0  0  0  0
   10.2037  -15.4715   24.1707 N   0  0  0  0  0  0  0  0  0  0  0  0
   11.4467  -16.2276   24.2799 C   0  0  1  0  0  0  0  0  0  0  0  0
   11.2072  -17.6380   24.6848 C   0  0  0  0  0  0  0  0  0  0  0  0
   12.4748  -18.3943   24.6859 C   0  0  0  0  0  0  0  0  0  0  0  0
   12.7865  -19.2927   23.8673 O   0  0  0  0  0  0  0  0  0  0  0  0
   12.2068  -16.1873   23.0119 C   0  0  0  0  0  0  0  0  0  0  0  0
   11.5634  -15.6379   21.8984 O   0  0  0  0  0  0  0  0  0  0  0  0
   13.4226  -18.0963   25.6794 O   0  0  0  0  0  0  0  0  0  0  0  0
   13.3760  -16.6067   22.8647 O   0  0  0  0  0  0  0  0  0  0  0  0
  2  1  1  0
  3  2  1  0
  3  5  1  0
  3  4  1  1
  5  7  1  0
  5  6  1  6
  7  8  2  0
 10  9  1  0
 11 12  1  6
 11 13  1  0
 11 10  1  0
 13 14  1  1
 14  7  1  0
 15 17  1  0
 15 13  1  0
 16 15  2  0
 18 19  1  6
 18 17  1  0
 19 20  1  0
 20 24  1  0
 20 21  2  0
 22 23  1  0
 22 18  1  0
 25 22  2  0
M  END
$$$$
