IID.pdb
     RDKit          3D

 25 24  0  0  1  0  0  0  0  0999 V2000
   11.4630  -15.6588   30.7709 C   0  0  0  0  0  0  0  0  0  0  0  0
   10.1848  -16.3571   30.3198 C   0  0  0  0  0  0  0  0  0  0  0  0
    9.8182  -16.0137   28.9050 C   0  0  2  0  0  0  0  0  0  0  0  0
    9.7702  -14.5117   28.7752 C   0  0  0  0  0  0  0  0  0  0  0  0
    8.5640  -16.6778   28.4135 C   0  0  2  0  0  0  0  0  0  0  0  0
    8.7277  -18.1428   28.5496 N   0  0  0  0  0  0  0  0  0  0  0  0
    8.2471  -16.4371   26.9963 C   0  0  0  0  0  0  0  0  0  0  0  0
    8.1347  -17.4404   26.2024 O   0  0  0  0  0  0  0  0  0  0  0  0
    6.3369  -11.5945   26.0714 C   0  0  0  0  0  0  0  0  0  0  0  0
    6.1174  -13.0636   25.7211 C   0  0  0  0  0  0  0  0  0  0  0  0
    7.2180  -13.5870   24.8550 C   0  0  2  0  0  0  0  0  0  0  0  0
    7.0973  -13.1446   23.4178 C   0  0  0  0  0  0  0  0  0  0  0  0
    7.5227  -15.0423   25.0128 C   0  0  2  0  0  0  0  0  0  0  0  0
    8.0413  -15.1850   26.3836 N   0  0  0  0  0  0  0  0  0  0  0  0
    8.5153  -15.5922   24.0926 C   0  0  0  0  0  0  0  0  0  0  0  0
    8.2426  -15.6919   22.8448 O   0  0  0  0  0  0  0  0  0  0  0  0
    9.8134  -16.0486   24.4488 N   0  0  0  0  0  0  0  0  0  0  0  0
   10.7595  -16.5340   23.4497 C   0  0  1  0  0  0  0  0  0  0  0  0
   11.0734  -15.4983   22.4303 C   0  0  0  0  0  0  0  0  0  0  0  0
   12.0328  -16.0262   21.4405 C   0  0  0  0  0  0  0  0  0  0  0  0
   13.2683  -15.8068   21.4362 O   0  0  0  0  0  0  0  0  0  0  0  0
   12.0062  -17.0119   24.0859 C   0  0  0  0  0  0  0  0  0  0  0  0
   12.9878  -17.5469   23.2458 O   0  0  0  0  0  0  0  0  0  0  0  0
   11.5387  -16.8440   20.4103 O   0  0  0  0  0  0  0  0  0  0  0  0
   12.2441  -16.9722   25.3133 O   0  0  0  0  0  0  0  0  0  0  0  0
  2  1  1  0
  3  2  1  0
  3  5  1  0
  3  4  1  1
  5  7  1  0
  5  6  1  6
  7  8  2  0
 10  9  1  0
 11 12  1  6
 11 13  1  0
 11 10  1  0
 13 14  1  1
 14  7  1  0
 15 17  1  0
 15 13  1  0
 16 15  2  0
 18 19  1  6
 18 17  1  0
 19 20  1  0
 20 24  1  0
 20 21  2  0
 22 23  1  0
 22 18  1  0
 25 22  2  0
M  END
$$$$
