IID.pdb
     RDKit          3D

 25 24  0  0  1  0  0  0  0  0999 V2000
    7.7244  -12.2130   28.2467 C   0  0  0  0  0  0  0  0  0  0  0  0
    6.7382  -12.9368   27.3365 C   0  0  0  0  0  0  0  0  0  0  0  0
    7.4302  -13.7601   26.2890 C   0  0  2  0  0  0  0  0  0  0  0  0
    8.4508  -12.8920   25.5964 C   0  0  0  0  0  0  0  0  0  0  0  0
    6.5009  -14.4420   25.3260 C   0  0  2  0  0  0  0  0  0  0  0  0
    5.7079  -15.4442   26.0733 N   0  0  0  0  0  0  0  0  0  0  0  0
    7.1640  -15.1809   24.2393 C   0  0  0  0  0  0  0  0  0  0  0  0
    7.2110  -16.4632   24.2940 O   0  0  0  0  0  0  0  0  0  0  0  0
    7.1112  -12.6672   19.6163 C   0  0  0  0  0  0  0  0  0  0  0  0
    6.9481  -13.8196   20.6035 C   0  0  0  0  0  0  0  0  0  0  0  0
    8.2300  -14.5678   20.7833 C   0  0  2  0  0  0  0  0  0  0  0  0
    8.7016  -15.2406   19.5180 C   0  0  0  0  0  0  0  0  0  0  0  0
    8.2975  -15.4452   21.9921 C   0  0  2  0  0  0  0  0  0  0  0  0
    7.7755  -14.6249   23.0980 N   0  0  0  0  0  0  0  0  0  0  0  0
    9.6281  -15.9180   22.3667 C   0  0  0  0  0  0  0  0  0  0  0  0
   10.5332  -15.0761   22.7032 O   0  0  0  0  0  0  0  0  0  0  0  0
   10.0466  -17.2759   22.4015 N   0  0  0  0  0  0  0  0  0  0  0  0
   11.4537  -17.6450   22.5134 C   0  0  1  0  0  0  0  0  0  0  0  0
   12.2281  -17.2621   21.3033 C   0  0  0  0  0  0  0  0  0  0  0  0
   12.0292  -18.2562   20.2305 C   0  0  0  0  0  0  0  0  0  0  0  0
   11.2991  -19.2738   20.3079 O   0  0  0  0  0  0  0  0  0  0  0  0
   12.0670  -17.0441   23.7176 C   0  0  0  0  0  0  0  0  0  0  0  0
   12.2052  -17.8647   24.8415 O   0  0  0  0  0  0  0  0  0  0  0  0
   12.7065  -18.0627   19.0147 O   0  0  0  0  0  0  0  0  0  0  0  0
   12.4683  -15.8624   23.8025 O   0  0  0  0  0  0  0  0  0  0  0  0
  2  1  1  0
  3  2  1  0
  3  5  1  0
  3  4  1  6
  5  7  1  0
  5  6  1  1
  7  8  2  0
 10  9  1  0
 11 12  1  6
 11 13  1  0
 11 10  1  0
 13 14  1  1
 14  7  1  0
 15 17  1  0
 15 13  1  0
 16 15  2  0
 18 19  1  6
 18 17  1  0
 19 20  1  0
 20 24  1  0
 20 21  2  0
 22 23  1  0
 22 18  1  0
 25 22  2  0
M  END
$$$$
