IID.pdb
     RDKit          3D

 25 24  0  0  1  0  0  0  0  0999 V2000
    7.6106  -21.6512   27.0923 C   0  0  0  0  0  0  0  0  0  0  0  0
    6.5260  -20.6151   26.8184 C   0  0  0  0  0  0  0  0  0  0  0  0
    7.0279  -19.4741   25.9817 C   0  0  2  0  0  0  0  0  0  0  0  0
    8.3122  -18.9661   26.5880 C   0  0  0  0  0  0  0  0  0  0  0  0
    6.0211  -18.3820   25.7589 C   0  0  2  0  0  0  0  0  0  0  0  0
    4.9280  -18.9198   24.9178 N   0  0  0  0  0  0  0  0  0  0  0  0
    6.5333  -17.1996   25.0475 C   0  0  0  0  0  0  0  0  0  0  0  0
    6.6212  -17.2309   23.7665 O   0  0  0  0  0  0  0  0  0  0  0  0
    6.0727  -12.2970   27.1065 C   0  0  0  0  0  0  0  0  0  0  0  0
    6.1558  -13.2566   25.9227 C   0  0  0  0  0  0  0  0  0  0  0  0
    7.5614  -13.7077   25.6852 C   0  0  2  0  0  0  0  0  0  0  0  0
    8.4694  -12.5914   25.2321 C   0  0  0  0  0  0  0  0  0  0  0  0
    7.7068  -14.9631   24.8863 C   0  0  2  0  0  0  0  0  0  0  0  0
    6.9528  -15.9868   25.6294 N   0  0  0  0  0  0  0  0  0  0  0  0
    9.0717  -15.4500   24.7014 C   0  0  0  0  0  0  0  0  0  0  0  0
    9.8275  -15.6328   25.7196 O   0  0  0  0  0  0  0  0  0  0  0  0
    9.6804  -15.7592   23.4547 N   0  0  0  0  0  0  0  0  0  0  0  0
   11.0690  -16.1975   23.3639 C   0  0  1  0  0  0  0  0  0  0  0  0
   11.2819  -17.1443   22.2376 C   0  0  0  0  0  0  0  0  0  0  0  0
   10.4370  -18.3427   22.4075 C   0  0  0  0  0  0  0  0  0  0  0  0
   10.2233  -18.9341   23.4934 O   0  0  0  0  0  0  0  0  0  0  0  0
   11.9838  -15.0427   23.2337 C   0  0  0  0  0  0  0  0  0  0  0  0
   13.3554  -15.3008   23.3220 O   0  0  0  0  0  0  0  0  0  0  0  0
    9.8124  -18.8793   21.2690 O   0  0  0  0  0  0  0  0  0  0  0  0
   11.6212  -13.8594   23.0516 O   0  0  0  0  0  0  0  0  0  0  0  0
  2  1  1  0
  3  2  1  0
  3  5  1  0
  3  4  1  1
  5  7  1  0
  5  6  1  6
  7  8  2  0
 10  9  1  0
 11 12  1  6
 11 13  1  0
 11 10  1  0
 13 14  1  1
 14  7  1  0
 15 17  1  0
 15 13  1  0
 16 15  2  0
 18 19  1  6
 18 17  1  0
 19 20  1  0
 20 24  1  0
 20 21  2  0
 22 23  1  0
 22 18  1  0
 25 22  2  0
M  END
$$$$
