IID.pdb
     RDKit          3D

 25 24  0  0  1  0  0  0  0  0999 V2000
    8.8569  -11.8667   18.9545 C   0  0  0  0  0  0  0  0  0  0  0  0
    8.0329  -12.5360   20.0490 C   0  0  0  0  0  0  0  0  0  0  0  0
    8.0259  -14.0318   19.9211 C   0  0  2  0  0  0  0  0  0  0  0  0
    7.5503  -14.3905   18.5354 C   0  0  0  0  0  0  0  0  0  0  0  0
    7.2562  -14.7402   20.9989 C   0  0  2  0  0  0  0  0  0  0  0  0
    5.8537  -14.2681   20.9577 N   0  0  0  0  0  0  0  0  0  0  0  0
    7.7277  -14.4855   22.3698 C   0  0  0  0  0  0  0  0  0  0  0  0
    7.6963  -13.2862   22.8283 O   0  0  0  0  0  0  0  0  0  0  0  0
    6.2154  -12.2448   25.3797 C   0  0  0  0  0  0  0  0  0  0  0  0
    7.3360  -12.9723   24.6421 C   0  0  0  0  0  0  0  0  0  0  0  0
    7.6117  -14.3088   25.2528 C   0  0  2  0  0  0  0  0  0  0  0  0
    7.6862  -14.2638   26.7589 C   0  0  0  0  0  0  0  0  0  0  0  0
    8.7188  -15.0887   24.6189 C   0  0  2  0  0  0  0  0  0  0  0  0
    8.2270  -15.4416   23.2765 N   0  0  0  0  0  0  0  0  0  0  0  0
    9.1044  -16.3224   25.2997 C   0  0  0  0  0  0  0  0  0  0  0  0
    8.8393  -17.4561   24.7650 O   0  0  0  0  0  0  0  0  0  0  0  0
    9.7753  -16.4050   26.5501 N   0  0  0  0  0  0  0  0  0  0  0  0
   10.6695  -17.5120   26.8721 C   0  0  1  0  0  0  0  0  0  0  0  0
   11.8214  -17.5883   25.9352 C   0  0  0  0  0  0  0  0  0  0  0  0
   11.5515  -18.5722   24.8685 C   0  0  0  0  0  0  0  0  0  0  0  0
   11.7590  -18.3929   23.6440 O   0  0  0  0  0  0  0  0  0  0  0  0
   11.1561  -17.4147   28.2653 C   0  0  0  0  0  0  0  0  0  0  0  0
   11.8376  -18.5207   28.7828 O   0  0  0  0  0  0  0  0  0  0  0  0
   11.0175  -19.8185   25.2370 O   0  0  0  0  0  0  0  0  0  0  0  0
   11.0028  -16.4207   29.0090 O   0  0  0  0  0  0  0  0  0  0  0  0
  2  1  1  0
  3  2  1  0
  3  5  1  0
  3  4  1  6
  5  7  1  0
  5  6  1  1
  7  8  2  0
 10  9  1  0
 11 12  1  1
 11 13  1  0
 11 10  1  0
 13 14  1  6
 14  7  1  0
 15 17  1  0
 15 13  1  0
 16 15  2  0
 18 19  1  6
 18 17  1  0
 19 20  1  0
 20 24  1  0
 20 21  2  0
 22 23  1  0
 22 18  1  0
 25 22  2  0
M  END
$$$$
