IID.pdb
     RDKit          3D

 25 24  0  0  1  0  0  0  0  0999 V2000
    7.4861  -22.0155   26.9917 C   0  0  0  0  0  0  0  0  0  0  0  0
    6.4417  -20.9980   26.5459 C   0  0  0  0  0  0  0  0  0  0  0  0
    7.0637  -19.7698   25.9473 C   0  0  2  0  0  0  0  0  0  0  0  0
    8.0713  -19.2195   26.9255 C   0  0  0  0  0  0  0  0  0  0  0  0
    6.0741  -18.7357   25.4921 C   0  0  2  0  0  0  0  0  0  0  0  0
    5.1836  -19.3541   24.4839 N   0  0  0  0  0  0  0  0  0  0  0  0
    6.6637  -17.5552   24.8398 C   0  0  0  0  0  0  0  0  0  0  0  0
    6.9619  -17.6149   23.5919 O   0  0  0  0  0  0  0  0  0  0  0  0
    5.9985  -12.5687   26.9812 C   0  0  0  0  0  0  0  0  0  0  0  0
    6.1034  -13.5351   25.8046 C   0  0  0  0  0  0  0  0  0  0  0  0
    7.5034  -14.0297   25.6296 C   0  0  2  0  0  0  0  0  0  0  0  0
    8.4845  -12.9248   25.3252 C   0  0  0  0  0  0  0  0  0  0  0  0
    7.6557  -15.2287   24.7494 C   0  0  2  0  0  0  0  0  0  0  0  0
    6.9485  -16.3159   25.4469 N   0  0  0  0  0  0  0  0  0  0  0  0
    9.0261  -15.6677   24.4968 C   0  0  0  0  0  0  0  0  0  0  0  0
    9.5799  -15.4142   23.3697 O   0  0  0  0  0  0  0  0  0  0  0  0
    9.8513  -16.3780   25.4104 N   0  0  0  0  0  0  0  0  0  0  0  0
   11.2031  -16.7997   25.0590 C   0  0  1  0  0  0  0  0  0  0  0  0
   12.0561  -15.6524   24.6507 C   0  0  0  0  0  0  0  0  0  0  0  0
   12.7244  -15.9407   23.3666 C   0  0  0  0  0  0  0  0  0  0  0  0
   12.5773  -16.9862   22.6886 O   0  0  0  0  0  0  0  0  0  0  0  0
   11.8394  -17.5309   26.1759 C   0  0  0  0  0  0  0  0  0  0  0  0
   13.1004  -18.0874   25.9393 O   0  0  0  0  0  0  0  0  0  0  0  0
   13.6017  -14.9748   22.8453 O   0  0  0  0  0  0  0  0  0  0  0  0
   11.3341  -17.6864   27.3096 O   0  0  0  0  0  0  0  0  0  0  0  0
  2  1  1  0
  3  2  1  0
  3  5  1  0
  3  4  1  1
  5  7  1  0
  5  6  1  6
  7  8  2  0
 10  9  1  0
 11 12  1  6
 11 13  1  0
 11 10  1  0
 13 14  1  1
 14  7  1  0
 15 17  1  0
 15 13  1  0
 16 15  2  0
 18 19  1  1
 18 17  1  0
 19 20  1  0
 20 24  1  0
 20 21  2  0
 22 23  1  0
 22 18  1  0
 25 22  2  0
M  END
$$$$
