IID.pdb
     RDKit          3D

 25 24  0  0  1  0  0  0  0  0999 V2000
    5.8791  -18.5317   19.5202 C   0  0  0  0  0  0  0  0  0  0  0  0
    5.9344  -17.0189   19.7023 C   0  0  0  0  0  0  0  0  0  0  0  0
    6.7454  -16.6197   20.9009 C   0  0  2  0  0  0  0  0  0  0  0  0
    6.2763  -17.4271   22.0854 C   0  0  0  0  0  0  0  0  0  0  0  0
    6.7571  -15.1430   21.1748 C   0  0  2  0  0  0  0  0  0  0  0  0
    7.2515  -14.4480   19.9647 N   0  0  0  0  0  0  0  0  0  0  0  0
    7.6422  -14.7209   22.2725 C   0  0  0  0  0  0  0  0  0  0  0  0
    8.9055  -14.6333   22.0577 O   0  0  0  0  0  0  0  0  0  0  0  0
    6.2472  -12.4349   27.4306 C   0  0  0  0  0  0  0  0  0  0  0  0
    6.3254  -13.2041   26.1148 C   0  0  0  0  0  0  0  0  0  0  0  0
    7.5652  -12.8575   25.3546 C   0  0  2  0  0  0  0  0  0  0  0  0
    7.4144  -11.6104   24.5191 C   0  0  0  0  0  0  0  0  0  0  0  0
    8.2121  -13.9932   24.6284 C   0  0  2  0  0  0  0  0  0  0  0  0
    7.2509  -14.3851   23.5838 N   0  0  0  0  0  0  0  0  0  0  0  0
    8.5173  -15.1754   25.4308 C   0  0  0  0  0  0  0  0  0  0  0  0
    7.6331  -16.0902   25.5812 O   0  0  0  0  0  0  0  0  0  0  0  0
    9.7483  -15.4334   26.0927 N   0  0  0  0  0  0  0  0  0  0  0  0
   10.3011  -16.7800   26.1923 C   0  0  1  0  0  0  0  0  0  0  0  0
   11.4814  -16.9646   25.3073 C   0  0  0  0  0  0  0  0  0  0  0  0
   12.0377  -18.3221   25.4697 C   0  0  0  0  0  0  0  0  0  0  0  0
   12.7316  -18.7128   26.4394 O   0  0  0  0  0  0  0  0  0  0  0  0
   10.6607  -17.1052   27.5895 C   0  0  0  0  0  0  0  0  0  0  0  0
   11.0835  -18.4119   27.8529 O   0  0  0  0  0  0  0  0  0  0  0  0
   11.7786  -19.2685   24.4639 O   0  0  0  0  0  0  0  0  0  0  0  0
   10.6140  -16.3008   28.5463 O   0  0  0  0  0  0  0  0  0  0  0  0
  2  1  1  0
  3  2  1  0
  3  5  1  0
  3  4  1  1
  5  7  1  0
  5  6  1  6
  7  8  2  0
 10  9  1  0
 11 12  1  6
 11 13  1  0
 11 10  1  0
 13 14  1  6
 14  7  1  0
 15 17  1  0
 15 13  1  0
 16 15  2  0
 18 19  1  6
 18 17  1  0
 19 20  1  0
 20 24  1  0
 20 21  2  0
 22 23  1  0
 22 18  1  0
 25 22  2  0
M  END
$$$$
