IID.pdb
     RDKit          3D

 25 24  0  0  1  0  0  0  0  0999 V2000
   11.2327  -14.5237   29.0781 C   0  0  0  0  0  0  0  0  0  0  0  0
   10.6199  -15.6952   28.3185 C   0  0  0  0  0  0  0  0  0  0  0  0
    9.4536  -16.2976   29.0470 C   0  0  2  0  0  0  0  0  0  0  0  0
    9.9457  -16.8521   30.3606 C   0  0  0  0  0  0  0  0  0  0  0  0
    8.6793  -17.3055   28.2467 C   0  0  2  0  0  0  0  0  0  0  0  0
    9.5854  -18.4251   27.9046 N   0  0  0  0  0  0  0  0  0  0  0  0
    8.1499  -16.8090   26.9662 C   0  0  0  0  0  0  0  0  0  0  0  0
    7.7632  -17.6547   26.0803 O   0  0  0  0  0  0  0  0  0  0  0  0
    6.5906  -11.5917   26.5244 C   0  0  0  0  0  0  0  0  0  0  0  0
    6.3988  -13.0693   26.1943 C   0  0  0  0  0  0  0  0  0  0  0  0
    7.4727  -13.5670   25.2809 C   0  0  2  0  0  0  0  0  0  0  0  0
    7.4473  -12.9039   23.9260 C   0  0  0  0  0  0  0  0  0  0  0  0
    7.6269  -15.0530   25.2204 C   0  0  2  0  0  0  0  0  0  0  0  0
    8.0090  -15.4604   26.5830 N   0  0  0  0  0  0  0  0  0  0  0  0
    8.6409  -15.5545   24.2959 C   0  0  0  0  0  0  0  0  0  0  0  0
    8.2846  -16.1049   23.1953 O   0  0  0  0  0  0  0  0  0  0  0  0
   10.0470  -15.4932   24.4941 N   0  0  0  0  0  0  0  0  0  0  0  0
   10.9869  -16.0094   23.5047 C   0  0  1  0  0  0  0  0  0  0  0  0
   12.2130  -15.1735   23.4119 C   0  0  0  0  0  0  0  0  0  0  0  0
   13.1333  -15.7227   22.3969 C   0  0  0  0  0  0  0  0  0  0  0  0
   14.2313  -16.2809   22.6365 O   0  0  0  0  0  0  0  0  0  0  0  0
   11.3519  -17.4120   23.7989 C   0  0  0  0  0  0  0  0  0  0  0  0
   11.8671  -18.1729   22.7446 O   0  0  0  0  0  0  0  0  0  0  0  0
   12.7650  -15.6204   21.0448 O   0  0  0  0  0  0  0  0  0  0  0  0
   11.2337  -17.9631   24.9156 O   0  0  0  0  0  0  0  0  0  0  0  0
  2  1  1  0
  3  2  1  0
  3  5  1  0
  3  4  1  1
  5  7  1  0
  5  6  1  6
  7  8  2  0
 10  9  1  0
 11 12  1  6
 11 13  1  0
 11 10  1  0
 13 14  1  1
 14  7  1  0
 15 17  1  0
 15 13  1  0
 16 15  2  0
 18 19  1  1
 18 17  1  0
 19 20  1  0
 20 24  1  0
 20 21  2  0
 22 23  1  0
 22 18  1  0
 25 22  2  0
M  END
$$$$
