IID.pdb
     RDKit          3D

 25 24  0  0  1  0  0  0  0  0999 V2000
    7.0361  -10.8733   27.1629 C   0  0  0  0  0  0  0  0  0  0  0  0
    7.6181  -12.2821   27.1268 C   0  0  0  0  0  0  0  0  0  0  0  0
    6.9409  -13.1511   26.1069 C   0  0  2  0  0  0  0  0  0  0  0  0
    5.4558  -13.1272   26.3696 C   0  0  0  0  0  0  0  0  0  0  0  0
    7.4914  -14.5458   26.0207 C   0  0  2  0  0  0  0  0  0  0  0  0
    8.9343  -14.4990   26.3487 N   0  0  0  0  0  0  0  0  0  0  0  0
    7.4000  -15.1695   24.6905 C   0  0  0  0  0  0  0  0  0  0  0  0
    6.4919  -16.0520   24.4756 O   0  0  0  0  0  0  0  0  0  0  0  0
    7.6393  -12.0662   20.6250 C   0  0  0  0  0  0  0  0  0  0  0  0
    7.2991  -13.2184   21.5663 C   0  0  0  0  0  0  0  0  0  0  0  0
    8.1278  -14.4268   21.2692 C   0  0  2  0  0  0  0  0  0  0  0  0
    8.0083  -14.8850   19.8367 C   0  0  0  0  0  0  0  0  0  0  0  0
    8.0259  -15.5366   22.2660 C   0  0  2  0  0  0  0  0  0  0  0  0
    8.2229  -14.8995   23.5790 N   0  0  0  0  0  0  0  0  0  0  0  0
    9.0069  -16.6107   22.1311 C   0  0  0  0  0  0  0  0  0  0  0  0
    8.9050  -17.4510   21.1695 O   0  0  0  0  0  0  0  0  0  0  0  0
   10.1162  -16.8338   22.9914 N   0  0  0  0  0  0  0  0  0  0  0  0
   11.0216  -17.9623   22.8029 C   0  0  1  0  0  0  0  0  0  0  0  0
   12.4378  -17.5262   22.6826 C   0  0  0  0  0  0  0  0  0  0  0  0
   12.6852  -16.9469   21.3477 C   0  0  0  0  0  0  0  0  0  0  0  0
   11.8230  -16.7974   20.4485 O   0  0  0  0  0  0  0  0  0  0  0  0
   10.8856  -18.9425   23.9020 C   0  0  0  0  0  0  0  0  0  0  0  0
   11.7005  -20.0778   23.8501 O   0  0  0  0  0  0  0  0  0  0  0  0
   13.9892  -16.5225   21.0415 O   0  0  0  0  0  0  0  0  0  0  0  0
   10.0993  -18.8298   24.8683 O   0  0  0  0  0  0  0  0  0  0  0  0
  2  1  1  0
  3  2  1  0
  3  5  1  0
  3  4  1  1
  5  7  1  0
  5  6  1  6
  7  8  2  0
 10  9  1  0
 11 12  1  6
 11 13  1  0
 11 10  1  0
 13 14  1  1
 14  7  1  0
 15 17  1  0
 15 13  1  0
 16 15  2  0
 18 19  1  1
 18 17  1  0
 19 20  1  0
 20 24  1  0
 20 21  2  0
 22 23  1  0
 22 18  1  0
 25 22  2  0
M  END
$$$$
