IID.pdb
     RDKit          3D

 25 24  0  0  1  0  0  0  0  0999 V2000
    7.2521  -12.4740   28.5324 C   0  0  0  0  0  0  0  0  0  0  0  0
    6.3957  -13.3494   27.6242 C   0  0  0  0  0  0  0  0  0  0  0  0
    7.1816  -13.9218   26.4802 C   0  0  2  0  0  0  0  0  0  0  0  0
    7.9144  -12.7962   25.7938 C   0  0  0  0  0  0  0  0  0  0  0  0
    6.3696  -14.7506   25.5265 C   0  0  2  0  0  0  0  0  0  0  0  0
    5.7519  -15.8625   26.2841 N   0  0  0  0  0  0  0  0  0  0  0  0
    7.1377  -15.3803   24.4402 C   0  0  0  0  0  0  0  0  0  0  0  0
    7.4925  -16.6091   24.5570 O   0  0  0  0  0  0  0  0  0  0  0  0
    8.0036  -12.6626   19.5137 C   0  0  0  0  0  0  0  0  0  0  0  0
    8.4288  -13.4009   20.7799 C   0  0  0  0  0  0  0  0  0  0  0  0
    7.7545  -14.7310   20.8869 C   0  0  2  0  0  0  0  0  0  0  0  0
    6.2745  -14.6655   20.6021 C   0  0  0  0  0  0  0  0  0  0  0  0
    8.0982  -15.5294   22.1035 C   0  0  2  0  0  0  0  0  0  0  0  0
    7.5437  -14.7699   23.2368 N   0  0  0  0  0  0  0  0  0  0  0  0
    9.5227  -15.7384   22.3510 C   0  0  0  0  0  0  0  0  0  0  0  0
   10.1833  -14.8828   23.0386 O   0  0  0  0  0  0  0  0  0  0  0  0
   10.2914  -16.8419   21.8908 N   0  0  0  0  0  0  0  0  0  0  0  0
   11.6803  -17.0341   22.2944 C   0  0  1  0  0  0  0  0  0  0  0  0
   11.8889  -18.3437   22.9665 C   0  0  0  0  0  0  0  0  0  0  0  0
   13.3205  -18.5462   23.2635 C   0  0  0  0  0  0  0  0  0  0  0  0
   14.2328  -17.7113   23.0509 O   0  0  0  0  0  0  0  0  0  0  0  0
   12.5927  -16.9082   21.1373 C   0  0  0  0  0  0  0  0  0  0  0  0
   12.0104  -16.6821   19.8861 O   0  0  0  0  0  0  0  0  0  0  0  0
   13.7122  -19.7703   23.8316 O   0  0  0  0  0  0  0  0  0  0  0  0
   13.8395  -16.9889   21.1970 O   0  0  0  0  0  0  0  0  0  0  0  0
  2  1  1  0
  3  2  1  0
  3  5  1  0
  3  4  1  6
  5  7  1  0
  5  6  1  1
  7  8  2  0
 10  9  1  0
 11 12  1  1
 11 13  1  0
 11 10  1  0
 13 14  1  1
 14  7  1  0
 15 17  1  0
 15 13  1  0
 16 15  2  0
 18 19  1  6
 18 17  1  0
 19 20  1  0
 20 24  1  0
 20 21  2  0
 22 23  1  0
 22 18  1  0
 25 22  2  0
M  END
$$$$
