RTA.pdb
     RDKit          3D

 24 23  0  0  1  0  0  0  0  0999 V2000
    5.8198  -19.9645   14.2981 N   0  0  0  0  0  0  0  0  0  0  0  0
    6.1110  -21.3271   14.5557 C   0  0  0  0  0  0  0  0  0  0  0  0
    5.6601  -22.2372   13.7914 N   0  0  0  0  0  0  0  0  0  0  0  0
    6.9119  -21.6655   15.6753 N   0  0  0  0  0  0  0  0  0  0  0  0
    7.4988  -20.6810   16.5448 C   0  0  0  0  0  0  0  0  0  0  0  0
    8.6656  -19.9446   15.9516 C   0  0  0  0  0  0  0  0  0  0  0  0
    9.3256  -19.0114   16.9418 C   0  0  0  0  0  0  0  0  0  0  0  0
    9.0815  -17.5873   16.4998 C   0  0  2  0  0  0  0  0  0  0  0  0
    9.9389  -17.3176   15.3700 N   0  0  0  0  0  0  0  0  0  0  0  0
    9.3530  -16.6135   17.5852 C   0  0  0  0  0  0  0  0  0  0  0  0
   10.5460  -16.3945   17.9121 O   0  0  0  0  0  0  0  0  0  0  0  0
    5.8010  -23.2530   13.9345 C   0  0  0  0  0  0  0  0  0  0  0  0
    7.9341  -12.8661   20.5123 C   0  0  2  0  0  0  0  0  0  0  0  0
    7.6343  -13.8752   19.4267 O   0  0  0  0  0  0  0  0  0  0  0  0
    7.5326  -13.2159   18.2123 C   0  0  1  0  0  0  0  0  0  0  0  0
    8.6839  -14.9431   19.3314 N   0  0  0  0  0  0  0  0  0  0  0  0
    8.3547  -15.9124   18.2793 C   0  0  0  0  0  0  0  0  0  0  0  0
    8.8998  -15.6875   20.6006 O   0  0  0  0  0  0  0  0  0  0  0  0
    8.1945  -16.7247   20.8718 C   0  0  0  0  0  0  0  0  0  0  0  0
   10.3936  -17.5098   22.5071 C   0  0  2  0  0  0  0  0  0  0  0  0
    9.9754  -16.0930   22.8359 N   0  0  0  0  0  0  0  0  0  0  0  0
    9.8495  -15.3479   21.5794 C   0  0  0  0  0  0  0  0  0  0  0  0
   10.9109  -15.4601   23.7606 O   0  0  0  0  0  0  0  0  0  0  0  0
   11.0278  -15.8596   25.0781 O   0  0  0  0  0  0  0  0  0  0  0  0
  2  1  1  0
  2  3  2  0
  4  5  1  0
  4  2  1  0
  6  5  1  0
  7  8  1  0
  7  6  1  0
  8  9  1  6
  8 10  1  0
 10 11  2  0
 10 16  1  0
 13 12  1  1
 13 14  1  0
 15 17  1  0
 15 13  1  0
 15 16  1  1
 17 18  2  0
 20 19  1  6
 21 20  1  0
 21 17  1  0
 22 20  1  0
 23 22  1  0
 24 22  2  0
M  END
$$$$
