RTA.pdb
     RDKit          3D

 24 23  0  0  1  0  0  0  0  0999 V2000
   15.6439  -14.2680   18.9889 N   0  0  0  0  0  0  0  0  0  0  0  0
   15.7112  -15.1679   17.8965 C   0  0  0  0  0  0  0  0  0  0  0  0
   16.7734  -15.8290   17.6717 N   0  0  0  0  0  0  0  0  0  0  0  0
   14.5804  -15.3243   17.0561 N   0  0  0  0  0  0  0  0  0  0  0  0
   13.2371  -15.0490   17.4912 C   0  0  0  0  0  0  0  0  0  0  0  0
   13.1223  -14.6370   18.9308 C   0  0  0  0  0  0  0  0  0  0  0  0
   11.7163  -14.2245   19.3049 C   0  0  0  0  0  0  0  0  0  0  0  0
   11.0996  -15.3184   20.1453 C   0  0  2  0  0  0  0  0  0  0  0  0
   10.5830  -16.3290   19.2530 N   0  0  0  0  0  0  0  0  0  0  0  0
   10.0120  -14.8063   21.0142 C   0  0  0  0  0  0  0  0  0  0  0  0
    9.5764  -13.6456   20.8115 O   0  0  0  0  0  0  0  0  0  0  0  0
   17.6678  -15.7008   18.1772 C   0  0  0  0  0  0  0  0  0  0  0  0
    6.5405  -15.9779   21.4861 C   0  0  2  0  0  0  0  0  0  0  0  0
    7.1435  -15.8610   22.8679 O   0  0  0  0  0  0  0  0  0  0  0  0
    7.4804  -17.1258   23.3226 C   0  0  2  0  0  0  0  0  0  0  0  0
    8.3577  -14.9800   22.8905 N   0  0  0  0  0  0  0  0  0  0  0  0
    9.4303  -15.5403   22.0596 C   0  0  0  0  0  0  0  0  0  0  0  0
    8.9007  -14.7410   24.2543 O   0  0  0  0  0  0  0  0  0  0  0  0
    9.8861  -15.4375   24.6909 C   0  0  0  0  0  0  0  0  0  0  0  0
    8.1711  -12.5495   27.2195 C   0  0  2  0  0  0  0  0  0  0  0  0
    8.8705  -13.7109   26.5468 N   0  0  0  0  0  0  0  0  0  0  0  0
    8.4148  -13.7776   25.1549 C   0  0  0  0  0  0  0  0  0  0  0  0
    8.6396  -14.9617   27.2629 O   0  0  0  0  0  0  0  0  0  0  0  0
    7.7742  -15.9307   26.7923 O   0  0  0  0  0  0  0  0  0  0  0  0
  2  1  1  0
  2  3  2  0
  4  5  1  0
  4  2  1  0
  6  5  1  0
  7  8  1  0
  7  6  1  0
  8  9  1  6
  8 10  1  0
 10 11  2  0
 10 16  1  0
 13 12  1  1
 13 14  1  0
 15 17  1  0
 15 13  1  0
 15 16  1  1
 17 18  2  0
 20 19  1  6
 21 20  1  0
 21 17  1  0
 22 20  1  0
 23 22  1  0
 24 22  2  0
M  END
$$$$
