RTA.pdb
     RDKit          3D

 24 23  0  0  1  0  0  0  0  0999 V2000
    8.4815  -12.0882   19.2919 N   0  0  0  0  0  0  0  0  0  0  0  0
    9.5920  -12.9659   19.2263 C   0  0  0  0  0  0  0  0  0  0  0  0
   10.6999  -12.6429   19.7592 N   0  0  0  0  0  0  0  0  0  0  0  0
    9.4546  -14.2097   18.5603 N   0  0  0  0  0  0  0  0  0  0  0  0
    8.1784  -14.8131   18.2833 C   0  0  0  0  0  0  0  0  0  0  0  0
    7.8709  -16.0257   19.1143 C   0  0  0  0  0  0  0  0  0  0  0  0
    7.4461  -15.6707   20.5217 C   0  0  0  0  0  0  0  0  0  0  0  0
    7.2550  -16.9485   21.3051 C   0  0  2  0  0  0  0  0  0  0  0  0
    6.1568  -17.6749   20.7132 N   0  0  0  0  0  0  0  0  0  0  0  0
    6.9748  -16.6861   22.7379 C   0  0  0  0  0  0  0  0  0  0  0  0
    5.7813  -16.5328   23.0989 O   0  0  0  0  0  0  0  0  0  0  0  0
   11.5644  -13.2112   19.7167 C   0  0  0  0  0  0  0  0  0  0  0  0
    6.1134  -18.4975   24.9924 C   0  0  2  0  0  0  0  0  0  0  0  0
    7.2795  -17.8563   25.7106 O   0  0  0  0  0  0  0  0  0  0  0  0
    8.3818  -18.6907   25.6174 C   0  0  2  0  0  0  0  0  0  0  0  0
    7.6236  -16.5065   25.1532 N   0  0  0  0  0  0  0  0  0  0  0  0
    7.9651  -16.5967   23.7284 C   0  0  0  0  0  0  0  0  0  0  0  0
    8.7456  -15.8334   25.8602 O   0  0  0  0  0  0  0  0  0  0  0  0
    9.9497  -15.9623   25.4355 C   0  0  0  0  0  0  0  0  0  0  0  0
    9.2611  -13.4586   28.7177 C   0  0  2  0  0  0  0  0  0  0  0  0
    9.7641  -14.4676   27.7082 N   0  0  0  0  0  0  0  0  0  0  0  0
    8.6070  -15.0294   27.0046 C   0  0  0  0  0  0  0  0  0  0  0  0
   10.5774  -15.5000   28.3434 O   0  0  0  0  0  0  0  0  0  0  0  0
   11.8919  -15.2808   28.7087 O   0  0  0  0  0  0  0  0  0  0  0  0
  2  1  1  0
  2  3  2  0
  4  5  1  0
  4  2  1  0
  6  5  1  0
  7  8  1  0
  7  6  1  0
  8  9  1  6
  8 10  1  0
 10 11  2  0
 10 16  1  0
 13 12  1  1
 13 14  1  0
 15 17  1  0
 15 13  1  0
 15 16  1  1
 17 18  2  0
 20 19  1  6
 21 20  1  0
 21 17  1  0
 22 20  1  0
 23 22  1  0
 24 22  2  0
M  END
$$$$
