RTA.pdb
     RDKit          3D

 24 23  0  0  1  0  0  0  0  0999 V2000
    0.4262  -19.1646   23.0367 N   0  0  0  0  0  0  0  0  0  0  0  0
    0.8654  -20.4446   22.6167 C   0  0  0  0  0  0  0  0  0  0  0  0
    0.0227  -21.3505   22.3250 N   0  0  0  0  0  0  0  0  0  0  0  0
    2.2557  -20.7049   22.5240 N   0  0  0  0  0  0  0  0  0  0  0  0
    3.2080  -19.7245   22.0750 C   0  0  0  0  0  0  0  0  0  0  0  0
    3.8502  -18.9318   23.1771 C   0  0  0  0  0  0  0  0  0  0  0  0
    5.3589  -19.0350   23.1615 C   0  0  0  0  0  0  0  0  0  0  0  0
    5.8819  -18.2821   21.9604 C   0  0  2  0  0  0  0  0  0  0  0  0
    6.2213  -19.2473   20.9418 N   0  0  0  0  0  0  0  0  0  0  0  0
    7.0700  -17.4589   22.2937 C   0  0  0  0  0  0  0  0  0  0  0  0
    8.2101  -17.9730   22.1756 O   0  0  0  0  0  0  0  0  0  0  0  0
    0.2663  -22.3195   22.0535 C   0  0  0  0  0  0  0  0  0  0  0  0
    8.4342  -14.4742   20.7559 C   0  0  2  0  0  0  0  0  0  0  0  0
    8.3435  -14.1452   22.2291 O   0  0  0  0  0  0  0  0  0  0  0  0
    7.2537  -13.3161   22.4408 C   0  0  2  0  0  0  0  0  0  0  0  0
    8.2139  -15.3720   23.0831 N   0  0  0  0  0  0  0  0  0  0  0  0
    7.0047  -16.1289   22.7372 C   0  0  0  0  0  0  0  0  0  0  0  0
    8.1844  -15.0870   24.5425 O   0  0  0  0  0  0  0  0  0  0  0  0
    7.1284  -15.3314   25.2295 C   0  0  0  0  0  0  0  0  0  0  0  0
    8.0202  -13.2020   26.8553 C   0  0  1  0  0  0  0  0  0  0  0  0
    9.1340  -14.2147   26.7001 N   0  0  0  0  0  0  0  0  0  0  0  0
    9.2549  -14.5500   25.2779 C   0  0  0  0  0  0  0  0  0  0  0  0
    8.9027  -15.3951   27.5269 O   0  0  0  0  0  0  0  0  0  0  0  0
    9.1505  -15.4020   28.8863 O   0  0  0  0  0  0  0  0  0  0  0  0
  2  1  1  0
  2  3  2  0
  4  5  1  0
  4  2  1  0
  6  5  1  0
  7  8  1  0
  7  6  1  0
  8  9  1  6
  8 10  1  0
 10 11  2  0
 10 16  1  0
 13 12  1  6
 13 14  1  0
 15 17  1  0
 15 13  1  0
 15 16  1  1
 17 18  2  0
 20 19  1  6
 21 20  1  0
 21 17  1  0
 22 20  1  0
 23 22  1  0
 24 22  2  0
M  END
$$$$
