RTA.pdb
     RDKit          3D

 24 23  0  0  1  0  0  0  0  0999 V2000
   17.0080  -14.1251   19.1324 N   0  0  0  0  0  0  0  0  0  0  0  0
   16.6919  -13.9002   17.7696 C   0  0  0  0  0  0  0  0  0  0  0  0
   17.0979  -12.8501   17.1796 N   0  0  0  0  0  0  0  0  0  0  0  0
   15.9179  -14.8596   17.0697 N   0  0  0  0  0  0  0  0  0  0  0  0
   15.4159  -16.0599   17.6837 C   0  0  0  0  0  0  0  0  0  0  0  0
   13.9280  -16.2357   17.5792 C   0  0  0  0  0  0  0  0  0  0  0  0
   13.1656  -15.2168   18.3963 C   0  0  0  0  0  0  0  0  0  0  0  0
   11.6861  -15.4773   18.2342 C   0  0  2  0  0  0  0  0  0  0  0  0
   11.3430  -15.2560   16.8495 N   0  0  0  0  0  0  0  0  0  0  0  0
   10.8678  -14.5986   19.1052 C   0  0  0  0  0  0  0  0  0  0  0  0
   10.9642  -13.3540   18.9644 O   0  0  0  0  0  0  0  0  0  0  0  0
   16.9312  -12.6306   16.1815 C   0  0  0  0  0  0  0  0  0  0  0  0
    7.7917  -13.2704   19.1095 C   0  0  2  0  0  0  0  0  0  0  0  0
    7.8344  -13.9591   20.4551 O   0  0  0  0  0  0  0  0  0  0  0  0
    7.2050  -15.1893   20.3534 C   0  0  2  0  0  0  0  0  0  0  0  0
    9.2356  -14.1524   20.9556 N   0  0  0  0  0  0  0  0  0  0  0  0
    9.9829  -15.0702   20.0873 C   0  0  0  0  0  0  0  0  0  0  0  0
    9.3096  -14.6650   22.3497 O   0  0  0  0  0  0  0  0  0  0  0  0
    9.7608  -15.8433   22.5841 C   0  0  0  0  0  0  0  0  0  0  0  0
    8.3672  -13.5255   25.8052 C   0  0  2  0  0  0  0  0  0  0  0  0
    8.8610  -14.5635   24.8208 N   0  0  0  0  0  0  0  0  0  0  0  0
    8.9142  -13.9472   23.4916 C   0  0  0  0  0  0  0  0  0  0  0  0
    8.0251  -15.7599   24.8406 O   0  0  0  0  0  0  0  0  0  0  0  0
    8.2678  -16.8136   25.7009 O   0  0  0  0  0  0  0  0  0  0  0  0
  2  1  1  0
  2  3  2  0
  4  5  1  0
  4  2  1  0
  6  5  1  0
  7  8  1  0
  7  6  1  0
  8  9  1  6
  8 10  1  0
 10 11  2  0
 10 16  1  0
 13 12  1  1
 13 14  1  0
 15 17  1  0
 15 13  1  0
 15 16  1  1
 17 18  2  0
 20 19  1  1
 21 20  1  0
 21 17  1  0
 22 20  1  0
 23 22  1  0
 24 22  2  0
M  END
$$$$
