RTA.pdb
     RDKit          3D

 24 23  0  0  1  0  0  0  0  0999 V2000
    7.9154  -12.5694   17.0672 N   0  0  0  0  0  0  0  0  0  0  0  0
    8.6450  -13.7805   16.9744 C   0  0  0  0  0  0  0  0  0  0  0  0
    8.5125  -14.5357   15.9605 N   0  0  0  0  0  0  0  0  0  0  0  0
    9.5260  -14.1416   18.0246 N   0  0  0  0  0  0  0  0  0  0  0  0
    9.1132  -14.2229   19.4003 C   0  0  0  0  0  0  0  0  0  0  0  0
    7.6325  -14.0901   19.6136 C   0  0  0  0  0  0  0  0  0  0  0  0
    7.2447  -14.2050   21.0708 C   0  0  0  0  0  0  0  0  0  0  0  0
    7.5268  -15.6147   21.5358 C   0  0  2  0  0  0  0  0  0  0  0  0
    6.6618  -16.5081   20.8024 N   0  0  0  0  0  0  0  0  0  0  0  0
    7.3021  -15.7754   22.9931 C   0  0  0  0  0  0  0  0  0  0  0  0
    6.1623  -15.5233   23.4572 O   0  0  0  0  0  0  0  0  0  0  0  0
    9.0037  -15.4372   15.8265 C   0  0  0  0  0  0  0  0  0  0  0  0
    6.5915  -18.4264   24.8617 C   0  0  2  0  0  0  0  0  0  0  0  0
    7.7696  -17.8555   25.6186 O   0  0  0  0  0  0  0  0  0  0  0  0
    8.9081  -18.5744   25.2918 C   0  0  2  0  0  0  0  0  0  0  0  0
    7.9917  -16.4018   25.3210 N   0  0  0  0  0  0  0  0  0  0  0  0
    8.2891  -16.1950   23.8985 C   0  0  0  0  0  0  0  0  0  0  0  0
    9.0840  -15.7856   26.1204 O   0  0  0  0  0  0  0  0  0  0  0  0
   10.2973  -15.8332   25.7051 C   0  0  0  0  0  0  0  0  0  0  0  0
    9.5573  -13.4484   28.9602 C   0  0  2  0  0  0  0  0  0  0  0  0
   10.0372  -14.6222   28.1342 N   0  0  0  0  0  0  0  0  0  0  0  0
    8.9062  -15.1227   27.3469 C   0  0  0  0  0  0  0  0  0  0  0  0
   10.6274  -15.6608   28.9730 O   0  0  0  0  0  0  0  0  0  0  0  0
   11.8518  -15.4993   29.5928 O   0  0  0  0  0  0  0  0  0  0  0  0
  2  1  1  0
  2  3  2  0
  4  5  1  0
  4  2  1  0
  6  5  1  0
  7  8  1  0
  7  6  1  0
  8  9  1  6
  8 10  1  0
 10 11  2  0
 10 16  1  0
 13 12  1  1
 13 14  1  0
 15 17  1  0
 15 13  1  0
 15 16  1  1
 17 18  2  0
 20 19  1  6
 21 20  1  0
 21 17  1  0
 22 20  1  0
 23 22  1  0
 24 22  2  0
M  END
$$$$
