RTA.pdb
     RDKit          3D

 24 23  0  0  1  0  0  0  0  0999 V2000
    6.7493  -13.5515   18.8576 N   0  0  0  0  0  0  0  0  0  0  0  0
    7.7832  -13.2020   17.9540 C   0  0  0  0  0  0  0  0  0  0  0  0
    7.5062  -12.8448   16.7659 N   0  0  0  0  0  0  0  0  0  0  0  0
    9.1314  -13.2541   18.3889 N   0  0  0  0  0  0  0  0  0  0  0  0
    9.6529  -14.3237   19.1973 C   0  0  0  0  0  0  0  0  0  0  0  0
    8.6557  -15.3977   19.5254 C   0  0  0  0  0  0  0  0  0  0  0  0
    9.2618  -16.5239   20.3325 C   0  0  0  0  0  0  0  0  0  0  0  0
   10.0750  -17.3982   19.4066 C   0  0  2  0  0  0  0  0  0  0  0  0
    9.1648  -18.0521   18.4965 N   0  0  0  0  0  0  0  0  0  0  0  0
   10.8642  -18.4115   20.1486 C   0  0  0  0  0  0  0  0  0  0  0  0
   10.2934  -19.4699   20.5123 O   0  0  0  0  0  0  0  0  0  0  0  0
    8.2044  -12.6876   16.0177 C   0  0  0  0  0  0  0  0  0  0  0  0
   15.2393  -20.3512   21.4626 C   0  0  2  0  0  0  0  0  0  0  0  0
   14.4134  -19.3231   20.7223 O   0  0  0  0  0  0  0  0  0  0  0  0
   14.5018  -19.5673   19.3613 C   0  0  1  0  0  0  0  0  0  0  0  0
   12.9729  -19.3356   21.1417 N   0  0  0  0  0  0  0  0  0  0  0  0
   12.2213  -18.2653   20.4751 C   0  0  0  0  0  0  0  0  0  0  0  0
   12.7739  -19.2011   22.6094 O   0  0  0  0  0  0  0  0  0  0  0  0
   12.9927  -18.0795   23.1932 C   0  0  0  0  0  0  0  0  0  0  0  0
   10.7482  -20.6300   25.2258 C   0  0  2  0  0  0  0  0  0  0  0  0
   12.0890  -20.0154   24.8866 N   0  0  0  0  0  0  0  0  0  0  0  0
   12.3473  -20.2353   23.4602 C   0  0  0  0  0  0  0  0  0  0  0  0
   13.1527  -20.5539   25.7288 O   0  0  0  0  0  0  0  0  0  0  0  0
   13.2544  -20.2477   27.0723 O   0  0  0  0  0  0  0  0  0  0  0  0
  2  1  1  0
  2  3  2  0
  4  5  1  0
  4  2  1  0
  6  5  1  0
  7  8  1  0
  7  6  1  0
  8  9  1  6
  8 10  1  0
 10 11  2  0
 10 16  1  0
 13 12  1  6
 13 14  1  0
 15 17  1  0
 15 13  1  0
 15 16  1  1
 17 18  2  0
 20 19  1  6
 21 20  1  0
 21 17  1  0
 22 20  1  0
 23 22  1  0
 24 22  2  0
M  END
$$$$
