RTA.pdb
     RDKit          3D

 24 23  0  0  1  0  0  0  0  0999 V2000
   14.0350  -16.3203   19.6030 N   0  0  0  0  0  0  0  0  0  0  0  0
   14.3300  -15.0499   19.0492 C   0  0  0  0  0  0  0  0  0  0  0  0
   15.4985  -14.5596   19.1495 N   0  0  0  0  0  0  0  0  0  0  0  0
   13.3078  -14.3304   18.3807 N   0  0  0  0  0  0  0  0  0  0  0  0
   12.2709  -13.6149   19.0754 C   0  0  0  0  0  0  0  0  0  0  0  0
   11.2642  -14.4920   19.7630 C   0  0  0  0  0  0  0  0  0  0  0  0
   10.1558  -13.6983   20.4176 C   0  0  0  0  0  0  0  0  0  0  0  0
    8.8608  -14.4621   20.2666 C   0  0  2  0  0  0  0  0  0  0  0  0
    8.0784  -13.8153   19.2401 N   0  0  0  0  0  0  0  0  0  0  0  0
    8.0922  -14.5104   21.5342 C   0  0  0  0  0  0  0  0  0  0  0  0
    6.8372  -14.4955   21.4775 O   0  0  0  0  0  0  0  0  0  0  0  0
   15.7734  -13.6154   18.8256 C   0  0  0  0  0  0  0  0  0  0  0  0
    6.5307  -16.4177   22.3946 C   0  0  2  0  0  0  0  0  0  0  0  0
    7.3311  -16.4187   23.6776 O   0  0  0  0  0  0  0  0  0  0  0  0
    8.3287  -17.3760   23.5873 C   0  0  2  0  0  0  0  0  0  0  0  0
    7.9444  -15.0812   23.9713 N   0  0  0  0  0  0  0  0  0  0  0  0
    8.6798  -14.5723   22.8073 C   0  0  0  0  0  0  0  0  0  0  0  0
    8.8653  -15.0866   25.1391 O   0  0  0  0  0  0  0  0  0  0  0  0
   10.0243  -15.6301   25.0482 C   0  0  0  0  0  0  0  0  0  0  0  0
    9.1774  -13.2492   28.3533 C   0  0  2  0  0  0  0  0  0  0  0  0
    9.5919  -14.3824   27.4400 N   0  0  0  0  0  0  0  0  0  0  0  0
    8.5742  -14.5252   26.3943 C   0  0  0  0  0  0  0  0  0  0  0  0
    9.7955  -15.6218   28.1838 O   0  0  0  0  0  0  0  0  0  0  0  0
    9.0342  -16.7519   27.9543 O   0  0  0  0  0  0  0  0  0  0  0  0
  2  1  1  0
  2  3  2  0
  4  5  1  0
  4  2  1  0
  6  5  1  0
  7  8  1  0
  7  6  1  0
  8  9  1  6
  8 10  1  0
 10 11  2  0
 10 16  1  0
 13 12  1  1
 13 14  1  0
 15 17  1  0
 15 13  1  0
 15 16  1  1
 17 18  2  0
 20 19  1  6
 21 20  1  0
 21 17  1  0
 22 20  1  0
 23 22  1  0
 24 22  2  0
M  END
$$$$
