RTA.pdb
     RDKit          3D

 24 23  0  0  1  0  0  0  0  0999 V2000
   13.1240  -15.7871   18.4985 N   0  0  0  0  0  0  0  0  0  0  0  0
   13.3200  -14.7835   19.4794 C   0  0  0  0  0  0  0  0  0  0  0  0
   14.4538  -14.2238   19.6099 N   0  0  0  0  0  0  0  0  0  0  0  0
   12.2374  -14.4087   20.3142 N   0  0  0  0  0  0  0  0  0  0  0  0
   11.3765  -13.2925   20.0267 C   0  0  0  0  0  0  0  0  0  0  0  0
   10.6139  -13.4117   18.7384 C   0  0  0  0  0  0  0  0  0  0  0  0
    9.1445  -13.0944   18.9037 C   0  0  0  0  0  0  0  0  0  0  0  0
    8.3424  -14.3275   18.5583 C   0  0  2  0  0  0  0  0  0  0  0  0
    7.0634  -13.8984   18.0444 N   0  0  0  0  0  0  0  0  0  0  0  0
    8.1453  -15.2103   19.7339 C   0  0  0  0  0  0  0  0  0  0  0  0
    7.1937  -14.9659   20.5167 O   0  0  0  0  0  0  0  0  0  0  0  0
   14.6700  -13.4788   20.2957 C   0  0  0  0  0  0  0  0  0  0  0  0
    7.1510  -18.6422   19.9083 C   0  0  2  0  0  0  0  0  0  0  0  0
    8.3821  -18.5690   20.7834 O   0  0  0  0  0  0  0  0  0  0  0  0
    9.4581  -19.1067   20.0956 C   0  0  2  0  0  0  0  0  0  0  0  0
    8.7051  -17.1648   21.2015 N   0  0  0  0  0  0  0  0  0  0  0  0
    8.9602  -16.3131   20.0334 C   0  0  0  0  0  0  0  0  0  0  0  0
    9.8737  -17.0646   22.1160 O   0  0  0  0  0  0  0  0  0  0  0  0
   10.6990  -16.0878   22.0086 C   0  0  0  0  0  0  0  0  0  0  0  0
   10.5738  -16.3742   24.8946 C   0  0  2  0  0  0  0  0  0  0  0  0
   11.0743  -17.6467   24.2461 N   0  0  0  0  0  0  0  0  0  0  0  0
   10.1752  -17.9816   23.1375 C   0  0  0  0  0  0  0  0  0  0  0  0
   11.1837  -18.7333   25.2146 O   0  0  0  0  0  0  0  0  0  0  0  0
   12.3468  -18.9771   25.9196 O   0  0  0  0  0  0  0  0  0  0  0  0
  2  1  1  0
  2  3  2  0
  4  5  1  0
  4  2  1  0
  6  5  1  0
  7  8  1  0
  7  6  1  0
  8  9  1  1
  8 10  1  0
 10 11  2  0
 10 16  1  0
 13 12  1  1
 13 14  1  0
 15 17  1  0
 15 13  1  0
 15 16  1  1
 17 18  2  0
 20 19  1  6
 21 20  1  0
 21 17  1  0
 22 20  1  0
 23 22  1  0
 24 22  2  0
M  END
$$$$
