DIE.pdb
     RDKit          3D

 26 25  0  0  1  0  0  0  0  0999 V2000
   19.7484  -14.8945  -16.9217 N   0  0  0  0  0  0  0  0  0  0  0  0
   20.4029  -13.8046  -17.5644 C   0  0  1  0  0  0  0  0  0  0  0  0
   19.3989  -13.0139  -18.3849 C   0  0  0  0  0  0  0  0  0  0  0  0
   18.8954  -13.7517  -19.5374 C   0  0  0  0  0  0  0  0  0  0  0  0
   18.0941  -13.2436  -20.3455 O   0  0  0  0  0  0  0  0  0  0  0  0
   21.0380  -12.8305  -16.6488 C   0  0  0  0  0  0  0  0  0  0  0  0
   20.3705  -12.5298  -15.6078 O   0  0  0  0  0  0  0  0  0  0  0  0
   19.3152  -15.0523  -19.7452 O   0  0  0  0  0  0  0  0  0  0  0  0
   26.0274  -13.1284  -14.9175 C   0  0  0  0  0  0  0  0  0  0  0  0
   24.5215  -12.8716  -15.0409 C   0  0  0  0  0  0  0  0  0  0  0  0
   24.2789  -11.5033  -15.5878 C   0  0  2  0  0  0  0  0  0  0  0  0
   24.9015  -10.4826  -14.6719 C   0  0  0  0  0  0  0  0  0  0  0  0
   22.8386  -11.2598  -15.8708 C   0  0  2  0  0  0  0  0  0  0  0  0
   22.3049  -12.2197  -16.8376 N   0  0  0  0  0  0  0  0  0  0  0  0
   22.5358   -9.8825  -16.3714 C   0  0  0  0  0  0  0  0  0  0  0  0
   23.0664   -9.3851  -17.3864 O   0  0  0  0  0  0  0  0  0  0  0  0
   21.6014   -9.0618  -15.6884 N   0  0  0  0  0  0  0  0  0  0  0  0
   21.2152   -7.7213  -16.1489 C   0  0  1  0  0  0  0  0  0  0  0  0
   19.7267   -7.5760  -16.1584 C   0  0  0  0  0  0  0  0  0  0  0  0
   19.3215   -6.1697  -16.5171 C   0  0  0  0  0  0  0  0  0  0  0  0
   17.8118   -6.0642  -16.5233 C   0  0  0  0  0  0  0  0  0  0  0  0
   17.0793   -7.0758  -16.4748 O   0  0  0  0  0  0  0  0  0  0  0  0
   21.9472   -6.7470  -15.3253 C   0  0  0  0  0  0  0  0  0  0  0  0
   22.2827   -5.4652  -15.8155 O   0  0  0  0  0  0  0  0  0  0  0  0
   17.2374   -4.8192  -16.5840 O   0  0  0  0  0  0  0  0  0  0  0  0
   22.3198   -6.9747  -14.1548 O   0  0  0  0  0  0  0  0  0  0  0  0
  2  1  1  1
  2  3  1  0
  3  4  1  0
  4  8  1  0
  5  4  2  0
  6  7  2  0
  6  2  1  0
  9 10  1  0
 10 11  1  0
 11 13  1  0
 11 12  1  1
 13 14  1  6
 14  6  1  0
 15 13  1  0
 16 15  2  0
 17 15  1  0
 18 17  1  0
 18 19  1  1
 20 19  1  0
 20 21  1  0
 21 22  2  0
 23 24  1  0
 23 18  1  0
 25 21  1  0
 26 23  2  0
M  END
$$$$
