DIE.pdb
     RDKit          3D

 26 25  0  0  1  0  0  0  0  0999 V2000
   20.0872  -13.7246  -16.1727 N   0  0  0  0  0  0  0  0  0  0  0  0
   20.4603  -12.5641  -16.9098 C   0  0  1  0  0  0  0  0  0  0  0  0
   19.2157  -11.8360  -17.3864 C   0  0  0  0  0  0  0  0  0  0  0  0
   18.3773  -12.6488  -18.2596 C   0  0  0  0  0  0  0  0  0  0  0  0
   17.1531  -12.7771  -18.0641 O   0  0  0  0  0  0  0  0  0  0  0  0
   21.2485  -11.5686  -16.1494 C   0  0  0  0  0  0  0  0  0  0  0  0
   20.8096  -11.2807  -14.9900 O   0  0  0  0  0  0  0  0  0  0  0  0
   18.9508  -13.2980  -19.3369 O   0  0  0  0  0  0  0  0  0  0  0  0
   26.5345  -11.8308  -15.7499 C   0  0  0  0  0  0  0  0  0  0  0  0
   25.0468  -11.6097  -15.4553 C   0  0  0  0  0  0  0  0  0  0  0  0
   24.6470  -10.2263  -15.8508 C   0  0  2  0  0  0  0  0  0  0  0  0
   25.4692   -9.2291  -15.0773 C   0  0  0  0  0  0  0  0  0  0  0  0
   23.1788  -10.0130  -15.7381 C   0  0  2  0  0  0  0  0  0  0  0  0
   22.4292  -10.9250  -16.6027 N   0  0  0  0  0  0  0  0  0  0  0  0
   22.7361   -8.6169  -16.0444 C   0  0  0  0  0  0  0  0  0  0  0  0
   22.8320   -8.0949  -17.1747 O   0  0  0  0  0  0  0  0  0  0  0  0
   22.1700   -7.8057  -15.0271 N   0  0  0  0  0  0  0  0  0  0  0  0
   21.7888   -6.4018  -15.2316 C   0  0  1  0  0  0  0  0  0  0  0  0
   20.3022   -6.2462  -15.1771 C   0  0  0  0  0  0  0  0  0  0  0  0
   19.9009   -4.8054  -15.3597 C   0  0  0  0  0  0  0  0  0  0  0  0
   18.3921   -4.6925  -15.3275 C   0  0  0  0  0  0  0  0  0  0  0  0
   17.6591   -5.6902  -15.1549 O   0  0  0  0  0  0  0  0  0  0  0  0
   22.5516   -5.5954  -14.2665 C   0  0  0  0  0  0  0  0  0  0  0  0
   22.9754   -6.1263  -13.0277 O   0  0  0  0  0  0  0  0  0  0  0  0
   17.8189   -3.4565  -15.4934 O   0  0  0  0  0  0  0  0  0  0  0  0
   22.8753   -4.4053  -14.4651 O   0  0  0  0  0  0  0  0  0  0  0  0
  2  1  1  1
  2  3  1  0
  3  4  1  0
  4  8  1  0
  5  4  2  0
  6  7  2  0
  6  2  1  0
  9 10  1  0
 10 11  1  0
 11 13  1  0
 11 12  1  1
 13 14  1  6
 14  6  1  0
 15 13  1  0
 16 15  2  0
 17 15  1  0
 18 17  1  0
 18 19  1  1
 20 19  1  0
 20 21  1  0
 21 22  2  0
 23 24  1  0
 23 18  1  0
 25 21  1  0
 26 23  2  0
M  END
$$$$
