DIE.pdb
     RDKit          3D

 26 25  0  0  1  0  0  0  0  0999 V2000
   27.3776  -21.3700  -17.2649 N   0  0  0  0  0  0  0  0  0  0  0  0
   26.6659  -20.3821  -16.5253 C   0  0  1  0  0  0  0  0  0  0  0  0
   25.5044  -19.8589  -17.3522 C   0  0  0  0  0  0  0  0  0  0  0  0
   25.9309  -19.1597  -18.5585 C   0  0  0  0  0  0  0  0  0  0  0  0
   25.4605  -19.4339  -19.6795 O   0  0  0  0  0  0  0  0  0  0  0  0
   26.0784  -20.8580  -15.2530 C   0  0  0  0  0  0  0  0  0  0  0  0
   25.3153  -21.8729  -15.3387 O   0  0  0  0  0  0  0  0  0  0  0  0
   26.8839  -18.1628  -18.4624 O   0  0  0  0  0  0  0  0  0  0  0  0
   28.9774  -20.8112  -10.9908 C   0  0  0  0  0  0  0  0  0  0  0  0
   27.8786  -21.4493  -11.8478 C   0  0  0  0  0  0  0  0  0  0  0  0
   26.5731  -20.7697  -11.5950 C   0  0  2  0  0  0  0  0  0  0  0  0
   25.9659  -21.3117  -10.3277 C   0  0  0  0  0  0  0  0  0  0  0  0
   25.6679  -20.8379  -12.7739 C   0  0  2  0  0  0  0  0  0  0  0  0
   26.2954  -20.2833  -13.9737 N   0  0  0  0  0  0  0  0  0  0  0  0
   24.3536  -20.1495  -12.5792 C   0  0  0  0  0  0  0  0  0  0  0  0
   24.2296  -18.9097  -12.4970 O   0  0  0  0  0  0  0  0  0  0  0  0
   23.1573  -20.9056  -12.4780 N   0  0  0  0  0  0  0  0  0  0  0  0
   21.8222  -20.3417  -12.7182 C   0  0  1  0  0  0  0  0  0  0  0  0
   21.5735  -20.1825  -14.1844 C   0  0  0  0  0  0  0  0  0  0  0  0
   20.2380  -19.5333  -14.4403 C   0  0  0  0  0  0  0  0  0  0  0  0
   20.0062  -19.4242  -15.9319 C   0  0  0  0  0  0  0  0  0  0  0  0
   20.8274  -18.8619  -16.6881 O   0  0  0  0  0  0  0  0  0  0  0  0
   20.8553  -21.1801  -11.9933 C   0  0  0  0  0  0  0  0  0  0  0  0
   21.0775  -22.5602  -11.7886 O   0  0  0  0  0  0  0  0  0  0  0  0
   18.8594  -19.9599  -16.4626 O   0  0  0  0  0  0  0  0  0  0  0  0
   19.7870  -20.7444  -11.5141 O   0  0  0  0  0  0  0  0  0  0  0  0
  2  1  1  6
  2  3  1  0
  3  4  1  0
  4  8  1  0
  5  4  2  0
  6  7  2  0
  6  2  1  0
  9 10  1  0
 10 11  1  0
 11 13  1  0
 11 12  1  1
 13 14  1  6
 14  6  1  0
 15 13  1  0
 16 15  2  0
 17 15  1  0
 18 17  1  0
 18 19  1  6
 20 19  1  0
 20 21  1  0
 21 22  2  0
 23 24  1  0
 23 18  1  0
 25 21  1  0
 26 23  2  0
M  END
$$$$
