DIE.pdb
     RDKit          3D

 26 25  0  0  1  0  0  0  0  0999 V2000
   19.3533  -12.7599  -17.6581 N   0  0  0  0  0  0  0  0  0  0  0  0
   19.9768  -11.5362  -18.0367 C   0  0  1  0  0  0  0  0  0  0  0  0
   18.9305  -10.5652  -18.5550 C   0  0  0  0  0  0  0  0  0  0  0  0
   18.3465  -10.9788  -19.8253 C   0  0  0  0  0  0  0  0  0  0  0  0
   18.7413  -11.9933  -20.4321 O   0  0  0  0  0  0  0  0  0  0  0  0
   20.6813  -10.8304  -16.9430 C   0  0  0  0  0  0  0  0  0  0  0  0
   20.1852  -10.9729  -15.7797 O   0  0  0  0  0  0  0  0  0  0  0  0
   17.3251  -10.2284  -20.3775 O   0  0  0  0  0  0  0  0  0  0  0  0
   25.5230  -11.4851  -15.3540 C   0  0  0  0  0  0  0  0  0  0  0  0
   24.0321  -11.1443  -15.4535 C   0  0  0  0  0  0  0  0  0  0  0  0
   23.8582   -9.6909  -15.7494 C   0  0  2  0  0  0  0  0  0  0  0  0
   24.5553   -8.8792  -14.6894 C   0  0  0  0  0  0  0  0  0  0  0  0
   22.4291   -9.3256  -15.9453 C   0  0  2  0  0  0  0  0  0  0  0  0
   21.8410  -10.0255  -17.0878 N   0  0  0  0  0  0  0  0  0  0  0  0
   22.1898   -7.8599  -16.1279 C   0  0  0  0  0  0  0  0  0  0  0  0
   22.5590   -7.2206  -17.1350 O   0  0  0  0  0  0  0  0  0  0  0  0
   21.5098   -7.1155  -15.1294 N   0  0  0  0  0  0  0  0  0  0  0  0
   21.2429   -5.6750  -15.2368 C   0  0  1  0  0  0  0  0  0  0  0  0
   19.7722   -5.4068  -15.1903 C   0  0  0  0  0  0  0  0  0  0  0  0
   19.4852   -3.9339  -15.3268 C   0  0  0  0  0  0  0  0  0  0  0  0
   17.9892   -3.7059  -15.3053 C   0  0  0  0  0  0  0  0  0  0  0  0
   17.1762   -4.6530  -15.3716 O   0  0  0  0  0  0  0  0  0  0  0  0
   22.0482   -5.0019  -14.2063 C   0  0  0  0  0  0  0  0  0  0  0  0
   22.5096   -3.6771  -14.3738 O   0  0  0  0  0  0  0  0  0  0  0  0
   17.5188   -2.4201  -15.2103 O   0  0  0  0  0  0  0  0  0  0  0  0
   22.3782   -5.5395  -13.1280 O   0  0  0  0  0  0  0  0  0  0  0  0
  2  1  1  1
  2  3  1  0
  3  4  1  0
  4  8  1  0
  5  4  2  0
  6  7  2  0
  6  2  1  0
  9 10  1  0
 10 11  1  0
 11 13  1  0
 11 12  1  1
 13 14  1  6
 14  6  1  0
 15 13  1  0
 16 15  2  0
 17 15  1  0
 18 17  1  0
 18 19  1  1
 20 19  1  0
 20 21  1  0
 21 22  2  0
 23 24  1  0
 23 18  1  0
 25 21  1  0
 26 23  2  0
M  END
$$$$
