DIE.pdb
     RDKit          3D

 26 25  0  0  1  0  0  0  0  0999 V2000
   21.0273  -13.5465  -15.7425 N   0  0  0  0  0  0  0  0  0  0  0  0
   21.4066  -12.5179  -16.6522 C   0  0  1  0  0  0  0  0  0  0  0  0
   20.1700  -11.7900  -17.1496 C   0  0  0  0  0  0  0  0  0  0  0  0
   19.2135  -12.6723  -17.8075 C   0  0  0  0  0  0  0  0  0  0  0  0
   19.5645  -13.4905  -18.6796 O   0  0  0  0  0  0  0  0  0  0  0  0
   22.2910  -11.4765  -16.0831 C   0  0  0  0  0  0  0  0  0  0  0  0
   21.9030  -10.9555  -14.9887 O   0  0  0  0  0  0  0  0  0  0  0  0
   17.8777  -12.6040  -17.4580 O   0  0  0  0  0  0  0  0  0  0  0  0
   27.6868  -11.7879  -16.0533 C   0  0  0  0  0  0  0  0  0  0  0  0
   26.2185  -11.5459  -15.6867 C   0  0  0  0  0  0  0  0  0  0  0  0
   25.7740  -10.2177  -16.2048 C   0  0  2  0  0  0  0  0  0  0  0  0
   26.6467   -9.1374  -15.6217 C   0  0  0  0  0  0  0  0  0  0  0  0
   24.3178   -9.9935  -15.9970 C   0  0  2  0  0  0  0  0  0  0  0  0
   23.5106  -11.0243  -16.6504 N   0  0  0  0  0  0  0  0  0  0  0  0
   23.8296   -8.6585  -16.4643 C   0  0  0  0  0  0  0  0  0  0  0  0
   23.7383   -8.3399  -17.6683 O   0  0  0  0  0  0  0  0  0  0  0  0
   23.4373   -7.6704  -15.5246 N   0  0  0  0  0  0  0  0  0  0  0  0
   22.9313   -6.3458  -15.9086 C   0  0  1  0  0  0  0  0  0  0  0  0
   21.4372   -6.3519  -15.9763 C   0  0  0  0  0  0  0  0  0  0  0  0
   20.9092   -5.0124  -16.4204 C   0  0  0  0  0  0  0  0  0  0  0  0
   19.4063   -4.9779  -16.2460 C   0  0  0  0  0  0  0  0  0  0  0  0
   18.7743   -3.9017  -16.1772 O   0  0  0  0  0  0  0  0  0  0  0  0
   23.5253   -5.3655  -14.9868 C   0  0  0  0  0  0  0  0  0  0  0  0
   23.6405   -3.9999  -15.3302 O   0  0  0  0  0  0  0  0  0  0  0  0
   18.7241   -6.1659  -16.1615 O   0  0  0  0  0  0  0  0  0  0  0  0
   23.9636   -5.6602  -13.8547 O   0  0  0  0  0  0  0  0  0  0  0  0
  2  1  1  1
  2  3  1  0
  3  4  1  0
  4  8  1  0
  5  4  2  0
  6  7  2  0
  6  2  1  0
  9 10  1  0
 10 11  1  0
 11 13  1  0
 11 12  1  1
 13 14  1  6
 14  6  1  0
 15 13  1  0
 16 15  2  0
 17 15  1  0
 18 17  1  0
 18 19  1  1
 20 19  1  0
 20 21  1  0
 21 22  2  0
 23 24  1  0
 23 18  1  0
 25 21  1  0
 26 23  2  0
M  END
$$$$
