DIE.pdb
     RDKit          3D

 26 25  0  0  1  0  0  0  0  0999 V2000
   17.7451  -12.1309  -16.4380 N   0  0  0  0  0  0  0  0  0  0  0  0
   18.6026  -11.2040  -17.0975 C   0  0  1  0  0  0  0  0  0  0  0  0
   17.7802  -10.0680  -17.6800 C   0  0  0  0  0  0  0  0  0  0  0  0
   16.9725  -10.4752  -18.8236 C   0  0  0  0  0  0  0  0  0  0  0  0
   15.9114  -11.1143  -18.6860 O   0  0  0  0  0  0  0  0  0  0  0  0
   19.6190  -10.5679  -16.2298 C   0  0  0  0  0  0  0  0  0  0  0  0
   19.2410  -10.2829  -15.0485 O   0  0  0  0  0  0  0  0  0  0  0  0
   17.3902  -10.1456  -20.0996 O   0  0  0  0  0  0  0  0  0  0  0  0
   24.4528  -12.4178  -15.4495 C   0  0  0  0  0  0  0  0  0  0  0  0
   23.0858  -11.7385  -15.3131 C   0  0  0  0  0  0  0  0  0  0  0  0
   23.2001  -10.2874  -15.6462 C   0  0  2  0  0  0  0  0  0  0  0  0
   24.1973   -9.6403  -14.7214 C   0  0  0  0  0  0  0  0  0  0  0  0
   21.8746   -9.6116  -15.6709 C   0  0  2  0  0  0  0  0  0  0  0  0
   20.9522  -10.2584  -16.6046 N   0  0  0  0  0  0  0  0  0  0  0  0
   21.9340   -8.1561  -16.0132 C   0  0  0  0  0  0  0  0  0  0  0  0
   22.2780   -7.7242  -17.1331 O   0  0  0  0  0  0  0  0  0  0  0  0
   21.5888   -7.1782  -15.0448 N   0  0  0  0  0  0  0  0  0  0  0  0
   21.4846   -5.7442  -15.3462 C   0  0  1  0  0  0  0  0  0  0  0  0
   20.0598   -5.3587  -15.5875 C   0  0  0  0  0  0  0  0  0  0  0  0
   19.9358   -3.8809  -15.8546 C   0  0  0  0  0  0  0  0  0  0  0  0
   18.4792   -3.5242  -16.0586 C   0  0  0  0  0  0  0  0  0  0  0  0
   17.5750   -4.3856  -16.0057 O   0  0  0  0  0  0  0  0  0  0  0  0
   22.1688   -5.0182  -14.2654 C   0  0  0  0  0  0  0  0  0  0  0  0
   22.6788   -3.7144  -14.4549 O   0  0  0  0  0  0  0  0  0  0  0  0
   18.1488   -2.2157  -16.3086 O   0  0  0  0  0  0  0  0  0  0  0  0
   22.3471   -5.4898  -13.1224 O   0  0  0  0  0  0  0  0  0  0  0  0
  2  1  1  1
  2  3  1  0
  3  4  1  0
  4  8  1  0
  5  4  2  0
  6  7  2  0
  6  2  1  0
  9 10  1  0
 10 11  1  0
 11 13  1  0
 11 12  1  1
 13 14  1  6
 14  6  1  0
 15 13  1  0
 16 15  2  0
 17 15  1  0
 18 17  1  0
 18 19  1  1
 20 19  1  0
 20 21  1  0
 21 22  2  0
 23 24  1  0
 23 18  1  0
 25 21  1  0
 26 23  2  0
M  END
$$$$
