DIE.pdb
     RDKit          3D

 26 25  0  0  1  0  0  0  0  0999 V2000
   22.5651  -16.5064  -15.8269 N   0  0  0  0  0  0  0  0  0  0  0  0
   22.8359  -15.4154  -16.7021 C   0  0  1  0  0  0  0  0  0  0  0  0
   21.5959  -15.0898  -17.5162 C   0  0  0  0  0  0  0  0  0  0  0  0
   21.1399  -16.2070  -18.3347 C   0  0  0  0  0  0  0  0  0  0  0  0
   21.9389  -16.9625  -18.9213 O   0  0  0  0  0  0  0  0  0  0  0  0
   23.2231  -14.1560  -16.0281 C   0  0  0  0  0  0  0  0  0  0  0  0
   22.5364  -13.8399  -15.0044 O   0  0  0  0  0  0  0  0  0  0  0  0
   19.7838  -16.4401  -18.4675 O   0  0  0  0  0  0  0  0  0  0  0  0
   28.3827  -12.5814  -15.5397 C   0  0  0  0  0  0  0  0  0  0  0  0
   26.9073  -12.8862  -15.2581 C   0  0  0  0  0  0  0  0  0  0  0  0
   26.0517  -11.7603  -15.7378 C   0  0  2  0  0  0  0  0  0  0  0  0
   26.4306  -10.4992  -15.0067 C   0  0  0  0  0  0  0  0  0  0  0  0
   24.6019  -12.0869  -15.6641 C   0  0  2  0  0  0  0  0  0  0  0  0
   24.2772  -13.2931  -16.4260 N   0  0  0  0  0  0  0  0  0  0  0  0
   23.7006  -10.9878  -16.1320 C   0  0  0  0  0  0  0  0  0  0  0  0
   23.6008  -10.6389  -17.3268 O   0  0  0  0  0  0  0  0  0  0  0  0
   22.8968  -10.2769  -15.2037 N   0  0  0  0  0  0  0  0  0  0  0  0
   21.9916   -9.1857  -15.5881 C   0  0  1  0  0  0  0  0  0  0  0  0
   20.5760   -9.6665  -15.6326 C   0  0  0  0  0  0  0  0  0  0  0  0
   19.6249   -8.5282  -15.8973 C   0  0  0  0  0  0  0  0  0  0  0  0
   18.2082   -9.0568  -15.9600 C   0  0  0  0  0  0  0  0  0  0  0  0
   17.9466  -10.2662  -15.7832 O   0  0  0  0  0  0  0  0  0  0  0  0
   22.2551   -8.0575  -14.6820 C   0  0  0  0  0  0  0  0  0  0  0  0
   22.1696   -6.7176  -15.1217 O   0  0  0  0  0  0  0  0  0  0  0  0
   17.1865   -8.1777  -16.2190 O   0  0  0  0  0  0  0  0  0  0  0  0
   22.5681   -8.1960  -13.4805 O   0  0  0  0  0  0  0  0  0  0  0  0
  2  1  1  1
  2  3  1  0
  3  4  1  0
  4  8  1  0
  5  4  2  0
  6  7  2  0
  6  2  1  0
  9 10  1  0
 10 11  1  0
 11 13  1  0
 11 12  1  1
 13 14  1  6
 14  6  1  0
 15 13  1  0
 16 15  2  0
 17 15  1  0
 18 17  1  0
 18 19  1  1
 20 19  1  0
 20 21  1  0
 21 22  2  0
 23 24  1  0
 23 18  1  0
 25 21  1  0
 26 23  2  0
M  END
$$$$
