DIE.pdb
     RDKit          3D

 26 25  0  0  1  0  0  0  0  0999 V2000
   18.3026  -11.1828  -18.3960 N   0  0  0  0  0  0  0  0  0  0  0  0
   19.4582  -10.3498  -18.4041 C   0  0  1  0  0  0  0  0  0  0  0  0
   19.2606   -9.2065  -19.3840 C   0  0  0  0  0  0  0  0  0  0  0  0
   19.4283   -9.6106  -20.7749 C   0  0  0  0  0  0  0  0  0  0  0  0
   19.8028  -10.7577  -21.0866 O   0  0  0  0  0  0  0  0  0  0  0  0
   19.7831   -9.7208  -17.1043 C   0  0  0  0  0  0  0  0  0  0  0  0
   18.7885   -9.3416  -16.4067 O   0  0  0  0  0  0  0  0  0  0  0  0
   19.1656   -8.6998  -21.7811 O   0  0  0  0  0  0  0  0  0  0  0  0
   21.4830   -9.7873  -12.1326 C   0  0  0  0  0  0  0  0  0  0  0  0
   22.5415   -9.2698  -13.1128 C   0  0  0  0  0  0  0  0  0  0  0  0
   22.2848   -9.8166  -14.4785 C   0  0  2  0  0  0  0  0  0  0  0  0
   23.5962  -10.0046  -15.1951 C   0  0  0  0  0  0  0  0  0  0  0  0
   21.2975   -8.9987  -15.2336 C   0  0  2  0  0  0  0  0  0  0  0  0
   21.0881   -9.5126  -16.5875 N   0  0  0  0  0  0  0  0  0  0  0  0
   21.6541   -7.5493  -15.3391 C   0  0  0  0  0  0  0  0  0  0  0  0
   22.5461   -7.1114  -16.0954 O   0  0  0  0  0  0  0  0  0  0  0  0
   20.9676   -6.5842  -14.5577 N   0  0  0  0  0  0  0  0  0  0  0  0
   21.1819   -5.1369  -14.6896 C   0  0  1  0  0  0  0  0  0  0  0  0
   19.8770   -4.4235  -14.8493 C   0  0  0  0  0  0  0  0  0  0  0  0
   20.0823   -2.9342  -14.9506 C   0  0  0  0  0  0  0  0  0  0  0  0
   18.7441   -2.2501  -15.1286 C   0  0  0  0  0  0  0  0  0  0  0  0
   17.7157   -2.8847  -15.4482 O   0  0  0  0  0  0  0  0  0  0  0  0
   22.0081   -4.7104  -13.5499 C   0  0  0  0  0  0  0  0  0  0  0  0
   22.8603   -3.5865  -13.6314 O   0  0  0  0  0  0  0  0  0  0  0  0
   18.6647   -0.8941  -14.9321 O   0  0  0  0  0  0  0  0  0  0  0  0
   22.0187   -5.2974  -12.4473 O   0  0  0  0  0  0  0  0  0  0  0  0
  2  1  1  1
  2  3  1  0
  3  4  1  0
  4  8  1  0
  5  4  2  0
  6  7  2  0
  6  2  1  0
  9 10  1  0
 10 11  1  0
 11 13  1  0
 11 12  1  6
 13 14  1  6
 14  6  1  0
 15 13  1  0
 16 15  2  0
 17 15  1  0
 18 17  1  0
 18 19  1  1
 20 19  1  0
 20 21  1  0
 21 22  2  0
 23 24  1  0
 23 18  1  0
 25 21  1  0
 26 23  2  0
M  END
$$$$
