DIE.pdb
     RDKit          3D

 26 25  0  0  1  0  0  0  0  0999 V2000
   21.1676  -16.7752  -15.8203 N   0  0  0  0  0  0  0  0  0  0  0  0
   21.2637  -15.5759  -16.5832 C   0  0  1  0  0  0  0  0  0  0  0  0
   19.8892  -15.1801  -17.0935 C   0  0  0  0  0  0  0  0  0  0  0  0
   19.3454  -16.1245  -18.0622 C   0  0  0  0  0  0  0  0  0  0  0  0
   20.0817  -16.8235  -18.7850 O   0  0  0  0  0  0  0  0  0  0  0  0
   21.7757  -14.4029  -15.8399 C   0  0  0  0  0  0  0  0  0  0  0  0
   21.2845  -14.2228  -14.6798 O   0  0  0  0  0  0  0  0  0  0  0  0
   17.9746  -16.2530  -18.1869 O   0  0  0  0  0  0  0  0  0  0  0  0
   26.7520  -13.6992  -14.7675 C   0  0  0  0  0  0  0  0  0  0  0  0
   25.2198  -13.6764  -14.7423 C   0  0  0  0  0  0  0  0  0  0  0  0
   24.7171  -12.4047  -15.3425 C   0  0  2  0  0  0  0  0  0  0  0  0
   25.2753  -11.2357  -14.5741 C   0  0  0  0  0  0  0  0  0  0  0  0
   23.2345  -12.3911  -15.4671 C   0  0  2  0  0  0  0  0  0  0  0  0
   22.7499  -13.4845  -16.3101 N   0  0  0  0  0  0  0  0  0  0  0  0
   22.6754  -11.1109  -16.0035 C   0  0  0  0  0  0  0  0  0  0  0  0
   22.8482  -10.7206  -17.1769 O   0  0  0  0  0  0  0  0  0  0  0  0
   21.9001  -10.2635  -15.1704 N   0  0  0  0  0  0  0  0  0  0  0  0
   21.2866   -9.0130  -15.6371 C   0  0  1  0  0  0  0  0  0  0  0  0
   19.7948   -9.1174  -15.6142 C   0  0  0  0  0  0  0  0  0  0  0  0
   19.1536   -7.7886  -15.9201 C   0  0  0  0  0  0  0  0  0  0  0  0
   17.6524   -7.9040  -15.7664 C   0  0  0  0  0  0  0  0  0  0  0  0
   17.1070   -8.9635  -15.3892 O   0  0  0  0  0  0  0  0  0  0  0  0
   21.8629   -7.9183  -14.8416 C   0  0  0  0  0  0  0  0  0  0  0  0
   21.9141   -6.5937  -15.3304 O   0  0  0  0  0  0  0  0  0  0  0  0
   16.8737   -6.8102  -16.0512 O   0  0  0  0  0  0  0  0  0  0  0  0
   22.3407   -8.0738  -13.6978 O   0  0  0  0  0  0  0  0  0  0  0  0
  2  1  1  1
  2  3  1  0
  3  4  1  0
  4  8  1  0
  5  4  2  0
  6  7  2  0
  6  2  1  0
  9 10  1  0
 10 11  1  0
 11 13  1  0
 11 12  1  1
 13 14  1  6
 14  6  1  0
 15 13  1  0
 16 15  2  0
 17 15  1  0
 18 17  1  0
 18 19  1  1
 20 19  1  0
 20 21  1  0
 21 22  2  0
 23 24  1  0
 23 18  1  0
 25 21  1  0
 26 23  2  0
M  END
$$$$
