DIE.pdb
     RDKit          3D

 26 25  0  0  1  0  0  0  0  0999 V2000
   20.8397  -13.7962  -15.5177 N   0  0  0  0  0  0  0  0  0  0  0  0
   20.9323  -12.6686  -16.3833 C   0  0  1  0  0  0  0  0  0  0  0  0
   19.5686  -12.0154  -16.5240 C   0  0  0  0  0  0  0  0  0  0  0  0
   18.5744  -12.8930  -17.1302 C   0  0  0  0  0  0  0  0  0  0  0  0
   18.8825  -13.7443  -17.9867 O   0  0  0  0  0  0  0  0  0  0  0  0
   21.8493  -11.6020  -15.9226 C   0  0  0  0  0  0  0  0  0  0  0  0
   21.7509  -11.2762  -14.6963 O   0  0  0  0  0  0  0  0  0  0  0  0
   17.2505  -12.7826  -16.7479 O   0  0  0  0  0  0  0  0  0  0  0  0
   26.7677  -12.1282  -15.4177 C   0  0  0  0  0  0  0  0  0  0  0  0
   25.3150  -11.6477  -15.3302 C   0  0  0  0  0  0  0  0  0  0  0  0
   25.1309  -10.4208  -16.1613 C   0  0  2  0  0  0  0  0  0  0  0  0
   26.1326   -9.3780  -15.7399 C   0  0  0  0  0  0  0  0  0  0  0  0
   23.7221   -9.9421  -16.1502 C   0  0  2  0  0  0  0  0  0  0  0  0
   22.8080  -10.9298  -16.7244 N   0  0  0  0  0  0  0  0  0  0  0  0
   23.5091   -8.6447  -16.8646 C   0  0  0  0  0  0  0  0  0  0  0  0
   23.5758   -8.5212  -18.1054 O   0  0  0  0  0  0  0  0  0  0  0  0
   23.2120   -7.4652  -16.1339 N   0  0  0  0  0  0  0  0  0  0  0  0
   22.9705   -6.1618  -16.7669 C   0  0  1  0  0  0  0  0  0  0  0  0
   22.3156   -5.2222  -15.8049 C   0  0  0  0  0  0  0  0  0  0  0  0
   20.9634   -5.7351  -15.3817 C   0  0  0  0  0  0  0  0  0  0  0  0
   20.2757   -4.6977  -14.5208 C   0  0  0  0  0  0  0  0  0  0  0  0
   20.8578   -3.6549  -14.1521 O   0  0  0  0  0  0  0  0  0  0  0  0
   24.2486   -5.7067  -17.3349 C   0  0  0  0  0  0  0  0  0  0  0  0
   24.3126   -5.0483  -18.5833 O   0  0  0  0  0  0  0  0  0  0  0  0
   18.9758   -4.9146  -14.1375 O   0  0  0  0  0  0  0  0  0  0  0  0
   25.3507   -5.8648  -16.7685 O   0  0  0  0  0  0  0  0  0  0  0  0
  2  1  1  1
  2  3  1  0
  3  4  1  0
  4  8  1  0
  5  4  2  0
  6  7  2  0
  6  2  1  0
  9 10  1  0
 10 11  1  0
 11 13  1  0
 11 12  1  1
 13 14  1  6
 14  6  1  0
 15 13  1  0
 16 15  2  0
 17 15  1  0
 18 17  1  0
 18 19  1  1
 20 19  1  0
 20 21  1  0
 21 22  2  0
 23 24  1  0
 23 18  1  0
 25 21  1  0
 26 23  2  0
M  END
$$$$
