DIE.pdb
     RDKit          3D

 26 25  0  0  1  0  0  0  0  0999 V2000
   28.3717  -21.1748  -16.9053 N   0  0  0  0  0  0  0  0  0  0  0  0
   27.8425  -20.2001  -16.0112 C   0  0  1  0  0  0  0  0  0  0  0  0
   26.8881  -19.2836  -16.7566 C   0  0  0  0  0  0  0  0  0  0  0  0
   27.5428  -18.5033  -17.7999 C   0  0  0  0  0  0  0  0  0  0  0  0
   28.2433  -17.5071  -17.5353 O   0  0  0  0  0  0  0  0  0  0  0  0
   27.0734  -20.7501  -14.8726 C   0  0  0  0  0  0  0  0  0  0  0  0
   26.4323  -21.8251  -15.1029 O   0  0  0  0  0  0  0  0  0  0  0  0
   27.3859  -18.8743  -19.1223 O   0  0  0  0  0  0  0  0  0  0  0  0
   29.2799  -20.9801  -10.1590 C   0  0  0  0  0  0  0  0  0  0  0  0
   28.4305  -21.3517  -11.3795 C   0  0  0  0  0  0  0  0  0  0  0  0
   27.0423  -20.8263  -11.2158 C   0  0  2  0  0  0  0  0  0  0  0  0
   26.3656  -21.5500  -10.0814 C   0  0  0  0  0  0  0  0  0  0  0  0
   26.2772  -20.8568  -12.4916 C   0  0  2  0  0  0  0  0  0  0  0  0
   26.9973  -20.1845  -13.5734 N   0  0  0  0  0  0  0  0  0  0  0  0
   24.9102  -20.2547  -12.4020 C   0  0  0  0  0  0  0  0  0  0  0  0
   24.7032  -19.0394  -12.2036 O   0  0  0  0  0  0  0  0  0  0  0  0
   23.7578  -21.0701  -12.5450 N   0  0  0  0  0  0  0  0  0  0  0  0
   22.4435  -20.5488  -12.9432 C   0  0  1  0  0  0  0  0  0  0  0  0
   22.4985  -19.9819  -14.3262 C   0  0  0  0  0  0  0  0  0  0  0  0
   21.1637  -19.4131  -14.7325 C   0  0  0  0  0  0  0  0  0  0  0  0
   21.2570  -18.8572  -16.1370 C   0  0  0  0  0  0  0  0  0  0  0  0
   22.3322  -18.8511  -16.7743 O   0  0  0  0  0  0  0  0  0  0  0  0
   21.4628  -21.6245  -12.7320 C   0  0  0  0  0  0  0  0  0  0  0  0
   21.7871  -22.9797  -12.9649 O   0  0  0  0  0  0  0  0  0  0  0  0
   20.1249  -18.3469  -16.7215 O   0  0  0  0  0  0  0  0  0  0  0  0
   20.2938  -21.4252  -12.3393 O   0  0  0  0  0  0  0  0  0  0  0  0
  2  1  1  6
  2  3  1  0
  3  4  1  0
  4  8  1  0
  5  4  2  0
  6  7  2  0
  6  2  1  0
  9 10  1  0
 10 11  1  0
 11 13  1  0
 11 12  1  1
 13 14  1  6
 14  6  1  0
 15 13  1  0
 16 15  2  0
 17 15  1  0
 18 17  1  0
 18 19  1  6
 20 19  1  0
 20 21  1  0
 21 22  2  0
 23 24  1  0
 23 18  1  0
 25 21  1  0
 26 23  2  0
M  END
$$$$
