DIE.pdb
     RDKit          3D

 26 25  0  0  1  0  0  0  0  0999 V2000
   22.6993  -15.0469  -17.5626 N   0  0  0  0  0  0  0  0  0  0  0  0
   21.8880  -13.8764  -17.5945 C   0  0  1  0  0  0  0  0  0  0  0  0
   20.5094  -14.1915  -17.0411 C   0  0  0  0  0  0  0  0  0  0  0  0
   19.8562  -15.2981  -17.7302 C   0  0  0  0  0  0  0  0  0  0  0  0
   20.0389  -15.5181  -18.9432 O   0  0  0  0  0  0  0  0  0  0  0  0
   22.3988  -12.7412  -16.7939 C   0  0  0  0  0  0  0  0  0  0  0  0
   21.6793  -12.3913  -15.8041 O   0  0  0  0  0  0  0  0  0  0  0  0
   19.0090  -16.1307  -17.0231 O   0  0  0  0  0  0  0  0  0  0  0  0
   27.6721  -12.0866  -15.7607 C   0  0  0  0  0  0  0  0  0  0  0  0
   26.1451  -12.1744  -15.6631 C   0  0  0  0  0  0  0  0  0  0  0  0
   25.5307  -10.8778  -16.0770 C   0  0  2  0  0  0  0  0  0  0  0  0
   26.0407   -9.7767  -15.1848 C   0  0  0  0  0  0  0  0  0  0  0  0
   24.0466  -10.9576  -16.1470 C   0  0  2  0  0  0  0  0  0  0  0  0
   23.6014  -12.0289  -17.0388 N   0  0  0  0  0  0  0  0  0  0  0  0
   23.3835   -9.6886  -16.5818 C   0  0  0  0  0  0  0  0  0  0  0  0
   23.5031   -9.2047  -17.7267 O   0  0  0  0  0  0  0  0  0  0  0  0
   22.5646   -8.9628  -15.6786 N   0  0  0  0  0  0  0  0  0  0  0  0
   21.8852   -7.7093  -16.0325 C   0  0  1  0  0  0  0  0  0  0  0  0
   20.5489   -7.9886  -16.6434 C   0  0  0  0  0  0  0  0  0  0  0  0
   19.6094   -8.5994  -15.6361 C   0  0  0  0  0  0  0  0  0  0  0  0
   18.2939   -8.9307  -16.3072 C   0  0  0  0  0  0  0  0  0  0  0  0
   18.1052  -10.0216  -16.8874 O   0  0  0  0  0  0  0  0  0  0  0  0
   21.8738   -6.8622  -14.8301 C   0  0  0  0  0  0  0  0  0  0  0  0
   22.2612   -7.3624  -13.5669 O   0  0  0  0  0  0  0  0  0  0  0  0
   17.2838   -8.0021  -16.2740 O   0  0  0  0  0  0  0  0  0  0  0  0
   21.5277   -5.6618  -14.8349 O   0  0  0  0  0  0  0  0  0  0  0  0
  2  1  1  1
  2  3  1  0
  3  4  1  0
  4  8  1  0
  5  4  2  0
  6  7  2  0
  6  2  1  0
  9 10  1  0
 10 11  1  0
 11 13  1  0
 11 12  1  1
 13 14  1  6
 14  6  1  0
 15 13  1  0
 16 15  2  0
 17 15  1  0
 18 17  1  0
 18 19  1  1
 20 19  1  0
 20 21  1  0
 21 22  2  0
 23 24  1  0
 23 18  1  0
 25 21  1  0
 26 23  2  0
M  END
$$$$
