DIE.pdb
     RDKit          3D

 26 25  0  0  1  0  0  0  0  0999 V2000
   17.2547  -11.4460  -16.8242 N   0  0  0  0  0  0  0  0  0  0  0  0
   18.1027  -10.3879  -17.2608 C   0  0  1  0  0  0  0  0  0  0  0  0
   17.2603   -9.2235  -17.7516 C   0  0  0  0  0  0  0  0  0  0  0  0
   16.5344   -9.5214  -18.9806 C   0  0  0  0  0  0  0  0  0  0  0  0
   17.0386  -10.2027  -19.8943 O   0  0  0  0  0  0  0  0  0  0  0  0
   18.9959   -9.8338  -16.2189 C   0  0  0  0  0  0  0  0  0  0  0  0
   18.4647   -9.6361  -15.0794 O   0  0  0  0  0  0  0  0  0  0  0  0
   15.2498   -9.0371  -19.1428 O   0  0  0  0  0  0  0  0  0  0  0  0
   23.4517  -11.9968  -14.7504 C   0  0  0  0  0  0  0  0  0  0  0  0
   22.1364  -11.2141  -14.8286 C   0  0  0  0  0  0  0  0  0  0  0  0
   22.4154   -9.7685  -15.0786 C   0  0  2  0  0  0  0  0  0  0  0  0
   23.2990   -9.2341  -13.9822 C   0  0  0  0  0  0  0  0  0  0  0  0
   21.1678   -8.9839  -15.2832 C   0  0  2  0  0  0  0  0  0  0  0  0
   20.3679   -9.5132  -16.3882 N   0  0  0  0  0  0  0  0  0  0  0  0
   21.3937   -7.5259  -15.5329 C   0  0  0  0  0  0  0  0  0  0  0  0
   21.9681   -7.0806  -16.5483 O   0  0  0  0  0  0  0  0  0  0  0  0
   20.9473   -6.5609  -14.5933 N   0  0  0  0  0  0  0  0  0  0  0  0
   21.0915   -5.1126  -14.7920 C   0  0  1  0  0  0  0  0  0  0  0  0
   19.7639   -4.4318  -14.6879 C   0  0  0  0  0  0  0  0  0  0  0  0
   19.9059   -2.9399  -14.8450 C   0  0  0  0  0  0  0  0  0  0  0  0
   18.5500   -2.2843  -14.6961 C   0  0  0  0  0  0  0  0  0  0  0  0
   17.5183   -2.9484  -14.4576 O   0  0  0  0  0  0  0  0  0  0  0  0
   22.1257   -4.6427  -13.8576 C   0  0  0  0  0  0  0  0  0  0  0  0
   22.9182   -3.5073  -14.1386 O   0  0  0  0  0  0  0  0  0  0  0  0
   18.4579   -0.9212  -14.8282 O   0  0  0  0  0  0  0  0  0  0  0  0
   22.3763   -5.2003  -12.7682 O   0  0  0  0  0  0  0  0  0  0  0  0
  2  1  1  1
  2  3  1  0
  3  4  1  0
  4  8  1  0
  5  4  2  0
  6  7  2  0
  6  2  1  0
  9 10  1  0
 10 11  1  0
 11 13  1  0
 11 12  1  1
 13 14  1  6
 14  6  1  0
 15 13  1  0
 16 15  2  0
 17 15  1  0
 18 17  1  0
 18 19  1  1
 20 19  1  0
 20 21  1  0
 21 22  2  0
 23 24  1  0
 23 18  1  0
 25 21  1  0
 26 23  2  0
M  END
$$$$
