DIE.pdb
     RDKit          3D

 26 25  0  0  1  0  0  0  0  0999 V2000
   20.9401  -13.5533  -16.5009 N   0  0  0  0  0  0  0  0  0  0  0  0
   21.3135  -12.3759  -17.2106 C   0  0  1  0  0  0  0  0  0  0  0  0
   20.0691  -11.6373  -17.6714 C   0  0  0  0  0  0  0  0  0  0  0  0
   19.2235  -12.4357  -18.5510 C   0  0  0  0  0  0  0  0  0  0  0  0
   19.6636  -12.9528  -19.5961 O   0  0  0  0  0  0  0  0  0  0  0  0
   22.1008  -11.3981  -16.4267 C   0  0  0  0  0  0  0  0  0  0  0  0
   21.6212  -11.0815  -15.2911 O   0  0  0  0  0  0  0  0  0  0  0  0
   17.8948  -12.6282  -18.2217 O   0  0  0  0  0  0  0  0  0  0  0  0
   27.3711  -11.6449  -15.8017 C   0  0  0  0  0  0  0  0  0  0  0  0
   25.8594  -11.4464  -15.6450 C   0  0  0  0  0  0  0  0  0  0  0  0
   25.4887  -10.0430  -15.9957 C   0  0  2  0  0  0  0  0  0  0  0  0
   26.2482   -9.0903  -15.1104 C   0  0  0  0  0  0  0  0  0  0  0  0
   24.0157   -9.8325  -15.9836 C   0  0  2  0  0  0  0  0  0  0  0  0
   23.3214  -10.7999  -16.8339 N   0  0  0  0  0  0  0  0  0  0  0  0
   23.5885   -8.4603  -16.4002 C   0  0  0  0  0  0  0  0  0  0  0  0
   23.7843   -7.9934  -17.5417 O   0  0  0  0  0  0  0  0  0  0  0  0
   22.9207   -7.6087  -15.4825 N   0  0  0  0  0  0  0  0  0  0  0  0
   22.4472   -6.2617  -15.8277 C   0  0  1  0  0  0  0  0  0  0  0  0
   20.9565   -6.1863  -15.7309 C   0  0  0  0  0  0  0  0  0  0  0  0
   20.4634   -4.7948  -16.0323 C   0  0  0  0  0  0  0  0  0  0  0  0
   18.9689   -4.7271  -15.8035 C   0  0  0  0  0  0  0  0  0  0  0  0
   18.3373   -3.6512  -15.8810 O   0  0  0  0  0  0  0  0  0  0  0  0
   23.1909   -5.3077  -14.9910 C   0  0  0  0  0  0  0  0  0  0  0  0
   23.5269   -5.6020  -13.6506 O   0  0  0  0  0  0  0  0  0  0  0  0
   18.2941   -5.8838  -15.5025 O   0  0  0  0  0  0  0  0  0  0  0  0
   23.5735   -4.1887  -15.3937 O   0  0  0  0  0  0  0  0  0  0  0  0
  2  1  1  1
  2  3  1  0
  3  4  1  0
  4  8  1  0
  5  4  2  0
  6  7  2  0
  6  2  1  0
  9 10  1  0
 10 11  1  0
 11 13  1  0
 11 12  1  1
 13 14  1  6
 14  6  1  0
 15 13  1  0
 16 15  2  0
 17 15  1  0
 18 17  1  0
 18 19  1  1
 20 19  1  0
 20 21  1  0
 21 22  2  0
 23 24  1  0
 23 18  1  0
 25 21  1  0
 26 23  2  0
M  END
$$$$
