DIE.pdb
     RDKit          3D

 26 25  0  0  1  0  0  0  0  0999 V2000
   20.2116  -12.9156  -17.3964 N   0  0  0  0  0  0  0  0  0  0  0  0
   20.9568  -11.8390  -17.9578 C   0  0  1  0  0  0  0  0  0  0  0  0
   20.0228  -10.9003  -18.7013 C   0  0  0  0  0  0  0  0  0  0  0  0
   19.3505  -11.5370  -19.8277 C   0  0  0  0  0  0  0  0  0  0  0  0
   18.1093  -11.6351  -19.8835 O   0  0  0  0  0  0  0  0  0  0  0  0
   21.6792  -11.0008  -16.9748 C   0  0  0  0  0  0  0  0  0  0  0  0
   21.0382  -10.7114  -15.9142 O   0  0  0  0  0  0  0  0  0  0  0  0
   20.1059  -12.0482  -20.8665 O   0  0  0  0  0  0  0  0  0  0  0  0
   26.8711  -11.6337  -15.7398 C   0  0  0  0  0  0  0  0  0  0  0  0
   25.3625  -11.3728  -15.6674 C   0  0  0  0  0  0  0  0  0  0  0  0
   25.0769   -9.9371  -15.9626 C   0  0  2  0  0  0  0  0  0  0  0  0
   25.7685   -9.0710  -14.9428 C   0  0  0  0  0  0  0  0  0  0  0  0
   23.6186   -9.6703  -16.0902 C   0  0  2  0  0  0  0  0  0  0  0  0
   23.0012  -10.5062  -17.1202 N   0  0  0  0  0  0  0  0  0  0  0  0
   23.2796   -8.2436  -16.3879 C   0  0  0  0  0  0  0  0  0  0  0  0
   23.6136   -7.6600  -17.4401 O   0  0  0  0  0  0  0  0  0  0  0  0
   22.5391   -7.4737  -15.4539 N   0  0  0  0  0  0  0  0  0  0  0  0
   22.1716   -6.0688  -15.6757 C   0  0  1  0  0  0  0  0  0  0  0  0
   20.7159   -5.9496  -15.9980 C   0  0  0  0  0  0  0  0  0  0  0  0
   20.3256   -4.5111  -16.2189 C   0  0  0  0  0  0  0  0  0  0  0  0
   18.8472   -4.4305  -16.5325 C   0  0  0  0  0  0  0  0  0  0  0  0
   18.2834   -3.3429  -16.7804 O   0  0  0  0  0  0  0  0  0  0  0  0
   22.6318   -5.3052  -14.5059 C   0  0  0  0  0  0  0  0  0  0  0  0
   22.8418   -5.9232  -13.2529 O   0  0  0  0  0  0  0  0  0  0  0  0
   18.1107   -5.5886  -16.5433 O   0  0  0  0  0  0  0  0  0  0  0  0
   22.8665   -4.0785  -14.5313 O   0  0  0  0  0  0  0  0  0  0  0  0
  2  1  1  1
  2  3  1  0
  3  4  1  0
  4  8  1  0
  5  4  2  0
  6  7  2  0
  6  2  1  0
  9 10  1  0
 10 11  1  0
 11 13  1  0
 11 12  1  1
 13 14  1  6
 14  6  1  0
 15 13  1  0
 16 15  2  0
 17 15  1  0
 18 17  1  0
 18 19  1  1
 20 19  1  0
 20 21  1  0
 21 22  2  0
 23 24  1  0
 23 18  1  0
 25 21  1  0
 26 23  2  0
M  END
$$$$
