VHY.pdb
     RDKit          3D

 30 31  0  0  1  0  0  0  0  0999 V2000
    8.7686  -12.4690   18.9516 C   0  0  0  0  0  0  0  0  0  0  0  0
    8.8630  -13.3460   20.1700 C   0  0  1  0  0  0  0  0  0  0  0  0
    7.6466  -13.0746   21.0263 C   0  0  0  0  0  0  0  0  0  0  0  0
    8.9109  -14.7991   19.7642 C   0  0  2  0  0  0  0  0  0  0  0  0
    7.6659  -15.1254   19.0257 N   0  0  0  0  0  0  0  0  0  0  0  0
    8.9414  -15.6340   20.9831 C   0  0  0  0  0  0  0  0  0  0  0  0
    7.8419  -15.9322   21.5370 O   0  0  0  0  0  0  0  0  0  0  0  0
   10.0997  -16.1492   21.6055 N   0  0  0  0  0  0  0  0  0  0  0  0
    9.9880  -16.9840   22.8076 C   0  0  1  0  0  0  0  0  0  0  0  0
   10.9140  -18.1535   22.4989 C   0  0  0  0  0  0  0  0  0  0  0  0
   10.3229  -19.2109   21.6915 C   0  0  0  0  0  0  0  0  0  0  0  0
    9.6970  -18.9103   20.4723 C   0  0  0  0  0  0  0  0  0  0  0  0
    9.2397  -20.0234   19.9230 N   0  0  0  0  0  0  0  0  0  0  0  0
    9.5565  -21.0425   20.7622 C   0  0  0  0  0  0  0  0  0  0  0  0
   10.2091  -20.5369   21.8236 N   0  0  0  0  0  0  0  0  0  0  0  0
   10.5326  -16.2911   23.9897 C   0  0  0  0  0  0  0  0  0  0  0  0
   11.4715  -15.4832   23.8446 O   0  0  0  0  0  0  0  0  0  0  0  0
    4.8146  -13.3114   27.0202 O   0  0  0  0  0  0  0  0  0  0  0  0
    6.1681  -13.5777   26.7833 C   0  0  0  0  0  0  0  0  0  0  0  0
    7.0929  -13.0079   27.6250 C   0  0  0  0  0  0  0  0  0  0  0  0
    8.4588  -13.2421   27.4321 C   0  0  0  0  0  0  0  0  0  0  0  0
    8.8478  -14.0492   26.3890 C   0  0  0  0  0  0  0  0  0  0  0  0
   10.2866  -14.3088   26.1663 C   0  0  0  0  0  0  0  0  0  0  0  0
   10.6036  -15.7377   26.4080 C   0  0  2  0  0  0  0  0  0  0  0  0
   10.0365  -16.4988   25.2921 N   0  0  0  0  0  0  0  0  0  0  0  0
   10.1415  -16.3104   27.6713 C   0  0  0  0  0  0  0  0  0  0  0  0
   10.5328  -15.8835   28.9393 O   0  0  0  0  0  0  0  0  0  0  0  0
    7.9304  -14.6331   25.5293 C   0  0  0  0  0  0  0  0  0  0  0  0
    6.5857  -14.3803   25.7488 C   0  0  0  0  0  0  0  0  0  0  0  0
    9.3181  -17.2736   27.6711 O   0  0  0  0  0  0  0  0  0  0  0  0
  2  1  1  6
  3  2  1  0
  4  5  1  1
  4  2  1  0
  6  4  1  0
  7  6  2  0
  8  6  1  0
  9 16  1  0
  9  8  1  0
  9 10  1  6
 11 10  1  0
 11 15  1  0
 12 13  1  0
 12 11  2  0
 13 14  1  0
 14 15  2  0
 16 17  2  0
 18 19  1  0
 19 29  2  0
 19 20  1  0
 20 21  2  0
 21 22  1  0
 22 23  1  0
 24 23  1  6
 25 24  1  0
 25 16  1  0
 26 24  1  0
 27 26  1  0
 28 22  2  0
 29 28  1  0
 30 26  2  0
M  END
$$$$
