VHY.pdb
     RDKit          3D

 30 31  0  0  1  0  0  0  0  0999 V2000
    9.2669  -12.8914   20.2414 C   0  0  0  0  0  0  0  0  0  0  0  0
    8.3209  -13.3957   19.1864 C   0  0  1  0  0  0  0  0  0  0  0  0
    8.6381  -12.6678   17.8995 C   0  0  0  0  0  0  0  0  0  0  0  0
    8.4864  -14.8852   19.0065 C   0  0  2  0  0  0  0  0  0  0  0  0
    7.6324  -15.3229   17.8746 N   0  0  0  0  0  0  0  0  0  0  0  0
    8.0030  -15.5694   20.2239 C   0  0  0  0  0  0  0  0  0  0  0  0
    6.9494  -15.1380   20.7795 O   0  0  0  0  0  0  0  0  0  0  0  0
    8.6086  -16.6849   20.8430 N   0  0  0  0  0  0  0  0  0  0  0  0
    8.1312  -17.1606   22.1470 C   0  0  1  0  0  0  0  0  0  0  0  0
    8.3514  -18.6656   22.0633 C   0  0  0  0  0  0  0  0  0  0  0  0
    8.0122  -19.4059   23.2700 C   0  0  0  0  0  0  0  0  0  0  0  0
    6.7579  -19.2420   23.8770 C   0  0  0  0  0  0  0  0  0  0  0  0
    6.6812  -20.0117   24.9500 N   0  0  0  0  0  0  0  0  0  0  0  0
    7.8622  -20.6735   25.0524 C   0  0  0  0  0  0  0  0  0  0  0  0
    8.6540  -20.2977   24.0325 N   0  0  0  0  0  0  0  0  0  0  0  0
    8.9775  -16.6518   23.2419 C   0  0  0  0  0  0  0  0  0  0  0  0
   10.2091  -16.5601   23.0690 O   0  0  0  0  0  0  0  0  0  0  0  0
    4.7759  -11.9054   26.8736 O   0  0  0  0  0  0  0  0  0  0  0  0
    5.9580  -12.5980   26.5876 C   0  0  0  0  0  0  0  0  0  0  0  0
    7.1157  -11.8689   26.4578 C   0  0  0  0  0  0  0  0  0  0  0  0
    8.3247  -12.5127   26.1721 C   0  0  0  0  0  0  0  0  0  0  0  0
    8.3245  -13.8799   26.0261 C   0  0  0  0  0  0  0  0  0  0  0  0
    9.5913  -14.5801   25.7227 C   0  0  0  0  0  0  0  0  0  0  0  0
    9.3676  -16.0428   25.6160 C   0  0  2  0  0  0  0  0  0  0  0  0
    8.4555  -16.2575   24.4900 N   0  0  0  0  0  0  0  0  0  0  0  0
    8.8424  -16.7171   26.8022 C   0  0  0  0  0  0  0  0  0  0  0  0
    9.5033  -16.8264   28.0246 O   0  0  0  0  0  0  0  0  0  0  0  0
    7.1675  -14.6329   26.1533 C   0  0  0  0  0  0  0  0  0  0  0  0
    5.9876  -13.9637   26.4364 C   0  0  0  0  0  0  0  0  0  0  0  0
    7.6988  -17.2620   26.7716 O   0  0  0  0  0  0  0  0  0  0  0  0
  2  1  1  1
  3  2  1  0
  4  5  1  6
  4  2  1  0
  6  4  1  0
  7  6  2  0
  8  6  1  0
  9 16  1  0
  9  8  1  0
  9 10  1  6
 11 10  1  0
 11 15  1  0
 12 13  1  0
 12 11  2  0
 13 14  1  0
 14 15  2  0
 16 17  2  0
 18 19  1  0
 19 29  2  0
 19 20  1  0
 20 21  2  0
 21 22  1  0
 22 23  1  0
 24 23  1  1
 25 24  1  0
 25 16  1  0
 26 24  1  0
 27 26  1  0
 28 22  2  0
 29 28  1  0
 30 26  2  0
M  END
$$$$
