VHY.pdb
     RDKit          3D

 30 31  0  0  1  0  0  0  0  0999 V2000
    8.5298  -12.5527   17.9964 C   0  0  0  0  0  0  0  0  0  0  0  0
    8.8001  -13.4540   19.1698 C   0  0  1  0  0  0  0  0  0  0  0  0
    7.7350  -13.1863   20.2093 C   0  0  0  0  0  0  0  0  0  0  0  0
    8.7648  -14.8994   18.7362 C   0  0  2  0  0  0  0  0  0  0  0  0
    7.4210  -15.1940   18.1801 N   0  0  0  0  0  0  0  0  0  0  0  0
    8.9573  -15.7584   19.9232 C   0  0  0  0  0  0  0  0  0  0  0  0
    7.9474  -16.0377   20.6351 O   0  0  0  0  0  0  0  0  0  0  0  0
   10.1817  -16.3163   20.3522 N   0  0  0  0  0  0  0  0  0  0  0  0
   10.2267  -17.1927   21.5288 C   0  0  1  0  0  0  0  0  0  0  0  0
   11.4924  -18.0086   21.2992 C   0  0  0  0  0  0  0  0  0  0  0  0
   11.7948  -18.9823   22.3383 C   0  0  0  0  0  0  0  0  0  0  0  0
   10.7817  -19.4595   23.1835 C   0  0  0  0  0  0  0  0  0  0  0  0
   11.2925  -20.3280   24.0406 N   0  0  0  0  0  0  0  0  0  0  0  0
   12.6191  -20.4247   23.7686 C   0  0  0  0  0  0  0  0  0  0  0  0
   12.9067  -19.6076   22.7401 N   0  0  0  0  0  0  0  0  0  0  0  0
   10.4228  -16.4141   22.7655 C   0  0  0  0  0  0  0  0  0  0  0  0
   11.0186  -15.3200   22.7097 O   0  0  0  0  0  0  0  0  0  0  0  0
    6.0924  -11.1163   27.4542 O   0  0  0  0  0  0  0  0  0  0  0  0
    6.6518  -12.1095   26.6419 C   0  0  0  0  0  0  0  0  0  0  0  0
    7.8993  -11.8810   26.1129 C   0  0  0  0  0  0  0  0  0  0  0  0
    8.5035  -12.8416   25.2944 C   0  0  0  0  0  0  0  0  0  0  0  0
    7.8234  -14.0084   25.0356 C   0  0  0  0  0  0  0  0  0  0  0  0
    8.4432  -15.0364   24.1719 C   0  0  0  0  0  0  0  0  0  0  0  0
    9.3801  -15.8804   24.9535 C   0  0  2  0  0  0  0  0  0  0  0  0
    9.9625  -16.8510   24.0236 N   0  0  0  0  0  0  0  0  0  0  0  0
    8.8249  -16.5857   26.1075 C   0  0  0  0  0  0  0  0  0  0  0  0
    9.0255  -16.2307   27.4405 O   0  0  0  0  0  0  0  0  0  0  0  0
    6.5645  -14.2574   25.5598 C   0  0  0  0  0  0  0  0  0  0  0  0
    5.9952  -13.2850   26.3664 C   0  0  0  0  0  0  0  0  0  0  0  0
    8.0950  -17.6077   25.9392 O   0  0  0  0  0  0  0  0  0  0  0  0
  2  1  1  6
  3  2  1  0
  4  5  1  1
  4  2  1  0
  6  4  1  0
  7  6  2  0
  8  6  1  0
  9 16  1  0
  9  8  1  0
  9 10  1  6
 11 10  1  0
 11 15  1  0
 12 13  1  0
 12 11  2  0
 13 14  1  0
 14 15  2  0
 16 17  2  0
 18 19  1  0
 19 29  2  0
 19 20  1  0
 20 21  2  0
 21 22  1  0
 22 23  1  0
 24 23  1  6
 25 24  1  0
 25 16  1  0
 26 24  1  0
 27 26  1  0
 28 22  2  0
 29 28  1  0
 30 26  2  0
M  END
$$$$
