VHY.pdb
     RDKit          3D

 30 31  0  0  1  0  0  0  0  0999 V2000
    8.4827  -12.3649   17.7077 C   0  0  0  0  0  0  0  0  0  0  0  0
    8.6613  -13.3861   18.7975 C   0  0  1  0  0  0  0  0  0  0  0  0
    7.3985  -13.3954   19.6294 C   0  0  0  0  0  0  0  0  0  0  0  0
    8.9109  -14.7492   18.1991 C   0  0  2  0  0  0  0  0  0  0  0  0
    7.8103  -15.0596   17.2536 N   0  0  0  0  0  0  0  0  0  0  0  0
    8.8732  -15.7581   19.2783 C   0  0  0  0  0  0  0  0  0  0  0  0
    7.7447  -16.1780   19.6716 O   0  0  0  0  0  0  0  0  0  0  0  0
    9.9950  -16.3182   19.9281 N   0  0  0  0  0  0  0  0  0  0  0  0
    9.8165  -17.2290   21.0653 C   0  0  1  0  0  0  0  0  0  0  0  0
   11.0878  -18.0677   21.0344 C   0  0  0  0  0  0  0  0  0  0  0  0
   11.2304  -19.0111   22.1339 C   0  0  0  0  0  0  0  0  0  0  0  0
   11.5290  -18.5572   23.4274 C   0  0  0  0  0  0  0  0  0  0  0  0
   11.6086  -19.5889   24.2515 N   0  0  0  0  0  0  0  0  0  0  0  0
   11.3674  -20.7056   23.5180 C   0  0  0  0  0  0  0  0  0  0  0  0
   11.1412  -20.3411   22.2436 N   0  0  0  0  0  0  0  0  0  0  0  0
    9.8063  -16.4914   22.3419 C   0  0  0  0  0  0  0  0  0  0  0  0
   10.5912  -15.5355   22.5006 O   0  0  0  0  0  0  0  0  0  0  0  0
    6.0572  -11.5517   28.2573 O   0  0  0  0  0  0  0  0  0  0  0  0
    6.4199  -12.4220   27.2229 C   0  0  0  0  0  0  0  0  0  0  0  0
    5.8456  -13.6703   27.2010 C   0  0  0  0  0  0  0  0  0  0  0  0
    6.1739  -14.5785   26.1885 C   0  0  0  0  0  0  0  0  0  0  0  0
    7.0770  -14.1935   25.2257 C   0  0  0  0  0  0  0  0  0  0  0  0
    7.4391  -15.1386   24.1474 C   0  0  0  0  0  0  0  0  0  0  0  0
    8.7073  -15.8379   24.4690 C   0  0  2  0  0  0  0  0  0  0  0  0
    8.9403  -16.8172   23.4048 N   0  0  0  0  0  0  0  0  0  0  0  0
    8.7805  -16.5051   25.7679 C   0  0  0  0  0  0  0  0  0  0  0  0
    9.4178  -15.9973   26.8988 O   0  0  0  0  0  0  0  0  0  0  0  0
    7.6670  -12.9391   25.2305 C   0  0  0  0  0  0  0  0  0  0  0  0
    7.3195  -12.0642   26.2474 C   0  0  0  0  0  0  0  0  0  0  0  0
    8.2369  -17.6377   25.9341 O   0  0  0  0  0  0  0  0  0  0  0  0
  2  1  1  6
  3  2  1  0
  4  5  1  6
  4  2  1  0
  6  4  1  0
  7  6  2  0
  8  6  1  0
  9 16  1  0
  9  8  1  0
  9 10  1  1
 11 10  1  0
 11 15  1  0
 12 13  1  0
 12 11  2  0
 13 14  1  0
 14 15  2  0
 16 17  2  0
 18 19  1  0
 19 29  2  0
 19 20  1  0
 20 21  2  0
 21 22  1  0
 22 23  1  0
 24 23  1  6
 25 24  1  0
 25 16  1  0
 26 24  1  0
 27 26  1  0
 28 22  2  0
 29 28  1  0
 30 26  2  0
M  END
$$$$
