VHY.pdb
     RDKit          3D

 30 31  0  0  1  0  0  0  0  0999 V2000
    7.6399  -12.3085   19.8683 C   0  0  0  0  0  0  0  0  0  0  0  0
    8.0039  -13.3151   20.9250 C   0  0  1  0  0  0  0  0  0  0  0  0
    6.7974  -13.5007   21.8174 C   0  0  0  0  0  0  0  0  0  0  0  0
    8.3951  -14.6249   20.2848 C   0  0  2  0  0  0  0  0  0  0  0  0
    7.2293  -15.1503   19.5318 N   0  0  0  0  0  0  0  0  0  0  0  0
    8.7177  -15.5984   21.3488 C   0  0  0  0  0  0  0  0  0  0  0  0
    7.7896  -16.3397   21.7890 O   0  0  0  0  0  0  0  0  0  0  0  0
    9.9874  -15.7937   21.9355 N   0  0  0  0  0  0  0  0  0  0  0  0
   10.2088  -16.8989   22.8759 C   0  0  1  0  0  0  0  0  0  0  0  0
   11.6002  -17.3930   22.5010 C   0  0  0  0  0  0  0  0  0  0  0  0
   11.6471  -18.2930   21.3577 C   0  0  0  0  0  0  0  0  0  0  0  0
   10.5489  -19.1097   21.0489 C   0  0  0  0  0  0  0  0  0  0  0  0
   10.8235  -19.8344   19.9769 N   0  0  0  0  0  0  0  0  0  0  0  0
   12.0799  -19.5042   19.5825 C   0  0  0  0  0  0  0  0  0  0  0  0
   12.5632  -18.5740   20.4247 N   0  0  0  0  0  0  0  0  0  0  0  0
   10.2744  -16.4106   24.2656 C   0  0  0  0  0  0  0  0  0  0  0  0
   11.0508  -15.4765   24.5482 O   0  0  0  0  0  0  0  0  0  0  0  0
    6.6209  -11.0690   26.0877 O   0  0  0  0  0  0  0  0  0  0  0  0
    7.0896  -12.3502   26.4004 C   0  0  0  0  0  0  0  0  0  0  0  0
    6.3080  -13.4247   26.0496 C   0  0  0  0  0  0  0  0  0  0  0  0
    6.7304  -14.7268   26.3393 C   0  0  0  0  0  0  0  0  0  0  0  0
    7.9357  -14.9017   26.9776 C   0  0  0  0  0  0  0  0  0  0  0  0
    8.4003  -16.2694   27.2944 C   0  0  0  0  0  0  0  0  0  0  0  0
    9.7280  -16.5251   26.6838 C   0  0  2  0  0  0  0  0  0  0  0  0
    9.4911  -16.9541   25.3033 N   0  0  0  0  0  0  0  0  0  0  0  0
   10.5850  -17.5007   27.3555 C   0  0  0  0  0  0  0  0  0  0  0  0
   11.0858  -18.6656   26.7763 O   0  0  0  0  0  0  0  0  0  0  0  0
    8.7382  -13.8309   27.3395 C   0  0  0  0  0  0  0  0  0  0  0  0
    8.2899  -12.5548   27.0377 C   0  0  0  0  0  0  0  0  0  0  0  0
   10.9315  -17.3214   28.5611 O   0  0  0  0  0  0  0  0  0  0  0  0
  2  1  1  6
  3  2  1  0
  4  5  1  1
  4  2  1  0
  6  4  1  0
  7  6  2  0
  8  6  1  0
  9 16  1  0
  9  8  1  0
  9 10  1  6
 11 10  1  0
 11 15  1  0
 12 13  1  0
 12 11  2  0
 13 14  1  0
 14 15  2  0
 16 17  2  0
 18 19  1  0
 19 29  2  0
 19 20  1  0
 20 21  2  0
 21 22  1  0
 22 23  1  0
 24 23  1  1
 25 24  1  0
 25 16  1  0
 26 24  1  0
 27 26  1  0
 28 22  2  0
 29 28  1  0
 30 26  2  0
M  END
$$$$
