VHY.pdb
     RDKit          3D

 30 31  0  0  1  0  0  0  0  0999 V2000
    9.1487  -12.8282   18.2073 C   0  0  0  0  0  0  0  0  0  0  0  0
    8.7449  -13.3979   19.5395 C   0  0  1  0  0  0  0  0  0  0  0  0
    7.4980  -12.6711   19.9908 C   0  0  0  0  0  0  0  0  0  0  0  0
    8.4784  -14.8784   19.4144 C   0  0  2  0  0  0  0  0  0  0  0  0
    7.4167  -15.0838   18.3982 N   0  0  0  0  0  0  0  0  0  0  0  0
    7.9665  -15.3818   20.7060 C   0  0  0  0  0  0  0  0  0  0  0  0
    6.7525  -15.7366   20.7762 O   0  0  0  0  0  0  0  0  0  0  0  0
    8.7128  -15.5147   21.8976 N   0  0  0  0  0  0  0  0  0  0  0  0
    8.2805  -16.4484   22.9445 C   0  0  1  0  0  0  0  0  0  0  0  0
    8.2757  -17.7909   22.2245 C   0  0  0  0  0  0  0  0  0  0  0  0
    7.9391  -18.9359   23.0580 C   0  0  0  0  0  0  0  0  0  0  0  0
    6.9292  -18.8387   24.0271 C   0  0  0  0  0  0  0  0  0  0  0  0
    6.8042  -19.9968   24.6542 N   0  0  0  0  0  0  0  0  0  0  0  0
    7.7141  -20.8455   24.1110 C   0  0  0  0  0  0  0  0  0  0  0  0
    8.3905  -20.1915   23.1503 N   0  0  0  0  0  0  0  0  0  0  0  0
    9.2774  -16.5330   24.0275 C   0  0  0  0  0  0  0  0  0  0  0  0
    9.9718  -17.5629   24.1386 O   0  0  0  0  0  0  0  0  0  0  0  0
    6.6181   -9.8374   26.6445 O   0  0  0  0  0  0  0  0  0  0  0  0
    6.8869  -11.2091   26.5724 C   0  0  0  0  0  0  0  0  0  0  0  0
    5.8195  -12.0704   26.4861 C   0  0  0  0  0  0  0  0  0  0  0  0
    6.0333  -13.4511   26.4116 C   0  0  0  0  0  0  0  0  0  0  0  0
    7.3261  -13.9192   26.4268 C   0  0  0  0  0  0  0  0  0  0  0  0
    7.5744  -15.3751   26.3504 C   0  0  0  0  0  0  0  0  0  0  0  0
    9.0309  -15.6571   26.3365 C   0  0  2  0  0  0  0  0  0  0  0  0
    9.4876  -15.4926   24.9544 N   0  0  0  0  0  0  0  0  0  0  0  0
    9.4534  -16.9647   26.8355 C   0  0  0  0  0  0  0  0  0  0  0  0
    9.6447  -18.1017   26.0521 O   0  0  0  0  0  0  0  0  0  0  0  0
    8.4158  -13.0668   26.5133 C   0  0  0  0  0  0  0  0  0  0  0  0
    8.1685  -11.7052   26.5855 C   0  0  0  0  0  0  0  0  0  0  0  0
    9.6784  -17.1330   28.0711 O   0  0  0  0  0  0  0  0  0  0  0  0
  2  1  1  6
  3  2  1  0
  4  5  1  6
  4  2  1  0
  6  4  1  0
  7  6  2  0
  8  6  1  0
  9 16  1  0
  9  8  1  0
  9 10  1  6
 11 10  1  0
 11 15  1  0
 12 13  1  0
 12 11  2  0
 13 14  1  0
 14 15  2  0
 16 17  2  0
 18 19  1  0
 19 29  2  0
 19 20  1  0
 20 21  2  0
 21 22  1  0
 22 23  1  0
 24 23  1  6
 25 24  1  0
 25 16  1  0
 26 24  1  0
 27 26  1  0
 28 22  2  0
 29 28  1  0
 30 26  2  0
M  END
$$$$
