VHY.pdb
     RDKit          3D

 30 31  0  0  1  0  0  0  0  0999 V2000
    9.3725  -13.0061   20.3719 C   0  0  0  0  0  0  0  0  0  0  0  0
    8.4334  -13.4956   19.3036 C   0  0  1  0  0  0  0  0  0  0  0  0
    8.3483  -12.4234   18.2408 C   0  0  0  0  0  0  0  0  0  0  0  0
    8.9438  -14.7874   18.7126 C   0  0  2  0  0  0  0  0  0  0  0  0
    8.0515  -15.1812   17.5943 N   0  0  0  0  0  0  0  0  0  0  0  0
    8.8677  -15.8455   19.7413 C   0  0  0  0  0  0  0  0  0  0  0  0
    7.7355  -16.3479   20.0065 O   0  0  0  0  0  0  0  0  0  0  0  0
    9.9561  -16.3691   20.4732 N   0  0  0  0  0  0  0  0  0  0  0  0
    9.7423  -17.4291   21.4658 C   0  0  1  0  0  0  0  0  0  0  0  0
   11.0058  -18.2714   21.3440 C   0  0  0  0  0  0  0  0  0  0  0  0
   11.0997  -19.3806   22.2822 C   0  0  0  0  0  0  0  0  0  0  0  0
   12.0960  -19.3953   23.2699 C   0  0  0  0  0  0  0  0  0  0  0  0
   11.9824  -20.4943   23.9972 N   0  0  0  0  0  0  0  0  0  0  0  0
   10.9307  -21.1950   23.5009 C   0  0  0  0  0  0  0  0  0  0  0  0
   10.4090  -20.5108   22.4675 N   0  0  0  0  0  0  0  0  0  0  0  0
    9.7097  -16.8792   22.8335 C   0  0  0  0  0  0  0  0  0  0  0  0
    9.2646  -17.5813   23.7630 O   0  0  0  0  0  0  0  0  0  0  0  0
    5.9164  -11.4171   28.0679 O   0  0  0  0  0  0  0  0  0  0  0  0
    6.5261  -12.1269   27.0269 C   0  0  0  0  0  0  0  0  0  0  0  0
    5.9189  -13.2806   26.5927 C   0  0  0  0  0  0  0  0  0  0  0  0
    6.4872  -14.0276   25.5550 C   0  0  0  0  0  0  0  0  0  0  0  0
    7.6572  -13.5817   24.9867 C   0  0  0  0  0  0  0  0  0  0  0  0
    8.2755  -14.3568   23.8894 C   0  0  0  0  0  0  0  0  0  0  0  0
    9.6005  -14.8814   24.3019 C   0  0  2  0  0  0  0  0  0  0  0  0
   10.1644  -15.5825   23.1459 N   0  0  0  0  0  0  0  0  0  0  0  0
    9.6257  -15.7654   25.4661 C   0  0  0  0  0  0  0  0  0  0  0  0
   10.0024  -15.3892   26.7543 O   0  0  0  0  0  0  0  0  0  0  0  0
    8.2849  -12.4207   25.4106 C   0  0  0  0  0  0  0  0  0  0  0  0
    7.6952  -11.7050   26.4404 C   0  0  0  0  0  0  0  0  0  0  0  0
    9.2863  -16.9809   25.3508 O   0  0  0  0  0  0  0  0  0  0  0  0
  2  1  1  1
  3  2  1  0
  4  5  1  6
  4  2  1  0
  6  4  1  0
  7  6  2  0
  8  6  1  0
  9 16  1  0
  9  8  1  0
  9 10  1  1
 11 10  1  0
 11 15  1  0
 12 13  1  0
 12 11  2  0
 13 14  1  0
 14 15  2  0
 16 17  2  0
 18 19  1  0
 19 29  2  0
 19 20  1  0
 20 21  2  0
 21 22  1  0
 22 23  1  0
 24 23  1  6
 25 24  1  0
 25 16  1  0
 26 24  1  0
 27 26  1  0
 28 22  2  0
 29 28  1  0
 30 26  2  0
M  END
$$$$
