VHY.pdb
     RDKit          3D

 30 31  0  0  1  0  0  0  0  0999 V2000
    8.8667  -12.8458   19.7799 C   0  0  0  0  0  0  0  0  0  0  0  0
    8.0639  -13.5049   18.6920 C   0  0  1  0  0  0  0  0  0  0  0  0
    7.9148  -12.5090   17.5640 C   0  0  0  0  0  0  0  0  0  0  0  0
    8.7650  -14.7512   18.2086 C   0  0  2  0  0  0  0  0  0  0  0  0
    7.9133  -15.4065   17.1854 N   0  0  0  0  0  0  0  0  0  0  0  0
    8.9067  -15.6889   19.3419 C   0  0  0  0  0  0  0  0  0  0  0  0
    7.8672  -16.2633   19.7824 O   0  0  0  0  0  0  0  0  0  0  0  0
   10.1133  -16.0208   19.9964 N   0  0  0  0  0  0  0  0  0  0  0  0
   10.1025  -16.8958   21.1749 C   0  0  1  0  0  0  0  0  0  0  0  0
   11.5022  -17.4970   21.1672 C   0  0  0  0  0  0  0  0  0  0  0  0
   11.8061  -18.3654   22.2954 C   0  0  0  0  0  0  0  0  0  0  0  0
   12.7190  -17.9597   23.2805 C   0  0  0  0  0  0  0  0  0  0  0  0
   12.8314  -18.9068   24.1971 N   0  0  0  0  0  0  0  0  0  0  0  0
   12.0084  -19.9211   23.8267 C   0  0  0  0  0  0  0  0  0  0  0  0
   11.3973  -19.5799   22.6785 N   0  0  0  0  0  0  0  0  0  0  0  0
    9.9657  -16.1140   22.4175 C   0  0  0  0  0  0  0  0  0  0  0  0
   10.5072  -14.9934   22.4960 O   0  0  0  0  0  0  0  0  0  0  0  0
    6.1159  -11.3105   28.2385 O   0  0  0  0  0  0  0  0  0  0  0  0
    6.4895  -12.2265   27.2483 C   0  0  0  0  0  0  0  0  0  0  0  0
    7.4567  -11.8443   26.3501 C   0  0  0  0  0  0  0  0  0  0  0  0
    7.8664  -12.7223   25.3406 C   0  0  0  0  0  0  0  0  0  0  0  0
    7.2819  -13.9650   25.2714 C   0  0  0  0  0  0  0  0  0  0  0  0
    7.6993  -14.9081   24.2114 C   0  0  0  0  0  0  0  0  0  0  0  0
    8.9201  -15.6459   24.6191 C   0  0  2  0  0  0  0  0  0  0  0  0
    9.2423  -16.5767   23.5347 N   0  0  0  0  0  0  0  0  0  0  0  0
    8.8566  -16.3766   25.8838 C   0  0  0  0  0  0  0  0  0  0  0  0
    9.3352  -15.9106   27.1073 O   0  0  0  0  0  0  0  0  0  0  0  0
    6.3049  -14.3691   26.1679 C   0  0  0  0  0  0  0  0  0  0  0  0
    5.9225  -13.4749   27.1552 C   0  0  0  0  0  0  0  0  0  0  0  0
    8.3339  -17.5300   25.9280 O   0  0  0  0  0  0  0  0  0  0  0  0
  2  1  1  1
  3  2  1  0
  4  5  1  6
  4  2  1  0
  6  4  1  0
  7  6  2  0
  8  6  1  0
  9 16  1  0
  9  8  1  0
  9 10  1  1
 11 10  1  0
 11 15  1  0
 12 13  1  0
 12 11  2  0
 13 14  1  0
 14 15  2  0
 16 17  2  0
 18 19  1  0
 19 29  2  0
 19 20  1  0
 20 21  2  0
 21 22  1  0
 22 23  1  0
 24 23  1  6
 25 24  1  0
 25 16  1  0
 26 24  1  0
 27 26  1  0
 28 22  2  0
 29 28  1  0
 30 26  2  0
M  END
$$$$
