VHY.pdb
     RDKit          3D

 30 31  0  0  1  0  0  0  0  0999 V2000
    6.7835  -20.3959   22.2676 C   0  0  0  0  0  0  0  0  0  0  0  0
    7.1081  -20.5142   20.8036 C   0  0  1  0  0  0  0  0  0  0  0  0
    6.2695  -21.6376   20.2368 C   0  0  0  0  0  0  0  0  0  0  0  0
    6.8028  -19.2167   20.0953 C   0  0  2  0  0  0  0  0  0  0  0  0
    7.0804  -19.3909   18.6481 N   0  0  0  0  0  0  0  0  0  0  0  0
    7.7135  -18.1699   20.6040 C   0  0  0  0  0  0  0  0  0  0  0  0
    8.9622  -18.3696   20.5303 O   0  0  0  0  0  0  0  0  0  0  0  0
    7.3234  -16.9378   21.1736 N   0  0  0  0  0  0  0  0  0  0  0  0
    8.3337  -15.9978   21.6735 C   0  0  1  0  0  0  0  0  0  0  0  0
    7.6284  -14.6515   21.5712 C   0  0  0  0  0  0  0  0  0  0  0  0
    7.6591  -14.0385   20.2511 C   0  0  0  0  0  0  0  0  0  0  0  0
    8.4003  -14.6218   19.2124 C   0  0  0  0  0  0  0  0  0  0  0  0
    8.2769  -13.8917   18.1162 N   0  0  0  0  0  0  0  0  0  0  0  0
    7.4692  -12.8443   18.4226 C   0  0  0  0  0  0  0  0  0  0  0  0
    7.1050  -12.9467   19.7129 N   0  0  0  0  0  0  0  0  0  0  0  0
    8.6235  -16.2360   23.0995 C   0  0  0  0  0  0  0  0  0  0  0  0
    7.6887  -16.2113   23.9245 O   0  0  0  0  0  0  0  0  0  0  0  0
    6.7986  -20.6173   28.8330 O   0  0  0  0  0  0  0  0  0  0  0  0
    7.6347  -20.0420   27.8692 C   0  0  0  0  0  0  0  0  0  0  0  0
    8.9906  -20.2199   28.0048 C   0  0  0  0  0  0  0  0  0  0  0  0
    9.8704  -19.6655   27.0686 C   0  0  0  0  0  0  0  0  0  0  0  0
    9.3484  -18.9454   26.0200 C   0  0  0  0  0  0  0  0  0  0  0  0
   10.2606  -18.3497   25.0200 C   0  0  0  0  0  0  0  0  0  0  0  0
   10.1062  -16.8747   24.9844 C   0  0  2  0  0  0  0  0  0  0  0  0
    9.9220  -16.4952   23.5816 N   0  0  0  0  0  0  0  0  0  0  0  0
   11.1918  -16.0846   25.5630 C   0  0  0  0  0  0  0  0  0  0  0  0
   11.3862  -15.8598   26.9249 O   0  0  0  0  0  0  0  0  0  0  0  0
    7.9840  -18.7548   25.8659 C   0  0  0  0  0  0  0  0  0  0  0  0
    7.1409  -19.3174   26.8109 C   0  0  0  0  0  0  0  0  0  0  0  0
   12.0536  -15.5389   24.8112 O   0  0  0  0  0  0  0  0  0  0  0  0
  2  1  1  1
  3  2  1  0
  4  5  1  6
  4  2  1  0
  6  4  1  0
  7  6  2  0
  8  6  1  0
  9 16  1  0
  9  8  1  0
  9 10  1  1
 11 10  1  0
 11 15  1  0
 12 13  1  0
 12 11  2  0
 13 14  1  0
 14 15  2  0
 16 17  2  0
 18 19  1  0
 19 29  2  0
 19 20  1  0
 20 21  2  0
 21 22  1  0
 22 23  1  0
 24 23  1  6
 25 24  1  0
 25 16  1  0
 26 24  1  0
 27 26  1  0
 28 22  2  0
 29 28  1  0
 30 26  2  0
M  END
$$$$
