VHY.pdb
     RDKit          3D

 30 31  0  0  1  0  0  0  0  0999 V2000
    9.2400  -12.7530   20.6324 C   0  0  0  0  0  0  0  0  0  0  0  0
    8.1022  -13.2851   19.8048 C   0  0  1  0  0  0  0  0  0  0  0  0
    7.6081  -12.1585   18.9254 C   0  0  0  0  0  0  0  0  0  0  0  0
    8.5689  -14.4478   18.9629 C   0  0  2  0  0  0  0  0  0  0  0  0
    7.4098  -14.9767   18.2024 N   0  0  0  0  0  0  0  0  0  0  0  0
    9.0470  -15.5227   19.8573 C   0  0  0  0  0  0  0  0  0  0  0  0
    8.1879  -16.2214   20.4724 O   0  0  0  0  0  0  0  0  0  0  0  0
   10.3968  -15.8609   20.0980 N   0  0  0  0  0  0  0  0  0  0  0  0
   10.7353  -16.9758   20.9908 C   0  0  1  0  0  0  0  0  0  0  0  0
   11.7417  -17.7751   20.1731 C   0  0  0  0  0  0  0  0  0  0  0  0
   11.1638  -18.6095   19.1295 C   0  0  0  0  0  0  0  0  0  0  0  0
   11.1537  -18.1758   17.7953 C   0  0  0  0  0  0  0  0  0  0  0  0
   10.5816  -19.0950   17.0352 N   0  0  0  0  0  0  0  0  0  0  0  0
   10.2192  -20.1185   17.8503 C   0  0  0  0  0  0  0  0  0  0  0  0
   10.5768  -19.8111   19.1095 N   0  0  0  0  0  0  0  0  0  0  0  0
   11.4307  -16.4976   22.1999 C   0  0  0  0  0  0  0  0  0  0  0  0
   11.9295  -15.3547   22.2051 O   0  0  0  0  0  0  0  0  0  0  0  0
    9.4322  -13.3716   29.6749 O   0  0  0  0  0  0  0  0  0  0  0  0
    9.5923  -13.9820   28.4255 C   0  0  0  0  0  0  0  0  0  0  0  0
   10.8025  -14.5708   28.1474 C   0  0  0  0  0  0  0  0  0  0  0  0
   11.0146  -15.1947   26.9131 C   0  0  0  0  0  0  0  0  0  0  0  0
    9.9912  -15.2031   25.9948 C   0  0  0  0  0  0  0  0  0  0  0  0
   10.1948  -15.8559   24.6835 C   0  0  0  0  0  0  0  0  0  0  0  0
   11.4570  -16.6353   24.6777 C   0  0  2  0  0  0  0  0  0  0  0  0
   11.5593  -17.2787   23.3657 N   0  0  0  0  0  0  0  0  0  0  0  0
   11.6143  -17.6421   25.7262 C   0  0  0  0  0  0  0  0  0  0  0  0
   12.4720  -17.5377   26.8200 O   0  0  0  0  0  0  0  0  0  0  0  0
    8.7636  -14.6148   26.2564 C   0  0  0  0  0  0  0  0  0  0  0  0
    8.5871  -14.0057   27.4886 C   0  0  0  0  0  0  0  0  0  0  0  0
   10.9399  -18.7142   25.6865 O   0  0  0  0  0  0  0  0  0  0  0  0
  2  1  1  6
  3  2  1  0
  4  5  1  1
  4  2  1  0
  6  4  1  0
  7  6  2  0
  8  6  1  0
  9 16  1  0
  9  8  1  0
  9 10  1  6
 11 10  1  0
 11 15  1  0
 12 13  1  0
 12 11  2  0
 13 14  1  0
 14 15  2  0
 16 17  2  0
 18 19  1  0
 19 29  2  0
 19 20  1  0
 20 21  2  0
 21 22  1  0
 22 23  1  0
 24 23  1  6
 25 24  1  0
 25 16  1  0
 26 24  1  0
 27 26  1  0
 28 22  2  0
 29 28  1  0
 30 26  2  0
M  END
$$$$
