VHY.pdb
     RDKit          3D

 30 31  0  0  1  0  0  0  0  0999 V2000
    8.4260  -12.5939   17.3687 C   0  0  0  0  0  0  0  0  0  0  0  0
    8.6874  -13.4764   18.5583 C   0  0  1  0  0  0  0  0  0  0  0  0
    7.4440  -13.4673   19.4188 C   0  0  0  0  0  0  0  0  0  0  0  0
    9.0076  -14.8804   18.1058 C   0  0  2  0  0  0  0  0  0  0  0  0
    7.9008  -15.3636   17.2436 N   0  0  0  0  0  0  0  0  0  0  0  0
    9.0702  -15.7609   19.2910 C   0  0  0  0  0  0  0  0  0  0  0  0
    7.9825  -16.1464   19.8136 O   0  0  0  0  0  0  0  0  0  0  0  0
   10.2481  -16.2310   19.9124 N   0  0  0  0  0  0  0  0  0  0  0  0
   10.1700  -17.0609   21.1206 C   0  0  1  0  0  0  0  0  0  0  0  0
   11.5379  -17.7297   21.1650 C   0  0  0  0  0  0  0  0  0  0  0  0
   11.6828  -18.8939   20.3031 C   0  0  0  0  0  0  0  0  0  0  0  0
   10.5689  -19.6830   19.9791 C   0  0  0  0  0  0  0  0  0  0  0  0
   10.9440  -20.6760   19.1898 N   0  0  0  0  0  0  0  0  0  0  0  0
   12.2815  -20.5477   18.9944 C   0  0  0  0  0  0  0  0  0  0  0  0
   12.7122  -19.4689   19.6718 N   0  0  0  0  0  0  0  0  0  0  0  0
   10.0471  -16.2285   22.3314 C   0  0  0  0  0  0  0  0  0  0  0  0
   10.9141  -15.3640   22.5681 O   0  0  0  0  0  0  0  0  0  0  0  0
    6.3542  -11.1621   28.3088 O   0  0  0  0  0  0  0  0  0  0  0  0
    6.6080  -12.0871   27.2895 C   0  0  0  0  0  0  0  0  0  0  0  0
    7.4824  -11.7235   26.2936 C   0  0  0  0  0  0  0  0  0  0  0  0
    7.7707  -12.6112   25.2512 C   0  0  0  0  0  0  0  0  0  0  0  0
    7.1627  -13.8445   25.2492 C   0  0  0  0  0  0  0  0  0  0  0  0
    7.4523  -14.7975   24.1561 C   0  0  0  0  0  0  0  0  0  0  0  0
    8.8145  -15.3659   24.3052 C   0  0  2  0  0  0  0  0  0  0  0  0
    8.9830  -16.3630   23.2453 N   0  0  0  0  0  0  0  0  0  0  0  0
    9.1383  -15.9701   25.5966 C   0  0  0  0  0  0  0  0  0  0  0  0
    9.7068  -15.3000   26.6787 O   0  0  0  0  0  0  0  0  0  0  0  0
    6.2780  -14.2298   26.2445 C   0  0  0  0  0  0  0  0  0  0  0  0
    6.0148  -13.3265   27.2619 C   0  0  0  0  0  0  0  0  0  0  0  0
    8.9030  -17.1981   25.8026 O   0  0  0  0  0  0  0  0  0  0  0  0
  2  1  1  6
  3  2  1  0
  4  5  1  6
  4  2  1  0
  6  4  1  0
  7  6  2  0
  8  6  1  0
  9 16  1  0
  9  8  1  0
  9 10  1  1
 11 10  1  0
 11 15  1  0
 12 13  1  0
 12 11  2  0
 13 14  1  0
 14 15  2  0
 16 17  2  0
 18 19  1  0
 19 29  2  0
 19 20  1  0
 20 21  2  0
 21 22  1  0
 22 23  1  0
 24 23  1  1
 25 24  1  0
 25 16  1  0
 26 24  1  0
 27 26  1  0
 28 22  2  0
 29 28  1  0
 30 26  2  0
M  END
$$$$
