VHY.pdb
     RDKit          3D

 30 31  0  0  1  0  0  0  0  0999 V2000
   11.2668  -20.2071   18.7701 C   0  0  0  0  0  0  0  0  0  0  0  0
   10.8804  -19.0634   19.6675 C   0  0  1  0  0  0  0  0  0  0  0  0
   12.1303  -18.5953   20.3784 C   0  0  0  0  0  0  0  0  0  0  0  0
   10.2825  -17.9413   18.8541 C   0  0  2  0  0  0  0  0  0  0  0  0
   11.3205  -17.4217   17.9297 N   0  0  0  0  0  0  0  0  0  0  0  0
    9.9022  -16.8418   19.7653 C   0  0  0  0  0  0  0  0  0  0  0  0
   10.7655  -15.9537   20.0314 O   0  0  0  0  0  0  0  0  0  0  0  0
    8.6422  -16.6743   20.3808 N   0  0  0  0  0  0  0  0  0  0  0  0
    8.4186  -15.5754   21.3279 C   0  0  1  0  0  0  0  0  0  0  0  0
    6.9004  -15.4532   21.3573 C   0  0  0  0  0  0  0  0  0  0  0  0
    6.1836  -16.7120   21.5013 C   0  0  0  0  0  0  0  0  0  0  0  0
    5.5598  -17.0415   22.7140 C   0  0  0  0  0  0  0  0  0  0  0  0
    4.9768  -18.2240   22.6053 N   0  0  0  0  0  0  0  0  0  0  0  0
    5.2098  -18.6699   21.3442 C   0  0  0  0  0  0  0  0  0  0  0  0
    5.9384  -17.7475   20.6911 N   0  0  0  0  0  0  0  0  0  0  0  0
    8.8571  -15.9455   22.6862 C   0  0  0  0  0  0  0  0  0  0  0  0
    9.0756  -17.1443   22.9514 O   0  0  0  0  0  0  0  0  0  0  0  0
   11.2806  -15.6869   31.0706 O   0  0  0  0  0  0  0  0  0  0  0  0
   10.8884  -15.3092   29.7811 C   0  0  0  0  0  0  0  0  0  0  0  0
   11.4688  -15.9562   28.7167 C   0  0  0  0  0  0  0  0  0  0  0  0
   11.1120  -15.6167   27.4070 C   0  0  0  0  0  0  0  0  0  0  0  0
   10.1751  -14.6287   27.2146 C   0  0  0  0  0  0  0  0  0  0  0  0
    9.7847  -14.2534   25.8385 C   0  0  0  0  0  0  0  0  0  0  0  0
    9.4037  -15.4553   25.0569 C   0  0  2  0  0  0  0  0  0  0  0  0
    9.0453  -14.9981   23.7121 N   0  0  0  0  0  0  0  0  0  0  0  0
    8.3202  -16.2756   25.5961 C   0  0  0  0  0  0  0  0  0  0  0  0
    8.4879  -17.4274   26.3631 O   0  0  0  0  0  0  0  0  0  0  0  0
    9.5785  -13.9646   28.2751 C   0  0  0  0  0  0  0  0  0  0  0  0
    9.9547  -14.3256   29.5590 C   0  0  0  0  0  0  0  0  0  0  0  0
    7.1125  -15.9586   25.3796 O   0  0  0  0  0  0  0  0  0  0  0  0
  2  1  1  6
  3  2  1  0
  4  5  1  6
  4  2  1  0
  6  4  1  0
  7  6  2  0
  8  6  1  0
  9 16  1  0
  9  8  1  0
  9 10  1  1
 11 10  1  0
 11 15  1  0
 12 13  1  0
 12 11  2  0
 13 14  1  0
 14 15  2  0
 16 17  2  0
 18 19  1  0
 19 29  2  0
 19 20  1  0
 20 21  2  0
 21 22  1  0
 22 23  1  0
 24 23  1  1
 25 24  1  0
 25 16  1  0
 26 24  1  0
 27 26  1  0
 28 22  2  0
 29 28  1  0
 30 26  2  0
M  END
$$$$
