VHY.pdb
     RDKit          3D

 30 31  0  0  1  0  0  0  0  0999 V2000
    8.3049  -12.2283   17.7597 C   0  0  0  0  0  0  0  0  0  0  0  0
    8.4571  -13.1836   18.9116 C   0  0  1  0  0  0  0  0  0  0  0  0
    7.2722  -12.9874   19.8304 C   0  0  0  0  0  0  0  0  0  0  0  0
    8.5059  -14.6054   18.4071 C   0  0  2  0  0  0  0  0  0  0  0  0
    7.2728  -14.8730   17.6262 N   0  0  0  0  0  0  0  0  0  0  0  0
    8.5112  -15.5227   19.5657 C   0  0  0  0  0  0  0  0  0  0  0  0
    7.4020  -15.8361   20.0913 O   0  0  0  0  0  0  0  0  0  0  0  0
    9.6546  -16.1028   20.1578 N   0  0  0  0  0  0  0  0  0  0  0  0
    9.5185  -17.0085   21.3048 C   0  0  1  0  0  0  0  0  0  0  0  0
   10.3595  -18.2101   20.8933 C   0  0  0  0  0  0  0  0  0  0  0  0
   10.3451  -19.3228   21.8319 C   0  0  0  0  0  0  0  0  0  0  0  0
    9.1297  -19.8339   22.3116 C   0  0  0  0  0  0  0  0  0  0  0  0
    9.3676  -20.8335   23.1446 N   0  0  0  0  0  0  0  0  0  0  0  0
   10.7152  -20.9823   23.2157 C   0  0  0  0  0  0  0  0  0  0  0  0
   11.2906  -20.0645   22.4189 N   0  0  0  0  0  0  0  0  0  0  0  0
   10.1349  -16.4327   22.5141 C   0  0  0  0  0  0  0  0  0  0  0  0
   11.2324  -15.8481   22.4203 O   0  0  0  0  0  0  0  0  0  0  0  0
   10.8709  -15.2346   31.1722 O   0  0  0  0  0  0  0  0  0  0  0  0
   10.4367  -15.2944   29.8430 C   0  0  0  0  0  0  0  0  0  0  0  0
   10.4249  -14.1277   29.1168 C   0  0  0  0  0  0  0  0  0  0  0  0
    9.9997  -14.1326   27.7838 C   0  0  0  0  0  0  0  0  0  0  0  0
    9.5982  -15.3230   27.2248 C   0  0  0  0  0  0  0  0  0  0  0  0
    9.1438  -15.3503   25.8177 C   0  0  0  0  0  0  0  0  0  0  0  0
   10.2050  -15.8956   24.9361 C   0  0  2  0  0  0  0  0  0  0  0  0
    9.5358  -16.5105   23.7872 N   0  0  0  0  0  0  0  0  0  0  0  0
   11.1274  -16.8595   25.5342 C   0  0  0  0  0  0  0  0  0  0  0  0
   10.9389  -18.2402   25.5671 O   0  0  0  0  0  0  0  0  0  0  0  0
    9.6029  -16.5101   27.9406 C   0  0  0  0  0  0  0  0  0  0  0  0
   10.0299  -16.4698   29.2584 C   0  0  0  0  0  0  0  0  0  0  0  0
   12.2000  -16.4616   26.0792 O   0  0  0  0  0  0  0  0  0  0  0  0
  2  1  1  6
  3  2  1  0
  4  5  1  6
  4  2  1  0
  6  4  1  0
  7  6  2  0
  8  6  1  0
  9 16  1  0
  9  8  1  0
  9 10  1  6
 11 10  1  0
 11 15  1  0
 12 13  1  0
 12 11  2  0
 13 14  1  0
 14 15  2  0
 16 17  2  0
 18 19  1  0
 19 29  2  0
 19 20  1  0
 20 21  2  0
 21 22  1  0
 22 23  1  0
 24 23  1  1
 25 24  1  0
 25 16  1  0
 26 24  1  0
 27 26  1  0
 28 22  2  0
 29 28  1  0
 30 26  2  0
M  END
$$$$
