VHY.pdb
     RDKit          3D

 30 31  0  0  1  0  0  0  0  0999 V2000
    8.6806  -12.1896   18.4718 C   0  0  0  0  0  0  0  0  0  0  0  0
    8.8520  -13.2049   19.5682 C   0  0  1  0  0  0  0  0  0  0  0  0
    7.6226  -13.1440   20.4466 C   0  0  0  0  0  0  0  0  0  0  0  0
    9.0143  -14.5855   18.9799 C   0  0  2  0  0  0  0  0  0  0  0  0
    7.7695  -14.9397   18.2540 N   0  0  0  0  0  0  0  0  0  0  0  0
    9.1833  -15.5564   20.0810 C   0  0  0  0  0  0  0  0  0  0  0  0
    8.1459  -16.0622   20.6031 O   0  0  0  0  0  0  0  0  0  0  0  0
   10.4140  -15.9914   20.6202 N   0  0  0  0  0  0  0  0  0  0  0  0
   10.4410  -16.9658   21.7176 C   0  0  1  0  0  0  0  0  0  0  0  0
   11.5790  -17.8972   21.3198 C   0  0  0  0  0  0  0  0  0  0  0  0
   11.2774  -18.8046   20.2221 C   0  0  0  0  0  0  0  0  0  0  0  0
   10.2768  -19.7787   20.3581 C   0  0  0  0  0  0  0  0  0  0  0  0
   10.1847  -20.4782   19.2391 N   0  0  0  0  0  0  0  0  0  0  0  0
   11.1068  -19.9772   18.3777 C   0  0  0  0  0  0  0  0  0  0  0  0
   11.7575  -18.9691   18.9847 N   0  0  0  0  0  0  0  0  0  0  0  0
   10.8209  -16.3247   22.9898 C   0  0  0  0  0  0  0  0  0  0  0  0
   11.5422  -15.3077   22.9691 O   0  0  0  0  0  0  0  0  0  0  0  0
    5.5678  -11.9023   27.7311 O   0  0  0  0  0  0  0  0  0  0  0  0
    6.2935  -12.7633   26.8998 C   0  0  0  0  0  0  0  0  0  0  0  0
    7.6209  -12.4814   26.6831 C   0  0  0  0  0  0  0  0  0  0  0  0
    8.3914  -13.3103   25.8603 C   0  0  0  0  0  0  0  0  0  0  0  0
    7.7920  -14.4033   25.2801 C   0  0  0  0  0  0  0  0  0  0  0  0
    8.5878  -15.2918   24.4058 C   0  0  0  0  0  0  0  0  0  0  0  0
    9.7002  -15.9133   25.1656 C   0  0  2  0  0  0  0  0  0  0  0  0
   10.4017  -16.8106   24.2444 N   0  0  0  0  0  0  0  0  0  0  0  0
    9.3407  -16.6464   26.3784 C   0  0  0  0  0  0  0  0  0  0  0  0
    9.6669  -16.2616   27.6779 O   0  0  0  0  0  0  0  0  0  0  0  0
    6.4547  -14.7045   25.4864 C   0  0  0  0  0  0  0  0  0  0  0  0
    5.7206  -13.8628   26.3067 C   0  0  0  0  0  0  0  0  0  0  0  0
    8.6786  -17.7240   26.2992 O   0  0  0  0  0  0  0  0  0  0  0  0
  2  1  1  6
  3  2  1  0
  4  5  1  1
  4  2  1  0
  6  4  1  0
  7  6  2  0
  8  6  1  0
  9 16  1  0
  9  8  1  0
  9 10  1  6
 11 10  1  0
 11 15  1  0
 12 13  1  0
 12 11  2  0
 13 14  1  0
 14 15  2  0
 16 17  2  0
 18 19  1  0
 19 29  2  0
 19 20  1  0
 20 21  2  0
 21 22  1  0
 22 23  1  0
 24 23  1  6
 25 24  1  0
 25 16  1  0
 26 24  1  0
 27 26  1  0
 28 22  2  0
 29 28  1  0
 30 26  2  0
M  END
$$$$
