YPN.pdb
     RDKit          3D

 28 29  0  0  1  0  0  0  0  0999 V2000
   29.1282  -15.0240  -20.0752 O   0  0  0  0  0  0  0  0  0  0  0  0
   28.3919  -15.9702  -19.3890 C   0  0  0  0  0  0  0  0  0  0  0  0
   28.5983  -16.1123  -18.0285 C   0  0  0  0  0  0  0  0  0  0  0  0
   27.8879  -17.0386  -17.3153 C   0  0  0  0  0  0  0  0  0  0  0  0
   26.9692  -17.8204  -17.9788 C   0  0  0  0  0  0  0  0  0  0  0  0
   26.2077  -18.8183  -17.1958 C   0  0  0  0  0  0  0  0  0  0  0  0
   27.0417  -20.0515  -16.8929 C   0  0  2  0  0  0  0  0  0  0  0  0
   27.4650  -20.7284  -18.0677 N   0  0  0  0  0  0  0  0  0  0  0  0
   26.2961  -20.8837  -15.9400 C   0  0  0  0  0  0  0  0  0  0  0  0
   25.6771  -21.8736  -16.4431 O   0  0  0  0  0  0  0  0  0  0  0  0
   26.7386  -17.7050  -19.3327 C   0  0  0  0  0  0  0  0  0  0  0  0
   27.4663  -16.7622  -20.0403 C   0  0  0  0  0  0  0  0  0  0  0  0
   26.2089  -20.6871  -14.5516 N   0  0  0  0  0  0  0  0  0  0  0  0
   26.8451  -19.5393  -13.8646 C   0  0  0  0  0  0  0  0  0  0  0  0
   27.5448  -20.2709  -12.7303 C   0  0  0  0  0  0  0  0  0  0  0  0
   26.5153  -21.2834  -12.3204 C   0  0  0  0  0  0  0  0  0  0  0  0
   25.5527  -21.4237  -13.4948 C   0  0  1  0  0  0  0  0  0  0  0  0
   24.2523  -20.7507  -13.2257 C   0  0  0  0  0  0  0  0  0  0  0  0
   24.1100  -19.5078  -13.3504 O   0  0  0  0  0  0  0  0  0  0  0  0
   18.6928  -20.8354  -13.7411 N   0  0  0  0  0  0  0  0  0  0  0  0
   19.3825  -21.5011  -12.6952 C   0  0  0  0  0  0  0  0  0  0  0  0
   18.8437  -21.7085  -11.5815 O   0  0  0  0  0  0  0  0  0  0  0  0
   20.7551  -21.9542  -12.9275 C   0  0  0  0  0  0  0  0  0  0  0  0
   21.7973  -20.9041  -12.6115 C   0  0  2  0  0  0  0  0  0  0  0  0
   23.1032  -21.5095  -12.8094 N   0  0  0  0  0  0  0  0  0  0  0  0
   21.5855  -20.5727  -11.1540 C   0  0  0  0  0  0  0  0  0  0  0  0
   20.6669  -19.5780  -10.8630 O   0  0  0  0  0  0  0  0  0  0  0  0
   22.2083  -21.1676  -10.2663 O   0  0  0  0  0  0  0  0  0  0  0  0
  2  1  1  0
  3  2  2  0
  4  3  1  0
  5  4  2  0
  5 11  1  0
  6  5  1  0
  7  6  1  0
  7  8  1  6
  9 13  1  0
  9  7  1  0
 10  9  2  0
 11 12  2  0
 12  2  1  0
 13 17  1  0
 14 13  1  0
 14 15  1  0
 16 17  1  0
 16 15  1  0
 18 25  1  0
 17 18  1  1
 19 18  2  0
 21 20  1  0
 21 22  2  0
 23 21  1  0
 24 23  1  1
 24 25  1  0
 26 27  1  0
 26 24  1  0
 28 26  2  0
M  END
$$$$
