YPN.pdb
     RDKit          3D

 28 29  0  0  1  0  0  0  0  0999 V2000
   13.3418  -14.9897  -18.0587 O   0  0  0  0  0  0  0  0  0  0  0  0
   14.3917  -14.1606  -17.7143 C   0  0  0  0  0  0  0  0  0  0  0  0
   15.0957  -14.4291  -16.5541 C   0  0  0  0  0  0  0  0  0  0  0  0
   16.1416  -13.6304  -16.1805 C   0  0  0  0  0  0  0  0  0  0  0  0
   16.4745  -12.5607  -16.9808 C   0  0  0  0  0  0  0  0  0  0  0  0
   17.6074  -11.7048  -16.5652 C   0  0  0  0  0  0  0  0  0  0  0  0
   18.8559  -11.9872  -17.3836 C   0  0  2  0  0  0  0  0  0  0  0  0
   19.2823  -13.3384  -17.2833 N   0  0  0  0  0  0  0  0  0  0  0  0
   19.8743  -10.9937  -17.0198 C   0  0  0  0  0  0  0  0  0  0  0  0
   20.8317  -11.4259  -16.3039 O   0  0  0  0  0  0  0  0  0  0  0  0
   15.7946  -12.2647  -18.1426 C   0  0  0  0  0  0  0  0  0  0  0  0
   14.7381  -13.0834  -18.5066 C   0  0  0  0  0  0  0  0  0  0  0  0
   19.8838   -9.6372  -17.3857 N   0  0  0  0  0  0  0  0  0  0  0  0
   18.7817   -9.0065  -18.1483 C   0  0  0  0  0  0  0  0  0  0  0  0
   19.5852   -8.2921  -19.2233 C   0  0  0  0  0  0  0  0  0  0  0  0
   20.7494   -7.7515  -18.4452 C   0  0  0  0  0  0  0  0  0  0  0  0
   20.8267   -8.5652  -17.1578 C   0  0  1  0  0  0  0  0  0  0  0  0
   20.3411   -7.7887  -15.9842 C   0  0  0  0  0  0  0  0  0  0  0  0
   19.1173   -7.5777  -15.7885 O   0  0  0  0  0  0  0  0  0  0  0  0
   20.0745   -5.4449  -11.4273 N   0  0  0  0  0  0  0  0  0  0  0  0
   20.7774   -6.6763  -11.3789 C   0  0  0  0  0  0  0  0  0  0  0  0
   21.0493   -7.2346  -10.2889 O   0  0  0  0  0  0  0  0  0  0  0  0
   21.1924   -7.3051  -12.6341 C   0  0  0  0  0  0  0  0  0  0  0  0
   20.8346   -6.4947  -13.8606 C   0  0  2  0  0  0  0  0  0  0  0  0
   21.2671   -7.2482  -15.0251 N   0  0  0  0  0  0  0  0  0  0  0  0
   21.6335   -5.2205  -13.7310 C   0  0  0  0  0  0  0  0  0  0  0  0
   21.1377   -4.2525  -12.8734 O   0  0  0  0  0  0  0  0  0  0  0  0
   22.6825   -5.0564  -14.3655 O   0  0  0  0  0  0  0  0  0  0  0  0
  2  1  1  0
  3  2  2  0
  4  3  1  0
  5  4  2  0
  5 11  1  0
  6  5  1  0
  7  6  1  0
  7  8  1  1
  9 13  1  0
  9  7  1  0
 10  9  2  0
 11 12  2  0
 12  2  1  0
 13 17  1  0
 14 13  1  0
 14 15  1  0
 16 17  1  0
 16 15  1  0
 18 25  1  0
 17 18  1  1
 19 18  2  0
 21 20  1  0
 21 22  2  0
 23 21  1  0
 24 23  1  1
 24 25  1  0
 26 27  1  0
 26 24  1  0
 28 26  2  0
M  END
$$$$
