YPN.pdb
     RDKit          3D

 28 29  0  0  1  0  0  0  0  0999 V2000
   22.1064  -16.7511  -18.5189 O   0  0  0  0  0  0  0  0  0  0  0  0
   22.2535  -17.2594  -17.2429 C   0  0  0  0  0  0  0  0  0  0  0  0
   23.4695  -17.8141  -16.8861 C   0  0  0  0  0  0  0  0  0  0  0  0
   23.6528  -18.3275  -15.6314 C   0  0  0  0  0  0  0  0  0  0  0  0
   22.6058  -18.2793  -14.7386 C   0  0  0  0  0  0  0  0  0  0  0  0
   22.8172  -18.8380  -13.3851 C   0  0  0  0  0  0  0  0  0  0  0  0
   22.8555  -20.3567  -13.4028 C   0  0  2  0  0  0  0  0  0  0  0  0
   21.5861  -20.9334  -13.6737 N   0  0  0  0  0  0  0  0  0  0  0  0
   23.4828  -20.8117  -12.1554 C   0  0  0  0  0  0  0  0  0  0  0  0
   22.6860  -21.0367  -11.1907 O   0  0  0  0  0  0  0  0  0  0  0  0
   21.3818  -17.7340  -15.0609 C   0  0  0  0  0  0  0  0  0  0  0  0
   21.2127  -17.2185  -16.3355 C   0  0  0  0  0  0  0  0  0  0  0  0
   24.8558  -21.0165  -11.9389 N   0  0  0  0  0  0  0  0  0  0  0  0
   25.8884  -20.6256  -12.9262 C   0  0  0  0  0  0  0  0  0  0  0  0
   26.7022  -21.9090  -12.9730 C   0  0  0  0  0  0  0  0  0  0  0  0
   26.7493  -22.3099  -11.5273 C   0  0  0  0  0  0  0  0  0  0  0  0
   25.6029  -21.5791  -10.8365 C   0  0  1  0  0  0  0  0  0  0  0  0
   26.0925  -20.4442  -10.0067 C   0  0  0  0  0  0  0  0  0  0  0  0
   26.4951  -19.3705  -10.5222 O   0  0  0  0  0  0  0  0  0  0  0  0
   28.5026  -18.3969   -5.8566 N   0  0  0  0  0  0  0  0  0  0  0  0
   27.6523  -19.4217   -5.3674 C   0  0  0  0  0  0  0  0  0  0  0  0
   27.6221  -19.7245   -4.1503 O   0  0  0  0  0  0  0  0  0  0  0  0
   26.7922  -20.1391   -6.3102 C   0  0  0  0  0  0  0  0  0  0  0  0
   27.0331  -19.7584   -7.7545 C   0  0  2  0  0  0  0  0  0  0  0  0
   26.1210  -20.5402   -8.5717 N   0  0  0  0  0  0  0  0  0  0  0  0
   28.4623  -20.1597   -8.0288 C   0  0  0  0  0  0  0  0  0  0  0  0
   29.3974  -19.1409   -8.1049 O   0  0  0  0  0  0  0  0  0  0  0  0
   28.7755  -21.3470   -8.1777 O   0  0  0  0  0  0  0  0  0  0  0  0
  2  1  1  0
  3  2  2  0
  4  3  1  0
  5  4  2  0
  5 11  1  0
  6  5  1  0
  7  6  1  0
  7  8  1  1
  9 13  1  0
  9  7  1  0
 10  9  2  0
 11 12  2  0
 12  2  1  0
 13 17  1  0
 14 13  1  0
 14 15  1  0
 16 17  1  0
 16 15  1  0
 18 25  1  0
 17 18  1  1
 19 18  2  0
 21 20  1  0
 21 22  2  0
 23 21  1  0
 24 23  1  1
 24 25  1  0
 26 27  1  0
 26 24  1  0
 28 26  2  0
M  END
$$$$
