YPN.pdb
     RDKit          3D

 28 29  0  0  1  0  0  0  0  0999 V2000
   14.9120    2.4195  -19.9334 O   0  0  0  0  0  0  0  0  0  0  0  0
   15.4592    1.1990  -19.5884 C   0  0  0  0  0  0  0  0  0  0  0  0
   14.6079    0.1381  -19.3360 C   0  0  0  0  0  0  0  0  0  0  0  0
   15.1129   -1.0857  -18.9917 C   0  0  0  0  0  0  0  0  0  0  0  0
   16.4786   -1.2355  -18.9029 C   0  0  0  0  0  0  0  0  0  0  0  0
   17.0117   -2.5641  -18.5294 C   0  0  0  0  0  0  0  0  0  0  0  0
   17.5646   -3.3074  -19.7335 C   0  0  2  0  0  0  0  0  0  0  0  0
   16.5538   -3.6777  -20.6601 N   0  0  0  0  0  0  0  0  0  0  0  0
   18.3864   -4.4217  -19.2439 C   0  0  0  0  0  0  0  0  0  0  0  0
   17.8291   -5.5641  -19.2623 O   0  0  0  0  0  0  0  0  0  0  0  0
   17.3550   -0.2003  -19.1476 C   0  0  0  0  0  0  0  0  0  0  0  0
   16.8274    1.0325  -19.4951 C   0  0  0  0  0  0  0  0  0  0  0  0
   19.7056   -4.3384  -18.7677 N   0  0  0  0  0  0  0  0  0  0  0  0
   20.4545   -3.0620  -18.7052 C   0  0  0  0  0  0  0  0  0  0  0  0
   21.7569   -3.4926  -19.3609 C   0  0  0  0  0  0  0  0  0  0  0  0
   21.9776   -4.8540  -18.7685 C   0  0  0  0  0  0  0  0  0  0  0  0
   20.6248   -5.3240  -18.2444 C   0  0  1  0  0  0  0  0  0  0  0  0
   20.5537   -5.2531  -16.7591 C   0  0  0  0  0  0  0  0  0  0  0  0
   20.1301   -4.2304  -16.1631 O   0  0  0  0  0  0  0  0  0  0  0  0
   20.6896   -6.7274  -11.7756 N   0  0  0  0  0  0  0  0  0  0  0  0
   20.4228   -7.8624  -12.5839 C   0  0  0  0  0  0  0  0  0  0  0  0
   20.1154   -8.9694  -12.0802 O   0  0  0  0  0  0  0  0  0  0  0  0
   20.5099   -7.7321  -14.0395 C   0  0  0  0  0  0  0  0  0  0  0  0
   20.9016   -6.3443  -14.4973 C   0  0  2  0  0  0  0  0  0  0  0  0
   20.9722   -6.3652  -15.9483 N   0  0  0  0  0  0  0  0  0  0  0  0
   22.2713   -6.1124  -13.9064 C   0  0  0  0  0  0  0  0  0  0  0  0
   22.3277   -5.4463  -12.6935 O   0  0  0  0  0  0  0  0  0  0  0  0
   23.2918   -6.5029  -14.4859 O   0  0  0  0  0  0  0  0  0  0  0  0
  2  1  1  0
  3  2  2  0
  4  3  1  0
  5  4  2  0
  5 11  1  0
  6  5  1  0
  7  6  1  0
  7  8  1  6
  9 13  1  0
  9  7  1  0
 10  9  2  0
 11 12  2  0
 12  2  1  0
 13 17  1  0
 14 13  1  0
 14 15  1  0
 16 17  1  0
 16 15  1  0
 18 25  1  0
 17 18  1  1
 19 18  2  0
 21 20  1  0
 21 22  2  0
 23 21  1  0
 24 23  1  1
 24 25  1  0
 26 27  1  0
 26 24  1  0
 28 26  2  0
M  END
$$$$
