YPN.pdb
     RDKit          3D

 28 29  0  0  1  0  0  0  0  0999 V2000
   17.6977  -23.3811   -8.7116 O   0  0  0  0  0  0  0  0  0  0  0  0
   18.7460  -22.9812   -9.5174 C   0  0  0  0  0  0  0  0  0  0  0  0
   19.9778  -22.7440   -8.9341 C   0  0  0  0  0  0  0  0  0  0  0  0
   21.0395  -22.3467   -9.6998 C   0  0  0  0  0  0  0  0  0  0  0  0
   20.8543  -22.1896  -11.0551 C   0  0  0  0  0  0  0  0  0  0  0  0
   22.0106  -21.7595  -11.8716 C   0  0  0  0  0  0  0  0  0  0  0  0
   22.4819  -20.3665  -11.4901 C   0  0  2  0  0  0  0  0  0  0  0  0
   21.4374  -19.4048  -11.5302 N   0  0  0  0  0  0  0  0  0  0  0  0
   23.6506  -20.0380  -12.3165 C   0  0  0  0  0  0  0  0  0  0  0  0
   23.4742  -19.1177  -13.1755 O   0  0  0  0  0  0  0  0  0  0  0  0
   19.6413  -22.4173  -11.6684 C   0  0  0  0  0  0  0  0  0  0  0  0
   18.5764  -22.8191  -10.8788 C   0  0  0  0  0  0  0  0  0  0  0  0
   24.9189  -20.6378  -12.2427 N   0  0  0  0  0  0  0  0  0  0  0  0
   25.2012  -21.8092  -11.3812 C   0  0  0  0  0  0  0  0  0  0  0  0
   26.4692  -21.3273  -10.6947 C   0  0  0  0  0  0  0  0  0  0  0  0
   27.2099  -20.6659  -11.8203 C   0  0  0  0  0  0  0  0  0  0  0  0
   26.1766  -20.3592  -12.8990 C   0  0  1  0  0  0  0  0  0  0  0  0
   26.2911  -21.2918  -14.0537 C   0  0  0  0  0  0  0  0  0  0  0  0
   25.6654  -22.3816  -14.0911 O   0  0  0  0  0  0  0  0  0  0  0  0
   25.2547  -20.3277  -18.8765 N   0  0  0  0  0  0  0  0  0  0  0  0
   24.7861  -19.6279  -17.7349 C   0  0  0  0  0  0  0  0  0  0  0  0
   23.7909  -18.8664  -17.7943 O   0  0  0  0  0  0  0  0  0  0  0  0
   25.4848  -19.8027  -16.4603 C   0  0  0  0  0  0  0  0  0  0  0  0
   26.6082  -20.8141  -16.5234 C   0  0  2  0  0  0  0  0  0  0  0  0
   27.1311  -20.9726  -15.1771 N   0  0  0  0  0  0  0  0  0  0  0  0
   27.6464  -20.1862  -17.4214 C   0  0  0  0  0  0  0  0  0  0  0  0
   27.9530  -20.8583  -18.5930 O   0  0  0  0  0  0  0  0  0  0  0  0
   28.1937  -19.1195  -17.1173 O   0  0  0  0  0  0  0  0  0  0  0  0
  2  1  1  0
  3  2  2  0
  4  3  1  0
  5  4  2  0
  5 11  1  0
  6  5  1  0
  7  6  1  0
  7  8  1  6
  9 13  1  0
  9  7  1  0
 10  9  2  0
 11 12  2  0
 12  2  1  0
 13 17  1  0
 14 13  1  0
 14 15  1  0
 16 17  1  0
 16 15  1  0
 18 25  1  0
 17 18  1  6
 19 18  2  0
 21 20  1  0
 21 22  2  0
 23 21  1  0
 24 23  1  1
 24 25  1  0
 26 27  1  0
 26 24  1  0
 28 26  2  0
M  END
$$$$
