YPN.pdb
     RDKit          3D

 28 29  0  0  1  0  0  0  0  0999 V2000
   22.6015   -9.2144  -20.6792 O   0  0  0  0  0  0  0  0  0  0  0  0
   22.7633  -10.4655  -20.1164 C   0  0  0  0  0  0  0  0  0  0  0  0
   22.0740  -11.5329  -20.6634 C   0  0  0  0  0  0  0  0  0  0  0  0
   22.2088  -12.7868  -20.1331 C   0  0  0  0  0  0  0  0  0  0  0  0
   23.0409  -12.9598  -19.0499 C   0  0  0  0  0  0  0  0  0  0  0  0
   23.1777  -14.3207  -18.4861 C   0  0  0  0  0  0  0  0  0  0  0  0
   24.5218  -14.9399  -18.8299 C   0  0  2  0  0  0  0  0  0  0  0  0
   24.7857  -14.9356  -20.2255 N   0  0  0  0  0  0  0  0  0  0  0  0
   24.5899  -16.2630  -18.1965 C   0  0  0  0  0  0  0  0  0  0  0  0
   24.3400  -17.2497  -18.9581 O   0  0  0  0  0  0  0  0  0  0  0  0
   23.7421  -11.9188  -18.4805 C   0  0  0  0  0  0  0  0  0  0  0  0
   23.5944  -10.6556  -19.0294 C   0  0  0  0  0  0  0  0  0  0  0  0
   24.9008  -16.5289  -16.8524 N   0  0  0  0  0  0  0  0  0  0  0  0
   25.1307  -15.4563  -15.8570 C   0  0  0  0  0  0  0  0  0  0  0  0
   26.4266  -15.9521  -15.2355 C   0  0  0  0  0  0  0  0  0  0  0  0
   26.1851  -17.4298  -15.1300 C   0  0  0  0  0  0  0  0  0  0  0  0
   25.0594  -17.7566  -16.1054 C   0  0  1  0  0  0  0  0  0  0  0  0
   23.7749  -18.0156  -15.3989 C   0  0  0  0  0  0  0  0  0  0  0  0
   23.0893  -17.0844  -14.9056 O   0  0  0  0  0  0  0  0  0  0  0  0
   19.5857  -20.5418  -13.6333 N   0  0  0  0  0  0  0  0  0  0  0  0
   20.0061  -21.1025  -14.8668 C   0  0  0  0  0  0  0  0  0  0  0  0
   19.3035  -21.9418  -15.4797 O   0  0  0  0  0  0  0  0  0  0  0  0
   21.2911  -20.6878  -15.4325 C   0  0  0  0  0  0  0  0  0  0  0  0
   22.0087  -19.6490  -14.5988 C   0  0  2  0  0  0  0  0  0  0  0  0
   23.2707  -19.3553  -15.2559 N   0  0  0  0  0  0  0  0  0  0  0  0
   22.2509  -20.3187  -13.2678 C   0  0  0  0  0  0  0  0  0  0  0  0
   23.5474  -20.7212  -12.9937 O   0  0  0  0  0  0  0  0  0  0  0  0
   21.3276  -20.4959  -12.4640 O   0  0  0  0  0  0  0  0  0  0  0  0
  2  1  1  0
  3  2  2  0
  4  3  1  0
  5  4  2  0
  5 11  1  0
  6  5  1  0
  7  6  1  0
  7  8  1  6
  9 13  1  0
  9  7  1  0
 10  9  2  0
 11 12  2  0
 12  2  1  0
 13 17  1  0
 14 13  1  0
 14 15  1  0
 16 17  1  0
 16 15  1  0
 18 25  1  0
 17 18  1  1
 19 18  2  0
 21 20  1  0
 21 22  2  0
 23 21  1  0
 24 23  1  6
 24 25  1  0
 26 27  1  0
 26 24  1  0
 28 26  2  0
M  END
$$$$
