YPN.pdb
     RDKit          3D

 28 29  0  0  1  0  0  0  0  0999 V2000
   16.3197  -22.9709  -14.3741 O   0  0  0  0  0  0  0  0  0  0  0  0
   17.6476  -22.5917  -14.4081 C   0  0  0  0  0  0  0  0  0  0  0  0
   18.4553  -22.9076  -13.3304 C   0  0  0  0  0  0  0  0  0  0  0  0
   19.7753  -22.5486  -13.3280 C   0  0  0  0  0  0  0  0  0  0  0  0
   20.2773  -21.8703  -14.4159 C   0  0  0  0  0  0  0  0  0  0  0  0
   21.7064  -21.4878  -14.4006 C   0  0  0  0  0  0  0  0  0  0  0  0
   21.9239  -20.1512  -13.7119 C   0  0  2  0  0  0  0  0  0  0  0  0
   21.2100  -19.0923  -14.3335 N   0  0  0  0  0  0  0  0  0  0  0  0
   23.3707  -19.9293  -13.5933 C   0  0  0  0  0  0  0  0  0  0  0  0
   23.8578  -19.0543  -14.3763 O   0  0  0  0  0  0  0  0  0  0  0  0
   19.5010  -21.5398  -15.5057 C   0  0  0  0  0  0  0  0  0  0  0  0
   18.1663  -21.9107  -15.4923 C   0  0  0  0  0  0  0  0  0  0  0  0
   24.2450  -20.5841  -12.7096 N   0  0  0  0  0  0  0  0  0  0  0  0
   23.8192  -21.7173  -11.8561 C   0  0  0  0  0  0  0  0  0  0  0  0
   24.3774  -21.2590  -10.5182 C   0  0  0  0  0  0  0  0  0  0  0  0
   25.7147  -20.6982  -10.9056 C   0  0  0  0  0  0  0  0  0  0  0  0
   25.6456  -20.4036  -12.4002 C   0  0  1  0  0  0  0  0  0  0  0  0
   26.4087  -21.4041  -13.1957 C   0  0  0  0  0  0  0  0  0  0  0  0
   26.4914  -22.6082  -12.8437 O   0  0  0  0  0  0  0  0  0  0  0  0
   26.5780  -24.9662  -14.6168 N   0  0  0  0  0  0  0  0  0  0  0  0
   25.9153  -23.7369  -14.8666 C   0  0  0  0  0  0  0  0  0  0  0  0
   24.8662  -23.4207  -14.2559 O   0  0  0  0  0  0  0  0  0  0  0  0
   26.4741  -22.8202  -15.8620 C   0  0  0  0  0  0  0  0  0  0  0  0
   27.6285  -21.9941  -15.3386 C   0  0  2  0  0  0  0  0  0  0  0  0
   27.0840  -21.0213  -14.4068 N   0  0  0  0  0  0  0  0  0  0  0  0
   28.1927  -21.3003  -16.5548 C   0  0  0  0  0  0  0  0  0  0  0  0
   28.9629  -22.0662  -17.4141 O   0  0  0  0  0  0  0  0  0  0  0  0
   27.9722  -20.1019  -16.7668 O   0  0  0  0  0  0  0  0  0  0  0  0
  2  1  1  0
  3  2  2  0
  4  3  1  0
  5  4  2  0
  5 11  1  0
  6  5  1  0
  7  6  1  0
  7  8  1  6
  9 13  1  0
  9  7  1  0
 10  9  2  0
 11 12  2  0
 12  2  1  0
 13 17  1  0
 14 13  1  0
 14 15  1  0
 16 17  1  0
 16 15  1  0
 18 25  1  0
 17 18  1  6
 19 18  2  0
 21 20  1  0
 21 22  2  0
 23 21  1  0
 24 23  1  6
 24 25  1  0
 26 27  1  0
 26 24  1  0
 28 26  2  0
M  END
$$$$
