YPN.pdb
     RDKit          3D

 28 29  0  0  1  0  0  0  0  0999 V2000
   29.5064  -14.9157  -20.0524 O   0  0  0  0  0  0  0  0  0  0  0  0
   28.8173  -15.7530  -19.1967 C   0  0  0  0  0  0  0  0  0  0  0  0
   29.4676  -16.2363  -18.0754 C   0  0  0  0  0  0  0  0  0  0  0  0
   28.8177  -17.0678  -17.2049 C   0  0  0  0  0  0  0  0  0  0  0  0
   27.5106  -17.4098  -17.4694 C   0  0  0  0  0  0  0  0  0  0  0  0
   26.8194  -18.3098  -16.5202 C   0  0  0  0  0  0  0  0  0  0  0  0
   27.3184  -19.7401  -16.6358 C   0  0  2  0  0  0  0  0  0  0  0  0
   27.0559  -20.3104  -17.9099 N   0  0  0  0  0  0  0  0  0  0  0  0
   26.7842  -20.5028  -15.5002 C   0  0  0  0  0  0  0  0  0  0  0  0
   25.7510  -21.2016  -15.7457 O   0  0  0  0  0  0  0  0  0  0  0  0
   26.8330  -16.9466  -18.5766 C   0  0  0  0  0  0  0  0  0  0  0  0
   27.5055  -16.1055  -19.4481 C   0  0  0  0  0  0  0  0  0  0  0  0
   27.3034  -20.5283  -14.1950 N   0  0  0  0  0  0  0  0  0  0  0  0
   28.3620  -19.5991  -13.7367 C   0  0  0  0  0  0  0  0  0  0  0  0
   29.3131  -20.5900  -13.0847 C   0  0  0  0  0  0  0  0  0  0  0  0
   28.3702  -21.5180  -12.3756 C   0  0  0  0  0  0  0  0  0  0  0  0
   27.0072  -21.3402  -13.0359 C   0  0  1  0  0  0  0  0  0  0  0  0
   26.0744  -20.5620  -12.1753 C   0  0  0  0  0  0  0  0  0  0  0  0
   26.2199  -19.3278  -11.9858 O   0  0  0  0  0  0  0  0  0  0  0  0
   22.0209  -21.6968  -13.2264 N   0  0  0  0  0  0  0  0  0  0  0  0
   22.1710  -20.6609  -12.2688 C   0  0  0  0  0  0  0  0  0  0  0  0
   21.8988  -19.4677  -12.5443 O   0  0  0  0  0  0  0  0  0  0  0  0
   22.6554  -20.9989  -10.9292 C   0  0  0  0  0  0  0  0  0  0  0  0
   24.0521  -20.4900  -10.6480 C   0  0  2  0  0  0  0  0  0  0  0  0
   24.9637  -21.2046  -11.5251 N   0  0  0  0  0  0  0  0  0  0  0  0
   24.3149  -20.8530   -9.2064 C   0  0  0  0  0  0  0  0  0  0  0  0
   25.2057  -21.8870   -8.9712 O   0  0  0  0  0  0  0  0  0  0  0  0
   23.7557  -20.2490   -8.2831 O   0  0  0  0  0  0  0  0  0  0  0  0
  2  1  1  0
  3  2  2  0
  4  3  1  0
  5  4  2  0
  5 11  1  0
  6  5  1  0
  7  6  1  0
  7  8  1  6
  9 13  1  0
  9  7  1  0
 10  9  2  0
 11 12  2  0
 12  2  1  0
 13 17  1  0
 14 13  1  0
 14 15  1  0
 16 17  1  0
 16 15  1  0
 18 25  1  0
 17 18  1  1
 19 18  2  0
 21 20  1  0
 21 22  2  0
 23 21  1  0
 24 23  1  6
 24 25  1  0
 26 27  1  0
 26 24  1  0
 28 26  2  0
M  END
$$$$
