YPN.pdb
     RDKit          3D

 28 29  0  0  1  0  0  0  0  0999 V2000
   23.8138  -27.1755  -15.6841 O   0  0  0  0  0  0  0  0  0  0  0  0
   23.9450  -25.8129  -15.4993 C   0  0  0  0  0  0  0  0  0  0  0  0
   22.8011  -25.0534  -15.3304 C   0  0  0  0  0  0  0  0  0  0  0  0
   22.8912  -23.7010  -15.1449 C   0  0  0  0  0  0  0  0  0  0  0  0
   24.1383  -23.1180  -15.1303 C   0  0  0  0  0  0  0  0  0  0  0  0
   24.2218  -21.6547  -14.9289 C   0  0  0  0  0  0  0  0  0  0  0  0
   24.8098  -21.3059  -13.5722 C   0  0  2  0  0  0  0  0  0  0  0  0
   24.1060  -21.9127  -12.4980 N   0  0  0  0  0  0  0  0  0  0  0  0
   24.9207  -19.8441  -13.4853 C   0  0  0  0  0  0  0  0  0  0  0  0
   24.1244  -19.2808  -12.6701 O   0  0  0  0  0  0  0  0  0  0  0  0
   25.2978  -23.8445  -15.2954 C   0  0  0  0  0  0  0  0  0  0  0  0
   25.1891  -25.2128  -15.4822 C   0  0  0  0  0  0  0  0  0  0  0  0
   25.8104  -19.0311  -14.2073 N   0  0  0  0  0  0  0  0  0  0  0  0
   26.7703  -19.5761  -15.1951 C   0  0  0  0  0  0  0  0  0  0  0  0
   28.0394  -18.8744  -14.7387 C   0  0  0  0  0  0  0  0  0  0  0  0
   27.5452  -17.4917  -14.4273 C   0  0  0  0  0  0  0  0  0  0  0  0
   26.0371  -17.6035  -14.2313 C   0  0  1  0  0  0  0  0  0  0  0  0
   25.2874  -17.0543  -15.3944 C   0  0  0  0  0  0  0  0  0  0  0  0
   24.4159  -17.7281  -16.0001 O   0  0  0  0  0  0  0  0  0  0  0  0
   21.3446  -14.5290  -16.8218 N   0  0  0  0  0  0  0  0  0  0  0  0
   22.3103  -13.8715  -16.0170 C   0  0  0  0  0  0  0  0  0  0  0  0
   22.2205  -12.6488  -15.7510 O   0  0  0  0  0  0  0  0  0  0  0  0
   23.4358  -14.6436  -15.4875 C   0  0  0  0  0  0  0  0  0  0  0  0
   24.5157  -14.9135  -16.5121 C   0  0  2  0  0  0  0  0  0  0  0  0
   25.5388  -15.7195  -15.8683 N   0  0  0  0  0  0  0  0  0  0  0  0
   25.0633  -13.5523  -16.8673 C   0  0  0  0  0  0  0  0  0  0  0  0
   25.8897  -12.9451  -15.9364 O   0  0  0  0  0  0  0  0  0  0  0  0
   24.7816  -13.0109  -17.9431 O   0  0  0  0  0  0  0  0  0  0  0  0
  2  1  1  0
  3  2  2  0
  4  3  1  0
  5  4  2  0
  5 11  1  0
  6  5  1  0
  7  6  1  0
  7  8  1  1
  9 13  1  0
  9  7  1  0
 10  9  2  0
 11 12  2  0
 12  2  1  0
 13 17  1  0
 14 13  1  0
 14 15  1  0
 16 17  1  0
 16 15  1  0
 18 25  1  0
 17 18  1  6
 19 18  2  0
 21 20  1  0
 21 22  2  0
 23 21  1  0
 24 23  1  1
 24 25  1  0
 26 27  1  0
 26 24  1  0
 28 26  2  0
M  END
$$$$
