YPN.pdb
     RDKit          3D

 28 29  0  0  1  0  0  0  0  0999 V2000
   47.6325   -1.5619   -6.5667 O   0  0  0  0  0  0  0  0  0  0  0  0
   46.9635   -2.6732   -7.0419 C   0  0  0  0  0  0  0  0  0  0  0  0
   46.6553   -3.6906   -6.1565 C   0  0  0  0  0  0  0  0  0  0  0  0
   45.9936   -4.8066   -6.5902 C   0  0  0  0  0  0  0  0  0  0  0  0
   45.6440   -4.8926   -7.9191 C   0  0  0  0  0  0  0  0  0  0  0  0
   44.9289   -6.1047   -8.3751 C   0  0  0  0  0  0  0  0  0  0  0  0
   45.8204   -7.3341   -8.3314 C   0  0  2  0  0  0  0  0  0  0  0  0
   46.8705   -7.2832   -9.2865 N   0  0  0  0  0  0  0  0  0  0  0  0
   44.9632   -8.5228   -8.4246 C   0  0  0  0  0  0  0  0  0  0  0  0
   44.7906   -8.9845   -9.5964 O   0  0  0  0  0  0  0  0  0  0  0  0
   45.9354   -3.8980   -8.8277 C   0  0  0  0  0  0  0  0  0  0  0  0
   46.6059   -2.7745   -8.3723 C   0  0  0  0  0  0  0  0  0  0  0  0
   44.3312   -9.1808   -7.3562 N   0  0  0  0  0  0  0  0  0  0  0  0
   44.3391   -8.6508   -5.9730 C   0  0  0  0  0  0  0  0  0  0  0  0
   44.7531   -9.9033   -5.2172 C   0  0  0  0  0  0  0  0  0  0  0  0
   43.9619  -10.9723   -5.9133 C   0  0  0  0  0  0  0  0  0  0  0  0
   43.5647  -10.4037   -7.2713 C   0  0  1  0  0  0  0  0  0  0  0  0
   42.1246  -10.0289   -7.3127 C   0  0  0  0  0  0  0  0  0  0  0  0
   41.7171   -8.9132   -6.9006 O   0  0  0  0  0  0  0  0  0  0  0  0
   37.0075  -12.3914   -5.8721 N   0  0  0  0  0  0  0  0  0  0  0  0
   37.6101  -11.7773   -7.0002 C   0  0  0  0  0  0  0  0  0  0  0  0
   36.9363  -11.1143   -7.8248 O   0  0  0  0  0  0  0  0  0  0  0  0
   39.0528  -11.9247   -7.2009 C   0  0  0  0  0  0  0  0  0  0  0  0
   39.7141  -10.6805   -7.7519 C   0  0  2  0  0  0  0  0  0  0  0  0
   41.1411  -10.9416   -7.8316 N   0  0  0  0  0  0  0  0  0  0  0  0
   39.4314   -9.6055   -6.7305 C   0  0  0  0  0  0  0  0  0  0  0  0
   39.9637   -9.7858   -5.4647 O   0  0  0  0  0  0  0  0  0  0  0  0
   38.7541   -8.6116   -7.0194 O   0  0  0  0  0  0  0  0  0  0  0  0
  2  1  1  0
  3  2  2  0
  4  3  1  0
  5  4  2  0
  5 11  1  0
  6  5  1  0
  7  6  1  0
  7  8  1  6
  9 13  1  0
  9  7  1  0
 10  9  2  0
 11 12  2  0
 12  2  1  0
 13 17  1  0
 14 13  1  0
 14 15  1  0
 16 17  1  0
 16 15  1  0
 18 25  1  0
 17 18  1  1
 19 18  2  0
 21 20  1  0
 21 22  2  0
 23 21  1  0
 24 23  1  1
 24 25  1  0
 26 27  1  0
 26 24  1  0
 28 26  2  0
M  END
$$$$
