YPN.pdb
     RDKit          3D

 28 29  0  0  1  0  0  0  0  0999 V2000
   27.2409  -11.0244  -17.6115 O   0  0  0  0  0  0  0  0  0  0  0  0
   26.7688  -12.2478  -17.1771 C   0  0  0  0  0  0  0  0  0  0  0  0
   25.5507  -12.6963  -17.6552 C   0  0  0  0  0  0  0  0  0  0  0  0
   25.0507  -13.9028  -17.2477 C   0  0  0  0  0  0  0  0  0  0  0  0
   25.7834  -14.6545  -16.3569 C   0  0  0  0  0  0  0  0  0  0  0  0
   25.2313  -15.9571  -15.9243 C   0  0  0  0  0  0  0  0  0  0  0  0
   25.7711  -17.1035  -16.7624 C   0  0  2  0  0  0  0  0  0  0  0  0
   25.4052  -17.0009  -18.1310 N   0  0  0  0  0  0  0  0  0  0  0  0
   25.3826  -18.3636  -16.1161 C   0  0  0  0  0  0  0  0  0  0  0  0
   24.3301  -18.9122  -16.5713 O   0  0  0  0  0  0  0  0  0  0  0  0
   26.9999  -14.2379  -15.8609 C   0  0  0  0  0  0  0  0  0  0  0  0
   27.4920  -13.0139  -16.2836 C   0  0  0  0  0  0  0  0  0  0  0  0
   26.0572  -19.0027  -15.0623 N   0  0  0  0  0  0  0  0  0  0  0  0
   27.2362  -18.4090  -14.3903 C   0  0  0  0  0  0  0  0  0  0  0  0
   28.1784  -19.6019  -14.4168 C   0  0  0  0  0  0  0  0  0  0  0  0
   27.2600  -20.7415  -14.0837 C   0  0  0  0  0  0  0  0  0  0  0  0
   25.8439  -20.2581  -14.3778 C   0  0  1  0  0  0  0  0  0  0  0  0
   25.0918  -19.9603  -13.1281 C   0  0  0  0  0  0  0  0  0  0  0  0
   25.4568  -19.0573  -12.3331 O   0  0  0  0  0  0  0  0  0  0  0  0
   24.0949  -25.0509  -11.2873 N   0  0  0  0  0  0  0  0  0  0  0  0
   24.8498  -23.8703  -11.0657 C   0  0  0  0  0  0  0  0  0  0  0  0
   25.5494  -23.7222  -10.0350 O   0  0  0  0  0  0  0  0  0  0  0  0
   24.8071  -22.8034  -12.0673 C   0  0  0  0  0  0  0  0  0  0  0  0
   23.8801  -21.6666  -11.6969 C   0  0  2  0  0  0  0  0  0  0  0  0
   23.9095  -20.7048  -12.7855 N   0  0  0  0  0  0  0  0  0  0  0  0
   24.4801  -21.0673  -10.4480 C   0  0  0  0  0  0  0  0  0  0  0  0
   23.6005  -20.6915   -9.4463 O   0  0  0  0  0  0  0  0  0  0  0  0
   25.7030  -20.9221  -10.3326 O   0  0  0  0  0  0  0  0  0  0  0  0
  2  1  1  0
  3  2  2  0
  4  3  1  0
  5  4  2  0
  5 11  1  0
  6  5  1  0
  7  6  1  0
  7  8  1  6
  9 13  1  0
  9  7  1  0
 10  9  2  0
 11 12  2  0
 12  2  1  0
 13 17  1  0
 14 13  1  0
 14 15  1  0
 16 17  1  0
 16 15  1  0
 18 25  1  0
 17 18  1  1
 19 18  2  0
 21 20  1  0
 21 22  2  0
 23 21  1  0
 24 23  1  6
 24 25  1  0
 26 27  1  0
 26 24  1  0
 28 26  2  0
M  END
$$$$
