YPN.pdb
     RDKit          3D

 28 29  0  0  1  0  0  0  0  0999 V2000
   20.2730  -13.9818  -22.8766 O   0  0  0  0  0  0  0  0  0  0  0  0
   20.2766  -13.0999  -21.8134 C   0  0  0  0  0  0  0  0  0  0  0  0
   21.2739  -13.2129  -20.8613 C   0  0  0  0  0  0  0  0  0  0  0  0
   21.3103  -12.3576  -19.7943 C   0  0  0  0  0  0  0  0  0  0  0  0
   20.3378  -11.3886  -19.6911 C   0  0  0  0  0  0  0  0  0  0  0  0
   20.3885  -10.4702  -18.5324 C   0  0  0  0  0  0  0  0  0  0  0  0
   19.9752  -11.1642  -17.2457 C   0  0  2  0  0  0  0  0  0  0  0  0
   18.6742  -11.7290  -17.3216 N   0  0  0  0  0  0  0  0  0  0  0  0
   20.1718  -10.2226  -16.1360 C   0  0  0  0  0  0  0  0  0  0  0  0
   19.1148   -9.6829  -15.6804 O   0  0  0  0  0  0  0  0  0  0  0  0
   19.3303  -11.2480  -20.6211 C   0  0  0  0  0  0  0  0  0  0  0  0
   19.3079  -12.1221  -21.6956 C   0  0  0  0  0  0  0  0  0  0  0  0
   21.3981   -9.8735  -15.5461 N   0  0  0  0  0  0  0  0  0  0  0  0
   22.7024  -10.3217  -16.0866 C   0  0  0  0  0  0  0  0  0  0  0  0
   23.3509  -10.8328  -14.8100 C   0  0  0  0  0  0  0  0  0  0  0  0
   22.9470   -9.7910  -13.8077 C   0  0  0  0  0  0  0  0  0  0  0  0
   21.7403   -9.0674  -14.3957 C   0  0  1  0  0  0  0  0  0  0  0  0
   22.0993   -7.7115  -14.8945 C   0  0  0  0  0  0  0  0  0  0  0  0
   22.4234   -7.5093  -16.0922 O   0  0  0  0  0  0  0  0  0  0  0  0
   20.8572   -3.4140  -17.1357 N   0  0  0  0  0  0  0  0  0  0  0  0
   20.5641   -3.6689  -15.7712 C   0  0  0  0  0  0  0  0  0  0  0  0
   20.1521   -2.7626  -15.0079 O   0  0  0  0  0  0  0  0  0  0  0  0
   20.7490   -5.0235  -15.2478 C   0  0  0  0  0  0  0  0  0  0  0  0
   22.0513   -5.2075  -14.5001 C   0  0  2  0  0  0  0  0  0  0  0  0
   22.0868   -6.5755  -14.0119 N   0  0  0  0  0  0  0  0  0  0  0  0
   21.9768   -4.2378  -13.3455 C   0  0  0  0  0  0  0  0  0  0  0  0
   22.7525   -3.0939  -13.4347 O   0  0  0  0  0  0  0  0  0  0  0  0
   21.2531   -4.4624  -12.3679 O   0  0  0  0  0  0  0  0  0  0  0  0
  2  1  1  0
  3  2  2  0
  4  3  1  0
  5  4  2  0
  5 11  1  0
  6  5  1  0
  7  6  1  0
  7  8  1  6
  9 13  1  0
  9  7  1  0
 10  9  2  0
 11 12  2  0
 12  2  1  0
 13 17  1  0
 14 13  1  0
 14 15  1  0
 16 17  1  0
 16 15  1  0
 18 25  1  0
 17 18  1  6
 19 18  2  0
 21 20  1  0
 21 22  2  0
 23 21  1  0
 24 23  1  6
 24 25  1  0
 26 27  1  0
 26 24  1  0
 28 26  2  0
M  END
$$$$
