YPN.pdb
     RDKit          3D

 28 29  0  0  1  0  0  0  0  0999 V2000
   22.2607  -34.8519   -9.1174 O   0  0  0  0  0  0  0  0  0  0  0  0
   21.7525  -33.7095   -9.7046 C   0  0  0  0  0  0  0  0  0  0  0  0
   22.6312  -32.8237  -10.3019 C   0  0  0  0  0  0  0  0  0  0  0  0
   22.1651  -31.6817  -10.8935 C   0  0  0  0  0  0  0  0  0  0  0  0
   20.8103  -31.4367  -10.8804 C   0  0  0  0  0  0  0  0  0  0  0  0
   20.3194  -30.1981  -11.5236 C   0  0  0  0  0  0  0  0  0  0  0  0
   20.4930  -28.9884  -10.6211 C   0  0  2  0  0  0  0  0  0  0  0  0
   19.8870  -29.1631   -9.3484 N   0  0  0  0  0  0  0  0  0  0  0  0
   20.0417  -27.8009  -11.3579 C   0  0  0  0  0  0  0  0  0  0  0  0
   19.0215  -27.2128  -10.8791 O   0  0  0  0  0  0  0  0  0  0  0  0
   19.9074  -32.2974  -10.2945 C   0  0  0  0  0  0  0  0  0  0  0  0
   20.3958  -33.4493   -9.6998 C   0  0  0  0  0  0  0  0  0  0  0  0
   20.6256  -27.2689  -12.5197 N   0  0  0  0  0  0  0  0  0  0  0  0
   21.6391  -28.0015  -13.3135 C   0  0  0  0  0  0  0  0  0  0  0  0
   22.6874  -26.9111  -13.4664 C   0  0  0  0  0  0  0  0  0  0  0  0
   21.8472  -25.6950  -13.7274 C   0  0  0  0  0  0  0  0  0  0  0  0
   20.4441  -26.0211  -13.2270 C   0  0  1  0  0  0  0  0  0  0  0  0
   19.5038  -26.2809  -14.3516 C   0  0  0  0  0  0  0  0  0  0  0  0
   19.4010  -27.4161  -14.8819 O   0  0  0  0  0  0  0  0  0  0  0  0
   14.5170  -25.1949  -14.2459 N   0  0  0  0  0  0  0  0  0  0  0  0
   15.3722  -25.6156  -13.1950 C   0  0  0  0  0  0  0  0  0  0  0  0
   14.9151  -26.0352  -12.1047 O   0  0  0  0  0  0  0  0  0  0  0  0
   16.8215  -25.5561  -13.3939 C   0  0  0  0  0  0  0  0  0  0  0  0
   17.2217  -25.2841  -14.8273 C   0  0  2  0  0  0  0  0  0  0  0  0
   18.6728  -25.2292  -14.8741 N   0  0  0  0  0  0  0  0  0  0  0  0
   16.6328  -23.9310  -15.1451 C   0  0  0  0  0  0  0  0  0  0  0  0
   15.6409  -23.8885  -16.1108 O   0  0  0  0  0  0  0  0  0  0  0  0
   17.0240  -22.9113  -14.5645 O   0  0  0  0  0  0  0  0  0  0  0  0
  2  1  1  0
  3  2  2  0
  4  3  1  0
  5  4  2  0
  5 11  1  0
  6  5  1  0
  7  6  1  0
  7  8  1  1
  9 13  1  0
  9  7  1  0
 10  9  2  0
 11 12  2  0
 12  2  1  0
 13 17  1  0
 14 13  1  0
 14 15  1  0
 16 17  1  0
 16 15  1  0
 18 25  1  0
 17 18  1  6
 19 18  2  0
 21 20  1  0
 21 22  2  0
 23 21  1  0
 24 23  1  1
 24 25  1  0
 26 27  1  0
 26 24  1  0
 28 26  2  0
M  END
$$$$
