YPN.pdb
     RDKit          3D

 28 29  0  0  1  0  0  0  0  0999 V2000
   15.3742  -15.4391  -19.7444 O   0  0  0  0  0  0  0  0  0  0  0  0
   16.2213  -14.5685  -19.0867 C   0  0  0  0  0  0  0  0  0  0  0  0
   16.8734  -15.0100  -17.9493 C   0  0  0  0  0  0  0  0  0  0  0  0
   17.7200  -14.1765  -17.2712 C   0  0  0  0  0  0  0  0  0  0  0  0
   17.9063  -12.8969  -17.7440 C   0  0  0  0  0  0  0  0  0  0  0  0
   18.8243  -12.0057  -17.0013 C   0  0  0  0  0  0  0  0  0  0  0  0
   20.2464  -12.0974  -17.5280 C   0  0  2  0  0  0  0  0  0  0  0  0
   20.7841  -13.4082  -17.4277 N   0  0  0  0  0  0  0  0  0  0  0  0
   21.0445  -11.0547  -16.8704 C   0  0  0  0  0  0  0  0  0  0  0  0
   21.5476  -11.3748  -15.7476 O   0  0  0  0  0  0  0  0  0  0  0  0
   17.2728  -12.4248  -18.8734 C   0  0  0  0  0  0  0  0  0  0  0  0
   16.4188  -13.2816  -19.5484 C   0  0  0  0  0  0  0  0  0  0  0  0
   21.2962   -9.7629  -17.3622 N   0  0  0  0  0  0  0  0  0  0  0  0
   20.6684   -9.2409  -18.5981 C   0  0  0  0  0  0  0  0  0  0  0  0
   21.8980   -8.6872  -19.3002 C   0  0  0  0  0  0  0  0  0  0  0  0
   22.6501   -8.0475  -18.1697 C   0  0  0  0  0  0  0  0  0  0  0  0
   22.1179   -8.6732  -16.8850 C   0  0  1  0  0  0  0  0  0  0  0  0
   21.2282   -7.7381  -16.1432 C   0  0  0  0  0  0  0  0  0  0  0  0
   20.0707   -7.4615  -16.5484 O   0  0  0  0  0  0  0  0  0  0  0  0
   19.0851   -8.2778  -13.5819 N   0  0  0  0  0  0  0  0  0  0  0  0
   19.8717   -7.8103  -12.4978 C   0  0  0  0  0  0  0  0  0  0  0  0
   19.7784   -8.3152  -11.3532 O   0  0  0  0  0  0  0  0  0  0  0  0
   20.8127   -6.7124  -12.7268 C   0  0  0  0  0  0  0  0  0  0  0  0
   20.8231   -6.2166  -14.1561 C   0  0  2  0  0  0  0  0  0  0  0  0
   21.6692   -7.1133  -14.9248 N   0  0  0  0  0  0  0  0  0  0  0  0
   21.4404   -4.8408  -14.0857 C   0  0  0  0  0  0  0  0  0  0  0  0
   20.6295   -3.8104  -13.6398 O   0  0  0  0  0  0  0  0  0  0  0  0
   22.6179   -4.6511  -14.4132 O   0  0  0  0  0  0  0  0  0  0  0  0
  2  1  1  0
  3  2  2  0
  4  3  1  0
  5  4  2  0
  5 11  1  0
  6  5  1  0
  7  6  1  0
  7  8  1  1
  9 13  1  0
  9  7  1  0
 10  9  2  0
 11 12  2  0
 12  2  1  0
 13 17  1  0
 14 13  1  0
 14 15  1  0
 16 17  1  0
 16 15  1  0
 18 25  1  0
 17 18  1  6
 19 18  2  0
 21 20  1  0
 21 22  2  0
 23 21  1  0
 24 23  1  1
 24 25  1  0
 26 27  1  0
 26 24  1  0
 28 26  2  0
M  END
$$$$
