YPN.pdb
     RDKit          3D

 28 29  0  0  1  0  0  0  0  0999 V2000
   16.8413  -20.0896  -16.6505 O   0  0  0  0  0  0  0  0  0  0  0  0
   16.8425  -20.9053  -15.5358 C   0  0  0  0  0  0  0  0  0  0  0  0
   15.6665  -21.0560  -14.8230 C   0  0  0  0  0  0  0  0  0  0  0  0
   15.6289  -21.8555  -13.7137 C   0  0  0  0  0  0  0  0  0  0  0  0
   16.7810  -22.5021  -13.3261 C   0  0  0  0  0  0  0  0  0  0  0  0
   16.7267  -23.3636  -12.1246 C   0  0  0  0  0  0  0  0  0  0  0  0
   16.6864  -24.8376  -12.4904 C   0  0  2  0  0  0  0  0  0  0  0  0
   15.5991  -25.1602  -13.3455 N   0  0  0  0  0  0  0  0  0  0  0  0
   16.7420  -25.6178  -11.2475 C   0  0  0  0  0  0  0  0  0  0  0  0
   15.6179  -25.8945  -10.7223 O   0  0  0  0  0  0  0  0  0  0  0  0
   17.9691  -22.3743  -14.0128 C   0  0  0  0  0  0  0  0  0  0  0  0
   17.9902  -21.5609  -15.1340 C   0  0  0  0  0  0  0  0  0  0  0  0
   17.9028  -26.0758  -10.6019 N   0  0  0  0  0  0  0  0  0  0  0  0
   19.2658  -25.7095  -11.0514 C   0  0  0  0  0  0  0  0  0  0  0  0
   19.9124  -27.0854  -11.0680 C   0  0  0  0  0  0  0  0  0  0  0  0
   19.3663  -27.7099   -9.8171 C   0  0  0  0  0  0  0  0  0  0  0  0
   18.1164  -26.9186   -9.4468 C   0  0  1  0  0  0  0  0  0  0  0  0
   18.3553  -26.0231   -8.2818 C   0  0  0  0  0  0  0  0  0  0  0  0
   18.5582  -24.7905   -8.4229 O   0  0  0  0  0  0  0  0  0  0  0  0
   16.9630  -24.1396   -3.7974 N   0  0  0  0  0  0  0  0  0  0  0  0
   16.0655  -24.5112   -4.8314 C   0  0  0  0  0  0  0  0  0  0  0  0
   14.8623  -24.1564   -4.8152 O   0  0  0  0  0  0  0  0  0  0  0  0
   16.5613  -25.3279   -5.9406 C   0  0  0  0  0  0  0  0  0  0  0  0
   18.0097  -25.7370   -5.7865 C   0  0  2  0  0  0  0  0  0  0  0  0
   18.3620  -26.5452   -6.9413 N   0  0  0  0  0  0  0  0  0  0  0  0
   18.0461  -26.5710   -4.5287 C   0  0  0  0  0  0  0  0  0  0  0  0
   18.7579  -26.0598   -3.4563 O   0  0  0  0  0  0  0  0  0  0  0  0
   17.4639  -27.6606   -4.4672 O   0  0  0  0  0  0  0  0  0  0  0  0
  2  1  1  0
  3  2  2  0
  4  3  1  0
  5  4  2  0
  5 11  1  0
  6  5  1  0
  7  6  1  0
  7  8  1  1
  9 13  1  0
  9  7  1  0
 10  9  2  0
 11 12  2  0
 12  2  1  0
 13 17  1  0
 14 13  1  0
 14 15  1  0
 16 17  1  0
 16 15  1  0
 18 25  1  0
 17 18  1  1
 19 18  2  0
 21 20  1  0
 21 22  2  0
 23 21  1  0
 24 23  1  6
 24 25  1  0
 26 27  1  0
 26 24  1  0
 28 26  2  0
M  END
$$$$
