TQI.pdb
     RDKit          3D

 25 24  0  0  1  0  0  0  0  0999 V2000
   24.7117  -15.5825  -14.5093 C   0  0  0  0  0  0  0  0  0  0  0  0
   24.5473  -16.5032  -15.7097 C   0  0  1  0  0  0  0  0  0  0  0  0
   24.7154  -17.8327  -15.3239 O   0  0  0  0  0  0  0  0  0  0  0  0
   23.1306  -16.3664  -16.2391 C   0  0  2  0  0  0  0  0  0  0  0  0
   22.8581  -17.3461  -17.2587 N   0  0  0  0  0  0  0  0  0  0  0  0
   22.9175  -14.9860  -16.6878 C   0  0  0  0  0  0  0  0  0  0  0  0
   23.5393  -14.6008  -17.7128 O   0  0  0  0  0  0  0  0  0  0  0  0
   19.2843  -12.2383  -19.3219 N   0  0  0  0  0  0  0  0  0  0  0  0
   19.4629  -11.0078  -18.6328 C   0  0  0  0  0  0  0  0  0  0  0  0
   19.1209   -9.9147  -19.1992 O   0  0  0  0  0  0  0  0  0  0  0  0
   20.0475  -11.0598  -17.2703 C   0  0  0  0  0  0  0  0  0  0  0  0
   20.3997  -12.4234  -16.8032 C   0  0  0  0  0  0  0  0  0  0  0  0
   21.8492  -12.6942  -16.5679 C   0  0  2  0  0  0  0  0  0  0  0  0
   22.0620  -14.0461  -16.0549 N   0  0  0  0  0  0  0  0  0  0  0  0
   22.4642  -11.6882  -15.6630 C   0  0  0  0  0  0  0  0  0  0  0  0
   22.2043  -11.6639  -14.4373 O   0  0  0  0  0  0  0  0  0  0  0  0
   27.3837   -9.3954  -16.9523 C   0  0  0  0  0  0  0  0  0  0  0  0
   25.8855   -9.3631  -16.8377 C   0  0  0  0  0  0  0  0  0  0  0  0
   25.4959   -9.7566  -15.4268 C   0  0  2  0  0  0  0  0  0  0  0  0
   26.0246  -11.1386  -15.1167 C   0  0  0  0  0  0  0  0  0  0  0  0
   23.9923   -9.7913  -15.2592 C   0  0  2  0  0  0  0  0  0  0  0  0
   23.3726  -10.7166  -16.1664 N   0  0  0  0  0  0  0  0  0  0  0  0
   23.4844   -8.4300  -15.5408 C   0  0  0  0  0  0  0  0  0  0  0  0
   22.6924   -8.0853  -16.6195 O   0  0  0  0  0  0  0  0  0  0  0  0
   23.7859   -7.5033  -14.7500 O   0  0  0  0  0  0  0  0  0  0  0  0
  2  1  1  1
  3  2  1  0
  4  2  1  0
  4  5  1  6
  6  4  1  0
  6 14  1  0
  7  6  2  0
  9 10  2  0
  9  8  1  0
 11  9  1  0
 12 11  1  0
 13 12  1  1
 14 13  1  0
 15 16  2  0
 15 13  1  0
 18 17  1  0
 18 19  1  0
 19 21  1  0
 19 20  1  6
 21 22  1  6
 21 23  1  0
 22 15  1  0
 23 25  2  0
 23 24  1  0
M  END
$$$$
