TQI.pdb
     RDKit          3D

 25 24  0  0  1  0  0  0  0  0999 V2000
   27.9083  -16.7176  -16.4967 C   0  0  0  0  0  0  0  0  0  0  0  0
   26.6543  -17.4913  -16.1161 C   0  0  1  0  0  0  0  0  0  0  0  0
   25.7483  -17.4922  -17.1762 O   0  0  0  0  0  0  0  0  0  0  0  0
   27.0347  -18.9373  -15.8511 C   0  0  2  0  0  0  0  0  0  0  0  0
   27.5762  -19.5588  -17.0318 N   0  0  0  0  0  0  0  0  0  0  0  0
   25.8733  -19.6458  -15.3020 C   0  0  0  0  0  0  0  0  0  0  0  0
   25.3055  -20.4968  -16.0363 O   0  0  0  0  0  0  0  0  0  0  0  0
   25.5839  -23.7076  -12.5081 N   0  0  0  0  0  0  0  0  0  0  0  0
   25.4447  -22.5746  -11.6609 C   0  0  0  0  0  0  0  0  0  0  0  0
   26.4271  -22.2132  -10.9281 O   0  0  0  0  0  0  0  0  0  0  0  0
   24.1441  -21.8611  -11.6726 C   0  0  0  0  0  0  0  0  0  0  0  0
   24.2294  -20.4323  -12.0638 C   0  0  0  0  0  0  0  0  0  0  0  0
   24.1388  -20.1340  -13.5241 C   0  0  2  0  0  0  0  0  0  0  0  0
   25.3367  -19.4470  -14.0026 N   0  0  0  0  0  0  0  0  0  0  0  0
   22.9190  -19.3534  -13.8586 C   0  0  0  0  0  0  0  0  0  0  0  0
   22.7856  -18.1602  -13.4993 O   0  0  0  0  0  0  0  0  0  0  0  0
   19.8333  -17.4208  -18.2793 C   0  0  0  0  0  0  0  0  0  0  0  0
   19.5955  -17.9794  -16.9045 C   0  0  0  0  0  0  0  0  0  0  0  0
   20.8402  -18.7194  -16.4569 C   0  0  2  0  0  0  0  0  0  0  0  0
   21.0141  -19.9741  -17.2825 C   0  0  0  0  0  0  0  0  0  0  0  0
   20.7430  -19.1344  -15.0049 C   0  0  2  0  0  0  0  0  0  0  0  0
   21.8597  -19.9431  -14.6022 N   0  0  0  0  0  0  0  0  0  0  0  0
   19.4998  -19.9225  -14.8524 C   0  0  0  0  0  0  0  0  0  0  0  0
   18.2305  -19.3887  -14.7353 O   0  0  0  0  0  0  0  0  0  0  0  0
   19.5843  -21.1744  -14.8250 O   0  0  0  0  0  0  0  0  0  0  0  0
  2  1  1  6
  3  2  1  0
  4  2  1  0
  4  5  1  6
  6  4  1  0
  6 14  1  0
  7  6  2  0
  9 10  2  0
  9  8  1  0
 11  9  1  0
 12 11  1  0
 13 12  1  1
 14 13  1  0
 15 16  2  0
 15 13  1  0
 18 17  1  0
 18 19  1  0
 19 21  1  0
 19 20  1  6
 21 22  1  6
 21 23  1  0
 22 15  1  0
 23 25  2  0
 23 24  1  0
M  END
$$$$
