TQI.pdb
     RDKit          3D

 25 24  0  0  1  0  0  0  0  0999 V2000
   24.5703  -25.6010  -16.1701 C   0  0  0  0  0  0  0  0  0  0  0  0
   25.7021  -25.4285  -17.1726 C   0  0  1  0  0  0  0  0  0  0  0  0
   25.8204  -26.5686  -17.9668 O   0  0  0  0  0  0  0  0  0  0  0  0
   25.3633  -24.2723  -18.0969 C   0  0  2  0  0  0  0  0  0  0  0  0
   26.3702  -24.1042  -19.1125 N   0  0  0  0  0  0  0  0  0  0  0  0
   25.1411  -23.0651  -17.2932 C   0  0  0  0  0  0  0  0  0  0  0  0
   26.1537  -22.4642  -16.8470 O   0  0  0  0  0  0  0  0  0  0  0  0
   20.7737  -18.7258  -17.8270 N   0  0  0  0  0  0  0  0  0  0  0  0
   21.5861  -18.1641  -16.8046 C   0  0  0  0  0  0  0  0  0  0  0  0
   21.4253  -16.9400  -16.4754 O   0  0  0  0  0  0  0  0  0  0  0  0
   22.5946  -19.0439  -16.1646 C   0  0  0  0  0  0  0  0  0  0  0  0
   22.6526  -20.4189  -16.7193 C   0  0  0  0  0  0  0  0  0  0  0  0
   23.7005  -21.3216  -16.1565 C   0  0  2  0  0  0  0  0  0  0  0  0
   23.8693  -22.5187  -16.9777 N   0  0  0  0  0  0  0  0  0  0  0  0
   23.4179  -21.6909  -14.7448 C   0  0  0  0  0  0  0  0  0  0  0  0
   22.7804  -22.7300  -14.4544 O   0  0  0  0  0  0  0  0  0  0  0  0
   25.5523  -21.2026   -9.0871 C   0  0  0  0  0  0  0  0  0  0  0  0
   24.3546  -21.4281   -9.9665 C   0  0  0  0  0  0  0  0  0  0  0  0
   24.7088  -21.0277  -11.3847 C   0  0  2  0  0  0  0  0  0  0  0  0
   25.0854  -19.5640  -11.4241 C   0  0  0  0  0  0  0  0  0  0  0  0
   23.5379  -21.2264  -12.3227 C   0  0  2  0  0  0  0  0  0  0  0  0
   23.8667  -20.8689  -13.6744 N   0  0  0  0  0  0  0  0  0  0  0  0
   22.4393  -20.3550  -11.8494 C   0  0  0  0  0  0  0  0  0  0  0  0
   21.5215  -20.6936  -10.8733 O   0  0  0  0  0  0  0  0  0  0  0  0
   22.3150  -19.2165  -12.3626 O   0  0  0  0  0  0  0  0  0  0  0  0
  2  1  1  1
  3  2  1  0
  4  2  1  0
  4  5  1  6
  6  4  1  0
  6 14  1  0
  7  6  2  0
  9 10  2  0
  9  8  1  0
 11  9  1  0
 12 11  1  0
 13 12  1  6
 14 13  1  0
 15 16  2  0
 15 13  1  0
 18 17  1  0
 18 19  1  0
 19 21  1  0
 19 20  1  1
 21 22  1  6
 21 23  1  0
 22 15  1  0
 23 25  2  0
 23 24  1  0
M  END
$$$$
