TQI.pdb
     RDKit          3D

 25 24  0  0  1  0  0  0  0  0999 V2000
   15.5305   -9.1233  -15.2887 C   0  0  0  0  0  0  0  0  0  0  0  0
   15.8952  -10.5962  -15.4054 C   0  0  1  0  0  0  0  0  0  0  0  0
   15.4823  -11.0985  -16.6391 O   0  0  0  0  0  0  0  0  0  0  0  0
   17.4068  -10.7303  -15.3508 C   0  0  2  0  0  0  0  0  0  0  0  0
   17.8182  -12.0912  -15.5796 N   0  0  0  0  0  0  0  0  0  0  0  0
   17.8912  -10.1828  -14.0788 C   0  0  0  0  0  0  0  0  0  0  0  0
   17.5205  -10.7506  -13.0178 O   0  0  0  0  0  0  0  0  0  0  0  0
   22.0131   -5.7373  -11.9278 N   0  0  0  0  0  0  0  0  0  0  0  0
   21.5192   -5.6934  -13.2600 C   0  0  0  0  0  0  0  0  0  0  0  0
   21.7639   -4.6722  -13.9879 O   0  0  0  0  0  0  0  0  0  0  0  0
   20.7322   -6.8551  -13.7417 C   0  0  0  0  0  0  0  0  0  0  0  0
   20.5371   -7.9268  -12.7341 C   0  0  0  0  0  0  0  0  0  0  0  0
   19.1725   -8.5277  -12.6551 C   0  0  2  0  0  0  0  0  0  0  0  0
   18.7485   -9.0585  -13.9492 N   0  0  0  0  0  0  0  0  0  0  0  0
   18.1693   -7.5648  -12.1303 C   0  0  0  0  0  0  0  0  0  0  0  0
   17.5186   -6.8147  -12.8949 O   0  0  0  0  0  0  0  0  0  0  0  0
   14.1170   -9.0057   -9.3456 C   0  0  0  0  0  0  0  0  0  0  0  0
   15.0425   -8.2465  -10.2543 C   0  0  0  0  0  0  0  0  0  0  0  0
   15.8635   -7.2837   -9.4199 C   0  0  2  0  0  0  0  0  0  0  0  0
   14.9606   -6.2332   -8.8141 C   0  0  0  0  0  0  0  0  0  0  0  0
   16.8994   -6.5698  -10.2611 C   0  0  2  0  0  0  0  0  0  0  0  0
   17.9169   -7.4665  -10.7341 N   0  0  0  0  0  0  0  0  0  0  0  0
   17.5283   -5.5380   -9.4066 C   0  0  0  0  0  0  0  0  0  0  0  0
   17.0598   -4.2481   -9.2441 O   0  0  0  0  0  0  0  0  0  0  0  0
   18.5688   -5.8388   -8.7725 O   0  0  0  0  0  0  0  0  0  0  0  0
  2  1  1  6
  3  2  1  0
  4  2  1  0
  4  5  1  1
  6  4  1  0
  6 14  1  0
  7  6  2  0
  9 10  2  0
  9  8  1  0
 11  9  1  0
 12 11  1  0
 13 12  1  6
 14 13  1  0
 15 16  2  0
 15 13  1  0
 18 17  1  0
 18 19  1  0
 19 21  1  0
 19 20  1  6
 21 22  1  1
 21 23  1  0
 22 15  1  0
 23 25  2  0
 23 24  1  0
M  END
$$$$
