TQI.pdb
     RDKit          3D

 25 24  0  0  1  0  0  0  0  0999 V2000
   29.1058  -21.2597  -12.5099 C   0  0  0  0  0  0  0  0  0  0  0  0
   28.9187  -20.1214  -13.5025 C   0  0  1  0  0  0  0  0  0  0  0  0
   29.5090  -20.4450  -14.7238 O   0  0  0  0  0  0  0  0  0  0  0  0
   27.4334  -19.9363  -13.7583 C   0  0  2  0  0  0  0  0  0  0  0  0
   27.1971  -18.9052  -14.7354 N   0  0  0  0  0  0  0  0  0  0  0  0
   26.7535  -19.6934  -12.4811 C   0  0  0  0  0  0  0  0  0  0  0  0
   26.7733  -18.5215  -12.0206 O   0  0  0  0  0  0  0  0  0  0  0  0
   21.3607  -20.0830  -10.0031 N   0  0  0  0  0  0  0  0  0  0  0  0
   21.7818  -19.9882  -11.3575 C   0  0  0  0  0  0  0  0  0  0  0  0
   20.9908  -19.4897  -12.2284 O   0  0  0  0  0  0  0  0  0  0  0  0
   23.1398  -20.4823  -11.6931 C   0  0  0  0  0  0  0  0  0  0  0  0
   23.9564  -20.8825  -10.5205 C   0  0  0  0  0  0  0  0  0  0  0  0
   25.3601  -20.3748  -10.4806 C   0  0  2  0  0  0  0  0  0  0  0  0
   26.0720  -20.6795  -11.7201 N   0  0  0  0  0  0  0  0  0  0  0  0
   26.1076  -20.8954   -9.3062 C   0  0  0  0  0  0  0  0  0  0  0  0
   26.7086  -21.9944   -9.3467 O   0  0  0  0  0  0  0  0  0  0  0  0
   29.6525  -19.4364   -4.7405 C   0  0  0  0  0  0  0  0  0  0  0  0
   28.5914  -20.3934   -5.2063 C   0  0  0  0  0  0  0  0  0  0  0  0
   27.8195  -19.7508   -6.3414 C   0  0  2  0  0  0  0  0  0  0  0  0
   27.0422  -18.5621   -5.8229 C   0  0  0  0  0  0  0  0  0  0  0  0
   26.8280  -20.7178   -6.9512 C   0  0  2  0  0  0  0  0  0  0  0  0
   26.1627  -20.1552   -8.0930 N   0  0  0  0  0  0  0  0  0  0  0  0
   25.8198  -21.0303   -5.9138 C   0  0  0  0  0  0  0  0  0  0  0  0
   24.4856  -20.6747   -5.9706 O   0  0  0  0  0  0  0  0  0  0  0  0
   26.1858  -21.6667   -4.8959 O   0  0  0  0  0  0  0  0  0  0  0  0
  2  1  1  1
  3  2  1  0
  4  2  1  0
  4  5  1  6
  6  4  1  0
  6 14  1  0
  7  6  2  0
  9 10  2  0
  9  8  1  0
 11  9  1  0
 12 11  1  0
 13 12  1  6
 14 13  1  0
 15 16  2  0
 15 13  1  0
 18 17  1  0
 18 19  1  0
 19 21  1  0
 19 20  1  1
 21 22  1  6
 21 23  1  0
 22 15  1  0
 23 25  2  0
 23 24  1  0
M  END
$$$$
