TQI.pdb
     RDKit          3D

 25 24  0  0  1  0  0  0  0  0999 V2000
   19.9929  -14.7728  -16.0044 C   0  0  0  0  0  0  0  0  0  0  0  0
   20.5524  -15.5748  -17.1704 C   0  0  1  0  0  0  0  0  0  0  0  0
   19.9163  -16.8131  -17.2528 O   0  0  0  0  0  0  0  0  0  0  0  0
   20.2547  -14.8320  -18.4610 C   0  0  2  0  0  0  0  0  0  0  0  0
   20.6676  -15.5960  -19.6096 N   0  0  0  0  0  0  0  0  0  0  0  0
   20.8656  -13.4995  -18.3991 C   0  0  0  0  0  0  0  0  0  0  0  0
   22.0914  -13.4041  -18.6709 O   0  0  0  0  0  0  0  0  0  0  0  0
   18.0195   -7.8607  -18.4303 N   0  0  0  0  0  0  0  0  0  0  0  0
   19.3740   -7.4531  -18.2891 C   0  0  0  0  0  0  0  0  0  0  0  0
   19.6521   -6.2077  -18.2224 O   0  0  0  0  0  0  0  0  0  0  0  0
   20.4097   -8.5134  -18.2265 C   0  0  0  0  0  0  0  0  0  0  0  0
   19.8809   -9.8966  -18.3205 C   0  0  0  0  0  0  0  0  0  0  0  0
   20.8371  -10.9992  -18.0049 C   0  0  2  0  0  0  0  0  0  0  0  0
   20.1809  -12.3041  -18.0556 N   0  0  0  0  0  0  0  0  0  0  0  0
   21.5040  -10.7994  -16.6918 C   0  0  0  0  0  0  0  0  0  0  0  0
   21.0085  -11.2455  -15.6306 O   0  0  0  0  0  0  0  0  0  0  0  0
   26.5279  -12.0102  -15.8269 C   0  0  0  0  0  0  0  0  0  0  0  0
   25.0515  -11.7358  -15.7652 C   0  0  0  0  0  0  0  0  0  0  0  0
   24.8408  -10.2859  -15.3771 C   0  0  2  0  0  0  0  0  0  0  0  0
   25.4240  -10.0336  -14.0052 C   0  0  0  0  0  0  0  0  0  0  0  0
   23.3691   -9.9378  -15.3221 C   0  0  2  0  0  0  0  0  0  0  0  0
   22.7336  -10.0905  -16.6012 N   0  0  0  0  0  0  0  0  0  0  0  0
   23.2647   -8.5232  -14.9000 C   0  0  0  0  0  0  0  0  0  0  0  0
   23.0449   -7.4553  -15.7491 O   0  0  0  0  0  0  0  0  0  0  0  0
   23.3825   -8.2524  -13.6802 O   0  0  0  0  0  0  0  0  0  0  0  0
  2  1  1  1
  3  2  1  0
  4  2  1  0
  4  5  1  6
  6  4  1  0
  6 14  1  0
  7  6  2  0
  9 10  2  0
  9  8  1  0
 11  9  1  0
 12 11  1  0
 13 12  1  1
 14 13  1  0
 15 16  2  0
 15 13  1  0
 18 17  1  0
 18 19  1  0
 19 21  1  0
 19 20  1  1
 21 22  1  6
 21 23  1  0
 22 15  1  0
 23 25  2  0
 23 24  1  0
M  END
$$$$
