TQI.pdb
     RDKit          3D

 25 24  0  0  1  0  0  0  0  0999 V2000
   20.2753  -14.7554  -14.9999 C   0  0  0  0  0  0  0  0  0  0  0  0
   20.1412  -15.2980  -16.4153 C   0  0  1  0  0  0  0  0  0  0  0  0
   19.8227  -16.6553  -16.3829 O   0  0  0  0  0  0  0  0  0  0  0  0
   18.9913  -14.5848  -17.1045 C   0  0  2  0  0  0  0  0  0  0  0  0
   18.7399  -15.1403  -18.4090 N   0  0  0  0  0  0  0  0  0  0  0  0
   19.2668  -13.1440  -17.1296 C   0  0  0  0  0  0  0  0  0  0  0  0
   20.1541  -12.7311  -17.9221 O   0  0  0  0  0  0  0  0  0  0  0  0
   15.5609   -8.3234  -15.5321 N   0  0  0  0  0  0  0  0  0  0  0  0
   16.8014   -7.6370  -15.6365 C   0  0  0  0  0  0  0  0  0  0  0  0
   16.8321   -6.3682  -15.4887 O   0  0  0  0  0  0  0  0  0  0  0  0
   18.0140   -8.4442  -15.9171 C   0  0  0  0  0  0  0  0  0  0  0  0
   17.7655   -9.9004  -16.0566 C   0  0  0  0  0  0  0  0  0  0  0  0
   18.9534  -10.7542  -16.3562 C   0  0  2  0  0  0  0  0  0  0  0  0
   18.6093  -12.1743  -16.3276 N   0  0  0  0  0  0  0  0  0  0  0  0
   20.0879  -10.4719  -15.4384 C   0  0  0  0  0  0  0  0  0  0  0  0
   20.0871  -10.8759  -14.2521 O   0  0  0  0  0  0  0  0  0  0  0  0
   25.9431  -10.4842  -14.8448 C   0  0  0  0  0  0  0  0  0  0  0  0
   24.6873   -9.7980  -14.3856 C   0  0  0  0  0  0  0  0  0  0  0  0
   23.5699  -10.1260  -15.3556 C   0  0  2  0  0  0  0  0  0  0  0  0
   23.9402   -9.6508  -16.7422 C   0  0  0  0  0  0  0  0  0  0  0  0
   22.2798   -9.4390  -14.9635 C   0  0  2  0  0  0  0  0  0  0  0  0
   21.2161   -9.7294  -15.8840 N   0  0  0  0  0  0  0  0  0  0  0  0
   22.5354   -7.9813  -14.9696 C   0  0  0  0  0  0  0  0  0  0  0  0
   23.1625   -7.2808  -13.9569 O   0  0  0  0  0  0  0  0  0  0  0  0
   22.1606   -7.3122  -15.9631 O   0  0  0  0  0  0  0  0  0  0  0  0
  2  1  1  1
  3  2  1  0
  4  2  1  0
  4  5  1  6
  6  4  1  0
  6 14  1  0
  7  6  2  0
  9 10  2  0
  9  8  1  0
 11  9  1  0
 12 11  1  0
 13 12  1  1
 14 13  1  0
 15 16  2  0
 15 13  1  0
 18 17  1  0
 18 19  1  0
 19 21  1  0
 19 20  1  6
 21 22  1  6
 21 23  1  0
 22 15  1  0
 23 25  2  0
 23 24  1  0
M  END
$$$$
