TQI.pdb
     RDKit          3D

 25 24  0  0  1  0  0  0  0  0999 V2000
   27.9277  -20.6994  -17.4320 C   0  0  0  0  0  0  0  0  0  0  0  0
   28.4965  -19.3189  -17.7264 C   0  0  1  0  0  0  0  0  0  0  0  0
   29.4890  -19.4047  -18.7023 O   0  0  0  0  0  0  0  0  0  0  0  0
   27.3895  -18.4451  -18.2894 C   0  0  2  0  0  0  0  0  0  0  0  0
   27.8975  -17.1635  -18.7056 N   0  0  0  0  0  0  0  0  0  0  0  0
   26.3065  -18.3489  -17.3044 C   0  0  0  0  0  0  0  0  0  0  0  0
   26.4779  -17.5847  -16.3184 O   0  0  0  0  0  0  0  0  0  0  0  0
   21.2115  -16.5178  -16.8640 N   0  0  0  0  0  0  0  0  0  0  0  0
   20.8026  -17.5475  -15.9734 C   0  0  0  0  0  0  0  0  0  0  0  0
   19.8444  -17.3287  -15.1569 O   0  0  0  0  0  0  0  0  0  0  0  0
   21.5230  -18.8426  -16.0402 C   0  0  0  0  0  0  0  0  0  0  0  0
   22.6758  -18.8582  -16.9743 C   0  0  0  0  0  0  0  0  0  0  0  0
   24.0334  -18.9350  -16.3572 C   0  0  2  0  0  0  0  0  0  0  0  0
   25.0754  -19.0524  -17.3754 N   0  0  0  0  0  0  0  0  0  0  0  0
   24.1360  -20.0441  -15.3731 C   0  0  0  0  0  0  0  0  0  0  0  0
   24.1808  -21.2421  -15.7382 O   0  0  0  0  0  0  0  0  0  0  0  0
   27.7858  -20.4251  -11.6825 C   0  0  0  0  0  0  0  0  0  0  0  0
   26.7305  -20.6998  -12.7167 C   0  0  0  0  0  0  0  0  0  0  0  0
   25.3727  -20.6863  -12.0434 C   0  0  2  0  0  0  0  0  0  0  0  0
   25.2841  -21.8208  -11.0479 C   0  0  0  0  0  0  0  0  0  0  0  0
   24.2566  -20.8689  -13.0489 C   0  0  2  0  0  0  0  0  0  0  0  0
   24.1869  -19.7752  -13.9774 N   0  0  0  0  0  0  0  0  0  0  0  0
   22.9866  -20.9378  -12.2922 C   0  0  0  0  0  0  0  0  0  0  0  0
   22.0453  -19.9281  -12.2270 O   0  0  0  0  0  0  0  0  0  0  0  0
   22.7265  -21.9864  -11.6535 O   0  0  0  0  0  0  0  0  0  0  0  0
  2  1  1  6
  3  2  1  0
  4  2  1  0
  4  5  1  1
  6  4  1  0
  6 14  1  0
  7  6  2  0
  9 10  2  0
  9  8  1  0
 11  9  1  0
 12 11  1  0
 13 12  1  6
 14 13  1  0
 15 16  2  0
 15 13  1  0
 18 17  1  0
 18 19  1  0
 19 21  1  0
 19 20  1  1
 21 22  1  6
 21 23  1  0
 22 15  1  0
 23 25  2  0
 23 24  1  0
M  END
$$$$
