TQI.pdb
     RDKit          3D

 25 24  0  0  1  0  0  0  0  0999 V2000
   18.5844  -11.0591  -15.0840 C   0  0  0  0  0  0  0  0  0  0  0  0
   17.1293  -11.3675  -15.4056 C   0  0  1  0  0  0  0  0  0  0  0  0
   16.9802  -12.7190  -15.7151 O   0  0  0  0  0  0  0  0  0  0  0  0
   16.2886  -11.0957  -14.1706 C   0  0  2  0  0  0  0  0  0  0  0  0
   14.9122  -11.4600  -14.3862 N   0  0  0  0  0  0  0  0  0  0  0  0
   16.4632   -9.6951  -13.7703 C   0  0  0  0  0  0  0  0  0  0  0  0
   16.0546   -8.8046  -14.5615 O   0  0  0  0  0  0  0  0  0  0  0  0
   15.7577   -6.7244   -8.4458 N   0  0  0  0  0  0  0  0  0  0  0  0
   14.8030   -7.2071   -9.3820 C   0  0  0  0  0  0  0  0  0  0  0  0
   13.5774   -7.3073   -9.0351 O   0  0  0  0  0  0  0  0  0  0  0  0
   15.2895   -7.5756  -10.7342 C   0  0  0  0  0  0  0  0  0  0  0  0
   16.7613   -7.4924  -10.9027 C   0  0  0  0  0  0  0  0  0  0  0  0
   17.3003   -7.8546  -12.2473 C   0  0  2  0  0  0  0  0  0  0  0  0
   17.0588   -9.2625  -12.5563 N   0  0  0  0  0  0  0  0  0  0  0  0
   18.7456   -7.5316  -12.3736 C   0  0  0  0  0  0  0  0  0  0  0  0
   19.6144   -8.1443  -11.7100 O   0  0  0  0  0  0  0  0  0  0  0  0
   21.5962   -8.5174  -16.2477 C   0  0  0  0  0  0  0  0  0  0  0  0
   21.0234   -8.1561  -14.9060 C   0  0  0  0  0  0  0  0  0  0  0  0
   21.1496   -6.6586  -14.7093 C   0  0  2  0  0  0  0  0  0  0  0  0
   22.6070   -6.2583  -14.7496 C   0  0  0  0  0  0  0  0  0  0  0  0
   20.5919   -6.2293  -13.3697 C   0  0  2  0  0  0  0  0  0  0  0  0
   19.1875   -6.5096  -13.2585 N   0  0  0  0  0  0  0  0  0  0  0  0
   20.8007   -4.7690  -13.2511 C   0  0  0  0  0  0  0  0  0  0  0  0
   19.8040   -3.8151  -13.3321 O   0  0  0  0  0  0  0  0  0  0  0  0
   21.9666   -4.3444  -13.0624 O   0  0  0  0  0  0  0  0  0  0  0  0
  2  1  1  1
  3  2  1  0
  4  2  1  0
  4  5  1  6
  6  4  1  0
  6 14  1  0
  7  6  2  0
  9 10  2  0
  9  8  1  0
 11  9  1  0
 12 11  1  0
 13 12  1  1
 14 13  1  0
 15 16  2  0
 15 13  1  0
 18 17  1  0
 18 19  1  0
 19 21  1  0
 19 20  1  1
 21 22  1  6
 21 23  1  0
 22 15  1  0
 23 25  2  0
 23 24  1  0
M  END
$$$$
