TQI.pdb
     RDKit          3D

 25 24  0  0  1  0  0  0  0  0999 V2000
   27.6723  -17.7927  -15.1202 C   0  0  0  0  0  0  0  0  0  0  0  0
   27.5046  -18.7330  -16.3049 C   0  0  1  0  0  0  0  0  0  0  0  0
   27.8937  -18.0973  -17.4836 O   0  0  0  0  0  0  0  0  0  0  0  0
   28.4248  -19.9260  -16.1150 C   0  0  2  0  0  0  0  0  0  0  0  0
   28.3553  -20.8224  -17.2398 N   0  0  0  0  0  0  0  0  0  0  0  0
   28.1130  -20.5732  -14.8358 C   0  0  0  0  0  0  0  0  0  0  0  0
   27.1085  -21.3314  -14.7926 O   0  0  0  0  0  0  0  0  0  0  0  0
   31.8452  -21.4501   -9.8036 N   0  0  0  0  0  0  0  0  0  0  0  0
   31.9402  -22.1186  -11.0546 C   0  0  0  0  0  0  0  0  0  0  0  0
   33.0079  -22.7569  -11.3468 O   0  0  0  0  0  0  0  0  0  0  0  0
   30.7752  -22.0373  -11.9695 C   0  0  0  0  0  0  0  0  0  0  0  0
   29.6581  -21.1978  -11.4704 C   0  0  0  0  0  0  0  0  0  0  0  0
   28.4808  -21.0467  -12.3765 C   0  0  2  0  0  0  0  0  0  0  0  0
   28.8575  -20.4116  -13.6377 N   0  0  0  0  0  0  0  0  0  0  0  0
   27.3699  -20.3029  -11.7272 C   0  0  0  0  0  0  0  0  0  0  0  0
   27.1151  -19.1129  -12.0267 O   0  0  0  0  0  0  0  0  0  0  0  0
   22.1923  -19.6980  -12.5767 C   0  0  0  0  0  0  0  0  0  0  0  0
   23.0060  -19.7642  -11.3148 C   0  0  0  0  0  0  0  0  0  0  0  0
   24.3359  -20.4212  -11.6262 C   0  0  2  0  0  0  0  0  0  0  0  0
   24.1180  -21.8748  -11.9801 C   0  0  0  0  0  0  0  0  0  0  0  0
   25.2674  -20.3729  -10.4345 C   0  0  2  0  0  0  0  0  0  0  0  0
   26.5577  -20.9253  -10.7395 N   0  0  0  0  0  0  0  0  0  0  0  0
   24.6461  -21.1721   -9.3549 C   0  0  0  0  0  0  0  0  0  0  0  0
   25.1865  -22.3185   -8.8040 O   0  0  0  0  0  0  0  0  0  0  0  0
   23.5424  -20.7955   -8.8908 O   0  0  0  0  0  0  0  0  0  0  0  0
  2  1  1  1
  3  2  1  0
  4  2  1  0
  4  5  1  6
  6  4  1  0
  6 14  1  0
  7  6  2  0
  9 10  2  0
  9  8  1  0
 11  9  1  0
 12 11  1  0
 13 12  1  1
 14 13  1  0
 15 16  2  0
 15 13  1  0
 18 17  1  0
 18 19  1  0
 19 21  1  0
 19 20  1  1
 21 22  1  6
 21 23  1  0
 22 15  1  0
 23 25  2  0
 23 24  1  0
M  END
$$$$
