TQI.pdb
     RDKit          3D

 25 24  0  0  1  0  0  0  0  0999 V2000
   28.4257  -17.5971  -17.0375 C   0  0  0  0  0  0  0  0  0  0  0  0
   27.2328  -18.3046  -16.4113 C   0  0  1  0  0  0  0  0  0  0  0  0
   26.1726  -18.3545  -17.3160 O   0  0  0  0  0  0  0  0  0  0  0  0
   27.6239  -19.7386  -16.1006 C   0  0  2  0  0  0  0  0  0  0  0  0
   27.8879  -20.4801  -17.3065 N   0  0  0  0  0  0  0  0  0  0  0  0
   26.5871  -20.3470  -15.2595 C   0  0  0  0  0  0  0  0  0  0  0  0
   25.7347  -21.0838  -15.8218 O   0  0  0  0  0  0  0  0  0  0  0  0
   26.0341  -20.2640   -8.9087 N   0  0  0  0  0  0  0  0  0  0  0  0
   24.8055  -20.8814   -9.2692 C   0  0  0  0  0  0  0  0  0  0  0  0
   23.9929  -21.2466   -8.3532 O   0  0  0  0  0  0  0  0  0  0  0  0
   24.5283  -21.0726  -10.7140 C   0  0  0  0  0  0  0  0  0  0  0  0
   25.6248  -20.6374  -11.6140 C   0  0  0  0  0  0  0  0  0  0  0  0
   25.3485  -20.6990  -13.0801 C   0  0  2  0  0  0  0  0  0  0  0  0
   26.4684  -20.1698  -13.8559 N   0  0  0  0  0  0  0  0  0  0  0  0
   24.0867  -20.0002  -13.4391 C   0  0  0  0  0  0  0  0  0  0  0  0
   24.0055  -18.7496  -13.4322 O   0  0  0  0  0  0  0  0  0  0  0  0
   22.0111  -19.6409  -17.8834 C   0  0  0  0  0  0  0  0  0  0  0  0
   22.3821  -19.4418  -16.4407 C   0  0  0  0  0  0  0  0  0  0  0  0
   21.3498  -20.1324  -15.5720 C   0  0  2  0  0  0  0  0  0  0  0  0
   20.0014  -19.4746  -15.7588 C   0  0  0  0  0  0  0  0  0  0  0  0
   21.7094  -20.0355  -14.1052 C   0  0  2  0  0  0  0  0  0  0  0  0
   22.9261  -20.7369  -13.8037 N   0  0  0  0  0  0  0  0  0  0  0  0
   20.6010  -20.6449  -13.3370 C   0  0  0  0  0  0  0  0  0  0  0  0
   19.5175  -19.9568  -12.8247 O   0  0  0  0  0  0  0  0  0  0  0  0
   20.6295  -21.8813  -13.1236 O   0  0  0  0  0  0  0  0  0  0  0  0
  2  1  1  6
  3  2  1  0
  4  2  1  0
  4  5  1  6
  6  4  1  0
  6 14  1  0
  7  6  2  0
  9 10  2  0
  9  8  1  0
 11  9  1  0
 12 11  1  0
 13 12  1  1
 14 13  1  0
 15 16  2  0
 15 13  1  0
 18 17  1  0
 18 19  1  0
 19 21  1  0
 19 20  1  1
 21 22  1  6
 21 23  1  0
 22 15  1  0
 23 25  2  0
 23 24  1  0
M  END
$$$$
