DNP.pdb
     RDKit          3D

 24 24  0  0  1  0  0  0  0  0999 V2000
    9.4592  -16.2581   20.2969 N   0  0  0  0  0  0  0  0  0  0  0  0
    8.0343  -16.2076   20.1916 C   0  0  1  0  0  0  0  0  0  0  0  0
    7.4523  -17.3124   19.3539 C   0  0  0  0  0  0  0  0  0  0  0  0
    8.1615  -17.3100   18.0451 C   0  0  0  0  0  0  0  0  0  0  0  0
    9.0439  -18.1538   17.7618 O   0  0  0  0  0  0  0  0  0  0  0  0
    7.3706  -16.0747   21.5176 C   0  0  0  0  0  0  0  0  0  0  0  0
    6.1266  -15.8895   21.5187 O   0  0  0  0  0  0  0  0  0  0  0  0
    7.8386  -16.3416   17.1010 O   0  0  0  0  0  0  0  0  0  0  0  0
    6.3653  -18.3875   26.6471 N   0  0  0  0  0  0  0  0  0  0  0  0
    7.2161  -17.4498   26.0207 C   0  0  0  0  0  0  0  0  0  0  0  0
    7.8338  -16.5660   26.6940 O   0  0  0  0  0  0  0  0  0  0  0  0
    7.3716  -17.5240   24.5384 C   0  0  0  0  0  0  0  0  0  0  0  0
    7.3668  -16.0629   24.0508 C   0  0  2  0  0  0  0  0  0  0  0  0
    8.0490  -16.1443   22.7396 N   0  0  0  0  0  0  0  0  0  0  0  0
    8.2321  -15.3076   24.9763 C   0  0  0  0  0  0  0  0  0  0  0  0
    9.4428  -15.7170   25.0839 O   0  0  0  0  0  0  0  0  0  0  0  0
    7.7890  -14.1602   25.7428 N   0  0  0  0  0  0  0  0  0  0  0  0
    6.4359  -13.7064   25.6183 C   0  0  0  0  0  0  0  0  0  0  0  0
    6.1801  -12.8398   26.7974 C   0  0  0  0  0  0  0  0  0  0  0  0
    7.5520  -12.2127   27.0105 C   0  0  0  0  0  0  0  0  0  0  0  0
    8.5095  -13.3696   26.6699 C   0  0  1  0  0  0  0  0  0  0  0  0
    8.8807  -14.0753   27.9096 C   0  0  0  0  0  0  0  0  0  0  0  0
    9.7229  -13.4989   28.8284 O   0  0  0  0  0  0  0  0  0  0  0  0
    8.4253  -15.2130   28.1283 O   0  0  0  0  0  0  0  0  0  0  0  0
  2  1  1  1
  3  2  1  0
  4  3  1  0
  4  5  2  0
  6  2  1  0
  6  7  2  0
  8  4  1  0
 10 12  1  0
 10  9  1  0
 11 10  2  0
 13 12  1  1
 13 14  1  0
 14  6  1  0
 15 13  1  0
 16 15  2  0
 17 15  1  0
 18 17  1  0
 19 18  1  0
 19 20  1  0
 20 21  1  0
 21 17  1  0
 21 22  1  1
 23 22  1  0
 24 22  2  0
M  END
$$$$
