DNP.pdb
     RDKit          3D

 24 24  0  0  1  0  0  0  0  0999 V2000
    9.0632  -15.4325   19.7954 N   0  0  0  0  0  0  0  0  0  0  0  0
    8.6054  -14.1630   20.2677 C   0  0  1  0  0  0  0  0  0  0  0  0
    7.7913  -13.4022   19.2582 C   0  0  0  0  0  0  0  0  0  0  0  0
    8.2381  -13.8270   17.9032 C   0  0  0  0  0  0  0  0  0  0  0  0
    9.3598  -14.3489   17.7027 O   0  0  0  0  0  0  0  0  0  0  0  0
    7.9403  -14.2570   21.5964 C   0  0  0  0  0  0  0  0  0  0  0  0
    7.3883  -13.2153   22.0347 O   0  0  0  0  0  0  0  0  0  0  0  0
    7.3868  -13.6413   16.8196 O   0  0  0  0  0  0  0  0  0  0  0  0
    7.3375  -18.0170   26.1534 N   0  0  0  0  0  0  0  0  0  0  0  0
    6.5895  -17.1653   25.3105 C   0  0  0  0  0  0  0  0  0  0  0  0
    5.5655  -16.5457   25.7390 O   0  0  0  0  0  0  0  0  0  0  0  0
    7.0354  -17.0110   23.8948 C   0  0  0  0  0  0  0  0  0  0  0  0
    7.2420  -15.4982   23.6914 C   0  0  2  0  0  0  0  0  0  0  0  0
    7.8994  -15.4243   22.3671 N   0  0  0  0  0  0  0  0  0  0  0  0
    8.2124  -15.0648   24.7142 C   0  0  0  0  0  0  0  0  0  0  0  0
    9.3258  -15.7007   24.7466 O   0  0  0  0  0  0  0  0  0  0  0  0
    7.9712  -13.9866   25.6521 N   0  0  0  0  0  0  0  0  0  0  0  0
    6.7307  -13.2717   25.6040 C   0  0  0  0  0  0  0  0  0  0  0  0
    6.6098  -12.5649   26.9049 C   0  0  0  0  0  0  0  0  0  0  0  0
    8.0686  -12.2487   27.2098 C   0  0  0  0  0  0  0  0  0  0  0  0
    8.8017  -13.4989   26.6896 C   0  0  1  0  0  0  0  0  0  0  0  0
    9.0011  -14.4447   27.8025 C   0  0  0  0  0  0  0  0  0  0  0  0
    8.2967  -15.6216   27.8672 O   0  0  0  0  0  0  0  0  0  0  0  0
    9.8200  -14.1730   28.6997 O   0  0  0  0  0  0  0  0  0  0  0  0
  2  1  1  6
  3  2  1  0
  4  3  1  0
  4  5  2  0
  6  2  1  0
  6  7  2  0
  8  4  1  0
 10 12  1  0
 10  9  1  0
 11 10  2  0
 13 12  1  1
 13 14  1  0
 14  6  1  0
 15 13  1  0
 16 15  2  0
 17 15  1  0
 18 17  1  0
 19 18  1  0
 19 20  1  0
 20 21  1  0
 21 17  1  0
 21 22  1  1
 23 22  1  0
 24 22  2  0
M  END
$$$$
