DNP.pdb
     RDKit          3D

 24 24  0  0  1  0  0  0  0  0999 V2000
   10.0865  -18.1770   21.2667 N   0  0  0  0  0  0  0  0  0  0  0  0
   10.3759  -16.7784   21.3337 C   0  0  1  0  0  0  0  0  0  0  0  0
   10.6594  -16.1567   19.9943 C   0  0  0  0  0  0  0  0  0  0  0  0
   11.8757  -16.8114   19.4395 C   0  0  0  0  0  0  0  0  0  0  0  0
   12.9106  -16.9880   20.1240 O   0  0  0  0  0  0  0  0  0  0  0  0
    9.3602  -16.0248   22.1192 C   0  0  0  0  0  0  0  0  0  0  0  0
    9.3667  -14.7718   22.0095 O   0  0  0  0  0  0  0  0  0  0  0  0
   11.8697  -17.2438   18.1179 O   0  0  0  0  0  0  0  0  0  0  0  0
    6.2252  -17.0878   22.0527 N   0  0  0  0  0  0  0  0  0  0  0  0
    5.9524  -17.5857   23.3462 C   0  0  0  0  0  0  0  0  0  0  0  0
    5.1331  -18.5407   23.5267 O   0  0  0  0  0  0  0  0  0  0  0  0
    6.6554  -16.9571   24.5028 C   0  0  0  0  0  0  0  0  0  0  0  0
    7.5582  -15.8683   23.8927 C   0  0  2  0  0  0  0  0  0  0  0  0
    8.4166  -16.6294   22.9572 N   0  0  0  0  0  0  0  0  0  0  0  0
    8.4049  -15.3609   24.9887 C   0  0  0  0  0  0  0  0  0  0  0  0
    9.4145  -16.0844   25.3082 O   0  0  0  0  0  0  0  0  0  0  0  0
    8.1547  -14.1208   25.6959 N   0  0  0  0  0  0  0  0  0  0  0  0
    7.1383  -13.2294   25.2224 C   0  0  0  0  0  0  0  0  0  0  0  0
    6.8343  -12.3120   26.3504 C   0  0  0  0  0  0  0  0  0  0  0  0
    8.1995  -12.1944   27.0161 C   0  0  0  0  0  0  0  0  0  0  0  0
    8.7734  -13.6153   26.8644 C   0  0  1  0  0  0  0  0  0  0  0  0
    8.4869  -14.3890   28.0859 C   0  0  0  0  0  0  0  0  0  0  0  0
    9.2008  -14.1813   29.2403 O   0  0  0  0  0  0  0  0  0  0  0  0
    7.5841  -15.2460   28.0721 O   0  0  0  0  0  0  0  0  0  0  0  0
  2  1  1  6
  3  2  1  0
  4  3  1  0
  4  5  2  0
  6  2  1  0
  6  7  2  0
  8  4  1  0
 10 12  1  0
 10  9  1  0
 11 10  2  0
 13 12  1  1
 13 14  1  0
 14  6  1  0
 15 13  1  0
 16 15  2  0
 17 15  1  0
 18 17  1  0
 19 18  1  0
 19 20  1  0
 20 21  1  0
 21 17  1  0
 21 22  1  1
 23 22  1  0
 24 22  2  0
M  END
$$$$
