DNP.pdb
     RDKit          3D

 24 24  0  0  1  0  0  0  0  0999 V2000
    9.4121  -17.1984   20.8351 N   0  0  0  0  0  0  0  0  0  0  0  0
    8.4871  -16.1214   20.6653 C   0  0  1  0  0  0  0  0  0  0  0  0
    7.5608  -16.3014   19.4947 C   0  0  0  0  0  0  0  0  0  0  0  0
    8.3973  -16.5586   18.2906 C   0  0  0  0  0  0  0  0  0  0  0  0
    9.5028  -15.9955   18.1123 O   0  0  0  0  0  0  0  0  0  0  0  0
    7.7698  -15.7843   21.9256 C   0  0  0  0  0  0  0  0  0  0  0  0
    6.8755  -14.9025   21.8564 O   0  0  0  0  0  0  0  0  0  0  0  0
    7.9426  -17.4527   17.3276 O   0  0  0  0  0  0  0  0  0  0  0  0
    5.8178  -17.6354   23.1567 N   0  0  0  0  0  0  0  0  0  0  0  0
    6.3561  -18.1894   24.3395 C   0  0  0  0  0  0  0  0  0  0  0  0
    6.1000  -19.3860   24.6839 O   0  0  0  0  0  0  0  0  0  0  0  0
    7.2386  -17.3279   25.1795 C   0  0  0  0  0  0  0  0  0  0  0  0
    7.3591  -15.9953   24.4164 C   0  0  2  0  0  0  0  0  0  0  0  0
    8.0356  -16.3882   23.1597 N   0  0  0  0  0  0  0  0  0  0  0  0
    8.2828  -15.1475   25.1933 C   0  0  0  0  0  0  0  0  0  0  0  0
    9.5096  -15.5205   25.2205 O   0  0  0  0  0  0  0  0  0  0  0  0
    7.8782  -13.9501   25.9027 N   0  0  0  0  0  0  0  0  0  0  0  0
    6.5562  -13.4307   25.7167 C   0  0  0  0  0  0  0  0  0  0  0  0
    6.3104  -12.5080   26.8546 C   0  0  0  0  0  0  0  0  0  0  0  0
    7.7067  -11.9464   27.0908 C   0  0  0  0  0  0  0  0  0  0  0  0
    8.6108  -13.1641   26.8243 C   0  0  1  0  0  0  0  0  0  0  0  0
    8.9042  -13.8411   28.1004 C   0  0  0  0  0  0  0  0  0  0  0  0
    9.8143  -13.3195   28.9865 O   0  0  0  0  0  0  0  0  0  0  0  0
    8.3192  -14.9036   28.3804 O   0  0  0  0  0  0  0  0  0  0  0  0
  2  1  1  1
  3  2  1  0
  4  3  1  0
  4  5  2  0
  6  2  1  0
  6  7  2  0
  8  4  1  0
 10 12  1  0
 10  9  1  0
 11 10  2  0
 13 12  1  1
 13 14  1  0
 14  6  1  0
 15 13  1  0
 16 15  2  0
 17 15  1  0
 18 17  1  0
 19 18  1  0
 19 20  1  0
 20 21  1  0
 21 17  1  0
 21 22  1  1
 23 22  1  0
 24 22  2  0
M  END
$$$$
