DNP.pdb
     RDKit          3D

 24 24  0  0  1  0  0  0  0  0999 V2000
    9.7018  -16.6051   20.5322 N   0  0  0  0  0  0  0  0  0  0  0  0
    8.7629  -15.5268   20.5425 C   0  0  1  0  0  0  0  0  0  0  0  0
    7.8270  -15.5314   19.3656 C   0  0  0  0  0  0  0  0  0  0  0  0
    8.6301  -15.8354   18.1496 C   0  0  0  0  0  0  0  0  0  0  0  0
    8.5971  -16.9565   17.5902 O   0  0  0  0  0  0  0  0  0  0  0  0
    8.0543  -15.4025   21.8459 C   0  0  0  0  0  0  0  0  0  0  0  0
    7.2749  -14.4248   21.9823 O   0  0  0  0  0  0  0  0  0  0  0  0
    9.4461  -14.8465   17.6114 O   0  0  0  0  0  0  0  0  0  0  0  0
    5.2269  -18.4185   24.4245 N   0  0  0  0  0  0  0  0  0  0  0  0
    6.5615  -18.3415   23.9681 C   0  0  0  0  0  0  0  0  0  0  0  0
    6.9247  -18.9104   22.8909 O   0  0  0  0  0  0  0  0  0  0  0  0
    7.5404  -17.5700   24.7889 C   0  0  0  0  0  0  0  0  0  0  0  0
    7.5269  -16.1424   24.2106 C   0  0  2  0  0  0  0  0  0  0  0  0
    8.2091  -16.3021   22.9066 N   0  0  0  0  0  0  0  0  0  0  0  0
    8.3881  -15.3256   25.0861 C   0  0  0  0  0  0  0  0  0  0  0  0
    9.6310  -15.6407   25.1147 O   0  0  0  0  0  0  0  0  0  0  0  0
    7.9073  -14.2181   25.8879 N   0  0  0  0  0  0  0  0  0  0  0  0
    6.5575  -13.7649   25.7306 C   0  0  0  0  0  0  0  0  0  0  0  0
    6.2489  -12.9569   26.9383 C   0  0  0  0  0  0  0  0  0  0  0  0
    7.6072  -12.3347   27.2364 C   0  0  0  0  0  0  0  0  0  0  0  0
    8.5849  -13.4697   26.8801 C   0  0  1  0  0  0  0  0  0  0  0  0
    8.9105  -14.2323   28.0987 C   0  0  0  0  0  0  0  0  0  0  0  0
    9.7578  -13.7201   29.0502 O   0  0  0  0  0  0  0  0  0  0  0  0
    8.4111  -15.3598   28.2691 O   0  0  0  0  0  0  0  0  0  0  0  0
  2  1  1  1
  3  2  1  0
  4  3  1  0
  4  5  2  0
  6  2  1  0
  6  7  2  0
  8  4  1  0
 10 12  1  0
 10  9  1  0
 11 10  2  0
 13 12  1  1
 13 14  1  0
 14  6  1  0
 15 13  1  0
 16 15  2  0
 17 15  1  0
 18 17  1  0
 19 18  1  0
 19 20  1  0
 20 21  1  0
 21 17  1  0
 21 22  1  1
 23 22  1  0
 24 22  2  0
M  END
$$$$
