DNP.pdb
     RDKit          3D

 24 24  0  0  1  0  0  0  0  0999 V2000
    9.6922  -17.3220   21.1443 N   0  0  0  0  0  0  0  0  0  0  0  0
    8.7644  -16.3126   20.7388 C   0  0  1  0  0  0  0  0  0  0  0  0
    7.9831  -16.6726   19.5055 C   0  0  0  0  0  0  0  0  0  0  0  0
    8.9082  -17.3700   18.5708 C   0  0  0  0  0  0  0  0  0  0  0  0
    8.6389  -18.4893   18.0753 O   0  0  0  0  0  0  0  0  0  0  0  0
    7.8989  -15.8528   21.8595 C   0  0  0  0  0  0  0  0  0  0  0  0
    7.0492  -14.9630   21.5981 O   0  0  0  0  0  0  0  0  0  0  0  0
   10.1132  -16.7644   18.2321 O   0  0  0  0  0  0  0  0  0  0  0  0
    5.6442  -17.7224   23.0265 N   0  0  0  0  0  0  0  0  0  0  0  0
    6.4647  -18.1128   24.1081 C   0  0  0  0  0  0  0  0  0  0  0  0
    6.8695  -19.3117   24.2304 O   0  0  0  0  0  0  0  0  0  0  0  0
    6.8461  -17.0747   25.1099 C   0  0  0  0  0  0  0  0  0  0  0  0
    7.1829  -15.8154   24.2891 C   0  0  2  0  0  0  0  0  0  0  0  0
    7.9818  -16.3518   23.1642 N   0  0  0  0  0  0  0  0  0  0  0  0
    8.0672  -14.9882   25.1314 C   0  0  0  0  0  0  0  0  0  0  0  0
    9.2912  -15.3632   25.2096 O   0  0  0  0  0  0  0  0  0  0  0  0
    7.6281  -13.8084   25.8494 N   0  0  0  0  0  0  0  0  0  0  0  0
    6.3111  -13.2922   25.6233 C   0  0  0  0  0  0  0  0  0  0  0  0
    6.0158  -12.3951   26.7698 C   0  0  0  0  0  0  0  0  0  0  0  0
    7.3985  -11.8311   27.0716 C   0  0  0  0  0  0  0  0  0  0  0  0
    8.3196  -13.0381   26.8150 C   0  0  1  0  0  0  0  0  0  0  0  0
    8.5677  -13.7403   28.0870 C   0  0  0  0  0  0  0  0  0  0  0  0
    9.3923  -13.2026   29.0444 O   0  0  0  0  0  0  0  0  0  0  0  0
    8.0226  -14.8394   28.2980 O   0  0  0  0  0  0  0  0  0  0  0  0
  2  1  1  1
  3  2  1  0
  4  3  1  0
  4  5  2  0
  6  2  1  0
  6  7  2  0
  8  4  1  0
 10 12  1  0
 10  9  1  0
 11 10  2  0
 13 12  1  1
 13 14  1  0
 14  6  1  0
 15 13  1  0
 16 15  2  0
 17 15  1  0
 18 17  1  0
 19 18  1  0
 19 20  1  0
 20 21  1  0
 21 17  1  0
 21 22  1  1
 23 22  1  0
 24 22  2  0
M  END
$$$$
