DNP.pdb
     RDKit          3D

 24 24  0  0  1  0  0  0  0  0999 V2000
    7.3474  -16.7840   19.4871 N   0  0  0  0  0  0  0  0  0  0  0  0
    7.8043  -15.5844   20.1167 C   0  0  1  0  0  0  0  0  0  0  0  0
    7.6453  -14.3572   19.2627 C   0  0  0  0  0  0  0  0  0  0  0  0
    8.5596  -14.4957   18.0961 C   0  0  0  0  0  0  0  0  0  0  0  0
    8.1684  -14.3292   16.9171 O   0  0  0  0  0  0  0  0  0  0  0  0
    7.2466  -15.4135   21.4865 C   0  0  0  0  0  0  0  0  0  0  0  0
    6.1137  -14.8751   21.5798 O   0  0  0  0  0  0  0  0  0  0  0  0
    9.8937  -14.8206   18.3153 O   0  0  0  0  0  0  0  0  0  0  0  0
    7.2874  -18.0450   26.7199 N   0  0  0  0  0  0  0  0  0  0  0  0
    6.5872  -17.3307   25.7224 C   0  0  0  0  0  0  0  0  0  0  0  0
    5.4926  -16.7379   25.9804 O   0  0  0  0  0  0  0  0  0  0  0  0
    7.1696  -17.2900   24.3491 C   0  0  0  0  0  0  0  0  0  0  0  0
    7.2732  -15.7955   23.9906 C   0  0  2  0  0  0  0  0  0  0  0  0
    7.9073  -15.8144   22.6531 N   0  0  0  0  0  0  0  0  0  0  0  0
    8.2257  -15.1988   24.9457 C   0  0  0  0  0  0  0  0  0  0  0  0
    9.4152  -15.6783   24.9364 O   0  0  0  0  0  0  0  0  0  0  0  0
    7.8877  -14.1286   25.8628 N   0  0  0  0  0  0  0  0  0  0  0  0
    6.5371  -13.6559   25.9309 C   0  0  0  0  0  0  0  0  0  0  0  0
    6.4250  -12.9067   27.2087 C   0  0  0  0  0  0  0  0  0  0  0  0
    7.8225  -12.3124   27.3302 C   0  0  0  0  0  0  0  0  0  0  0  0
    8.7176  -13.4369   26.7774 C   0  0  1  0  0  0  0  0  0  0  0  0
    9.2084  -14.2625   27.8956 C   0  0  0  0  0  0  0  0  0  0  0  0
   10.1213  -13.7682   28.7943 O   0  0  0  0  0  0  0  0  0  0  0  0
    8.7903  -15.4276   28.0281 O   0  0  0  0  0  0  0  0  0  0  0  0
  2  1  1  6
  3  2  1  0
  4  3  1  0
  4  5  2  0
  6  2  1  0
  6  7  2  0
  8  4  1  0
 10 12  1  0
 10  9  1  0
 11 10  2  0
 13 12  1  1
 13 14  1  0
 14  6  1  0
 15 13  1  0
 16 15  2  0
 17 15  1  0
 18 17  1  0
 19 18  1  0
 19 20  1  0
 20 21  1  0
 21 17  1  0
 21 22  1  1
 23 22  1  0
 24 22  2  0
M  END
$$$$
