DNP.pdb
     RDKit          3D

 24 24  0  0  1  0  0  0  0  0999 V2000
   11.9749  -16.2548   19.4953 N   0  0  0  0  0  0  0  0  0  0  0  0
   12.4332  -15.0909   20.1877 C   0  0  1  0  0  0  0  0  0  0  0  0
   13.2249  -14.1485   19.3241 C   0  0  0  0  0  0  0  0  0  0  0  0
   14.4998  -14.8274   18.9637 C   0  0  0  0  0  0  0  0  0  0  0  0
   15.0362  -14.6883   17.8395 O   0  0  0  0  0  0  0  0  0  0  0  0
   11.3429  -14.4107   20.9395 C   0  0  0  0  0  0  0  0  0  0  0  0
   11.6747  -13.4601   21.6933 O   0  0  0  0  0  0  0  0  0  0  0  0
   15.1212  -15.6446   19.9014 O   0  0  0  0  0  0  0  0  0  0  0  0
    8.8789  -12.9524   19.3241 N   0  0  0  0  0  0  0  0  0  0  0  0
    7.7543  -13.7780   19.5458 C   0  0  0  0  0  0  0  0  0  0  0  0
    6.8578  -13.9250   18.6566 O   0  0  0  0  0  0  0  0  0  0  0  0
    7.6453  -14.4773   20.8595 C   0  0  0  0  0  0  0  0  0  0  0  0
    8.9252  -14.1045   21.6311 C   0  0  2  0  0  0  0  0  0  0  0  0
    9.9931  -14.7692   20.8507 N   0  0  0  0  0  0  0  0  0  0  0  0
    8.8322  -14.7671   22.9456 C   0  0  0  0  0  0  0  0  0  0  0  0
    9.2430  -15.9809   23.0003 O   0  0  0  0  0  0  0  0  0  0  0  0
    8.3154  -14.1272   24.1389 N   0  0  0  0  0  0  0  0  0  0  0  0
    7.9794  -12.7350   24.1056 C   0  0  0  0  0  0  0  0  0  0  0  0
    7.1068  -12.4918   25.2829 C   0  0  0  0  0  0  0  0  0  0  0  0
    7.6850  -13.4761   26.2917 C   0  0  0  0  0  0  0  0  0  0  0  0
    8.0512  -14.6860   25.4123 C   0  0  1  0  0  0  0  0  0  0  0  0
    6.9408  -15.6553   25.4311 C   0  0  0  0  0  0  0  0  0  0  0  0
    6.1156  -15.8088   24.3443 O   0  0  0  0  0  0  0  0  0  0  0  0
    6.7458  -16.3459   26.4482 O   0  0  0  0  0  0  0  0  0  0  0  0
  2  1  1  6
  3  2  1  0
  4  3  1  0
  4  5  2  0
  6  2  1  0
  6  7  2  0
  8  4  1  0
 10 12  1  0
 10  9  1  0
 11 10  2  0
 13 12  1  6
 13 14  1  0
 14  6  1  0
 15 13  1  0
 16 15  2  0
 17 15  1  0
 18 17  1  0
 19 18  1  0
 19 20  1  0
 20 21  1  0
 21 17  1  0
 21 22  1  6
 23 22  1  0
 24 22  2  0
M  END
$$$$
