DNP.pdb
     RDKit          3D

 24 24  0  0  1  0  0  0  0  0999 V2000
    9.0473  -15.8398   19.3163 N   0  0  0  0  0  0  0  0  0  0  0  0
    8.4395  -14.6275   19.7692 C   0  0  1  0  0  0  0  0  0  0  0  0
    7.6367  -13.9237   18.7104 C   0  0  0  0  0  0  0  0  0  0  0  0
    8.4394  -13.9264   17.4568 C   0  0  0  0  0  0  0  0  0  0  0  0
    9.6589  -13.6375   17.4437 O   0  0  0  0  0  0  0  0  0  0  0  0
    7.6879  -14.8092   21.0414 C   0  0  0  0  0  0  0  0  0  0  0  0
    6.4429  -14.9648   20.9530 O   0  0  0  0  0  0  0  0  0  0  0  0
    7.8212  -14.2598   16.2567 O   0  0  0  0  0  0  0  0  0  0  0  0
    5.4008  -17.2063   24.7850 N   0  0  0  0  0  0  0  0  0  0  0  0
    6.8097  -17.1072   24.7614 C   0  0  0  0  0  0  0  0  0  0  0  0
    7.5067  -17.3600   25.7941 O   0  0  0  0  0  0  0  0  0  0  0  0
    7.4629  -16.6951   23.4845 C   0  0  0  0  0  0  0  0  0  0  0  0
    7.5546  -15.1588   23.5468 C   0  0  2  0  0  0  0  0  0  0  0  0
    8.2860  -14.8157   22.3064 N   0  0  0  0  0  0  0  0  0  0  0  0
    8.4184  -14.8351   24.6977 C   0  0  0  0  0  0  0  0  0  0  0  0
    9.5464  -15.4432   24.7503 O   0  0  0  0  0  0  0  0  0  0  0  0
    8.0606  -13.8900   25.7367 N   0  0  0  0  0  0  0  0  0  0  0  0
    6.8064  -13.2015   25.6649 C   0  0  0  0  0  0  0  0  0  0  0  0
    6.5486  -12.6683   27.0271 C   0  0  0  0  0  0  0  0  0  0  0  0
    7.9638  -12.3622   27.5009 C   0  0  0  0  0  0  0  0  0  0  0  0
    8.7803  -13.5204   26.8982 C   0  0  1  0  0  0  0  0  0  0  0  0
    8.9118  -14.5954   27.8982 C   0  0  0  0  0  0  0  0  0  0  0  0
    9.7442  -14.4576   28.9815 O   0  0  0  0  0  0  0  0  0  0  0  0
    8.2593  -15.6463   27.7592 O   0  0  0  0  0  0  0  0  0  0  0  0
  2  1  1  6
  3  2  1  0
  4  3  1  0
  4  5  2  0
  6  2  1  0
  6  7  2  0
  8  4  1  0
 10 12  1  0
 10  9  1  0
 11 10  2  0
 13 12  1  6
 13 14  1  0
 14  6  1  0
 15 13  1  0
 16 15  2  0
 17 15  1  0
 18 17  1  0
 19 18  1  0
 19 20  1  0
 20 21  1  0
 21 17  1  0
 21 22  1  1
 23 22  1  0
 24 22  2  0
M  END
$$$$
