DNP.pdb
     RDKit          3D

 24 24  0  0  1  0  0  0  0  0999 V2000
    7.4349  -15.9792   19.1854 N   0  0  0  0  0  0  0  0  0  0  0  0
    7.8435  -14.9312   20.0681 C   0  0  1  0  0  0  0  0  0  0  0  0
    7.6080  -13.5524   19.5164 C   0  0  0  0  0  0  0  0  0  0  0  0
    8.4787  -13.3885   18.3202 C   0  0  0  0  0  0  0  0  0  0  0  0
    8.0102  -13.2760   17.1631 O   0  0  0  0  0  0  0  0  0  0  0  0
    7.3035  -15.1046   21.4446 C   0  0  0  0  0  0  0  0  0  0  0  0
    6.0840  -14.8495   21.6171 O   0  0  0  0  0  0  0  0  0  0  0  0
    9.8590  -13.3586   18.4854 O   0  0  0  0  0  0  0  0  0  0  0  0
    5.7387  -17.4555   25.7073 N   0  0  0  0  0  0  0  0  0  0  0  0
    7.1330  -17.5000   25.4850 C   0  0  0  0  0  0  0  0  0  0  0  0
    7.9448  -17.7467   26.4317 O   0  0  0  0  0  0  0  0  0  0  0  0
    7.6314  -17.2479   24.1012 C   0  0  0  0  0  0  0  0  0  0  0  0
    7.5107  -15.7267   23.8915 C   0  0  2  0  0  0  0  0  0  0  0  0
    8.0704  -15.5294   22.5354 N   0  0  0  0  0  0  0  0  0  0  0  0
    8.4215  -15.0943   24.8642 C   0  0  0  0  0  0  0  0  0  0  0  0
    9.6279  -15.5294   24.8790 O   0  0  0  0  0  0  0  0  0  0  0  0
    8.0261  -14.0367   25.7729 N   0  0  0  0  0  0  0  0  0  0  0  0
    6.6836  -13.5381   25.7362 C   0  0  0  0  0  0  0  0  0  0  0  0
    6.4764  -12.8134   27.0163 C   0  0  0  0  0  0  0  0  0  0  0  0
    7.8691  -12.2503   27.2696 C   0  0  0  0  0  0  0  0  0  0  0  0
    8.7873  -13.3811   26.7701 C   0  0  1  0  0  0  0  0  0  0  0  0
    9.1651  -14.2395   27.9073 C   0  0  0  0  0  0  0  0  0  0  0  0
    8.6772  -15.5178   28.0232 O   0  0  0  0  0  0  0  0  0  0  0  0
    9.9381  -13.7997   28.7783 O   0  0  0  0  0  0  0  0  0  0  0  0
  2  1  1  6
  3  2  1  0
  4  3  1  0
  4  5  2  0
  6  2  1  0
  6  7  2  0
  8  4  1  0
 10 12  1  0
 10  9  1  0
 11 10  2  0
 13 12  1  1
 13 14  1  0
 14  6  1  0
 15 13  1  0
 16 15  2  0
 17 15  1  0
 18 17  1  0
 19 18  1  0
 19 20  1  0
 20 21  1  0
 21 17  1  0
 21 22  1  1
 23 22  1  0
 24 22  2  0
M  END
$$$$
