DNP.pdb
     RDKit          3D

 24 24  0  0  1  0  0  0  0  0999 V2000
    9.1558  -13.7385   18.7486 N   0  0  0  0  0  0  0  0  0  0  0  0
    9.7164  -13.9545   20.0460 C   0  0  1  0  0  0  0  0  0  0  0  0
   10.9318  -13.1142   20.3248 C   0  0  0  0  0  0  0  0  0  0  0  0
   12.1128  -13.8261   19.7641 C   0  0  0  0  0  0  0  0  0  0  0  0
   12.7636  -13.3774   18.7915 O   0  0  0  0  0  0  0  0  0  0  0  0
    8.6957  -13.8739   21.1268 C   0  0  0  0  0  0  0  0  0  0  0  0
    8.0383  -12.8052   21.2143 O   0  0  0  0  0  0  0  0  0  0  0  0
   12.5123  -15.0298   20.3341 O   0  0  0  0  0  0  0  0  0  0  0  0
    6.1199  -15.3449   21.0458 N   0  0  0  0  0  0  0  0  0  0  0  0
    6.0930  -16.3792   22.0077 C   0  0  0  0  0  0  0  0  0  0  0  0
    5.4250  -17.4433   21.8142 O   0  0  0  0  0  0  0  0  0  0  0  0
    6.8739  -16.1887   23.2649 C   0  0  0  0  0  0  0  0  0  0  0  0
    7.4849  -14.7786   23.1597 C   0  0  2  0  0  0  0  0  0  0  0  0
    8.4362  -14.9082   22.0330 N   0  0  0  0  0  0  0  0  0  0  0  0
    8.2593  -14.5622   24.3963 C   0  0  0  0  0  0  0  0  0  0  0  0
    9.3581  -15.2154   24.5001 O   0  0  0  0  0  0  0  0  0  0  0  0
    7.8470  -13.6720   25.4631 N   0  0  0  0  0  0  0  0  0  0  0  0
    6.7128  -12.8179   25.2727 C   0  0  0  0  0  0  0  0  0  0  0  0
    6.2957  -12.3759   26.6281 C   0  0  0  0  0  0  0  0  0  0  0  0
    7.6379  -12.3048   27.3454 C   0  0  0  0  0  0  0  0  0  0  0  0
    8.4010  -13.5049   26.7550 C   0  0  1  0  0  0  0  0  0  0  0  0
    8.2356  -14.6709   27.6415 C   0  0  0  0  0  0  0  0  0  0  0  0
    7.4195  -15.7180   27.2905 O   0  0  0  0  0  0  0  0  0  0  0  0
    8.8439  -14.7081   28.7269 O   0  0  0  0  0  0  0  0  0  0  0  0
  2  1  1  6
  3  2  1  0
  4  3  1  0
  4  5  2  0
  6  2  1  0
  6  7  2  0
  8  4  1  0
 10 12  1  0
 10  9  1  0
 11 10  2  0
 13 12  1  1
 13 14  1  0
 14  6  1  0
 15 13  1  0
 16 15  2  0
 17 15  1  0
 18 17  1  0
 19 18  1  0
 19 20  1  0
 20 21  1  0
 21 17  1  0
 21 22  1  1
 23 22  1  0
 24 22  2  0
M  END
$$$$
