DNP.pdb
     RDKit          3D

 24 24  0  0  1  0  0  0  0  0999 V2000
    9.9567  -14.1043   20.1681 N   0  0  0  0  0  0  0  0  0  0  0  0
    8.6745  -13.4803   20.0654 C   0  0  1  0  0  0  0  0  0  0  0  0
    8.1591  -13.3903   18.6556 C   0  0  0  0  0  0  0  0  0  0  0  0
    8.2729  -14.7430   18.0447 C   0  0  0  0  0  0  0  0  0  0  0  0
    8.7076  -15.7300   18.6832 O   0  0  0  0  0  0  0  0  0  0  0  0
    7.6815  -14.0629   21.0093 C   0  0  0  0  0  0  0  0  0  0  0  0
    6.4765  -14.0552   20.6487 O   0  0  0  0  0  0  0  0  0  0  0  0
    7.8856  -14.9239   16.7216 O   0  0  0  0  0  0  0  0  0  0  0  0
    7.3858  -17.6795   25.2408 N   0  0  0  0  0  0  0  0  0  0  0  0
    7.7294  -16.7694   24.2166 C   0  0  0  0  0  0  0  0  0  0  0  0
    8.9411  -16.5764   23.8842 O   0  0  0  0  0  0  0  0  0  0  0  0
    6.6259  -16.0355   23.5306 C   0  0  0  0  0  0  0  0  0  0  0  0
    7.1075  -14.5763   23.4226 C   0  0  2  0  0  0  0  0  0  0  0  0
    8.0155  -14.6083   22.2540 N   0  0  0  0  0  0  0  0  0  0  0  0
    7.9143  -14.3092   24.6281 C   0  0  0  0  0  0  0  0  0  0  0  0
    9.0443  -14.9116   24.7004 O   0  0  0  0  0  0  0  0  0  0  0  0
    7.5003  -13.4238   25.6982 N   0  0  0  0  0  0  0  0  0  0  0  0
    6.2047  -12.8145   25.6506 C   0  0  0  0  0  0  0  0  0  0  0  0
    5.9176  -12.3443   27.0301 C   0  0  0  0  0  0  0  0  0  0  0  0
    7.3120  -11.9647   27.5125 C   0  0  0  0  0  0  0  0  0  0  0  0
    8.1986  -13.0479   26.8708 C   0  0  1  0  0  0  0  0  0  0  0  0
    8.4013  -14.1448   27.8343 C   0  0  0  0  0  0  0  0  0  0  0  0
    9.2975  -14.0240   28.8676 O   0  0  0  0  0  0  0  0  0  0  0  0
    7.7512  -15.1991   27.7100 O   0  0  0  0  0  0  0  0  0  0  0  0
  2  1  1  6
  3  2  1  0
  4  3  1  0
  4  5  2  0
  6  2  1  0
  6  7  2  0
  8  4  1  0
 10 12  1  0
 10  9  1  0
 11 10  2  0
 13 12  1  1
 13 14  1  0
 14  6  1  0
 15 13  1  0
 16 15  2  0
 17 15  1  0
 18 17  1  0
 19 18  1  0
 19 20  1  0
 20 21  1  0
 21 17  1  0
 21 22  1  1
 23 22  1  0
 24 22  2  0
M  END
$$$$
