TTQ.pdb
     RDKit          3D

 24 23  0  0  1  0  0  0  0  0999 V2000
    8.4613  -19.5815   19.2306 C   0  0  0  0  0  0  0  0  0  0  0  0
    9.3443  -19.0754   18.1280 C   0  0  1  0  0  0  0  0  0  0  0  0
    9.2373  -19.8855   16.9922 O   0  0  0  0  0  0  0  0  0  0  0  0
    9.1338  -17.6258   17.8034 C   0  0  2  0  0  0  0  0  0  0  0  0
   10.0363  -17.2934   16.7073 N   0  0  0  0  0  0  0  0  0  0  0  0
    9.4962  -16.7633   18.9610 C   0  0  0  0  0  0  0  0  0  0  0  0
   10.6965  -16.7296   19.3793 O   0  0  0  0  0  0  0  0  0  0  0  0
    7.6803  -13.1727   20.1624 C   0  0  0  0  0  0  0  0  0  0  0  0
    7.8141  -14.2615   21.1766 C   0  0  1  0  0  0  0  0  0  0  0  0
    6.5972  -14.9238   21.3249 O   0  0  0  0  0  0  0  0  0  0  0  0
    8.9064  -15.2498   20.8371 C   0  0  2  0  0  0  0  0  0  0  0  0
    8.5338  -15.9584   19.6321 N   0  0  0  0  0  0  0  0  0  0  0  0
    9.1713  -16.1835   21.9622 C   0  0  0  0  0  0  0  0  0  0  0  0
    8.7046  -17.3502   21.9801 O   0  0  0  0  0  0  0  0  0  0  0  0
   12.2911  -19.9185   23.6946 N   0  0  0  0  0  0  0  0  0  0  0  0
   12.3323  -19.4262   25.0291 C   0  0  0  0  0  0  0  0  0  0  0  0
   12.6690  -20.2636   25.9111 O   0  0  0  0  0  0  0  0  0  0  0  0
   11.9959  -18.0216   25.3327 C   0  0  0  0  0  0  0  0  0  0  0  0
   11.6576  -17.1801   24.1654 C   0  0  0  0  0  0  0  0  0  0  0  0
   10.2304  -16.7468   24.1808 C   0  0  2  0  0  0  0  0  0  0  0  0
    9.9683  -15.7965   23.0739 N   0  0  0  0  0  0  0  0  0  0  0  0
    9.8154  -16.0912   25.4394 C   0  0  0  0  0  0  0  0  0  0  0  0
    9.8188  -16.7620   26.4962 O   0  0  0  0  0  0  0  0  0  0  0  0
    9.4210  -14.7694   25.5201 O   0  0  0  0  0  0  0  0  0  0  0  0
  2  1  1  1
  2  4  1  0
  2  3  1  0
  4  5  1  6
  6  4  1  0
  7  6  2  0
  9  8  1  6
  9 11  1  0
 10  9  1  0
 11 13  1  0
 11 12  1  6
 12  6  1  0
 13 21  1  0
 14 13  2  0
 16 15  1  0
 16 18  1  0
 17 16  2  0
 19 18  1  0
 20 19  1  1
 20 22  1  0
 21 20  1  0
 22 24  1  0
 23 22  2  0
M  END
$$$$
