TTQ.pdb
     RDKit          3D

 24 23  0  0  1  0  0  0  0  0999 V2000
    7.9983  -17.8666   14.9286 C   0  0  0  0  0  0  0  0  0  0  0  0
    8.6244  -17.2256   16.1322 C   0  0  1  0  0  0  0  0  0  0  0  0
    9.9996  -17.4803   16.1739 O   0  0  0  0  0  0  0  0  0  0  0  0
    8.3221  -15.7618   16.2624 C   0  0  2  0  0  0  0  0  0  0  0  0
    8.9074  -15.0955   15.1049 N   0  0  0  0  0  0  0  0  0  0  0  0
    8.9622  -15.1925   17.4796 C   0  0  0  0  0  0  0  0  0  0  0  0
   10.1515  -14.7460   17.4245 O   0  0  0  0  0  0  0  0  0  0  0  0
    7.1315  -12.7951   20.1125 C   0  0  0  0  0  0  0  0  0  0  0  0
    7.8772  -13.9136   20.7645 C   0  0  1  0  0  0  0  0  0  0  0  0
    6.9847  -14.8979   21.1837 O   0  0  0  0  0  0  0  0  0  0  0  0
    8.9337  -14.5171   19.8674 C   0  0  2  0  0  0  0  0  0  0  0  0
    8.2829  -15.1266   18.7281 N   0  0  0  0  0  0  0  0  0  0  0  0
    9.7840  -15.4915   20.5989 C   0  0  0  0  0  0  0  0  0  0  0  0
    9.7362  -16.7243   20.3600 O   0  0  0  0  0  0  0  0  0  0  0  0
   15.7203  -14.8686   22.5795 N   0  0  0  0  0  0  0  0  0  0  0  0
   15.2682  -16.0846   23.1645 C   0  0  0  0  0  0  0  0  0  0  0  0
   16.1355  -16.7379   23.8078 O   0  0  0  0  0  0  0  0  0  0  0  0
   13.8694  -16.5291   23.0107 C   0  0  0  0  0  0  0  0  0  0  0  0
   12.9765  -15.5904   22.2987 C   0  0  0  0  0  0  0  0  0  0  0  0
   11.5588  -16.0542   22.3004 C   0  0  2  0  0  0  0  0  0  0  0  0
   10.6939  -15.0704   21.6067 N   0  0  0  0  0  0  0  0  0  0  0  0
   10.9979  -16.2665   23.6519 C   0  0  0  0  0  0  0  0  0  0  0  0
   10.3395  -15.3429   24.1813 O   0  0  0  0  0  0  0  0  0  0  0  0
   11.1576  -17.4347   24.3722 O   0  0  0  0  0  0  0  0  0  0  0  0
  2  1  1  6
  2  4  1  0
  2  3  1  0
  4  5  1  6
  6  4  1  0
  7  6  2  0
  9  8  1  6
  9 11  1  0
 10  9  1  0
 11 13  1  0
 11 12  1  6
 12  6  1  0
 13 21  1  0
 14 13  2  0
 16 15  1  0
 16 18  1  0
 17 16  2  0
 19 18  1  0
 20 19  1  1
 20 22  1  0
 21 20  1  0
 22 24  1  0
 23 22  2  0
M  END
$$$$
