TTQ.pdb
     RDKit          3D

 24 23  0  0  1  0  0  0  0  0999 V2000
    8.2752  -17.9425   14.0927 C   0  0  0  0  0  0  0  0  0  0  0  0
    8.9002  -17.1568   15.2079 C   0  0  1  0  0  0  0  0  0  0  0  0
   10.2960  -17.2386   15.1539 O   0  0  0  0  0  0  0  0  0  0  0  0
    8.4254  -15.7356   15.2849 C   0  0  2  0  0  0  0  0  0  0  0  0
    8.8602  -15.0684   14.0634 N   0  0  0  0  0  0  0  0  0  0  0  0
    9.0540  -15.0261   16.4324 C   0  0  0  0  0  0  0  0  0  0  0  0
   10.1785  -14.4505   16.2870 O   0  0  0  0  0  0  0  0  0  0  0  0
    7.2864  -12.6574   19.1451 C   0  0  0  0  0  0  0  0  0  0  0  0
    8.0962  -13.7517   19.7605 C   0  0  1  0  0  0  0  0  0  0  0  0
    7.2549  -14.7604   20.2254 O   0  0  0  0  0  0  0  0  0  0  0  0
    9.1236  -14.3269   18.8125 C   0  0  2  0  0  0  0  0  0  0  0  0
    8.4345  -14.9647   17.7119 N   0  0  0  0  0  0  0  0  0  0  0  0
   10.0421  -15.2684   19.5035 C   0  0  0  0  0  0  0  0  0  0  0  0
    9.9735  -16.5109   19.3284 O   0  0  0  0  0  0  0  0  0  0  0  0
   16.6509  -16.7677   22.1159 N   0  0  0  0  0  0  0  0  0  0  0  0
   15.6101  -15.8047   21.9958 C   0  0  0  0  0  0  0  0  0  0  0  0
   15.9796  -14.5980   21.9863 O   0  0  0  0  0  0  0  0  0  0  0  0
   14.1976  -16.2197   21.8925 C   0  0  0  0  0  0  0  0  0  0  0  0
   13.3121  -15.2910   21.1585 C   0  0  0  0  0  0  0  0  0  0  0  0
   11.8970  -15.7622   21.1396 C   0  0  2  0  0  0  0  0  0  0  0  0
   11.0443  -14.8031   20.3979 N   0  0  0  0  0  0  0  0  0  0  0  0
   11.3050  -15.9392   22.4828 C   0  0  0  0  0  0  0  0  0  0  0  0
   10.5275  -15.0599   22.9177 O   0  0  0  0  0  0  0  0  0  0  0  0
   11.5600  -17.0280   23.2945 O   0  0  0  0  0  0  0  0  0  0  0  0
  2  1  1  6
  2  4  1  0
  2  3  1  0
  4  5  1  6
  6  4  1  0
  7  6  2  0
  9  8  1  6
  9 11  1  0
 10  9  1  0
 11 13  1  0
 11 12  1  6
 12  6  1  0
 13 21  1  0
 14 13  2  0
 16 15  1  0
 16 18  1  0
 17 16  2  0
 19 18  1  0
 20 19  1  1
 20 22  1  0
 21 20  1  0
 22 24  1  0
 23 22  2  0
M  END
$$$$
