TTQ.pdb
     RDKit          3D

 24 23  0  0  1  0  0  0  0  0999 V2000
    8.1960  -17.9916   14.1794 C   0  0  0  0  0  0  0  0  0  0  0  0
    8.9023  -17.1756   15.2218 C   0  0  1  0  0  0  0  0  0  0  0  0
   10.2796  -17.4214   15.1985 O   0  0  0  0  0  0  0  0  0  0  0  0
    8.5944  -15.7088   15.1511 C   0  0  2  0  0  0  0  0  0  0  0  0
    9.1176  -15.2186   13.8814 N   0  0  0  0  0  0  0  0  0  0  0  0
    9.2876  -14.9666   16.2391 C   0  0  0  0  0  0  0  0  0  0  0  0
   10.4272  -14.4436   16.0279 O   0  0  0  0  0  0  0  0  0  0  0  0
    7.4602  -12.6049   19.0183 C   0  0  0  0  0  0  0  0  0  0  0  0
    8.4378  -13.5851   19.5801 C   0  0  1  0  0  0  0  0  0  0  0  0
    7.7580  -14.6608   20.1476 O   0  0  0  0  0  0  0  0  0  0  0  0
    9.4299  -14.0802   18.5527 C   0  0  2  0  0  0  0  0  0  0  0  0
    8.7146  -14.8157   17.5328 N   0  0  0  0  0  0  0  0  0  0  0  0
   10.4991  -14.9038   19.1741 C   0  0  0  0  0  0  0  0  0  0  0  0
   10.4853  -16.1593   19.1203 O   0  0  0  0  0  0  0  0  0  0  0  0
   17.3818  -15.0585   22.0100 N   0  0  0  0  0  0  0  0  0  0  0  0
   16.3414  -14.5288   21.1963 C   0  0  0  0  0  0  0  0  0  0  0  0
   16.6191  -13.4649   20.5770 O   0  0  0  0  0  0  0  0  0  0  0  0
   15.0309  -15.2012   21.1033 C   0  0  0  0  0  0  0  0  0  0  0  0
   13.9371  -14.3896   20.5290 C   0  0  0  0  0  0  0  0  0  0  0  0
   12.6520  -15.1443   20.4659 C   0  0  2  0  0  0  0  0  0  0  0  0
   11.5906  -14.3052   19.8605 N   0  0  0  0  0  0  0  0  0  0  0  0
   12.1605  -15.6045   21.7822 C   0  0  0  0  0  0  0  0  0  0  0  0
   12.7298  -16.5750   22.3307 O   0  0  0  0  0  0  0  0  0  0  0  0
   11.1008  -15.0214   22.4502 O   0  0  0  0  0  0  0  0  0  0  0  0
  2  1  1  6
  2  4  1  0
  2  3  1  0
  4  5  1  6
  6  4  1  0
  7  6  2  0
  9  8  1  6
  9 11  1  0
 10  9  1  0
 11 13  1  0
 11 12  1  6
 12  6  1  0
 13 21  1  0
 14 13  2  0
 16 15  1  0
 16 18  1  0
 17 16  2  0
 19 18  1  0
 20 19  1  1
 20 22  1  0
 21 20  1  0
 22 24  1  0
 23 22  2  0
M  END
$$$$
