TTQ.pdb
     RDKit          3D

 24 23  0  0  1  0  0  0  0  0999 V2000
   11.8375  -14.7365   19.4994 C   0  0  0  0  0  0  0  0  0  0  0  0
   11.0899  -13.9005   18.5025 C   0  0  1  0  0  0  0  0  0  0  0  0
   11.6538  -14.0219   17.2277 O   0  0  0  0  0  0  0  0  0  0  0  0
    9.6117  -14.1569   18.4874 C   0  0  2  0  0  0  0  0  0  0  0  0
    9.0077  -13.1495   17.6234 N   0  0  0  0  0  0  0  0  0  0  0  0
    9.0289  -13.9906   19.8468 C   0  0  0  0  0  0  0  0  0  0  0  0
    8.8548  -12.8263   20.3273 O   0  0  0  0  0  0  0  0  0  0  0  0
    5.7388  -14.7640   21.2175 C   0  0  0  0  0  0  0  0  0  0  0  0
    6.7398  -15.4930   22.0535 C   0  0  1  0  0  0  0  0  0  0  0  0
    6.7820  -16.8348   21.6807 O   0  0  0  0  0  0  0  0  0  0  0  0
    8.1227  -14.8875   21.9758 C   0  0  2  0  0  0  0  0  0  0  0  0
    8.6511  -15.1050   20.6468 N   0  0  0  0  0  0  0  0  0  0  0  0
    9.0233  -15.4396   23.0208 C   0  0  0  0  0  0  0  0  0  0  0  0
    9.9159  -16.2818   22.7500 O   0  0  0  0  0  0  0  0  0  0  0  0
    9.9749  -13.3194   29.0932 N   0  0  0  0  0  0  0  0  0  0  0  0
   10.6208  -14.5835   28.9934 C   0  0  0  0  0  0  0  0  0  0  0  0
   11.2180  -14.9764   30.0334 O   0  0  0  0  0  0  0  0  0  0  0  0
   10.5796  -15.3623   27.7405 C   0  0  0  0  0  0  0  0  0  0  0  0
    9.7714  -14.7751   26.6509 C   0  0  0  0  0  0  0  0  0  0  0  0
    9.8268  -15.5957   25.4064 C   0  0  2  0  0  0  0  0  0  0  0  0
    8.9148  -15.0375   24.3799 N   0  0  0  0  0  0  0  0  0  0  0  0
    9.4599  -17.0141   25.6054 C   0  0  0  0  0  0  0  0  0  0  0  0
    8.2667  -17.3550   25.4411 O   0  0  0  0  0  0  0  0  0  0  0  0
   10.3637  -17.9956   25.9645 O   0  0  0  0  0  0  0  0  0  0  0  0
  2  1  1  1
  2  4  1  0
  2  3  1  0
  4  5  1  6
  6  4  1  0
  7  6  2  0
  9  8  1  6
  9 11  1  0
 10  9  1  0
 11 13  1  0
 11 12  1  6
 12  6  1  0
 13 21  1  0
 14 13  2  0
 16 15  1  0
 16 18  1  0
 17 16  2  0
 19 18  1  0
 20 19  1  1
 20 22  1  0
 21 20  1  0
 22 24  1  0
 23 22  2  0
M  END
$$$$
