TTQ.pdb
     RDKit          3D

 24 23  0  0  1  0  0  0  0  0999 V2000
    8.2660  -18.9585   18.2260 C   0  0  0  0  0  0  0  0  0  0  0  0
    9.1509  -18.6852   17.0454 C   0  0  1  0  0  0  0  0  0  0  0  0
    8.9920  -19.6706   16.0648 O   0  0  0  0  0  0  0  0  0  0  0  0
    8.9950  -17.3037   16.4811 C   0  0  2  0  0  0  0  0  0  0  0  0
    9.9521  -17.1731   15.3888 N   0  0  0  0  0  0  0  0  0  0  0  0
    9.3321  -16.2719   17.4995 C   0  0  0  0  0  0  0  0  0  0  0  0
   10.5474  -16.0387   17.7922 O   0  0  0  0  0  0  0  0  0  0  0  0
    7.8789  -12.5460   20.4157 C   0  0  0  0  0  0  0  0  0  0  0  0
    7.5869  -13.5705   19.3681 C   0  0  1  0  0  0  0  0  0  0  0  0
    7.3089  -12.9429   18.1556 O   0  0  0  0  0  0  0  0  0  0  0  0
    8.7091  -14.5679   19.1926 C   0  0  2  0  0  0  0  0  0  0  0  0
    8.3286  -15.5206   18.1725 N   0  0  0  0  0  0  0  0  0  0  0  0
    9.0498  -15.2419   20.4722 C   0  0  0  0  0  0  0  0  0  0  0  0
    8.2862  -16.0893   20.9997 O   0  0  0  0  0  0  0  0  0  0  0  0
   14.1386  -14.4162   21.1975 N   0  0  0  0  0  0  0  0  0  0  0  0
   13.9533  -15.8230   21.3047 C   0  0  0  0  0  0  0  0  0  0  0  0
   14.7357  -16.5322   20.6137 O   0  0  0  0  0  0  0  0  0  0  0  0
   12.9038  -16.3882   22.1750 C   0  0  0  0  0  0  0  0  0  0  0  0
   12.0033  -15.4031   22.8104 C   0  0  0  0  0  0  0  0  0  0  0  0
   10.5755  -15.6293   22.4429 C   0  0  2  0  0  0  0  0  0  0  0  0
   10.2607  -14.9568   21.1600 N   0  0  0  0  0  0  0  0  0  0  0  0
    9.6110  -15.1405   23.4513 C   0  0  0  0  0  0  0  0  0  0  0  0
    8.8582  -14.1868   23.1503 O   0  0  0  0  0  0  0  0  0  0  0  0
    9.4889  -15.6789   24.7179 O   0  0  0  0  0  0  0  0  0  0  0  0
  2  1  1  1
  2  4  1  0
  2  3  1  0
  4  5  1  6
  6  4  1  0
  7  6  2  0
  9  8  1  1
  9 11  1  0
 10  9  1  0
 11 13  1  0
 11 12  1  6
 12  6  1  0
 13 21  1  0
 14 13  2  0
 16 15  1  0
 16 18  1  0
 17 16  2  0
 19 18  1  0
 20 19  1  1
 20 22  1  0
 21 20  1  0
 22 24  1  0
 23 22  2  0
M  END
$$$$
