TTQ.pdb
     RDKit          3D

 24 23  0  0  1  0  0  0  0  0999 V2000
    8.3924  -20.0733   16.8066 C   0  0  0  0  0  0  0  0  0  0  0  0
    8.9645  -19.0954   17.7904 C   0  0  1  0  0  0  0  0  0  0  0  0
   10.3503  -18.9835   17.6334 O   0  0  0  0  0  0  0  0  0  0  0  0
    8.2891  -17.7557   17.7720 C   0  0  2  0  0  0  0  0  0  0  0  0
    8.5871  -17.1397   16.4844 N   0  0  0  0  0  0  0  0  0  0  0  0
    8.8392  -16.8680   18.8326 C   0  0  0  0  0  0  0  0  0  0  0  0
   10.0053  -16.3760   18.7103 O   0  0  0  0  0  0  0  0  0  0  0  0
    6.7457  -14.0621   20.7467 C   0  0  0  0  0  0  0  0  0  0  0  0
    7.5468  -14.9096   21.6806 C   0  0  1  0  0  0  0  0  0  0  0  0
    6.7118  -15.8111   22.3375 O   0  0  0  0  0  0  0  0  0  0  0  0
    8.6683  -15.6492   20.9875 C   0  0  2  0  0  0  0  0  0  0  0  0
    8.0973  -16.5411   20.0019 N   0  0  0  0  0  0  0  0  0  0  0  0
    9.5254  -16.3799   21.9566 C   0  0  0  0  0  0  0  0  0  0  0  0
    9.5029  -17.6329   22.0490 O   0  0  0  0  0  0  0  0  0  0  0  0
   15.4492  -15.3113   23.3303 N   0  0  0  0  0  0  0  0  0  0  0  0
   15.0659  -16.6810   23.3763 C   0  0  0  0  0  0  0  0  0  0  0  0
   16.0111  -17.5157   23.3251 O   0  0  0  0  0  0  0  0  0  0  0  0
   13.6460  -17.0710   23.4759 C   0  0  0  0  0  0  0  0  0  0  0  0
   12.6908  -15.9587   23.6642 C   0  0  0  0  0  0  0  0  0  0  0  0
   11.2824  -16.4396   23.7652 C   0  0  2  0  0  0  0  0  0  0  0  0
   10.4135  -15.6905   22.8266 N   0  0  0  0  0  0  0  0  0  0  0  0
   10.6979  -16.3070   25.1168 C   0  0  0  0  0  0  0  0  0  0  0  0
    9.8883  -15.3771   25.3329 O   0  0  0  0  0  0  0  0  0  0  0  0
   10.9937  -17.1566   26.1655 O   0  0  0  0  0  0  0  0  0  0  0  0
  2  1  1  6
  2  4  1  0
  2  3  1  0
  4  5  1  6
  6  4  1  0
  7  6  2  0
  9  8  1  6
  9 11  1  0
 10  9  1  0
 11 13  1  0
 11 12  1  6
 12  6  1  0
 13 21  1  0
 14 13  2  0
 16 15  1  0
 16 18  1  0
 17 16  2  0
 19 18  1  0
 20 19  1  1
 20 22  1  0
 21 20  1  0
 22 24  1  0
 23 22  2  0
M  END
$$$$
