TTQ.pdb
     RDKit          3D

 24 23  0  0  1  0  0  0  0  0999 V2000
    6.6558  -19.0021   18.0266 C   0  0  0  0  0  0  0  0  0  0  0  0
    7.7849  -18.9392   17.0402 C   0  0  1  0  0  0  0  0  0  0  0  0
    7.5870  -19.8509   15.9974 O   0  0  0  0  0  0  0  0  0  0  0  0
    8.0635  -17.5563   16.5292 C   0  0  2  0  0  0  0  0  0  0  0  0
    9.1616  -17.6617   15.5756 N   0  0  0  0  0  0  0  0  0  0  0  0
    8.5104  -16.6618   17.6317 C   0  0  0  0  0  0  0  0  0  0  0  0
    9.6604  -16.8168   18.1516 O   0  0  0  0  0  0  0  0  0  0  0  0
    7.8640  -12.5837   20.3313 C   0  0  0  0  0  0  0  0  0  0  0  0
    7.3623  -13.5355   19.2947 C   0  0  1  0  0  0  0  0  0  0  0  0
    7.3990  -12.9322   18.0394 O   0  0  0  0  0  0  0  0  0  0  0  0
    8.1320  -14.8363   19.2696 C   0  0  2  0  0  0  0  0  0  0  0  0
    7.6855  -15.6186   18.1376 N   0  0  0  0  0  0  0  0  0  0  0  0
    7.9867  -15.5850   20.5448 C   0  0  0  0  0  0  0  0  0  0  0  0
    7.2374  -16.5891   20.6430 O   0  0  0  0  0  0  0  0  0  0  0  0
   12.7858  -18.4401   22.0340 N   0  0  0  0  0  0  0  0  0  0  0  0
   11.5466  -19.1286   21.9091 C   0  0  0  0  0  0  0  0  0  0  0  0
   11.6126  -20.3878   21.9619 O   0  0  0  0  0  0  0  0  0  0  0  0
   10.2811  -18.3911   21.7287 C   0  0  0  0  0  0  0  0  0  0  0  0
   10.4115  -16.9254   21.5885 C   0  0  0  0  0  0  0  0  0  0  0  0
    9.4760  -16.1903   22.4882 C   0  0  2  0  0  0  0  0  0  0  0  0
    8.6923  -15.1969   21.7162 N   0  0  0  0  0  0  0  0  0  0  0  0
   10.1460  -15.4697   23.5918 C   0  0  0  0  0  0  0  0  0  0  0  0
    9.9916  -15.8855   24.7624 O   0  0  0  0  0  0  0  0  0  0  0  0
   10.9407  -14.3546   23.4069 O   0  0  0  0  0  0  0  0  0  0  0  0
  2  1  1  1
  2  4  1  0
  2  3  1  0
  4  5  1  6
  6  4  1  0
  7  6  2  0
  9  8  1  1
  9 11  1  0
 10  9  1  0
 11 13  1  0
 11 12  1  6
 12  6  1  0
 13 21  1  0
 14 13  2  0
 16 15  1  0
 16 18  1  0
 17 16  2  0
 19 18  1  0
 20 19  1  6
 20 22  1  0
 21 20  1  0
 22 24  1  0
 23 22  2  0
M  END
$$$$
