TTQ.pdb
     RDKit          3D

 24 23  0  0  1  0  0  0  0  0999 V2000
   10.0826  -17.9722   16.9637 C   0  0  0  0  0  0  0  0  0  0  0  0
    9.8615  -16.8613   15.9794 C   0  0  1  0  0  0  0  0  0  0  0  0
    9.6298  -17.3706   14.6969 O   0  0  0  0  0  0  0  0  0  0  0  0
    8.7978  -15.8886   16.3960 C   0  0  2  0  0  0  0  0  0  0  0  0
    8.6672  -14.9073   15.3254 N   0  0  0  0  0  0  0  0  0  0  0  0
    9.1988  -15.1575   17.6289 C   0  0  0  0  0  0  0  0  0  0  0  0
   10.2049  -14.3801   17.6100 O   0  0  0  0  0  0  0  0  0  0  0  0
    7.3867  -12.7285   19.8969 C   0  0  0  0  0  0  0  0  0  0  0  0
    7.8477  -13.8990   20.7028 C   0  0  1  0  0  0  0  0  0  0  0  0
    6.7786  -14.7594   20.9441 O   0  0  0  0  0  0  0  0  0  0  0  0
    8.9840  -14.6517   20.0489 C   0  0  2  0  0  0  0  0  0  0  0  0
    8.4869  -15.2965   18.8531 N   0  0  0  0  0  0  0  0  0  0  0  0
    9.6037  -15.6288   20.9811 C   0  0  0  0  0  0  0  0  0  0  0  0
    9.3959  -16.8641   20.8821 O   0  0  0  0  0  0  0  0  0  0  0  0
   15.3826  -14.8270   21.7774 N   0  0  0  0  0  0  0  0  0  0  0  0
   14.7504  -15.9288   22.4187 C   0  0  0  0  0  0  0  0  0  0  0  0
   15.4898  -16.6222   23.1705 O   0  0  0  0  0  0  0  0  0  0  0  0
   13.3202  -16.2191   22.1987 C   0  0  0  0  0  0  0  0  0  0  0  0
   12.4212  -15.8848   23.3236 C   0  0  0  0  0  0  0  0  0  0  0  0
   10.9944  -16.1862   23.0101 C   0  0  2  0  0  0  0  0  0  0  0  0
   10.4636  -15.2073   22.0317 N   0  0  0  0  0  0  0  0  0  0  0  0
   10.1031  -16.1660   24.1897 C   0  0  0  0  0  0  0  0  0  0  0  0
    9.3136  -15.2049   24.3301 O   0  0  0  0  0  0  0  0  0  0  0  0
   10.0886  -17.1543   25.1552 O   0  0  0  0  0  0  0  0  0  0  0  0
  2  1  1  1
  2  4  1  0
  2  3  1  0
  4  5  1  6
  6  4  1  0
  7  6  2  0
  9  8  1  6
  9 11  1  0
 10  9  1  0
 11 13  1  0
 11 12  1  6
 12  6  1  0
 13 21  1  0
 14 13  2  0
 16 15  1  0
 16 18  1  0
 17 16  2  0
 19 18  1  0
 20 19  1  1
 20 22  1  0
 21 20  1  0
 22 24  1  0
 23 22  2  0
M  END
$$$$
