TTQ.pdb
     RDKit          3D

 24 23  0  0  1  0  0  0  0  0999 V2000
    7.9027  -18.1028   16.8931 C   0  0  0  0  0  0  0  0  0  0  0  0
    8.8307  -17.5023   15.8782 C   0  0  1  0  0  0  0  0  0  0  0  0
    8.5974  -18.0422   14.6086 O   0  0  0  0  0  0  0  0  0  0  0  0
    8.8158  -16.0021   15.8598 C   0  0  2  0  0  0  0  0  0  0  0  0
    9.7831  -15.5732   14.8566 N   0  0  0  0  0  0  0  0  0  0  0  0
    9.2533  -15.4496   17.1708 C   0  0  0  0  0  0  0  0  0  0  0  0
   10.4657  -15.5626   17.5372 O   0  0  0  0  0  0  0  0  0  0  0  0
    6.4604  -13.8478   20.0571 C   0  0  0  0  0  0  0  0  0  0  0  0
    7.8401  -13.3052   19.8727 C   0  0  1  0  0  0  0  0  0  0  0  0
    8.3073  -12.7785   21.0751 O   0  0  0  0  0  0  0  0  0  0  0  0
    8.8112  -14.3360   19.3440 C   0  0  2  0  0  0  0  0  0  0  0  0
    8.3509  -14.7865   18.0486 N   0  0  0  0  0  0  0  0  0  0  0  0
    8.9786  -15.4690   20.2905 C   0  0  0  0  0  0  0  0  0  0  0  0
    8.4969  -16.6059   20.0565 O   0  0  0  0  0  0  0  0  0  0  0  0
   14.2544  -17.6203   21.2268 N   0  0  0  0  0  0  0  0  0  0  0  0
   13.3858  -18.2933   22.1311 C   0  0  0  0  0  0  0  0  0  0  0  0
   13.9458  -18.8506   23.1152 O   0  0  0  0  0  0  0  0  0  0  0  0
   11.9275  -18.3225   21.9062 C   0  0  0  0  0  0  0  0  0  0  0  0
   11.3498  -17.1002   21.3085 C   0  0  0  0  0  0  0  0  0  0  0  0
   10.3022  -16.4913   22.1785 C   0  0  2  0  0  0  0  0  0  0  0  0
    9.6949  -15.3166   21.5090 N   0  0  0  0  0  0  0  0  0  0  0  0
   10.8013  -16.0449   23.4967 C   0  0  0  0  0  0  0  0  0  0  0  0
   10.0766  -16.2153   24.5030 O   0  0  0  0  0  0  0  0  0  0  0  0
   12.0319  -15.4459   23.6866 O   0  0  0  0  0  0  0  0  0  0  0  0
  2  1  1  1
  2  4  1  0
  2  3  1  0
  4  5  1  6
  6  4  1  0
  7  6  2  0
  9  8  1  1
  9 11  1  0
 10  9  1  0
 11 13  1  0
 11 12  1  6
 12  6  1  0
 13 21  1  0
 14 13  2  0
 16 15  1  0
 16 18  1  0
 17 16  2  0
 19 18  1  0
 20 19  1  6
 20 22  1  0
 21 20  1  0
 22 24  1  0
 23 22  2  0
M  END
$$$$
