TTQ.pdb
     RDKit          3D

 24 23  0  0  1  0  0  0  0  0999 V2000
    3.1741  -19.9910   21.8000 C   0  0  0  0  0  0  0  0  0  0  0  0
    4.4024  -19.2563   21.3493 C   0  0  1  0  0  0  0  0  0  0  0  0
    4.0646  -18.1874   20.5119 O   0  0  0  0  0  0  0  0  0  0  0  0
    5.2948  -18.8246   22.4755 C   0  0  2  0  0  0  0  0  0  0  0  0
    4.5674  -17.8195   23.2417 N   0  0  0  0  0  0  0  0  0  0  0  0
    6.5340  -18.1839   21.9567 C   0  0  0  0  0  0  0  0  0  0  0  0
    7.3706  -18.8660   21.2847 O   0  0  0  0  0  0  0  0  0  0  0  0
    6.7856  -15.1101   19.8632 C   0  0  0  0  0  0  0  0  0  0  0  0
    7.7570  -14.9466   20.9865 C   0  0  1  0  0  0  0  0  0  0  0  0
    7.2753  -14.0086   21.8973 O   0  0  0  0  0  0  0  0  0  0  0  0
    8.0636  -16.2476   21.6923 C   0  0  2  0  0  0  0  0  0  0  0  0
    6.8262  -16.8105   22.1873 N   0  0  0  0  0  0  0  0  0  0  0  0
    9.0553  -16.0603   22.7828 C   0  0  0  0  0  0  0  0  0  0  0  0
    8.7107  -15.7150   23.9410 O   0  0  0  0  0  0  0  0  0  0  0  0
   12.0768  -18.6326   26.8571 N   0  0  0  0  0  0  0  0  0  0  0  0
   11.7027  -19.1764   25.5965 C   0  0  0  0  0  0  0  0  0  0  0  0
   11.7908  -20.4312   25.4940 O   0  0  0  0  0  0  0  0  0  0  0  0
   11.2462  -18.3045   24.4967 C   0  0  0  0  0  0  0  0  0  0  0  0
   11.1420  -16.8667   24.8241 C   0  0  0  0  0  0  0  0  0  0  0  0
   11.4254  -16.0005   23.6433 C   0  0  2  0  0  0  0  0  0  0  0  0
   10.4449  -16.2642   22.5634 N   0  0  0  0  0  0  0  0  0  0  0  0
   12.7772  -16.1853   23.0734 C   0  0  0  0  0  0  0  0  0  0  0  0
   12.8841  -16.6734   21.9258 O   0  0  0  0  0  0  0  0  0  0  0  0
   13.9407  -15.8475   23.7377 O   0  0  0  0  0  0  0  0  0  0  0  0
  2  1  1  1
  2  4  1  0
  2  3  1  0
  4  5  1  1
  6  4  1  0
  7  6  2  0
  9  8  1  6
  9 11  1  0
 10  9  1  0
 11 13  1  0
 11 12  1  1
 12  6  1  0
 13 21  1  0
 14 13  2  0
 16 15  1  0
 16 18  1  0
 17 16  2  0
 19 18  1  0
 20 19  1  1
 20 22  1  0
 21 20  1  0
 22 24  1  0
 23 22  2  0
M  END
$$$$
