TTQ.pdb
     RDKit          3D

 24 23  0  0  1  0  0  0  0  0999 V2000
    9.7211  -16.8298   17.1924 C   0  0  0  0  0  0  0  0  0  0  0  0
    9.4835  -15.4671   16.6107 C   0  0  1  0  0  0  0  0  0  0  0  0
    9.2356  -15.5484   15.2361 O   0  0  0  0  0  0  0  0  0  0  0  0
    8.4229  -14.6824   17.3252 C   0  0  2  0  0  0  0  0  0  0  0  0
    8.2943  -13.4037   16.6364 N   0  0  0  0  0  0  0  0  0  0  0  0
    8.8268  -14.3977   18.7292 C   0  0  0  0  0  0  0  0  0  0  0  0
    9.7439  -13.5502   18.9690 O   0  0  0  0  0  0  0  0  0  0  0  0
    6.5948  -13.4230   21.7240 C   0  0  0  0  0  0  0  0  0  0  0  0
    7.4378  -14.6074   22.0689 C   0  0  1  0  0  0  0  0  0  0  0  0
    6.6703  -15.7688   22.0109 O   0  0  0  0  0  0  0  0  0  0  0  0
    8.6535  -14.7421   21.1807 C   0  0  2  0  0  0  0  0  0  0  0  0
    8.2152  -15.0490   19.8366 N   0  0  0  0  0  0  0  0  0  0  0  0
    9.5993  -15.7656   21.6959 C   0  0  0  0  0  0  0  0  0  0  0  0
    9.7657  -16.8675   21.1150 O   0  0  0  0  0  0  0  0  0  0  0  0
   15.4830  -15.3817   22.5589 N   0  0  0  0  0  0  0  0  0  0  0  0
   15.1787  -16.5061   23.3764 C   0  0  0  0  0  0  0  0  0  0  0  0
   16.1700  -17.0879   23.8975 O   0  0  0  0  0  0  0  0  0  0  0  0
   13.7839  -16.9420   23.5824 C   0  0  0  0  0  0  0  0  0  0  0  0
   12.7467  -16.0361   23.0453 C   0  0  0  0  0  0  0  0  0  0  0  0
   11.3683  -16.5355   23.3206 C   0  0  2  0  0  0  0  0  0  0  0  0
   10.3618  -15.5428   22.8748 N   0  0  0  0  0  0  0  0  0  0  0  0
   11.1081  -16.8250   24.7469 C   0  0  0  0  0  0  0  0  0  0  0  0
   11.7543  -17.7424   25.3017 O   0  0  0  0  0  0  0  0  0  0  0  0
   10.1862  -16.1366   25.5120 O   0  0  0  0  0  0  0  0  0  0  0  0
  2  1  1  1
  2  4  1  0
  2  3  1  0
  4  5  1  6
  6  4  1  0
  7  6  2  0
  9  8  1  6
  9 11  1  0
 10  9  1  0
 11 13  1  0
 11 12  1  6
 12  6  1  0
 13 21  1  0
 14 13  2  0
 16 15  1  0
 16 18  1  0
 17 16  2  0
 19 18  1  0
 20 19  1  1
 20 22  1  0
 21 20  1  0
 22 24  1  0
 23 22  2  0
M  END
$$$$
