TTQ.pdb
     RDKit          3D

 24 23  0  0  1  0  0  0  0  0999 V2000
    9.4433  -18.0176   14.4054 C   0  0  0  0  0  0  0  0  0  0  0  0
    9.6784  -17.4022   15.7536 C   0  0  1  0  0  0  0  0  0  0  0  0
   10.9192  -17.7919   16.2697 O   0  0  0  0  0  0  0  0  0  0  0  0
    9.5064  -15.9118   15.7751 C   0  0  2  0  0  0  0  0  0  0  0  0
   10.5171  -15.3478   14.8883 N   0  0  0  0  0  0  0  0  0  0  0  0
    9.7511  -15.3677   17.1387 C   0  0  0  0  0  0  0  0  0  0  0  0
   10.9356  -15.0969   17.5135 O   0  0  0  0  0  0  0  0  0  0  0  0
    7.3361  -12.7558   18.9592 C   0  0  0  0  0  0  0  0  0  0  0  0
    7.7674  -13.8554   19.8740 C   0  0  1  0  0  0  0  0  0  0  0  0
    6.7142  -14.7449   20.0760 O   0  0  0  0  0  0  0  0  0  0  0  0
    8.9846  -14.5962   19.3693 C   0  0  2  0  0  0  0  0  0  0  0  0
    8.6911  -15.1336   18.0586 N   0  0  0  0  0  0  0  0  0  0  0  0
    9.4111  -15.6601   20.3149 C   0  0  0  0  0  0  0  0  0  0  0  0
    9.5022  -16.8630   19.9629 O   0  0  0  0  0  0  0  0  0  0  0  0
   13.8617  -18.2703   21.5040 N   0  0  0  0  0  0  0  0  0  0  0  0
   13.8176  -16.9480   22.0280 C   0  0  0  0  0  0  0  0  0  0  0  0
   14.9287  -16.3553   22.1120 O   0  0  0  0  0  0  0  0  0  0  0  0
   12.5400  -16.3351   22.4405 C   0  0  0  0  0  0  0  0  0  0  0  0
   11.3303  -17.1414   22.1733 C   0  0  0  0  0  0  0  0  0  0  0  0
   10.0853  -16.4481   22.6140 C   0  0  2  0  0  0  0  0  0  0  0  0
    9.7365  -15.3629   21.6663 N   0  0  0  0  0  0  0  0  0  0  0  0
   10.1763  -15.8500   23.9631 C   0  0  0  0  0  0  0  0  0  0  0  0
   10.1136  -14.6048   24.0741 O   0  0  0  0  0  0  0  0  0  0  0  0
   10.3270  -16.5903   25.1201 O   0  0  0  0  0  0  0  0  0  0  0  0
  2  1  1  6
  2  4  1  0
  2  3  1  0
  4  5  1  6
  6  4  1  0
  7  6  2  0
  9  8  1  6
  9 11  1  0
 10  9  1  0
 11 13  1  0
 11 12  1  6
 12  6  1  0
 13 21  1  0
 14 13  2  0
 16 15  1  0
 16 18  1  0
 17 16  2  0
 19 18  1  0
 20 19  1  6
 20 22  1  0
 21 20  1  0
 22 24  1  0
 23 22  2  0
M  END
$$$$
