TTQ.pdb
     RDKit          3D

 24 23  0  0  1  0  0  0  0  0999 V2000
    8.8264  -12.5655   18.1439 C   0  0  0  0  0  0  0  0  0  0  0  0
    8.8058  -13.3249   19.4379 C   0  0  1  0  0  0  0  0  0  0  0  0
    8.3205  -12.5245   20.4779 O   0  0  0  0  0  0  0  0  0  0  0  0
    8.0818  -14.6366   19.3566 C   0  0  2  0  0  0  0  0  0  0  0  0
    6.7067  -14.3471   18.9671 N   0  0  0  0  0  0  0  0  0  0  0  0
    8.0409  -15.3050   20.6858 C   0  0  0  0  0  0  0  0  0  0  0  0
    7.0286  -15.1594   21.4414 O   0  0  0  0  0  0  0  0  0  0  0  0
   11.3971  -17.4925   22.3261 C   0  0  0  0  0  0  0  0  0  0  0  0
    9.9778  -17.9380   22.4646 C   0  0  1  0  0  0  0  0  0  0  0  0
    9.8223  -18.6672   23.6416 O   0  0  0  0  0  0  0  0  0  0  0  0
    8.9954  -16.7896   22.4303 C   0  0  2  0  0  0  0  0  0  0  0  0
    9.1110  -16.1172   21.1546 N   0  0  0  0  0  0  0  0  0  0  0  0
    9.2058  -15.8530   23.5645 C   0  0  0  0  0  0  0  0  0  0  0  0
    9.9231  -14.8271   23.4536 O   0  0  0  0  0  0  0  0  0  0  0  0
    5.7784  -12.1326   25.8602 N   0  0  0  0  0  0  0  0  0  0  0  0
    6.6034  -12.2404   27.0146 C   0  0  0  0  0  0  0  0  0  0  0  0
    6.5783  -11.2522   27.7993 O   0  0  0  0  0  0  0  0  0  0  0  0
    7.4264  -13.4422   27.2524 C   0  0  0  0  0  0  0  0  0  0  0  0
    7.3644  -14.4764   26.1980 C   0  0  0  0  0  0  0  0  0  0  0  0
    8.7053  -15.0611   25.9063 C   0  0  2  0  0  0  0  0  0  0  0  0
    8.6019  -16.0769   24.8317 N   0  0  0  0  0  0  0  0  0  0  0  0
    9.3449  -15.7081   27.0718 C   0  0  0  0  0  0  0  0  0  0  0  0
    9.5592  -15.0229   28.0971 O   0  0  0  0  0  0  0  0  0  0  0  0
    9.7231  -17.0369   27.0978 O   0  0  0  0  0  0  0  0  0  0  0  0
  2  1  1  6
  2  4  1  0
  2  3  1  0
  4  5  1  1
  6  4  1  0
  7  6  2  0
  9  8  1  1
  9 11  1  0
 10  9  1  0
 11 13  1  0
 11 12  1  6
 12  6  1  0
 13 21  1  0
 14 13  2  0
 16 15  1  0
 16 18  1  0
 17 16  2  0
 19 18  1  0
 20 19  1  1
 20 22  1  0
 21 20  1  0
 22 24  1  0
 23 22  2  0
M  END
$$$$
