TTQ.pdb
     RDKit          3D

 24 23  0  0  1  0  0  0  0  0999 V2000
    8.9655  -19.0239   17.8606 C   0  0  0  0  0  0  0  0  0  0  0  0
    9.0529  -18.1040   16.6784 C   0  0  1  0  0  0  0  0  0  0  0  0
    8.7459  -18.7835   15.4944 O   0  0  0  0  0  0  0  0  0  0  0  0
    8.2446  -16.8489   16.8292 C   0  0  2  0  0  0  0  0  0  0  0  0
    8.3542  -16.1118   15.5758 N   0  0  0  0  0  0  0  0  0  0  0  0
    8.7984  -15.9858   17.9078 C   0  0  0  0  0  0  0  0  0  0  0  0
    9.9199  -15.4079   17.7488 O   0  0  0  0  0  0  0  0  0  0  0  0
    7.1706  -13.0567   19.9908 C   0  0  0  0  0  0  0  0  0  0  0  0
    7.6776  -14.1598   20.8616 C   0  0  1  0  0  0  0  0  0  0  0  0
    6.6166  -14.9618   21.2771 O   0  0  0  0  0  0  0  0  0  0  0  0
    8.7342  -15.0036   20.1859 C   0  0  2  0  0  0  0  0  0  0  0  0
    8.1093  -15.7770   19.1350 N   0  0  0  0  0  0  0  0  0  0  0  0
    9.4461  -15.8738   21.1574 C   0  0  0  0  0  0  0  0  0  0  0  0
    9.1820  -17.0972   21.2699 O   0  0  0  0  0  0  0  0  0  0  0  0
   14.2757  -18.8035   24.0731 N   0  0  0  0  0  0  0  0  0  0  0  0
   14.2245  -17.4210   23.7397 C   0  0  0  0  0  0  0  0  0  0  0  0
   15.1081  -17.0197   22.9330 O   0  0  0  0  0  0  0  0  0  0  0  0
   13.1937  -16.5367   24.3171 C   0  0  0  0  0  0  0  0  0  0  0  0
   12.4753  -15.6789   23.3509 C   0  0  0  0  0  0  0  0  0  0  0  0
   11.1390  -16.2359   22.9916 C   0  0  2  0  0  0  0  0  0  0  0  0
   10.4628  -15.3583   22.0068 N   0  0  0  0  0  0  0  0  0  0  0  0
   10.2269  -16.3993   24.1438 C   0  0  0  0  0  0  0  0  0  0  0  0
    9.3447  -15.5332   24.3396 O   0  0  0  0  0  0  0  0  0  0  0  0
   10.2899  -17.4614   25.0253 O   0  0  0  0  0  0  0  0  0  0  0  0
  2  1  1  1
  2  4  1  0
  2  3  1  0
  4  5  1  6
  6  4  1  0
  7  6  2  0
  9  8  1  6
  9 11  1  0
 10  9  1  0
 11 13  1  0
 11 12  1  6
 12  6  1  0
 13 21  1  0
 14 13  2  0
 16 15  1  0
 16 18  1  0
 17 16  2  0
 19 18  1  0
 20 19  1  1
 20 22  1  0
 21 20  1  0
 22 24  1  0
 23 22  2  0
M  END
$$$$
