TTQ.pdb
     RDKit          3D

 24 23  0  0  1  0  0  0  0  0999 V2000
    8.7670  -19.2100   18.0423 C   0  0  0  0  0  0  0  0  0  0  0  0
    8.9785  -18.3505   16.8307 C   0  0  1  0  0  0  0  0  0  0  0  0
    8.6652  -19.0518   15.6612 O   0  0  0  0  0  0  0  0  0  0  0  0
    8.2712  -17.0289   16.8972 C   0  0  2  0  0  0  0  0  0  0  0  0
    8.5051  -16.3498   15.6283 N   0  0  0  0  0  0  0  0  0  0  0  0
    8.8400  -16.1748   17.9754 C   0  0  0  0  0  0  0  0  0  0  0  0
   10.0140  -15.7003   17.8598 O   0  0  0  0  0  0  0  0  0  0  0  0
    7.1463  -13.1639   19.9587 C   0  0  0  0  0  0  0  0  0  0  0  0
    7.6820  -14.2248   20.8640 C   0  0  1  0  0  0  0  0  0  0  0  0
    6.6380  -15.0191   21.3336 O   0  0  0  0  0  0  0  0  0  0  0  0
    8.7340  -15.0856   20.2026 C   0  0  2  0  0  0  0  0  0  0  0  0
    8.1077  -15.8615   19.1544 N   0  0  0  0  0  0  0  0  0  0  0  0
    9.4303  -15.9546   21.1863 C   0  0  0  0  0  0  0  0  0  0  0  0
    9.1535  -17.1745   21.3068 O   0  0  0  0  0  0  0  0  0  0  0  0
   15.1073  -16.6279   22.4947 N   0  0  0  0  0  0  0  0  0  0  0  0
   14.5906  -17.0955   23.7354 C   0  0  0  0  0  0  0  0  0  0  0  0
   15.3365  -17.8875   24.3752 O   0  0  0  0  0  0  0  0  0  0  0  0
   13.2634  -16.6663   24.2173 C   0  0  0  0  0  0  0  0  0  0  0  0
   12.5064  -15.7864   23.3018 C   0  0  0  0  0  0  0  0  0  0  0  0
   11.1550  -16.3338   22.9872 C   0  0  2  0  0  0  0  0  0  0  0  0
   10.4457  -15.4421   22.0390 N   0  0  0  0  0  0  0  0  0  0  0  0
   10.2866  -16.5072   24.1712 C   0  0  0  0  0  0  0  0  0  0  0  0
    9.4848  -15.5928   24.4676 O   0  0  0  0  0  0  0  0  0  0  0  0
   10.3066  -17.6291   24.9775 O   0  0  0  0  0  0  0  0  0  0  0  0
  2  1  1  1
  2  4  1  0
  2  3  1  0
  4  5  1  6
  6  4  1  0
  7  6  2  0
  9  8  1  6
  9 11  1  0
 10  9  1  0
 11 13  1  0
 11 12  1  6
 12  6  1  0
 13 21  1  0
 14 13  2  0
 16 15  1  0
 16 18  1  0
 17 16  2  0
 19 18  1  0
 20 19  1  1
 20 22  1  0
 21 20  1  0
 22 24  1  0
 23 22  2  0
M  END
$$$$
