KPY.pdb
     RDKit          3D

 29 30  0  0  1  0  0  0  0  0999 V2000
   26.1818  -21.6624  -18.7123 N   0  0  0  0  0  0  0  0  0  0  0  0
   25.6928  -20.6008  -17.8607 C   0  0  1  0  0  0  0  0  0  0  0  0
   24.2114  -20.7145  -17.7307 C   0  0  0  0  0  0  0  0  0  0  0  0
   23.3652  -19.9599  -18.6688 C   0  0  0  0  0  0  0  0  0  0  0  0
   23.1810  -18.5134  -18.3476 C   0  0  0  0  0  0  0  0  0  0  0  0
   22.2500  -17.8424  -19.3716 C   0  0  0  0  0  0  0  0  0  0  0  0
   22.2029  -16.4419  -18.9996 N   0  0  0  0  0  0  0  0  0  0  0  0
   26.3248  -20.7443  -16.5188 C   0  0  0  0  0  0  0  0  0  0  0  0
   26.6176  -21.8955  -16.1248 O   0  0  0  0  0  0  0  0  0  0  0  0
   26.6157  -19.6512  -15.6586 N   0  0  0  0  0  0  0  0  0  0  0  0
   26.3396  -18.2404  -15.8694 C   0  0  0  0  0  0  0  0  0  0  0  0
   27.6226  -17.6218  -15.3032 C   0  0  0  0  0  0  0  0  0  0  0  0
   27.6923  -18.3591  -13.9752 C   0  0  0  0  0  0  0  0  0  0  0  0
   27.2723  -19.7548  -14.3753 C   0  0  1  0  0  0  0  0  0  0  0  0
   26.3343  -20.2512  -13.3235 C   0  0  0  0  0  0  0  0  0  0  0  0
   25.1059  -20.0463  -13.4920 O   0  0  0  0  0  0  0  0  0  0  0  0
   28.6234  -18.0961   -6.5451 O   0  0  0  0  0  0  0  0  0  0  0  0
   28.1092  -19.0632   -7.3869 C   0  0  0  0  0  0  0  0  0  0  0  0
   28.9567  -19.8489   -8.1213 C   0  0  0  0  0  0  0  0  0  0  0  0
   28.4760  -20.8154   -8.9639 C   0  0  0  0  0  0  0  0  0  0  0  0
   27.1040  -21.0097   -9.0823 C   0  0  0  0  0  0  0  0  0  0  0  0
   26.6242  -22.0573  -10.0084 C   0  0  0  0  0  0  0  0  0  0  0  0
   25.8385  -21.4854  -11.1751 C   0  0  2  0  0  0  0  0  0  0  0  0
   26.7561  -20.9267  -12.1716 N   0  0  0  0  0  0  0  0  0  0  0  0
   24.9184  -20.3986  -10.7723 C   0  0  0  0  0  0  0  0  0  0  0  0
   23.6427  -20.6723  -10.2961 O   0  0  0  0  0  0  0  0  0  0  0  0
   26.2524  -20.2176   -8.3423 C   0  0  0  0  0  0  0  0  0  0  0  0
   26.7534  -19.2380   -7.4887 C   0  0  0  0  0  0  0  0  0  0  0  0
   25.2368  -19.1781  -10.8381 O   0  0  0  0  0  0  0  0  0  0  0  0
  2  1  1  6
  3  4  1  0
  3  2  1  0
  5  4  1  0
  6  5  1  0
  7  6  1  0
  8  2  1  0
  8 10  1  0
  9  8  2  0
 10 14  1  0
 11 12  1  0
 11 10  1  0
 12 13  1  0
 14 13  1  0
 14 15  1  1
 15 16  2  0
 17 18  1  0
 18 28  2  0
 19 18  1  0
 19 20  2  0
 20 21  1  0
 21 27  2  0
 21 22  1  0
 23 22  1  1
 23 25  1  0
 24 15  1  0
 24 23  1  0
 25 26  1  0
 28 27  1  0
 29 25  2  0
M  END
$$$$
