KPY.pdb
     RDKit          3D

 29 30  0  0  1  0  0  0  0  0999 V2000
   23.5404  -21.7203  -16.2954 N   0  0  0  0  0  0  0  0  0  0  0  0
   24.2536  -20.6173  -15.6902 C   0  0  1  0  0  0  0  0  0  0  0  0
   23.2758  -19.6813  -15.0638 C   0  0  0  0  0  0  0  0  0  0  0  0
   22.4107  -20.1884  -13.9867 C   0  0  0  0  0  0  0  0  0  0  0  0
   20.9438  -20.1294  -14.2588 C   0  0  0  0  0  0  0  0  0  0  0  0
   20.1444  -20.6415  -13.0487 C   0  0  0  0  0  0  0  0  0  0  0  0
   19.8948  -22.0456  -13.3097 N   0  0  0  0  0  0  0  0  0  0  0  0
   25.1642  -21.1624  -14.6442 C   0  0  0  0  0  0  0  0  0  0  0  0
   24.9600  -22.3264  -14.2325 O   0  0  0  0  0  0  0  0  0  0  0  0
   26.2523  -20.4390  -14.0853 N   0  0  0  0  0  0  0  0  0  0  0  0
   26.6738  -19.0790  -14.3749 C   0  0  0  0  0  0  0  0  0  0  0  0
   28.1964  -19.2548  -14.3626 C   0  0  0  0  0  0  0  0  0  0  0  0
   28.3519  -20.0086  -13.0512 C   0  0  0  0  0  0  0  0  0  0  0  0
   27.1733  -20.9538  -13.0976 C   0  0  1  0  0  0  0  0  0  0  0  0
   26.5605  -20.9613  -11.7350 C   0  0  0  0  0  0  0  0  0  0  0  0
   25.5410  -20.2506  -11.5488 O   0  0  0  0  0  0  0  0  0  0  0  0
   27.8181  -19.4240   -3.2772 O   0  0  0  0  0  0  0  0  0  0  0  0
   27.9344  -19.8667   -4.5806 C   0  0  0  0  0  0  0  0  0  0  0  0
   27.3111  -21.0232   -4.9664 C   0  0  0  0  0  0  0  0  0  0  0  0
   27.4085  -21.4865   -6.2513 C   0  0  0  0  0  0  0  0  0  0  0  0
   28.1516  -20.7764   -7.1881 C   0  0  0  0  0  0  0  0  0  0  0  0
   28.2395  -21.3135   -8.5626 C   0  0  0  0  0  0  0  0  0  0  0  0
   26.8912  -21.3478   -9.2599 C   0  0  2  0  0  0  0  0  0  0  0  0
   27.0642  -21.7153  -10.6678 N   0  0  0  0  0  0  0  0  0  0  0  0
   26.1954  -20.0419   -9.2329 C   0  0  0  0  0  0  0  0  0  0  0  0
   26.7505  -18.9159   -9.8269 O   0  0  0  0  0  0  0  0  0  0  0  0
   28.7787  -19.6124   -6.7978 C   0  0  0  0  0  0  0  0  0  0  0  0
   28.6720  -19.1514   -5.4880 C   0  0  0  0  0  0  0  0  0  0  0  0
   25.0734  -19.8802   -8.6759 O   0  0  0  0  0  0  0  0  0  0  0  0
  2  1  1  1
  3  4  1  0
  3  2  1  0
  5  4  1  0
  6  5  1  0
  7  6  1  0
  8  2  1  0
  8 10  1  0
  9  8  2  0
 10 14  1  0
 11 12  1  0
 11 10  1  0
 12 13  1  0
 14 13  1  0
 14 15  1  1
 15 16  2  0
 17 18  1  0
 18 28  2  0
 19 18  1  0
 19 20  2  0
 20 21  1  0
 21 27  2  0
 21 22  1  0
 23 22  1  6
 23 25  1  0
 24 15  1  0
 24 23  1  0
 25 26  1  0
 28 27  1  0
 29 25  2  0
M  END
$$$$
