KPY.pdb
     RDKit          3D

 29 30  0  0  1  0  0  0  0  0999 V2000
   25.4624  -21.3132  -17.0531 N   0  0  0  0  0  0  0  0  0  0  0  0
   25.8263  -20.1937  -16.2130 C   0  0  1  0  0  0  0  0  0  0  0  0
   24.6517  -19.2870  -16.0622 C   0  0  0  0  0  0  0  0  0  0  0  0
   24.4926  -18.1805  -17.0193 C   0  0  0  0  0  0  0  0  0  0  0  0
   24.5820  -18.5595  -18.4607 C   0  0  0  0  0  0  0  0  0  0  0  0
   24.3576  -17.3329  -19.3612 C   0  0  0  0  0  0  0  0  0  0  0  0
   23.0050  -16.8883  -19.0879 N   0  0  0  0  0  0  0  0  0  0  0  0
   26.2279  -20.7179  -14.8772 C   0  0  0  0  0  0  0  0  0  0  0  0
   25.5382  -21.6308  -14.3701 O   0  0  0  0  0  0  0  0  0  0  0  0
   27.3485  -20.2432  -14.1435 N   0  0  0  0  0  0  0  0  0  0  0  0
   28.2663  -19.1724  -14.4929 C   0  0  0  0  0  0  0  0  0  0  0  0
   29.5923  -19.7846  -14.0280 C   0  0  0  0  0  0  0  0  0  0  0  0
   29.1870  -20.2327  -12.6327 C   0  0  0  0  0  0  0  0  0  0  0  0
   27.7950  -20.7702  -12.8740 C   0  0  1  0  0  0  0  0  0  0  0  0
   26.9352  -20.2863  -11.7520 C   0  0  0  0  0  0  0  0  0  0  0  0
   26.4381  -19.1363  -11.8506 O   0  0  0  0  0  0  0  0  0  0  0  0
   20.9627  -20.3215  -13.5218 O   0  0  0  0  0  0  0  0  0  0  0  0
   21.8630  -20.5968  -12.5110 C   0  0  0  0  0  0  0  0  0  0  0  0
   21.7940  -19.9079  -11.3296 C   0  0  0  0  0  0  0  0  0  0  0  0
   22.6728  -20.1591  -10.3100 C   0  0  0  0  0  0  0  0  0  0  0  0
   23.6564  -21.1295  -10.4680 C   0  0  0  0  0  0  0  0  0  0  0  0
   24.5912  -21.3656   -9.3474 C   0  0  0  0  0  0  0  0  0  0  0  0
   25.8692  -20.5562   -9.4770 C   0  0  2  0  0  0  0  0  0  0  0  0
   26.6607  -21.0466  -10.6084 N   0  0  0  0  0  0  0  0  0  0  0  0
   26.7287  -20.6402   -8.2751 C   0  0  0  0  0  0  0  0  0  0  0  0
   27.9535  -21.2943   -8.3081 O   0  0  0  0  0  0  0  0  0  0  0  0
   23.7245  -21.8219  -11.6580 C   0  0  0  0  0  0  0  0  0  0  0  0
   22.8249  -21.5574  -12.6876 C   0  0  0  0  0  0  0  0  0  0  0  0
   26.4014  -20.1292   -7.1674 O   0  0  0  0  0  0  0  0  0  0  0  0
  2  1  1  6
  3  4  1  0
  3  2  1  0
  5  4  1  0
  6  5  1  0
  7  6  1  0
  8  2  1  0
  8 10  1  0
  9  8  2  0
 10 14  1  0
 11 12  1  0
 11 10  1  0
 12 13  1  0
 14 13  1  0
 14 15  1  1
 15 16  2  0
 17 18  1  0
 18 28  2  0
 19 18  1  0
 19 20  2  0
 20 21  1  0
 21 27  2  0
 21 22  1  0
 23 22  1  1
 23 25  1  0
 24 15  1  0
 24 23  1  0
 25 26  1  0
 28 27  1  0
 29 25  2  0
M  END
$$$$
