KPY.pdb
     RDKit          3D

 29 30  0  0  1  0  0  0  0  0999 V2000
   23.3995  -22.8123  -18.7875 N   0  0  0  0  0  0  0  0  0  0  0  0
   24.1803  -21.6293  -18.5005 C   0  0  1  0  0  0  0  0  0  0  0  0
   23.2652  -20.5119  -18.1282 C   0  0  0  0  0  0  0  0  0  0  0  0
   22.2283  -20.7628  -17.1146 C   0  0  0  0  0  0  0  0  0  0  0  0
   22.4947  -20.1823  -15.7650 C   0  0  0  0  0  0  0  0  0  0  0  0
   21.2140  -19.5701  -15.1730 C   0  0  0  0  0  0  0  0  0  0  0  0
   21.5753  -19.1137  -13.8452 N   0  0  0  0  0  0  0  0  0  0  0  0
   25.0907  -21.9308  -17.3600 C   0  0  0  0  0  0  0  0  0  0  0  0
   24.8036  -22.8944  -16.6149 O   0  0  0  0  0  0  0  0  0  0  0  0
   26.2671  -21.1893  -17.0673 N   0  0  0  0  0  0  0  0  0  0  0  0
   26.7819  -20.0117  -17.7451 C   0  0  0  0  0  0  0  0  0  0  0  0
   28.2825  -20.3238  -17.7362 C   0  0  0  0  0  0  0  0  0  0  0  0
   28.4539  -20.6928  -16.2711 C   0  0  0  0  0  0  0  0  0  0  0  0
   27.2001  -21.4946  -16.0067 C   0  0  1  0  0  0  0  0  0  0  0  0
   26.6726  -21.0619  -14.6775 C   0  0  0  0  0  0  0  0  0  0  0  0
   25.7858  -20.1715  -14.6624 O   0  0  0  0  0  0  0  0  0  0  0  0
   26.7845  -19.4882   -5.9632 O   0  0  0  0  0  0  0  0  0  0  0  0
   26.9581  -20.0466   -7.2147 C   0  0  0  0  0  0  0  0  0  0  0  0
   28.1697  -19.9458   -7.8447 C   0  0  0  0  0  0  0  0  0  0  0  0
   28.3712  -20.4893   -9.0852 C   0  0  0  0  0  0  0  0  0  0  0  0
   27.3326  -21.1576   -9.7245 C   0  0  0  0  0  0  0  0  0  0  0  0
   27.5871  -21.7234  -11.0664 C   0  0  0  0  0  0  0  0  0  0  0  0
   26.8012  -21.0137  -12.1544 C   0  0  2  0  0  0  0  0  0  0  0  0
   27.1156  -21.5967  -13.4614 N   0  0  0  0  0  0  0  0  0  0  0  0
   27.1079  -19.5682  -12.2370 C   0  0  0  0  0  0  0  0  0  0  0  0
   26.1997  -18.6117  -11.8020 O   0  0  0  0  0  0  0  0  0  0  0  0
   26.1135  -21.2580   -9.0889 C   0  0  0  0  0  0  0  0  0  0  0  0
   25.9209  -20.7011   -7.8271 C   0  0  0  0  0  0  0  0  0  0  0  0
   28.1975  -19.1293  -12.7010 O   0  0  0  0  0  0  0  0  0  0  0  0
  2  1  1  1
  3  4  1  0
  3  2  1  0
  5  4  1  0
  6  5  1  0
  7  6  1  0
  8  2  1  0
  8 10  1  0
  9  8  2  0
 10 14  1  0
 11 12  1  0
 11 10  1  0
 12 13  1  0
 14 13  1  0
 14 15  1  1
 15 16  2  0
 17 18  1  0
 18 28  2  0
 19 18  1  0
 19 20  2  0
 20 21  1  0
 21 27  2  0
 21 22  1  0
 23 22  1  1
 23 25  1  0
 24 15  1  0
 24 23  1  0
 25 26  1  0
 28 27  1  0
 29 25  2  0
M  END
$$$$
