KPY.pdb
     RDKit          3D

 29 30  0  0  1  0  0  0  0  0999 V2000
   24.0101  -21.3072  -17.4528 N   0  0  0  0  0  0  0  0  0  0  0  0
   24.3811  -20.1471  -16.6731 C   0  0  1  0  0  0  0  0  0  0  0  0
   23.1575  -19.5479  -16.0663 C   0  0  0  0  0  0  0  0  0  0  0  0
   22.3188  -18.6715  -16.8994 C   0  0  0  0  0  0  0  0  0  0  0  0
   21.1602  -19.3358  -17.5672 C   0  0  0  0  0  0  0  0  0  0  0  0
   20.3018  -18.3055  -18.3205 C   0  0  0  0  0  0  0  0  0  0  0  0
   21.1686  -17.7412  -19.3365 N   0  0  0  0  0  0  0  0  0  0  0  0
   25.3122  -20.5826  -15.5942 C   0  0  0  0  0  0  0  0  0  0  0  0
   25.2579  -21.7734  -15.2134 O   0  0  0  0  0  0  0  0  0  0  0  0
   26.2595  -19.7260  -14.9711 N   0  0  0  0  0  0  0  0  0  0  0  0
   26.5456  -18.3325  -15.2667 C   0  0  0  0  0  0  0  0  0  0  0  0
   28.0717  -18.3294  -15.1253 C   0  0  0  0  0  0  0  0  0  0  0  0
   28.2014  -19.0324  -13.7834 C   0  0  0  0  0  0  0  0  0  0  0  0
   27.1467  -20.1093  -13.8966 C   0  0  1  0  0  0  0  0  0  0  0  0
   26.4262  -20.1597  -12.5887 C   0  0  0  0  0  0  0  0  0  0  0  0
   25.3208  -19.5675  -12.5072 O   0  0  0  0  0  0  0  0  0  0  0  0
   29.3664  -18.0892   -6.0754 O   0  0  0  0  0  0  0  0  0  0  0  0
   28.7446  -19.0414   -6.8597 C   0  0  0  0  0  0  0  0  0  0  0  0
   29.4938  -19.8574   -7.6645 C   0  0  0  0  0  0  0  0  0  0  0  0
   28.9053  -20.8101   -8.4526 C   0  0  0  0  0  0  0  0  0  0  0  0
   27.5226  -20.9589   -8.4419 C   0  0  0  0  0  0  0  0  0  0  0  0
   26.9245  -21.9930   -9.3127 C   0  0  0  0  0  0  0  0  0  0  0  0
   26.0671  -21.3983  -10.4157 C   0  0  2  0  0  0  0  0  0  0  0  0
   26.9203  -20.8289  -11.4621 N   0  0  0  0  0  0  0  0  0  0  0  0
   25.1828  -20.3129   -9.9360 C   0  0  0  0  0  0  0  0  0  0  0  0
   23.9493  -20.5883   -9.3603 O   0  0  0  0  0  0  0  0  0  0  0  0
   26.7700  -20.1364   -7.6312 C   0  0  0  0  0  0  0  0  0  0  0  0
   27.3802  -19.1712   -6.8341 C   0  0  0  0  0  0  0  0  0  0  0  0
   25.4957  -19.0923  -10.0220 O   0  0  0  0  0  0  0  0  0  0  0  0
  2  1  1  1
  3  4  1  0
  3  2  1  0
  5  4  1  0
  6  5  1  0
  7  6  1  0
  8  2  1  0
  8 10  1  0
  9  8  2  0
 10 14  1  0
 11 12  1  0
 11 10  1  0
 12 13  1  0
 14 13  1  0
 14 15  1  1
 15 16  2  0
 17 18  1  0
 18 28  2  0
 19 18  1  0
 19 20  2  0
 20 21  1  0
 21 27  2  0
 21 22  1  0
 23 22  1  1
 23 25  1  0
 24 15  1  0
 24 23  1  0
 25 26  1  0
 28 27  1  0
 29 25  2  0
M  END
$$$$
