KPY.pdb
     RDKit          3D

 29 30  0  0  1  0  0  0  0  0999 V2000
   20.8846  -19.3478  -14.9964 N   0  0  0  0  0  0  0  0  0  0  0  0
   22.3258  -19.2374  -15.0428 C   0  0  1  0  0  0  0  0  0  0  0  0
   22.7120  -17.7971  -15.0156 C   0  0  0  0  0  0  0  0  0  0  0  0
   22.9967  -17.1232  -16.2925 C   0  0  0  0  0  0  0  0  0  0  0  0
   24.3964  -17.2605  -16.7939 C   0  0  0  0  0  0  0  0  0  0  0  0
   24.6262  -16.3615  -18.0205 C   0  0  0  0  0  0  0  0  0  0  0  0
   25.9702  -16.6572  -18.4767 N   0  0  0  0  0  0  0  0  0  0  0  0
   22.8900  -19.9288  -13.8494 C   0  0  0  0  0  0  0  0  0  0  0  0
   22.3024  -19.7880  -12.7535 O   0  0  0  0  0  0  0  0  0  0  0  0
   24.0565  -20.7398  -13.8809 N   0  0  0  0  0  0  0  0  0  0  0  0
   24.9724  -20.9583  -14.9875 C   0  0  0  0  0  0  0  0  0  0  0  0
   25.2530  -22.4558  -14.8202 C   0  0  0  0  0  0  0  0  0  0  0  0
   25.5777  -22.4864  -13.3351 C   0  0  0  0  0  0  0  0  0  0  0  0
   24.5510  -21.5285  -12.7755 C   0  0  1  0  0  0  0  0  0  0  0  0
   25.2487  -20.6742  -11.7676 C   0  0  0  0  0  0  0  0  0  0  0  0
   25.8317  -19.6405  -12.1809 O   0  0  0  0  0  0  0  0  0  0  0  0
   29.5870  -18.7283   -4.3026 O   0  0  0  0  0  0  0  0  0  0  0  0
   28.6922  -19.2408   -5.2218 C   0  0  0  0  0  0  0  0  0  0  0  0
   27.6725  -18.4568   -5.6915 C   0  0  0  0  0  0  0  0  0  0  0  0
   26.7707  -18.9375   -6.6028 C   0  0  0  0  0  0  0  0  0  0  0  0
   26.8844  -20.2440   -7.0655 C   0  0  0  0  0  0  0  0  0  0  0  0
   25.8866  -20.7285   -8.0427 C   0  0  0  0  0  0  0  0  0  0  0  0
   26.2885  -20.4350   -9.4771 C   0  0  2  0  0  0  0  0  0  0  0  0
   25.2825  -20.9690  -10.3990 N   0  0  0  0  0  0  0  0  0  0  0  0
   27.5857  -21.0434   -9.8478 C   0  0  0  0  0  0  0  0  0  0  0  0
   28.7383  -20.2760   -9.9553 O   0  0  0  0  0  0  0  0  0  0  0  0
   27.9115  -21.0319   -6.5914 C   0  0  0  0  0  0  0  0  0  0  0  0
   28.8226  -20.5315   -5.6646 C   0  0  0  0  0  0  0  0  0  0  0  0
   27.7158  -22.2773  -10.0841 O   0  0  0  0  0  0  0  0  0  0  0  0
  2  1  1  1
  3  4  1  0
  3  2  1  0
  5  4  1  0
  6  5  1  0
  7  6  1  0
  8  2  1  0
  8 10  1  0
  9  8  2  0
 10 14  1  0
 11 12  1  0
 11 10  1  0
 12 13  1  0
 14 13  1  0
 14 15  1  1
 15 16  2  0
 17 18  1  0
 18 28  2  0
 19 18  1  0
 19 20  2  0
 20 21  1  0
 21 27  2  0
 21 22  1  0
 23 22  1  1
 23 25  1  0
 24 15  1  0
 24 23  1  0
 25 26  1  0
 28 27  1  0
 29 25  2  0
M  END
$$$$
