KPY.pdb
     RDKit          3D

 29 30  0  0  1  0  0  0  0  0999 V2000
   21.3897  -12.1735  -20.0446 N   0  0  0  0  0  0  0  0  0  0  0  0
   20.2593  -11.7671  -19.2394 C   0  0  1  0  0  0  0  0  0  0  0  0
   20.0495  -12.7597  -18.1460 C   0  0  0  0  0  0  0  0  0  0  0  0
   19.6487  -14.1284  -18.5089 C   0  0  0  0  0  0  0  0  0  0  0  0
   19.3661  -15.0410  -17.3615 C   0  0  0  0  0  0  0  0  0  0  0  0
   18.8632  -16.4057  -17.8621 C   0  0  0  0  0  0  0  0  0  0  0  0
   18.7985  -17.2541  -16.6883 N   0  0  0  0  0  0  0  0  0  0  0  0
   20.5560  -10.4307  -18.6509 C   0  0  0  0  0  0  0  0  0  0  0  0
   21.7542  -10.1206  -18.4655 O   0  0  0  0  0  0  0  0  0  0  0  0
   19.5590   -9.4855  -18.2874 N   0  0  0  0  0  0  0  0  0  0  0  0
   18.1154   -9.6143  -18.3894 C   0  0  0  0  0  0  0  0  0  0  0  0
   17.7455   -8.2008  -18.8523 C   0  0  0  0  0  0  0  0  0  0  0  0
   18.5288   -7.3892  -17.8326 C   0  0  0  0  0  0  0  0  0  0  0  0
   19.8174   -8.1736  -17.7389 C   0  0  1  0  0  0  0  0  0  0  0  0
   20.1815   -8.2517  -16.2919 C   0  0  0  0  0  0  0  0  0  0  0  0
   19.7744   -9.2458  -15.6396 O   0  0  0  0  0  0  0  0  0  0  0  0
   22.4185   -1.2851  -15.7536 O   0  0  0  0  0  0  0  0  0  0  0  0
   22.4673   -2.5890  -15.3003 C   0  0  0  0  0  0  0  0  0  0  0  0
   22.8846   -3.5877  -16.1390 C   0  0  0  0  0  0  0  0  0  0  0  0
   22.9434   -4.8892  -15.7177 C   0  0  0  0  0  0  0  0  0  0  0  0
   22.5746   -5.2121  -14.4162 C   0  0  0  0  0  0  0  0  0  0  0  0
   22.6440   -6.6294  -14.0017 C   0  0  0  0  0  0  0  0  0  0  0  0
   21.3346   -7.3647  -14.2259 C   0  0  2  0  0  0  0  0  0  0  0  0
   20.9468   -7.2792  -15.6363 N   0  0  0  0  0  0  0  0  0  0  0  0
   20.2172   -6.8064  -13.4322 C   0  0  0  0  0  0  0  0  0  0  0  0
   20.0891   -7.0774  -12.0761 O   0  0  0  0  0  0  0  0  0  0  0  0
   22.1546   -4.2055  -13.5732 C   0  0  0  0  0  0  0  0  0  0  0  0
   22.0992   -2.8855  -14.0135 C   0  0  0  0  0  0  0  0  0  0  0  0
   19.3297   -6.0625  -13.9363 O   0  0  0  0  0  0  0  0  0  0  0  0
  2  1  1  6
  3  4  1  0
  3  2  1  0
  5  4  1  0
  6  5  1  0
  7  6  1  0
  8  2  1  0
  8 10  1  0
  9  8  2  0
 10 14  1  0
 11 12  1  0
 11 10  1  0
 12 13  1  0
 14 13  1  0
 14 15  1  1
 15 16  2  0
 17 18  1  0
 18 28  2  0
 19 18  1  0
 19 20  2  0
 20 21  1  0
 21 27  2  0
 21 22  1  0
 23 22  1  6
 23 25  1  0
 24 15  1  0
 24 23  1  0
 25 26  1  0
 28 27  1  0
 29 25  2  0
M  END
$$$$
