KPY.pdb
     RDKit          3D

 29 30  0  0  1  0  0  0  0  0999 V2000
   26.1874  -18.2600  -20.2480 N   0  0  0  0  0  0  0  0  0  0  0  0
   25.9488  -17.4434  -19.0786 C   0  0  1  0  0  0  0  0  0  0  0  0
   24.6804  -16.6799  -19.2597 C   0  0  0  0  0  0  0  0  0  0  0  0
   23.4191  -17.4306  -19.3653 C   0  0  0  0  0  0  0  0  0  0  0  0
   22.1934  -16.6028  -19.5698 C   0  0  0  0  0  0  0  0  0  0  0  0
   20.9376  -17.4900  -19.6106 C   0  0  0  0  0  0  0  0  0  0  0  0
   19.8211  -16.5810  -19.7809 N   0  0  0  0  0  0  0  0  0  0  0  0
   25.8278  -18.3399  -17.8945 C   0  0  0  0  0  0  0  0  0  0  0  0
   25.6432  -19.5612  -18.0958 O   0  0  0  0  0  0  0  0  0  0  0  0
   25.9096  -17.8911  -16.5487 N   0  0  0  0  0  0  0  0  0  0  0  0
   25.9695  -16.5254  -16.0563 C   0  0  0  0  0  0  0  0  0  0  0  0
   26.9888  -16.6864  -14.9230 C   0  0  0  0  0  0  0  0  0  0  0  0
   26.3928  -17.8950  -14.2186 C   0  0  0  0  0  0  0  0  0  0  0  0
   25.9591  -18.7498  -15.3873 C   0  0  1  0  0  0  0  0  0  0  0  0
   24.6079  -19.2953  -15.0568 C   0  0  0  0  0  0  0  0  0  0  0  0
   23.6087  -18.7317  -15.5699 O   0  0  0  0  0  0  0  0  0  0  0  0
   26.2021  -20.0792   -8.3385 O   0  0  0  0  0  0  0  0  0  0  0  0
   25.4906  -20.5407   -9.4289 C   0  0  0  0  0  0  0  0  0  0  0  0
   24.1302  -20.3899   -9.4693 C   0  0  0  0  0  0  0  0  0  0  0  0
   23.3987  -20.8373  -10.5369 C   0  0  0  0  0  0  0  0  0  0  0  0
   24.0402  -21.4572  -11.6038 C   0  0  0  0  0  0  0  0  0  0  0  0
   23.2148  -21.9337  -12.7338 C   0  0  0  0  0  0  0  0  0  0  0  0
   23.0822  -20.8960  -13.8342 C   0  0  2  0  0  0  0  0  0  0  0  0
   24.4059  -20.3931  -14.2112 N   0  0  0  0  0  0  0  0  0  0  0  0
   22.2712  -19.7265  -13.4284 C   0  0  0  0  0  0  0  0  0  0  0  0
   22.8625  -18.5034  -13.1394 O   0  0  0  0  0  0  0  0  0  0  0  0
   25.4098  -21.6084  -11.5613 C   0  0  0  0  0  0  0  0  0  0  0  0
   26.1428  -21.1490  -10.4699 C   0  0  0  0  0  0  0  0  0  0  0  0
   21.0135  -19.7741  -13.3234 O   0  0  0  0  0  0  0  0  0  0  0  0
  2  1  1  6
  3  4  1  0
  3  2  1  0
  5  4  1  0
  6  5  1  0
  7  6  1  0
  8  2  1  0
  8 10  1  0
  9  8  2  0
 10 14  1  0
 11 12  1  0
 11 10  1  0
 12 13  1  0
 14 13  1  0
 14 15  1  1
 15 16  2  0
 17 18  1  0
 18 28  2  0
 19 18  1  0
 19 20  2  0
 20 21  1  0
 21 27  2  0
 21 22  1  0
 23 22  1  1
 23 25  1  0
 24 15  1  0
 24 23  1  0
 25 26  1  0
 28 27  1  0
 29 25  2  0
M  END
$$$$
