KPY.pdb
     RDKit          3D

 29 30  0  0  1  0  0  0  0  0999 V2000
   27.6985  -20.0033  -17.0015 N   0  0  0  0  0  0  0  0  0  0  0  0
   28.2476  -19.4319  -15.7918 C   0  0  1  0  0  0  0  0  0  0  0  0
   27.7867  -18.0196  -15.6593 C   0  0  0  0  0  0  0  0  0  0  0  0
   26.3805  -17.7096  -15.9625 C   0  0  0  0  0  0  0  0  0  0  0  0
   25.9592  -16.3031  -15.6908 C   0  0  0  0  0  0  0  0  0  0  0  0
   24.4616  -16.1163  -15.9872 C   0  0  0  0  0  0  0  0  0  0  0  0
   24.3387  -16.1667  -17.4309 N   0  0  0  0  0  0  0  0  0  0  0  0
   27.7592  -20.2281  -14.6308 C   0  0  0  0  0  0  0  0  0  0  0  0
   26.7394  -20.9361  -14.7882 O   0  0  0  0  0  0  0  0  0  0  0  0
   28.3828  -20.2320  -13.3538 N   0  0  0  0  0  0  0  0  0  0  0  0
   29.5709  -19.5116  -12.9290 C   0  0  0  0  0  0  0  0  0  0  0  0
   30.2418  -20.5784  -12.0567 C   0  0  0  0  0  0  0  0  0  0  0  0
   29.0542  -20.9849  -11.1985 C   0  0  0  0  0  0  0  0  0  0  0  0
   27.9312  -20.9915  -12.2102 C   0  0  1  0  0  0  0  0  0  0  0  0
   26.7499  -20.3464  -11.5615 C   0  0  0  0  0  0  0  0  0  0  0  0
   26.7196  -19.0907  -11.5193 O   0  0  0  0  0  0  0  0  0  0  0  0
   22.6183  -19.1416  -16.2613 O   0  0  0  0  0  0  0  0  0  0  0  0
   22.7820  -19.6040  -14.9699 C   0  0  0  0  0  0  0  0  0  0  0  0
   22.3319  -18.8558  -13.9152 C   0  0  0  0  0  0  0  0  0  0  0  0
   22.4802  -19.2885  -12.6245 C   0  0  0  0  0  0  0  0  0  0  0  0
   23.0978  -20.5084  -12.3706 C   0  0  0  0  0  0  0  0  0  0  0  0
   23.2465  -20.9368  -10.9636 C   0  0  0  0  0  0  0  0  0  0  0  0
   24.5400  -20.4435  -10.3400 C   0  0  2  0  0  0  0  0  0  0  0  0
   25.6870  -21.0682  -11.0045 N   0  0  0  0  0  0  0  0  0  0  0  0
   24.6437  -20.7641   -8.8990 C   0  0  0  0  0  0  0  0  0  0  0  0
   23.8435  -20.1280   -7.9587 O   0  0  0  0  0  0  0  0  0  0  0  0
   23.5506  -21.2602  -13.4337 C   0  0  0  0  0  0  0  0  0  0  0  0
   23.3938  -20.8094  -14.7420 C   0  0  0  0  0  0  0  0  0  0  0  0
   25.4543  -21.6220   -8.4493 O   0  0  0  0  0  0  0  0  0  0  0  0
  2  1  1  6
  3  4  1  0
  3  2  1  0
  5  4  1  0
  6  5  1  0
  7  6  1  0
  8  2  1  0
  8 10  1  0
  9  8  2  0
 10 14  1  0
 11 12  1  0
 11 10  1  0
 12 13  1  0
 14 13  1  0
 14 15  1  1
 15 16  2  0
 17 18  1  0
 18 28  2  0
 19 18  1  0
 19 20  2  0
 20 21  1  0
 21 27  2  0
 21 22  1  0
 23 22  1  6
 23 25  1  0
 24 15  1  0
 24 23  1  0
 25 26  1  0
 28 27  1  0
 29 25  2  0
M  END
$$$$
