KPY.pdb
     RDKit          3D

 29 30  0  0  1  0  0  0  0  0999 V2000
   22.8207  -21.6760  -15.8036 N   0  0  0  0  0  0  0  0  0  0  0  0
   23.4652  -20.5521  -15.1611 C   0  0  1  0  0  0  0  0  0  0  0  0
   22.4391  -19.7319  -14.4547 C   0  0  0  0  0  0  0  0  0  0  0  0
   22.0026  -18.4700  -15.0734 C   0  0  0  0  0  0  0  0  0  0  0  0
   22.0270  -18.4437  -16.5661 C   0  0  0  0  0  0  0  0  0  0  0  0
   21.6035  -17.0624  -17.0935 C   0  0  0  0  0  0  0  0  0  0  0  0
   21.5461  -17.1945  -18.5361 N   0  0  0  0  0  0  0  0  0  0  0  0
   24.4521  -21.0755  -14.1749 C   0  0  0  0  0  0  0  0  0  0  0  0
   24.1973  -22.1596  -13.6040 O   0  0  0  0  0  0  0  0  0  0  0  0
   25.6670  -20.4170  -13.8434 N   0  0  0  0  0  0  0  0  0  0  0  0
   26.1907  -19.1706  -14.3757 C   0  0  0  0  0  0  0  0  0  0  0  0
   27.6778  -19.5237  -14.4895 C   0  0  0  0  0  0  0  0  0  0  0  0
   27.9059  -20.1015  -13.1016 C   0  0  0  0  0  0  0  0  0  0  0  0
   26.6383  -20.8962  -12.8866 C   0  0  1  0  0  0  0  0  0  0  0  0
   26.1910  -20.6413  -11.4840 C   0  0  0  0  0  0  0  0  0  0  0  0
   25.3471  -19.7292  -11.2964 O   0  0  0  0  0  0  0  0  0  0  0  0
   28.6715  -18.7676   -3.3542 O   0  0  0  0  0  0  0  0  0  0  0  0
   28.4417  -19.4487   -4.5339 C   0  0  0  0  0  0  0  0  0  0  0  0
   28.9905  -18.9930   -5.7027 C   0  0  0  0  0  0  0  0  0  0  0  0
   28.7801  -19.6471   -6.8871 C   0  0  0  0  0  0  0  0  0  0  0  0
   27.9964  -20.7957   -6.9131 C   0  0  0  0  0  0  0  0  0  0  0  0
   27.7861  -21.4686   -8.2125 C   0  0  0  0  0  0  0  0  0  0  0  0
   26.6489  -20.8527   -9.0080 C   0  0  2  0  0  0  0  0  0  0  0  0
   26.6633  -21.3638  -10.3812 N   0  0  0  0  0  0  0  0  0  0  0  0
   26.7369  -19.3777   -9.0912 C   0  0  0  0  0  0  0  0  0  0  0  0
   27.6622  -18.7554   -9.9191 O   0  0  0  0  0  0  0  0  0  0  0  0
   27.4446  -21.2529   -5.7355 C   0  0  0  0  0  0  0  0  0  0  0  0
   27.6659  -20.5788   -4.5372 C   0  0  0  0  0  0  0  0  0  0  0  0
   25.9861  -18.6125   -8.4232 O   0  0  0  0  0  0  0  0  0  0  0  0
  2  1  1  1
  3  4  1  0
  3  2  1  0
  5  4  1  0
  6  5  1  0
  7  6  1  0
  8  2  1  0
  8 10  1  0
  9  8  2  0
 10 14  1  0
 11 12  1  0
 11 10  1  0
 12 13  1  0
 14 13  1  0
 14 15  1  1
 15 16  2  0
 17 18  1  0
 18 28  2  0
 19 18  1  0
 19 20  2  0
 20 21  1  0
 21 27  2  0
 21 22  1  0
 23 22  1  1
 23 25  1  0
 24 15  1  0
 24 23  1  0
 25 26  1  0
 28 27  1  0
 29 25  2  0
M  END
$$$$
