KPY.pdb
     RDKit          3D

 29 30  0  0  1  0  0  0  0  0999 V2000
   29.0145  -24.2861  -17.0862 N   0  0  0  0  0  0  0  0  0  0  0  0
   27.5973  -24.5186  -17.2565 C   0  0  1  0  0  0  0  0  0  0  0  0
   27.1688  -25.6332  -16.3628 C   0  0  0  0  0  0  0  0  0  0  0  0
   27.1239  -26.9967  -16.9146 C   0  0  0  0  0  0  0  0  0  0  0  0
   28.4051  -27.7604  -16.8462 C   0  0  0  0  0  0  0  0  0  0  0  0
   28.2551  -29.1369  -17.5156 C   0  0  0  0  0  0  0  0  0  0  0  0
   29.5786  -29.7283  -17.4965 N   0  0  0  0  0  0  0  0  0  0  0  0
   26.8677  -23.2730  -16.8870 C   0  0  0  0  0  0  0  0  0  0  0  0
   27.3901  -22.5120  -16.0420 O   0  0  0  0  0  0  0  0  0  0  0  0
   25.6128  -22.8965  -17.4374 N   0  0  0  0  0  0  0  0  0  0  0  0
   24.7929  -23.6232  -18.3917 C   0  0  0  0  0  0  0  0  0  0  0  0
   24.2998  -22.4661  -19.2675 C   0  0  0  0  0  0  0  0  0  0  0  0
   23.8250  -21.5135  -18.1816 C   0  0  0  0  0  0  0  0  0  0  0  0
   24.9080  -21.6705  -17.1390 C   0  0  1  0  0  0  0  0  0  0  0  0
   24.2319  -21.7424  -15.8086 C   0  0  0  0  0  0  0  0  0  0  0  0
   23.8118  -22.8635  -15.4263 O   0  0  0  0  0  0  0  0  0  0  0  0
   29.5090  -21.3907  -11.8179 O   0  0  0  0  0  0  0  0  0  0  0  0
   28.2118  -20.9761  -12.0497 C   0  0  0  0  0  0  0  0  0  0  0  0
   27.1856  -21.5001  -11.3098 C   0  0  0  0  0  0  0  0  0  0  0  0
   25.8900  -21.1083  -11.5171 C   0  0  0  0  0  0  0  0  0  0  0  0
   25.6016  -20.1619  -12.4945 C   0  0  0  0  0  0  0  0  0  0  0  0
   24.1899  -19.7711  -12.6936 C   0  0  0  0  0  0  0  0  0  0  0  0
   23.4563  -20.7064  -13.6383 C   0  0  2  0  0  0  0  0  0  0  0  0
   24.0466  -20.6307  -14.9773 N   0  0  0  0  0  0  0  0  0  0  0  0
   22.0202  -20.3760  -13.7760 C   0  0  0  0  0  0  0  0  0  0  0  0
   21.1178  -20.6393  -12.7536 O   0  0  0  0  0  0  0  0  0  0  0  0
   26.6359  -19.6357  -13.2385 C   0  0  0  0  0  0  0  0  0  0  0  0
   27.9496  -20.0421  -13.0182 C   0  0  0  0  0  0  0  0  0  0  0  0
   21.5412  -19.8436  -14.8164 O   0  0  0  0  0  0  0  0  0  0  0  0
  2  1  1  1
  3  4  1  0
  3  2  1  0
  5  4  1  0
  6  5  1  0
  7  6  1  0
  8  2  1  0
  8 10  1  0
  9  8  2  0
 10 14  1  0
 11 12  1  0
 11 10  1  0
 12 13  1  0
 14 13  1  0
 14 15  1  1
 15 16  2  0
 17 18  1  0
 18 28  2  0
 19 18  1  0
 19 20  2  0
 20 21  1  0
 21 27  2  0
 21 22  1  0
 23 22  1  1
 23 25  1  0
 24 15  1  0
 24 23  1  0
 25 26  1  0
 28 27  1  0
 29 25  2  0
M  END
$$$$
