KPY.pdb
     RDKit          3D

 29 30  0  0  1  0  0  0  0  0999 V2000
   27.3760  -21.1428  -18.2259 N   0  0  0  0  0  0  0  0  0  0  0  0
   27.3405  -20.2334  -17.1021 C   0  0  1  0  0  0  0  0  0  0  0  0
   26.7542  -18.9329  -17.5373 C   0  0  0  0  0  0  0  0  0  0  0  0
   27.1687  -18.3762  -18.8350 C   0  0  0  0  0  0  0  0  0  0  0  0
   26.1281  -18.3975  -19.9055 C   0  0  0  0  0  0  0  0  0  0  0  0
   26.6473  -17.7167  -21.1833 C   0  0  0  0  0  0  0  0  0  0  0  0
   27.3760  -16.5462  -20.7352 N   0  0  0  0  0  0  0  0  0  0  0  0
   26.4891  -20.8339  -16.0367 C   0  0  0  0  0  0  0  0  0  0  0  0
   25.5832  -21.6254  -16.3817 O   0  0  0  0  0  0  0  0  0  0  0  0
   26.6442  -20.5618  -14.6506 N   0  0  0  0  0  0  0  0  0  0  0  0
   27.6302  -19.7129  -14.0038 C   0  0  0  0  0  0  0  0  0  0  0  0
   27.9497  -20.5575  -12.7653 C   0  0  0  0  0  0  0  0  0  0  0  0
   26.5356  -20.8539  -12.2914 C   0  0  0  0  0  0  0  0  0  0  0  0
   25.8206  -21.1117  -13.5980 C   0  0  1  0  0  0  0  0  0  0  0  0
   24.5001  -20.4168  -13.5221 C   0  0  0  0  0  0  0  0  0  0  0  0
   24.4589  -19.2031  -13.8457 O   0  0  0  0  0  0  0  0  0  0  0  0
   16.3530  -18.1891  -15.1070 O   0  0  0  0  0  0  0  0  0  0  0  0
   17.6200  -18.7261  -14.9860 C   0  0  0  0  0  0  0  0  0  0  0  0
   18.7069  -17.8975  -14.9023 C   0  0  0  0  0  0  0  0  0  0  0  0
   19.9746  -18.4010  -14.7817 C   0  0  0  0  0  0  0  0  0  0  0  0
   20.1714  -19.7772  -14.7427 C   0  0  0  0  0  0  0  0  0  0  0  0
   21.5555  -20.2817  -14.6202 C   0  0  0  0  0  0  0  0  0  0  0  0
   21.9973  -20.4198  -13.1741 C   0  0  2  0  0  0  0  0  0  0  0  0
   23.3195  -21.0484  -13.1117 N   0  0  0  0  0  0  0  0  0  0  0  0
   21.0792  -21.2555  -12.3686 C   0  0  0  0  0  0  0  0  0  0  0  0
   20.0661  -20.6868  -11.6075 O   0  0  0  0  0  0  0  0  0  0  0  0
   19.0760  -20.6098  -14.8273 C   0  0  0  0  0  0  0  0  0  0  0  0
   17.7916  -20.0856  -14.9496 C   0  0  0  0  0  0  0  0  0  0  0  0
   21.1640  -22.5150  -12.3284 O   0  0  0  0  0  0  0  0  0  0  0  0
  2  1  1  6
  3  4  1  0
  3  2  1  0
  5  4  1  0
  6  5  1  0
  7  6  1  0
  8  2  1  0
  8 10  1  0
  9  8  2  0
 10 14  1  0
 11 12  1  0
 11 10  1  0
 12 13  1  0
 14 13  1  0
 14 15  1  1
 15 16  2  0
 17 18  1  0
 18 28  2  0
 19 18  1  0
 19 20  2  0
 20 21  1  0
 21 27  2  0
 21 22  1  0
 23 22  1  6
 23 25  1  0
 24 15  1  0
 24 23  1  0
 25 26  1  0
 28 27  1  0
 29 25  2  0
M  END
$$$$
