KPY.pdb
     RDKit          3D

 29 30  0  0  1  0  0  0  0  0999 V2000
   20.8792  -16.4537  -17.2411 N   0  0  0  0  0  0  0  0  0  0  0  0
   21.4860  -17.6886  -17.6865 C   0  0  1  0  0  0  0  0  0  0  0  0
   22.4377  -17.3986  -18.7977 C   0  0  0  0  0  0  0  0  0  0  0  0
   21.9117  -17.3250  -20.1702 C   0  0  0  0  0  0  0  0  0  0  0  0
   22.9268  -17.0689  -21.2348 C   0  0  0  0  0  0  0  0  0  0  0  0
   22.2507  -16.9260  -22.6088 C   0  0  0  0  0  0  0  0  0  0  0  0
   23.3149  -16.5969  -23.5368 N   0  0  0  0  0  0  0  0  0  0  0  0
   22.2240  -18.2911  -16.5408 C   0  0  0  0  0  0  0  0  0  0  0  0
   22.7785  -17.5204  -15.7255 O   0  0  0  0  0  0  0  0  0  0  0  0
   22.3362  -19.6900  -16.3177 N   0  0  0  0  0  0  0  0  0  0  0  0
   21.8157  -20.7766  -17.1299 C   0  0  0  0  0  0  0  0  0  0  0  0
   21.3441  -21.7378  -16.0332 C   0  0  0  0  0  0  0  0  0  0  0  0
   22.5891  -21.7539  -15.1604 C   0  0  0  0  0  0  0  0  0  0  0  0
   23.0070  -20.3017  -15.1932 C   0  0  1  0  0  0  0  0  0  0  0  0
   24.4909  -20.2739  -15.3648 C   0  0  0  0  0  0  0  0  0  0  0  0
   24.9495  -20.4678  -16.5187 O   0  0  0  0  0  0  0  0  0  0  0  0
   24.9981  -20.8643   -8.4288 O   0  0  0  0  0  0  0  0  0  0  0  0
   25.6305  -20.5261   -9.6095 C   0  0  0  0  0  0  0  0  0  0  0  0
   25.1411  -19.5029  -10.3766 C   0  0  0  0  0  0  0  0  0  0  0  0
   25.7467  -19.1453  -11.5515 C   0  0  0  0  0  0  0  0  0  0  0  0
   26.8796  -19.8278  -11.9813 C   0  0  0  0  0  0  0  0  0  0  0  0
   27.4997  -19.4174  -13.2590 C   0  0  0  0  0  0  0  0  0  0  0  0
   26.8418  -20.0723  -14.4605 C   0  0  2  0  0  0  0  0  0  0  0  0
   25.3844  -20.0444  -14.3112 N   0  0  0  0  0  0  0  0  0  0  0  0
   27.2351  -21.4887  -14.6318 C   0  0  0  0  0  0  0  0  0  0  0  0
   28.4420  -21.8358  -15.2252 O   0  0  0  0  0  0  0  0  0  0  0  0
   27.3708  -20.8578  -11.2078 C   0  0  0  0  0  0  0  0  0  0  0  0
   26.7460  -21.2120  -10.0147 C   0  0  0  0  0  0  0  0  0  0  0  0
   26.5059  -22.4479  -14.2535 O   0  0  0  0  0  0  0  0  0  0  0  0
  2  1  1  1
  3  4  1  0
  3  2  1  0
  5  4  1  0
  6  5  1  0
  7  6  1  0
  8  2  1  0
  8 10  1  0
  9  8  2  0
 10 14  1  0
 11 12  1  0
 11 10  1  0
 12 13  1  0
 14 13  1  0
 14 15  1  6
 15 16  2  0
 17 18  1  0
 18 28  2  0
 19 18  1  0
 19 20  2  0
 20 21  1  0
 21 27  2  0
 21 22  1  0
 23 22  1  1
 23 25  1  0
 24 15  1  0
 24 23  1  0
 25 26  1  0
 28 27  1  0
 29 25  2  0
M  END
$$$$
