KPY.pdb
     RDKit          3D

 29 30  0  0  1  0  0  0  0  0999 V2000
   27.3386  -21.4496  -16.0336 N   0  0  0  0  0  0  0  0  0  0  0  0
   27.1023  -20.5532  -14.9236 C   0  0  1  0  0  0  0  0  0  0  0  0
   26.8474  -19.1790  -15.4442 C   0  0  0  0  0  0  0  0  0  0  0  0
   27.9579  -18.4533  -16.0812 C   0  0  0  0  0  0  0  0  0  0  0  0
   28.6540  -19.1819  -17.1829 C   0  0  0  0  0  0  0  0  0  0  0  0
   29.7296  -18.2927  -17.8296 C   0  0  0  0  0  0  0  0  0  0  0  0
   30.2636  -19.0644  -18.9346 N   0  0  0  0  0  0  0  0  0  0  0  0
   25.9065  -21.0342  -14.1758 C   0  0  0  0  0  0  0  0  0  0  0  0
   25.0637  -21.7242  -14.7920 O   0  0  0  0  0  0  0  0  0  0  0  0
   25.6654  -20.7564  -12.8032 N   0  0  0  0  0  0  0  0  0  0  0  0
   26.4951  -20.0055  -11.8765 C   0  0  0  0  0  0  0  0  0  0  0  0
   26.3360  -20.8579  -10.6126 C   0  0  0  0  0  0  0  0  0  0  0  0
   24.8218  -20.9951  -10.5909 C   0  0  0  0  0  0  0  0  0  0  0  0
   24.5099  -21.1981  -12.0559 C   0  0  1  0  0  0  0  0  0  0  0  0
   23.3091  -20.3665  -12.3701 C   0  0  0  0  0  0  0  0  0  0  0  0
   23.4461  -19.1172  -12.3663 O   0  0  0  0  0  0  0  0  0  0  0  0
   24.0114  -17.6596  -17.9065 O   0  0  0  0  0  0  0  0  0  0  0  0
   23.1262  -18.2710  -17.0399 C   0  0  0  0  0  0  0  0  0  0  0  0
   23.3016  -19.5861  -16.7011 C   0  0  0  0  0  0  0  0  0  0  0  0
   22.4406  -20.2185  -15.8446 C   0  0  0  0  0  0  0  0  0  0  0  0
   21.3658  -19.5207  -15.3042 C   0  0  0  0  0  0  0  0  0  0  0  0
   20.4540  -20.2408  -14.3901 C   0  0  0  0  0  0  0  0  0  0  0  0
   20.8605  -20.0993  -12.9340 C   0  0  2  0  0  0  0  0  0  0  0  0
   22.0521  -20.9086  -12.6653 N   0  0  0  0  0  0  0  0  0  0  0  0
   19.8079  -20.5487  -11.9958 C   0  0  0  0  0  0  0  0  0  0  0  0
   18.7502  -19.7190  -11.6467 O   0  0  0  0  0  0  0  0  0  0  0  0
   21.1906  -18.1969  -15.6465 C   0  0  0  0  0  0  0  0  0  0  0  0
   22.0733  -17.5648  -16.5187 C   0  0  0  0  0  0  0  0  0  0  0  0
   19.8121  -21.6958  -11.4673 O   0  0  0  0  0  0  0  0  0  0  0  0
  2  1  1  6
  3  4  1  0
  3  2  1  0
  5  4  1  0
  6  5  1  0
  7  6  1  0
  8  2  1  0
  8 10  1  0
  9  8  2  0
 10 14  1  0
 11 12  1  0
 11 10  1  0
 12 13  1  0
 14 13  1  0
 14 15  1  6
 15 16  2  0
 17 18  1  0
 18 28  2  0
 19 18  1  0
 19 20  2  0
 20 21  1  0
 21 27  2  0
 21 22  1  0
 23 22  1  6
 23 25  1  0
 24 15  1  0
 24 23  1  0
 25 26  1  0
 28 27  1  0
 29 25  2  0
M  END
$$$$
