KPY.pdb
     RDKit          3D

 29 30  0  0  1  0  0  0  0  0999 V2000
   21.0762  -13.9981  -18.4241 N   0  0  0  0  0  0  0  0  0  0  0  0
   19.8478  -13.2470  -18.2893 C   0  0  1  0  0  0  0  0  0  0  0  0
   19.0108  -13.8573  -17.2163 C   0  0  0  0  0  0  0  0  0  0  0  0
   18.1450  -14.9953  -17.5643 C   0  0  0  0  0  0  0  0  0  0  0  0
   18.7202  -16.3466  -17.2950 C   0  0  0  0  0  0  0  0  0  0  0  0
   17.7153  -17.4501  -17.6665 C   0  0  0  0  0  0  0  0  0  0  0  0
   18.3833  -18.7031  -17.3737 N   0  0  0  0  0  0  0  0  0  0  0  0
   20.1910  -11.8450  -17.9188 C   0  0  0  0  0  0  0  0  0  0  0  0
   21.3245  -11.6228  -17.4373 O   0  0  0  0  0  0  0  0  0  0  0  0
   19.3076  -10.7436  -18.0798 N   0  0  0  0  0  0  0  0  0  0  0  0
   17.9255  -10.7551  -18.5279 C   0  0  0  0  0  0  0  0  0  0  0  0
   17.9113   -9.5000  -19.4074 C   0  0  0  0  0  0  0  0  0  0  0  0
   18.5617   -8.5143  -18.4495 C   0  0  0  0  0  0  0  0  0  0  0  0
   19.6460   -9.3619  -17.8245 C   0  0  1  0  0  0  0  0  0  0  0  0
   19.6486   -9.0647  -16.3603 C   0  0  0  0  0  0  0  0  0  0  0  0
   19.0368   -9.8582  -15.6018 O   0  0  0  0  0  0  0  0  0  0  0  0
   25.3123   -4.5437  -16.8556 O   0  0  0  0  0  0  0  0  0  0  0  0
   24.4486   -5.3270  -16.1148 C   0  0  0  0  0  0  0  0  0  0  0  0
   24.3844   -6.6756  -16.3435 C   0  0  0  0  0  0  0  0  0  0  0  0
   23.5380   -7.4770  -15.6250 C   0  0  0  0  0  0  0  0  0  0  0  0
   22.7252   -6.9203  -14.6434 C   0  0  0  0  0  0  0  0  0  0  0  0
   21.8191   -7.8173  -13.8952 C   0  0  0  0  0  0  0  0  0  0  0  0
   20.3778   -7.7052  -14.3591 C   0  0  2  0  0  0  0  0  0  0  0  0
   20.2941   -7.9552  -15.8004 N   0  0  0  0  0  0  0  0  0  0  0  0
   19.7964   -6.3664  -14.1146 C   0  0  0  0  0  0  0  0  0  0  0  0
   19.4987   -5.5064  -15.1638 O   0  0  0  0  0  0  0  0  0  0  0  0
   22.7910   -5.5625  -14.4147 C   0  0  0  0  0  0  0  0  0  0  0  0
   23.6561   -4.7579  -15.1520 C   0  0  0  0  0  0  0  0  0  0  0  0
   19.5420   -5.9365  -12.9546 O   0  0  0  0  0  0  0  0  0  0  0  0
  2  1  1  1
  3  4  1  0
  3  2  1  0
  5  4  1  0
  6  5  1  0
  7  6  1  0
  8  2  1  0
  8 10  1  0
  9  8  2  0
 10 14  1  0
 11 12  1  0
 11 10  1  0
 12 13  1  0
 14 13  1  0
 14 15  1  1
 15 16  2  0
 17 18  1  0
 18 28  2  0
 19 18  1  0
 19 20  2  0
 20 21  1  0
 21 27  2  0
 21 22  1  0
 23 22  1  6
 23 25  1  0
 24 15  1  0
 24 23  1  0
 25 26  1  0
 28 27  1  0
 29 25  2  0
M  END
$$$$
