MPN.pdb
     RDKit          3D

 24 24  0  0  1  0  0  0  0  0999 V2000
   20.3846  -20.2594  -10.1325 C   0  0  0  0  0  0  0  0  0  0  0  0
   21.2370  -21.4279   -9.0059 S   0  0  0  0  0  0  0  0  0  0  0  0
   23.0279  -21.1168   -9.0439 C   0  0  0  0  0  0  0  0  0  0  0  0
   23.4680  -20.5446  -10.3450 C   0  0  0  0  0  0  0  0  0  0  0  0
   24.9792  -20.4066  -10.3479 C   0  0  2  0  0  0  0  0  0  0  0  0
   25.3838  -19.7027   -9.1743 N   0  0  0  0  0  0  0  0  0  0  0  0
   25.3773  -19.7949  -11.6248 C   0  0  0  0  0  0  0  0  0  0  0  0
   24.9523  -18.6082  -11.8176 O   0  0  0  0  0  0  0  0  0  0  0  0
   26.1626  -20.3890  -12.6252 N   0  0  0  0  0  0  0  0  0  0  0  0
   26.6855  -21.7647  -12.5064 C   0  0  0  0  0  0  0  0  0  0  0  0
   27.5995  -21.9587  -13.6596 C   0  0  0  0  0  0  0  0  0  0  0  0
   27.9914  -20.5351  -14.0518 C   0  0  0  0  0  0  0  0  0  0  0  0
   26.6174  -19.8500  -13.8700 C   0  0  1  0  0  0  0  0  0  0  0  0
   25.8457  -20.2391  -15.0549 C   0  0  0  0  0  0  0  0  0  0  0  0
   25.8416  -21.4869  -15.3422 O   0  0  0  0  0  0  0  0  0  0  0  0
   21.1155  -19.6547  -16.5252 N   0  0  0  0  0  0  0  0  0  0  0  0
   21.4800  -19.5685  -15.1313 C   0  0  0  0  0  0  0  0  0  0  0  0
   20.5594  -19.5891  -14.2619 O   0  0  0  0  0  0  0  0  0  0  0  0
   22.9224  -19.4600  -14.8132 C   0  0  0  0  0  0  0  0  0  0  0  0
   23.6928  -19.4885  -16.1154 C   0  0  2  0  0  0  0  0  0  0  0  0
   25.1179  -19.3574  -15.8848 N   0  0  0  0  0  0  0  0  0  0  0  0
   23.2352  -18.4061  -16.9767 C   0  0  0  0  0  0  0  0  0  0  0  0
   22.4213  -18.5599  -18.0881 O   0  0  0  0  0  0  0  0  0  0  0  0
   23.5873  -17.2185  -16.7263 O   0  0  0  0  0  0  0  0  0  0  0  0
  2  1  1  0
  2  3  1  0
  4  3  1  0
  5  4  1  0
  5  6  1  1
  7  5  1  0
  8  7  2  0
  9  7  1  0
 10  9  1  0
 11 10  1  0
 12 11  1  0
 12 13  1  0
 13  9  1  0
 13 14  1  6
 15 14  2  0
 16 17  1  0
 17 18  2  0
 19 17  1  0
 20 19  1  1
 20 21  1  0
 21 14  1  0
 22 23  1  0
 22 20  1  0
 24 22  2  0
M  END
$$$$
