MPN.pdb
     RDKit          3D

 24 24  0  0  1  0  0  0  0  0999 V2000
   24.1844  -30.7096  -22.6639 C   0  0  0  0  0  0  0  0  0  0  0  0
   25.5928  -29.8396  -21.8763 S   0  0  0  0  0  0  0  0  0  0  0  0
   25.6238  -30.2127  -20.0971 C   0  0  0  0  0  0  0  0  0  0  0  0
   25.9930  -31.6292  -19.8299 C   0  0  0  0  0  0  0  0  0  0  0  0
   27.4602  -31.7029  -19.4495 C   0  0  2  0  0  0  0  0  0  0  0  0
   28.2457  -31.7719  -20.6389 N   0  0  0  0  0  0  0  0  0  0  0  0
   27.6305  -32.8213  -18.5097 C   0  0  0  0  0  0  0  0  0  0  0  0
   27.6378  -33.9819  -19.0378 O   0  0  0  0  0  0  0  0  0  0  0  0
   27.7798  -32.7251  -17.1173 N   0  0  0  0  0  0  0  0  0  0  0  0
   27.8052  -31.4277  -16.4130 C   0  0  0  0  0  0  0  0  0  0  0  0
   28.1539  -31.7314  -15.0027 C   0  0  0  0  0  0  0  0  0  0  0  0
   28.8558  -33.0856  -15.0891 C   0  0  0  0  0  0  0  0  0  0  0  0
   27.9470  -33.7594  -16.1430 C   0  0  1  0  0  0  0  0  0  0  0  0
   26.7393  -34.1433  -15.4048 C   0  0  0  0  0  0  0  0  0  0  0  0
   25.8464  -33.2354  -15.2703 O   0  0  0  0  0  0  0  0  0  0  0  0
   22.8838  -38.2718  -13.8155 N   0  0  0  0  0  0  0  0  0  0  0  0
   23.1399  -36.9168  -14.2416 C   0  0  0  0  0  0  0  0  0  0  0  0
   22.2892  -36.0220  -13.9595 O   0  0  0  0  0  0  0  0  0  0  0  0
   24.3942  -36.6664  -14.9881 C   0  0  0  0  0  0  0  0  0  0  0  0
   25.2599  -35.7468  -14.1545 C   0  0  2  0  0  0  0  0  0  0  0  0
   26.4910  -35.4164  -14.8449 N   0  0  0  0  0  0  0  0  0  0  0  0
   25.5693  -36.3877  -12.8831 C   0  0  0  0  0  0  0  0  0  0  0  0
   25.0434  -36.0193  -11.6546 O   0  0  0  0  0  0  0  0  0  0  0  0
   26.3776  -37.3586  -12.8545 O   0  0  0  0  0  0  0  0  0  0  0  0
  2  1  1  0
  2  3  1  0
  4  3  1  0
  5  4  1  0
  5  6  1  6
  7  5  1  0
  8  7  2  0
  9  7  1  0
 10  9  1  0
 11 10  1  0
 12 11  1  0
 12 13  1  0
 13  9  1  0
 13 14  1  1
 15 14  2  0
 16 17  1  0
 17 18  2  0
 19 17  1  0
 20 19  1  6
 20 21  1  0
 21 14  1  0
 22 23  1  0
 22 20  1  0
 24 22  2  0
M  END
$$$$
