MPN.pdb
     RDKit          3D

 24 24  0  0  1  0  0  0  0  0999 V2000
   21.0147  -20.9270  -10.2773 C   0  0  0  0  0  0  0  0  0  0  0  0
   21.6999  -21.2268   -8.6034 S   0  0  0  0  0  0  0  0  0  0  0  0
   23.5062  -21.0216   -8.6368 C   0  0  0  0  0  0  0  0  0  0  0  0
   23.9815  -20.4671   -9.9332 C   0  0  0  0  0  0  0  0  0  0  0  0
   25.4976  -20.5164   -9.9752 C   0  0  2  0  0  0  0  0  0  0  0  0
   26.0131  -20.0185   -8.7412 N   0  0  0  0  0  0  0  0  0  0  0  0
   25.9422  -19.8048  -11.1830 C   0  0  0  0  0  0  0  0  0  0  0  0
   25.9760  -18.5338  -11.0865 O   0  0  0  0  0  0  0  0  0  0  0  0
   26.3210  -20.3877  -12.4025 N   0  0  0  0  0  0  0  0  0  0  0  0
   26.2408  -21.8425  -12.6415 C   0  0  0  0  0  0  0  0  0  0  0  0
   26.8872  -22.0800  -13.9564 C   0  0  0  0  0  0  0  0  0  0  0  0
   27.7925  -20.8628  -14.1375 C   0  0  0  0  0  0  0  0  0  0  0  0
   26.8436  -19.7745  -13.5848 C   0  0  1  0  0  0  0  0  0  0  0  0
   25.8775  -19.5380  -14.6626 C   0  0  0  0  0  0  0  0  0  0  0  0
   25.0141  -20.4626  -14.8607 O   0  0  0  0  0  0  0  0  0  0  0  0
   21.8601  -16.0824  -15.6824 N   0  0  0  0  0  0  0  0  0  0  0  0
   23.1230  -15.9952  -16.3756 C   0  0  0  0  0  0  0  0  0  0  0  0
   23.1369  -15.5290  -17.5530 O   0  0  0  0  0  0  0  0  0  0  0  0
   24.3273  -16.4635  -15.6520 C   0  0  0  0  0  0  0  0  0  0  0  0
   24.5989  -17.8924  -16.0698 C   0  0  2  0  0  0  0  0  0  0  0  0
   25.8273  -18.3870  -15.4803 N   0  0  0  0  0  0  0  0  0  0  0  0
   24.6886  -17.9674  -17.5221 C   0  0  0  0  0  0  0  0  0  0  0  0
   23.6809  -18.4149  -18.3621 O   0  0  0  0  0  0  0  0  0  0  0  0
   25.7528  -17.6074  -18.1006 O   0  0  0  0  0  0  0  0  0  0  0  0
  2  1  1  0
  2  3  1  0
  4  3  1  0
  5  4  1  0
  5  6  1  1
  7  5  1  0
  8  7  2  0
  9  7  1  0
 10  9  1  0
 11 10  1  0
 12 11  1  0
 12 13  1  0
 13  9  1  0
 13 14  1  6
 15 14  2  0
 16 17  1  0
 17 18  2  0
 19 17  1  0
 20 19  1  6
 20 21  1  0
 21 14  1  0
 22 23  1  0
 22 20  1  0
 24 22  2  0
M  END
$$$$
