MPN.pdb
     RDKit          3D

 24 24  0  0  1  0  0  0  0  0999 V2000
   18.9884  -18.1184  -17.1586 C   0  0  0  0  0  0  0  0  0  0  0  0
   19.3964  -16.3924  -16.6944 S   0  0  0  0  0  0  0  0  0  0  0  0
   20.9930  -15.9236  -17.4270 C   0  0  0  0  0  0  0  0  0  0  0  0
   22.0893  -16.8391  -17.0097 C   0  0  0  0  0  0  0  0  0  0  0  0
   23.3305  -16.5441  -17.8313 C   0  0  2  0  0  0  0  0  0  0  0  0
   23.0151  -16.6833  -19.2161 N   0  0  0  0  0  0  0  0  0  0  0  0
   24.4172  -17.4032  -17.3375 C   0  0  0  0  0  0  0  0  0  0  0  0
   24.6295  -18.4604  -18.0181 O   0  0  0  0  0  0  0  0  0  0  0  0
   25.2195  -17.1680  -16.2100 N   0  0  0  0  0  0  0  0  0  0  0  0
   25.0793  -15.9552  -15.3796 C   0  0  0  0  0  0  0  0  0  0  0  0
   26.2029  -15.9876  -14.4104 C   0  0  0  0  0  0  0  0  0  0  0  0
   27.2341  -16.8908  -15.0848 C   0  0  0  0  0  0  0  0  0  0  0  0
   26.2763  -17.9599  -15.6595 C   0  0  1  0  0  0  0  0  0  0  0  0
   25.9160  -18.7961  -14.5098 C   0  0  0  0  0  0  0  0  0  0  0  0
   25.4990  -18.1773  -13.4693 O   0  0  0  0  0  0  0  0  0  0  0  0
   26.8805  -20.8463  -10.1382 N   0  0  0  0  0  0  0  0  0  0  0  0
   26.7111  -20.8711  -11.5713 C   0  0  0  0  0  0  0  0  0  0  0  0
   27.6822  -21.2516  -12.2896 O   0  0  0  0  0  0  0  0  0  0  0  0
   25.3979  -20.4438  -12.1063 C   0  0  0  0  0  0  0  0  0  0  0  0
   25.2566  -21.0047  -13.5046 C   0  0  2  0  0  0  0  0  0  0  0  0
   25.9901  -20.2063  -14.4668 N   0  0  0  0  0  0  0  0  0  0  0  0
   23.8479  -21.0439  -13.8745 C   0  0  0  0  0  0  0  0  0  0  0  0
   23.2835  -20.3629  -14.9417 O   0  0  0  0  0  0  0  0  0  0  0  0
   23.0434  -21.7405  -13.1930 O   0  0  0  0  0  0  0  0  0  0  0  0
  2  1  1  0
  2  3  1  0
  4  3  1  0
  5  4  1  0
  5  6  1  6
  7  5  1  0
  8  7  2  0
  9  7  1  0
 10  9  1  0
 11 10  1  0
 12 11  1  0
 12 13  1  0
 13  9  1  0
 13 14  1  1
 15 14  2  0
 16 17  1  0
 17 18  2  0
 19 17  1  0
 20 19  1  1
 20 21  1  0
 21 14  1  0
 22 23  1  0
 22 20  1  0
 24 22  2  0
M  END
$$$$
