MPN.pdb
     RDKit          3D

 24 24  0  0  1  0  0  0  0  0999 V2000
   16.7442  -21.4117  -14.9462 C   0  0  0  0  0  0  0  0  0  0  0  0
   17.5942  -19.8150  -15.2449 S   0  0  0  0  0  0  0  0  0  0  0  0
   19.3415  -19.9531  -14.7617 C   0  0  0  0  0  0  0  0  0  0  0  0
   19.5387  -20.9226  -13.6502 C   0  0  0  0  0  0  0  0  0  0  0  0
   21.0211  -21.0500  -13.3515 C   0  0  2  0  0  0  0  0  0  0  0  0
   21.6800  -21.5958  -14.4936 N   0  0  0  0  0  0  0  0  0  0  0  0
   21.1693  -21.8167  -12.1053 C   0  0  0  0  0  0  0  0  0  0  0  0
   21.4839  -23.0435  -12.2533 O   0  0  0  0  0  0  0  0  0  0  0  0
   20.9972  -21.3288  -10.8004 N   0  0  0  0  0  0  0  0  0  0  0  0
   20.6160  -19.9294  -10.5239 C   0  0  0  0  0  0  0  0  0  0  0  0
   20.7098  -19.7602   -9.0524 C   0  0  0  0  0  0  0  0  0  0  0  0
   21.6669  -20.8707   -8.6226 C   0  0  0  0  0  0  0  0  0  0  0  0
   21.1540  -21.9994   -9.5464 C   0  0  1  0  0  0  0  0  0  0  0  0
   19.9169  -22.4680   -8.9132 C   0  0  0  0  0  0  0  0  0  0  0  0
   18.8232  -22.0945   -9.4644 O   0  0  0  0  0  0  0  0  0  0  0  0
   18.0169  -27.3120   -6.9163 N   0  0  0  0  0  0  0  0  0  0  0  0
   17.9378  -26.0681   -6.1886 C   0  0  0  0  0  0  0  0  0  0  0  0
   16.9219  -25.8540   -5.4634 O   0  0  0  0  0  0  0  0  0  0  0  0
   19.0639  -25.1188   -6.3443 C   0  0  0  0  0  0  0  0  0  0  0  0
   18.7807  -24.2496   -7.5502 C   0  0  2  0  0  0  0  0  0  0  0  0
   19.8435  -23.2875   -7.7648 N   0  0  0  0  0  0  0  0  0  0  0  0
   17.5175  -23.5487   -7.3605 C   0  0  0  0  0  0  0  0  0  0  0  0
   17.3891  -22.2369   -6.9314 O   0  0  0  0  0  0  0  0  0  0  0  0
   16.4301  -24.1491   -7.5927 O   0  0  0  0  0  0  0  0  0  0  0  0
  2  1  1  0
  2  3  1  0
  4  3  1  0
  5  4  1  0
  5  6  1  6
  7  5  1  0
  8  7  2  0
  9  7  1  0
 10  9  1  0
 11 10  1  0
 12 11  1  0
 12 13  1  0
 13  9  1  0
 13 14  1  1
 15 14  2  0
 16 17  1  0
 17 18  2  0
 19 17  1  0
 20 19  1  1
 20 21  1  0
 21 14  1  0
 22 23  1  0
 22 20  1  0
 24 22  2  0
M  END
$$$$
