MPN.pdb
     RDKit          3D

 24 24  0  0  1  0  0  0  0  0999 V2000
   21.0306  -16.6987  -16.4487 C   0  0  0  0  0  0  0  0  0  0  0  0
   22.0830  -16.1190  -17.8334 S   0  0  0  0  0  0  0  0  0  0  0  0
   23.4473  -17.2917  -18.0965 C   0  0  0  0  0  0  0  0  0  0  0  0
   23.5006  -18.3337  -17.0357 C   0  0  0  0  0  0  0  0  0  0  0  0
   24.3621  -19.4896  -17.5095 C   0  0  2  0  0  0  0  0  0  0  0  0
   23.6761  -20.1844  -18.5503 N   0  0  0  0  0  0  0  0  0  0  0  0
   24.7226  -20.2988  -16.3355 C   0  0  0  0  0  0  0  0  0  0  0  0
   23.9608  -21.2949  -16.1043 O   0  0  0  0  0  0  0  0  0  0  0  0
   25.8034  -20.0748  -15.4683 N   0  0  0  0  0  0  0  0  0  0  0  0
   26.7359  -18.9436  -15.6435 C   0  0  0  0  0  0  0  0  0  0  0  0
   27.8242  -19.1502  -14.6558 C   0  0  0  0  0  0  0  0  0  0  0  0
   27.7667  -20.6490  -14.3651 C   0  0  0  0  0  0  0  0  0  0  0  0
   26.2313  -20.8269  -14.3289 C   0  0  1  0  0  0  0  0  0  0  0  0
   25.8240  -20.2969  -13.0235 C   0  0  0  0  0  0  0  0  0  0  0  0
   25.9715  -19.0362  -12.8543 O   0  0  0  0  0  0  0  0  0  0  0  0
   22.9420  -19.6666  -12.4787 N   0  0  0  0  0  0  0  0  0  0  0  0
   22.4134  -20.4750  -11.4062 C   0  0  0  0  0  0  0  0  0  0  0  0
   21.1634  -20.6717  -11.3553 O   0  0  0  0  0  0  0  0  0  0  0  0
   23.3823  -21.0231  -10.4294 C   0  0  0  0  0  0  0  0  0  0  0  0
   24.7477  -20.4587  -10.7567 C   0  0  2  0  0  0  0  0  0  0  0  0
   25.2883  -21.0581  -11.9608 N   0  0  0  0  0  0  0  0  0  0  0  0
   25.6546  -20.6980   -9.6418 C   0  0  0  0  0  0  0  0  0  0  0  0
   25.7491  -19.9089   -8.5061 O   0  0  0  0  0  0  0  0  0  0  0  0
   26.4345  -21.6918   -9.6744 O   0  0  0  0  0  0  0  0  0  0  0  0
  2  1  1  0
  2  3  1  0
  4  3  1  0
  5  4  1  0
  5  6  1  6
  7  5  1  0
  8  7  2  0
  9  7  1  0
 10  9  1  0
 11 10  1  0
 12 11  1  0
 12 13  1  0
 13  9  1  0
 13 14  1  1
 15 14  2  0
 16 17  1  0
 17 18  2  0
 19 17  1  0
 20 19  1  1
 20 21  1  0
 21 14  1  0
 22 23  1  0
 22 20  1  0
 24 22  2  0
M  END
$$$$
