MPN.pdb
     RDKit          3D

 24 24  0  0  1  0  0  0  0  0999 V2000
   30.4553  -21.7142  -12.6134 C   0  0  0  0  0  0  0  0  0  0  0  0
   30.0945  -21.8583  -10.8217 S   0  0  0  0  0  0  0  0  0  0  0  0
   28.5787  -20.9349  -10.4273 C   0  0  0  0  0  0  0  0  0  0  0  0
   27.7037  -20.7628  -11.6185 C   0  0  0  0  0  0  0  0  0  0  0  0
   26.4592  -19.9910  -11.2205 C   0  0  2  0  0  0  0  0  0  0  0  0
   25.7384  -20.7427  -10.2448 N   0  0  0  0  0  0  0  0  0  0  0  0
   25.7161  -19.6635  -12.4466 C   0  0  0  0  0  0  0  0  0  0  0  0
   24.5882  -20.2447  -12.5731 O   0  0  0  0  0  0  0  0  0  0  0  0
   26.1304  -18.7906  -13.4648 N   0  0  0  0  0  0  0  0  0  0  0  0
   27.5511  -18.6170  -13.8273 C   0  0  0  0  0  0  0  0  0  0  0  0
   27.5936  -17.4993  -14.8028 C   0  0  0  0  0  0  0  0  0  0  0  0
   26.3036  -16.7295  -14.5248 C   0  0  0  0  0  0  0  0  0  0  0  0
   25.3532  -17.9284  -14.3012 C   0  0  1  0  0  0  0  0  0  0  0  0
   25.0651  -18.4336  -15.6475 C   0  0  0  0  0  0  0  0  0  0  0  0
   26.0078  -19.0829  -16.2213 O   0  0  0  0  0  0  0  0  0  0  0  0
   21.7804  -21.3602  -17.9742 N   0  0  0  0  0  0  0  0  0  0  0  0
   21.4890  -21.1320  -16.5791 C   0  0  0  0  0  0  0  0  0  0  0  0
   20.6602  -21.8951  -16.0007 O   0  0  0  0  0  0  0  0  0  0  0  0
   22.1880  -20.0076  -15.9156 C   0  0  0  0  0  0  0  0  0  0  0  0
   23.1133  -19.3682  -16.9281 C   0  0  2  0  0  0  0  0  0  0  0  0
   23.8476  -18.2634  -16.3436 N   0  0  0  0  0  0  0  0  0  0  0  0
   22.3373  -18.8921  -18.0657 C   0  0  0  0  0  0  0  0  0  0  0  0
   21.9546  -19.6653  -19.1506 O   0  0  0  0  0  0  0  0  0  0  0  0
   21.9658  -17.6850  -18.1059 O   0  0  0  0  0  0  0  0  0  0  0  0
  2  1  1  0
  2  3  1  0
  4  3  1  0
  5  4  1  0
  5  6  1  1
  7  5  1  0
  8  7  2  0
  9  7  1  0
 10  9  1  0
 11 10  1  0
 12 11  1  0
 12 13  1  0
 13  9  1  0
 13 14  1  6
 15 14  2  0
 16 17  1  0
 17 18  2  0
 19 17  1  0
 20 19  1  1
 20 21  1  0
 21 14  1  0
 22 23  1  0
 22 20  1  0
 24 22  2  0
M  END
$$$$
