MPN.pdb
     RDKit          3D

 24 24  0  0  1  0  0  0  0  0999 V2000
   12.5356  -15.0309  -13.0470 C   0  0  0  0  0  0  0  0  0  0  0  0
   13.3567  -16.5943  -13.5393 S   0  0  0  0  0  0  0  0  0  0  0  0
   14.4944  -16.2782  -14.9217 C   0  0  0  0  0  0  0  0  0  0  0  0
   15.3139  -15.0557  -14.7023 C   0  0  0  0  0  0  0  0  0  0  0  0
   16.5218  -15.0888  -15.6203 C   0  0  2  0  0  0  0  0  0  0  0  0
   17.3185  -16.2283  -15.2989 N   0  0  0  0  0  0  0  0  0  0  0  0
   17.2028  -13.7890  -15.5224 C   0  0  0  0  0  0  0  0  0  0  0  0
   18.3608  -13.8183  -14.9895 O   0  0  0  0  0  0  0  0  0  0  0  0
   16.7013  -12.5503  -15.9517 N   0  0  0  0  0  0  0  0  0  0  0  0
   15.3775  -12.4124  -16.5910 C   0  0  0  0  0  0  0  0  0  0  0  0
   15.2889  -11.0054  -17.0551 C   0  0  0  0  0  0  0  0  0  0  0  0
   16.7492  -10.5715  -17.1697 C   0  0  0  0  0  0  0  0  0  0  0  0
   17.3019  -11.2529  -15.8966 C   0  0  1  0  0  0  0  0  0  0  0  0
   16.8649  -10.3927  -14.7921 C   0  0  0  0  0  0  0  0  0  0  0  0
   15.6822  -10.6007  -14.3476 O   0  0  0  0  0  0  0  0  0  0  0  0
   16.4996   -7.6492  -10.6927 N   0  0  0  0  0  0  0  0  0  0  0  0
   17.5588   -8.6190  -10.5493 C   0  0  0  0  0  0  0  0  0  0  0  0
   18.0092   -8.8572   -9.3899 O   0  0  0  0  0  0  0  0  0  0  0  0
   18.0500   -9.2740  -11.7834 C   0  0  0  0  0  0  0  0  0  0  0  0
   17.2594   -8.7257  -12.9514 C   0  0  2  0  0  0  0  0  0  0  0  0
   17.6376   -9.3739  -14.1916 N   0  0  0  0  0  0  0  0  0  0  0  0
   17.4839   -7.2903  -13.0616 C   0  0  0  0  0  0  0  0  0  0  0  0
   16.7504   -6.3148  -12.4047 O   0  0  0  0  0  0  0  0  0  0  0  0
   18.4096   -6.8593  -13.8061 O   0  0  0  0  0  0  0  0  0  0  0  0
  2  1  1  0
  2  3  1  0
  4  3  1  0
  5  4  1  0
  5  6  1  1
  7  5  1  0
  8  7  2  0
  9  7  1  0
 10  9  1  0
 11 10  1  0
 12 11  1  0
 12 13  1  0
 13  9  1  0
 13 14  1  1
 15 14  2  0
 16 17  1  0
 17 18  2  0
 19 17  1  0
 20 19  1  1
 20 21  1  0
 21 14  1  0
 22 23  1  0
 22 20  1  0
 24 22  2  0
M  END
$$$$
