MPN.pdb
     RDKit          3D

 24 24  0  0  1  0  0  0  0  0999 V2000
   22.8701  -11.7978  -21.0087 C   0  0  0  0  0  0  0  0  0  0  0  0
   21.5384  -13.0529  -21.1189 S   0  0  0  0  0  0  0  0  0  0  0  0
   21.0937  -13.6202  -19.4498 C   0  0  0  0  0  0  0  0  0  0  0  0
   21.1366  -12.5152  -18.4543 C   0  0  0  0  0  0  0  0  0  0  0  0
   20.7337  -13.0496  -17.0924 C   0  0  2  0  0  0  0  0  0  0  0  0
   19.4415  -13.6471  -17.1914 N   0  0  0  0  0  0  0  0  0  0  0  0
   20.8539  -11.9529  -16.1200 C   0  0  0  0  0  0  0  0  0  0  0  0
   19.7812  -11.3005  -15.8975 O   0  0  0  0  0  0  0  0  0  0  0  0
   22.0174  -11.5701  -15.4342 N   0  0  0  0  0  0  0  0  0  0  0  0
   23.3124  -12.2505  -15.6343 C   0  0  0  0  0  0  0  0  0  0  0  0
   24.2354  -11.6859  -14.6182 C   0  0  0  0  0  0  0  0  0  0  0  0
   23.2971  -11.1426  -13.5419 C   0  0  0  0  0  0  0  0  0  0  0  0
   22.2054  -10.5420  -14.4573 C   0  0  1  0  0  0  0  0  0  0  0  0
   22.7811   -9.2873  -14.9525 C   0  0  0  0  0  0  0  0  0  0  0  0
   23.4203   -9.3569  -16.0598 O   0  0  0  0  0  0  0  0  0  0  0  0
   21.3627   -4.6440  -16.1290 N   0  0  0  0  0  0  0  0  0  0  0  0
   20.4323   -5.7452  -16.1986 C   0  0  0  0  0  0  0  0  0  0  0  0
   19.3207   -5.5634  -16.7775 O   0  0  0  0  0  0  0  0  0  0  0  0
   20.8487   -7.0247  -15.5800 C   0  0  0  0  0  0  0  0  0  0  0  0
   22.2310   -6.8340  -14.9943 C   0  0  2  0  0  0  0  0  0  0  0  0
   22.6820   -8.0314  -14.3131 N   0  0  0  0  0  0  0  0  0  0  0  0
   22.2149   -5.7164  -14.0597 C   0  0  0  0  0  0  0  0  0  0  0  0
   21.6645   -5.7473  -12.7878 O   0  0  0  0  0  0  0  0  0  0  0  0
   22.7313   -4.6136  -14.3972 O   0  0  0  0  0  0  0  0  0  0  0  0
  2  1  1  0
  2  3  1  0
  4  3  1  0
  5  4  1  0
  5  6  1  6
  7  5  1  0
  8  7  2  0
  9  7  1  0
 10  9  1  0
 11 10  1  0
 12 11  1  0
 12 13  1  0
 13  9  1  0
 13 14  1  6
 15 14  2  0
 16 17  1  0
 17 18  2  0
 19 17  1  0
 20 19  1  1
 20 21  1  0
 21 14  1  0
 22 23  1  0
 22 20  1  0
 24 22  2  0
M  END
$$$$
