MPN.pdb
     RDKit          3D

 24 24  0  0  1  0  0  0  0  0999 V2000
   26.2898  -14.9635  -15.6279 C   0  0  0  0  0  0  0  0  0  0  0  0
   25.6267  -13.3207  -16.0994 S   0  0  0  0  0  0  0  0  0  0  0  0
   24.1032  -13.5319  -17.0689 C   0  0  0  0  0  0  0  0  0  0  0  0
   23.5268  -12.2279  -17.4948 C   0  0  0  0  0  0  0  0  0  0  0  0
   22.4142  -11.8346  -16.5408 C   0  0  2  0  0  0  0  0  0  0  0  0
   21.3661  -12.7993  -16.6263 N   0  0  0  0  0  0  0  0  0  0  0  0
   22.0275  -10.4477  -16.8406 C   0  0  0  0  0  0  0  0  0  0  0  0
   22.9873   -9.6689  -17.1536 O   0  0  0  0  0  0  0  0  0  0  0  0
   20.7273   -9.9195  -16.8110 N   0  0  0  0  0  0  0  0  0  0  0  0
   19.5354  -10.7652  -16.6012 C   0  0  0  0  0  0  0  0  0  0  0  0
   18.3614   -9.8821  -16.8127 C   0  0  0  0  0  0  0  0  0  0  0  0
   18.9150   -8.7473  -17.6728 C   0  0  0  0  0  0  0  0  0  0  0  0
   20.2859   -8.5692  -16.9805 C   0  0  1  0  0  0  0  0  0  0  0  0
   19.9891   -7.8341  -15.7466 C   0  0  0  0  0  0  0  0  0  0  0  0
   20.1994   -8.4616  -14.6504 O   0  0  0  0  0  0  0  0  0  0  0  0
   21.3650   -3.5205  -13.6486 N   0  0  0  0  0  0  0  0  0  0  0  0
   22.2204   -4.2212  -14.5762 C   0  0  0  0  0  0  0  0  0  0  0  0
   23.4385   -3.8827  -14.6513 O   0  0  0  0  0  0  0  0  0  0  0  0
   21.6052   -5.2990  -15.3844 C   0  0  0  0  0  0  0  0  0  0  0  0
   20.1698   -5.4616  -14.9335 C   0  0  2  0  0  0  0  0  0  0  0  0
   19.5013   -6.5100  -15.6785 N   0  0  0  0  0  0  0  0  0  0  0  0
   19.4567   -4.2037  -15.1126 C   0  0  0  0  0  0  0  0  0  0  0  0
   19.0507   -3.3633  -14.0877 O   0  0  0  0  0  0  0  0  0  0  0  0
   19.1646   -3.8129  -16.2782 O   0  0  0  0  0  0  0  0  0  0  0  0
  2  1  1  0
  2  3  1  0
  4  3  1  0
  5  4  1  0
  5  6  1  6
  7  5  1  0
  8  7  2  0
  9  7  1  0
 10  9  1  0
 11 10  1  0
 12 11  1  0
 12 13  1  0
 13  9  1  0
 13 14  1  1
 15 14  2  0
 16 17  1  0
 17 18  2  0
 19 17  1  0
 20 19  1  6
 20 21  1  0
 21 14  1  0
 22 23  1  0
 22 20  1  0
 24 22  2  0
M  END
$$$$
