MPN.pdb
     RDKit          3D

 24 24  0  0  1  0  0  0  0  0999 V2000
   23.1883  -11.5553  -21.9492 C   0  0  0  0  0  0  0  0  0  0  0  0
   22.2605  -13.0709  -21.4985 S   0  0  0  0  0  0  0  0  0  0  0  0
   22.8670  -13.7083  -19.9075 C   0  0  0  0  0  0  0  0  0  0  0  0
   23.1035  -12.6182  -18.9226 C   0  0  0  0  0  0  0  0  0  0  0  0
   23.5517  -13.2208  -17.6040 C   0  0  2  0  0  0  0  0  0  0  0  0
   22.7856  -14.3968  -17.3462 N   0  0  0  0  0  0  0  0  0  0  0  0
   23.4728  -12.1727  -16.5752 C   0  0  0  0  0  0  0  0  0  0  0  0
   22.4361  -12.2124  -15.8338 O   0  0  0  0  0  0  0  0  0  0  0  0
   24.4142  -11.1572  -16.3454 N   0  0  0  0  0  0  0  0  0  0  0  0
   25.6351  -11.0118  -17.1629 C   0  0  0  0  0  0  0  0  0  0  0  0
   26.4464   -9.9560  -16.5071 C   0  0  0  0  0  0  0  0  0  0  0  0
   25.9356   -9.9518  -15.0672 C   0  0  0  0  0  0  0  0  0  0  0  0
   24.4259  -10.1311  -15.3485 C   0  0  1  0  0  0  0  0  0  0  0  0
   23.9675   -8.8088  -15.7870 C   0  0  0  0  0  0  0  0  0  0  0  0
   24.3359   -8.4421  -16.9572 O   0  0  0  0  0  0  0  0  0  0  0  0
   21.0219   -4.8754  -16.6485 N   0  0  0  0  0  0  0  0  0  0  0  0
   20.2296   -6.0367  -16.3217 C   0  0  0  0  0  0  0  0  0  0  0  0
   18.9845   -6.0046  -16.5510 O   0  0  0  0  0  0  0  0  0  0  0  0
   20.9376   -7.1969  -15.7336 C   0  0  0  0  0  0  0  0  0  0  0  0
   22.4054   -6.8448  -15.6262 C   0  0  2  0  0  0  0  0  0  0  0  0
   23.1626   -7.9280  -15.0305 N   0  0  0  0  0  0  0  0  0  0  0  0
   22.5604   -5.6398  -14.8220 C   0  0  0  0  0  0  0  0  0  0  0  0
   23.1583   -5.5854  -13.5726 O   0  0  0  0  0  0  0  0  0  0  0  0
   22.1275   -4.5369  -15.2612 O   0  0  0  0  0  0  0  0  0  0  0  0
  2  1  1  0
  2  3  1  0
  4  3  1  0
  5  4  1  0
  5  6  1  1
  7  5  1  0
  8  7  2  0
  9  7  1  0
 10  9  1  0
 11 10  1  0
 12 11  1  0
 12 13  1  0
 13  9  1  0
 13 14  1  6
 15 14  2  0
 16 17  1  0
 17 18  2  0
 19 17  1  0
 20 19  1  1
 20 21  1  0
 21 14  1  0
 22 23  1  0
 22 20  1  0
 24 22  2  0
M  END
$$$$
