MPN.pdb
     RDKit          3D

 24 24  0  0  1  0  0  0  0  0999 V2000
   26.8677  -16.2083  -14.7411 C   0  0  0  0  0  0  0  0  0  0  0  0
   25.9864  -14.6050  -14.8587 S   0  0  0  0  0  0  0  0  0  0  0  0
   25.4160  -14.3449  -16.5653 C   0  0  0  0  0  0  0  0  0  0  0  0
   24.7646  -13.0186  -16.7405 C   0  0  0  0  0  0  0  0  0  0  0  0
   24.3733  -12.8392  -18.1957 C   0  0  2  0  0  0  0  0  0  0  0  0
   25.5229  -13.0472  -19.0151 N   0  0  0  0  0  0  0  0  0  0  0  0
   23.7239  -11.5268  -18.3332 C   0  0  0  0  0  0  0  0  0  0  0  0
   24.5049  -10.5574  -18.6089 O   0  0  0  0  0  0  0  0  0  0  0  0
   22.3543  -11.2549  -18.1891 N   0  0  0  0  0  0  0  0  0  0  0  0
   21.3531  -12.3222  -17.9930 C   0  0  0  0  0  0  0  0  0  0  0  0
   20.0265  -11.6604  -18.0639 C   0  0  0  0  0  0  0  0  0  0  0  0
   20.3049  -10.3790  -18.8479 C   0  0  0  0  0  0  0  0  0  0  0  0
   21.6642  -10.0019  -18.2151 C   0  0  1  0  0  0  0  0  0  0  0  0
   21.3229   -9.4330  -16.9071 C   0  0  0  0  0  0  0  0  0  0  0  0
   21.5378  -10.1824  -15.8913 O   0  0  0  0  0  0  0  0  0  0  0  0
   23.2040   -5.1326  -14.0719 N   0  0  0  0  0  0  0  0  0  0  0  0
   22.6085   -6.4393  -13.9270 C   0  0  0  0  0  0  0  0  0  0  0  0
   22.2371   -6.8114  -12.7749 O   0  0  0  0  0  0  0  0  0  0  0  0
   22.4731   -7.2622  -15.1509 C   0  0  0  0  0  0  0  0  0  0  0  0
   20.9985   -7.4016  -15.4610 C   0  0  2  0  0  0  0  0  0  0  0  0
   20.7883   -8.1437  -16.6884 N   0  0  0  0  0  0  0  0  0  0  0  0
   20.3979   -6.0795  -15.5801 C   0  0  0  0  0  0  0  0  0  0  0  0
   19.9456   -5.3097  -14.5198 O   0  0  0  0  0  0  0  0  0  0  0  0
   20.2584   -5.5586  -16.7229 O   0  0  0  0  0  0  0  0  0  0  0  0
  2  1  1  0
  2  3  1  0
  4  3  1  0
  5  4  1  0
  5  6  1  6
  7  5  1  0
  8  7  2  0
  9  7  1  0
 10  9  1  0
 11 10  1  0
 12 11  1  0
 12 13  1  0
 13  9  1  0
 13 14  1  1
 15 14  2  0
 16 17  1  0
 17 18  2  0
 19 17  1  0
 20 19  1  6
 20 21  1  0
 21 14  1  0
 22 23  1  0
 22 20  1  0
 24 22  2  0
M  END
$$$$
