MPN.pdb
     RDKit          3D

 24 24  0  0  1  0  0  0  0  0999 V2000
   22.1727   -2.0895  -15.3105 C   0  0  0  0  0  0  0  0  0  0  0  0
   22.1134   -2.7541  -17.0181 S   0  0  0  0  0  0  0  0  0  0  0  0
   22.0956   -4.5714  -16.9663 C   0  0  0  0  0  0  0  0  0  0  0  0
   21.0217   -5.0944  -16.0790 C   0  0  0  0  0  0  0  0  0  0  0  0
   21.0822   -6.6105  -16.0566 C   0  0  2  0  0  0  0  0  0  0  0  0
   21.2197   -7.0899  -17.3937 N   0  0  0  0  0  0  0  0  0  0  0  0
   19.9058   -7.1015  -15.3232 C   0  0  0  0  0  0  0  0  0  0  0  0
   18.8819   -7.3543  -16.0400 O   0  0  0  0  0  0  0  0  0  0  0  0
   19.8133   -7.3091  -13.9380 N   0  0  0  0  0  0  0  0  0  0  0  0
   20.9428   -7.0498  -13.0231 C   0  0  0  0  0  0  0  0  0  0  0  0
   20.5184   -7.5521  -11.6925 C   0  0  0  0  0  0  0  0  0  0  0  0
   19.4251   -8.5668  -12.0226 C   0  0  0  0  0  0  0  0  0  0  0  0
   18.7160   -7.7934  -13.1582 C   0  0  1  0  0  0  0  0  0  0  0  0
   17.9183   -6.7710  -12.4731 C   0  0  0  0  0  0  0  0  0  0  0  0
   18.5592   -5.7508  -12.0394 O   0  0  0  0  0  0  0  0  0  0  0  0
   13.9938   -3.6585  -12.0404 N   0  0  0  0  0  0  0  0  0  0  0  0
   14.9696   -3.5512  -13.0984 C   0  0  0  0  0  0  0  0  0  0  0  0
   14.9486   -2.5248  -13.8400 O   0  0  0  0  0  0  0  0  0  0  0  0
   15.9373   -4.6628  -13.2435 C   0  0  0  0  0  0  0  0  0  0  0  0
   15.7018   -5.6398  -12.1121 C   0  0  2  0  0  0  0  0  0  0  0  0
   16.5223   -6.8252  -12.2631 N   0  0  0  0  0  0  0  0  0  0  0  0
   14.2955   -6.0193  -12.0800 C   0  0  0  0  0  0  0  0  0  0  0  0
   13.2759   -5.2593  -11.5286 O   0  0  0  0  0  0  0  0  0  0  0  0
   13.9355   -7.1216  -12.5823 O   0  0  0  0  0  0  0  0  0  0  0  0
  2  1  1  0
  2  3  1  0
  4  3  1  0
  5  4  1  0
  5  6  1  6
  7  5  1  0
  8  7  2  0
  9  7  1  0
 10  9  1  0
 11 10  1  0
 12 11  1  0
 12 13  1  0
 13  9  1  0
 13 14  1  1
 15 14  2  0
 16 17  1  0
 17 18  2  0
 19 17  1  0
 20 19  1  6
 20 21  1  0
 21 14  1  0
 22 23  1  0
 22 20  1  0
 24 22  2  0
M  END
$$$$
