KKK.pdb
     RDKit          3D

 28 27  0  0  1  0  0  0  0  0999 V2000
   28.2815  -26.3389  -18.5138 N   0  0  0  0  0  0  0  0  0  0  0  0
   28.4941  -26.1586  -17.0772 C   0  0  1  0  0  0  0  0  0  0  0  0
   29.7856  -26.8778  -16.7631 C   0  0  0  0  0  0  0  0  0  0  0  0
   29.7269  -28.2747  -17.2744 C   0  0  0  0  0  0  0  0  0  0  0  0
   28.8795  -29.2298  -16.5262 C   0  0  0  0  0  0  0  0  0  0  0  0
   28.8692  -30.6373  -17.0048 C   0  0  0  0  0  0  0  0  0  0  0  0
   27.9616  -31.4962  -16.2809 N   0  0  0  0  0  0  0  0  0  0  0  0
   28.5437  -24.7276  -16.7824 C   0  0  0  0  0  0  0  0  0  0  0  0
   28.6634  -24.3509  -15.5903 O   0  0  0  0  0  0  0  0  0  0  0  0
   28.4656  -23.7022  -17.7576 N   0  0  0  0  0  0  0  0  0  0  0  0
   28.4471  -22.2790  -17.3439 C   0  0  1  0  0  0  0  0  0  0  0  0
   28.9401  -21.4475  -18.5125 C   0  0  0  0  0  0  0  0  0  0  0  0
   28.9070  -19.9747  -18.2647 C   0  0  0  0  0  0  0  0  0  0  0  0
   29.3519  -19.1723  -19.4729 C   0  0  0  0  0  0  0  0  0  0  0  0
   29.2624  -17.7197  -19.1608 C   0  0  0  0  0  0  0  0  0  0  0  0
   29.8406  -16.9595  -20.2575 N   0  0  0  0  0  0  0  0  0  0  0  0
   27.0997  -21.9156  -16.8672 C   0  0  0  0  0  0  0  0  0  0  0  0
   26.0678  -22.1100  -17.6119 O   0  0  0  0  0  0  0  0  0  0  0  0
   26.7961  -21.3476  -15.6048 N   0  0  0  0  0  0  0  0  0  0  0  0
   25.4495  -21.0272  -15.1715 C   0  0  1  0  0  0  0  0  0  0  0  0
   25.4698  -20.9690  -13.6488 C   0  0  0  0  0  0  0  0  0  0  0  0
   24.1154  -20.6574  -13.0943 C   0  0  0  0  0  0  0  0  0  0  0  0
   24.1736  -20.7094  -11.5935 C   0  0  0  0  0  0  0  0  0  0  0  0
   22.8414  -20.4706  -10.9498 C   0  0  0  0  0  0  0  0  0  0  0  0
   23.0056  -20.4725   -9.4984 N   0  0  0  0  0  0  0  0  0  0  0  0
   24.9801  -19.7227  -15.6491 C   0  0  0  0  0  0  0  0  0  0  0  0
   23.6636  -19.5645  -16.0340 O   0  0  0  0  0  0  0  0  0  0  0  0
   25.7615  -18.7564  -15.7099 O   0  0  0  0  0  0  0  0  0  0  0  0
  2  3  1  0
  2  1  1  6
  4  3  1  0
  4  5  1  0
  6  5  1  0
  6  7  1  0
  8 10  1  0
  8  2  1  0
  9  8  2  0
 11 10  1  0
 11 12  1  6
 13 12  1  0
 14 13  1  0
 15 14  1  0
 16 15  1  0
 17 18  2  0
 17 11  1  0
 19 17  1  0
 20 21  1  1
 20 19  1  0
 22 21  1  0
 22 23  1  0
 23 24  1  0
 24 25  1  0
 26 20  1  0
 27 26  1  0
 28 26  2  0
M  END
$$$$
