KKK.pdb
     RDKit          3D

 28 27  0  0  1  0  0  0  0  0999 V2000
   28.1904  -21.6898  -16.3592 N   0  0  0  0  0  0  0  0  0  0  0  0
   27.9896  -20.6936  -15.3062 C   0  0  1  0  0  0  0  0  0  0  0  0
   27.9160  -19.3609  -16.0149 C   0  0  0  0  0  0  0  0  0  0  0  0
   28.1812  -19.5428  -17.4685 C   0  0  0  0  0  0  0  0  0  0  0  0
   28.2424  -18.3197  -18.2993 C   0  0  0  0  0  0  0  0  0  0  0  0
   28.6336  -18.4930  -19.7231 C   0  0  0  0  0  0  0  0  0  0  0  0
   28.5564  -17.2808  -20.5042 N   0  0  0  0  0  0  0  0  0  0  0  0
   26.7711  -21.0236  -14.5691 C   0  0  0  0  0  0  0  0  0  0  0  0
   25.8556  -21.6574  -15.1500 O   0  0  0  0  0  0  0  0  0  0  0  0
   26.5309  -20.6779  -13.2158 N   0  0  0  0  0  0  0  0  0  0  0  0
   25.2574  -21.0625  -12.5622 C   0  0  1  0  0  0  0  0  0  0  0  0
   25.4335  -20.8973  -11.0649 C   0  0  0  0  0  0  0  0  0  0  0  0
   24.2144  -21.2355  -10.2706 C   0  0  0  0  0  0  0  0  0  0  0  0
   24.4363  -21.0920   -8.7767 C   0  0  0  0  0  0  0  0  0  0  0  0
   23.2150  -21.5371   -8.0514 C   0  0  0  0  0  0  0  0  0  0  0  0
   23.4326  -21.3980   -6.6203 N   0  0  0  0  0  0  0  0  0  0  0  0
   24.1471  -20.2769  -13.1322 C   0  0  0  0  0  0  0  0  0  0  0  0
   24.2699  -19.0087  -13.3161 O   0  0  0  0  0  0  0  0  0  0  0  0
   22.8882  -20.7937  -13.5277 N   0  0  0  0  0  0  0  0  0  0  0  0
   21.8128  -19.9741  -14.0526 C   0  0  1  0  0  0  0  0  0  0  0  0
   21.6001  -20.3880  -15.5037 C   0  0  0  0  0  0  0  0  0  0  0  0
   20.5056  -19.5944  -16.1451 C   0  0  0  0  0  0  0  0  0  0  0  0
   20.3903  -19.9923  -17.5897 C   0  0  0  0  0  0  0  0  0  0  0  0
   19.3797  -19.1783  -18.3396 C   0  0  0  0  0  0  0  0  0  0  0  0
   19.3868  -19.5837  -19.7428 N   0  0  0  0  0  0  0  0  0  0  0  0
   20.5384  -20.1704  -13.3543 C   0  0  0  0  0  0  0  0  0  0  0  0
   19.5742  -19.1828  -13.3925 O   0  0  0  0  0  0  0  0  0  0  0  0
   20.3201  -21.2224  -12.7269 O   0  0  0  0  0  0  0  0  0  0  0  0
  2  3  1  0
  2  1  1  6
  4  3  1  0
  4  5  1  0
  6  5  1  0
  6  7  1  0
  8 10  1  0
  8  2  1  0
  9  8  2  0
 11 10  1  0
 11 12  1  1
 13 12  1  0
 14 13  1  0
 15 14  1  0
 16 15  1  0
 17 18  2  0
 17 11  1  0
 19 17  1  0
 20 21  1  6
 20 19  1  0
 22 21  1  0
 22 23  1  0
 23 24  1  0
 24 25  1  0
 26 20  1  0
 27 26  1  0
 28 26  2  0
M  END
$$$$
