KKK.pdb
     RDKit          3D

 28 27  0  0  1  0  0  0  0  0999 V2000
   22.4877  -24.8848  -14.1488 N   0  0  0  0  0  0  0  0  0  0  0  0
   21.4461  -24.2275  -14.9391 C   0  0  1  0  0  0  0  0  0  0  0  0
   20.1720  -24.3794  -14.1407 C   0  0  0  0  0  0  0  0  0  0  0  0
   19.7269  -25.8000  -14.1592 C   0  0  0  0  0  0  0  0  0  0  0  0
   18.4600  -26.1170  -13.4632 C   0  0  0  0  0  0  0  0  0  0  0  0
   17.9933  -27.5271  -13.5254 C   0  0  0  0  0  0  0  0  0  0  0  0
   16.8056  -27.7868  -12.7461 N   0  0  0  0  0  0  0  0  0  0  0  0
   21.8275  -22.8333  -15.1579 C   0  0  0  0  0  0  0  0  0  0  0  0
   21.1215  -22.1148  -15.9080 O   0  0  0  0  0  0  0  0  0  0  0  0
   22.9594  -22.2083  -14.5774 N   0  0  0  0  0  0  0  0  0  0  0  0
   23.2686  -20.7915  -14.8842 C   0  0  1  0  0  0  0  0  0  0  0  0
   23.4941  -20.0687  -13.5701 C   0  0  0  0  0  0  0  0  0  0  0  0
   23.9311  -20.9614  -12.4549 C   0  0  0  0  0  0  0  0  0  0  0  0
   24.2981  -20.1885  -11.2020 C   0  0  0  0  0  0  0  0  0  0  0  0
   24.7718  -21.1375  -10.1578 C   0  0  0  0  0  0  0  0  0  0  0  0
   25.1774  -20.3873   -8.9798 N   0  0  0  0  0  0  0  0  0  0  0  0
   24.4076  -20.7206  -15.8182 C   0  0  0  0  0  0  0  0  0  0  0  0
   25.4906  -21.3747  -15.5802 O   0  0  0  0  0  0  0  0  0  0  0  0
   24.4430  -19.9726  -17.0214 N   0  0  0  0  0  0  0  0  0  0  0  0
   25.5984  -19.9132  -17.8962 C   0  0  1  0  0  0  0  0  0  0  0  0
   25.0829  -20.0019  -19.3275 C   0  0  0  0  0  0  0  0  0  0  0  0
   26.2044  -19.9615  -20.3173 C   0  0  0  0  0  0  0  0  0  0  0  0
   25.6382  -20.0449  -21.7069 C   0  0  0  0  0  0  0  0  0  0  0  0
   26.6974  -20.0873  -22.7664 C   0  0  0  0  0  0  0  0  0  0  0  0
   26.0579  -20.1387  -24.0785 N   0  0  0  0  0  0  0  0  0  0  0  0
   26.3495  -18.6589  -17.7827 C   0  0  0  0  0  0  0  0  0  0  0  0
   27.6614  -18.6021  -18.2095 O   0  0  0  0  0  0  0  0  0  0  0  0
   25.8117  -17.6444  -17.3036 O   0  0  0  0  0  0  0  0  0  0  0  0
  2  3  1  0
  2  1  1  1
  4  3  1  0
  4  5  1  0
  6  5  1  0
  6  7  1  0
  8 10  1  0
  8  2  1  0
  9  8  2  0
 11 10  1  0
 11 12  1  1
 13 12  1  0
 14 13  1  0
 15 14  1  0
 16 15  1  0
 17 18  2  0
 17 11  1  0
 19 17  1  0
 20 21  1  6
 20 19  1  0
 22 21  1  0
 22 23  1  0
 23 24  1  0
 24 25  1  0
 26 20  1  0
 27 26  1  0
 28 26  2  0
M  END
$$$$
