KKK.pdb
     RDKit          3D

 28 27  0  0  1  0  0  0  0  0999 V2000
   16.1713  -10.8567  -13.3163 N   0  0  0  0  0  0  0  0  0  0  0  0
   16.9244  -10.0708  -12.3380 C   0  0  1  0  0  0  0  0  0  0  0  0
   18.1272   -9.5386  -13.0820 C   0  0  0  0  0  0  0  0  0  0  0  0
   18.7770  -10.6364  -13.8494 C   0  0  0  0  0  0  0  0  0  0  0  0
   18.6193  -10.6135  -15.3206 C   0  0  0  0  0  0  0  0  0  0  0  0
   19.3831  -11.6274  -16.0945 C   0  0  0  0  0  0  0  0  0  0  0  0
   19.1339  -11.5897  -17.5165 N   0  0  0  0  0  0  0  0  0  0  0  0
   16.0589   -9.0172  -11.8108 C   0  0  0  0  0  0  0  0  0  0  0  0
   15.2189   -8.4757  -12.5714 O   0  0  0  0  0  0  0  0  0  0  0  0
   16.0903   -8.5434  -10.4755 N   0  0  0  0  0  0  0  0  0  0  0  0
   15.1552   -7.4792  -10.0392 C   0  0  1  0  0  0  0  0  0  0  0  0
   14.5119   -7.9275   -8.7410 C   0  0  0  0  0  0  0  0  0  0  0  0
   13.2670   -8.7318   -8.9280 C   0  0  0  0  0  0  0  0  0  0  0  0
   12.6289   -9.1291   -7.6102 C   0  0  0  0  0  0  0  0  0  0  0  0
   11.3851   -9.9018   -7.8774 C   0  0  0  0  0  0  0  0  0  0  0  0
   10.7933  -10.3059   -6.6120 N   0  0  0  0  0  0  0  0  0  0  0  0
   15.8708   -6.1930   -9.9486 C   0  0  0  0  0  0  0  0  0  0  0  0
   16.9939   -6.1117   -9.3245 O   0  0  0  0  0  0  0  0  0  0  0  0
   15.4369   -4.9657  -10.5089 N   0  0  0  0  0  0  0  0  0  0  0  0
   16.1683   -3.7201  -10.3780 C   0  0  1  0  0  0  0  0  0  0  0  0
   16.5410   -3.2682  -11.7848 C   0  0  0  0  0  0  0  0  0  0  0  0
   17.2777   -1.9659  -11.7650 C   0  0  0  0  0  0  0  0  0  0  0  0
   17.6856   -1.6093  -13.1667 C   0  0  0  0  0  0  0  0  0  0  0  0
   18.5019   -0.3542  -13.2348 C   0  0  0  0  0  0  0  0  0  0  0  0
   18.8708   -0.0999  -14.6249 N   0  0  0  0  0  0  0  0  0  0  0  0
   15.3788   -2.6434   -9.7715 C   0  0  0  0  0  0  0  0  0  0  0  0
   16.0095   -1.5068   -9.3059 O   0  0  0  0  0  0  0  0  0  0  0  0
   14.1429   -2.7477   -9.6738 O   0  0  0  0  0  0  0  0  0  0  0  0
  2  3  1  0
  2  1  1  6
  4  3  1  0
  4  5  1  0
  6  5  1  0
  6  7  1  0
  8 10  1  0
  8  2  1  0
  9  8  2  0
 11 10  1  0
 11 12  1  1
 13 12  1  0
 14 13  1  0
 15 14  1  0
 16 15  1  0
 17 18  2  0
 17 11  1  0
 19 17  1  0
 20 21  1  6
 20 19  1  0
 22 21  1  0
 22 23  1  0
 23 24  1  0
 24 25  1  0
 26 20  1  0
 27 26  1  0
 28 26  2  0
M  END
$$$$
