KKK.pdb
     RDKit          3D

 28 27  0  0  1  0  0  0  0  0999 V2000
   15.4961  -14.4031  -15.3679 N   0  0  0  0  0  0  0  0  0  0  0  0
   16.9336  -14.1351  -15.3088 C   0  0  1  0  0  0  0  0  0  0  0  0
   17.6051  -15.4135  -15.7543 C   0  0  0  0  0  0  0  0  0  0  0  0
   16.8647  -16.5894  -15.2201 C   0  0  0  0  0  0  0  0  0  0  0  0
   15.8976  -17.2448  -16.1285 C   0  0  0  0  0  0  0  0  0  0  0  0
   15.3594  -18.5627  -15.6999 C   0  0  0  0  0  0  0  0  0  0  0  0
   15.2710  -18.7224  -14.2674 N   0  0  0  0  0  0  0  0  0  0  0  0
   17.2374  -12.9931  -16.1695 C   0  0  0  0  0  0  0  0  0  0  0  0
   18.4362  -12.6739  -16.3644 O   0  0  0  0  0  0  0  0  0  0  0  0
   16.2638  -12.1945  -16.8199 N   0  0  0  0  0  0  0  0  0  0  0  0
   16.6743  -10.9933  -17.5853 C   0  0  1  0  0  0  0  0  0  0  0  0
   15.5978  -10.7059  -18.6141 C   0  0  0  0  0  0  0  0  0  0  0  0
   15.9091   -9.5521  -19.5104 C   0  0  0  0  0  0  0  0  0  0  0  0
   14.8464   -9.3379  -20.5717 C   0  0  0  0  0  0  0  0  0  0  0  0
   15.2470   -8.2046  -21.4497 C   0  0  0  0  0  0  0  0  0  0  0  0
   14.1458   -7.8799  -22.3422 N   0  0  0  0  0  0  0  0  0  0  0  0
   16.9399   -9.8778  -16.6581 C   0  0  0  0  0  0  0  0  0  0  0  0
   16.1535   -9.6517  -15.6643 O   0  0  0  0  0  0  0  0  0  0  0  0
   18.0311   -8.9773  -16.7412 N   0  0  0  0  0  0  0  0  0  0  0  0
   18.2236   -7.8631  -15.8329 C   0  0  1  0  0  0  0  0  0  0  0  0
   19.6974   -7.8488  -15.4458 C   0  0  0  0  0  0  0  0  0  0  0  0
   20.0100   -6.7155  -14.5200 C   0  0  0  0  0  0  0  0  0  0  0  0
   21.4681   -6.7618  -14.1594 C   0  0  0  0  0  0  0  0  0  0  0  0
   21.8861   -5.6267  -13.2745 C   0  0  0  0  0  0  0  0  0  0  0  0
   23.3132   -5.7461  -12.9873 N   0  0  0  0  0  0  0  0  0  0  0  0
   17.9213   -6.5616  -16.4372 C   0  0  0  0  0  0  0  0  0  0  0  0
   17.3293   -5.5719  -15.6779 O   0  0  0  0  0  0  0  0  0  0  0  0
   18.1952   -6.3432  -17.6310 O   0  0  0  0  0  0  0  0  0  0  0  0
  2  3  1  0
  2  1  1  6
  4  3  1  0
  4  5  1  0
  6  5  1  0
  6  7  1  0
  8 10  1  0
  8  2  1  0
  9  8  2  0
 11 10  1  0
 11 12  1  6
 13 12  1  0
 14 13  1  0
 15 14  1  0
 16 15  1  0
 17 18  2  0
 17 11  1  0
 19 17  1  0
 20 21  1  6
 20 19  1  0
 22 21  1  0
 22 23  1  0
 23 24  1  0
 24 25  1  0
 26 20  1  0
 27 26  1  0
 28 26  2  0
M  END
$$$$
