KKK.pdb
     RDKit          3D

 28 27  0  0  1  0  0  0  0  0999 V2000
   29.4993  -20.9081  -17.1776 N   0  0  0  0  0  0  0  0  0  0  0  0
   28.5311  -21.9021  -17.6426 C   0  0  1  0  0  0  0  0  0  0  0  0
   29.3083  -23.1895  -17.7913 C   0  0  0  0  0  0  0  0  0  0  0  0
   30.0058  -23.2132  -19.1063 C   0  0  0  0  0  0  0  0  0  0  0  0
   31.2930  -22.4888  -19.1982 C   0  0  0  0  0  0  0  0  0  0  0  0
   31.9445  -22.4423  -20.5336 C   0  0  0  0  0  0  0  0  0  0  0  0
   33.2101  -21.7468  -20.5449 N   0  0  0  0  0  0  0  0  0  0  0  0
   27.4432  -21.9934  -16.6704 C   0  0  0  0  0  0  0  0  0  0  0  0
   26.4578  -22.7309  -16.9202 O   0  0  0  0  0  0  0  0  0  0  0  0
   27.4077  -21.2993  -15.4352 N   0  0  0  0  0  0  0  0  0  0  0  0
   26.2821  -21.5085  -14.4939 C   0  0  1  0  0  0  0  0  0  0  0  0
   26.7249  -21.0307  -13.1243 C   0  0  0  0  0  0  0  0  0  0  0  0
   25.6650  -21.1296  -12.0763 C   0  0  0  0  0  0  0  0  0  0  0  0
   26.1276  -20.6028  -10.7309 C   0  0  0  0  0  0  0  0  0  0  0  0
   25.0578  -20.8242   -9.7199 C   0  0  0  0  0  0  0  0  0  0  0  0
   25.4667  -20.2338   -8.4554 N   0  0  0  0  0  0  0  0  0  0  0  0
   25.0719  -20.8400  -15.0070 C   0  0  0  0  0  0  0  0  0  0  0  0
   25.1019  -19.5960  -15.3371 O   0  0  0  0  0  0  0  0  0  0  0  0
   23.8071  -21.4515  -15.1928 N   0  0  0  0  0  0  0  0  0  0  0  0
   22.6157  -20.7268  -15.5917 C   0  0  1  0  0  0  0  0  0  0  0  0
   21.9075  -21.5715  -16.6439 C   0  0  0  0  0  0  0  0  0  0  0  0
   20.6364  -20.9267  -17.0997 C   0  0  0  0  0  0  0  0  0  0  0  0
   19.9880  -21.7968  -18.1393 C   0  0  0  0  0  0  0  0  0  0  0  0
   18.7834  -21.1600  -18.7636 C   0  0  0  0  0  0  0  0  0  0  0  0
   18.1744  -22.1040  -19.6970 N   0  0  0  0  0  0  0  0  0  0  0  0
   21.6672  -20.5179  -14.4929 C   0  0  0  0  0  0  0  0  0  0  0  0
   20.8377  -19.4142  -14.5012 O   0  0  0  0  0  0  0  0  0  0  0  0
   21.6051  -21.3299  -13.5523 O   0  0  0  0  0  0  0  0  0  0  0  0
  2  3  1  0
  2  1  1  1
  4  3  1  0
  4  5  1  0
  6  5  1  0
  6  7  1  0
  8 10  1  0
  8  2  1  0
  9  8  2  0
 11 10  1  0
 11 12  1  1
 13 12  1  0
 14 13  1  0
 15 14  1  0
 16 15  1  0
 17 18  2  0
 17 11  1  0
 19 17  1  0
 20 21  1  6
 20 19  1  0
 22 21  1  0
 22 23  1  0
 23 24  1  0
 24 25  1  0
 26 20  1  0
 27 26  1  0
 28 26  2  0
M  END
$$$$
