KKK.pdb
     RDKit          3D

 28 27  0  0  1  0  0  0  0  0999 V2000
   28.6817  -24.7418  -17.2232 N   0  0  0  0  0  0  0  0  0  0  0  0
   29.2286  -23.3977  -17.0332 C   0  0  1  0  0  0  0  0  0  0  0  0
   30.5845  -23.4115  -17.7002 C   0  0  0  0  0  0  0  0  0  0  0  0
   31.1844  -24.7707  -17.6042 C   0  0  0  0  0  0  0  0  0  0  0  0
   32.1604  -24.9998  -16.5157 C   0  0  0  0  0  0  0  0  0  0  0  0
   32.8658  -26.3085  -16.5095 C   0  0  0  0  0  0  0  0  0  0  0  0
   33.7743  -26.4798  -15.4001 N   0  0  0  0  0  0  0  0  0  0  0  0
   28.3071  -22.4253  -17.6183 C   0  0  0  0  0  0  0  0  0  0  0  0
   28.5949  -21.2037  -17.5735 O   0  0  0  0  0  0  0  0  0  0  0  0
   27.0821  -22.7565  -18.2495 N   0  0  0  0  0  0  0  0  0  0  0  0
   26.2342  -21.6924  -18.8375 C   0  0  1  0  0  0  0  0  0  0  0  0
   26.5593  -21.6012  -20.3161 C   0  0  0  0  0  0  0  0  0  0  0  0
   25.6911  -20.6471  -21.0694 C   0  0  0  0  0  0  0  0  0  0  0  0
   26.4905  -19.5700  -21.7782 C   0  0  0  0  0  0  0  0  0  0  0  0
   25.5587  -18.6432  -22.4771 C   0  0  0  0  0  0  0  0  0  0  0  0
   26.3307  -17.6337  -23.1839 N   0  0  0  0  0  0  0  0  0  0  0  0
   24.8151  -21.9666  -18.5446 C   0  0  0  0  0  0  0  0  0  0  0  0
   24.3755  -23.1761  -18.5131 O   0  0  0  0  0  0  0  0  0  0  0  0
   23.8247  -20.9900  -18.2734 N   0  0  0  0  0  0  0  0  0  0  0  0
   22.4397  -21.3097  -17.9848 C   0  0  1  0  0  0  0  0  0  0  0  0
   21.6896  -19.9887  -17.8641 C   0  0  0  0  0  0  0  0  0  0  0  0
   20.2375  -20.2072  -17.5765 C   0  0  0  0  0  0  0  0  0  0  0  0
   19.5418  -18.8766  -17.5155 C   0  0  0  0  0  0  0  0  0  0  0  0
   18.0832  -18.9957  -17.1919 C   0  0  0  0  0  0  0  0  0  0  0  0
   17.5094  -17.6576  -17.0759 N   0  0  0  0  0  0  0  0  0  0  0  0
   21.7881  -22.0828  -19.0470 C   0  0  0  0  0  0  0  0  0  0  0  0
   20.9021  -23.0899  -18.7197 O   0  0  0  0  0  0  0  0  0  0  0  0
   22.0289  -21.8368  -20.2426 O   0  0  0  0  0  0  0  0  0  0  0  0
  2  3  1  0
  2  1  1  6
  4  3  1  0
  4  5  1  0
  6  5  1  0
  6  7  1  0
  8 10  1  0
  8  2  1  0
  9  8  2  0
 11 10  1  0
 11 12  1  6
 13 12  1  0
 14 13  1  0
 15 14  1  0
 16 15  1  0
 17 18  2  0
 17 11  1  0
 19 17  1  0
 20 21  1  6
 20 19  1  0
 22 21  1  0
 22 23  1  0
 23 24  1  0
 24 25  1  0
 26 20  1  0
 27 26  1  0
 28 26  2  0
M  END
$$$$
