KKK.pdb
     RDKit          3D

 28 27  0  0  1  0  0  0  0  0999 V2000
   20.3900  -11.0795  -15.7389 N   0  0  0  0  0  0  0  0  0  0  0  0
   20.1467  -10.2211  -16.8990 C   0  0  1  0  0  0  0  0  0  0  0  0
   20.3013  -11.1156  -18.1072 C   0  0  0  0  0  0  0  0  0  0  0  0
   20.3319  -12.5422  -17.6829 C   0  0  0  0  0  0  0  0  0  0  0  0
   20.3833  -13.5617  -18.7544 C   0  0  0  0  0  0  0  0  0  0  0  0
   20.3534  -14.9860  -18.3293 C   0  0  0  0  0  0  0  0  0  0  0  0
   20.5525  -15.9245  -19.4086 N   0  0  0  0  0  0  0  0  0  0  0  0
   18.8127   -9.6347  -16.7818 C   0  0  0  0  0  0  0  0  0  0  0  0
   18.3972   -8.8700  -17.6872 O   0  0  0  0  0  0  0  0  0  0  0  0
   17.9252   -9.8642  -15.7009 N   0  0  0  0  0  0  0  0  0  0  0  0
   16.5883   -9.2242  -15.6844 C   0  0  1  0  0  0  0  0  0  0  0  0
   15.6535  -10.1178  -14.8920 C   0  0  0  0  0  0  0  0  0  0  0  0
   14.2306   -9.6630  -14.8983 C   0  0  0  0  0  0  0  0  0  0  0  0
   13.3240  -10.5810  -14.1003 C   0  0  0  0  0  0  0  0  0  0  0  0
   11.9190  -10.1007  -14.2059 C   0  0  0  0  0  0  0  0  0  0  0  0
   11.0757  -10.8957  -13.3275 N   0  0  0  0  0  0  0  0  0  0  0  0
   16.7000   -7.8495  -15.1624 C   0  0  0  0  0  0  0  0  0  0  0  0
   17.4920   -7.5839  -14.1829 O   0  0  0  0  0  0  0  0  0  0  0  0
   15.9949   -6.7214  -15.6509 N   0  0  0  0  0  0  0  0  0  0  0  0
   16.1501   -5.3831  -15.1135 C   0  0  1  0  0  0  0  0  0  0  0  0
   16.1443   -4.4212  -16.2955 C   0  0  0  0  0  0  0  0  0  0  0  0
   16.3259   -3.0043  -15.8499 C   0  0  0  0  0  0  0  0  0  0  0  0
   16.4380   -2.1184  -17.0586 C   0  0  0  0  0  0  0  0  0  0  0  0
   16.6906   -0.6832  -16.7080 C   0  0  0  0  0  0  0  0  0  0  0  0
   16.9300    0.0725  -17.9346 N   0  0  0  0  0  0  0  0  0  0  0  0
   15.0551   -4.9834  -14.2238 C   0  0  0  0  0  0  0  0  0  0  0  0
   15.2118   -3.8972  -13.3859 O   0  0  0  0  0  0  0  0  0  0  0  0
   13.9847   -5.6174  -14.2190 O   0  0  0  0  0  0  0  0  0  0  0  0
  2  3  1  0
  2  1  1  1
  4  3  1  0
  4  5  1  0
  6  5  1  0
  6  7  1  0
  8 10  1  0
  8  2  1  0
  9  8  2  0
 11 10  1  0
 11 12  1  1
 13 12  1  0
 14 13  1  0
 15 14  1  0
 16 15  1  0
 17 18  2  0
 17 11  1  0
 19 17  1  0
 20 21  1  6
 20 19  1  0
 22 21  1  0
 22 23  1  0
 23 24  1  0
 24 25  1  0
 26 20  1  0
 27 26  1  0
 28 26  2  0
M  END
$$$$
