KKK.pdb
     RDKit          3D

 28 27  0  0  1  0  0  0  0  0999 V2000
   19.4964  -20.8826  -16.6866 N   0  0  0  0  0  0  0  0  0  0  0  0
   20.3970  -20.4137  -15.6327 C   0  0  1  0  0  0  0  0  0  0  0  0
   20.0652  -21.2437  -14.4142 C   0  0  0  0  0  0  0  0  0  0  0  0
   18.6831  -21.7850  -14.5288 C   0  0  0  0  0  0  0  0  0  0  0  0
   18.2794  -22.8129  -13.5437 C   0  0  0  0  0  0  0  0  0  0  0  0
   16.8932  -23.3393  -13.6510 C   0  0  0  0  0  0  0  0  0  0  0  0
   16.5693  -24.3437  -12.6652 N   0  0  0  0  0  0  0  0  0  0  0  0
   21.7780  -20.5767  -16.0837 C   0  0  0  0  0  0  0  0  0  0  0  0
   22.7149  -20.1896  -15.3425 O   0  0  0  0  0  0  0  0  0  0  0  0
   22.1572  -21.1513  -17.3226 N   0  0  0  0  0  0  0  0  0  0  0  0
   23.5886  -21.3804  -17.6317 C   0  0  1  0  0  0  0  0  0  0  0  0
   23.7012  -22.7036  -18.3644 C   0  0  0  0  0  0  0  0  0  0  0  0
   25.1007  -23.0757  -18.7311 C   0  0  0  0  0  0  0  0  0  0  0  0
   25.9217  -23.5040  -17.5294 C   0  0  0  0  0  0  0  0  0  0  0  0
   27.3079  -23.8235  -17.9673 C   0  0  0  0  0  0  0  0  0  0  0  0
   28.0926  -24.2265  -16.8111 N   0  0  0  0  0  0  0  0  0  0  0  0
   24.1287  -20.2276  -18.3760 C   0  0  0  0  0  0  0  0  0  0  0  0
   23.4117  -19.6250  -19.2592 O   0  0  0  0  0  0  0  0  0  0  0  0
   25.4232  -19.6739  -18.2143 N   0  0  0  0  0  0  0  0  0  0  0  0
   25.9001  -18.5189  -18.9507 C   0  0  1  0  0  0  0  0  0  0  0  0
   27.3395  -18.2719  -18.5154 C   0  0  0  0  0  0  0  0  0  0  0  0
   27.9212  -17.0749  -19.1995 C   0  0  0  0  0  0  0  0  0  0  0  0
   29.3087  -16.8337  -18.6751 C   0  0  0  0  0  0  0  0  0  0  0  0
   29.9349  -15.5915  -19.2329 C   0  0  0  0  0  0  0  0  0  0  0  0
   31.2743  -15.4387  -18.6707 N   0  0  0  0  0  0  0  0  0  0  0  0
   25.9149  -18.7210  -20.4030 C   0  0  0  0  0  0  0  0  0  0  0  0
   25.6259  -17.6669  -21.2468 O   0  0  0  0  0  0  0  0  0  0  0  0
   26.1863  -19.8374  -20.8803 O   0  0  0  0  0  0  0  0  0  0  0  0
  2  3  1  0
  2  1  1  6
  4  3  1  0
  4  5  1  0
  6  5  1  0
  6  7  1  0
  8 10  1  0
  8  2  1  0
  9  8  2  0
 11 10  1  0
 11 12  1  6
 13 12  1  0
 14 13  1  0
 15 14  1  0
 16 15  1  0
 17 18  2  0
 17 11  1  0
 19 17  1  0
 20 21  1  1
 20 19  1  0
 22 21  1  0
 22 23  1  0
 23 24  1  0
 24 25  1  0
 26 20  1  0
 27 26  1  0
 28 26  2  0
M  END
$$$$
