KKK.pdb
     RDKit          3D

 28 27  0  0  1  0  0  0  0  0999 V2000
   27.2979  -20.3843  -16.3330 N   0  0  0  0  0  0  0  0  0  0  0  0
   25.9626  -20.7188  -16.8295 C   0  0  1  0  0  0  0  0  0  0  0  0
   26.1500  -21.9232  -17.7228 C   0  0  0  0  0  0  0  0  0  0  0  0
   27.5579  -21.9862  -18.2025 C   0  0  0  0  0  0  0  0  0  0  0  0
   28.3723  -23.1355  -17.7488 C   0  0  0  0  0  0  0  0  0  0  0  0
   29.7676  -23.2128  -18.2563 C   0  0  0  0  0  0  0  0  0  0  0  0
   30.5819  -24.1989  -17.5854 N   0  0  0  0  0  0  0  0  0  0  0  0
   25.0850  -20.9767  -15.6891 C   0  0  0  0  0  0  0  0  0  0  0  0
   23.9330  -21.4334  -15.8928 O   0  0  0  0  0  0  0  0  0  0  0  0
   25.4367  -20.7477  -14.3354 N   0  0  0  0  0  0  0  0  0  0  0  0
   24.4398  -20.9606  -13.2593 C   0  0  1  0  0  0  0  0  0  0  0  0
   25.1416  -20.7666  -11.9289 C   0  0  0  0  0  0  0  0  0  0  0  0
   24.2627  -20.9909  -10.7420 C   0  0  0  0  0  0  0  0  0  0  0  0
   24.9892  -20.7628   -9.4298 C   0  0  0  0  0  0  0  0  0  0  0  0
   24.0478  -20.9872   -8.2990 C   0  0  0  0  0  0  0  0  0  0  0  0
   24.7389  -20.7324   -7.0450 N   0  0  0  0  0  0  0  0  0  0  0  0
   23.2820  -20.0718  -13.4690 C   0  0  0  0  0  0  0  0  0  0  0  0
   23.4538  -18.8172  -13.7011 O   0  0  0  0  0  0  0  0  0  0  0  0
   21.9218  -20.4691  -13.4471 N   0  0  0  0  0  0  0  0  0  0  0  0
   20.8144  -19.5522  -13.6384 C   0  0  1  0  0  0  0  0  0  0  0  0
   20.8623  -19.0864  -15.0886 C   0  0  0  0  0  0  0  0  0  0  0  0
   19.7500  -18.1337  -15.3953 C   0  0  0  0  0  0  0  0  0  0  0  0
   19.8674  -17.6830  -16.8240 C   0  0  0  0  0  0  0  0  0  0  0  0
   18.8891  -16.6038  -17.1771 C   0  0  0  0  0  0  0  0  0  0  0  0
   19.0615  -16.2446  -18.5823 N   0  0  0  0  0  0  0  0  0  0  0  0
   19.5028  -20.1724  -13.4253 C   0  0  0  0  0  0  0  0  0  0  0  0
   18.5507  -19.5233  -12.6645 O   0  0  0  0  0  0  0  0  0  0  0  0
   19.2421  -21.2811  -13.9261 O   0  0  0  0  0  0  0  0  0  0  0  0
  2  3  1  0
  2  1  1  1
  4  3  1  0
  4  5  1  0
  6  5  1  0
  6  7  1  0
  8 10  1  0
  8  2  1  0
  9  8  2  0
 11 10  1  0
 11 12  1  1
 13 12  1  0
 14 13  1  0
 15 14  1  0
 16 15  1  0
 17 18  2  0
 17 11  1  0
 19 17  1  0
 20 21  1  6
 20 19  1  0
 22 21  1  0
 22 23  1  0
 23 24  1  0
 24 25  1  0
 26 20  1  0
 27 26  1  0
 28 26  2  0
M  END
$$$$
