KKK.pdb
     RDKit          3D

 28 27  0  0  1  0  0  0  0  0999 V2000
   22.3782  -21.0262   -9.3505 N   0  0  0  0  0  0  0  0  0  0  0  0
   22.4855  -21.1996  -10.7996 C   0  0  1  0  0  0  0  0  0  0  0  0
   21.2165  -20.6145  -11.3750 C   0  0  0  0  0  0  0  0  0  0  0  0
   20.0686  -21.5221  -11.1016 C   0  0  0  0  0  0  0  0  0  0  0  0
   19.9187  -22.7014  -11.9829 C   0  0  0  0  0  0  0  0  0  0  0  0
   18.7811  -23.6146  -11.6965 C   0  0  0  0  0  0  0  0  0  0  0  0
   17.6064  -22.9464  -11.1875 N   0  0  0  0  0  0  0  0  0  0  0  0
   23.6958  -20.5267  -11.2681 C   0  0  0  0  0  0  0  0  0  0  0  0
   24.0272  -19.4310  -10.7516 O   0  0  0  0  0  0  0  0  0  0  0  0
   24.5494  -21.0224  -12.2851 N   0  0  0  0  0  0  0  0  0  0  0  0
   25.7404  -20.2456  -12.7038 C   0  0  1  0  0  0  0  0  0  0  0  0
   26.8833  -21.2207  -12.9117 C   0  0  0  0  0  0  0  0  0  0  0  0
   28.1902  -20.7476  -12.3643 C   0  0  0  0  0  0  0  0  0  0  0  0
   28.9333  -21.8362  -11.6130 C   0  0  0  0  0  0  0  0  0  0  0  0
   30.1540  -21.2586  -10.9870 C   0  0  0  0  0  0  0  0  0  0  0  0
   30.7994  -22.2758  -10.1724 N   0  0  0  0  0  0  0  0  0  0  0  0
   25.4138  -19.4326  -13.8900 C   0  0  0  0  0  0  0  0  0  0  0  0
   24.5923  -19.8722  -14.7784 O   0  0  0  0  0  0  0  0  0  0  0  0
   25.9301  -18.1440  -14.1750 N   0  0  0  0  0  0  0  0  0  0  0  0
   25.6383  -17.4137  -15.3938 C   0  0  1  0  0  0  0  0  0  0  0  0
   26.4118  -16.1024  -15.3275 C   0  0  0  0  0  0  0  0  0  0  0  0
   26.1399  -15.2447  -16.5232 C   0  0  0  0  0  0  0  0  0  0  0  0
   26.9554  -13.9865  -16.4226 C   0  0  0  0  0  0  0  0  0  0  0  0
   26.8226  -13.1077  -17.6293 C   0  0  0  0  0  0  0  0  0  0  0  0
   27.4862  -11.8333  -17.3669 N   0  0  0  0  0  0  0  0  0  0  0  0
   26.0722  -18.1123  -16.6079 C   0  0  0  0  0  0  0  0  0  0  0  0
   25.2699  -18.1009  -17.7315 O   0  0  0  0  0  0  0  0  0  0  0  0
   27.1599  -18.7158  -16.6321 O   0  0  0  0  0  0  0  0  0  0  0  0
  2  3  1  0
  2  1  1  1
  4  3  1  0
  4  5  1  0
  6  5  1  0
  6  7  1  0
  8 10  1  0
  8  2  1  0
  9  8  2  0
 11 10  1  0
 11 12  1  6
 13 12  1  0
 14 13  1  0
 15 14  1  0
 16 15  1  0
 17 18  2  0
 17 11  1  0
 19 17  1  0
 20 21  1  1
 20 19  1  0
 22 21  1  0
 22 23  1  0
 23 24  1  0
 24 25  1  0
 26 20  1  0
 27 26  1  0
 28 26  2  0
M  END
$$$$
