KKK.pdb
     RDKit          3D

 28 27  0  0  1  0  0  0  0  0999 V2000
   23.4684  -24.6951  -14.2093 N   0  0  0  0  0  0  0  0  0  0  0  0
   22.8097  -24.7329  -15.5155 C   0  0  1  0  0  0  0  0  0  0  0  0
   22.2601  -23.3424  -15.7350 C   0  0  0  0  0  0  0  0  0  0  0  0
   21.7410  -22.7926  -14.4526 C   0  0  0  0  0  0  0  0  0  0  0  0
   20.3022  -22.9911  -14.1690 C   0  0  0  0  0  0  0  0  0  0  0  0
   19.7803  -22.4126  -12.9029 C   0  0  0  0  0  0  0  0  0  0  0  0
   18.3907  -22.7132  -12.6496 N   0  0  0  0  0  0  0  0  0  0  0  0
   23.7867  -25.1338  -16.5264 C   0  0  0  0  0  0  0  0  0  0  0  0
   23.6720  -24.6958  -17.6978 O   0  0  0  0  0  0  0  0  0  0  0  0
   24.8828  -25.9998  -16.2869 N   0  0  0  0  0  0  0  0  0  0  0  0
   25.7660  -26.4117  -17.4038 C   0  0  1  0  0  0  0  0  0  0  0  0
   26.9656  -27.1251  -16.8105 C   0  0  0  0  0  0  0  0  0  0  0  0
   27.9700  -27.5671  -17.8242 C   0  0  0  0  0  0  0  0  0  0  0  0
   29.1039  -28.3652  -17.2086 C   0  0  0  0  0  0  0  0  0  0  0  0
   30.0751  -28.7430  -18.2715 C   0  0  0  0  0  0  0  0  0  0  0  0
   31.1849  -29.4645  -17.6692 N   0  0  0  0  0  0  0  0  0  0  0  0
   25.0008  -27.2167  -18.3739 C   0  0  0  0  0  0  0  0  0  0  0  0
   24.0737  -28.0155  -17.9743 O   0  0  0  0  0  0  0  0  0  0  0  0
   25.1795  -27.2045  -19.7797 N   0  0  0  0  0  0  0  0  0  0  0  0
   24.3421  -27.9473  -20.7020 C   0  0  1  0  0  0  0  0  0  0  0  0
   22.9268  -27.3991  -20.5645 C   0  0  0  0  0  0  0  0  0  0  0  0
   21.9987  -28.0224  -21.5591 C   0  0  0  0  0  0  0  0  0  0  0  0
   20.6030  -27.5244  -21.3098 C   0  0  0  0  0  0  0  0  0  0  0  0
   19.5503  -28.4496  -21.8410 C   0  0  0  0  0  0  0  0  0  0  0  0
   18.2479  -28.0373  -21.3243 N   0  0  0  0  0  0  0  0  0  0  0  0
   24.7359  -27.7840  -22.1051 C   0  0  0  0  0  0  0  0  0  0  0  0
   25.1928  -26.5606  -22.5531 O   0  0  0  0  0  0  0  0  0  0  0  0
   24.6608  -28.7421  -22.8953 O   0  0  0  0  0  0  0  0  0  0  0  0
  2  3  1  0
  2  1  1  1
  4  3  1  0
  4  5  1  0
  6  5  1  0
  6  7  1  0
  8 10  1  0
  8  2  1  0
  9  8  2  0
 11 10  1  0
 11 12  1  1
 13 12  1  0
 14 13  1  0
 15 14  1  0
 16 15  1  0
 17 18  2  0
 17 11  1  0
 19 17  1  0
 20 21  1  6
 20 19  1  0
 22 21  1  0
 22 23  1  0
 23 24  1  0
 24 25  1  0
 26 20  1  0
 27 26  1  0
 28 26  2  0
M  END
$$$$
