CPK.pdb
     RDKit          3D

 23 23  0  0  1  0  0  0  0  0999 V2000
    8.2973  -14.2899   21.0661 N   0  0  0  0  0  0  0  0  0  0  0  0
    7.4665  -14.2534   22.2253 C   0  0  1  0  0  0  0  0  0  0  0  0
    6.4203  -15.3693   22.1356 C   0  0  0  0  0  0  0  0  0  0  0  0
    5.3906  -15.1426   20.6655 S   0  0  0  0  0  0  0  0  0  0  0  0
    8.1529  -14.3149   23.5129 C   0  0  0  0  0  0  0  0  0  0  0  0
    9.2274  -14.9487   23.5758 O   0  0  0  0  0  0  0  0  0  0  0  0
    7.6785  -13.6937   24.7269 N   0  0  0  0  0  0  0  0  0  0  0  0
    6.7048  -12.6236   24.7142 C   0  0  0  0  0  0  0  0  0  0  0  0
    6.5982  -12.1506   26.1467 C   0  0  0  0  0  0  0  0  0  0  0  0
    7.0187  -13.3580   26.9535 C   0  0  0  0  0  0  0  0  0  0  0  0
    8.0713  -13.9666   26.0672 C   0  0  1  0  0  0  0  0  0  0  0  0
    8.2498  -15.4116   26.3839 C   0  0  0  0  0  0  0  0  0  0  0  0
    7.4444  -16.3143   26.1550 O   0  0  0  0  0  0  0  0  0  0  0  0
    9.4767  -15.7739   27.0135 N   0  0  0  0  0  0  0  0  0  0  0  0
    9.9171  -17.1265   27.1927 C   0  0  1  0  0  0  0  0  0  0  0  0
   10.6782  -17.6865   26.0366 C   0  0  0  0  0  0  0  0  0  0  0  0
   11.1908  -19.0697   26.1798 C   0  0  0  0  0  0  0  0  0  0  0  0
   11.9285  -19.5678   24.9624 C   0  0  0  0  0  0  0  0  0  0  0  0
   12.3338  -21.0228   25.1795 C   0  0  0  0  0  0  0  0  0  0  0  0
   12.9931  -21.5367   23.9891 N   0  0  0  0  0  0  0  0  0  0  0  0
   10.5587  -17.3487   28.5115 C   0  0  0  0  0  0  0  0  0  0  0  0
   11.3587  -16.3595   29.0808 O   0  0  0  0  0  0  0  0  0  0  0  0
   10.4130  -18.4131   29.1618 O   0  0  0  0  0  0  0  0  0  0  0  0
  2  5  1  0
  2  3  1  0
  2  1  1  6
  3  4  1  0
  5  6  2  0
  7 11  1  0
  7  5  1  0
  8  7  1  0
  9 10  1  0
  9  8  1  0
 10 11  1  0
 11 12  1  6
 12 13  2  0
 12 14  1  0
 14 15  1  0
 15 21  1  0
 16 17  1  0
 15 16  1  6
 18 19  1  0
 18 17  1  0
 20 19  1  0
 21 23  2  0
 21 22  1  0
M  END
$$$$
