CPK.pdb
     RDKit          3D

 23 23  0  0  1  0  0  0  0  0999 V2000
    5.1382  -14.8677   26.3602 N   0  0  0  0  0  0  0  0  0  0  0  0
    6.1015  -14.0905   25.6508 C   0  0  1  0  0  0  0  0  0  0  0  0
    6.7969  -13.1323   26.6235 C   0  0  0  0  0  0  0  0  0  0  0  0
    8.1629  -12.2840   25.7943 S   0  0  0  0  0  0  0  0  0  0  0  0
    7.0980  -14.8377   24.8881 C   0  0  0  0  0  0  0  0  0  0  0  0
    7.8013  -15.6703   25.4984 O   0  0  0  0  0  0  0  0  0  0  0  0
    7.3326  -14.6844   23.4718 N   0  0  0  0  0  0  0  0  0  0  0  0
    6.4509  -13.9105   22.6250 C   0  0  0  0  0  0  0  0  0  0  0  0
    6.9458  -14.1275   21.2125 C   0  0  0  0  0  0  0  0  0  0  0  0
    8.4054  -14.4765   21.3953 C   0  0  0  0  0  0  0  0  0  0  0  0
    8.3757  -15.2496   22.6858 C   0  0  1  0  0  0  0  0  0  0  0  0
    9.7186  -15.2413   23.3312 C   0  0  0  0  0  0  0  0  0  0  0  0
   10.0907  -14.4905   24.2334 O   0  0  0  0  0  0  0  0  0  0  0  0
   10.6573  -16.2004   22.8497 N   0  0  0  0  0  0  0  0  0  0  0  0
   11.6383  -16.8453   23.6727 C   0  0  1  0  0  0  0  0  0  0  0  0
   11.0896  -17.4709   24.9125 C   0  0  0  0  0  0  0  0  0  0  0  0
   12.0532  -18.1798   25.7873 C   0  0  0  0  0  0  0  0  0  0  0  0
   11.4108  -18.8372   26.9829 C   0  0  0  0  0  0  0  0  0  0  0  0
   12.4850  -19.5367   27.8107 C   0  0  0  0  0  0  0  0  0  0  0  0
   11.8681  -20.2722   28.9034 N   0  0  0  0  0  0  0  0  0  0  0  0
   12.5474  -17.7236   22.8965 C   0  0  0  0  0  0  0  0  0  0  0  0
   12.0402  -18.8109   22.1872 O   0  0  0  0  0  0  0  0  0  0  0  0
   13.7874  -17.5316   22.8424 O   0  0  0  0  0  0  0  0  0  0  0  0
  2  5  1  0
  2  3  1  0
  2  1  1  1
  3  4  1  0
  5  6  2  0
  7 11  1  0
  7  5  1  0
  8  7  1  0
  9 10  1  0
  9  8  1  0
 10 11  1  0
 11 12  1  1
 12 13  2  0
 12 14  1  0
 14 15  1  0
 15 21  1  0
 16 17  1  0
 15 16  1  1
 18 19  1  0
 18 17  1  0
 20 19  1  0
 21 23  2  0
 21 22  1  0
M  END
$$$$
