CPK.pdb
     RDKit          3D

 23 23  0  0  1  0  0  0  0  0999 V2000
    9.3072  -12.3784   18.9518 N   0  0  0  0  0  0  0  0  0  0  0  0
    9.4995  -13.7620   19.2417 C   0  0  1  0  0  0  0  0  0  0  0  0
   11.0003  -14.0612   19.3176 C   0  0  0  0  0  0  0  0  0  0  0  0
   11.7585  -13.8673   17.6864 S   0  0  0  0  0  0  0  0  0  0  0  0
    8.8282  -14.2704   20.4349 C   0  0  0  0  0  0  0  0  0  0  0  0
    8.7548  -13.5209   21.4315 O   0  0  0  0  0  0  0  0  0  0  0  0
    8.2393  -15.5836   20.5493 N   0  0  0  0  0  0  0  0  0  0  0  0
    7.9384  -16.3958   19.3903 C   0  0  0  0  0  0  0  0  0  0  0  0
    7.1992  -17.6047   19.9187 C   0  0  0  0  0  0  0  0  0  0  0  0
    7.6730  -17.7153   21.3501 C   0  0  0  0  0  0  0  0  0  0  0  0
    7.8379  -16.2688   21.7302 C   0  0  1  0  0  0  0  0  0  0  0  0
    8.7761  -16.1342   22.8799 C   0  0  0  0  0  0  0  0  0  0  0  0
    9.9740  -16.4189   22.8822 O   0  0  0  0  0  0  0  0  0  0  0  0
    8.2227  -15.6249   24.0912 N   0  0  0  0  0  0  0  0  0  0  0  0
    8.9645  -15.4682   25.3081 C   0  0  1  0  0  0  0  0  0  0  0  0
    8.5158  -14.3289   26.1625 C   0  0  0  0  0  0  0  0  0  0  0  0
    7.4214  -13.4833   25.6296 C   0  0  0  0  0  0  0  0  0  0  0  0
    6.9542  -12.4235   26.5954 C   0  0  0  0  0  0  0  0  0  0  0  0
    5.8360  -11.6109   25.9490 C   0  0  0  0  0  0  0  0  0  0  0  0
    5.1977  -10.7654   26.9458 N   0  0  0  0  0  0  0  0  0  0  0  0
    9.1408  -16.7471   26.0387 C   0  0  0  0  0  0  0  0  0  0  0  0
    8.4870  -17.9000   25.6078 O   0  0  0  0  0  0  0  0  0  0  0  0
    9.8717  -16.8480   27.0550 O   0  0  0  0  0  0  0  0  0  0  0  0
  2  5  1  0
  2  3  1  0
  2  1  1  1
  3  4  1  0
  5  6  2  0
  7 11  1  0
  7  5  1  0
  8  7  1  0
  9 10  1  0
  9  8  1  0
 10 11  1  0
 11 12  1  1
 12 13  2  0
 12 14  1  0
 14 15  1  0
 15 21  1  0
 16 17  1  0
 15 16  1  1
 18 19  1  0
 18 17  1  0
 20 19  1  0
 21 23  2  0
 21 22  1  0
M  END
$$$$
