CPK.pdb
     RDKit          3D

 23 23  0  0  1  0  0  0  0  0999 V2000
    8.1491  -15.0688   21.5105 N   0  0  0  0  0  0  0  0  0  0  0  0
    7.3699  -15.0669   22.7056 C   0  0  1  0  0  0  0  0  0  0  0  0
    6.7159  -16.4406   22.8877 C   0  0  0  0  0  0  0  0  0  0  0  0
    5.9591  -16.5591   24.5266 S   0  0  0  0  0  0  0  0  0  0  0  0
    8.0667  -14.6796   23.9293 C   0  0  0  0  0  0  0  0  0  0  0  0
    9.1454  -15.2500   24.1964 O   0  0  0  0  0  0  0  0  0  0  0  0
    7.5982  -13.6799   24.8598 N   0  0  0  0  0  0  0  0  0  0  0  0
    6.5298  -12.7618   24.5297 C   0  0  0  0  0  0  0  0  0  0  0  0
    6.4518  -11.7919   25.6874 C   0  0  0  0  0  0  0  0  0  0  0  0
    7.0228  -12.5745   26.8479 C   0  0  0  0  0  0  0  0  0  0  0  0
    8.0816  -13.4000   26.1686 C   0  0  1  0  0  0  0  0  0  0  0  0
    8.4096  -14.6032   26.9840 C   0  0  0  0  0  0  0  0  0  0  0  0
    7.6251  -15.4871   27.3296 O   0  0  0  0  0  0  0  0  0  0  0  0
    9.7671  -14.7345   27.3995 N   0  0  0  0  0  0  0  0  0  0  0  0
   10.2848  -15.8737   28.0994 C   0  0  1  0  0  0  0  0  0  0  0  0
   11.5288  -16.4493   27.5073 C   0  0  0  0  0  0  0  0  0  0  0  0
   11.4140  -17.7866   26.8786 C   0  0  0  0  0  0  0  0  0  0  0  0
   12.2412  -17.9366   25.6266 C   0  0  0  0  0  0  0  0  0  0  0  0
   11.9500  -19.2926   24.9902 C   0  0  0  0  0  0  0  0  0  0  0  0
   12.8158  -19.4961   23.8392 N   0  0  0  0  0  0  0  0  0  0  0  0
   10.3474  -15.6633   29.5664 C   0  0  0  0  0  0  0  0  0  0  0  0
   10.0216  -14.4239   30.1144 O   0  0  0  0  0  0  0  0  0  0  0  0
   10.6876  -16.5716   30.3642 O   0  0  0  0  0  0  0  0  0  0  0  0
  2  5  1  0
  2  3  1  0
  2  1  1  6
  3  4  1  0
  5  6  2  0
  7 11  1  0
  7  5  1  0
  8  7  1  0
  9 10  1  0
  9  8  1  0
 10 11  1  0
 11 12  1  1
 12 13  2  0
 12 14  1  0
 14 15  1  0
 15 21  1  0
 16 17  1  0
 15 16  1  6
 18 19  1  0
 18 17  1  0
 20 19  1  0
 21 23  2  0
 21 22  1  0
M  END
$$$$
