CPK.pdb
     RDKit          3D

 23 23  0  0  1  0  0  0  0  0999 V2000
    5.7675  -18.5222   24.3912 N   0  0  0  0  0  0  0  0  0  0  0  0
    6.2395  -17.1783   24.3115 C   0  0  1  0  0  0  0  0  0  0  0  0
    6.3847  -16.6063   25.7256 C   0  0  0  0  0  0  0  0  0  0  0  0
    6.7411  -14.8343   25.6483 S   0  0  0  0  0  0  0  0  0  0  0  0
    7.4747  -16.9719   23.5602 C   0  0  0  0  0  0  0  0  0  0  0  0
    8.4523  -17.7029   23.8254 O   0  0  0  0  0  0  0  0  0  0  0  0
    7.6515  -15.9791   22.5269 N   0  0  0  0  0  0  0  0  0  0  0  0
    6.5328  -15.2831   21.9290 C   0  0  0  0  0  0  0  0  0  0  0  0
    7.1172  -14.4627   20.8009 C   0  0  0  0  0  0  0  0  0  0  0  0
    8.5544  -14.2520   21.2202 C   0  0  0  0  0  0  0  0  0  0  0  0
    8.8631  -15.5495   21.9166 C   0  0  1  0  0  0  0  0  0  0  0  0
   10.0088  -15.3799   22.8540 C   0  0  0  0  0  0  0  0  0  0  0  0
    9.9959  -14.7617   23.9188 O   0  0  0  0  0  0  0  0  0  0  0  0
   11.2354  -15.9978   22.4714 N   0  0  0  0  0  0  0  0  0  0  0  0
   12.3919  -16.0746   23.3154 C   0  0  1  0  0  0  0  0  0  0  0  0
   12.1282  -16.6323   24.6751 C   0  0  0  0  0  0  0  0  0  0  0  0
   11.5456  -17.9936   24.7386 C   0  0  0  0  0  0  0  0  0  0  0  0
   11.4352  -18.5368   26.1411 C   0  0  0  0  0  0  0  0  0  0  0  0
   10.7584  -19.9039   26.0998 C   0  0  0  0  0  0  0  0  0  0  0  0
   10.6932  -20.4653   27.4401 N   0  0  0  0  0  0  0  0  0  0  0  0
   13.5630  -16.6710   22.6273 C   0  0  0  0  0  0  0  0  0  0  0  0
   13.4383  -17.1745   21.3337 O   0  0  0  0  0  0  0  0  0  0  0  0
   14.6951  -16.7467   23.1656 O   0  0  0  0  0  0  0  0  0  0  0  0
  2  5  1  0
  2  3  1  0
  2  1  1  1
  3  4  1  0
  5  6  2  0
  7 11  1  0
  7  5  1  0
  8  7  1  0
  9 10  1  0
  9  8  1  0
 10 11  1  0
 11 12  1  1
 12 13  2  0
 12 14  1  0
 14 15  1  0
 15 21  1  0
 16 17  1  0
 15 16  1  1
 18 19  1  0
 18 17  1  0
 20 19  1  0
 21 23  2  0
 21 22  1  0
M  END
$$$$
