CPK.pdb
     RDKit          3D

 23 23  0  0  1  0  0  0  0  0999 V2000
    8.7179  -17.1552   16.4243 N   0  0  0  0  0  0  0  0  0  0  0  0
    7.9705  -16.7203   17.5590 C   0  0  1  0  0  0  0  0  0  0  0  0
    7.1957  -17.9067   18.1420 C   0  0  0  0  0  0  0  0  0  0  0  0
    6.3749  -17.4210   19.6794 S   0  0  0  0  0  0  0  0  0  0  0  0
    8.7288  -16.0525   18.6135 C   0  0  0  0  0  0  0  0  0  0  0  0
    9.6919  -16.6646   19.1216 O   0  0  0  0  0  0  0  0  0  0  0  0
    8.4463  -14.7289   19.1160 N   0  0  0  0  0  0  0  0  0  0  0  0
    7.5134  -13.8391   18.4590 C   0  0  0  0  0  0  0  0  0  0  0  0
    7.6205  -12.5206   19.1918 C   0  0  0  0  0  0  0  0  0  0  0  0
    8.1115  -12.9149   20.5662 C   0  0  0  0  0  0  0  0  0  0  0  0
    9.0122  -14.0771   20.2474 C   0  0  1  0  0  0  0  0  0  0  0  0
    9.1886  -14.9457   21.4451 C   0  0  0  0  0  0  0  0  0  0  0  0
    8.2949  -15.5147   22.0726 O   0  0  0  0  0  0  0  0  0  0  0  0
   10.5268  -15.1296   21.9012 N   0  0  0  0  0  0  0  0  0  0  0  0
   10.8991  -16.0310   22.9522 C   0  0  1  0  0  0  0  0  0  0  0  0
   10.4713  -17.4448   22.7335 C   0  0  0  0  0  0  0  0  0  0  0  0
   10.8741  -18.4325   23.7624 C   0  0  0  0  0  0  0  0  0  0  0  0
   10.4955  -19.8508   23.4168 C   0  0  0  0  0  0  0  0  0  0  0  0
   11.0138  -20.7893   24.5027 C   0  0  0  0  0  0  0  0  0  0  0  0
   10.7570  -22.1710   24.1277 N   0  0  0  0  0  0  0  0  0  0  0  0
   12.3169  -15.8782   23.3608 C   0  0  0  0  0  0  0  0  0  0  0  0
   13.2261  -15.2363   22.5219 O   0  0  0  0  0  0  0  0  0  0  0  0
   12.7531  -16.3089   24.4569 O   0  0  0  0  0  0  0  0  0  0  0  0
  2  5  1  0
  2  3  1  0
  2  1  1  6
  3  4  1  0
  5  6  2  0
  7 11  1  0
  7  5  1  0
  8  7  1  0
  9 10  1  0
  9  8  1  0
 10 11  1  0
 11 12  1  1
 12 13  2  0
 12 14  1  0
 14 15  1  0
 15 21  1  0
 16 17  1  0
 15 16  1  6
 18 19  1  0
 18 17  1  0
 20 19  1  0
 21 23  2  0
 21 22  1  0
M  END
$$$$
