CPK.pdb
     RDKit          3D

 23 23  0  0  1  0  0  0  0  0999 V2000
    8.7982  -14.6405   21.4473 N   0  0  0  0  0  0  0  0  0  0  0  0
    7.8408  -14.7731   22.4967 C   0  0  1  0  0  0  0  0  0  0  0  0
    7.1401  -16.1305   22.3765 C   0  0  0  0  0  0  0  0  0  0  0  0
    6.3384  -16.5595   23.9406 S   0  0  0  0  0  0  0  0  0  0  0  0
    8.3435  -14.5894   23.8555 C   0  0  0  0  0  0  0  0  0  0  0  0
    9.3502  -15.2425   24.2024 O   0  0  0  0  0  0  0  0  0  0  0  0
    7.7596  -13.7033   24.8345 N   0  0  0  0  0  0  0  0  0  0  0  0
    6.7765  -12.7033   24.4781 C   0  0  0  0  0  0  0  0  0  0  0  0
    6.5422  -11.8942   25.7340 C   0  0  0  0  0  0  0  0  0  0  0  0
    6.9084  -12.8492   26.8474 C   0  0  0  0  0  0  0  0  0  0  0  0
    8.0405  -13.6222   26.2272 C   0  0  1  0  0  0  0  0  0  0  0  0
    8.2104  -14.9368   26.9078 C   0  0  0  0  0  0  0  0  0  0  0  0
    7.4855  -15.9239   26.7807 O   0  0  0  0  0  0  0  0  0  0  0  0
    9.3242  -15.0525   27.7903 N   0  0  0  0  0  0  0  0  0  0  0  0
    9.7727  -16.2906   28.3573 C   0  0  1  0  0  0  0  0  0  0  0  0
   10.2449  -17.2931   27.3565 C   0  0  0  0  0  0  0  0  0  0  0  0
   11.6072  -17.0985   26.8061 C   0  0  0  0  0  0  0  0  0  0  0  0
   11.9647  -18.0828   25.7209 C   0  0  0  0  0  0  0  0  0  0  0  0
   13.4207  -17.8764   25.3136 C   0  0  0  0  0  0  0  0  0  0  0  0
   13.8058  -18.8741   24.3276 N   0  0  0  0  0  0  0  0  0  0  0  0
   10.6915  -16.0940   29.5051 C   0  0  0  0  0  0  0  0  0  0  0  0
   11.1200  -17.1852   30.2589 O   0  0  0  0  0  0  0  0  0  0  0  0
   11.1173  -14.9615   29.8420 O   0  0  0  0  0  0  0  0  0  0  0  0
  2  5  1  0
  2  3  1  0
  2  1  1  6
  3  4  1  0
  5  6  2  0
  7 11  1  0
  7  5  1  0
  8  7  1  0
  9 10  1  0
  9  8  1  0
 10 11  1  0
 11 12  1  1
 12 13  2  0
 12 14  1  0
 14 15  1  0
 15 21  1  0
 16 17  1  0
 15 16  1  6
 18 19  1  0
 18 17  1  0
 20 19  1  0
 21 23  2  0
 21 22  1  0
M  END
$$$$
