CPK.pdb
     RDKit          3D

 23 23  0  0  1  0  0  0  0  0999 V2000
    8.9276  -16.3996   15.7181 N   0  0  0  0  0  0  0  0  0  0  0  0
    8.1855  -16.2490   16.9271 C   0  0  1  0  0  0  0  0  0  0  0  0
    7.5530  -17.5924   17.3055 C   0  0  0  0  0  0  0  0  0  0  0  0
    6.7814  -17.4811   18.9381 S   0  0  0  0  0  0  0  0  0  0  0  0
    8.9149  -15.7018   18.0679 C   0  0  0  0  0  0  0  0  0  0  0  0
    9.9125  -16.3289   18.4825 O   0  0  0  0  0  0  0  0  0  0  0  0
    8.5665  -14.4818   18.7570 N   0  0  0  0  0  0  0  0  0  0  0  0
    7.5277  -13.5964   18.2768 C   0  0  0  0  0  0  0  0  0  0  0  0
    7.5825  -12.3785   19.1715 C   0  0  0  0  0  0  0  0  0  0  0  0
    8.1911  -12.9033   20.4520 C   0  0  0  0  0  0  0  0  0  0  0  0
    9.1545  -13.9355   19.9321 C   0  0  1  0  0  0  0  0  0  0  0  0
    9.4744  -14.9328   20.9920 C   0  0  0  0  0  0  0  0  0  0  0  0
    8.6803  -15.7009   21.5357 O   0  0  0  0  0  0  0  0  0  0  0  0
   10.8359  -14.9958   21.4105 N   0  0  0  0  0  0  0  0  0  0  0  0
   11.3449  -15.9604   22.3412 C   0  0  1  0  0  0  0  0  0  0  0  0
   10.9843  -17.3743   22.0242 C   0  0  0  0  0  0  0  0  0  0  0  0
   11.4446  -18.4120   22.9771 C   0  0  0  0  0  0  0  0  0  0  0  0
   10.9796  -19.8025   22.6244 C   0  0  0  0  0  0  0  0  0  0  0  0
   11.5123  -20.7893   23.6593 C   0  0  0  0  0  0  0  0  0  0  0  0
   11.0301  -22.1288   23.3612 N   0  0  0  0  0  0  0  0  0  0  0  0
   12.7798  -15.7514   22.6536 C   0  0  0  0  0  0  0  0  0  0  0  0
   13.5286  -14.8212   21.9348 O   0  0  0  0  0  0  0  0  0  0  0  0
   13.3723  -16.3871   23.5602 O   0  0  0  0  0  0  0  0  0  0  0  0
  2  5  1  0
  2  3  1  0
  2  1  1  6
  3  4  1  0
  5  6  2  0
  7 11  1  0
  7  5  1  0
  8  7  1  0
  9 10  1  0
  9  8  1  0
 10 11  1  0
 11 12  1  1
 12 13  2  0
 12 14  1  0
 14 15  1  0
 15 21  1  0
 16 17  1  0
 15 16  1  6
 18 19  1  0
 18 17  1  0
 20 19  1  0
 21 23  2  0
 21 22  1  0
M  END
$$$$
