CPK.pdb
     RDKit          3D

 23 23  0  0  1  0  0  0  0  0999 V2000
    9.7286  -16.9309   16.7998 N   0  0  0  0  0  0  0  0  0  0  0  0
    8.6938  -16.4387   17.6495 C   0  0  1  0  0  0  0  0  0  0  0  0
    7.6688  -17.5503   17.8979 C   0  0  0  0  0  0  0  0  0  0  0  0
    6.6369  -17.7867   16.4308 S   0  0  0  0  0  0  0  0  0  0  0  0
    9.1228  -15.8621   18.9210 C   0  0  0  0  0  0  0  0  0  0  0  0
   10.0387  -16.4364   19.5468 O   0  0  0  0  0  0  0  0  0  0  0  0
    8.5632  -14.6700   19.5126 N   0  0  0  0  0  0  0  0  0  0  0  0
    7.7390  -13.7505   18.7583 C   0  0  0  0  0  0  0  0  0  0  0  0
    7.4921  -12.5747   19.6769 C   0  0  0  0  0  0  0  0  0  0  0  0
    7.6450  -13.1645   21.0605 C   0  0  0  0  0  0  0  0  0  0  0  0
    8.7286  -14.1847   20.8401 C   0  0  1  0  0  0  0  0  0  0  0  0
    8.6831  -15.2326   21.8984 C   0  0  0  0  0  0  0  0  0  0  0  0
    7.7185  -15.9439   22.1808 O   0  0  0  0  0  0  0  0  0  0  0  0
    9.8785  -15.4224   22.6519 N   0  0  0  0  0  0  0  0  0  0  0  0
   10.0363  -16.4229   23.6667 C   0  0  1  0  0  0  0  0  0  0  0  0
   10.4809  -17.7542   23.1575 C   0  0  0  0  0  0  0  0  0  0  0  0
   11.8679  -17.8447   22.6430 C   0  0  0  0  0  0  0  0  0  0  0  0
   12.2591  -19.2344   22.2068 C   0  0  0  0  0  0  0  0  0  0  0  0
   13.6616  -19.1976   21.6067 C   0  0  0  0  0  0  0  0  0  0  0  0
   14.1090  -20.5493   21.3091 N   0  0  0  0  0  0  0  0  0  0  0  0
   10.7998  -15.9317   24.8398 C   0  0  0  0  0  0  0  0  0  0  0  0
   10.8661  -16.6927   26.0055 O   0  0  0  0  0  0  0  0  0  0  0  0
   11.4090  -14.8335   24.8363 O   0  0  0  0  0  0  0  0  0  0  0  0
  2  5  1  0
  2  3  1  0
  2  1  1  1
  3  4  1  0
  5  6  2  0
  7 11  1  0
  7  5  1  0
  8  7  1  0
  9 10  1  0
  9  8  1  0
 10 11  1  0
 11 12  1  1
 12 13  2  0
 12 14  1  0
 14 15  1  0
 15 21  1  0
 16 17  1  0
 15 16  1  6
 18 19  1  0
 18 17  1  0
 20 19  1  0
 21 23  2  0
 21 22  1  0
M  END
$$$$
