CPK.pdb
     RDKit          3D

 23 23  0  0  1  0  0  0  0  0999 V2000
    7.8800  -12.6720   18.4539 N   0  0  0  0  0  0  0  0  0  0  0  0
    8.3308  -14.0246   18.5036 C   0  0  1  0  0  0  0  0  0  0  0  0
    9.7755  -14.0973   17.9982 C   0  0  0  0  0  0  0  0  0  0  0  0
    9.8276  -13.8070   16.2133 S   0  0  0  0  0  0  0  0  0  0  0  0
    8.2199  -14.6944   19.7967 C   0  0  0  0  0  0  0  0  0  0  0  0
    8.3955  -14.0121   20.8282 O   0  0  0  0  0  0  0  0  0  0  0  0
    7.9207  -16.0958   19.9727 N   0  0  0  0  0  0  0  0  0  0  0  0
    7.4728  -16.9304   18.8790 C   0  0  0  0  0  0  0  0  0  0  0  0
    7.1214  -18.2640   19.4996 C   0  0  0  0  0  0  0  0  0  0  0  0
    7.9662  -18.3084   20.7526 C   0  0  0  0  0  0  0  0  0  0  0  0
    7.9697  -16.8629   21.1703 C   0  0  1  0  0  0  0  0  0  0  0  0
    9.1384  -16.5755   22.0488 C   0  0  0  0  0  0  0  0  0  0  0  0
   10.2935  -16.3607   21.6805 O   0  0  0  0  0  0  0  0  0  0  0  0
    8.8836  -16.5489   23.4513 N   0  0  0  0  0  0  0  0  0  0  0  0
    9.8872  -16.2978   24.4440 C   0  0  1  0  0  0  0  0  0  0  0  0
    9.3988  -15.5496   25.6404 C   0  0  0  0  0  0  0  0  0  0  0  0
   10.3763  -15.3190   26.7303 C   0  0  0  0  0  0  0  0  0  0  0  0
    9.8318  -14.4822   27.8607 C   0  0  0  0  0  0  0  0  0  0  0  0
   10.9235  -14.2779   28.9071 C   0  0  0  0  0  0  0  0  0  0  0  0
   10.4275  -13.4335   29.9826 N   0  0  0  0  0  0  0  0  0  0  0  0
   10.6895  -17.5039   24.7636 C   0  0  0  0  0  0  0  0  0  0  0  0
   12.0808  -17.4334   24.8045 O   0  0  0  0  0  0  0  0  0  0  0  0
   10.1642  -18.6181   25.0079 O   0  0  0  0  0  0  0  0  0  0  0  0
  2  5  1  0
  2  3  1  0
  2  1  1  1
  3  4  1  0
  5  6  2  0
  7 11  1  0
  7  5  1  0
  8  7  1  0
  9 10  1  0
  9  8  1  0
 10 11  1  0
 11 12  1  6
 12 13  2  0
 12 14  1  0
 14 15  1  0
 15 21  1  0
 16 17  1  0
 15 16  1  1
 18 19  1  0
 18 17  1  0
 20 19  1  0
 21 23  2  0
 21 22  1  0
M  END
$$$$
