CPK.pdb
     RDKit          3D

 23 23  0  0  1  0  0  0  0  0999 V2000
    5.8442  -18.3953   19.1896 N   0  0  0  0  0  0  0  0  0  0  0  0
    5.7492  -17.0352   19.6095 C   0  0  1  0  0  0  0  0  0  0  0  0
    4.4347  -16.8288   20.3693 C   0  0  0  0  0  0  0  0  0  0  0  0
    4.3184  -17.9989   21.7442 S   0  0  0  0  0  0  0  0  0  0  0  0
    6.8672  -16.5239   20.3980 C   0  0  0  0  0  0  0  0  0  0  0  0
    7.5343  -17.3398   21.0686 O   0  0  0  0  0  0  0  0  0  0  0  0
    7.2613  -15.1364   20.4609 N   0  0  0  0  0  0  0  0  0  0  0  0
    6.7779  -14.1554   19.5136 C   0  0  0  0  0  0  0  0  0  0  0  0
    7.5360  -12.8831   19.8196 C   0  0  0  0  0  0  0  0  0  0  0  0
    7.9162  -13.0354   21.2749 C   0  0  0  0  0  0  0  0  0  0  0  0
    8.1600  -14.5168   21.3738 C   0  0  1  0  0  0  0  0  0  0  0  0
    8.0305  -14.9748   22.7858 C   0  0  0  0  0  0  0  0  0  0  0  0
    7.0090  -14.9441   23.4726 O   0  0  0  0  0  0  0  0  0  0  0  0
    9.2104  -15.4979   23.3915 N   0  0  0  0  0  0  0  0  0  0  0  0
    9.2573  -16.0431   24.7167 C   0  0  1  0  0  0  0  0  0  0  0  0
    8.4813  -17.3066   24.8925 C   0  0  0  0  0  0  0  0  0  0  0  0
    8.4699  -17.9015   26.2499 C   0  0  0  0  0  0  0  0  0  0  0  0
    7.7536  -19.2267   26.3208 C   0  0  0  0  0  0  0  0  0  0  0  0
    7.7243  -19.7065   27.7690 C   0  0  0  0  0  0  0  0  0  0  0  0
    6.9247  -20.9170   27.8741 N   0  0  0  0  0  0  0  0  0  0  0  0
   10.6341  -16.0904   25.2669 C   0  0  0  0  0  0  0  0  0  0  0  0
   10.8409  -16.1206   26.6449 O   0  0  0  0  0  0  0  0  0  0  0  0
   11.6534  -16.1065   24.5335 O   0  0  0  0  0  0  0  0  0  0  0  0
  2  5  1  0
  2  3  1  0
  2  1  1  1
  3  4  1  0
  5  6  2  0
  7 11  1  0
  7  5  1  0
  8  7  1  0
  9 10  1  0
  9  8  1  0
 10 11  1  0
 11 12  1  1
 12 13  2  0
 12 14  1  0
 14 15  1  0
 15 21  1  0
 16 17  1  0
 15 16  1  6
 18 19  1  0
 18 17  1  0
 20 19  1  0
 21 23  2  0
 21 22  1  0
M  END
$$$$
