CPK.pdb
     RDKit          3D

 23 23  0  0  1  0  0  0  0  0999 V2000
    7.9127  -17.4895   17.1460 N   0  0  0  0  0  0  0  0  0  0  0  0
    7.3289  -16.9165   18.3148 C   0  0  1  0  0  0  0  0  0  0  0  0
    6.4740  -17.9714   19.0249 C   0  0  0  0  0  0  0  0  0  0  0  0
    5.8727  -17.3271   20.6048 S   0  0  0  0  0  0  0  0  0  0  0  0
    8.2543  -16.3028   19.2635 C   0  0  0  0  0  0  0  0  0  0  0  0
    9.2205  -16.9846   19.6658 O   0  0  0  0  0  0  0  0  0  0  0  0
    8.1346  -14.9578   19.7746 N   0  0  0  0  0  0  0  0  0  0  0  0
    7.1884  -14.0087   19.2293 C   0  0  0  0  0  0  0  0  0  0  0  0
    7.4840  -12.6950   19.9178 C   0  0  0  0  0  0  0  0  0  0  0  0
    8.1227  -13.1119   21.2231 C   0  0  0  0  0  0  0  0  0  0  0  0
    8.8893  -14.3390   20.8103 C   0  0  1  0  0  0  0  0  0  0  0  0
    9.1601  -15.2077   21.9902 C   0  0  0  0  0  0  0  0  0  0  0  0
    8.3182  -15.7584   22.7002 O   0  0  0  0  0  0  0  0  0  0  0  0
   10.5313  -15.4152   22.3210 N   0  0  0  0  0  0  0  0  0  0  0  0
   10.9811  -16.2920   23.3624 C   0  0  1  0  0  0  0  0  0  0  0  0
   10.6554  -17.7322   23.1408 C   0  0  0  0  0  0  0  0  0  0  0  0
   11.0852  -18.6849   24.1916 C   0  0  0  0  0  0  0  0  0  0  0  0
   10.7021  -20.1145   23.9018 C   0  0  0  0  0  0  0  0  0  0  0  0
   11.2022  -21.0089   25.0326 C   0  0  0  0  0  0  0  0  0  0  0  0
   10.6897  -22.3592   24.8601 N   0  0  0  0  0  0  0  0  0  0  0  0
   12.3887  -16.0377   23.7555 C   0  0  0  0  0  0  0  0  0  0  0  0
   13.1574  -15.1077   23.0578 O   0  0  0  0  0  0  0  0  0  0  0  0
   12.9396  -16.6336   24.7139 O   0  0  0  0  0  0  0  0  0  0  0  0
  2  5  1  0
  2  3  1  0
  2  1  1  6
  3  4  1  0
  5  6  2  0
  7 11  1  0
  7  5  1  0
  8  7  1  0
  9 10  1  0
  9  8  1  0
 10 11  1  0
 11 12  1  1
 12 13  2  0
 12 14  1  0
 14 15  1  0
 15 21  1  0
 16 17  1  0
 15 16  1  6
 18 19  1  0
 18 17  1  0
 20 19  1  0
 21 23  2  0
 21 22  1  0
M  END
$$$$
