CPK.pdb
     RDKit          3D

 23 23  0  0  1  0  0  0  0  0999 V2000
    5.7747  -19.1071   20.4407 N   0  0  0  0  0  0  0  0  0  0  0  0
    5.7762  -17.7303   20.8145 C   0  0  1  0  0  0  0  0  0  0  0  0
    4.8691  -17.5341   22.0338 C   0  0  0  0  0  0  0  0  0  0  0  0
    5.5460  -18.4128   23.4630 S   0  0  0  0  0  0  0  0  0  0  0  0
    7.0844  -17.1310   21.0640 C   0  0  0  0  0  0  0  0  0  0  0  0
    8.0172  -17.8832   21.4168 O   0  0  0  0  0  0  0  0  0  0  0  0
    7.3819  -15.7243   20.9327 N   0  0  0  0  0  0  0  0  0  0  0  0
    6.4480  -14.7923   20.3387 C   0  0  0  0  0  0  0  0  0  0  0  0
    7.1874  -13.4765   20.2445 C   0  0  0  0  0  0  0  0  0  0  0  0
    8.2295  -13.5737   21.3355 C   0  0  0  0  0  0  0  0  0  0  0  0
    8.5731  -15.0381   21.3005 C   0  0  1  0  0  0  0  0  0  0  0  0
    9.1656  -15.4672   22.5986 C   0  0  0  0  0  0  0  0  0  0  0  0
    8.5577  -15.6516   23.6533 O   0  0  0  0  0  0  0  0  0  0  0  0
   10.5750  -15.6825   22.6098 N   0  0  0  0  0  0  0  0  0  0  0  0
   11.2833  -16.2994   23.6931 C   0  0  1  0  0  0  0  0  0  0  0  0
   10.7622  -17.6422   24.0863 C   0  0  0  0  0  0  0  0  0  0  0  0
   11.4734  -18.3411   25.1828 C   0  0  0  0  0  0  0  0  0  0  0  0
   10.8582  -19.6680   25.5504 C   0  0  0  0  0  0  0  0  0  0  0  0
   11.6775  -20.3113   26.6655 C   0  0  0  0  0  0  0  0  0  0  0  0
   11.1870  -21.6551   26.9290 N   0  0  0  0  0  0  0  0  0  0  0  0
   12.7553  -16.2423   23.5195 C   0  0  0  0  0  0  0  0  0  0  0  0
   13.3167  -16.2990   22.2450 O   0  0  0  0  0  0  0  0  0  0  0  0
   13.5456  -16.1411   24.4903 O   0  0  0  0  0  0  0  0  0  0  0  0
  2  5  1  0
  2  3  1  0
  2  1  1  1
  3  4  1  0
  5  6  2  0
  7 11  1  0
  7  5  1  0
  8  7  1  0
  9 10  1  0
  9  8  1  0
 10 11  1  0
 11 12  1  1
 12 13  2  0
 12 14  1  0
 14 15  1  0
 15 21  1  0
 16 17  1  0
 15 16  1  6
 18 19  1  0
 18 17  1  0
 20 19  1  0
 21 23  2  0
 21 22  1  0
M  END
$$$$
