CDQ.pdb
     RDKit          3D

 24 23  0  0  1  0  0  0  0  0999 V2000
  -10.3969  -16.0508   19.8123 N   0  0  0  0  0  0  0  0  0  0  0  0
   -8.9688  -16.1316   19.5916 C   0  0  1  0  0  0  0  0  0  0  0  0
   -8.2737  -15.4695   20.7462 C   0  0  0  0  0  0  0  0  0  0  0  0
   -8.5765  -13.6986   20.7210 S   0  0  0  0  0  0  0  0  0  0  0  0
   -8.5193  -17.5316   19.4061 C   0  0  0  0  0  0  0  0  0  0  0  0
   -9.2001  -18.4353   19.9526 O   0  0  0  0  0  0  0  0  0  0  0  0
   -7.3739  -17.8530   18.6484 N   0  0  0  0  0  0  0  0  0  0  0  0
   -6.9900  -19.2046   18.3355 C   0  0  1  0  0  0  0  0  0  0  0  0
   -6.0832  -19.2773   17.1371 C   0  0  0  0  0  0  0  0  0  0  0  0
   -6.8089  -19.1608   15.8632 C   0  0  0  0  0  0  0  0  0  0  0  0
   -6.1768  -18.9276   14.8088 O   0  0  0  0  0  0  0  0  0  0  0  0
   -6.2608  -19.8200   19.4766 C   0  0  0  0  0  0  0  0  0  0  0  0
   -5.4189  -19.1436   20.0842 O   0  0  0  0  0  0  0  0  0  0  0  0
   -8.1799  -19.3031   15.7993 O   0  0  0  0  0  0  0  0  0  0  0  0
   -8.0340  -21.0021   24.4263 N   0  0  0  0  0  0  0  0  0  0  0  0
   -6.7115  -21.3848   24.7014 C   0  0  0  0  0  0  0  0  0  0  0  0
   -6.3724  -21.7092   25.8485 O   0  0  0  0  0  0  0  0  0  0  0  0
   -5.7162  -21.4003   23.6125 C   0  0  0  0  0  0  0  0  0  0  0  0
   -6.2569  -20.9124   22.3146 C   0  0  0  0  0  0  0  0  0  0  0  0
   -5.8740  -21.7073   21.1177 C   0  0  2  0  0  0  0  0  0  0  0  0
   -6.4930  -21.1564   19.8979 N   0  0  0  0  0  0  0  0  0  0  0  0
   -6.1527  -23.1398   21.1707 C   0  0  0  0  0  0  0  0  0  0  0  0
   -7.4654  -23.6002   20.9317 O   0  0  0  0  0  0  0  0  0  0  0  0
   -5.3295  -24.0571   21.4145 O   0  0  0  0  0  0  0  0  0  0  0  0
  2  5  1  0
  2  1  1  1
  3  2  1  0
  4  3  1  0
  5  6  2  0
  7  5  1  0
  8  7  1  0
  8  9  1  6
  8 12  1  0
  9 10  1  0
 10 14  1  0
 11 10  2  0
 12 13  2  0
 16 17  2  0
 16 15  1  0
 18 16  1  0
 19 18  1  0
 20 19  1  1
 21 12  1  0
 21 20  1  0
 22 23  1  0
 22 20  1  0
 24 22  2  0
M  END
$$$$
