CDQ.pdb
     RDKit          3D

 24 23  0  0  1  0  0  0  0  0999 V2000
    8.3452  -16.3869   20.0893 N   0  0  0  0  0  0  0  0  0  0  0  0
    8.9629  -15.5150   21.0656 C   0  0  1  0  0  0  0  0  0  0  0  0
    7.8939  -14.6542   21.6744 C   0  0  0  0  0  0  0  0  0  0  0  0
    7.2149  -13.5400   20.4392 S   0  0  0  0  0  0  0  0  0  0  0  0
    9.7072  -16.2805   22.0935 C   0  0  0  0  0  0  0  0  0  0  0  0
    9.2740  -17.4216   22.3919 O   0  0  0  0  0  0  0  0  0  0  0  0
   10.8587  -15.7617   22.7214 N   0  0  0  0  0  0  0  0  0  0  0  0
   11.5952  -16.4762   23.7309 C   0  0  1  0  0  0  0  0  0  0  0  0
   12.8784  -15.7824   24.0994 C   0  0  0  0  0  0  0  0  0  0  0  0
   13.9047  -15.8837   23.0509 C   0  0  0  0  0  0  0  0  0  0  0  0
   14.0547  -16.9609   22.4323 O   0  0  0  0  0  0  0  0  0  0  0  0
   10.7908  -16.6033   24.9755 C   0  0  0  0  0  0  0  0  0  0  0  0
   10.5355  -15.5829   25.6305 O   0  0  0  0  0  0  0  0  0  0  0  0
   14.7135  -14.8131   22.7285 O   0  0  0  0  0  0  0  0  0  0  0  0
    6.0316  -20.1970   25.8879 N   0  0  0  0  0  0  0  0  0  0  0  0
    6.1586  -18.9568   25.2422 C   0  0  0  0  0  0  0  0  0  0  0  0
    5.3008  -18.5738   24.4336 O   0  0  0  0  0  0  0  0  0  0  0  0
    7.3258  -18.1018   25.5302 C   0  0  0  0  0  0  0  0  0  0  0  0
    8.2771  -18.7120   26.4986 C   0  0  0  0  0  0  0  0  0  0  0  0
    9.5495  -17.9709   26.7057 C   0  0  2  0  0  0  0  0  0  0  0  0
   10.3028  -17.8523   25.4436 N   0  0  0  0  0  0  0  0  0  0  0  0
   10.4473  -18.4926   27.7325 C   0  0  0  0  0  0  0  0  0  0  0  0
   10.0396  -18.4758   29.0837 O   0  0  0  0  0  0  0  0  0  0  0  0
   11.5924  -18.9776   27.5537 O   0  0  0  0  0  0  0  0  0  0  0  0
  2  5  1  0
  2  1  1  6
  3  2  1  0
  4  3  1  0
  5  6  2  0
  7  5  1  0
  8  7  1  0
  8  9  1  1
  8 12  1  0
  9 10  1  0
 10 14  1  0
 11 10  2  0
 12 13  2  0
 16 17  2  0
 16 15  1  0
 18 16  1  0
 19 18  1  0
 20 19  1  6
 21 12  1  0
 21 20  1  0
 22 23  1  0
 22 20  1  0
 24 22  2  0
M  END
$$$$
