CDQ.pdb
     RDKit          3D

 24 23  0  0  1  0  0  0  0  0999 V2000
    6.7162  -14.4076   19.1091 N   0  0  0  0  0  0  0  0  0  0  0  0
    8.1274  -14.5848   19.3777 C   0  0  1  0  0  0  0  0  0  0  0  0
    8.7778  -13.2317   19.4014 C   0  0  0  0  0  0  0  0  0  0  0  0
    8.0661  -12.2229   20.7068 S   0  0  0  0  0  0  0  0  0  0  0  0
    8.3581  -15.3302   20.6377 C   0  0  0  0  0  0  0  0  0  0  0  0
    7.4032  -15.4014   21.4512 O   0  0  0  0  0  0  0  0  0  0  0  0
    9.5959  -15.9415   20.9267 N   0  0  0  0  0  0  0  0  0  0  0  0
    9.8206  -16.7522   22.0947 C   0  0  1  0  0  0  0  0  0  0  0  0
   11.0796  -17.5692   21.9887 C   0  0  0  0  0  0  0  0  0  0  0  0
   11.2851  -18.4553   23.1443 C   0  0  0  0  0  0  0  0  0  0  0  0
   12.2343  -18.2388   23.9303 O   0  0  0  0  0  0  0  0  0  0  0  0
    9.9499  -15.9005   23.3072 C   0  0  0  0  0  0  0  0  0  0  0  0
   10.7432  -14.9487   23.2888 O   0  0  0  0  0  0  0  0  0  0  0  0
   10.4520  -19.5282   23.3868 O   0  0  0  0  0  0  0  0  0  0  0  0
    5.5811  -12.9280   25.7109 N   0  0  0  0  0  0  0  0  0  0  0  0
    6.6207  -12.4968   26.5504 C   0  0  0  0  0  0  0  0  0  0  0  0
    6.4847  -11.4893   27.2593 O   0  0  0  0  0  0  0  0  0  0  0  0
    7.8875  -13.2519   26.5877 C   0  0  0  0  0  0  0  0  0  0  0  0
    7.9483  -14.3486   25.5834 C   0  0  0  0  0  0  0  0  0  0  0  0
    9.1830  -15.1767   25.6078 C   0  0  2  0  0  0  0  0  0  0  0  0
    9.1973  -16.1364   24.4884 N   0  0  0  0  0  0  0  0  0  0  0  0
    9.4546  -15.9048   26.8442 C   0  0  0  0  0  0  0  0  0  0  0  0
    9.8116  -15.1883   28.0068 O   0  0  0  0  0  0  0  0  0  0  0  0
    9.4077  -17.1493   27.0093 O   0  0  0  0  0  0  0  0  0  0  0  0
  2  5  1  0
  2  1  1  1
  3  2  1  0
  4  3  1  0
  5  6  2  0
  7  5  1  0
  8  7  1  0
  8  9  1  6
  8 12  1  0
  9 10  1  0
 10 14  1  0
 11 10  2  0
 12 13  2  0
 16 17  2  0
 16 15  1  0
 18 16  1  0
 19 18  1  0
 20 19  1  1
 21 12  1  0
 21 20  1  0
 22 23  1  0
 22 20  1  0
 24 22  2  0
M  END
$$$$
