CDQ.pdb
     RDKit          3D

 24 23  0  0  1  0  0  0  0  0999 V2000
    7.1203  -15.1073   18.6328 N   0  0  0  0  0  0  0  0  0  0  0  0
    8.3089  -14.6302   19.3069 C   0  0  1  0  0  0  0  0  0  0  0  0
    8.1229  -13.1733   19.6191 C   0  0  0  0  0  0  0  0  0  0  0  0
    8.1642  -12.2037   18.1070 S   0  0  0  0  0  0  0  0  0  0  0  0
    8.6061  -15.4219   20.5240 C   0  0  0  0  0  0  0  0  0  0  0  0
    7.6366  -15.7466   21.2543 O   0  0  0  0  0  0  0  0  0  0  0  0
    9.9209  -15.8037   20.8628 N   0  0  0  0  0  0  0  0  0  0  0  0
   10.2260  -16.7074   21.9409 C   0  0  1  0  0  0  0  0  0  0  0  0
   11.5888  -17.3283   21.7968 C   0  0  0  0  0  0  0  0  0  0  0  0
   11.8821  -18.3139   22.8482 C   0  0  0  0  0  0  0  0  0  0  0  0
   13.0651  -18.4999   23.2109 O   0  0  0  0  0  0  0  0  0  0  0  0
   10.2037  -15.9935   23.2457 C   0  0  0  0  0  0  0  0  0  0  0  0
   11.0310  -15.0939   23.4504 O   0  0  0  0  0  0  0  0  0  0  0  0
   10.8788  -19.0453   23.4503 O   0  0  0  0  0  0  0  0  0  0  0  0
    6.6102  -11.6374   26.9233 N   0  0  0  0  0  0  0  0  0  0  0  0
    6.7144  -12.9859   26.5464 C   0  0  0  0  0  0  0  0  0  0  0  0
    5.7034  -13.6969   26.4544 O   0  0  0  0  0  0  0  0  0  0  0  0
    8.0419  -13.5610   26.2573 C   0  0  0  0  0  0  0  0  0  0  0  0
    7.9910  -15.0024   25.8902 C   0  0  0  0  0  0  0  0  0  0  0  0
    9.3009  -15.6353   25.5825 C   0  0  2  0  0  0  0  0  0  0  0  0
    9.2685  -16.3037   24.2686 N   0  0  0  0  0  0  0  0  0  0  0  0
    9.8151  -16.5809   26.5695 C   0  0  0  0  0  0  0  0  0  0  0  0
   10.0851  -16.1357   27.8814 O   0  0  0  0  0  0  0  0  0  0  0  0
   10.0587  -17.7998   26.3868 O   0  0  0  0  0  0  0  0  0  0  0  0
  2  5  1  0
  2  1  1  1
  3  2  1  0
  4  3  1  0
  5  6  2  0
  7  5  1  0
  8  7  1  0
  8  9  1  6
  8 12  1  0
  9 10  1  0
 10 14  1  0
 11 10  2  0
 12 13  2  0
 16 17  2  0
 16 15  1  0
 18 16  1  0
 19 18  1  0
 20 19  1  1
 21 12  1  0
 21 20  1  0
 22 23  1  0
 22 20  1  0
 24 22  2  0
M  END
$$$$
