CDQ.pdb
     RDKit          3D

 24 23  0  0  1  0  0  0  0  0999 V2000
    9.6139  -14.0189   18.9357 N   0  0  0  0  0  0  0  0  0  0  0  0
    8.5455  -13.7731   19.8807 C   0  0  1  0  0  0  0  0  0  0  0  0
    7.2452  -13.7545   19.1301 C   0  0  0  0  0  0  0  0  0  0  0  0
    7.3933  -12.7384   17.6557 S   0  0  0  0  0  0  0  0  0  0  0  0
    8.5375  -14.7734   20.9741 C   0  0  0  0  0  0  0  0  0  0  0  0
    7.5634  -14.7558   21.7676 O   0  0  0  0  0  0  0  0  0  0  0  0
    9.5757  -15.7152   21.1310 N   0  0  0  0  0  0  0  0  0  0  0  0
    9.6428  -16.6375   22.2342 C   0  0  1  0  0  0  0  0  0  0  0  0
   10.7181  -17.6731   22.0476 C   0  0  0  0  0  0  0  0  0  0  0  0
   10.9384  -18.4915   23.2495 C   0  0  0  0  0  0  0  0  0  0  0  0
   10.1017  -19.3664   23.5656 O   0  0  0  0  0  0  0  0  0  0  0  0
    9.9402  -15.9181   23.5016 C   0  0  0  0  0  0  0  0  0  0  0  0
   10.8497  -15.0766   23.5135 O   0  0  0  0  0  0  0  0  0  0  0  0
   12.0529  -18.3186   24.0446 O   0  0  0  0  0  0  0  0  0  0  0  0
    5.6808  -12.8248   25.8004 N   0  0  0  0  0  0  0  0  0  0  0  0
    6.6886  -12.4549   26.7052 C   0  0  0  0  0  0  0  0  0  0  0  0
    6.5546  -11.4573   27.4284 O   0  0  0  0  0  0  0  0  0  0  0  0
    7.9195  -13.2633   26.7950 C   0  0  0  0  0  0  0  0  0  0  0  0
    8.0017  -14.3266   25.7569 C   0  0  0  0  0  0  0  0  0  0  0  0
    9.2113  -15.1895   25.8130 C   0  0  2  0  0  0  0  0  0  0  0  0
    9.2202  -16.1590   24.7020 N   0  0  0  0  0  0  0  0  0  0  0  0
    9.4370  -15.9142   27.0606 C   0  0  0  0  0  0  0  0  0  0  0  0
    9.9105  -15.2160   28.1922 O   0  0  0  0  0  0  0  0  0  0  0  0
    9.2532  -17.1408   27.2610 O   0  0  0  0  0  0  0  0  0  0  0  0
  2  5  1  0
  2  1  1  6
  3  2  1  0
  4  3  1  0
  5  6  2  0
  7  5  1  0
  8  7  1  0
  8  9  1  6
  8 12  1  0
  9 10  1  0
 10 14  1  0
 11 10  2  0
 12 13  2  0
 16 17  2  0
 16 15  1  0
 18 16  1  0
 19 18  1  0
 20 19  1  1
 21 12  1  0
 21 20  1  0
 22 23  1  0
 22 20  1  0
 24 22  2  0
M  END
$$$$
