CDQ.pdb
     RDKit          3D

 24 23  0  0  1  0  0  0  0  0999 V2000
    7.2294  -14.8560   18.8321 N   0  0  0  0  0  0  0  0  0  0  0  0
    8.4474  -14.4720   19.5132 C   0  0  1  0  0  0  0  0  0  0  0  0
    8.2564  -13.0965   20.0842 C   0  0  0  0  0  0  0  0  0  0  0  0
    8.1867  -11.8798   18.7641 S   0  0  0  0  0  0  0  0  0  0  0  0
    8.8278  -15.4545   20.5554 C   0  0  0  0  0  0  0  0  0  0  0  0
    7.9006  -16.0844   21.1231 O   0  0  0  0  0  0  0  0  0  0  0  0
   10.1741  -15.6847   20.9076 N   0  0  0  0  0  0  0  0  0  0  0  0
   10.5790  -16.6820   21.8633 C   0  0  1  0  0  0  0  0  0  0  0  0
   12.0116  -17.1025   21.6770 C   0  0  0  0  0  0  0  0  0  0  0  0
   12.4183  -18.1719   22.6011 C   0  0  0  0  0  0  0  0  0  0  0  0
   13.1928  -17.9110   23.5485 O   0  0  0  0  0  0  0  0  0  0  0  0
   10.4505  -16.1614   23.2508 C   0  0  0  0  0  0  0  0  0  0  0  0
   11.1385  -15.1889   23.5917 O   0  0  0  0  0  0  0  0  0  0  0  0
   11.9647  -19.4663   22.4496 O   0  0  0  0  0  0  0  0  0  0  0  0
    6.0147  -12.5095   25.6897 N   0  0  0  0  0  0  0  0  0  0  0  0
    6.3608  -13.8688   25.7499 C   0  0  0  0  0  0  0  0  0  0  0  0
    5.5107  -14.7263   26.0297 O   0  0  0  0  0  0  0  0  0  0  0  0
    7.7514  -14.2792   25.4770 C   0  0  0  0  0  0  0  0  0  0  0  0
    8.0113  -15.7132   25.7788 C   0  0  0  0  0  0  0  0  0  0  0  0
    9.4068  -16.1756   25.5562 C   0  0  2  0  0  0  0  0  0  0  0  0
    9.5673  -16.7373   24.2023 N   0  0  0  0  0  0  0  0  0  0  0  0
    9.9365  -17.1358   26.5207 C   0  0  0  0  0  0  0  0  0  0  0  0
   10.0422  -16.7676   27.8792 O   0  0  0  0  0  0  0  0  0  0  0  0
   10.3284  -18.3048   26.2795 O   0  0  0  0  0  0  0  0  0  0  0  0
  2  5  1  0
  2  1  1  1
  3  2  1  0
  4  3  1  0
  5  6  2  0
  7  5  1  0
  8  7  1  0
  8  9  1  6
  8 12  1  0
  9 10  1  0
 10 14  1  0
 11 10  2  0
 12 13  2  0
 16 17  2  0
 16 15  1  0
 18 16  1  0
 19 18  1  0
 20 19  1  1
 21 12  1  0
 21 20  1  0
 22 23  1  0
 22 20  1  0
 24 22  2  0
M  END
$$$$
