CDQ.pdb
     RDKit          3D

 24 23  0  0  1  0  0  0  0  0999 V2000
    5.4420  -15.2898   25.6534 N   0  0  0  0  0  0  0  0  0  0  0  0
    6.5185  -14.5633   25.0144 C   0  0  1  0  0  0  0  0  0  0  0  0
    7.1506  -13.6607   26.0343 C   0  0  0  0  0  0  0  0  0  0  0  0
    5.9620  -12.4407   26.6060 S   0  0  0  0  0  0  0  0  0  0  0  0
    7.5084  -15.4774   24.3972 C   0  0  0  0  0  0  0  0  0  0  0  0
    7.4489  -16.6925   24.7115 O   0  0  0  0  0  0  0  0  0  0  0  0
    8.4856  -15.0163   23.4906 N   0  0  0  0  0  0  0  0  0  0  0  0
    9.4578  -15.8799   22.8735 C   0  0  1  0  0  0  0  0  0  0  0  0
   10.1725  -15.2103   21.7313 C   0  0  0  0  0  0  0  0  0  0  0  0
   11.1265  -16.1007   21.0531 C   0  0  0  0  0  0  0  0  0  0  0  0
   10.7318  -16.8390   20.1232 O   0  0  0  0  0  0  0  0  0  0  0  0
   10.4930  -16.2924   23.8587 C   0  0  0  0  0  0  0  0  0  0  0  0
   11.4769  -16.9323   23.4612 O   0  0  0  0  0  0  0  0  0  0  0  0
   12.4565  -16.1439   21.4180 O   0  0  0  0  0  0  0  0  0  0  0  0
   10.8098  -14.4564   29.9441 N   0  0  0  0  0  0  0  0  0  0  0  0
    9.9971  -14.0419   28.8769 C   0  0  0  0  0  0  0  0  0  0  0  0
    9.1300  -13.1719   29.0428 O   0  0  0  0  0  0  0  0  0  0  0  0
   10.1783  -14.6493   27.5447 C   0  0  0  0  0  0  0  0  0  0  0  0
   11.2379  -15.6939   27.5140 C   0  0  0  0  0  0  0  0  0  0  0  0
   11.4543  -16.3534   26.1989 C   0  0  2  0  0  0  0  0  0  0  0  0
   10.3971  -15.9805   25.2410 N   0  0  0  0  0  0  0  0  0  0  0  0
   11.5739  -17.8087   26.2119 C   0  0  0  0  0  0  0  0  0  0  0  0
   10.6432  -18.5875   25.4910 O   0  0  0  0  0  0  0  0  0  0  0  0
   12.4440  -18.4860   26.8141 O   0  0  0  0  0  0  0  0  0  0  0  0
  2  5  1  0
  2  1  1  1
  3  2  1  0
  4  3  1  0
  5  6  2  0
  7  5  1  0
  8  7  1  0
  8  9  1  6
  8 12  1  0
  9 10  1  0
 10 14  1  0
 11 10  2  0
 12 13  2  0
 16 17  2  0
 16 15  1  0
 18 16  1  0
 19 18  1  0
 20 19  1  1
 21 12  1  0
 21 20  1  0
 22 23  1  0
 22 20  1  0
 24 22  2  0
M  END
$$$$
