CDQ.pdb
     RDKit          3D

 24 23  0  0  1  0  0  0  0  0999 V2000
    7.0777  -14.5260   19.0860 N   0  0  0  0  0  0  0  0  0  0  0  0
    8.3269  -14.3299   19.7904 C   0  0  1  0  0  0  0  0  0  0  0  0
    8.3337  -12.9421   20.3635 C   0  0  0  0  0  0  0  0  0  0  0  0
    8.4666  -11.7268   19.0470 S   0  0  0  0  0  0  0  0  0  0  0  0
    8.5364  -15.3597   20.8354 C   0  0  0  0  0  0  0  0  0  0  0  0
    7.5186  -15.8022   21.4244 O   0  0  0  0  0  0  0  0  0  0  0  0
    9.8224  -15.8348   21.1670 N   0  0  0  0  0  0  0  0  0  0  0  0
   10.0623  -16.7952   22.2120 C   0  0  1  0  0  0  0  0  0  0  0  0
   11.3453  -17.5537   22.0065 C   0  0  0  0  0  0  0  0  0  0  0  0
   11.2781  -18.4961   20.8794 C   0  0  0  0  0  0  0  0  0  0  0  0
   10.3289  -19.3080   20.8061 O   0  0  0  0  0  0  0  0  0  0  0  0
   10.1579  -16.1193   23.5336 C   0  0  0  0  0  0  0  0  0  0  0  0
   11.1499  -15.4179   23.7772 O   0  0  0  0  0  0  0  0  0  0  0  0
   12.2422  -18.5088   19.8923 O   0  0  0  0  0  0  0  0  0  0  0  0
    6.0873  -11.7980   25.9715 N   0  0  0  0  0  0  0  0  0  0  0  0
    6.2755  -13.1851   25.8626 C   0  0  0  0  0  0  0  0  0  0  0  0
    5.3397  -13.9692   26.0763 O   0  0  0  0  0  0  0  0  0  0  0  0
    7.6017  -13.7132   25.4898 C   0  0  0  0  0  0  0  0  0  0  0  0
    7.9691  -14.9532   26.2263 C   0  0  0  0  0  0  0  0  0  0  0  0
    9.2629  -15.5741   25.8371 C   0  0  2  0  0  0  0  0  0  0  0  0
    9.1535  -16.2470   24.5296 N   0  0  0  0  0  0  0  0  0  0  0  0
    9.8488  -16.5113   26.7916 C   0  0  0  0  0  0  0  0  0  0  0  0
    9.9448  -17.8779   26.4518 O   0  0  0  0  0  0  0  0  0  0  0  0
   10.2995  -16.2388   27.9322 O   0  0  0  0  0  0  0  0  0  0  0  0
  2  5  1  0
  2  1  1  1
  3  2  1  0
  4  3  1  0
  5  6  2  0
  7  5  1  0
  8  7  1  0
  8  9  1  6
  8 12  1  0
  9 10  1  0
 10 14  1  0
 11 10  2  0
 12 13  2  0
 16 17  2  0
 16 15  1  0
 18 16  1  0
 19 18  1  0
 20 19  1  1
 21 12  1  0
 21 20  1  0
 22 23  1  0
 22 20  1  0
 24 22  2  0
M  END
$$$$
