CDQ.pdb
     RDKit          3D

 24 23  0  0  1  0  0  0  0  0999 V2000
    8.7091  -14.7749   17.7517 N   0  0  0  0  0  0  0  0  0  0  0  0
    9.1940  -13.8919   18.7910 C   0  0  1  0  0  0  0  0  0  0  0  0
    8.1887  -12.7936   18.9853 C   0  0  0  0  0  0  0  0  0  0  0  0
    6.9893  -12.8052   17.6477 S   0  0  0  0  0  0  0  0  0  0  0  0
    9.4639  -14.6225   20.0518 C   0  0  0  0  0  0  0  0  0  0  0  0
    9.9010  -13.9574   21.0241 O   0  0  0  0  0  0  0  0  0  0  0  0
    9.2436  -16.0105   20.1713 N   0  0  0  0  0  0  0  0  0  0  0  0
    9.6436  -16.7755   21.3231 C   0  0  1  0  0  0  0  0  0  0  0  0
    8.9151  -18.0886   21.4172 C   0  0  0  0  0  0  0  0  0  0  0  0
    9.3241  -18.8872   22.5825 C   0  0  0  0  0  0  0  0  0  0  0  0
    9.9687  -19.9461   22.4129 O   0  0  0  0  0  0  0  0  0  0  0  0
   11.0981  -17.0824   21.2695 C   0  0  0  0  0  0  0  0  0  0  0  0
   11.5239  -17.8084   20.3601 O   0  0  0  0  0  0  0  0  0  0  0  0
    9.0133  -18.4963   23.8688 O   0  0  0  0  0  0  0  0  0  0  0  0
   15.5617  -15.1596   18.8167 N   0  0  0  0  0  0  0  0  0  0  0  0
   14.6230  -14.3202   19.4375 C   0  0  0  0  0  0  0  0  0  0  0  0
   14.4286  -13.1699   19.0189 O   0  0  0  0  0  0  0  0  0  0  0  0
   13.8608  -14.8140   20.6001 C   0  0  0  0  0  0  0  0  0  0  0  0
   13.9829  -16.2835   20.8021 C   0  0  0  0  0  0  0  0  0  0  0  0
   13.4720  -16.7999   22.0996 C   0  0  2  0  0  0  0  0  0  0  0  0
   12.0201  -16.5741   22.2228 N   0  0  0  0  0  0  0  0  0  0  0  0
   14.1226  -16.2921   23.3043 C   0  0  0  0  0  0  0  0  0  0  0  0
   15.5212  -16.4212   23.4441 O   0  0  0  0  0  0  0  0  0  0  0  0
   13.5650  -15.7276   24.2784 O   0  0  0  0  0  0  0  0  0  0  0  0
  2  5  1  0
  2  1  1  6
  3  2  1  0
  4  3  1  0
  5  6  2  0
  7  5  1  0
  8  7  1  0
  8  9  1  6
  8 12  1  0
  9 10  1  0
 10 14  1  0
 11 10  2  0
 12 13  2  0
 16 17  2  0
 16 15  1  0
 18 16  1  0
 19 18  1  0
 20 19  1  6
 21 12  1  0
 21 20  1  0
 22 23  1  0
 22 20  1  0
 24 22  2  0
M  END
$$$$
