CDQ.pdb
     RDKit          3D

 24 23  0  0  1  0  0  0  0  0999 V2000
    6.8233  -15.5624   18.0791 N   0  0  0  0  0  0  0  0  0  0  0  0
    7.9237  -14.9232   18.7687 C   0  0  1  0  0  0  0  0  0  0  0  0
    7.3671  -13.8349   19.6406 C   0  0  0  0  0  0  0  0  0  0  0  0
    8.6912  -13.0264   20.5468 S   0  0  0  0  0  0  0  0  0  0  0  0
    8.7257  -15.8973   19.5460 C   0  0  0  0  0  0  0  0  0  0  0  0
    8.1025  -16.7122   20.2714 O   0  0  0  0  0  0  0  0  0  0  0  0
   10.1346  -15.9212   19.4844 N   0  0  0  0  0  0  0  0  0  0  0  0
   10.9428  -16.8137   20.2732 C   0  0  1  0  0  0  0  0  0  0  0  0
   12.3802  -16.8252   19.8289 C   0  0  0  0  0  0  0  0  0  0  0  0
   13.1798  -17.8570   20.5064 C   0  0  0  0  0  0  0  0  0  0  0  0
   12.6285  -18.9087   20.9008 O   0  0  0  0  0  0  0  0  0  0  0  0
   10.9280  -16.4079   21.7042 C   0  0  0  0  0  0  0  0  0  0  0  0
   11.4819  -15.3491   22.0322 O   0  0  0  0  0  0  0  0  0  0  0  0
   14.5333  -17.6947   20.7202 O   0  0  0  0  0  0  0  0  0  0  0  0
    6.3532  -16.5943   25.6064 N   0  0  0  0  0  0  0  0  0  0  0  0
    6.8143  -15.4863   24.8778 C   0  0  0  0  0  0  0  0  0  0  0  0
    6.0735  -14.5153   24.6666 O   0  0  0  0  0  0  0  0  0  0  0  0
    8.1953  -15.4793   24.3587 C   0  0  0  0  0  0  0  0  0  0  0  0
    8.9545  -16.7156   24.6905 C   0  0  0  0  0  0  0  0  0  0  0  0
   10.3305  -16.7958   24.1326 C   0  0  2  0  0  0  0  0  0  0  0  0
   10.3019  -17.1891   22.7117 N   0  0  0  0  0  0  0  0  0  0  0  0
   11.2682  -17.6677   24.8347 C   0  0  0  0  0  0  0  0  0  0  0  0
   11.6160  -17.3784   26.1717 O   0  0  0  0  0  0  0  0  0  0  0  0
   11.8305  -18.6924   24.3741 O   0  0  0  0  0  0  0  0  0  0  0  0
  2  5  1  0
  2  1  1  1
  3  2  1  0
  4  3  1  0
  5  6  2  0
  7  5  1  0
  8  7  1  0
  8  9  1  6
  8 12  1  0
  9 10  1  0
 10 14  1  0
 11 10  2  0
 12 13  2  0
 16 17  2  0
 16 15  1  0
 18 16  1  0
 19 18  1  0
 20 19  1  1
 21 12  1  0
 21 20  1  0
 22 23  1  0
 22 20  1  0
 24 22  2  0
M  END
$$$$
