CDQ.pdb
     RDKit          3D

 24 23  0  0  1  0  0  0  0  0999 V2000
    7.6918  -14.3622   17.4817 N   0  0  0  0  0  0  0  0  0  0  0  0
    8.5480  -14.2890   18.6464 C   0  0  1  0  0  0  0  0  0  0  0  0
    8.2313  -13.0219   19.3871 C   0  0  0  0  0  0  0  0  0  0  0  0
    8.8422  -11.5996   18.4750 S   0  0  0  0  0  0  0  0  0  0  0  0
    8.4042  -15.4843   19.5107 C   0  0  0  0  0  0  0  0  0  0  0  0
    7.4164  -15.5223   20.2862 O   0  0  0  0  0  0  0  0  0  0  0  0
    9.3319  -16.5461   19.4754 N   0  0  0  0  0  0  0  0  0  0  0  0
    9.2773  -17.6702   20.3729 C   0  0  1  0  0  0  0  0  0  0  0  0
    8.8341  -18.9311   19.6820 C   0  0  0  0  0  0  0  0  0  0  0  0
    9.2167  -18.9699   18.2625 C   0  0  0  0  0  0  0  0  0  0  0  0
    8.9378  -18.0032   17.5187 O   0  0  0  0  0  0  0  0  0  0  0  0
   10.6176  -17.9381   20.9598 C   0  0  0  0  0  0  0  0  0  0  0  0
   11.5335  -18.3140   20.2145 O   0  0  0  0  0  0  0  0  0  0  0  0
    9.8805  -20.0534   17.7245 O   0  0  0  0  0  0  0  0  0  0  0  0
   14.8478  -16.0780   20.3005 N   0  0  0  0  0  0  0  0  0  0  0  0
   14.8199  -15.2060   21.4006 C   0  0  0  0  0  0  0  0  0  0  0  0
   15.5410  -14.1983   21.4275 O   0  0  0  0  0  0  0  0  0  0  0  0
   13.9223  -15.4936   22.5355 C   0  0  0  0  0  0  0  0  0  0  0  0
   12.6137  -16.0677   22.1195 C   0  0  0  0  0  0  0  0  0  0  0  0
   12.1965  -17.3038   22.8330 C   0  0  2  0  0  0  0  0  0  0  0  0
   10.8889  -17.7794   22.3448 N   0  0  0  0  0  0  0  0  0  0  0  0
   12.1463  -17.2289   24.2906 C   0  0  0  0  0  0  0  0  0  0  0  0
   13.3441  -17.3218   25.0315 O   0  0  0  0  0  0  0  0  0  0  0  0
   11.1199  -17.0853   25.0008 O   0  0  0  0  0  0  0  0  0  0  0  0
  2  5  1  0
  2  1  1  6
  3  2  1  0
  4  3  1  0
  5  6  2  0
  7  5  1  0
  8  7  1  0
  8  9  1  6
  8 12  1  0
  9 10  1  0
 10 14  1  0
 11 10  2  0
 12 13  2  0
 16 17  2  0
 16 15  1  0
 18 16  1  0
 19 18  1  0
 20 19  1  6
 21 12  1  0
 21 20  1  0
 22 23  1  0
 22 20  1  0
 24 22  2  0
M  END
$$$$
