CDQ.pdb
     RDKit          3D

 24 23  0  0  1  0  0  0  0  0999 V2000
    6.5804  -15.4132   21.1391 N   0  0  0  0  0  0  0  0  0  0  0  0
    7.9550  -14.9615   21.1035 C   0  0  1  0  0  0  0  0  0  0  0  0
    8.0122  -13.5749   21.6766 C   0  0  0  0  0  0  0  0  0  0  0  0
    7.4321  -13.5810   23.3771 S   0  0  0  0  0  0  0  0  0  0  0  0
    8.8585  -15.8926   21.8199 C   0  0  0  0  0  0  0  0  0  0  0  0
    8.3531  -16.6163   22.7141 O   0  0  0  0  0  0  0  0  0  0  0  0
   10.2344  -15.9747   21.5209 N   0  0  0  0  0  0  0  0  0  0  0  0
   11.1223  -16.9175   22.1491 C   0  0  1  0  0  0  0  0  0  0  0  0
   12.4294  -17.0468   21.4152 C   0  0  0  0  0  0  0  0  0  0  0  0
   13.2188  -18.2077   21.8535 C   0  0  0  0  0  0  0  0  0  0  0  0
   14.4390  -18.2655   21.5826 O   0  0  0  0  0  0  0  0  0  0  0  0
   11.4387  -16.4938   23.5394 C   0  0  0  0  0  0  0  0  0  0  0  0
   12.0901  -15.4545   23.7152 O   0  0  0  0  0  0  0  0  0  0  0  0
   12.6447  -19.2436   22.5616 O   0  0  0  0  0  0  0  0  0  0  0  0
    8.3789  -13.8288   27.1663 N   0  0  0  0  0  0  0  0  0  0  0  0
    9.3140  -14.2032   28.1443 C   0  0  0  0  0  0  0  0  0  0  0  0
    9.3066  -13.6705   29.2634 O   0  0  0  0  0  0  0  0  0  0  0  0
   10.3153  -15.2416   27.8351 C   0  0  0  0  0  0  0  0  0  0  0  0
   10.2238  -15.7495   26.4392 C   0  0  0  0  0  0  0  0  0  0  0  0
   11.2509  -16.7518   26.0499 C   0  0  2  0  0  0  0  0  0  0  0  0
   11.0218  -17.2362   24.6761 N   0  0  0  0  0  0  0  0  0  0  0  0
   11.3984  -17.9084   26.9292 C   0  0  0  0  0  0  0  0  0  0  0  0
   11.9688  -17.7383   28.2090 O   0  0  0  0  0  0  0  0  0  0  0  0
   11.0647  -19.0928   26.6754 O   0  0  0  0  0  0  0  0  0  0  0  0
  2  5  1  0
  2  1  1  1
  3  2  1  0
  4  3  1  0
  5  6  2  0
  7  5  1  0
  8  7  1  0
  8  9  1  6
  8 12  1  0
  9 10  1  0
 10 14  1  0
 11 10  2  0
 12 13  2  0
 16 17  2  0
 16 15  1  0
 18 16  1  0
 19 18  1  0
 20 19  1  1
 21 12  1  0
 21 20  1  0
 22 23  1  0
 22 20  1  0
 24 22  2  0
M  END
$$$$
