IPC.pdb
     RDKit          3D

 22 22  0  0  1  0  0  0  0  0999 V2000
    6.5497  -11.7511   27.3183 C   0  0  0  0  0  0  0  0  0  0  0  0
    5.9840  -12.9641   26.6352 C   0  0  0  0  0  0  0  0  0  0  0  0
    7.0215  -13.7253   25.8507 C   0  0  2  0  0  0  0  0  0  0  0  0
    7.6395  -12.8211   24.8279 C   0  0  0  0  0  0  0  0  0  0  0  0
    6.3759  -14.9398   25.1940 C   0  0  2  0  0  0  0  0  0  0  0  0
    5.7662  -15.7228   26.2036 N   0  0  0  0  0  0  0  0  0  0  0  0
    7.3147  -15.6102   24.2969 C   0  0  0  0  0  0  0  0  0  0  0  0
    7.7859  -16.7142   24.7522 O   0  0  0  0  0  0  0  0  0  0  0  0
    7.7508  -15.1982   23.0270 N   0  0  0  0  0  0  0  0  0  0  0  0
    7.4598  -14.0292   22.2411 C   0  0  0  0  0  0  0  0  0  0  0  0
    7.0339  -14.6697   20.9336 C   0  0  0  0  0  0  0  0  0  0  0  0
    8.1227  -15.7413   20.8002 C   0  0  0  0  0  0  0  0  0  0  0  0
    8.6725  -15.9573   22.1880 C   0  0  1  0  0  0  0  0  0  0  0  0
   10.0705  -15.4690   22.3195 C   0  0  0  0  0  0  0  0  0  0  0  0
   10.2108  -14.2896   22.7375 O   0  0  0  0  0  0  0  0  0  0  0  0
   11.2169  -16.2167   22.0156 N   0  0  0  0  0  0  0  0  0  0  0  0
   12.2023  -16.5065   23.0226 C   0  0  1  0  0  0  0  0  0  0  0  0
   11.6226  -17.2791   24.1887 C   0  0  0  0  0  0  0  0  0  0  0  0
   12.9765  -17.5533   25.3675 S   0  0  0  0  0  0  0  0  0  0  0  0
   13.3364  -17.2991   22.4957 C   0  0  0  0  0  0  0  0  0  0  0  0
   14.6107  -16.8053   22.5598 O   0  0  0  0  0  0  0  0  0  0  0  0
   13.0953  -18.4225   21.9955 O   0  0  0  0  0  0  0  0  0  0  0  0
  1  2  1  0
  2  3  1  0
  3  5  1  0
  3  4  1  6
  5  7  1  0
  5  6  1  1
  7  9  1  0
  7  8  2  0
  9 10  1  0
 11 10  1  0
 12 13  1  0
 12 11  1  0
 13  9  1  0
 13 14  1  6
 14 16  1  0
 15 14  2  0
 17 16  1  0
 17 20  1  0
 17 18  1  1
 18 19  1  0
 20 21  1  0
 22 20  2  0
M  END
$$$$
