IPC.pdb
     RDKit          3D

 22 22  0  0  1  0  0  0  0  0999 V2000
    6.5892  -11.5067   27.4316 C   0  0  0  0  0  0  0  0  0  0  0  0
    5.9401  -12.6256   26.6669 C   0  0  0  0  0  0  0  0  0  0  0  0
    6.9435  -13.5405   26.0132 C   0  0  2  0  0  0  0  0  0  0  0  0
    7.8066  -12.7505   25.0769 C   0  0  0  0  0  0  0  0  0  0  0  0
    6.2127  -14.6581   25.2782 C   0  0  2  0  0  0  0  0  0  0  0  0
    5.4196  -15.3649   26.2140 N   0  0  0  0  0  0  0  0  0  0  0  0
    7.1376  -15.4355   24.4561 C   0  0  0  0  0  0  0  0  0  0  0  0
    7.3542  -16.6263   24.8844 O   0  0  0  0  0  0  0  0  0  0  0  0
    7.8005  -15.0422   23.2820 N   0  0  0  0  0  0  0  0  0  0  0  0
    7.9250  -13.7676   22.6271 C   0  0  0  0  0  0  0  0  0  0  0  0
    7.4794  -14.1296   21.2230 C   0  0  0  0  0  0  0  0  0  0  0  0
    8.2406  -15.4479   21.0385 C   0  0  0  0  0  0  0  0  0  0  0  0
    8.5616  -15.9459   22.4256 C   0  0  1  0  0  0  0  0  0  0  0  0
   10.0181  -15.8903   22.7182 C   0  0  0  0  0  0  0  0  0  0  0  0
   10.4994  -14.7464   22.9309 O   0  0  0  0  0  0  0  0  0  0  0  0
   10.8721  -17.0009   22.7714 N   0  0  0  0  0  0  0  0  0  0  0  0
   12.1481  -16.9248   23.4309 C   0  0  1  0  0  0  0  0  0  0  0  0
   12.2474  -17.8783   24.6030 C   0  0  0  0  0  0  0  0  0  0  0  0
   10.9390  -17.4154   25.7742 S   0  0  0  0  0  0  0  0  0  0  0  0
   13.2759  -17.2327   22.5224 C   0  0  0  0  0  0  0  0  0  0  0  0
   14.5666  -17.0796   22.9498 O   0  0  0  0  0  0  0  0  0  0  0  0
   13.0143  -17.6330   21.3641 O   0  0  0  0  0  0  0  0  0  0  0  0
  1  2  1  0
  2  3  1  0
  3  5  1  0
  3  4  1  6
  5  7  1  0
  5  6  1  1
  7  9  1  0
  7  8  2  0
  9 10  1  0
 11 10  1  0
 12 13  1  0
 12 11  1  0
 13  9  1  0
 13 14  1  1
 14 16  1  0
 15 14  2  0
 17 16  1  0
 17 20  1  0
 17 18  1  1
 18 19  1  0
 20 21  1  0
 22 20  2  0
M  END
$$$$
