IPC.pdb
     RDKit          3D

 22 22  0  0  1  0  0  0  0  0999 V2000
    6.7966  -11.6665   27.4042 C   0  0  0  0  0  0  0  0  0  0  0  0
    6.1574  -12.8171   26.6794 C   0  0  0  0  0  0  0  0  0  0  0  0
    7.1561  -13.6512   25.9192 C   0  0  2  0  0  0  0  0  0  0  0  0
    7.8681  -12.7923   24.9186 C   0  0  0  0  0  0  0  0  0  0  0  0
    6.4396  -14.8115   25.2382 C   0  0  2  0  0  0  0  0  0  0  0  0
    5.7756  -15.5715   26.2310 N   0  0  0  0  0  0  0  0  0  0  0  0
    7.3402  -15.5244   24.3346 C   0  0  0  0  0  0  0  0  0  0  0  0
    7.7594  -16.6512   24.7849 O   0  0  0  0  0  0  0  0  0  0  0  0
    7.7892  -15.1308   23.0634 N   0  0  0  0  0  0  0  0  0  0  0  0
    7.5623  -13.9411   22.2875 C   0  0  0  0  0  0  0  0  0  0  0  0
    7.0874  -14.5459   20.9799 C   0  0  0  0  0  0  0  0  0  0  0  0
    8.1085  -15.6801   20.8300 C   0  0  0  0  0  0  0  0  0  0  0  0
    8.6563  -15.9382   22.2114 C   0  0  1  0  0  0  0  0  0  0  0  0
   10.0823  -15.5357   22.3334 C   0  0  0  0  0  0  0  0  0  0  0  0
   10.2967  -14.3667   22.7490 O   0  0  0  0  0  0  0  0  0  0  0  0
   11.1790  -16.3521   22.0230 N   0  0  0  0  0  0  0  0  0  0  0  0
   12.0815  -16.8035   23.0481 C   0  0  1  0  0  0  0  0  0  0  0  0
   11.3671  -17.5493   24.1554 C   0  0  0  0  0  0  0  0  0  0  0  0
   12.6211  -17.9867   25.3938 S   0  0  0  0  0  0  0  0  0  0  0  0
   13.1317  -17.7054   22.5229 C   0  0  0  0  0  0  0  0  0  0  0  0
   14.4460  -17.3270   22.5589 O   0  0  0  0  0  0  0  0  0  0  0  0
   12.7832  -18.8124   22.0502 O   0  0  0  0  0  0  0  0  0  0  0  0
  1  2  1  0
  2  3  1  0
  3  5  1  0
  3  4  1  6
  5  7  1  0
  5  6  1  1
  7  9  1  0
  7  8  2  0
  9 10  1  0
 11 10  1  0
 12 13  1  0
 12 11  1  0
 13  9  1  0
 13 14  1  6
 14 16  1  0
 15 14  2  0
 17 16  1  0
 17 20  1  0
 17 18  1  1
 18 19  1  0
 20 21  1  0
 22 20  2  0
M  END
$$$$
