IPC.pdb
     RDKit          3D

 22 22  0  0  1  0  0  0  0  0999 V2000
    6.7787  -11.6914   27.4820 C   0  0  0  0  0  0  0  0  0  0  0  0
    6.1931  -12.9056   26.8182 C   0  0  0  0  0  0  0  0  0  0  0  0
    7.2001  -13.6525   25.9820 C   0  0  2  0  0  0  0  0  0  0  0  0
    7.7511  -12.7409   24.9280 C   0  0  0  0  0  0  0  0  0  0  0  0
    6.5397  -14.8776   25.3603 C   0  0  2  0  0  0  0  0  0  0  0  0
    5.9549  -15.6446   26.3966 N   0  0  0  0  0  0  0  0  0  0  0  0
    7.4572  -15.5618   24.4517 C   0  0  0  0  0  0  0  0  0  0  0  0
    7.9521  -16.6503   24.9193 O   0  0  0  0  0  0  0  0  0  0  0  0
    7.8509  -15.1776   23.1595 N   0  0  0  0  0  0  0  0  0  0  0  0
    7.5798  -13.9992   22.3804 C   0  0  0  0  0  0  0  0  0  0  0  0
    7.0602  -14.6238   21.0994 C   0  0  0  0  0  0  0  0  0  0  0  0
    8.0875  -15.7484   20.9212 C   0  0  0  0  0  0  0  0  0  0  0  0
    8.6927  -15.9849   22.2824 C   0  0  1  0  0  0  0  0  0  0  0  0
   10.1176  -15.5655   22.3430 C   0  0  0  0  0  0  0  0  0  0  0  0
   10.3556  -14.4911   22.9549 O   0  0  0  0  0  0  0  0  0  0  0  0
   11.1895  -16.2700   21.7769 N   0  0  0  0  0  0  0  0  0  0  0  0
   12.2892  -16.7232   22.5857 C   0  0  1  0  0  0  0  0  0  0  0  0
   11.8377  -17.6179   23.7208 C   0  0  0  0  0  0  0  0  0  0  0  0
   12.8061  -17.1472   25.1832 S   0  0  0  0  0  0  0  0  0  0  0  0
   13.2926  -17.4826   21.8054 C   0  0  0  0  0  0  0  0  0  0  0  0
   14.5987  -17.0759   21.7818 O   0  0  0  0  0  0  0  0  0  0  0  0
   12.9125  -18.4968   21.1752 O   0  0  0  0  0  0  0  0  0  0  0  0
  1  2  1  0
  2  3  1  0
  3  5  1  0
  3  4  1  6
  5  7  1  0
  5  6  1  1
  7  9  1  0
  7  8  2  0
  9 10  1  0
 11 10  1  0
 12 13  1  0
 12 11  1  0
 13  9  1  0
 13 14  1  6
 14 16  1  0
 15 14  2  0
 17 16  1  0
 17 20  1  0
 17 18  1  1
 18 19  1  0
 20 21  1  0
 22 20  2  0
M  END
$$$$
