IPC.pdb
     RDKit          3D

 22 22  0  0  1  0  0  0  0  0999 V2000
    8.4071  -12.3693   27.2396 C   0  0  0  0  0  0  0  0  0  0  0  0
    7.8400  -13.7110   26.8709 C   0  0  0  0  0  0  0  0  0  0  0  0
    6.7178  -13.6117   25.8699 C   0  0  2  0  0  0  0  0  0  0  0  0
    5.5741  -12.8539   26.4727 C   0  0  0  0  0  0  0  0  0  0  0  0
    6.2880  -15.0107   25.4439 C   0  0  2  0  0  0  0  0  0  0  0  0
    5.9796  -15.7572   26.6065 N   0  0  0  0  0  0  0  0  0  0  0  0
    7.2480  -15.5900   24.5066 C   0  0  0  0  0  0  0  0  0  0  0  0
    7.7281  -16.7230   24.8729 O   0  0  0  0  0  0  0  0  0  0  0  0
    7.6955  -15.0655   23.2830 N   0  0  0  0  0  0  0  0  0  0  0  0
    7.3722  -13.8537   22.5787 C   0  0  0  0  0  0  0  0  0  0  0  0
    7.0057  -14.4109   21.2163 C   0  0  0  0  0  0  0  0  0  0  0  0
    8.1432  -15.4229   21.0328 C   0  0  0  0  0  0  0  0  0  0  0  0
    8.6690  -15.7198   22.4149 C   0  0  1  0  0  0  0  0  0  0  0  0
   10.0409  -15.1848   22.6198 C   0  0  0  0  0  0  0  0  0  0  0  0
   10.1198  -14.0413   23.1409 O   0  0  0  0  0  0  0  0  0  0  0  0
   11.2253  -15.8530   22.2789 N   0  0  0  0  0  0  0  0  0  0  0  0
   12.2028  -16.1876   23.2796 C   0  0  1  0  0  0  0  0  0  0  0  0
   11.6427  -17.1045   24.3466 C   0  0  0  0  0  0  0  0  0  0  0  0
   12.9792  -17.4095   25.5375 S   0  0  0  0  0  0  0  0  0  0  0  0
   13.3924  -16.8593   22.7090 C   0  0  0  0  0  0  0  0  0  0  0  0
   14.6299  -16.2880   22.8285 O   0  0  0  0  0  0  0  0  0  0  0  0
   13.2322  -17.9539   22.1203 O   0  0  0  0  0  0  0  0  0  0  0  0
  1  2  1  0
  2  3  1  0
  3  5  1  0
  3  4  1  1
  5  7  1  0
  5  6  1  1
  7  9  1  0
  7  8  2  0
  9 10  1  0
 11 10  1  0
 12 13  1  0
 12 11  1  0
 13  9  1  0
 13 14  1  6
 14 16  1  0
 15 14  2  0
 17 16  1  0
 17 20  1  0
 17 18  1  1
 18 19  1  0
 20 21  1  0
 22 20  2  0
M  END
$$$$
