IPC.pdb
     RDKit          3D

 22 22  0  0  1  0  0  0  0  0999 V2000
    6.6212  -11.4297   27.4791 C   0  0  0  0  0  0  0  0  0  0  0  0
    5.9323  -12.4607   26.6305 C   0  0  0  0  0  0  0  0  0  0  0  0
    6.8927  -13.4561   26.0322 C   0  0  2  0  0  0  0  0  0  0  0  0
    7.8754  -12.7401   25.1562 C   0  0  0  0  0  0  0  0  0  0  0  0
    6.1163  -14.5057   25.2456 C   0  0  2  0  0  0  0  0  0  0  0  0
    5.1976  -15.1322   26.1218 N   0  0  0  0  0  0  0  0  0  0  0  0
    7.0219  -15.3688   24.4901 C   0  0  0  0  0  0  0  0  0  0  0  0
    7.1189  -16.5644   24.9477 O   0  0  0  0  0  0  0  0  0  0  0  0
    7.7793  -15.0512   23.3508 N   0  0  0  0  0  0  0  0  0  0  0  0
    8.0046  -13.8103   22.6591 C   0  0  0  0  0  0  0  0  0  0  0  0
    7.6389  -14.2092   21.2420 C   0  0  0  0  0  0  0  0  0  0  0  0
    8.3510  -15.5649   21.1597 C   0  0  0  0  0  0  0  0  0  0  0  0
    8.5552  -16.0199   22.5831 C   0  0  1  0  0  0  0  0  0  0  0  0
    9.9897  -16.0139   22.9734 C   0  0  0  0  0  0  0  0  0  0  0  0
   10.5661  -14.8947   22.9564 O   0  0  0  0  0  0  0  0  0  0  0  0
   10.7267  -17.1455   23.3500 N   0  0  0  0  0  0  0  0  0  0  0  0
   12.0354  -17.0183   23.9333 C   0  0  1  0  0  0  0  0  0  0  0  0
   12.1675  -17.7979   25.2246 C   0  0  0  0  0  0  0  0  0  0  0  0
   10.7154  -17.3945   26.2377 S   0  0  0  0  0  0  0  0  0  0  0  0
   13.1084  -17.4893   23.0285 C   0  0  0  0  0  0  0  0  0  0  0  0
   14.4199  -17.3929   23.4062 O   0  0  0  0  0  0  0  0  0  0  0  0
   12.7817  -17.9729   21.9196 O   0  0  0  0  0  0  0  0  0  0  0  0
  1  2  1  0
  2  3  1  0
  3  5  1  0
  3  4  1  6
  5  7  1  0
  5  6  1  1
  7  9  1  0
  7  8  2  0
  9 10  1  0
 11 10  1  0
 12 13  1  0
 12 11  1  0
 13  9  1  0
 13 14  1  1
 14 16  1  0
 15 14  2  0
 17 16  1  0
 17 20  1  0
 17 18  1  1
 18 19  1  0
 20 21  1  0
 22 20  2  0
M  END
$$$$
