IPC.pdb
     RDKit          3D

 22 22  0  0  1  0  0  0  0  0999 V2000
    6.7975  -11.4670   27.4145 C   0  0  0  0  0  0  0  0  0  0  0  0
    6.0608  -12.4951   26.6033 C   0  0  0  0  0  0  0  0  0  0  0  0
    6.9845  -13.4939   25.9549 C   0  0  2  0  0  0  0  0  0  0  0  0
    7.9202  -12.7817   25.0261 C   0  0  0  0  0  0  0  0  0  0  0  0
    6.1636  -14.5421   25.2129 C   0  0  2  0  0  0  0  0  0  0  0  0
    5.3058  -15.1784   26.1422 N   0  0  0  0  0  0  0  0  0  0  0  0
    7.0223  -15.3961   24.3950 C   0  0  0  0  0  0  0  0  0  0  0  0
    7.1335  -16.6011   24.8237 O   0  0  0  0  0  0  0  0  0  0  0  0
    7.7224  -15.0611   23.2244 N   0  0  0  0  0  0  0  0  0  0  0  0
    7.8896  -13.8152   22.5254 C   0  0  0  0  0  0  0  0  0  0  0  0
    7.4720  -14.2216   21.1249 C   0  0  0  0  0  0  0  0  0  0  0  0
    8.2101  -15.5609   21.0099 C   0  0  0  0  0  0  0  0  0  0  0  0
    8.4859  -16.0118   22.4226 C   0  0  1  0  0  0  0  0  0  0  0  0
    9.9354  -15.9738   22.7505 C   0  0  0  0  0  0  0  0  0  0  0  0
   10.4442  -14.8306   22.8905 O   0  0  0  0  0  0  0  0  0  0  0  0
   10.7550  -17.1000   22.9100 N   0  0  0  0  0  0  0  0  0  0  0  0
   12.0372  -16.9994   23.5541 C   0  0  1  0  0  0  0  0  0  0  0  0
   12.1352  -17.8815   24.7808 C   0  0  0  0  0  0  0  0  0  0  0  0
   10.8088  -17.3677   25.9097 S   0  0  0  0  0  0  0  0  0  0  0  0
   13.1539  -17.3748   22.6574 C   0  0  0  0  0  0  0  0  0  0  0  0
   14.4495  -17.2286   23.0721 O   0  0  0  0  0  0  0  0  0  0  0  0
   12.8785  -17.8249   21.5208 O   0  0  0  0  0  0  0  0  0  0  0  0
  1  2  1  0
  2  3  1  0
  3  5  1  0
  3  4  1  6
  5  7  1  0
  5  6  1  1
  7  9  1  0
  7  8  2  0
  9 10  1  0
 11 10  1  0
 12 13  1  0
 12 11  1  0
 13  9  1  0
 13 14  1  1
 14 16  1  0
 15 14  2  0
 17 16  1  0
 17 20  1  0
 17 18  1  1
 18 19  1  0
 20 21  1  0
 22 20  2  0
M  END
$$$$
