IPC.pdb
     RDKit          3D

 22 22  0  0  1  0  0  0  0  0999 V2000
    8.7393  -12.2666   27.1512 C   0  0  0  0  0  0  0  0  0  0  0  0
    7.7477  -13.3624   26.8795 C   0  0  0  0  0  0  0  0  0  0  0  0
    6.7501  -12.9912   25.8127 C   0  0  2  0  0  0  0  0  0  0  0  0
    5.8211  -11.9398   26.3392 C   0  0  0  0  0  0  0  0  0  0  0  0
    5.9839  -14.2341   25.3751 C   0  0  2  0  0  0  0  0  0  0  0  0
    5.3438  -14.7875   26.5101 N   0  0  0  0  0  0  0  0  0  0  0  0
    6.8337  -15.1202   24.5824 C   0  0  0  0  0  0  0  0  0  0  0  0
    6.8524  -16.3383   24.9877 O   0  0  0  0  0  0  0  0  0  0  0  0
    7.6125  -14.8031   23.4575 N   0  0  0  0  0  0  0  0  0  0  0  0
    7.8704  -13.5584   22.7844 C   0  0  0  0  0  0  0  0  0  0  0  0
    7.5169  -13.9331   21.3576 C   0  0  0  0  0  0  0  0  0  0  0  0
    8.2047  -15.3007   21.2681 C   0  0  0  0  0  0  0  0  0  0  0  0
    8.3807  -15.7768   22.6885 C   0  0  1  0  0  0  0  0  0  0  0  0
    9.8096  -15.8025   23.0982 C   0  0  0  0  0  0  0  0  0  0  0  0
   10.3676  -14.6829   23.2406 O   0  0  0  0  0  0  0  0  0  0  0  0
   10.5601  -16.9637   23.3307 N   0  0  0  0  0  0  0  0  0  0  0  0
   11.8868  -16.8917   23.8818 C   0  0  1  0  0  0  0  0  0  0  0  0
   11.9494  -17.4170   25.3005 C   0  0  0  0  0  0  0  0  0  0  0  0
   10.6805  -18.7082   25.4434 S   0  0  0  0  0  0  0  0  0  0  0  0
   12.8732  -17.6600   23.0890 C   0  0  0  0  0  0  0  0  0  0  0  0
   14.2005  -17.6247   23.4194 O   0  0  0  0  0  0  0  0  0  0  0  0
   12.4594  -18.3353   22.1179 O   0  0  0  0  0  0  0  0  0  0  0  0
  1  2  1  0
  2  3  1  0
  3  5  1  0
  3  4  1  1
  5  7  1  0
  5  6  1  1
  7  9  1  0
  7  8  2  0
  9 10  1  0
 11 10  1  0
 12 13  1  0
 12 11  1  0
 13  9  1  0
 13 14  1  1
 14 16  1  0
 15 14  2  0
 17 16  1  0
 17 20  1  0
 17 18  1  1
 18 19  1  0
 20 21  1  0
 22 20  2  0
M  END
$$$$
