IPC.pdb
     RDKit          3D

 22 22  0  0  1  0  0  0  0  0999 V2000
    8.7105  -12.7020   27.3418 C   0  0  0  0  0  0  0  0  0  0  0  0
    7.7627  -13.7823   26.9031 C   0  0  0  0  0  0  0  0  0  0  0  0
    6.8112  -13.3192   25.8301 C   0  0  2  0  0  0  0  0  0  0  0  0
    5.8639  -12.3088   26.4023 C   0  0  0  0  0  0  0  0  0  0  0  0
    6.0606  -14.5176   25.2610 C   0  0  2  0  0  0  0  0  0  0  0  0
    5.3883  -15.1694   26.3227 N   0  0  0  0  0  0  0  0  0  0  0  0
    6.9351  -15.3302   24.4180 C   0  0  0  0  0  0  0  0  0  0  0  0
    7.0500  -16.5516   24.7964 O   0  0  0  0  0  0  0  0  0  0  0  0
    7.6466  -14.9410   23.2713 N   0  0  0  0  0  0  0  0  0  0  0  0
    7.7398  -13.6855   22.5757 C   0  0  0  0  0  0  0  0  0  0  0  0
    7.4034  -14.1227   21.1626 C   0  0  0  0  0  0  0  0  0  0  0  0
    8.2475  -15.4001   21.0759 C   0  0  0  0  0  0  0  0  0  0  0  0
    8.5090  -15.8287   22.4982 C   0  0  1  0  0  0  0  0  0  0  0  0
    9.9391  -15.6776   22.8753 C   0  0  0  0  0  0  0  0  0  0  0  0
   10.2514  -14.6036   23.4536 O   0  0  0  0  0  0  0  0  0  0  0  0
   10.9404  -16.6290   22.6351 N   0  0  0  0  0  0  0  0  0  0  0  0
   11.7166  -17.1780   23.7145 C   0  0  1  0  0  0  0  0  0  0  0  0
   10.8489  -17.7995   24.7885 C   0  0  0  0  0  0  0  0  0  0  0  0
   11.9568  -18.3141   26.1322 S   0  0  0  0  0  0  0  0  0  0  0  0
   12.6620  -18.2228   23.2598 C   0  0  0  0  0  0  0  0  0  0  0  0
   14.0108  -18.0380   23.3961 O   0  0  0  0  0  0  0  0  0  0  0  0
   12.1937  -19.2686   22.7525 O   0  0  0  0  0  0  0  0  0  0  0  0
  1  2  1  0
  2  3  1  0
  3  5  1  0
  3  4  1  1
  5  7  1  0
  5  6  1  1
  7  9  1  0
  7  8  2  0
  9 10  1  0
 11 10  1  0
 12 13  1  0
 12 11  1  0
 13  9  1  0
 13 14  1  1
 14 16  1  0
 15 14  2  0
 17 16  1  0
 17 20  1  0
 17 18  1  1
 18 19  1  0
 20 21  1  0
 22 20  2  0
M  END
$$$$
