IPC.pdb
     RDKit          3D

 22 22  0  0  1  0  0  0  0  0999 V2000
    6.6901  -11.5753   27.5622 C   0  0  0  0  0  0  0  0  0  0  0  0
    6.0181  -12.5800   26.6695 C   0  0  0  0  0  0  0  0  0  0  0  0
    6.9961  -13.5238   26.0184 C   0  0  2  0  0  0  0  0  0  0  0  0
    7.8712  -12.7627   25.0694 C   0  0  0  0  0  0  0  0  0  0  0  0
    6.2352  -14.6312   25.2985 C   0  0  2  0  0  0  0  0  0  0  0  0
    5.4242  -15.3040   26.2439 N   0  0  0  0  0  0  0  0  0  0  0  0
    7.1385  -15.4439   24.4866 C   0  0  0  0  0  0  0  0  0  0  0  0
    7.3444  -16.6253   24.9449 O   0  0  0  0  0  0  0  0  0  0  0  0
    7.7913  -15.0924   23.2937 N   0  0  0  0  0  0  0  0  0  0  0  0
    7.8842  -13.8488   22.5770 C   0  0  0  0  0  0  0  0  0  0  0  0
    7.4474  -14.2899   21.1929 C   0  0  0  0  0  0  0  0  0  0  0  0
    8.2409  -15.5967   21.0722 C   0  0  0  0  0  0  0  0  0  0  0  0
    8.5743  -16.0180   22.4815 C   0  0  1  0  0  0  0  0  0  0  0  0
   10.0291  -15.9123   22.7691 C   0  0  0  0  0  0  0  0  0  0  0  0
   10.5173  -14.7519   22.7477 O   0  0  0  0  0  0  0  0  0  0  0  0
   10.8743  -16.9936   23.0554 N   0  0  0  0  0  0  0  0  0  0  0  0
   12.1660  -16.7875   23.6537 C   0  0  1  0  0  0  0  0  0  0  0  0
   12.4513  -17.7795   24.7615 C   0  0  0  0  0  0  0  0  0  0  0  0
   11.1588  -17.5568   26.0175 S   0  0  0  0  0  0  0  0  0  0  0  0
   13.2700  -16.8997   22.6737 C   0  0  0  0  0  0  0  0  0  0  0  0
   14.5579  -16.6370   23.0535 O   0  0  0  0  0  0  0  0  0  0  0  0
   12.9912  -17.2387   21.4999 O   0  0  0  0  0  0  0  0  0  0  0  0
  1  2  1  0
  2  3  1  0
  3  5  1  0
  3  4  1  6
  5  7  1  0
  5  6  1  1
  7  9  1  0
  7  8  2  0
  9 10  1  0
 11 10  1  0
 12 13  1  0
 12 11  1  0
 13  9  1  0
 13 14  1  1
 14 16  1  0
 15 14  2  0
 17 16  1  0
 17 20  1  0
 17 18  1  1
 18 19  1  0
 20 21  1  0
 22 20  2  0
M  END
$$$$
