MMG.pdb
     RDKit          3D

 21 20  0  0  1  0  0  0  0  0999 V2000
   29.7826  -20.0677   -6.2675 C   0  0  0  0  0  0  0  0  0  0  0  0
   28.5936  -18.9549   -5.4516 S   0  0  0  0  0  0  0  0  0  0  0  0
   27.0118  -19.1264   -6.3283 C   0  0  0  0  0  0  0  0  0  0  0  0
   27.2840  -19.9724   -7.5639 C   0  0  0  0  0  0  0  0  0  0  0  0
   25.9617  -20.0922   -8.3046 C   0  0  2  0  0  0  0  0  0  0  0  0
   25.0802  -20.9374   -7.5237 N   0  0  0  0  0  0  0  0  0  0  0  0
   26.1647  -20.6766   -9.6579 C   0  0  0  0  0  0  0  0  0  0  0  0
   26.8273  -21.7408   -9.7354 O   0  0  0  0  0  0  0  0  0  0  0  0
   22.2820  -20.4182  -15.2054 C   0  0  0  0  0  0  0  0  0  0  0  0
   23.0908  -22.0048  -14.8065 S   0  0  0  0  0  0  0  0  0  0  0  0
   24.7004  -21.6347  -14.0990 C   0  0  0  0  0  0  0  0  0  0  0  0
   24.4982  -20.9591  -12.7584 C   0  0  0  0  0  0  0  0  0  0  0  0
   25.8629  -20.6465  -12.1636 C   0  0  2  0  0  0  0  0  0  0  0  0
   25.6608  -20.1092  -10.8423 N   0  0  0  0  0  0  0  0  0  0  0  0
   26.4598  -19.5831  -13.0040 C   0  0  0  0  0  0  0  0  0  0  0  0
   26.0426  -18.4092  -12.8562 O   0  0  0  0  0  0  0  0  0  0  0  0
   27.4709  -19.8340  -13.9565 N   0  0  0  0  0  0  0  0  0  0  0  0
   28.0775  -18.7077  -14.6272 C   0  0  0  0  0  0  0  0  0  0  0  0
   27.5349  -18.6343  -16.0226 C   0  0  0  0  0  0  0  0  0  0  0  0
   27.9955  -17.6592  -16.9022 O   0  0  0  0  0  0  0  0  0  0  0  0
   26.6610  -19.4306  -16.4489 O   0  0  0  0  0  0  0  0  0  0  0  0
  2  3  1  0
  2  1  1  0
  3  4  1  0
  4  5  1  0
  5  7  1  0
  5  6  1  1
  7  8  2  0
  9 10  1  0
 10 11  1  0
 11 12  1  0
 13 12  1  6
 13 15  1  0
 14  7  1  0
 14 13  1  0
 15 16  2  0
 17 15  1  0
 17 18  1  0
 19 18  1  0
 19 20  1  0
 21 19  2  0
M  END
$$$$
