MMG.pdb
     RDKit          3D

 21 20  0  0  1  0  0  0  0  0999 V2000
   19.9817  -18.2683  -16.0129 C   0  0  0  0  0  0  0  0  0  0  0  0
   19.2605  -19.9409  -16.0170 S   0  0  0  0  0  0  0  0  0  0  0  0
   20.0005  -20.8461  -14.6267 C   0  0  0  0  0  0  0  0  0  0  0  0
   21.2451  -20.0742  -14.2126 C   0  0  0  0  0  0  0  0  0  0  0  0
   21.8311  -20.8092  -13.0177 C   0  0  2  0  0  0  0  0  0  0  0  0
   20.9988  -20.5329  -11.8635 N   0  0  0  0  0  0  0  0  0  0  0  0
   23.2284  -20.3679  -12.7587 C   0  0  0  0  0  0  0  0  0  0  0  0
   23.4107  -19.5347  -11.8366 O   0  0  0  0  0  0  0  0  0  0  0  0
   29.8120  -20.6941  -10.8523 C   0  0  0  0  0  0  0  0  0  0  0  0
   28.1182  -21.2007  -11.3051 S   0  0  0  0  0  0  0  0  0  0  0  0
   28.0217  -21.2425  -13.0989 C   0  0  0  0  0  0  0  0  0  0  0  0
   26.6089  -21.6123  -13.5010 C   0  0  0  0  0  0  0  0  0  0  0  0
   25.7045  -20.4163  -13.2453 C   0  0  2  0  0  0  0  0  0  0  0  0
   24.3442  -20.8275  -13.4814 N   0  0  0  0  0  0  0  0  0  0  0  0
   26.0557  -19.3934  -14.2571 C   0  0  0  0  0  0  0  0  0  0  0  0
   25.5574  -19.5005  -15.4034 O   0  0  0  0  0  0  0  0  0  0  0  0
   26.9210  -18.3114  -13.9866 N   0  0  0  0  0  0  0  0  0  0  0  0
   27.0974  -17.3019  -15.0046 C   0  0  0  0  0  0  0  0  0  0  0  0
   27.7814  -17.9267  -16.1830 C   0  0  0  0  0  0  0  0  0  0  0  0
   27.3167  -17.6836  -17.4719 O   0  0  0  0  0  0  0  0  0  0  0  0
   28.7803  -18.6797  -16.0613 O   0  0  0  0  0  0  0  0  0  0  0  0
  2  3  1  0
  2  1  1  0
  3  4  1  0
  4  5  1  0
  5  7  1  0
  5  6  1  1
  7  8  2  0
  9 10  1  0
 10 11  1  0
 11 12  1  0
 13 12  1  6
 13 15  1  0
 14  7  1  0
 14 13  1  0
 15 16  2  0
 17 15  1  0
 17 18  1  0
 19 18  1  0
 19 20  1  0
 21 19  2  0
M  END
$$$$
