MMG.pdb
     RDKit          3D

 21 20  0  0  1  0  0  0  0  0999 V2000
   27.0700  -17.5161  -15.1925 C   0  0  0  0  0  0  0  0  0  0  0  0
   28.4495  -18.5279  -15.8176 S   0  0  0  0  0  0  0  0  0  0  0  0
   27.7259  -19.8577  -16.8216 C   0  0  0  0  0  0  0  0  0  0  0  0
   26.4512  -20.2971  -16.1154 C   0  0  0  0  0  0  0  0  0  0  0  0
   26.8830  -21.1799  -14.9554 C   0  0  2  0  0  0  0  0  0  0  0  0
   27.3623  -22.4363  -15.4965 N   0  0  0  0  0  0  0  0  0  0  0  0
   25.7475  -21.4233  -14.0250 C   0  0  0  0  0  0  0  0  0  0  0  0
   25.0433  -22.4438  -14.2257 O   0  0  0  0  0  0  0  0  0  0  0  0
   24.3601  -21.1097   -7.1481 C   0  0  0  0  0  0  0  0  0  0  0  0
   25.6659  -20.5358   -8.2865 S   0  0  0  0  0  0  0  0  0  0  0  0
   25.3085  -21.2112   -9.9127 C   0  0  0  0  0  0  0  0  0  0  0  0
   24.6024  -20.1524  -10.7341 C   0  0  0  0  0  0  0  0  0  0  0  0
   24.2690  -20.7401  -12.0969 C   0  0  2  0  0  0  0  0  0  0  0  0
   25.4231  -20.5829  -12.9447 N   0  0  0  0  0  0  0  0  0  0  0  0
   23.1730  -19.9174  -12.6584 C   0  0  0  0  0  0  0  0  0  0  0  0
   23.4799  -18.9193  -13.3537 O   0  0  0  0  0  0  0  0  0  0  0  0
   21.8081  -20.2080  -12.4454 N   0  0  0  0  0  0  0  0  0  0  0  0
   21.3651  -21.5745  -12.5969 C   0  0  0  0  0  0  0  0  0  0  0  0
   20.7410  -21.7266  -13.9513 C   0  0  0  0  0  0  0  0  0  0  0  0
   19.4685  -21.2195  -14.1965 O   0  0  0  0  0  0  0  0  0  0  0  0
   21.3254  -22.3052  -14.9016 O   0  0  0  0  0  0  0  0  0  0  0  0
  2  3  1  0
  2  1  1  0
  3  4  1  0
  4  5  1  0
  5  7  1  0
  5  6  1  6
  7  8  2  0
  9 10  1  0
 10 11  1  0
 11 12  1  0
 13 12  1  1
 13 15  1  0
 14  7  1  0
 14 13  1  0
 15 16  2  0
 17 15  1  0
 17 18  1  0
 19 18  1  0
 19 20  1  0
 21 19  2  0
M  END
$$$$
