MMG.pdb
     RDKit          3D

 21 20  0  0  1  0  0  0  0  0999 V2000
   15.5771  -10.2522  -20.2904 C   0  0  0  0  0  0  0  0  0  0  0  0
   17.0869  -10.3357  -21.3058 S   0  0  0  0  0  0  0  0  0  0  0  0
   18.3144  -11.2858  -20.3622 C   0  0  0  0  0  0  0  0  0  0  0  0
   18.6359  -10.4729  -19.1163 C   0  0  0  0  0  0  0  0  0  0  0  0
   19.6630  -11.2736  -18.3317 C   0  0  2  0  0  0  0  0  0  0  0  0
   19.0018  -12.4387  -17.7779 N   0  0  0  0  0  0  0  0  0  0  0  0
   20.2521  -10.4522  -17.2397 C   0  0  0  0  0  0  0  0  0  0  0  0
   19.5541  -10.2698  -16.2116 O   0  0  0  0  0  0  0  0  0  0  0  0
   22.8075  -12.9081  -13.8152 C   0  0  0  0  0  0  0  0  0  0  0  0
   22.4325  -11.5616  -14.9886 S   0  0  0  0  0  0  0  0  0  0  0  0
   23.9659  -10.6874  -15.3250 C   0  0  0  0  0  0  0  0  0  0  0  0
   23.6734   -9.5388  -16.2682 C   0  0  0  0  0  0  0  0  0  0  0  0
   22.1886   -9.2173  -16.1930 C   0  0  2  0  0  0  0  0  0  0  0  0
   21.5337   -9.8751  -17.2948 N   0  0  0  0  0  0  0  0  0  0  0  0
   22.0593   -7.7552  -16.3904 C   0  0  0  0  0  0  0  0  0  0  0  0
   22.3522   -7.2826  -17.5150 O   0  0  0  0  0  0  0  0  0  0  0  0
   21.6232   -6.8788  -15.3734 N   0  0  0  0  0  0  0  0  0  0  0  0
   21.4550   -5.4811  -15.6968 C   0  0  0  0  0  0  0  0  0  0  0  0
   20.8663   -4.7835  -14.5078 C   0  0  0  0  0  0  0  0  0  0  0  0
   20.7712   -3.3953  -14.4869 O   0  0  0  0  0  0  0  0  0  0  0  0
   20.4434   -5.4068  -13.5017 O   0  0  0  0  0  0  0  0  0  0  0  0
  2  3  1  0
  2  1  1  0
  3  4  1  0
  4  5  1  0
  5  7  1  0
  5  6  1  1
  7  8  2  0
  9 10  1  0
 10 11  1  0
 11 12  1  0
 13 12  1  6
 13 15  1  0
 14  7  1  0
 14 13  1  0
 15 16  2  0
 17 15  1  0
 17 18  1  0
 19 18  1  0
 19 20  1  0
 21 19  2  0
M  END
$$$$
