MMG.pdb
     RDKit          3D

 21 20  0  0  1  0  0  0  0  0999 V2000
   30.6049  -23.9933   14.8795 C   0  0  0  0  0  0  0  0  0  0  0  0
   29.1852  -22.8522   14.8636 S   0  0  0  0  0  0  0  0  0  0  0  0
   29.5739  -21.5311   13.6789 C   0  0  0  0  0  0  0  0  0  0  0  0
   29.6478  -22.1812   12.3047 C   0  0  0  0  0  0  0  0  0  0  0  0
   30.0664  -21.0895   11.3329 C   0  0  2  0  0  0  0  0  0  0  0  0
   28.9173  -20.2426   11.0809 N   0  0  0  0  0  0  0  0  0  0  0  0
   30.5586  -21.6772   10.0575 C   0  0  0  0  0  0  0  0  0  0  0  0
   29.7078  -22.1963    9.2931 O   0  0  0  0  0  0  0  0  0  0  0  0
   32.0968  -21.5316    3.6844 C   0  0  0  0  0  0  0  0  0  0  0  0
   32.7422  -20.4144    4.9751 S   0  0  0  0  0  0  0  0  0  0  0  0
   33.4412  -21.4332    6.2797 C   0  0  0  0  0  0  0  0  0  0  0  0
   32.9069  -20.9503    7.6123 C   0  0  0  0  0  0  0  0  0  0  0  0
   32.3948  -22.1517    8.3920 C   0  0  2  0  0  0  0  0  0  0  0  0
   31.9093  -21.6831    9.6649 N   0  0  0  0  0  0  0  0  0  0  0  0
   33.5636  -23.0264    8.6418 C   0  0  0  0  0  0  0  0  0  0  0  0
   34.3495  -22.7124    9.5678 O   0  0  0  0  0  0  0  0  0  0  0  0
   33.8271  -24.1897    7.8868 N   0  0  0  0  0  0  0  0  0  0  0  0
   35.0071  -24.9607    8.2026 C   0  0  0  0  0  0  0  0  0  0  0  0
   34.7236  -25.7913    9.4178 C   0  0  0  0  0  0  0  0  0  0  0  0
   33.6570  -26.6850    9.4215 O   0  0  0  0  0  0  0  0  0  0  0  0
   35.4198  -25.7182   10.4616 O   0  0  0  0  0  0  0  0  0  0  0  0
  2  3  1  0
  2  1  1  0
  3  4  1  0
  4  5  1  0
  5  7  1  0
  5  6  1  6
  7  8  2  0
  9 10  1  0
 10 11  1  0
 11 12  1  0
 13 12  1  6
 13 15  1  0
 14  7  1  0
 14 13  1  0
 15 16  2  0
 17 15  1  0
 17 18  1  0
 19 18  1  0
 19 20  1  0
 21 19  2  0
M  END
$$$$
