MMG.pdb
     RDKit          3D

 21 20  0  0  1  0  0  0  0  0999 V2000
   26.2177  -15.6904  -17.7121 C   0  0  0  0  0  0  0  0  0  0  0  0
   26.4176  -16.1768  -15.9683 S   0  0  0  0  0  0  0  0  0  0  0  0
   27.7974  -17.3561  -15.8965 C   0  0  0  0  0  0  0  0  0  0  0  0
   27.9878  -17.7207  -14.4311 C   0  0  0  0  0  0  0  0  0  0  0  0
   26.7173  -18.4331  -13.9952 C   0  0  2  0  0  0  0  0  0  0  0  0
   25.8299  -17.4530  -13.4010 N   0  0  0  0  0  0  0  0  0  0  0  0
   27.0242  -19.5078  -13.0128 C   0  0  0  0  0  0  0  0  0  0  0  0
   27.8852  -20.3619  -13.3395 O   0  0  0  0  0  0  0  0  0  0  0  0
   27.6105  -20.4840   -6.2784 C   0  0  0  0  0  0  0  0  0  0  0  0
   26.7246  -19.2342   -7.2704 S   0  0  0  0  0  0  0  0  0  0  0  0
   27.0668  -19.5688   -9.0023 C   0  0  0  0  0  0  0  0  0  0  0  0
   25.9710  -20.4592   -9.5509 C   0  0  0  0  0  0  0  0  0  0  0  0
   26.3232  -20.8333  -10.9825 C   0  0  2  0  0  0  0  0  0  0  0  0
   26.4101  -19.6186  -11.7522 N   0  0  0  0  0  0  0  0  0  0  0  0
   25.1878  -21.6269  -11.5065 C   0  0  0  0  0  0  0  0  0  0  0  0
   24.0383  -21.1287  -11.4406 O   0  0  0  0  0  0  0  0  0  0  0  0
   25.3448  -22.9105  -12.0726 N   0  0  0  0  0  0  0  0  0  0  0  0
   24.1725  -23.5862  -12.5781 C   0  0  0  0  0  0  0  0  0  0  0  0
   24.3906  -23.9009  -14.0273 C   0  0  0  0  0  0  0  0  0  0  0  0
   23.4323  -24.6148  -14.7404 O   0  0  0  0  0  0  0  0  0  0  0  0
   25.4238  -23.5429  -14.6468 O   0  0  0  0  0  0  0  0  0  0  0  0
  2  3  1  0
  2  1  1  0
  3  4  1  0
  4  5  1  0
  5  7  1  0
  5  6  1  1
  7  8  2  0
  9 10  1  0
 10 11  1  0
 11 12  1  0
 13 12  1  1
 13 15  1  0
 14  7  1  0
 14 13  1  0
 15 16  2  0
 17 15  1  0
 17 18  1  0
 19 18  1  0
 19 20  1  0
 21 19  2  0
M  END
$$$$
