MMG.pdb
     RDKit          3D

 21 20  0  0  1  0  0  0  0  0999 V2000
   14.2992  -28.0627   -2.3186 C   0  0  0  0  0  0  0  0  0  0  0  0
   12.7628  -27.1351   -2.6295 S   0  0  0  0  0  0  0  0  0  0  0  0
   13.2121  -25.3788   -2.7451 C   0  0  0  0  0  0  0  0  0  0  0  0
   14.1402  -25.0849   -1.5751 C   0  0  0  0  0  0  0  0  0  0  0  0
   14.6415  -23.6627   -1.7687 C   0  0  2  0  0  0  0  0  0  0  0  0
   15.4345  -23.6233   -2.9814 N   0  0  0  0  0  0  0  0  0  0  0  0
   15.4624  -23.2286   -0.6060 C   0  0  0  0  0  0  0  0  0  0  0  0
   16.6842  -23.5194   -0.6193 O   0  0  0  0  0  0  0  0  0  0  0  0
   13.5277  -18.0192    2.0163 C   0  0  0  0  0  0  0  0  0  0  0  0
   15.1832  -18.1710    2.7693 S   0  0  0  0  0  0  0  0  0  0  0  0
   15.9815  -19.6100    2.0479 C   0  0  0  0  0  0  0  0  0  0  0  0
   15.0414  -20.7928    2.1567 C   0  0  0  0  0  0  0  0  0  0  0  0
   15.7408  -22.0199    1.5922 C   0  0  2  0  0  0  0  0  0  0  0  0
   14.9512  -22.5179    0.4950 N   0  0  0  0  0  0  0  0  0  0  0  0
   15.7341  -23.0435    2.6626 C   0  0  0  0  0  0  0  0  0  0  0  0
   14.9519  -24.0171    2.5443 O   0  0  0  0  0  0  0  0  0  0  0  0
   16.5652  -22.9691    3.8012 N   0  0  0  0  0  0  0  0  0  0  0  0
   16.3813  -23.9444    4.8507 C   0  0  0  0  0  0  0  0  0  0  0  0
   17.4225  -23.7142    5.9042 C   0  0  0  0  0  0  0  0  0  0  0  0
   17.4348  -24.4923    7.0578 O   0  0  0  0  0  0  0  0  0  0  0  0
   18.3082  -22.8294    5.7945 O   0  0  0  0  0  0  0  0  0  0  0  0
  2  3  1  0
  2  1  1  0
  3  4  1  0
  4  5  1  0
  5  7  1  0
  5  6  1  6
  7  8  2  0
  9 10  1  0
 10 11  1  0
 11 12  1  0
 13 12  1  1
 13 15  1  0
 14  7  1  0
 14 13  1  0
 15 16  2  0
 17 15  1  0
 17 18  1  0
 19 18  1  0
 19 20  1  0
 21 19  2  0
M  END
$$$$
