MMG.pdb
     RDKit          3D

 21 20  0  0  1  0  0  0  0  0999 V2000
   21.7544  -17.1511    1.8802 C   0  0  0  0  0  0  0  0  0  0  0  0
   20.9982  -17.8084    0.3591 S   0  0  0  0  0  0  0  0  0  0  0  0
   19.4309  -18.5930    0.8365 C   0  0  0  0  0  0  0  0  0  0  0  0
   19.3180  -18.4642    2.3488 C   0  0  0  0  0  0  0  0  0  0  0  0
   17.9965  -19.1068    2.7392 C   0  0  2  0  0  0  0  0  0  0  0  0
   16.9272  -18.3705    2.0945 N   0  0  0  0  0  0  0  0  0  0  0  0
   17.8143  -19.0862    4.2158 C   0  0  0  0  0  0  0  0  0  0  0  0
   17.0033  -18.2509    4.6874 O   0  0  0  0  0  0  0  0  0  0  0  0
   15.4485  -24.5268    6.7263 C   0  0  0  0  0  0  0  0  0  0  0  0
   17.0983  -23.8091    7.0322 S   0  0  0  0  0  0  0  0  0  0  0  0
   17.0273  -22.0688    6.5909 C   0  0  0  0  0  0  0  0  0  0  0  0
   18.3336  -21.4130    6.9883 C   0  0  0  0  0  0  0  0  0  0  0  0
   18.3052  -19.9625    6.5313 C   0  0  2  0  0  0  0  0  0  0  0  0
   18.4927  -19.9413    5.1031 N   0  0  0  0  0  0  0  0  0  0  0  0
   19.4714  -19.2967    7.1560 C   0  0  0  0  0  0  0  0  0  0  0  0
   20.5986  -19.4645    6.6314 O   0  0  0  0  0  0  0  0  0  0  0  0
   19.3675  -18.4875    8.3079 N   0  0  0  0  0  0  0  0  0  0  0  0
   20.5621  -17.8479    8.8080 C   0  0  0  0  0  0  0  0  0  0  0  0
   21.1423  -18.7026    9.8942 C   0  0  0  0  0  0  0  0  0  0  0  0
   22.2809  -18.2879   10.5783 O   0  0  0  0  0  0  0  0  0  0  0  0
   20.6381  -19.8049   10.2263 O   0  0  0  0  0  0  0  0  0  0  0  0
  2  3  1  0
  2  1  1  0
  3  4  1  0
  4  5  1  0
  5  7  1  0
  5  6  1  6
  7  8  2  0
  9 10  1  0
 10 11  1  0
 11 12  1  0
 13 12  1  1
 13 15  1  0
 14  7  1  0
 14 13  1  0
 15 16  2  0
 17 15  1  0
 17 18  1  0
 19 18  1  0
 19 20  1  0
 21 19  2  0
M  END
$$$$
