MMG.pdb
     RDKit          3D

 21 20  0  0  1  0  0  0  0  0999 V2000
   28.0080  -14.2371  -15.2686 C   0  0  0  0  0  0  0  0  0  0  0  0
   26.3103  -14.8969  -15.2597 S   0  0  0  0  0  0  0  0  0  0  0  0
   25.6849  -14.7878  -16.9617 C   0  0  0  0  0  0  0  0  0  0  0  0
   25.7845  -13.3259  -17.3733 C   0  0  0  0  0  0  0  0  0  0  0  0
   24.6626  -12.5969  -16.6512 C   0  0  2  0  0  0  0  0  0  0  0  0
   23.4109  -13.2465  -16.9866 N   0  0  0  0  0  0  0  0  0  0  0  0
   24.6192  -11.1644  -17.0516 C   0  0  0  0  0  0  0  0  0  0  0  0
   25.6859  -10.5069  -16.9662 O   0  0  0  0  0  0  0  0  0  0  0  0
   22.4549   -5.7291  -21.9620 C   0  0  0  0  0  0  0  0  0  0  0  0
   22.4077   -7.4858  -21.4697 S   0  0  0  0  0  0  0  0  0  0  0  0
   22.9140   -7.5844  -19.7485 C   0  0  0  0  0  0  0  0  0  0  0  0
   22.9197   -9.0391  -19.3263 C   0  0  0  0  0  0  0  0  0  0  0  0
   23.3912   -9.1218  -17.8825 C   0  0  2  0  0  0  0  0  0  0  0  0
   23.4619  -10.5131  -17.5155 N   0  0  0  0  0  0  0  0  0  0  0  0
   22.3421   -8.4829  -17.0550 C   0  0  0  0  0  0  0  0  0  0  0  0
   21.1465   -8.7941  -17.2730 O   0  0  0  0  0  0  0  0  0  0  0  0
   22.6300   -7.5460  -16.0392 N   0  0  0  0  0  0  0  0  0  0  0  0
   21.5277   -6.8660  -15.3996 C   0  0  0  0  0  0  0  0  0  0  0  0
   20.9340   -7.7812  -14.3716 C   0  0  0  0  0  0  0  0  0  0  0  0
   20.0312   -7.2888  -13.4341 O   0  0  0  0  0  0  0  0  0  0  0  0
   21.2191   -9.0038  -14.3126 O   0  0  0  0  0  0  0  0  0  0  0  0
  2  3  1  0
  2  1  1  0
  3  4  1  0
  4  5  1  0
  5  7  1  0
  5  6  1  6
  7  8  2  0
  9 10  1  0
 10 11  1  0
 11 12  1  0
 13 12  1  6
 13 15  1  0
 14  7  1  0
 14 13  1  0
 15 16  2  0
 17 15  1  0
 17 18  1  0
 19 18  1  0
 19 20  1  0
 21 19  2  0
M  END
$$$$
