MMG.pdb
     RDKit          3D

 21 20  0  0  1  0  0  0  0  0999 V2000
   17.8701  -12.3163  -20.1596 C   0  0  0  0  0  0  0  0  0  0  0  0
   18.3841  -13.9426  -19.5203 S   0  0  0  0  0  0  0  0  0  0  0  0
   20.1873  -13.8883  -19.3074 C   0  0  0  0  0  0  0  0  0  0  0  0
   20.4596  -13.0193  -18.0879 C   0  0  0  0  0  0  0  0  0  0  0  0
   21.9712  -12.9203  -17.9575 C   0  0  2  0  0  0  0  0  0  0  0  0
   22.4532  -14.1401  -17.3403 N   0  0  0  0  0  0  0  0  0  0  0  0
   22.3547  -11.7429  -17.1323 C   0  0  0  0  0  0  0  0  0  0  0  0
   22.1711  -11.8208  -15.8922 O   0  0  0  0  0  0  0  0  0  0  0  0
   27.2369  -11.1066  -15.0606 C   0  0  0  0  0  0  0  0  0  0  0  0
   25.7910  -10.8369  -16.1410 S   0  0  0  0  0  0  0  0  0  0  0  0
   25.7265   -9.0863  -16.5404 C   0  0  0  0  0  0  0  0  0  0  0  0
   24.5743   -8.8476  -17.4944 C   0  0  0  0  0  0  0  0  0  0  0  0
   23.3080   -9.4200  -16.8759 C   0  0  2  0  0  0  0  0  0  0  0  0
   22.9057  -10.5606  -17.6586 N   0  0  0  0  0  0  0  0  0  0  0  0
   22.2616   -8.3806  -17.0103 C   0  0  0  0  0  0  0  0  0  0  0  0
   21.8204   -8.1311  -18.1579 O   0  0  0  0  0  0  0  0  0  0  0  0
   21.7441   -7.6651  -15.9089 N   0  0  0  0  0  0  0  0  0  0  0  0
   20.8159   -6.5882  -16.1642 C   0  0  0  0  0  0  0  0  0  0  0  0
   20.5335   -5.8848  -14.8711 C   0  0  0  0  0  0  0  0  0  0  0  0
   19.8170   -4.6918  -14.8653 O   0  0  0  0  0  0  0  0  0  0  0  0
   20.9224   -6.3306  -13.7623 O   0  0  0  0  0  0  0  0  0  0  0  0
  2  3  1  0
  2  1  1  0
  3  4  1  0
  4  5  1  0
  5  7  1  0
  5  6  1  1
  7  8  2  0
  9 10  1  0
 10 11  1  0
 11 12  1  0
 13 12  1  6
 13 15  1  0
 14  7  1  0
 14 13  1  0
 15 16  2  0
 17 15  1  0
 17 18  1  0
 19 18  1  0
 19 20  1  0
 21 19  2  0
M  END
$$$$
