MMG.pdb
     RDKit          3D

 21 20  0  0  1  0  0  0  0  0999 V2000
   25.8263  -17.7049  -17.2047 C   0  0  0  0  0  0  0  0  0  0  0  0
   27.6192  -17.4087  -17.3277 S   0  0  0  0  0  0  0  0  0  0  0  0
   28.4346  -18.5926  -16.2171 C   0  0  0  0  0  0  0  0  0  0  0  0
   27.3388  -19.4709  -15.6304 C   0  0  0  0  0  0  0  0  0  0  0  0
   28.0213  -20.4225  -14.6608 C   0  0  2  0  0  0  0  0  0  0  0  0
   28.6270  -21.4930  -15.4278 N   0  0  0  0  0  0  0  0  0  0  0  0
   27.0418  -20.9798  -13.6891 C   0  0  0  0  0  0  0  0  0  0  0  0
   26.3182  -21.9302  -14.0774 O   0  0  0  0  0  0  0  0  0  0  0  0
   27.3768  -20.2654   -7.3190 C   0  0  0  0  0  0  0  0  0  0  0  0
   25.5581  -20.2487   -7.4708 S   0  0  0  0  0  0  0  0  0  0  0  0
   25.1408  -20.8676   -9.1052 C   0  0  0  0  0  0  0  0  0  0  0  0
   26.1435  -20.3231  -10.1016 C   0  0  0  0  0  0  0  0  0  0  0  0
   25.8511  -20.9328  -11.4641 C   0  0  2  0  0  0  0  0  0  0  0  0
   26.8834  -20.5064  -12.3741 N   0  0  0  0  0  0  0  0  0  0  0  0
   24.5681  -20.3528  -11.9233 C   0  0  0  0  0  0  0  0  0  0  0  0
   24.5458  -19.1368  -12.2313 O   0  0  0  0  0  0  0  0  0  0  0  0
   23.3788  -21.1060  -12.0280 N   0  0  0  0  0  0  0  0  0  0  0  0
   22.2091  -20.4687  -12.5865 C   0  0  0  0  0  0  0  0  0  0  0  0
   21.0655  -20.6518  -11.6349 C   0  0  0  0  0  0  0  0  0  0  0  0
   19.8598  -19.9925  -11.8544 O   0  0  0  0  0  0  0  0  0  0  0  0
   21.1438  -21.3906  -10.6212 O   0  0  0  0  0  0  0  0  0  0  0  0
  2  3  1  0
  2  1  1  0
  3  4  1  0
  4  5  1  0
  5  7  1  0
  5  6  1  6
  7  8  2  0
  9 10  1  0
 10 11  1  0
 11 12  1  0
 13 12  1  1
 13 15  1  0
 14  7  1  0
 14 13  1  0
 15 16  2  0
 17 15  1  0
 17 18  1  0
 19 18  1  0
 19 20  1  0
 21 19  2  0
M  END
$$$$
