MMG.pdb
     RDKit          3D

 21 20  0  0  1  0  0  0  0  0999 V2000
   25.3087  -17.3426  -15.0090 C   0  0  0  0  0  0  0  0  0  0  0  0
   27.0919  -17.2019  -15.3527 S   0  0  0  0  0  0  0  0  0  0  0  0
   27.8981  -18.6427  -14.5951 C   0  0  0  0  0  0  0  0  0  0  0  0
   26.9000  -19.2383  -13.6124 C   0  0  0  0  0  0  0  0  0  0  0  0
   27.6225  -20.3670  -12.8945 C   0  0  2  0  0  0  0  0  0  0  0  0
   27.8886  -21.4183  -13.8563 N   0  0  0  0  0  0  0  0  0  0  0  0
   26.7974  -20.8949  -11.7744 C   0  0  0  0  0  0  0  0  0  0  0  0
   26.1243  -21.9331  -11.9906 O   0  0  0  0  0  0  0  0  0  0  0  0
   27.0577  -19.4204   -5.0819 C   0  0  0  0  0  0  0  0  0  0  0  0
   28.2780  -19.3244   -6.4356 S   0  0  0  0  0  0  0  0  0  0  0  0
   27.7227  -20.4163   -7.7500 C   0  0  0  0  0  0  0  0  0  0  0  0
   26.3203  -20.0131   -8.1567 C   0  0  0  0  0  0  0  0  0  0  0  0
   25.9354  -20.7935   -9.4043 C   0  0  2  0  0  0  0  0  0  0  0  0
   26.7304  -20.3020  -10.5006 N   0  0  0  0  0  0  0  0  0  0  0  0
   24.5176  -20.4718   -9.6868 C   0  0  0  0  0  0  0  0  0  0  0  0
   23.6612  -20.7619   -8.8171 O   0  0  0  0  0  0  0  0  0  0  0  0
   24.0938  -19.8568  -10.8846 N   0  0  0  0  0  0  0  0  0  0  0  0
   22.6844  -19.5933  -11.0601 C   0  0  0  0  0  0  0  0  0  0  0  0
   22.0389  -20.8154  -11.6402 C   0  0  0  0  0  0  0  0  0  0  0  0
   20.8110  -21.2554  -11.1553 O   0  0  0  0  0  0  0  0  0  0  0  0
   22.5660  -21.4805  -12.5673 O   0  0  0  0  0  0  0  0  0  0  0  0
  2  3  1  0
  2  1  1  0
  3  4  1  0
  4  5  1  0
  5  7  1  0
  5  6  1  6
  7  8  2  0
  9 10  1  0
 10 11  1  0
 11 12  1  0
 13 12  1  1
 13 15  1  0
 14  7  1  0
 14 13  1  0
 15 16  2  0
 17 15  1  0
 17 18  1  0
 19 18  1  0
 19 20  1  0
 21 19  2  0
M  END
$$$$
