MMG.pdb
     RDKit          3D

 21 20  0  0  1  0  0  0  0  0999 V2000
   25.1758  -13.2076  -14.7024 C   0  0  0  0  0  0  0  0  0  0  0  0
   24.6346  -14.5579  -15.7984 S   0  0  0  0  0  0  0  0  0  0  0  0
   22.8801  -14.2724  -16.1730 C   0  0  0  0  0  0  0  0  0  0  0  0
   22.7141  -12.7742  -16.3833 C   0  0  0  0  0  0  0  0  0  0  0  0
   21.2601  -12.5510  -16.7677 C   0  0  2  0  0  0  0  0  0  0  0  0
   21.0121  -13.2384  -18.0196 N   0  0  0  0  0  0  0  0  0  0  0  0
   20.9688  -11.0992  -16.9145 C   0  0  0  0  0  0  0  0  0  0  0  0
   21.2829  -10.5528  -18.0010 O   0  0  0  0  0  0  0  0  0  0  0  0
   15.5000   -8.4155  -15.0656 C   0  0  0  0  0  0  0  0  0  0  0  0
   16.1943   -7.4871  -16.4750 S   0  0  0  0  0  0  0  0  0  0  0  0
   17.9825   -7.4838  -16.2992 C   0  0  0  0  0  0  0  0  0  0  0  0
   18.4406   -8.8889  -15.9673 C   0  0  0  0  0  0  0  0  0  0  0  0
   19.9565   -8.9427  -16.0806 C   0  0  2  0  0  0  0  0  0  0  0  0
   20.3676  -10.3135  -15.9146 N   0  0  0  0  0  0  0  0  0  0  0  0
   20.4961   -8.1622  -14.9434 C   0  0  0  0  0  0  0  0  0  0  0  0
   20.4033   -8.6532  -13.7927 O   0  0  0  0  0  0  0  0  0  0  0  0
   21.1059   -6.8988  -15.1001 N   0  0  0  0  0  0  0  0  0  0  0  0
   21.6072   -6.2275  -13.9234 C   0  0  0  0  0  0  0  0  0  0  0  0
   22.1789   -4.9046  -14.3357 C   0  0  0  0  0  0  0  0  0  0  0  0
   22.6595   -4.0198  -13.3751 O   0  0  0  0  0  0  0  0  0  0  0  0
   22.2472   -4.5450  -15.5380 O   0  0  0  0  0  0  0  0  0  0  0  0
  2  3  1  0
  2  1  1  0
  3  4  1  0
  4  5  1  0
  5  7  1  0
  5  6  1  6
  7  8  2  0
  9 10  1  0
 10 11  1  0
 11 12  1  0
 13 12  1  1
 13 15  1  0
 14  7  1  0
 14 13  1  0
 15 16  2  0
 17 15  1  0
 17 18  1  0
 19 18  1  0
 19 20  1  0
 21 19  2  0
M  END
$$$$
