ALW.pdb
     RDKit          3D

 28 29  0  0  1  0  0  0  0  0999 V2000
   27.0395  -26.9279  -16.1952 C   0  0  0  0  0  0  0  0  0  0  0  0
   28.2628  -27.6953  -16.6950 C   0  0  2  0  0  0  0  0  0  0  0  0
   28.7243  -27.0461  -17.9005 N   0  0  0  0  0  0  0  0  0  0  0  0
   27.9150  -29.1061  -16.9926 C   0  0  0  0  0  0  0  0  0  0  0  0
   27.3335  -29.3641  -18.0855 O   0  0  0  0  0  0  0  0  0  0  0  0
   29.9394  -32.8619  -17.8684 C   0  0  0  0  0  0  0  0  0  0  0  0
   30.1235  -32.6894  -16.3715 C   0  0  2  0  0  0  0  0  0  0  0  0
   31.1016  -33.5811  -15.7340 C   0  0  0  0  0  0  0  0  0  0  0  0
   28.8055  -32.4857  -15.7540 C   0  0  0  0  0  0  0  0  0  0  0  0
   27.8377  -31.5398  -16.3533 C   0  0  2  0  0  0  0  0  0  0  0  0
   28.2268  -30.1465  -16.0744 N   0  0  0  0  0  0  0  0  0  0  0  0
   26.4199  -31.7467  -15.9484 C   0  0  0  0  0  0  0  0  0  0  0  0
   26.0312  -31.5949  -14.7624 O   0  0  0  0  0  0  0  0  0  0  0  0
   25.4178  -32.1265  -16.8765 N   0  0  0  0  0  0  0  0  0  0  0  0
   24.0362  -32.3895  -16.4855 C   0  0  1  0  0  0  0  0  0  0  0  0
   23.1027  -32.1987  -17.6162 C   0  0  0  0  0  0  0  0  0  0  0  0
   21.6944  -32.3118  -17.2139 C   0  0  0  0  0  0  0  0  0  0  0  0
   20.9295  -31.3606  -16.5189 C   0  0  0  0  0  0  0  0  0  0  0  0
   19.7003  -31.8068  -16.2873 N   0  0  0  0  0  0  0  0  0  0  0  0
   19.6092  -33.0273  -16.8035 C   0  0  0  0  0  0  0  0  0  0  0  0
   18.5048  -33.8789  -16.8213 C   0  0  0  0  0  0  0  0  0  0  0  0
   18.6115  -35.1071  -17.4359 C   0  0  0  0  0  0  0  0  0  0  0  0
   19.8123  -35.4425  -18.0096 C   0  0  0  0  0  0  0  0  0  0  0  0
   20.9026  -34.6014  -17.9910 C   0  0  0  0  0  0  0  0  0  0  0  0
   20.8110  -33.3758  -17.3823 C   0  0  0  0  0  0  0  0  0  0  0  0
   23.8871  -33.6425  -15.7821 C   0  0  0  0  0  0  0  0  0  0  0  0
   23.0903  -33.6300  -14.6177 O   0  0  0  0  0  0  0  0  0  0  0  0
   24.4056  -34.7330  -16.1205 O   0  0  0  0  0  0  0  0  0  0  0  0
  2  1  1  6
  2  3  1  0
  4  2  1  0
  5  4  2  0
  7  6  1  6
  7  8  1  0
  9  7  1  0
 10  9  1  1
 10 11  1  0
 11  4  1  0
 12 14  1  0
 12 10  1  0
 13 12  2  0
 15 14  1  0
 15 16  1  6
 16 17  1  0
 17 18  2  0
 18 19  1  0
 20 19  1  0
 21 20  2  0
 22 21  1  0
 23 24  1  0
 23 22  2  0
 24 25  2  0
 25 17  1  0
 25 20  1  0
 26 15  1  0
 27 26  1  0
 28 26  2  0
M  END
$$$$
