ALW.pdb
     RDKit          3D

 28 29  0  0  1  0  0  0  0  0999 V2000
   21.6895  -18.8664  -14.0599 C   0  0  0  0  0  0  0  0  0  0  0  0
   22.6700  -19.3517  -15.1266 C   0  0  2  0  0  0  0  0  0  0  0  0
   21.9468  -20.2269  -16.0203 N   0  0  0  0  0  0  0  0  0  0  0  0
   23.7966  -20.0930  -14.5093 C   0  0  0  0  0  0  0  0  0  0  0  0
   23.6251  -21.3108  -14.2146 O   0  0  0  0  0  0  0  0  0  0  0  0
   29.8728  -19.5045  -14.0487 C   0  0  0  0  0  0  0  0  0  0  0  0
   28.6881  -20.3081  -13.5435 C   0  0  2  0  0  0  0  0  0  0  0  0
   28.8424  -21.7689  -13.5647 C   0  0  0  0  0  0  0  0  0  0  0  0
   27.4516  -19.6941  -14.0472 C   0  0  0  0  0  0  0  0  0  0  0  0
   26.1332  -20.1740  -13.5758 C   0  0  2  0  0  0  0  0  0  0  0  0
   25.0413  -19.4541  -14.2541 N   0  0  0  0  0  0  0  0  0  0  0  0
   25.9275  -20.1078  -12.1027 C   0  0  0  0  0  0  0  0  0  0  0  0
   25.7424  -19.0208  -11.4987 O   0  0  0  0  0  0  0  0  0  0  0  0
   25.9258  -21.2681  -11.2881 N   0  0  0  0  0  0  0  0  0  0  0  0
   25.7173  -21.2206   -9.8441 C   0  0  1  0  0  0  0  0  0  0  0  0
   26.9342  -20.7772   -9.1306 C   0  0  0  0  0  0  0  0  0  0  0  0
   26.7491  -20.7219   -7.6744 C   0  0  0  0  0  0  0  0  0  0  0  0
   25.6664  -21.2260   -6.9350 C   0  0  0  0  0  0  0  0  0  0  0  0
   25.8065  -20.9691   -5.6396 N   0  0  0  0  0  0  0  0  0  0  0  0
   26.9480  -20.3092   -5.4793 C   0  0  0  0  0  0  0  0  0  0  0  0
   27.5220  -19.8485   -4.2946 C   0  0  0  0  0  0  0  0  0  0  0  0
   28.7372  -19.2015   -4.3423 C   0  0  0  0  0  0  0  0  0  0  0  0
   29.3360  -19.0366   -5.5662 C   0  0  0  0  0  0  0  0  0  0  0  0
   28.7682  -19.4911   -6.7357 C   0  0  0  0  0  0  0  0  0  0  0  0
   27.5585  -20.1365   -6.7033 C   0  0  0  0  0  0  0  0  0  0  0  0
   24.5109  -20.5139   -9.4803 C   0  0  0  0  0  0  0  0  0  0  0  0
   23.4105  -21.2973   -9.0724 O   0  0  0  0  0  0  0  0  0  0  0  0
   24.3637  -19.2687   -9.4980 O   0  0  0  0  0  0  0  0  0  0  0  0
  2  1  1  1
  2  3  1  0
  4  2  1  0
  5  4  2  0
  7  6  1  6
  7  8  1  0
  9  7  1  0
 10  9  1  1
 10 11  1  0
 11  4  1  0
 12 14  1  0
 12 10  1  0
 13 12  2  0
 15 14  1  0
 15 16  1  1
 16 17  1  0
 17 18  2  0
 18 19  1  0
 20 19  1  0
 21 20  2  0
 22 21  1  0
 23 24  1  0
 23 22  2  0
 24 25  2  0
 25 17  1  0
 25 20  1  0
 26 15  1  0
 27 26  1  0
 28 26  2  0
M  END
$$$$
