ALW.pdb
     RDKit          3D

 28 29  0  0  1  0  0  0  0  0999 V2000
   19.1845  -36.9653   -8.4862 C   0  0  0  0  0  0  0  0  0  0  0  0
   20.6009  -36.5986   -8.0453 C   0  0  2  0  0  0  0  0  0  0  0  0
   20.9956  -37.5344   -7.0176 N   0  0  0  0  0  0  0  0  0  0  0  0
   20.6439  -35.2185   -7.5035 C   0  0  0  0  0  0  0  0  0  0  0  0
   20.1805  -35.0129   -6.3450 O   0  0  0  0  0  0  0  0  0  0  0  0
   23.9072  -32.6952   -6.4325 C   0  0  0  0  0  0  0  0  0  0  0  0
   23.7850  -32.5101   -7.9342 C   0  0  2  0  0  0  0  0  0  0  0  0
   24.9363  -31.8908   -8.6045 C   0  0  0  0  0  0  0  0  0  0  0  0
   22.4231  -32.0532   -8.2446 C   0  0  0  0  0  0  0  0  0  0  0  0
   21.2507  -32.7844   -7.7143 C   0  0  2  0  0  0  0  0  0  0  0  0
   21.1931  -34.1499   -8.2645 N   0  0  0  0  0  0  0  0  0  0  0  0
   19.9393  -32.1117   -7.9252 C   0  0  0  0  0  0  0  0  0  0  0  0
   19.3559  -32.1118   -9.0389 O   0  0  0  0  0  0  0  0  0  0  0  0
   19.2646  -31.4294   -6.8815 N   0  0  0  0  0  0  0  0  0  0  0  0
   17.9742  -30.7736   -7.0699 C   0  0  1  0  0  0  0  0  0  0  0  0
   17.3297  -30.4544   -5.7779 C   0  0  0  0  0  0  0  0  0  0  0  0
   18.0271  -29.3899   -5.0442 C   0  0  0  0  0  0  0  0  0  0  0  0
   18.2369  -28.0655   -5.4625 C   0  0  0  0  0  0  0  0  0  0  0  0
   18.9391  -27.3826   -4.5658 N   0  0  0  0  0  0  0  0  0  0  0  0
   19.2098  -28.2012   -3.5554 C   0  0  0  0  0  0  0  0  0  0  0  0
   19.9049  -27.9228   -2.3786 C   0  0  0  0  0  0  0  0  0  0  0  0
   20.0568  -28.9152   -1.4355 C   0  0  0  0  0  0  0  0  0  0  0  0
   19.5120  -30.1474   -1.6978 C   0  0  0  0  0  0  0  0  0  0  0  0
   18.8265  -30.4217   -2.8603 C   0  0  0  0  0  0  0  0  0  0  0  0
   18.6680  -29.4434   -3.8084 C   0  0  0  0  0  0  0  0  0  0  0  0
   18.0423  -29.6711   -8.0011 C   0  0  0  0  0  0  0  0  0  0  0  0
   16.8155  -29.1456   -8.4590 O   0  0  0  0  0  0  0  0  0  0  0  0
   19.0968  -29.1474   -8.4327 O   0  0  0  0  0  0  0  0  0  0  0  0
  2  1  1  1
  2  3  1  0
  4  2  1  0
  5  4  2  0
  7  6  1  1
  7  8  1  0
  9  7  1  0
 10  9  1  6
 10 11  1  0
 11  4  1  0
 12 14  1  0
 12 10  1  0
 13 12  2  0
 15 14  1  0
 15 16  1  1
 16 17  1  0
 17 18  2  0
 18 19  1  0
 20 19  1  0
 21 20  2  0
 22 21  1  0
 23 24  1  0
 23 22  2  0
 24 25  2  0
 25 17  1  0
 25 20  1  0
 26 15  1  0
 27 26  1  0
 28 26  2  0
M  END
$$$$
