ALW.pdb
     RDKit          3D

 28 29  0  0  1  0  0  0  0  0999 V2000
   25.5309  -16.1039  -15.6226 C   0  0  0  0  0  0  0  0  0  0  0  0
   26.6395  -17.0231  -16.1338 C   0  0  2  0  0  0  0  0  0  0  0  0
   26.2938  -17.4193  -17.4796 N   0  0  0  0  0  0  0  0  0  0  0  0
   26.7624  -18.2278  -15.2774 C   0  0  0  0  0  0  0  0  0  0  0  0
   25.9151  -19.1556  -15.4200 O   0  0  0  0  0  0  0  0  0  0  0  0
   30.9874  -20.8304  -11.6604 C   0  0  0  0  0  0  0  0  0  0  0  0
   29.5293  -20.8989  -12.0771 C   0  0  2  0  0  0  0  0  0  0  0  0
   29.0090  -22.2367  -12.3899 C   0  0  0  0  0  0  0  0  0  0  0  0
   29.2413  -19.7719  -12.9752 C   0  0  0  0  0  0  0  0  0  0  0  0
   27.8488  -19.4763  -13.3804 C   0  0  2  0  0  0  0  0  0  0  0  0
   27.8068  -18.3412  -14.3187 N   0  0  0  0  0  0  0  0  0  0  0  0
   26.9051  -19.2231  -12.2571 C   0  0  0  0  0  0  0  0  0  0  0  0
   27.0203  -18.2306  -11.4939 O   0  0  0  0  0  0  0  0  0  0  0  0
   25.8149  -20.0855  -11.9783 N   0  0  0  0  0  0  0  0  0  0  0  0
   25.0798  -20.0493  -10.7177 C   0  0  1  0  0  0  0  0  0  0  0  0
   23.7625  -19.3955  -10.8720 C   0  0  0  0  0  0  0  0  0  0  0  0
   22.8547  -20.1490  -11.7473 C   0  0  0  0  0  0  0  0  0  0  0  0
   21.9804  -21.1840  -11.3767 C   0  0  0  0  0  0  0  0  0  0  0  0
   21.3334  -21.6684  -12.4304 N   0  0  0  0  0  0  0  0  0  0  0  0
   21.7407  -20.9946  -13.5001 C   0  0  0  0  0  0  0  0  0  0  0  0
   21.3245  -21.1384  -14.8235 C   0  0  0  0  0  0  0  0  0  0  0  0
   21.8582  -20.3151  -15.7904 C   0  0  0  0  0  0  0  0  0  0  0  0
   22.7859  -19.3797  -15.4052 C   0  0  0  0  0  0  0  0  0  0  0  0
   23.1969  -19.2389  -14.0984 C   0  0  0  0  0  0  0  0  0  0  0  0
   22.6745  -20.0520  -13.1253 C   0  0  0  0  0  0  0  0  0  0  0  0
   25.0444  -21.3342  -10.0584 C   0  0  0  0  0  0  0  0  0  0  0  0
   24.6056  -21.3519   -8.7175 O   0  0  0  0  0  0  0  0  0  0  0  0
   25.3705  -22.4279  -10.5783 O   0  0  0  0  0  0  0  0  0  0  0  0
  2  1  1  1
  2  3  1  0
  4  2  1  0
  5  4  2  0
  7  6  1  6
  7  8  1  0
  9  7  1  0
 10  9  1  1
 10 11  1  0
 11  4  1  0
 12 14  1  0
 12 10  1  0
 13 12  2  0
 15 14  1  0
 15 16  1  6
 16 17  1  0
 17 18  2  0
 18 19  1  0
 20 19  1  0
 21 20  2  0
 22 21  1  0
 23 24  1  0
 23 22  2  0
 24 25  2  0
 25 17  1  0
 25 20  1  0
 26 15  1  0
 27 26  1  0
 28 26  2  0
M  END
$$$$
