ALW.pdb
     RDKit          3D

 28 29  0  0  1  0  0  0  0  0999 V2000
   20.6783  -18.8391  -10.7913 C   0  0  0  0  0  0  0  0  0  0  0  0
   20.6713  -19.8019  -11.9779 C   0  0  2  0  0  0  0  0  0  0  0  0
   19.6504  -20.7941  -11.7306 N   0  0  0  0  0  0  0  0  0  0  0  0
   21.9878  -20.4694  -12.1233 C   0  0  0  0  0  0  0  0  0  0  0  0
   22.2243  -21.4921  -11.4181 O   0  0  0  0  0  0  0  0  0  0  0  0
   24.1817  -22.4228  -15.3125 C   0  0  0  0  0  0  0  0  0  0  0  0
   24.4357  -20.9570  -15.6145 C   0  0  2  0  0  0  0  0  0  0  0  0
   25.0491  -20.6626  -16.9165 C   0  0  0  0  0  0  0  0  0  0  0  0
   24.9460  -20.3060  -14.3997 C   0  0  0  0  0  0  0  0  0  0  0  0
   24.3107  -20.5676  -13.0888 C   0  0  2  0  0  0  0  0  0  0  0  0
   22.9629  -19.9753  -13.0332 N   0  0  0  0  0  0  0  0  0  0  0  0
   25.0962  -20.1187  -11.9063 C   0  0  0  0  0  0  0  0  0  0  0  0
   24.9620  -18.9728  -11.4066 O   0  0  0  0  0  0  0  0  0  0  0  0
   26.0445  -20.9570  -11.2678 N   0  0  0  0  0  0  0  0  0  0  0  0
   26.8320  -20.5269  -10.1164 C   0  0  1  0  0  0  0  0  0  0  0  0
   25.9708  -20.1570   -8.9728 C   0  0  0  0  0  0  0  0  0  0  0  0
   26.7062  -19.4538   -7.9133 C   0  0  0  0  0  0  0  0  0  0  0  0
   27.0415  -18.0904   -7.8719 C   0  0  0  0  0  0  0  0  0  0  0  0
   27.7430  -17.7997   -6.7824 N   0  0  0  0  0  0  0  0  0  0  0  0
   27.8919  -18.9209   -6.0861 C   0  0  0  0  0  0  0  0  0  0  0  0
   28.5390  -19.1008   -4.8637 C   0  0  0  0  0  0  0  0  0  0  0  0
   28.5599  -20.3534   -4.2909 C   0  0  0  0  0  0  0  0  0  0  0  0
   27.9367  -21.3802   -4.9550 C   0  0  0  0  0  0  0  0  0  0  0  0
   27.2986  -21.2019   -6.1624 C   0  0  0  0  0  0  0  0  0  0  0  0
   27.2703  -19.9605   -6.7447 C   0  0  0  0  0  0  0  0  0  0  0  0
   27.8986  -21.4479   -9.7979 C   0  0  0  0  0  0  0  0  0  0  0  0
   29.1338  -20.8854   -9.4122 O   0  0  0  0  0  0  0  0  0  0  0  0
   27.8158  -22.6986   -9.8368 O   0  0  0  0  0  0  0  0  0  0  0  0
  2  1  1  1
  2  3  1  0
  4  2  1  0
  5  4  2  0
  7  6  1  1
  7  8  1  0
  9  7  1  0
 10  9  1  6
 10 11  1  0
 11  4  1  0
 12 14  1  0
 12 10  1  0
 13 12  2  0
 15 14  1  0
 15 16  1  1
 16 17  1  0
 17 18  2  0
 18 19  1  0
 20 19  1  0
 21 20  2  0
 22 21  1  0
 23 24  1  0
 23 22  2  0
 24 25  2  0
 25 17  1  0
 25 20  1  0
 26 15  1  0
 27 26  1  0
 28 26  2  0
M  END
$$$$
