ALW.pdb
     RDKit          3D

 28 29  0  0  1  0  0  0  0  0999 V2000
   27.7575  -18.9362  -14.0897 C   0  0  0  0  0  0  0  0  0  0  0  0
   28.3524  -19.9875  -13.1538 C   0  0  2  0  0  0  0  0  0  0  0  0
   28.9205  -21.0326  -13.9741 N   0  0  0  0  0  0  0  0  0  0  0  0
   27.3066  -20.5612  -12.2723 C   0  0  0  0  0  0  0  0  0  0  0  0
   26.6603  -21.5677  -12.6827 O   0  0  0  0  0  0  0  0  0  0  0  0
   27.7693  -21.6666   -8.0357 C   0  0  0  0  0  0  0  0  0  0  0  0
   27.3739  -20.2010   -8.0304 C   0  0  2  0  0  0  0  0  0  0  0  0
   27.5909  -19.4780   -6.7701 C   0  0  0  0  0  0  0  0  0  0  0  0
   26.1019  -20.0523   -8.7513 C   0  0  0  0  0  0  0  0  0  0  0  0
   25.9681  -20.5458  -10.1402 C   0  0  2  0  0  0  0  0  0  0  0  0
   27.0347  -19.9968  -10.9955 N   0  0  0  0  0  0  0  0  0  0  0  0
   24.6459  -20.2912  -10.7756 C   0  0  0  0  0  0  0  0  0  0  0  0
   24.0185  -19.2140  -10.6120 O   0  0  0  0  0  0  0  0  0  0  0  0
   24.0115  -21.2481  -11.6073 N   0  0  0  0  0  0  0  0  0  0  0  0
   22.8581  -20.9289  -12.4432 C   0  0  1  0  0  0  0  0  0  0  0  0
   23.0084  -21.4699  -13.8112 C   0  0  0  0  0  0  0  0  0  0  0  0
   21.8919  -21.1019  -14.6921 C   0  0  0  0  0  0  0  0  0  0  0  0
   21.6410  -19.8452  -15.2672 C   0  0  0  0  0  0  0  0  0  0  0  0
   20.5211  -19.8569  -15.9807 N   0  0  0  0  0  0  0  0  0  0  0  0
   20.0077  -21.0797  -15.9076 C   0  0  0  0  0  0  0  0  0  0  0  0
   18.8505  -21.5699  -16.5126 C   0  0  0  0  0  0  0  0  0  0  0  0
   18.5022  -22.8899  -16.3290 C   0  0  0  0  0  0  0  0  0  0  0  0
   19.3173  -23.6730  -15.5505 C   0  0  0  0  0  0  0  0  0  0  0  0
   20.4592  -23.1881  -14.9527 C   0  0  0  0  0  0  0  0  0  0  0  0
   20.8181  -21.8758  -15.1264 C   0  0  0  0  0  0  0  0  0  0  0  0
   21.6029  -21.2450  -11.8017 C   0  0  0  0  0  0  0  0  0  0  0  0
   20.5406  -20.3368  -11.9952 O   0  0  0  0  0  0  0  0  0  0  0  0
   21.3830  -22.2546  -11.0911 O   0  0  0  0  0  0  0  0  0  0  0  0
  2  1  1  6
  2  3  1  0
  4  2  1  0
  5  4  2  0
  7  6  1  1
  7  8  1  0
  9  7  1  0
 10  9  1  1
 10 11  1  0
 11  4  1  0
 12 14  1  0
 12 10  1  0
 13 12  2  0
 15 14  1  0
 15 16  1  6
 16 17  1  0
 17 18  2  0
 18 19  1  0
 20 19  1  0
 21 20  2  0
 22 21  1  0
 23 24  1  0
 23 22  2  0
 24 25  2  0
 25 17  1  0
 25 20  1  0
 26 15  1  0
 27 26  1  0
 28 26  2  0
M  END
$$$$
