ALW.pdb
     RDKit          3D

 28 29  0  0  1  0  0  0  0  0999 V2000
   25.1398  -18.2376  -13.9277 C   0  0  0  0  0  0  0  0  0  0  0  0
   26.4664  -18.8004  -14.4360 C   0  0  2  0  0  0  0  0  0  0  0  0
   26.2600  -19.2491  -15.7939 N   0  0  0  0  0  0  0  0  0  0  0  0
   26.9112  -19.9407  -13.5982 C   0  0  0  0  0  0  0  0  0  0  0  0
   26.5250  -21.1033  -13.9116 O   0  0  0  0  0  0  0  0  0  0  0  0
   31.7638  -21.0666  -10.1161 C   0  0  0  0  0  0  0  0  0  0  0  0
   30.4439  -21.6576  -10.5779 C   0  0  2  0  0  0  0  0  0  0  0  0
   30.5082  -23.0040  -11.1619 C   0  0  0  0  0  0  0  0  0  0  0  0
   29.6630  -20.6060  -11.2442 C   0  0  0  0  0  0  0  0  0  0  0  0
   28.2848  -20.8799  -11.7091 C   0  0  2  0  0  0  0  0  0  0  0  0
   27.7523  -19.7360  -12.4698 N   0  0  0  0  0  0  0  0  0  0  0  0
   27.3199  -21.2524  -10.6382 C   0  0  0  0  0  0  0  0  0  0  0  0
   27.2524  -22.4177  -10.1708 O   0  0  0  0  0  0  0  0  0  0  0  0
   26.4169  -20.3150  -10.0764 N   0  0  0  0  0  0  0  0  0  0  0  0
   25.2327  -20.7121   -9.3208 C   0  0  1  0  0  0  0  0  0  0  0  0
   25.0490  -19.8771   -8.1144 C   0  0  0  0  0  0  0  0  0  0  0  0
   26.3227  -19.4939   -7.4908 C   0  0  0  0  0  0  0  0  0  0  0  0
   27.1372  -18.3992   -7.8240 C   0  0  0  0  0  0  0  0  0  0  0  0
   28.2373  -18.3733   -7.0805 N   0  0  0  0  0  0  0  0  0  0  0  0
   28.1925  -19.4134   -6.2557 C   0  0  0  0  0  0  0  0  0  0  0  0
   29.1167  -19.7834   -5.2788 C   0  0  0  0  0  0  0  0  0  0  0  0
   28.8688  -20.8950   -4.5040 C   0  0  0  0  0  0  0  0  0  0  0  0
   27.7113  -21.5972   -4.7296 C   0  0  0  0  0  0  0  0  0  0  0  0
   26.7996  -21.2317   -5.6949 C   0  0  0  0  0  0  0  0  0  0  0  0
   27.0335  -20.1275   -6.4740 C   0  0  0  0  0  0  0  0  0  0  0  0
   24.0592  -20.8388  -10.1538 C   0  0  0  0  0  0  0  0  0  0  0  0
   23.8183  -19.8015  -11.0794 O   0  0  0  0  0  0  0  0  0  0  0  0
   23.2426  -21.7900  -10.1205 O   0  0  0  0  0  0  0  0  0  0  0  0
  2  1  1  1
  2  3  1  0
  4  2  1  0
  5  4  2  0
  7  6  1  6
  7  8  1  0
  9  7  1  0
 10  9  1  1
 10 11  1  0
 11  4  1  0
 12 14  1  0
 12 10  1  0
 13 12  2  0
 15 14  1  0
 15 16  1  1
 16 17  1  0
 17 18  2  0
 18 19  1  0
 20 19  1  0
 21 20  2  0
 22 21  1  0
 23 24  1  0
 23 22  2  0
 24 25  2  0
 25 17  1  0
 25 20  1  0
 26 15  1  0
 27 26  1  0
 28 26  2  0
M  END
$$$$
