ALW.pdb
     RDKit          3D

 28 29  0  0  1  0  0  0  0  0999 V2000
   22.2385  -17.6230  -19.7055 C   0  0  0  0  0  0  0  0  0  0  0  0
   23.6204  -18.1847  -20.0369 C   0  0  2  0  0  0  0  0  0  0  0  0
   23.4572  -19.1509  -21.0987 N   0  0  0  0  0  0  0  0  0  0  0  0
   24.2191  -18.8456  -18.8517 C   0  0  0  0  0  0  0  0  0  0  0  0
   24.2038  -20.1089  -18.7962 O   0  0  0  0  0  0  0  0  0  0  0  0
   28.1393  -19.1295  -17.6774 C   0  0  0  0  0  0  0  0  0  0  0  0
   27.7893  -17.7879  -17.0592 C   0  0  2  0  0  0  0  0  0  0  0  0
   28.9224  -16.9702  -16.6060 C   0  0  0  0  0  0  0  0  0  0  0  0
   26.6156  -17.9596  -16.1916 C   0  0  0  0  0  0  0  0  0  0  0  0
   25.4498  -18.7431  -16.6579 C   0  0  2  0  0  0  0  0  0  0  0  0
   24.7982  -18.0811  -17.8015 N   0  0  0  0  0  0  0  0  0  0  0  0
   24.4309  -19.0405  -15.6138 C   0  0  0  0  0  0  0  0  0  0  0  0
   24.6957  -19.7246  -14.5927 O   0  0  0  0  0  0  0  0  0  0  0  0
   23.0971  -18.5687  -15.7048 N   0  0  0  0  0  0  0  0  0  0  0  0
   22.1025  -18.8023  -14.6622 C   0  0  1  0  0  0  0  0  0  0  0  0
   21.7656  -17.5570  -13.9396 C   0  0  0  0  0  0  0  0  0  0  0  0
   21.5091  -16.4283  -14.8442 C   0  0  0  0  0  0  0  0  0  0  0  0
   20.3522  -16.1947  -15.6056 C   0  0  0  0  0  0  0  0  0  0  0  0
   20.4742  -15.0968  -16.3428 N   0  0  0  0  0  0  0  0  0  0  0  0
   21.6745  -14.5806  -16.1040 C   0  0  0  0  0  0  0  0  0  0  0  0
   22.2381  -13.4199  -16.6334 C   0  0  0  0  0  0  0  0  0  0  0  0
   23.5006  -13.0413  -16.2331 C   0  0  0  0  0  0  0  0  0  0  0  0
   24.1555  -13.8310  -15.3214 C   0  0  0  0  0  0  0  0  0  0  0  0
   23.5986  -14.9775  -14.7997 C   0  0  0  0  0  0  0  0  0  0  0  0
   22.3426  -15.3668  -15.1895 C   0  0  0  0  0  0  0  0  0  0  0  0
   20.9637  -19.5524  -15.1392 C   0  0  0  0  0  0  0  0  0  0  0  0
   20.0739  -20.0510  -14.1643 O   0  0  0  0  0  0  0  0  0  0  0  0
   20.7043  -19.7949  -16.3420 O   0  0  0  0  0  0  0  0  0  0  0  0
  2  1  1  1
  2  3  1  0
  4  2  1  0
  5  4  2  0
  7  6  1  1
  7  8  1  0
  9  7  1  0
 10  9  1  1
 10 11  1  0
 11  4  1  0
 12 14  1  0
 12 10  1  0
 13 12  2  0
 15 14  1  0
 15 16  1  6
 16 17  1  0
 17 18  2  0
 18 19  1  0
 20 19  1  0
 21 20  2  0
 22 21  1  0
 23 24  1  0
 23 22  2  0
 24 25  2  0
 25 17  1  0
 25 20  1  0
 26 15  1  0
 27 26  1  0
 28 26  2  0
M  END
$$$$
