ALW.pdb
     RDKit          3D

 28 29  0  0  1  0  0  0  0  0999 V2000
   27.4171  -18.2290  -14.8566 C   0  0  0  0  0  0  0  0  0  0  0  0
   28.2503  -19.4493  -14.4671 C   0  0  2  0  0  0  0  0  0  0  0  0
   28.5966  -20.1491  -15.6829 N   0  0  0  0  0  0  0  0  0  0  0  0
   27.4799  -20.3515  -13.5769 C   0  0  0  0  0  0  0  0  0  0  0  0
   26.7545  -21.2421  -14.1059 O   0  0  0  0  0  0  0  0  0  0  0  0
   29.1432  -22.5586  -10.3842 C   0  0  0  0  0  0  0  0  0  0  0  0
   28.6980  -21.2670   -9.7225 C   0  0  2  0  0  0  0  0  0  0  0  0
   29.2954  -20.9727   -8.4131 C   0  0  0  0  0  0  0  0  0  0  0  0
   27.2501  -21.1099   -9.9197 C   0  0  0  0  0  0  0  0  0  0  0  0
   26.6865  -21.0291  -11.2858 C   0  0  2  0  0  0  0  0  0  0  0  0
   27.5533  -20.2223  -12.1624 N   0  0  0  0  0  0  0  0  0  0  0  0
   25.2912  -20.5154  -11.3634 C   0  0  0  0  0  0  0  0  0  0  0  0
   25.0147  -19.2978  -11.2153 O   0  0  0  0  0  0  0  0  0  0  0  0
   24.1858  -21.3678  -11.6110 N   0  0  0  0  0  0  0  0  0  0  0  0
   23.0110  -20.9409  -12.3649 C   0  0  1  0  0  0  0  0  0  0  0  0
   23.3800  -20.3937  -13.6881 C   0  0  0  0  0  0  0  0  0  0  0  0
   22.2174  -19.9160  -14.4484 C   0  0  0  0  0  0  0  0  0  0  0  0
   21.4911  -18.7325  -14.2371 C   0  0  0  0  0  0  0  0  0  0  0  0
   20.4752  -18.6325  -15.0866 N   0  0  0  0  0  0  0  0  0  0  0  0
   20.4917  -19.7085  -15.8651 C   0  0  0  0  0  0  0  0  0  0  0  0
   19.6316  -20.0301  -16.9150 C   0  0  0  0  0  0  0  0  0  0  0  0
   19.8372  -21.1949  -17.6211 C   0  0  0  0  0  0  0  0  0  0  0  0
   20.8900  -21.9964  -17.2567 C   0  0  0  0  0  0  0  0  0  0  0  0
   21.7383  -21.6787  -16.2194 C   0  0  0  0  0  0  0  0  0  0  0  0
   21.5454  -20.5224  -15.5074 C   0  0  0  0  0  0  0  0  0  0  0  0
   21.9740  -21.9464  -12.3934 C   0  0  0  0  0  0  0  0  0  0  0  0
   20.6936  -21.5558  -11.9474 O   0  0  0  0  0  0  0  0  0  0  0  0
   22.1193  -23.1306  -12.7797 O   0  0  0  0  0  0  0  0  0  0  0  0
  2  1  1  6
  2  3  1  0
  4  2  1  0
  5  4  2  0
  7  6  1  1
  7  8  1  0
  9  7  1  0
 10  9  1  1
 10 11  1  0
 11  4  1  0
 12 14  1  0
 12 10  1  0
 13 12  2  0
 15 14  1  0
 15 16  1  6
 16 17  1  0
 17 18  2  0
 18 19  1  0
 20 19  1  0
 21 20  2  0
 22 21  1  0
 23 24  1  0
 23 22  2  0
 24 25  2  0
 25 17  1  0
 25 20  1  0
 26 15  1  0
 27 26  1  0
 28 26  2  0
M  END
$$$$
