ALW.pdb
     RDKit          3D

 28 29  0  0  1  0  0  0  0  0999 V2000
   23.8010  -23.6955  -15.6246 C   0  0  0  0  0  0  0  0  0  0  0  0
   25.0121  -23.0353  -16.2824 C   0  0  2  0  0  0  0  0  0  0  0  0
   25.7953  -24.0783  -16.9040 N   0  0  0  0  0  0  0  0  0  0  0  0
   25.8386  -22.3269  -15.2750 C   0  0  0  0  0  0  0  0  0  0  0  0
   26.7754  -22.9627  -14.7117 O   0  0  0  0  0  0  0  0  0  0  0  0
   28.6651  -18.9663  -15.2009 C   0  0  0  0  0  0  0  0  0  0  0  0
   27.2982  -18.3122  -15.2905 C   0  0  2  0  0  0  0  0  0  0  0  0
   27.2878  -16.8793  -15.6145 C   0  0  0  0  0  0  0  0  0  0  0  0
   26.4576  -18.8230  -14.1986 C   0  0  0  0  0  0  0  0  0  0  0  0
   26.3910  -20.2758  -13.9239 C   0  0  2  0  0  0  0  0  0  0  0  0
   25.5877  -20.9657  -14.9483 N   0  0  0  0  0  0  0  0  0  0  0  0
   25.8846  -20.6398  -12.5719 C   0  0  0  0  0  0  0  0  0  0  0  0
   24.6570  -20.6816  -12.3036 O   0  0  0  0  0  0  0  0  0  0  0  0
   26.7559  -20.9640  -11.5017 N   0  0  0  0  0  0  0  0  0  0  0  0
   26.3139  -21.0228  -10.1117 C   0  0  1  0  0  0  0  0  0  0  0  0
   27.4576  -21.0934   -9.1772 C   0  0  0  0  0  0  0  0  0  0  0  0
   27.0726  -20.8117   -7.7878 C   0  0  0  0  0  0  0  0  0  0  0  0
   25.8218  -21.0365   -7.1897 C   0  0  0  0  0  0  0  0  0  0  0  0
   25.8122  -20.6299   -5.9255 N   0  0  0  0  0  0  0  0  0  0  0  0
   27.0151  -20.1389   -5.6495 C   0  0  0  0  0  0  0  0  0  0  0  0
   27.4800  -19.6152   -4.4433 C   0  0  0  0  0  0  0  0  0  0  0  0
   28.7830  -19.1767   -4.3573 C   0  0  0  0  0  0  0  0  0  0  0  0
   29.5749  -19.2752   -5.4739 C   0  0  0  0  0  0  0  0  0  0  0  0
   29.1150  -19.7917   -6.6648 C   0  0  0  0  0  0  0  0  0  0  0  0
   27.8199  -20.2317   -6.7651 C   0  0  0  0  0  0  0  0  0  0  0  0
   25.3363  -20.0068   -9.7965 C   0  0  0  0  0  0  0  0  0  0  0  0
   24.1257  -20.4434   -9.2180 O   0  0  0  0  0  0  0  0  0  0  0  0
   25.4760  -18.7764   -9.9946 O   0  0  0  0  0  0  0  0  0  0  0  0
  2  1  1  1
  2  3  1  0
  4  2  1  0
  5  4  2  0
  7  6  1  1
  7  8  1  0
  9  7  1  0
 10  9  1  6
 10 11  1  0
 11  4  1  0
 12 14  1  0
 12 10  1  0
 13 12  2  0
 15 14  1  0
 15 16  1  1
 16 17  1  0
 17 18  2  0
 18 19  1  0
 20 19  1  0
 21 20  2  0
 22 21  1  0
 23 24  1  0
 23 22  2  0
 24 25  2  0
 25 17  1  0
 25 20  1  0
 26 15  1  0
 27 26  1  0
 28 26  2  0
M  END
$$$$
