ALW.pdb
     RDKit          3D

 28 29  0  0  1  0  0  0  0  0999 V2000
   26.1938  -23.9833  -18.6978 C   0  0  0  0  0  0  0  0  0  0  0  0
   27.3129  -23.1644  -18.0559 C   0  0  2  0  0  0  0  0  0  0  0  0
   28.2801  -24.0923  -17.5163 N   0  0  0  0  0  0  0  0  0  0  0  0
   26.7825  -22.3099  -16.9657 C   0  0  0  0  0  0  0  0  0  0  0  0
   26.8089  -22.7583  -15.7836 O   0  0  0  0  0  0  0  0  0  0  0  0
   28.2076  -18.4720  -15.4126 C   0  0  0  0  0  0  0  0  0  0  0  0
   27.4207  -18.1304  -16.6649 C   0  0  2  0  0  0  0  0  0  0  0  0
   27.6017  -16.7707  -17.1908 C   0  0  0  0  0  0  0  0  0  0  0  0
   26.0695  -18.6952  -16.5424 C   0  0  0  0  0  0  0  0  0  0  0  0
   25.8836  -20.1077  -16.1412 C   0  0  2  0  0  0  0  0  0  0  0  0
   26.2570  -21.0168  -17.2387 N   0  0  0  0  0  0  0  0  0  0  0  0
   24.5179  -20.4519  -15.6583 C   0  0  0  0  0  0  0  0  0  0  0  0
   23.5206  -20.4735  -16.4236 O   0  0  0  0  0  0  0  0  0  0  0  0
   24.2565  -20.7790  -14.3038 N   0  0  0  0  0  0  0  0  0  0  0  0
   22.9120  -21.0379  -13.7978 C   0  0  1  0  0  0  0  0  0  0  0  0
   22.9423  -21.7969  -12.5292 C   0  0  0  0  0  0  0  0  0  0  0  0
   23.6438  -21.0797  -11.4561 C   0  0  0  0  0  0  0  0  0  0  0  0
   23.0734  -20.2684  -10.4614 C   0  0  0  0  0  0  0  0  0  0  0  0
   24.0056  -19.7444   -9.6740 N   0  0  0  0  0  0  0  0  0  0  0  0
   25.1865  -20.1753  -10.1031 C   0  0  0  0  0  0  0  0  0  0  0  0
   26.4496  -19.9055   -9.5766 C   0  0  0  0  0  0  0  0  0  0  0  0
   27.5586  -20.4769  -10.1606 C   0  0  0  0  0  0  0  0  0  0  0  0
   27.3702  -21.2950  -11.2464 C   0  0  0  0  0  0  0  0  0  0  0  0
   26.1228  -21.5603  -11.7663 C   0  0  0  0  0  0  0  0  0  0  0  0
   25.0098  -20.9980  -11.1953 C   0  0  0  0  0  0  0  0  0  0  0  0
   22.0898  -19.8502  -13.7732 C   0  0  0  0  0  0  0  0  0  0  0  0
   20.6989  -20.0334  -13.9239 O   0  0  0  0  0  0  0  0  0  0  0  0
   22.5099  -18.6773  -13.6300 O   0  0  0  0  0  0  0  0  0  0  0  0
  2  1  1  1
  2  3  1  0
  4  2  1  0
  5  4  2  0
  7  6  1  1
  7  8  1  0
  9  7  1  0
 10  9  1  6
 10 11  1  0
 11  4  1  0
 12 14  1  0
 12 10  1  0
 13 12  2  0
 15 14  1  0
 15 16  1  1
 16 17  1  0
 17 18  2  0
 18 19  1  0
 20 19  1  0
 21 20  2  0
 22 21  1  0
 23 24  1  0
 23 22  2  0
 24 25  2  0
 25 17  1  0
 25 20  1  0
 26 15  1  0
 27 26  1  0
 28 26  2  0
M  END
$$$$
