ALW.pdb
     RDKit          3D

 28 29  0  0  1  0  0  0  0  0999 V2000
   26.3552  -22.7477  -18.4001 C   0  0  0  0  0  0  0  0  0  0  0  0
   27.7779  -22.6434  -17.8524 C   0  0  2  0  0  0  0  0  0  0  0  0
   28.3027  -23.9848  -17.7391 N   0  0  0  0  0  0  0  0  0  0  0  0
   27.7836  -21.9935  -16.5192 C   0  0  0  0  0  0  0  0  0  0  0  0
   28.6001  -22.4131  -15.6495 O   0  0  0  0  0  0  0  0  0  0  0  0
   29.1410  -18.2628  -15.5444 C   0  0  0  0  0  0  0  0  0  0  0  0
   27.7273  -17.9434  -15.9959 C   0  0  2  0  0  0  0  0  0  0  0  0
   27.4455  -16.5311  -16.2864 C   0  0  0  0  0  0  0  0  0  0  0  0
   26.7843  -18.7275  -15.1860 C   0  0  0  0  0  0  0  0  0  0  0  0
   27.0145  -20.1721  -14.9608 C   0  0  2  0  0  0  0  0  0  0  0  0
   26.8946  -20.9238  -16.2222 N   0  0  0  0  0  0  0  0  0  0  0  0
   26.1414  -20.7968  -13.9292 C   0  0  0  0  0  0  0  0  0  0  0  0
   24.9616  -21.1548  -14.1754 O   0  0  0  0  0  0  0  0  0  0  0  0
   26.5869  -21.0290  -12.6035 N   0  0  0  0  0  0  0  0  0  0  0  0
   25.7442  -21.6429  -11.5819 C   0  0  1  0  0  0  0  0  0  0  0  0
   26.5253  -22.0227  -10.3852 C   0  0  0  0  0  0  0  0  0  0  0  0
   26.6349  -20.9301   -9.4095 C   0  0  0  0  0  0  0  0  0  0  0  0
   25.7639  -19.8394   -9.2528 C   0  0  0  0  0  0  0  0  0  0  0  0
   26.1854  -19.0198   -8.2966 N   0  0  0  0  0  0  0  0  0  0  0  0
   27.3114  -19.5210   -7.8017 C   0  0  0  0  0  0  0  0  0  0  0  0
   28.1023  -19.0174   -6.7691 C   0  0  0  0  0  0  0  0  0  0  0  0
   29.2302  -19.7092   -6.3860 C   0  0  0  0  0  0  0  0  0  0  0  0
   29.5295  -20.8759   -7.0441 C   0  0  0  0  0  0  0  0  0  0  0  0
   28.7486  -21.3721   -8.0642 C   0  0  0  0  0  0  0  0  0  0  0  0
   27.6231  -20.6936   -8.4564 C   0  0  0  0  0  0  0  0  0  0  0  0
   24.5531  -20.8726  -11.3080 C   0  0  0  0  0  0  0  0  0  0  0  0
   24.5930  -19.4993  -11.6297 O   0  0  0  0  0  0  0  0  0  0  0  0
   23.4938  -21.3230  -10.8104 O   0  0  0  0  0  0  0  0  0  0  0  0
  2  1  1  1
  2  3  1  0
  4  2  1  0
  5  4  2  0
  7  6  1  1
  7  8  1  0
  9  7  1  0
 10  9  1  6
 10 11  1  0
 11  4  1  0
 12 14  1  0
 12 10  1  0
 13 12  2  0
 15 14  1  0
 15 16  1  1
 16 17  1  0
 17 18  2  0
 18 19  1  0
 20 19  1  0
 21 20  2  0
 22 21  1  0
 23 24  1  0
 23 22  2  0
 24 25  2  0
 25 17  1  0
 25 20  1  0
 26 15  1  0
 27 26  1  0
 28 26  2  0
M  END
$$$$
