EHV.pdb
     RDKit          3D

 27 27  0  0  1  0  0  0  0  0999 V2000
   27.7699  -24.3488  -16.6005 N   0  0  0  0  0  0  0  0  0  0  0  0
   28.3953  -24.9310  -17.7870 C   0  0  1  0  0  0  0  0  0  0  0  0
   29.4930  -24.0239  -18.2444 C   0  0  0  0  0  0  0  0  0  0  0  0
   29.0246  -22.7564  -18.9070 C   0  0  0  0  0  0  0  0  0  0  0  0
   28.8917  -22.9541  -20.3865 C   0  0  0  0  0  0  0  0  0  0  0  0
   28.4912  -22.0491  -21.1629 O   0  0  0  0  0  0  0  0  0  0  0  0
   28.9565  -26.2737  -17.4525 C   0  0  0  0  0  0  0  0  0  0  0  0
   29.4066  -26.5977  -16.3312 O   0  0  0  0  0  0  0  0  0  0  0  0
   29.2114  -24.1773  -20.9962 O   0  0  0  0  0  0  0  0  0  0  0  0
   29.0127  -27.3142  -18.4475 N   0  0  0  0  0  0  0  0  0  0  0  0
   29.4370  -28.6557  -18.1082 C   0  0  1  0  0  0  0  0  0  0  0  0
   28.3235  -29.6193  -18.3588 C   0  0  0  0  0  0  0  0  0  0  0  0
   27.1275  -29.3326  -17.5243 C   0  0  0  0  0  0  0  0  0  0  0  0
   26.9314  -28.4159  -16.5231 C   0  0  0  0  0  0  0  0  0  0  0  0
   25.6725  -28.5216  -16.0498 N   0  0  0  0  0  0  0  0  0  0  0  0
   25.0688  -29.4875  -16.7327 C   0  0  0  0  0  0  0  0  0  0  0  0
   25.9325  -29.9862  -17.6253 N   0  0  0  0  0  0  0  0  0  0  0  0
   30.6861  -28.9500  -18.7922 C   0  0  0  0  0  0  0  0  0  0  0  0
   31.0405  -28.2402  -19.7656 O   0  0  0  0  0  0  0  0  0  0  0  0
   33.5095  -31.9905  -17.5072 C   0  0  0  0  0  0  0  0  0  0  0  0
   33.8753  -30.7234  -18.2255 C   0  0  2  0  0  0  0  0  0  0  0  0
   34.2929  -29.6506  -17.2512 C   0  0  0  0  0  0  0  0  0  0  0  0
   32.7894  -30.2528  -19.1697 C   0  0  2  0  0  0  0  0  0  0  0  0
   31.5692  -30.0116  -18.4370 N   0  0  0  0  0  0  0  0  0  0  0  0
   32.6171  -31.2706  -20.2277 C   0  0  0  0  0  0  0  0  0  0  0  0
   33.4330  -31.3242  -21.3471 O   0  0  0  0  0  0  0  0  0  0  0  0
   31.7029  -32.1523  -20.1574 O   0  0  0  0  0  0  0  0  0  0  0  0
  2  1  1  1
  2  3  1  0
  4  5  1  0
  4  3  1  0
  5  6  2  0
  7  2  1  0
  7 10  1  0
  8  7  2  0
  9  5  1  0
 11 10  1  0
 12 13  1  0
 11 12  1  6
 13 17  1  0
 13 14  2  0
 14 15  1  0
 16 15  1  0
 17 16  2  0
 18 11  1  0
 19 18  2  0
 21 20  1  1
 21 23  1  0
 22 21  1  0
 23 24  1  1
 23 25  1  0
 24 18  1  0
 25 26  1  0
 27 25  2  0
M  END
$$$$
