EHV.pdb
     RDKit          3D

 27 27  0  0  1  0  0  0  0  0999 V2000
   34.1821  -31.0351  -16.0562 N   0  0  0  0  0  0  0  0  0  0  0  0
   35.3474  -31.8655  -15.7554 C   0  0  1  0  0  0  0  0  0  0  0  0
   36.3757  -31.0197  -15.0739 C   0  0  0  0  0  0  0  0  0  0  0  0
   37.1259  -30.0870  -15.9861 C   0  0  0  0  0  0  0  0  0  0  0  0
   38.2661  -30.8009  -16.6465 C   0  0  0  0  0  0  0  0  0  0  0  0
   39.2062  -31.3307  -16.0001 O   0  0  0  0  0  0  0  0  0  0  0  0
   34.9457  -32.9910  -14.8601 C   0  0  0  0  0  0  0  0  0  0  0  0
   34.0102  -32.9419  -14.0311 O   0  0  0  0  0  0  0  0  0  0  0  0
   38.3491  -30.9197  -18.0426 O   0  0  0  0  0  0  0  0  0  0  0  0
   35.6454  -34.2497  -14.9048 N   0  0  0  0  0  0  0  0  0  0  0  0
   35.2132  -35.3778  -14.1077 C   0  0  1  0  0  0  0  0  0  0  0  0
   35.2679  -36.6274  -14.9243 C   0  0  0  0  0  0  0  0  0  0  0  0
   34.8922  -37.8332  -14.1408 C   0  0  0  0  0  0  0  0  0  0  0  0
   35.6673  -38.7424  -13.4672 C   0  0  0  0  0  0  0  0  0  0  0  0
   34.8796  -39.6781  -12.8978 N   0  0  0  0  0  0  0  0  0  0  0  0
   33.6214  -39.3779  -13.1983 C   0  0  0  0  0  0  0  0  0  0  0  0
   33.6121  -38.2684  -13.9470 N   0  0  0  0  0  0  0  0  0  0  0  0
   35.9718  -35.4063  -12.8673 C   0  0  0  0  0  0  0  0  0  0  0  0
   37.2172  -35.2487  -12.9003 O   0  0  0  0  0  0  0  0  0  0  0  0
   34.2274  -35.6395   -8.8323 C   0  0  0  0  0  0  0  0  0  0  0  0
   35.4264  -34.8505   -9.2743 C   0  0  2  0  0  0  0  0  0  0  0  0
   35.0410  -33.4380   -9.6358 C   0  0  0  0  0  0  0  0  0  0  0  0
   36.2023  -35.5363  -10.3787 C   0  0  2  0  0  0  0  0  0  0  0  0
   35.3995  -35.6044  -11.5766 N   0  0  0  0  0  0  0  0  0  0  0  0
   36.6119  -36.8737   -9.9006 C   0  0  0  0  0  0  0  0  0  0  0  0
   37.6804  -37.0589   -9.0370 O   0  0  0  0  0  0  0  0  0  0  0  0
   35.9957  -37.9255  -10.2638 O   0  0  0  0  0  0  0  0  0  0  0  0
  2  1  1  1
  2  3  1  0
  4  5  1  0
  4  3  1  0
  5  6  2  0
  7  2  1  0
  7 10  1  0
  8  7  2  0
  9  5  1  0
 11 10  1  0
 12 13  1  0
 11 12  1  6
 13 17  1  0
 13 14  2  0
 14 15  1  0
 16 15  1  0
 17 16  2  0
 18 11  1  0
 19 18  2  0
 21 20  1  6
 21 23  1  0
 22 21  1  0
 23 24  1  6
 23 25  1  0
 24 18  1  0
 25 26  1  0
 27 25  2  0
M  END
$$$$
