EHV.pdb
     RDKit          3D

 27 27  0  0  1  0  0  0  0  0999 V2000
   29.0728  -19.8964  -18.5229 N   0  0  0  0  0  0  0  0  0  0  0  0
   28.1418  -20.8637  -17.9438 C   0  0  1  0  0  0  0  0  0  0  0  0
   28.9223  -21.8699  -17.1593 C   0  0  0  0  0  0  0  0  0  0  0  0
   29.7137  -22.8400  -17.9945 C   0  0  0  0  0  0  0  0  0  0  0  0
   30.3189  -23.9054  -17.1317 C   0  0  0  0  0  0  0  0  0  0  0  0
   30.0108  -24.0611  -15.9221 O   0  0  0  0  0  0  0  0  0  0  0  0
   27.1789  -20.1598  -17.0454 C   0  0  0  0  0  0  0  0  0  0  0  0
   27.4575  -19.1597  -16.3476 O   0  0  0  0  0  0  0  0  0  0  0  0
   31.2764  -24.8011  -17.6328 O   0  0  0  0  0  0  0  0  0  0  0  0
   25.8171  -20.6153  -16.9286 N   0  0  0  0  0  0  0  0  0  0  0  0
   24.8811  -19.9635  -16.0375 C   0  0  1  0  0  0  0  0  0  0  0  0
   23.7269  -19.4257  -16.8183 C   0  0  0  0  0  0  0  0  0  0  0  0
   22.6708  -18.8505  -15.9448 C   0  0  0  0  0  0  0  0  0  0  0  0
   22.5325  -17.5934  -15.4139 C   0  0  0  0  0  0  0  0  0  0  0  0
   21.4045  -17.5329  -14.6763 N   0  0  0  0  0  0  0  0  0  0  0  0
   20.8269  -18.7274  -14.7307 C   0  0  0  0  0  0  0  0  0  0  0  0
   21.5779  -19.5328  -15.4916 N   0  0  0  0  0  0  0  0  0  0  0  0
   24.5367  -20.8732  -14.9564 C   0  0  0  0  0  0  0  0  0  0  0  0
   24.3094  -22.0813  -15.2133 O   0  0  0  0  0  0  0  0  0  0  0  0
   24.6430  -19.9183  -10.6920 C   0  0  0  0  0  0  0  0  0  0  0  0
   24.7687  -21.2776  -11.3181 C   0  0  2  0  0  0  0  0  0  0  0  0
   26.2164  -21.6447  -11.5274 C   0  0  0  0  0  0  0  0  0  0  0  0
   23.9506  -21.4154  -12.5845 C   0  0  2  0  0  0  0  0  0  0  0  0
   24.4329  -20.4942  -13.5859 N   0  0  0  0  0  0  0  0  0  0  0  0
   22.5292  -21.1869  -12.2494 C   0  0  0  0  0  0  0  0  0  0  0  0
   21.7548  -22.1403  -11.6068 O   0  0  0  0  0  0  0  0  0  0  0  0
   21.9469  -20.0936  -12.5387 O   0  0  0  0  0  0  0  0  0  0  0  0
  2  1  1  1
  2  3  1  0
  4  5  1  0
  4  3  1  0
  5  6  2  0
  7  2  1  0
  7 10  1  0
  8  7  2  0
  9  5  1  0
 11 10  1  0
 12 13  1  0
 11 12  1  6
 13 17  1  0
 13 14  2  0
 14 15  1  0
 16 15  1  0
 17 16  2  0
 18 11  1  0
 19 18  2  0
 21 20  1  6
 21 23  1  0
 22 21  1  0
 23 24  1  6
 23 25  1  0
 24 18  1  0
 25 26  1  0
 27 25  2  0
M  END
$$$$
