EHV.pdb
     RDKit          3D

 27 27  0  0  1  0  0  0  0  0999 V2000
   20.4363  -15.2279  -17.1732 N   0  0  0  0  0  0  0  0  0  0  0  0
   19.8695  -13.9188  -17.4942 C   0  0  1  0  0  0  0  0  0  0  0  0
   18.4232  -13.9160  -17.1130 C   0  0  0  0  0  0  0  0  0  0  0  0
   17.8318  -15.2809  -16.8844 C   0  0  0  0  0  0  0  0  0  0  0  0
   16.8822  -15.2556  -15.7253 C   0  0  0  0  0  0  0  0  0  0  0  0
   16.2033  -16.2556  -15.3770 O   0  0  0  0  0  0  0  0  0  0  0  0
   20.5938  -12.8568  -16.7344 C   0  0  0  0  0  0  0  0  0  0  0  0
   20.6403  -12.7806  -15.4867 O   0  0  0  0  0  0  0  0  0  0  0  0
   16.6953  -14.0983  -14.9535 O   0  0  0  0  0  0  0  0  0  0  0  0
   21.3092  -11.8166  -17.4284 N   0  0  0  0  0  0  0  0  0  0  0  0
   22.1427  -10.8732  -16.7142 C   0  0  1  0  0  0  0  0  0  0  0  0
   23.5074  -10.8405  -17.3205 C   0  0  0  0  0  0  0  0  0  0  0  0
   24.3758  -11.9386  -16.8211 C   0  0  0  0  0  0  0  0  0  0  0  0
   24.1416  -12.9105  -15.8820 C   0  0  0  0  0  0  0  0  0  0  0  0
   25.2320  -13.6952  -15.7582 N   0  0  0  0  0  0  0  0  0  0  0  0
   26.1510  -13.2382  -16.6009 C   0  0  0  0  0  0  0  0  0  0  0  0
   25.6502  -12.1796  -17.2491 N   0  0  0  0  0  0  0  0  0  0  0  0
   21.4595   -9.5916  -16.6396 C   0  0  0  0  0  0  0  0  0  0  0  0
   20.7220   -9.2277  -17.5886 O   0  0  0  0  0  0  0  0  0  0  0  0
   18.8439   -8.4350  -14.3470 C   0  0  0  0  0  0  0  0  0  0  0  0
   19.3401   -7.7193  -15.5704 C   0  0  2  0  0  0  0  0  0  0  0  0
   18.9321   -8.4482  -16.8261 C   0  0  0  0  0  0  0  0  0  0  0  0
   20.8279   -7.4430  -15.5225 C   0  0  2  0  0  0  0  0  0  0  0  0
   21.5613   -8.6862  -15.5429 N   0  0  0  0  0  0  0  0  0  0  0  0
   21.1152   -6.6413  -14.3143 C   0  0  0  0  0  0  0  0  0  0  0  0
   20.7847   -5.2985  -14.2176 O   0  0  0  0  0  0  0  0  0  0  0  0
   21.6846   -7.1531  -13.2985 O   0  0  0  0  0  0  0  0  0  0  0  0
  2  1  1  1
  2  3  1  0
  4  5  1  0
  4  3  1  0
  5  6  2  0
  7  2  1  0
  7 10  1  0
  8  7  2  0
  9  5  1  0
 11 10  1  0
 12 13  1  0
 11 12  1  6
 13 17  1  0
 13 14  2  0
 14 15  1  0
 16 15  1  0
 17 16  2  0
 18 11  1  0
 19 18  2  0
 21 20  1  1
 21 23  1  0
 22 21  1  0
 23 24  1  1
 23 25  1  0
 24 18  1  0
 25 26  1  0
 27 25  2  0
M  END
$$$$
