EHV.pdb
     RDKit          3D

 27 27  0  0  1  0  0  0  0  0999 V2000
   23.0892  -20.1721  -15.4963 N   0  0  0  0  0  0  0  0  0  0  0  0
   22.5169  -20.6676  -14.2454 C   0  0  1  0  0  0  0  0  0  0  0  0
   21.6614  -21.8567  -14.5474 C   0  0  0  0  0  0  0  0  0  0  0  0
   20.7843  -21.7067  -15.7612 C   0  0  0  0  0  0  0  0  0  0  0  0
   21.6073  -21.3652  -16.9662 C   0  0  0  0  0  0  0  0  0  0  0  0
   22.8618  -21.4549  -16.9838 O   0  0  0  0  0  0  0  0  0  0  0  0
   23.6136  -21.0592  -13.3107 C   0  0  0  0  0  0  0  0  0  0  0  0
   23.4484  -21.6959  -12.2466 O   0  0  0  0  0  0  0  0  0  0  0  0
   21.0152  -20.9200  -18.1584 O   0  0  0  0  0  0  0  0  0  0  0  0
   24.9815  -20.7087  -13.5965 N   0  0  0  0  0  0  0  0  0  0  0  0
   26.0439  -21.0030  -12.6587 C   0  0  1  0  0  0  0  0  0  0  0  0
   27.3701  -20.8451  -13.3275 C   0  0  0  0  0  0  0  0  0  0  0  0
   28.5052  -21.0965  -12.4016 C   0  0  0  0  0  0  0  0  0  0  0  0
   28.5201  -21.4389  -11.0735 C   0  0  0  0  0  0  0  0  0  0  0  0
   29.7951  -21.5625  -10.6501 N   0  0  0  0  0  0  0  0  0  0  0  0
   30.5865  -21.3050  -11.6850 C   0  0  0  0  0  0  0  0  0  0  0  0
   29.8242  -21.0224  -12.7482 N   0  0  0  0  0  0  0  0  0  0  0  0
   25.8517  -20.2115  -11.4539 C   0  0  0  0  0  0  0  0  0  0  0  0
   25.5738  -18.9909  -11.5535 O   0  0  0  0  0  0  0  0  0  0  0  0
   24.9178  -21.5751   -7.4337 C   0  0  0  0  0  0  0  0  0  0  0  0
   24.7263  -20.2411   -8.0965 C   0  0  2  0  0  0  0  0  0  0  0  0
   23.4107  -20.1864   -8.8318 C   0  0  0  0  0  0  0  0  0  0  0  0
   25.8950  -19.8534   -8.9774 C   0  0  2  0  0  0  0  0  0  0  0  0
   25.9558  -20.7238  -10.1274 N   0  0  0  0  0  0  0  0  0  0  0  0
   27.1294  -19.9078   -8.1661 C   0  0  0  0  0  0  0  0  0  0  0  0
   28.0990  -20.8809   -8.3528 O   0  0  0  0  0  0  0  0  0  0  0  0
   27.3599  -19.0550   -7.2509 O   0  0  0  0  0  0  0  0  0  0  0  0
  2  1  1  6
  2  3  1  0
  4  5  1  0
  4  3  1  0
  5  6  2  0
  7  2  1  0
  7 10  1  0
  8  7  2  0
  9  5  1  0
 11 10  1  0
 12 13  1  0
 11 12  1  6
 13 17  1  0
 13 14  2  0
 14 15  1  0
 16 15  1  0
 17 16  2  0
 18 11  1  0
 19 18  2  0
 21 20  1  6
 21 23  1  0
 22 21  1  0
 23 24  1  6
 23 25  1  0
 24 18  1  0
 25 26  1  0
 27 25  2  0
M  END
$$$$
