EHV.pdb
     RDKit          3D

 27 27  0  0  1  0  0  0  0  0999 V2000
   26.0129  -18.7096  -16.4894 N   0  0  0  0  0  0  0  0  0  0  0  0
   26.4172  -19.7535  -15.5489 C   0  0  1  0  0  0  0  0  0  0  0  0
   27.8884  -19.6366  -15.3061 C   0  0  0  0  0  0  0  0  0  0  0  0
   28.7513  -20.0733  -16.4592 C   0  0  0  0  0  0  0  0  0  0  0  0
   28.5024  -21.5143  -16.7866 C   0  0  0  0  0  0  0  0  0  0  0  0
   28.4999  -22.4218  -15.9155 O   0  0  0  0  0  0  0  0  0  0  0  0
   25.6783  -19.5853  -14.2622 C   0  0  0  0  0  0  0  0  0  0  0  0
   25.6466  -18.5291  -13.5926 O   0  0  0  0  0  0  0  0  0  0  0  0
   28.2546  -21.9370  -18.1019 O   0  0  0  0  0  0  0  0  0  0  0  0
   24.9296  -20.6790  -13.6976 N   0  0  0  0  0  0  0  0  0  0  0  0
   24.1695  -20.5175  -12.4765 C   0  0  1  0  0  0  0  0  0  0  0  0
   22.8408  -21.1861  -12.6131 C   0  0  0  0  0  0  0  0  0  0  0  0
   21.8896  -20.3937  -13.4355 C   0  0  0  0  0  0  0  0  0  0  0  0
   22.0087  -19.1453  -13.9910 C   0  0  0  0  0  0  0  0  0  0  0  0
   20.8786  -18.8354  -14.6596 N   0  0  0  0  0  0  0  0  0  0  0  0
   20.0474  -19.8640  -14.5377 C   0  0  0  0  0  0  0  0  0  0  0  0
   20.6421  -20.8114  -13.8027 N   0  0  0  0  0  0  0  0  0  0  0  0
   24.9773  -20.9536  -11.3486 C   0  0  0  0  0  0  0  0  0  0  0  0
   25.4439  -22.1194  -11.3361 O   0  0  0  0  0  0  0  0  0  0  0  0
   27.5653  -20.2698   -7.2176 C   0  0  0  0  0  0  0  0  0  0  0  0
   26.8380  -19.7082   -8.4054 C   0  0  2  0  0  0  0  0  0  0  0  0
   26.1645  -18.4037   -8.0600 C   0  0  0  0  0  0  0  0  0  0  0  0
   25.8817  -20.7028   -9.0286 C   0  0  2  0  0  0  0  0  0  0  0  0
   25.2930  -20.1405  -10.2207 N   0  0  0  0  0  0  0  0  0  0  0  0
   24.8654  -21.0688   -8.0195 C   0  0  0  0  0  0  0  0  0  0  0  0
   23.5437  -20.6616   -8.1145 O   0  0  0  0  0  0  0  0  0  0  0  0
   25.1613  -21.7815   -7.0083 O   0  0  0  0  0  0  0  0  0  0  0  0
  2  1  1  6
  2  3  1  0
  4  5  1  0
  4  3  1  0
  5  6  2  0
  7  2  1  0
  7 10  1  0
  8  7  2  0
  9  5  1  0
 11 10  1  0
 12 13  1  0
 11 12  1  6
 13 17  1  0
 13 14  2  0
 14 15  1  0
 16 15  1  0
 17 16  2  0
 18 11  1  0
 19 18  2  0
 21 20  1  1
 21 23  1  0
 22 21  1  0
 23 24  1  6
 23 25  1  0
 24 18  1  0
 25 26  1  0
 27 25  2  0
M  END
$$$$
