EHV.pdb
     RDKit          3D

 27 27  0  0  1  0  0  0  0  0999 V2000
   13.3050  -12.1879  -15.4211 N   0  0  0  0  0  0  0  0  0  0  0  0
   14.6385  -12.4564  -14.8850 C   0  0  1  0  0  0  0  0  0  0  0  0
   14.9103  -13.9235  -14.9884 C   0  0  0  0  0  0  0  0  0  0  0  0
   16.2936  -14.3370  -14.5638 C   0  0  0  0  0  0  0  0  0  0  0  0
   16.4306  -15.8289  -14.5975 C   0  0  0  0  0  0  0  0  0  0  0  0
   17.5113  -16.4091  -14.8765 O   0  0  0  0  0  0  0  0  0  0  0  0
   15.6582  -11.6977  -15.6687 C   0  0  0  0  0  0  0  0  0  0  0  0
   15.9429  -11.9174  -16.8668 O   0  0  0  0  0  0  0  0  0  0  0  0
   15.3453  -16.6732  -14.3158 O   0  0  0  0  0  0  0  0  0  0  0  0
   16.4022  -10.6246  -15.0599 N   0  0  0  0  0  0  0  0  0  0  0  0
   17.3814   -9.8688  -15.8113 C   0  0  1  0  0  0  0  0  0  0  0  0
   16.7684   -8.6036  -16.3159 C   0  0  0  0  0  0  0  0  0  0  0  0
   17.7253   -7.7867  -17.1071 C   0  0  0  0  0  0  0  0  0  0  0  0
   18.3106   -8.0205  -18.3254 C   0  0  0  0  0  0  0  0  0  0  0  0
   19.1169   -6.9881  -18.6481 N   0  0  0  0  0  0  0  0  0  0  0  0
   19.0526   -6.1060  -17.6575 C   0  0  0  0  0  0  0  0  0  0  0  0
   18.2179   -6.5727  -16.7210 N   0  0  0  0  0  0  0  0  0  0  0  0
   18.5813   -9.7060  -15.0060 C   0  0  0  0  0  0  0  0  0  0  0  0
   18.4763   -9.5470  -13.7648 O   0  0  0  0  0  0  0  0  0  0  0  0
   23.3936  -10.3036  -14.2310 C   0  0  0  0  0  0  0  0  0  0  0  0
   22.2301  -10.3134  -15.1806 C   0  0  2  0  0  0  0  0  0  0  0  0
   22.6577   -9.8920  -16.5641 C   0  0  0  0  0  0  0  0  0  0  0  0
   21.0536   -9.5082  -14.6712 C   0  0  2  0  0  0  0  0  0  0  0  0
   19.9087   -9.7126  -15.5264 N   0  0  0  0  0  0  0  0  0  0  0  0
   21.4554   -8.0875  -14.6008 C   0  0  0  0  0  0  0  0  0  0  0  0
   22.0409   -7.5359  -13.4718 O   0  0  0  0  0  0  0  0  0  0  0  0
   21.2802   -7.2991  -15.5836 O   0  0  0  0  0  0  0  0  0  0  0  0
  2  1  1  6
  2  3  1  0
  4  5  1  0
  4  3  1  0
  5  6  2  0
  7  2  1  0
  7 10  1  0
  8  7  2  0
  9  5  1  0
 11 10  1  0
 12 13  1  0
 11 12  1  1
 13 17  1  0
 13 14  2  0
 14 15  1  0
 16 15  1  0
 17 16  2  0
 18 11  1  0
 19 18  2  0
 21 20  1  1
 21 23  1  0
 22 21  1  0
 23 24  1  6
 23 25  1  0
 24 18  1  0
 25 26  1  0
 27 25  2  0
M  END
$$$$
