EHV.pdb
     RDKit          3D

 27 27  0  0  1  0  0  0  0  0999 V2000
   16.9647  -12.8483  -15.4891 N   0  0  0  0  0  0  0  0  0  0  0  0
   17.2832  -11.6609  -16.2805 C   0  0  1  0  0  0  0  0  0  0  0  0
   16.1797  -10.6647  -16.1156 C   0  0  0  0  0  0  0  0  0  0  0  0
   14.8547  -11.0962  -16.6840 C   0  0  0  0  0  0  0  0  0  0  0  0
   13.8886  -11.4146  -15.5835 C   0  0  0  0  0  0  0  0  0  0  0  0
   13.3503  -10.5293  -14.8703 O   0  0  0  0  0  0  0  0  0  0  0  0
   18.5706  -11.0709  -15.8070 C   0  0  0  0  0  0  0  0  0  0  0  0
   18.8692  -10.8848  -14.6066 O   0  0  0  0  0  0  0  0  0  0  0  0
   13.5259  -12.7370  -15.2838 O   0  0  0  0  0  0  0  0  0  0  0  0
   19.5826  -10.6660  -16.7491 N   0  0  0  0  0  0  0  0  0  0  0  0
   20.9009  -10.2629  -16.3082 C   0  0  1  0  0  0  0  0  0  0  0  0
   21.9389  -10.8491  -17.2084 C   0  0  0  0  0  0  0  0  0  0  0  0
   23.3203  -10.5164  -16.7724 C   0  0  0  0  0  0  0  0  0  0  0  0
   23.7709   -9.7468  -15.7303 C   0  0  0  0  0  0  0  0  0  0  0  0
   25.1199   -9.7318  -15.7261 N   0  0  0  0  0  0  0  0  0  0  0  0
   25.5309  -10.4773  -16.7455 C   0  0  0  0  0  0  0  0  0  0  0  0
   24.4581  -10.9573  -17.3859 N   0  0  0  0  0  0  0  0  0  0  0  0
   20.9374   -8.8158  -16.1689 C   0  0  0  0  0  0  0  0  0  0  0  0
   20.2895   -8.1006  -16.9724 O   0  0  0  0  0  0  0  0  0  0  0  0
   21.0813   -6.7305  -12.7185 C   0  0  0  0  0  0  0  0  0  0  0  0
   22.0452   -6.1969  -13.7391 C   0  0  2  0  0  0  0  0  0  0  0  0
   22.1423   -4.6942  -13.6575 C   0  0  0  0  0  0  0  0  0  0  0  0
   21.7378   -6.6790  -15.1410 C   0  0  2  0  0  0  0  0  0  0  0  0
   21.6712   -8.1208  -15.1632 N   0  0  0  0  0  0  0  0  0  0  0  0
   22.7732   -6.1505  -16.0541 C   0  0  0  0  0  0  0  0  0  0  0  0
   22.5440   -5.0697  -16.8913 O   0  0  0  0  0  0  0  0  0  0  0  0
   23.9331   -6.6693  -16.1129 O   0  0  0  0  0  0  0  0  0  0  0  0
  2  1  1  1
  2  3  1  0
  4  5  1  0
  4  3  1  0
  5  6  2  0
  7  2  1  0
  7 10  1  0
  8  7  2  0
  9  5  1  0
 11 10  1  0
 12 13  1  0
 11 12  1  6
 13 17  1  0
 13 14  2  0
 14 15  1  0
 16 15  1  0
 17 16  2  0
 18 11  1  0
 19 18  2  0
 21 20  1  1
 21 23  1  0
 22 21  1  0
 23 24  1  1
 23 25  1  0
 24 18  1  0
 25 26  1  0
 27 25  2  0
M  END
$$$$
