WSE.pdb
     RDKit          3D

 30 31  0  0  1  0  0  0  0  0999 V2000
   23.6587  -12.0672  -18.6812 N   0  0  0  0  0  0  0  0  0  0  0  0
   23.9631  -11.4083  -17.4316 C   0  0  1  0  0  0  0  0  0  0  0  0
   25.3473  -10.8606  -17.3365 C   0  0  0  0  0  0  0  0  0  0  0  0
   26.3474  -11.9367  -17.4916 C   0  0  0  0  0  0  0  0  0  0  0  0
   27.3435  -12.0093  -18.4365 C   0  0  0  0  0  0  0  0  0  0  0  0
   27.9980  -13.1590  -18.2214 N   0  0  0  0  0  0  0  0  0  0  0  0
   27.4597  -13.8148  -17.1832 C   0  0  0  0  0  0  0  0  0  0  0  0
   27.7945  -15.0074  -16.5979 C   0  0  0  0  0  0  0  0  0  0  0  0
   27.0797  -15.4660  -15.5137 C   0  0  0  0  0  0  0  0  0  0  0  0
   26.0322  -14.7200  -15.0262 C   0  0  0  0  0  0  0  0  0  0  0  0
   25.6944  -13.5151  -15.6190 C   0  0  0  0  0  0  0  0  0  0  0  0
   26.4000  -13.0600  -16.6914 C   0  0  0  0  0  0  0  0  0  0  0  0
   22.9813  -10.3205  -17.2247 C   0  0  0  0  0  0  0  0  0  0  0  0
   22.4609   -9.7627  -18.2423 O   0  0  0  0  0  0  0  0  0  0  0  0
   21.1268   -9.5089  -13.5069 O   0  0  0  0  0  0  0  0  0  0  0  0
   20.5986   -9.3366  -14.7560 C   0  0  0  0  0  0  0  0  0  0  0  0
   21.6439   -8.8784  -15.7655 C   0  0  2  0  0  0  0  0  0  0  0  0
   22.6259   -9.9130  -15.9048 N   0  0  0  0  0  0  0  0  0  0  0  0
   22.2086   -7.5763  -15.3835 C   0  0  0  0  0  0  0  0  0  0  0  0
   23.2754   -7.5468  -14.7032 O   0  0  0  0  0  0  0  0  0  0  0  0
   21.6466   -6.3225  -15.7214 N   0  0  0  0  0  0  0  0  0  0  0  0
   22.2522   -5.0350  -15.3691 C   0  0  1  0  0  0  0  0  0  0  0  0
   21.6594   -4.0278  -16.3203 C   0  0  0  0  0  0  0  0  0  0  0  0
   22.1068   -2.6099  -16.0615 C   0  0  0  0  0  0  0  0  0  0  0  0
   21.3845   -1.6578  -16.9577 C   0  0  0  0  0  0  0  0  0  0  0  0
   20.5354   -2.0522  -17.7946 O   0  0  0  0  0  0  0  0  0  0  0  0
   22.0205   -4.7293  -13.9453 C   0  0  0  0  0  0  0  0  0  0  0  0
   22.8931   -4.0499  -13.3010 O   0  0  0  0  0  0  0  0  0  0  0  0
   21.6564   -0.3018  -16.8648 O   0  0  0  0  0  0  0  0  0  0  0  0
   20.9151   -5.1219  -13.2304 O   0  0  0  0  0  0  0  0  0  0  0  0
  2  1  1  6
  2 13  1  0
  3  2  1  0
  3  4  1  0
  4 12  1  0
  4  5  2  0
  5  6  1  0
  7  6  1  0
  7  8  2  0
  9  8  1  0
 10  9  2  0
 11 12  2  0
 11 10  1  0
 12  7  1  0
 13 14  2  0
 16 15  1  0
 17 16  1  1
 18 13  1  0
 18 17  1  0
 19 17  1  0
 19 20  2  0
 21 19  1  0
 22 21  1  0
 22 27  1  0
 22 23  1  6
 24 23  1  0
 24 25  1  0
 25 26  2  0
 25 29  1  0
 27 28  2  0
 27 30  1  0
M  END
$$$$
