WSE.pdb
     RDKit          3D

 30 31  0  0  1  0  0  0  0  0999 V2000
   19.1577  -23.8393  -14.4031 N   0  0  0  0  0  0  0  0  0  0  0  0
   19.9913  -24.1747  -13.2714 C   0  0  1  0  0  0  0  0  0  0  0  0
   20.7081  -23.0179  -12.6604 C   0  0  0  0  0  0  0  0  0  0  0  0
   21.7675  -22.5230  -13.5632 C   0  0  0  0  0  0  0  0  0  0  0  0
   21.7579  -21.3533  -14.2856 C   0  0  0  0  0  0  0  0  0  0  0  0
   22.9039  -21.3178  -14.9799 N   0  0  0  0  0  0  0  0  0  0  0  0
   23.6360  -22.4124  -14.7277 C   0  0  0  0  0  0  0  0  0  0  0  0
   24.8645  -22.8027  -15.1918 C   0  0  0  0  0  0  0  0  0  0  0  0
   25.4169  -23.9889  -14.7622 C   0  0  0  0  0  0  0  0  0  0  0  0
   24.7279  -24.7742  -13.8678 C   0  0  0  0  0  0  0  0  0  0  0  0
   23.4861  -24.3789  -13.3999 C   0  0  0  0  0  0  0  0  0  0  0  0
   22.9380  -23.2063  -13.8238 C   0  0  0  0  0  0  0  0  0  0  0  0
   19.1494  -24.8355  -12.2494 C   0  0  0  0  0  0  0  0  0  0  0  0
   18.0300  -24.3133  -11.9463 O   0  0  0  0  0  0  0  0  0  0  0  0
   20.5446  -28.1731  -10.1661 O   0  0  0  0  0  0  0  0  0  0  0  0
   19.1947  -27.9989  -10.2945 C   0  0  0  0  0  0  0  0  0  0  0  0
   18.8210  -26.5392  -10.5211 C   0  0  2  0  0  0  0  0  0  0  0  0
   19.5892  -26.0389  -11.6227 N   0  0  0  0  0  0  0  0  0  0  0  0
   18.9808  -25.7576   -9.2867 C   0  0  0  0  0  0  0  0  0  0  0  0
   20.0653  -25.1350   -9.0917 O   0  0  0  0  0  0  0  0  0  0  0  0
   18.0000  -25.6392   -8.2738 N   0  0  0  0  0  0  0  0  0  0  0  0
   18.2407  -25.0043   -6.9748 C   0  0  1  0  0  0  0  0  0  0  0  0
   17.0055  -24.1938   -6.6781 C   0  0  0  0  0  0  0  0  0  0  0  0
   16.6580  -23.1975   -7.7572 C   0  0  0  0  0  0  0  0  0  0  0  0
   15.4208  -22.4416   -7.3975 C   0  0  0  0  0  0  0  0  0  0  0  0
   14.7909  -22.6711   -6.3356 O   0  0  0  0  0  0  0  0  0  0  0  0
   18.5542  -26.0217   -5.9545 C   0  0  0  0  0  0  0  0  0  0  0  0
   18.3101  -27.2532   -6.2032 O   0  0  0  0  0  0  0  0  0  0  0  0
   14.9536  -21.4593   -8.2567 O   0  0  0  0  0  0  0  0  0  0  0  0
   19.1031  -25.7531   -4.7242 O   0  0  0  0  0  0  0  0  0  0  0  0
  2  1  1  6
  2 13  1  0
  3  2  1  0
  3  4  1  0
  4 12  1  0
  4  5  2  0
  5  6  1  0
  7  6  1  0
  7  8  2  0
  9  8  1  0
 10  9  2  0
 11 12  2  0
 11 10  1  0
 12  7  1  0
 13 14  2  0
 16 15  1  0
 17 16  1  1
 18 13  1  0
 18 17  1  0
 19 17  1  0
 19 20  2  0
 21 19  1  0
 22 21  1  0
 22 27  1  0
 22 23  1  1
 24 23  1  0
 24 25  1  0
 25 26  2  0
 25 29  1  0
 27 28  2  0
 27 30  1  0
M  END
$$$$
