WSE.pdb
     RDKit          3D

 30 31  0  0  1  0  0  0  0  0999 V2000
   29.2145  -29.9366  -16.6368 N   0  0  0  0  0  0  0  0  0  0  0  0
   29.3673  -28.6696  -17.3147 C   0  0  1  0  0  0  0  0  0  0  0  0
   29.4868  -28.7667  -18.7984 C   0  0  0  0  0  0  0  0  0  0  0  0
   30.8015  -29.3204  -19.1821 C   0  0  0  0  0  0  0  0  0  0  0  0
   31.2038  -30.6321  -19.0932 C   0  0  0  0  0  0  0  0  0  0  0  0
   32.4711  -30.6786  -19.5273 N   0  0  0  0  0  0  0  0  0  0  0  0
   32.8862  -29.4552  -19.8862 C   0  0  0  0  0  0  0  0  0  0  0  0
   34.0835  -29.0209  -20.3911 C   0  0  0  0  0  0  0  0  0  0  0  0
   34.2584  -27.6895  -20.6972 C   0  0  0  0  0  0  0  0  0  0  0  0
   33.2257  -26.8045  -20.4928 C   0  0  0  0  0  0  0  0  0  0  0  0
   32.0164  -27.2446  -19.9821 C   0  0  0  0  0  0  0  0  0  0  0  0
   31.8416  -28.5607  -19.6784 C   0  0  0  0  0  0  0  0  0  0  0  0
   28.2164  -27.8086  -16.9627 C   0  0  0  0  0  0  0  0  0  0  0  0
   27.1187  -28.3583  -16.6302 O   0  0  0  0  0  0  0  0  0  0  0  0
   28.1271  -23.6626  -17.7887 O   0  0  0  0  0  0  0  0  0  0  0  0
   27.5764  -24.1427  -16.6332 C   0  0  0  0  0  0  0  0  0  0  0  0
   27.1674  -25.6055  -16.7541 C   0  0  2  0  0  0  0  0  0  0  0  0
   28.3439  -26.3884  -16.9931 N   0  0  0  0  0  0  0  0  0  0  0  0
   26.1261  -25.7777  -17.7769 C   0  0  0  0  0  0  0  0  0  0  0  0
   26.4618  -25.7915  -18.9970 O   0  0  0  0  0  0  0  0  0  0  0  0
   24.7462  -25.9339  -17.5054 N   0  0  0  0  0  0  0  0  0  0  0  0
   23.7312  -26.1577  -18.5389 C   0  0  1  0  0  0  0  0  0  0  0  0
   22.7628  -27.1539  -17.9552 C   0  0  0  0  0  0  0  0  0  0  0  0
   21.8309  -26.5645  -16.9249 C   0  0  0  0  0  0  0  0  0  0  0  0
   20.8575  -27.5916  -16.4463 C   0  0  0  0  0  0  0  0  0  0  0  0
   21.1468  -28.4010  -15.5309 O   0  0  0  0  0  0  0  0  0  0  0  0
   23.1140  -24.8800  -18.9397 C   0  0  0  0  0  0  0  0  0  0  0  0
   23.2999  -23.8409  -18.2159 O   0  0  0  0  0  0  0  0  0  0  0  0
   19.6000  -27.6547  -17.0261 O   0  0  0  0  0  0  0  0  0  0  0  0
   22.3345  -24.7038  -20.0571 O   0  0  0  0  0  0  0  0  0  0  0  0
  2  1  1  1
  2 13  1  0
  3  2  1  0
  3  4  1  0
  4 12  1  0
  4  5  2  0
  5  6  1  0
  7  6  1  0
  7  8  2  0
  9  8  1  0
 10  9  2  0
 11 12  2  0
 11 10  1  0
 12  7  1  0
 13 14  2  0
 16 15  1  0
 17 16  1  6
 18 13  1  0
 18 17  1  0
 19 17  1  0
 19 20  2  0
 21 19  1  0
 22 21  1  0
 22 27  1  0
 22 23  1  1
 24 23  1  0
 24 25  1  0
 25 26  2  0
 25 29  1  0
 27 28  2  0
 27 30  1  0
M  END
$$$$
