WSE.pdb
     RDKit          3D

 30 31  0  0  1  0  0  0  0  0999 V2000
   26.7696  -22.2311  -13.2976 N   0  0  0  0  0  0  0  0  0  0  0  0
   26.1842  -21.6910  -12.0919 C   0  0  1  0  0  0  0  0  0  0  0  0
   26.7601  -20.3883  -11.6486 C   0  0  0  0  0  0  0  0  0  0  0  0
   27.9159  -20.6047  -10.7544 C   0  0  0  0  0  0  0  0  0  0  0  0
   29.1965  -20.9402  -11.1255 C   0  0  0  0  0  0  0  0  0  0  0  0
   29.9091  -21.0556   -9.9962 N   0  0  0  0  0  0  0  0  0  0  0  0
   29.1356  -20.8077   -8.9294 C   0  0  0  0  0  0  0  0  0  0  0  0
   29.4229  -20.7963   -7.5899 C   0  0  0  0  0  0  0  0  0  0  0  0
   28.4369  -20.4926   -6.6775 C   0  0  0  0  0  0  0  0  0  0  0  0
   27.1678  -20.2022   -7.1209 C   0  0  0  0  0  0  0  0  0  0  0  0
   26.8786  -20.2145   -8.4749 C   0  0  0  0  0  0  0  0  0  0  0  0
   27.8522  -20.5150   -9.3786 C   0  0  0  0  0  0  0  0  0  0  0  0
   24.7268  -21.5453  -12.3038 C   0  0  0  0  0  0  0  0  0  0  0  0
   24.2745  -21.5715  -13.4922 O   0  0  0  0  0  0  0  0  0  0  0  0
   21.7168  -20.0090   -9.6041 O   0  0  0  0  0  0  0  0  0  0  0  0
   21.7082  -21.2782  -10.1121 C   0  0  0  0  0  0  0  0  0  0  0  0
   22.4399  -21.3703  -11.4455 C   0  0  2  0  0  0  0  0  0  0  0  0
   23.8501  -21.3834  -11.1904 N   0  0  0  0  0  0  0  0  0  0  0  0
   22.0144  -20.2962  -12.3541 C   0  0  0  0  0  0  0  0  0  0  0  0
   22.6355  -19.1936  -12.3328 O   0  0  0  0  0  0  0  0  0  0  0  0
   20.9433  -20.3938  -13.2735 N   0  0  0  0  0  0  0  0  0  0  0  0
   20.5885  -19.3398  -14.2283 C   0  0  1  0  0  0  0  0  0  0  0  0
   21.7353  -19.2650  -15.2030 C   0  0  0  0  0  0  0  0  0  0  0  0
   21.9062  -20.5105  -16.0380 C   0  0  0  0  0  0  0  0  0  0  0  0
   22.3556  -20.1612  -17.4191 C   0  0  0  0  0  0  0  0  0  0  0  0
   22.2602  -18.9930  -17.8699 O   0  0  0  0  0  0  0  0  0  0  0  0
   19.2841  -19.6281  -14.8524 C   0  0  0  0  0  0  0  0  0  0  0  0
   18.7320  -20.7652  -14.6517 O   0  0  0  0  0  0  0  0  0  0  0  0
   22.8935  -21.1510  -18.2267 O   0  0  0  0  0  0  0  0  0  0  0  0
   18.5896  -18.7545  -15.6535 O   0  0  0  0  0  0  0  0  0  0  0  0
  2  1  1  6
  2 13  1  0
  3  2  1  0
  3  4  1  0
  4 12  1  0
  4  5  2  0
  5  6  1  0
  7  6  1  0
  7  8  2  0
  9  8  1  0
 10  9  2  0
 11 12  2  0
 11 10  1  0
 12  7  1  0
 13 14  2  0
 16 15  1  0
 17 16  1  1
 18 13  1  0
 18 17  1  0
 19 17  1  0
 19 20  2  0
 21 19  1  0
 22 21  1  0
 22 27  1  0
 22 23  1  6
 24 23  1  0
 24 25  1  0
 25 26  2  0
 25 29  1  0
 27 28  2  0
 27 30  1  0
M  END
$$$$
