WSE.pdb
     RDKit          3D

 30 31  0  0  1  0  0  0  0  0999 V2000
   26.4659  -22.5625  -12.7578 N   0  0  0  0  0  0  0  0  0  0  0  0
   25.7558  -21.7166  -11.8259 C   0  0  1  0  0  0  0  0  0  0  0  0
   26.4161  -20.4093  -11.5425 C   0  0  0  0  0  0  0  0  0  0  0  0
   27.6268  -20.6026  -10.7184 C   0  0  0  0  0  0  0  0  0  0  0  0
   28.9000  -20.8612  -11.1681 C   0  0  0  0  0  0  0  0  0  0  0  0
   29.6764  -20.9843  -10.0825 N   0  0  0  0  0  0  0  0  0  0  0  0
   28.9502  -20.8146   -8.9682 C   0  0  0  0  0  0  0  0  0  0  0  0
   29.3077  -20.8396   -7.6459 C   0  0  0  0  0  0  0  0  0  0  0  0
   28.3586  -20.6188   -6.6726 C   0  0  0  0  0  0  0  0  0  0  0  0
   27.0555  -20.3740   -7.0380 C   0  0  0  0  0  0  0  0  0  0  0  0
   26.6954  -20.3495   -8.3747 C   0  0  0  0  0  0  0  0  0  0  0  0
   27.6324  -20.5680   -9.3387 C   0  0  0  0  0  0  0  0  0  0  0  0
   24.3923  -21.4827  -12.3513 C   0  0  0  0  0  0  0  0  0  0  0  0
   24.1802  -21.6364  -13.5959 O   0  0  0  0  0  0  0  0  0  0  0  0
   21.1983  -19.5874  -10.3034 O   0  0  0  0  0  0  0  0  0  0  0  0
   21.0382  -20.8364  -10.8360 C   0  0  0  0  0  0  0  0  0  0  0  0
   22.0010  -21.0998  -11.9872 C   0  0  2  0  0  0  0  0  0  0  0  0
   23.3382  -21.0966  -11.4715 N   0  0  0  0  0  0  0  0  0  0  0  0
   21.7880  -20.1412  -13.0808 C   0  0  0  0  0  0  0  0  0  0  0  0
   22.4099  -19.0392  -13.0596 O   0  0  0  0  0  0  0  0  0  0  0  0
   20.9256  -20.3523  -14.1825 N   0  0  0  0  0  0  0  0  0  0  0  0
   20.6864  -19.3593  -15.2339 C   0  0  1  0  0  0  0  0  0  0  0  0
   20.5494  -20.1415  -16.5146 C   0  0  0  0  0  0  0  0  0  0  0  0
   20.4271  -19.2767  -17.7454 C   0  0  0  0  0  0  0  0  0  0  0  0
   20.2735  -20.1202  -18.9686 C   0  0  0  0  0  0  0  0  0  0  0  0
   20.2215  -21.3733  -18.9055 O   0  0  0  0  0  0  0  0  0  0  0  0
   19.5112  -18.5324  -14.9033 C   0  0  0  0  0  0  0  0  0  0  0  0
   19.3588  -17.4015  -15.4829 O   0  0  0  0  0  0  0  0  0  0  0  0
   20.1850  -19.5058  -20.2080 O   0  0  0  0  0  0  0  0  0  0  0  0
   18.5364  -18.8827  -14.0009 O   0  0  0  0  0  0  0  0  0  0  0  0
  2  1  1  6
  2 13  1  0
  3  2  1  0
  3  4  1  0
  4 12  1  0
  4  5  2  0
  5  6  1  0
  7  6  1  0
  7  8  2  0
  9  8  1  0
 10  9  2  0
 11 12  2  0
 11 10  1  0
 12  7  1  0
 13 14  2  0
 16 15  1  0
 17 16  1  1
 18 13  1  0
 18 17  1  0
 19 17  1  0
 19 20  2  0
 21 19  1  0
 22 21  1  0
 22 27  1  0
 22 23  1  6
 24 23  1  0
 24 25  1  0
 25 26  2  0
 25 29  1  0
 27 28  2  0
 27 30  1  0
M  END
$$$$
