WSE.pdb
     RDKit          3D

 30 31  0  0  1  0  0  0  0  0999 V2000
   27.4194  -21.5109  -15.6640 N   0  0  0  0  0  0  0  0  0  0  0  0
   26.5815  -21.5337  -14.4869 C   0  0  1  0  0  0  0  0  0  0  0  0
   26.6918  -20.3252  -13.6196 C   0  0  0  0  0  0  0  0  0  0  0  0
   28.0758  -20.1562  -13.1314 C   0  0  0  0  0  0  0  0  0  0  0  0
   29.0754  -19.4180  -13.7197 C   0  0  0  0  0  0  0  0  0  0  0  0
   30.1655  -19.5625  -12.9534 N   0  0  0  0  0  0  0  0  0  0  0  0
   29.8984  -20.3584  -11.9080 C   0  0  0  0  0  0  0  0  0  0  0  0
   30.6865  -20.7772  -10.8685 C   0  0  0  0  0  0  0  0  0  0  0  0
   30.1619  -21.5983   -9.8951 C   0  0  0  0  0  0  0  0  0  0  0  0
   28.8466  -21.9920   -9.9754 C   0  0  0  0  0  0  0  0  0  0  0  0
   28.0513  -21.5685  -11.0268 C   0  0  0  0  0  0  0  0  0  0  0  0
   28.5683  -20.7567  -11.9905 C   0  0  0  0  0  0  0  0  0  0  0  0
   25.1766  -21.7129  -14.9158 C   0  0  0  0  0  0  0  0  0  0  0  0
   24.7084  -20.9474  -15.8172 O   0  0  0  0  0  0  0  0  0  0  0  0
   22.5137  -24.6100  -13.2293 O   0  0  0  0  0  0  0  0  0  0  0  0
   22.6261  -24.3639  -14.5694 C   0  0  0  0  0  0  0  0  0  0  0  0
   23.0520  -22.9297  -14.8582 C   0  0  2  0  0  0  0  0  0  0  0  0
   24.3686  -22.7308  -14.3281 N   0  0  0  0  0  0  0  0  0  0  0  0
   22.0596  -21.9734  -14.3476 C   0  0  0  0  0  0  0  0  0  0  0  0
   22.2838  -21.3850  -13.2498 O   0  0  0  0  0  0  0  0  0  0  0  0
   20.8454  -21.6467  -14.9965 N   0  0  0  0  0  0  0  0  0  0  0  0
   19.7894  -20.8310  -14.3898 C   0  0  1  0  0  0  0  0  0  0  0  0
   18.7699  -20.6042  -15.4760 C   0  0  0  0  0  0  0  0  0  0  0  0
   17.6321  -19.7025  -15.0637 C   0  0  0  0  0  0  0  0  0  0  0  0
   16.4633  -20.5083  -14.5988 C   0  0  0  0  0  0  0  0  0  0  0  0
   16.4175  -21.7542  -14.7490 O   0  0  0  0  0  0  0  0  0  0  0  0
   19.2525  -21.4949  -13.1876 C   0  0  0  0  0  0  0  0  0  0  0  0
   18.8373  -20.7799  -12.2106 O   0  0  0  0  0  0  0  0  0  0  0  0
   15.3997  -19.8662  -13.9843 O   0  0  0  0  0  0  0  0  0  0  0  0
   19.1558  -22.8552  -13.0220 O   0  0  0  0  0  0  0  0  0  0  0  0
  2  1  1  6
  2 13  1  0
  3  2  1  0
  3  4  1  0
  4 12  1  0
  4  5  2  0
  5  6  1  0
  7  6  1  0
  7  8  2  0
  9  8  1  0
 10  9  2  0
 11 12  2  0
 11 10  1  0
 12  7  1  0
 13 14  2  0
 16 15  1  0
 17 16  1  1
 18 13  1  0
 18 17  1  0
 19 17  1  0
 19 20  2  0
 21 19  1  0
 22 21  1  0
 22 27  1  0
 22 23  1  6
 24 23  1  0
 24 25  1  0
 25 26  2  0
 25 29  1  0
 27 28  2  0
 27 30  1  0
M  END
$$$$
