WSE.pdb
     RDKit          3D

 30 31  0  0  1  0  0  0  0  0999 V2000
   23.6315  -22.0960  -15.9861 N   0  0  0  0  0  0  0  0  0  0  0  0
   22.6623  -21.0639  -15.6967 C   0  0  1  0  0  0  0  0  0  0  0  0
   21.5903  -20.9099  -16.7225 C   0  0  0  0  0  0  0  0  0  0  0  0
   22.1113  -20.2284  -17.9252 C   0  0  0  0  0  0  0  0  0  0  0  0
   22.6905  -20.8182  -19.0238 C   0  0  0  0  0  0  0  0  0  0  0  0
   23.0329  -19.8278  -19.8594 N   0  0  0  0  0  0  0  0  0  0  0  0
   22.6956  -18.6397  -19.3375 C   0  0  0  0  0  0  0  0  0  0  0  0
   22.8365  -17.3673  -19.8253 C   0  0  0  0  0  0  0  0  0  0  0  0
   22.3884  -16.2942  -19.0874 C   0  0  0  0  0  0  0  0  0  0  0  0
   21.8010  -16.5103  -17.8627 C   0  0  0  0  0  0  0  0  0  0  0  0
   21.6596  -17.7967  -17.3705 C   0  0  0  0  0  0  0  0  0  0  0  0
   22.1024  -18.8591  -18.0987 C   0  0  0  0  0  0  0  0  0  0  0  0
   22.0535  -21.3499  -14.3786 C   0  0  0  0  0  0  0  0  0  0  0  0
   22.0628  -22.5457  -13.9455 O   0  0  0  0  0  0  0  0  0  0  0  0
   20.1381  -19.6019  -10.3167 O   0  0  0  0  0  0  0  0  0  0  0  0
   20.6612  -19.3583  -11.5561 C   0  0  0  0  0  0  0  0  0  0  0  0
   20.8731  -20.6389  -12.3541 C   0  0  2  0  0  0  0  0  0  0  0  0
   21.4724  -20.2979  -13.6105 N   0  0  0  0  0  0  0  0  0  0  0  0
   19.6173  -21.3914  -12.4842 C   0  0  0  0  0  0  0  0  0  0  0  0
   18.8127  -21.0852  -13.4118 O   0  0  0  0  0  0  0  0  0  0  0  0
   19.2231  -22.4559  -11.6393 N   0  0  0  0  0  0  0  0  0  0  0  0
   18.0298  -23.2770  -11.8636 C   0  0  1  0  0  0  0  0  0  0  0  0
   18.1601  -24.4545  -10.9324 C   0  0  0  0  0  0  0  0  0  0  0  0
   17.9393  -24.1089   -9.4800 C   0  0  0  0  0  0  0  0  0  0  0  0
   17.9372  -25.3436   -8.6392 C   0  0  0  0  0  0  0  0  0  0  0  0
   16.8857  -25.9958   -8.4248 O   0  0  0  0  0  0  0  0  0  0  0  0
   16.8083  -22.4772  -11.6576 C   0  0  0  0  0  0  0  0  0  0  0  0
   15.6872  -22.9266  -12.0811 O   0  0  0  0  0  0  0  0  0  0  0  0
   19.1265  -25.7840   -8.0800 O   0  0  0  0  0  0  0  0  0  0  0  0
   16.7691  -21.2556  -11.0304 O   0  0  0  0  0  0  0  0  0  0  0  0
  2  1  1  6
  2 13  1  0
  3  2  1  0
  3  4  1  0
  4 12  1  0
  4  5  2  0
  5  6  1  0
  7  6  1  0
  7  8  2  0
  9  8  1  0
 10  9  2  0
 11 12  2  0
 11 10  1  0
 12  7  1  0
 13 14  2  0
 16 15  1  0
 17 16  1  6
 18 13  1  0
 18 17  1  0
 19 17  1  0
 19 20  2  0
 21 19  1  0
 22 21  1  0
 22 27  1  0
 22 23  1  1
 24 23  1  0
 24 25  1  0
 25 26  2  0
 25 29  1  0
 27 28  2  0
 27 30  1  0
M  END
$$$$
