WSE.pdb
     RDKit          3D

 30 31  0  0  1  0  0  0  0  0999 V2000
   24.5492  -19.4402  -10.6856 N   0  0  0  0  0  0  0  0  0  0  0  0
   25.8984  -19.8841  -10.9514 C   0  0  1  0  0  0  0  0  0  0  0  0
   26.3038  -21.1195  -10.2203 C   0  0  0  0  0  0  0  0  0  0  0  0
   26.3051  -20.8873   -8.7614 C   0  0  0  0  0  0  0  0  0  0  0  0
   25.2611  -21.0933   -7.8908 C   0  0  0  0  0  0  0  0  0  0  0  0
   25.6946  -20.7335   -6.6746 N   0  0  0  0  0  0  0  0  0  0  0  0
   26.9651  -20.3101   -6.7388 C   0  0  0  0  0  0  0  0  0  0  0  0
   27.8165  -19.8603   -5.7642 C   0  0  0  0  0  0  0  0  0  0  0  0
   29.1019  -19.4896   -6.0914 C   0  0  0  0  0  0  0  0  0  0  0  0
   29.5212  -19.5744   -7.3985 C   0  0  0  0  0  0  0  0  0  0  0  0
   28.6596  -20.0286   -8.3827 C   0  0  0  0  0  0  0  0  0  0  0  0
   27.3880  -20.3954   -8.0611 C   0  0  0  0  0  0  0  0  0  0  0  0
   26.0425  -20.0975  -12.4087 C   0  0  0  0  0  0  0  0  0  0  0  0
   25.0149  -20.4193  -13.0856 O   0  0  0  0  0  0  0  0  0  0  0  0
   29.7202  -20.1972  -14.5130 O   0  0  0  0  0  0  0  0  0  0  0  0
   28.7204  -19.3435  -14.8883 C   0  0  0  0  0  0  0  0  0  0  0  0
   27.3450  -19.8462  -14.4672 C   0  0  2  0  0  0  0  0  0  0  0  0
   27.3128  -19.9389  -13.0374 N   0  0  0  0  0  0  0  0  0  0  0  0
   27.0144  -21.1062  -15.1480 C   0  0  0  0  0  0  0  0  0  0  0  0
   27.0937  -22.1912  -14.5013 O   0  0  0  0  0  0  0  0  0  0  0  0
   26.6042  -21.2105  -16.4981 N   0  0  0  0  0  0  0  0  0  0  0  0
   26.2511  -22.4757  -17.1485 C   0  0  1  0  0  0  0  0  0  0  0  0
   25.0921  -23.0325  -16.3627 C   0  0  0  0  0  0  0  0  0  0  0  0
   23.8261  -22.2206  -16.4882 C   0  0  0  0  0  0  0  0  0  0  0  0
   22.7003  -22.8854  -15.7657 C   0  0  0  0  0  0  0  0  0  0  0  0
   22.7968  -24.0581  -15.3272 O   0  0  0  0  0  0  0  0  0  0  0  0
   25.9615  -22.2569  -18.5776 C   0  0  0  0  0  0  0  0  0  0  0  0
   25.7155  -23.2643  -19.3277 O   0  0  0  0  0  0  0  0  0  0  0  0
   21.5163  -22.1911  -15.5721 O   0  0  0  0  0  0  0  0  0  0  0  0
   25.9309  -21.0279  -19.1908 O   0  0  0  0  0  0  0  0  0  0  0  0
  2  1  1  6
  2 13  1  0
  3  2  1  0
  3  4  1  0
  4 12  1  0
  4  5  2  0
  5  6  1  0
  7  6  1  0
  7  8  2  0
  9  8  1  0
 10  9  2  0
 11 12  2  0
 11 10  1  0
 12  7  1  0
 13 14  2  0
 16 15  1  0
 17 16  1  1
 18 13  1  0
 18 17  1  0
 19 17  1  0
 19 20  2  0
 21 19  1  0
 22 21  1  0
 22 27  1  0
 22 23  1  1
 24 23  1  0
 24 25  1  0
 25 26  2  0
 25 29  1  0
 27 28  2  0
 27 30  1  0
M  END
$$$$
