WSE.pdb
     RDKit          3D

 30 31  0  0  1  0  0  0  0  0999 V2000
   28.3722  -20.6881   -9.6976 N   0  0  0  0  0  0  0  0  0  0  0  0
   26.9771  -21.0569   -9.6216 C   0  0  1  0  0  0  0  0  0  0  0  0
   26.1793  -20.2778   -8.6308 C   0  0  0  0  0  0  0  0  0  0  0  0
   27.0657  -19.5977   -7.6644 C   0  0  0  0  0  0  0  0  0  0  0  0
   27.6839  -18.3802   -7.8248 C   0  0  0  0  0  0  0  0  0  0  0  0
   28.4048  -18.1630   -6.7159 N   0  0  0  0  0  0  0  0  0  0  0  0
   28.2689  -19.1887   -5.8631 C   0  0  0  0  0  0  0  0  0  0  0  0
   28.7996  -19.4034   -4.6184 C   0  0  0  0  0  0  0  0  0  0  0  0
   28.4898  -20.5540   -3.9278 C   0  0  0  0  0  0  0  0  0  0  0  0
   27.6473  -21.4808   -4.4958 C   0  0  0  0  0  0  0  0  0  0  0  0
   27.1120  -21.2629   -5.7540 C   0  0  0  0  0  0  0  0  0  0  0  0
   27.4174  -20.1258   -6.4387 C   0  0  0  0  0  0  0  0  0  0  0  0
   26.3802  -20.9104  -10.9678 C   0  0  0  0  0  0  0  0  0  0  0  0
   26.8259  -20.0039  -11.7406 O   0  0  0  0  0  0  0  0  0  0  0  0
   24.0810  -23.8459  -12.8385 O   0  0  0  0  0  0  0  0  0  0  0  0
   24.7717  -22.8450  -13.4631 C   0  0  0  0  0  0  0  0  0  0  0  0
   24.7399  -21.5426  -12.6728 C   0  0  2  0  0  0  0  0  0  0  0  0
   25.3273  -21.7766  -11.3867 N   0  0  0  0  0  0  0  0  0  0  0  0
   23.3755  -20.9998  -12.6085 C   0  0  0  0  0  0  0  0  0  0  0  0
   22.7387  -21.0705  -11.5171 O   0  0  0  0  0  0  0  0  0  0  0  0
   22.6981  -20.3891  -13.6903 N   0  0  0  0  0  0  0  0  0  0  0  0
   21.2911  -19.9806  -13.6462 C   0  0  1  0  0  0  0  0  0  0  0  0
   21.0951  -19.0542  -14.8184 C   0  0  0  0  0  0  0  0  0  0  0  0
   21.9790  -17.8315  -14.7820 C   0  0  0  0  0  0  0  0  0  0  0  0
   21.2097  -16.6135  -15.1770 C   0  0  0  0  0  0  0  0  0  0  0  0
   20.3569  -16.6399  -16.0984 O   0  0  0  0  0  0  0  0  0  0  0  0
   20.4108  -21.1634  -13.6582 C   0  0  0  0  0  0  0  0  0  0  0  0
   20.8180  -22.2409  -14.2160 O   0  0  0  0  0  0  0  0  0  0  0  0
   21.4408  -15.4207  -14.5097 O   0  0  0  0  0  0  0  0  0  0  0  0
   19.1544  -21.2097  -13.1044 O   0  0  0  0  0  0  0  0  0  0  0  0
  2  1  1  6
  2 13  1  0
  3  2  1  0
  3  4  1  0
  4 12  1  0
  4  5  2  0
  5  6  1  0
  7  6  1  0
  7  8  2  0
  9  8  1  0
 10  9  2  0
 11 12  2  0
 11 10  1  0
 12  7  1  0
 13 14  2  0
 16 15  1  0
 17 16  1  6
 18 13  1  0
 18 17  1  0
 19 17  1  0
 19 20  2  0
 21 19  1  0
 22 21  1  0
 22 27  1  0
 22 23  1  6
 24 23  1  0
 24 25  1  0
 25 26  2  0
 25 29  1  0
 27 28  2  0
 27 30  1  0
M  END
$$$$
