WSE.pdb
     RDKit          3D

 30 31  0  0  1  0  0  0  0  0999 V2000
   24.1918  -20.4386  -14.5324 N   0  0  0  0  0  0  0  0  0  0  0  0
   22.7516  -20.3279  -14.4907 C   0  0  1  0  0  0  0  0  0  0  0  0
   22.0311  -21.1925  -15.4697 C   0  0  0  0  0  0  0  0  0  0  0  0
   22.3145  -20.7631  -16.8544 C   0  0  0  0  0  0  0  0  0  0  0  0
   23.2131  -21.3288  -17.7277 C   0  0  0  0  0  0  0  0  0  0  0  0
   23.1590  -20.6106  -18.8581 N   0  0  0  0  0  0  0  0  0  0  0  0
   22.2664  -19.6174  -18.7372 C   0  0  0  0  0  0  0  0  0  0  0  0
   21.8686  -18.6495  -19.6214 C   0  0  0  0  0  0  0  0  0  0  0  0
   20.9066  -17.7352  -19.2534 C   0  0  0  0  0  0  0  0  0  0  0  0
   20.3515  -17.8023  -17.9968 C   0  0  0  0  0  0  0  0  0  0  0  0
   20.7547  -18.7808  -17.1040 C   0  0  0  0  0  0  0  0  0  0  0  0
   21.7062  -19.6856  -17.4660 C   0  0  0  0  0  0  0  0  0  0  0  0
   22.2975  -20.6438  -13.1181 C   0  0  0  0  0  0  0  0  0  0  0  0
   23.0408  -21.3614  -12.3764 O   0  0  0  0  0  0  0  0  0  0  0  0
   18.7370  -19.0444  -11.4601 O   0  0  0  0  0  0  0  0  0  0  0  0
   19.8825  -19.2507  -10.7429 C   0  0  0  0  0  0  0  0  0  0  0  0
   20.6951  -20.4227  -11.2794 C   0  0  2  0  0  0  0  0  0  0  0  0
   21.0495  -20.1454  -12.6401 N   0  0  0  0  0  0  0  0  0  0  0  0
   19.9699  -21.6891  -11.1048 C   0  0  0  0  0  0  0  0  0  0  0  0
   19.5110  -22.2784  -12.1264 O   0  0  0  0  0  0  0  0  0  0  0  0
   19.7368  -22.3206   -9.8602 N   0  0  0  0  0  0  0  0  0  0  0  0
   18.9445  -23.5435   -9.7011 C   0  0  1  0  0  0  0  0  0  0  0  0
   18.9648  -23.8577   -8.2275 C   0  0  0  0  0  0  0  0  0  0  0  0
   18.2600  -25.1434   -7.8698 C   0  0  0  0  0  0  0  0  0  0  0  0
   18.3023  -25.3746   -6.3947 C   0  0  0  0  0  0  0  0  0  0  0  0
   18.8037  -24.5341   -5.6078 O   0  0  0  0  0  0  0  0  0  0  0  0
   17.5926  -23.3575  -10.2597 C   0  0  0  0  0  0  0  0  0  0  0  0
   16.9902  -22.2423  -10.0823 O   0  0  0  0  0  0  0  0  0  0  0  0
   17.7742  -26.5472   -5.8776 O   0  0  0  0  0  0  0  0  0  0  0  0
   16.9045  -24.3062  -10.9765 O   0  0  0  0  0  0  0  0  0  0  0  0
  2  1  1  1
  2 13  1  0
  3  2  1  0
  3  4  1  0
  4 12  1  0
  4  5  2  0
  5  6  1  0
  7  6  1  0
  7  8  2  0
  9  8  1  0
 10  9  2  0
 11 12  2  0
 11 10  1  0
 12  7  1  0
 13 14  2  0
 16 15  1  0
 17 16  1  6
 18 13  1  0
 18 17  1  0
 19 17  1  0
 19 20  2  0
 21 19  1  0
 22 21  1  0
 22 27  1  0
 22 23  1  1
 24 23  1  0
 24 25  1  0
 25 26  2  0
 25 29  1  0
 27 28  2  0
 27 30  1  0
M  END
$$$$
