NGK.pdb
     RDKit          3D

 22 21  0  0  1  0  0  0  0  0999 V2000
    2.9070  -19.9739   19.6494 N   0  0  0  0  0  0  0  0  0  0  0  0
    4.0068  -19.8778   20.5594 C   0  0  0  0  0  0  0  0  0  0  0  0
    4.1223  -20.6881   21.4902 O   0  0  0  0  0  0  0  0  0  0  0  0
    4.9768  -18.7884   20.3393 C   0  0  0  0  0  0  0  0  0  0  0  0
    5.6327  -18.3448   21.6216 C   0  0  2  0  0  0  0  0  0  0  0  0
    4.6498  -18.0387   22.6246 N   0  0  0  0  0  0  0  0  0  0  0  0
    6.5257  -17.2198   21.2962 C   0  0  0  0  0  0  0  0  0  0  0  0
    7.5298  -17.4448   20.5643 O   0  0  0  0  0  0  0  0  0  0  0  0
    6.3622  -15.8843   21.7349 N   0  0  0  0  0  0  0  0  0  0  0  0
    7.3085  -14.8391   21.3932 C   0  0  0  0  0  0  0  0  0  0  0  0
    8.5402  -14.9432   22.2240 C   0  0  0  0  0  0  0  0  0  0  0  0
    9.6700  -14.9744   21.6709 O   0  0  0  0  0  0  0  0  0  0  0  0
    8.4345  -15.0066   23.6307 N   0  0  0  0  0  0  0  0  0  0  0  0
    9.5569  -15.0864   24.5420 C   0  0  1  0  0  0  0  0  0  0  0  0
    9.1069  -14.7571   25.9118 C   0  0  0  0  0  0  0  0  0  0  0  0
   10.1491  -14.7122   26.9711 C   0  0  0  0  0  0  0  0  0  0  0  0
    9.6957  -14.3201   28.3324 C   0  0  0  0  0  0  0  0  0  0  0  0
   10.7556  -14.2486   29.3807 C   0  0  0  0  0  0  0  0  0  0  0  0
   10.2793  -13.9267   30.6839 N   0  0  0  0  0  0  0  0  0  0  0  0
   10.3111  -16.3618   24.4077 C   0  0  0  0  0  0  0  0  0  0  0  0
   11.6648  -16.4821   24.5572 O   0  0  0  0  0  0  0  0  0  0  0  0
    9.6684  -17.4064   24.1375 O   0  0  0  0  0  0  0  0  0  0  0  0
  1  2  1  0
  2  3  2  0
  4  2  1  0
  5  4  1  0
  5  6  1  1
  7  5  1  0
  7  8  2  0
  9  7  1  0
 10  9  1  0
 10 11  1  0
 11 13  1  0
 12 11  2  0
 13 14  1  0
 14 15  1  1
 15 16  1  0
 16 17  1  0
 17 18  1  0
 18 19  1  0
 20 14  1  0
 20 21  1  0
 22 20  2  0
M  END
$$$$
