NGK.pdb
     RDKit          3D

 22 21  0  0  1  0  0  0  0  0999 V2000
    7.2483  -11.8856   18.8328 N   0  0  0  0  0  0  0  0  0  0  0  0
    7.6836  -13.2482   18.8561 C   0  0  0  0  0  0  0  0  0  0  0  0
    7.3212  -14.0368   17.9710 O   0  0  0  0  0  0  0  0  0  0  0  0
    8.5671  -13.6599   19.9633 C   0  0  0  0  0  0  0  0  0  0  0  0
    8.9957  -15.0997   19.8422 C   0  0  2  0  0  0  0  0  0  0  0  0
    7.8629  -15.9820   19.9047 N   0  0  0  0  0  0  0  0  0  0  0  0
   10.0069  -15.3498   20.8832 C   0  0  0  0  0  0  0  0  0  0  0  0
   10.9406  -14.5116   21.0247 O   0  0  0  0  0  0  0  0  0  0  0  0
   10.0321  -16.4627   21.7571 N   0  0  0  0  0  0  0  0  0  0  0  0
   10.9906  -16.5707   22.8408 C   0  0  0  0  0  0  0  0  0  0  0  0
   10.7724  -17.8195   23.6225 C   0  0  0  0  0  0  0  0  0  0  0  0
    9.7356  -18.5066   23.4319 O   0  0  0  0  0  0  0  0  0  0  0  0
   11.7313  -18.2276   24.5752 N   0  0  0  0  0  0  0  0  0  0  0  0
   11.6040  -19.3872   25.4330 C   0  0  1  0  0  0  0  0  0  0  0  0
   12.8482  -19.5658   26.2123 C   0  0  0  0  0  0  0  0  0  0  0  0
   12.9529  -20.7945   27.0427 C   0  0  0  0  0  0  0  0  0  0  0  0
   14.2257  -20.9853   27.7885 C   0  0  0  0  0  0  0  0  0  0  0  0
   14.3956  -22.3032   28.4678 C   0  0  0  0  0  0  0  0  0  0  0  0
   15.6422  -22.4687   29.1368 N   0  0  0  0  0  0  0  0  0  0  0  0
   10.3483  -19.3714   26.2309 C   0  0  0  0  0  0  0  0  0  0  0  0
    9.6069  -20.4797   26.5331 O   0  0  0  0  0  0  0  0  0  0  0  0
    9.9316  -18.2674   26.6609 O   0  0  0  0  0  0  0  0  0  0  0  0
  1  2  1  0
  2  3  2  0
  4  2  1  0
  5  4  1  0
  5  6  1  1
  7  5  1  0
  7  8  2  0
  9  7  1  0
 10  9  1  0
 10 11  1  0
 11 13  1  0
 12 11  2  0
 13 14  1  0
 14 15  1  1
 15 16  1  0
 16 17  1  0
 17 18  1  0
 18 19  1  0
 20 14  1  0
 20 21  1  0
 22 20  2  0
M  END
$$$$
