NGK.pdb
     RDKit          3D

 22 21  0  0  1  0  0  0  0  0999 V2000
   12.3896  -17.8335   13.2705 N   0  0  0  0  0  0  0  0  0  0  0  0
   10.9627  -17.7637   13.3469 C   0  0  0  0  0  0  0  0  0  0  0  0
   10.2895  -17.5680   12.3246 O   0  0  0  0  0  0  0  0  0  0  0  0
   10.3448  -17.9329   14.6757 C   0  0  0  0  0  0  0  0  0  0  0  0
   11.3726  -17.9888   15.7765 C   0  0  2  0  0  0  0  0  0  0  0  0
   11.8309  -19.3347   15.9864 N   0  0  0  0  0  0  0  0  0  0  0  0
   10.7764  -17.3668   16.9710 C   0  0  0  0  0  0  0  0  0  0  0  0
   10.7645  -16.1064   17.0469 O   0  0  0  0  0  0  0  0  0  0  0  0
   10.2047  -18.0614   18.0634 N   0  0  0  0  0  0  0  0  0  0  0  0
    9.6901  -17.3719   19.2315 C   0  0  0  0  0  0  0  0  0  0  0  0
   10.7714  -17.1302   20.2268 C   0  0  0  0  0  0  0  0  0  0  0  0
   11.9309  -17.5700   20.0136 O   0  0  0  0  0  0  0  0  0  0  0  0
   10.4901  -16.4076   21.4068 N   0  0  0  0  0  0  0  0  0  0  0  0
   11.3908  -16.2801   22.5335 C   0  0  1  0  0  0  0  0  0  0  0  0
   10.6090  -16.0683   23.7710 C   0  0  0  0  0  0  0  0  0  0  0  0
   11.3613  -16.0764   25.0532 C   0  0  0  0  0  0  0  0  0  0  0  0
   10.5577  -15.9228   26.2955 C   0  0  0  0  0  0  0  0  0  0  0  0
   11.3126  -16.0142   27.5796 C   0  0  0  0  0  0  0  0  0  0  0  0
   10.5095  -15.8901   28.7493 N   0  0  0  0  0  0  0  0  0  0  0  0
   12.3911  -17.3800   22.5914 C   0  0  0  0  0  0  0  0  0  0  0  0
   13.7446  -17.1955   22.6487 O   0  0  0  0  0  0  0  0  0  0  0  0
   11.9728  -18.5642   22.5870 O   0  0  0  0  0  0  0  0  0  0  0  0
  1  2  1  0
  2  3  2  0
  4  2  1  0
  5  4  1  0
  5  6  1  1
  7  5  1  0
  7  8  2  0
  9  7  1  0
 10  9  1  0
 10 11  1  0
 11 13  1  0
 12 11  2  0
 13 14  1  0
 14 15  1  1
 15 16  1  0
 16 17  1  0
 17 18  1  0
 18 19  1  0
 20 14  1  0
 20 21  1  0
 22 20  2  0
M  END
$$$$
