NGK.pdb
     RDKit          3D

 22 21  0  0  1  0  0  0  0  0999 V2000
    6.7940  -14.4508   15.1700 N   0  0  0  0  0  0  0  0  0  0  0  0
    8.1224  -14.6468   15.6640 C   0  0  0  0  0  0  0  0  0  0  0  0
    8.9600  -15.2569   14.9838 O   0  0  0  0  0  0  0  0  0  0  0  0
    8.4392  -14.0979   16.9960 C   0  0  0  0  0  0  0  0  0  0  0  0
    9.1795  -15.0889   17.8569 C   0  0  2  0  0  0  0  0  0  0  0  0
    8.3034  -16.1344   18.3097 N   0  0  0  0  0  0  0  0  0  0  0  0
    9.8241  -14.3352   18.9456 C   0  0  0  0  0  0  0  0  0  0  0  0
   10.3585  -13.2247   18.6704 O   0  0  0  0  0  0  0  0  0  0  0  0
    9.9031  -14.7457   20.2977 N   0  0  0  0  0  0  0  0  0  0  0  0
    8.7560  -14.7030   21.1848 C   0  0  0  0  0  0  0  0  0  0  0  0
    9.1130  -15.2033   22.5415 C   0  0  0  0  0  0  0  0  0  0  0  0
   10.2641  -15.6628   22.7586 O   0  0  0  0  0  0  0  0  0  0  0  0
    8.1567  -15.1598   23.5795 N   0  0  0  0  0  0  0  0  0  0  0  0
    8.4316  -15.4530   24.9706 C   0  0  1  0  0  0  0  0  0  0  0  0
    7.4105  -14.8076   25.8239 C   0  0  0  0  0  0  0  0  0  0  0  0
    7.2513  -13.3357   25.6883 C   0  0  0  0  0  0  0  0  0  0  0  0
    6.2339  -12.6945   26.5637 C   0  0  0  0  0  0  0  0  0  0  0  0
    6.1742  -11.2041   26.5158 C   0  0  0  0  0  0  0  0  0  0  0  0
    5.1720  -10.6242   27.3453 N   0  0  0  0  0  0  0  0  0  0  0  0
    8.6431  -16.9051   25.2165 C   0  0  0  0  0  0  0  0  0  0  0  0
    9.5491  -17.4181   26.1027 O   0  0  0  0  0  0  0  0  0  0  0  0
    7.9460  -17.7249   24.5690 O   0  0  0  0  0  0  0  0  0  0  0  0
  1  2  1  0
  2  3  2  0
  4  2  1  0
  5  4  1  0
  5  6  1  1
  7  5  1  0
  7  8  2  0
  9  7  1  0
 10  9  1  0
 10 11  1  0
 11 13  1  0
 12 11  2  0
 13 14  1  0
 14 15  1  1
 15 16  1  0
 16 17  1  0
 17 18  1  0
 18 19  1  0
 20 14  1  0
 20 21  1  0
 22 20  2  0
M  END
$$$$
