NGK.pdb
     RDKit          3D

 22 21  0  0  1  0  0  0  0  0999 V2000
    7.3396  -13.3312   14.0946 N   0  0  0  0  0  0  0  0  0  0  0  0
    8.1772  -14.0969   14.9659 C   0  0  0  0  0  0  0  0  0  0  0  0
    9.1740  -14.6837   14.5204 O   0  0  0  0  0  0  0  0  0  0  0  0
    7.8030  -14.1523   16.3917 C   0  0  0  0  0  0  0  0  0  0  0  0
    8.9559  -14.5760   17.2650 C   0  0  2  0  0  0  0  0  0  0  0  0
    9.7293  -15.6093   16.6326 N   0  0  0  0  0  0  0  0  0  0  0  0
    8.4019  -14.9601   18.5744 C   0  0  0  0  0  0  0  0  0  0  0  0
    7.7758  -14.0876   19.2388 O   0  0  0  0  0  0  0  0  0  0  0  0
    8.5069  -16.2392   19.1705 N   0  0  0  0  0  0  0  0  0  0  0  0
    7.8586  -16.5594   20.4283 C   0  0  0  0  0  0  0  0  0  0  0  0
    8.4996  -15.8313   21.5584 C   0  0  0  0  0  0  0  0  0  0  0  0
    9.7154  -15.5138   21.4919 O   0  0  0  0  0  0  0  0  0  0  0  0
    7.7391  -15.5001   22.7011 N   0  0  0  0  0  0  0  0  0  0  0  0
    8.2415  -14.7701   23.8463 C   0  0  1  0  0  0  0  0  0  0  0  0
    7.1222  -14.0808   24.5240 C   0  0  0  0  0  0  0  0  0  0  0  0
    7.4647  -13.2266   25.6917 C   0  0  0  0  0  0  0  0  0  0  0  0
    6.3321  -12.5338   26.3624 C   0  0  0  0  0  0  0  0  0  0  0  0
    6.6925  -11.6450   27.5058 C   0  0  0  0  0  0  0  0  0  0  0  0
    5.5904  -10.9630   28.0965 N   0  0  0  0  0  0  0  0  0  0  0  0
    9.1002  -15.6087   24.7255 C   0  0  0  0  0  0  0  0  0  0  0  0
   10.1959  -15.1521   25.4039 O   0  0  0  0  0  0  0  0  0  0  0  0
    8.8066  -16.8224   24.8597 O   0  0  0  0  0  0  0  0  0  0  0  0
  1  2  1  0
  2  3  2  0
  4  2  1  0
  5  4  1  0
  5  6  1  6
  7  5  1  0
  7  8  2  0
  9  7  1  0
 10  9  1  0
 10 11  1  0
 11 13  1  0
 12 11  2  0
 13 14  1  0
 14 15  1  1
 15 16  1  0
 16 17  1  0
 17 18  1  0
 18 19  1  0
 20 14  1  0
 20 21  1  0
 22 20  2  0
M  END
$$$$
