NGK.pdb
     RDKit          3D

 22 21  0  0  1  0  0  0  0  0999 V2000
    7.7066  -12.7997   16.4252 N   0  0  0  0  0  0  0  0  0  0  0  0
    8.1945  -14.1402   16.3161 C   0  0  0  0  0  0  0  0  0  0  0  0
    7.8076  -14.8747   15.3956 O   0  0  0  0  0  0  0  0  0  0  0  0
    9.1614  -14.5957   17.3329 C   0  0  0  0  0  0  0  0  0  0  0  0
    8.5960  -15.6869   18.2052 C   0  0  2  0  0  0  0  0  0  0  0  0
    7.3884  -15.2549   18.8539 N   0  0  0  0  0  0  0  0  0  0  0  0
    9.6582  -16.1050   19.1357 C   0  0  0  0  0  0  0  0  0  0  0  0
   10.6412  -16.7480   18.6722 O   0  0  0  0  0  0  0  0  0  0  0  0
    9.6820  -15.8499   20.5274 N   0  0  0  0  0  0  0  0  0  0  0  0
   10.7205  -16.3796   21.3909 C   0  0  0  0  0  0  0  0  0  0  0  0
   10.5650  -15.8738   22.7831 C   0  0  0  0  0  0  0  0  0  0  0  0
   11.4952  -15.2188   23.3209 O   0  0  0  0  0  0  0  0  0  0  0  0
    9.3728  -16.1320   23.4944 N   0  0  0  0  0  0  0  0  0  0  0  0
    9.1318  -15.7525   24.8709 C   0  0  1  0  0  0  0  0  0  0  0  0
    7.7969  -15.1263   24.9855 C   0  0  0  0  0  0  0  0  0  0  0  0
    7.7590  -13.6634   25.2480 C   0  0  0  0  0  0  0  0  0  0  0  0
    6.5276  -13.1368   25.8953 C   0  0  0  0  0  0  0  0  0  0  0  0
    6.5066  -11.6695   26.1670 C   0  0  0  0  0  0  0  0  0  0  0  0
    5.3111  -11.1976   26.7809 N   0  0  0  0  0  0  0  0  0  0  0  0
    9.3993  -16.8632   25.8239 C   0  0  0  0  0  0  0  0  0  0  0  0
    9.7992  -16.6939   27.1204 O   0  0  0  0  0  0  0  0  0  0  0  0
    9.2508  -18.0426   25.4185 O   0  0  0  0  0  0  0  0  0  0  0  0
  1  2  1  0
  2  3  2  0
  4  2  1  0
  5  4  1  0
  5  6  1  1
  7  5  1  0
  7  8  2  0
  9  7  1  0
 10  9  1  0
 10 11  1  0
 11 13  1  0
 12 11  2  0
 13 14  1  0
 14 15  1  6
 15 16  1  0
 16 17  1  0
 17 18  1  0
 18 19  1  0
 20 14  1  0
 20 21  1  0
 22 20  2  0
M  END
$$$$
