NGK.pdb
     RDKit          3D

 22 21  0  0  1  0  0  0  0  0999 V2000
    7.5389  -12.2721   18.9007 N   0  0  0  0  0  0  0  0  0  0  0  0
    7.2799  -13.5679   19.4490 C   0  0  0  0  0  0  0  0  0  0  0  0
    6.3424  -14.2547   19.0178 O   0  0  0  0  0  0  0  0  0  0  0  0
    8.1660  -14.0367   20.5312 C   0  0  0  0  0  0  0  0  0  0  0  0
    9.0154  -15.2056   20.1031 C   0  0  2  0  0  0  0  0  0  0  0  0
    8.1990  -16.3350   19.7514 N   0  0  0  0  0  0  0  0  0  0  0  0
    9.9755  -15.4758   21.1866 C   0  0  0  0  0  0  0  0  0  0  0  0
   10.7981  -14.5696   21.4976 O   0  0  0  0  0  0  0  0  0  0  0  0
   10.0657  -16.6786   21.9269 N   0  0  0  0  0  0  0  0  0  0  0  0
   11.2403  -17.0170   22.7082 C   0  0  0  0  0  0  0  0  0  0  0  0
   11.0449  -16.6668   24.1426 C   0  0  0  0  0  0  0  0  0  0  0  0
   12.0114  -16.7426   24.9449 O   0  0  0  0  0  0  0  0  0  0  0  0
    9.7742  -16.2507   24.5965 N   0  0  0  0  0  0  0  0  0  0  0  0
    9.4301  -16.0043   25.9813 C   0  0  1  0  0  0  0  0  0  0  0  0
    8.1042  -15.3531   26.0537 C   0  0  0  0  0  0  0  0  0  0  0  0
    8.0840  -13.8669   26.0844 C   0  0  0  0  0  0  0  0  0  0  0  0
    6.7493  -13.2236   26.2161 C   0  0  0  0  0  0  0  0  0  0  0  0
    6.7429  -11.7320   26.2654 C   0  0  0  0  0  0  0  0  0  0  0  0
    5.4509  -11.1493   26.4068 N   0  0  0  0  0  0  0  0  0  0  0  0
    9.5946  -17.2127   26.8335 C   0  0  0  0  0  0  0  0  0  0  0  0
   10.0852  -17.2011   28.1097 O   0  0  0  0  0  0  0  0  0  0  0  0
    9.2632  -18.3260   26.3561 O   0  0  0  0  0  0  0  0  0  0  0  0
  1  2  1  0
  2  3  2  0
  4  2  1  0
  5  4  1  0
  5  6  1  1
  7  5  1  0
  7  8  2  0
  9  7  1  0
 10  9  1  0
 10 11  1  0
 11 13  1  0
 12 11  2  0
 13 14  1  0
 14 15  1  6
 15 16  1  0
 16 17  1  0
 17 18  1  0
 18 19  1  0
 20 14  1  0
 20 21  1  0
 22 20  2  0
M  END
$$$$
