NGK.pdb
     RDKit          3D

 22 21  0  0  1  0  0  0  0  0999 V2000
   16.6604  -15.6947   16.5210 N   0  0  0  0  0  0  0  0  0  0  0  0
   16.0538  -14.4121   16.3370 C   0  0  0  0  0  0  0  0  0  0  0  0
   16.5470  -13.5932   15.5479 O   0  0  0  0  0  0  0  0  0  0  0  0
   14.8368  -14.1185   17.1173 C   0  0  0  0  0  0  0  0  0  0  0  0
   14.4229  -15.2811   17.9824 C   0  0  2  0  0  0  0  0  0  0  0  0
   13.6177  -16.2136   17.2423 N   0  0  0  0  0  0  0  0  0  0  0  0
   13.7571  -14.7308   19.1751 C   0  0  0  0  0  0  0  0  0  0  0  0
   13.5991  -13.4801   19.2491 O   0  0  0  0  0  0  0  0  0  0  0  0
   13.2681  -15.4854   20.2678 N   0  0  0  0  0  0  0  0  0  0  0  0
   12.3714  -14.9180   21.2572 C   0  0  0  0  0  0  0  0  0  0  0  0
   11.9305  -15.9536   22.2326 C   0  0  0  0  0  0  0  0  0  0  0  0
   11.5824  -17.0922   21.8254 O   0  0  0  0  0  0  0  0  0  0  0  0
   11.9051  -15.6526   23.6120 N   0  0  0  0  0  0  0  0  0  0  0  0
   11.1025  -16.3485   24.5960 C   0  0  1  0  0  0  0  0  0  0  0  0
   11.2863  -15.7175   25.9209 C   0  0  0  0  0  0  0  0  0  0  0  0
   10.6811  -16.4119   27.0879 C   0  0  0  0  0  0  0  0  0  0  0  0
   10.9426  -15.8143   28.4248 C   0  0  0  0  0  0  0  0  0  0  0  0
   10.3503  -16.5332   29.5908 C   0  0  0  0  0  0  0  0  0  0  0  0
   10.6745  -15.9727   30.8595 N   0  0  0  0  0  0  0  0  0  0  0  0
    9.6898  -16.5202   24.1617 C   0  0  0  0  0  0  0  0  0  0  0  0
    9.0544  -15.7193   23.2539 O   0  0  0  0  0  0  0  0  0  0  0  0
    9.0261  -17.4636   24.6585 O   0  0  0  0  0  0  0  0  0  0  0  0
  1  2  1  0
  2  3  2  0
  4  2  1  0
  5  4  1  0
  5  6  1  6
  7  5  1  0
  7  8  2  0
  9  7  1  0
 10  9  1  0
 10 11  1  0
 11 13  1  0
 12 11  2  0
 13 14  1  0
 14 15  1  1
 15 16  1  0
 16 17  1  0
 17 18  1  0
 18 19  1  0
 20 14  1  0
 20 21  1  0
 22 20  2  0
M  END
$$$$
