NGK.pdb
     RDKit          3D

 22 21  0  0  1  0  0  0  0  0999 V2000
    7.5970  -13.1174   16.3986 N   0  0  0  0  0  0  0  0  0  0  0  0
    8.6903  -14.0367   16.4797 C   0  0  0  0  0  0  0  0  0  0  0  0
    9.3248  -14.3469   15.4610 O   0  0  0  0  0  0  0  0  0  0  0  0
    9.0184  -14.5859   17.8089 C   0  0  0  0  0  0  0  0  0  0  0  0
    8.5860  -16.0225   17.9519 C   0  0  2  0  0  0  0  0  0  0  0  0
    7.2117  -16.1884   17.5653 N   0  0  0  0  0  0  0  0  0  0  0  0
    8.8719  -16.4353   19.3364 C   0  0  0  0  0  0  0  0  0  0  0  0
   10.0775  -16.4897   19.7081 O   0  0  0  0  0  0  0  0  0  0  0  0
    7.9047  -16.7841   20.3088 N   0  0  0  0  0  0  0  0  0  0  0  0
    8.2656  -17.4184   21.5626 C   0  0  0  0  0  0  0  0  0  0  0  0
    9.3525  -16.6647   22.2474 C   0  0  0  0  0  0  0  0  0  0  0  0
   10.4729  -16.5332   21.6900 O   0  0  0  0  0  0  0  0  0  0  0  0
    9.1204  -16.1004   23.5207 N   0  0  0  0  0  0  0  0  0  0  0  0
   10.1452  -15.8420   24.5105 C   0  0  1  0  0  0  0  0  0  0  0  0
    9.5203  -15.3238   25.7468 C   0  0  0  0  0  0  0  0  0  0  0  0
   10.4236  -15.0528   26.8961 C   0  0  0  0  0  0  0  0  0  0  0  0
    9.7859  -14.5229   28.1311 C   0  0  0  0  0  0  0  0  0  0  0  0
   10.7010  -14.2622   29.2808 C   0  0  0  0  0  0  0  0  0  0  0  0
   10.0475  -13.8451   30.4757 N   0  0  0  0  0  0  0  0  0  0  0  0
   11.0633  -16.9979   24.6961 C   0  0  0  0  0  0  0  0  0  0  0  0
   12.3442  -17.0554   24.2212 O   0  0  0  0  0  0  0  0  0  0  0  0
   10.6414  -17.9957   25.3314 O   0  0  0  0  0  0  0  0  0  0  0  0
  1  2  1  0
  2  3  2  0
  4  2  1  0
  5  4  1  0
  5  6  1  1
  7  5  1  0
  7  8  2  0
  9  7  1  0
 10  9  1  0
 10 11  1  0
 11 13  1  0
 12 11  2  0
 13 14  1  0
 14 15  1  1
 15 16  1  0
 16 17  1  0
 17 18  1  0
 18 19  1  0
 20 14  1  0
 20 21  1  0
 22 20  2  0
M  END
$$$$
