NGK.pdb
     RDKit          3D

 22 21  0  0  1  0  0  0  0  0999 V2000
    5.9495  -17.4871   19.5172 N   0  0  0  0  0  0  0  0  0  0  0  0
    5.9108  -16.5136   20.5649 C   0  0  0  0  0  0  0  0  0  0  0  0
    4.8253  -16.1352   21.0286 O   0  0  0  0  0  0  0  0  0  0  0  0
    7.2007  -15.9930   21.0559 C   0  0  0  0  0  0  0  0  0  0  0  0
    8.3678  -16.5397   20.2748 C   0  0  2  0  0  0  0  0  0  0  0  0
    8.3283  -17.9756   20.2256 N   0  0  0  0  0  0  0  0  0  0  0  0
    9.5971  -15.9953   20.8759 C   0  0  0  0  0  0  0  0  0  0  0  0
    9.8131  -14.7551   20.7780 O   0  0  0  0  0  0  0  0  0  0  0  0
   10.5788  -16.7452   21.5664 N   0  0  0  0  0  0  0  0  0  0  0  0
   11.7642  -16.1285   22.1315 C   0  0  0  0  0  0  0  0  0  0  0  0
   11.6180  -15.9421   23.6019 C   0  0  0  0  0  0  0  0  0  0  0  0
   12.5876  -15.5140   24.2801 O   0  0  0  0  0  0  0  0  0  0  0  0
   10.3902  -16.2469   24.2293 N   0  0  0  0  0  0  0  0  0  0  0  0
   10.1528  -16.1864   25.6564 C   0  0  1  0  0  0  0  0  0  0  0  0
    8.7687  -15.7308   25.9092 C   0  0  0  0  0  0  0  0  0  0  0  0
    8.4433  -14.3275   25.5417 C   0  0  0  0  0  0  0  0  0  0  0  0
    7.0270  -13.9070   25.7154 C   0  0  0  0  0  0  0  0  0  0  0  0
    6.7045  -12.5078   25.3088 C   0  0  0  0  0  0  0  0  0  0  0  0
    5.3387  -12.1412   25.4788 N   0  0  0  0  0  0  0  0  0  0  0  0
   10.5495  -17.4391   26.3542 C   0  0  0  0  0  0  0  0  0  0  0  0
   10.8141  -18.6256   25.7283 O   0  0  0  0  0  0  0  0  0  0  0  0
   10.6504  -17.4155   27.6059 O   0  0  0  0  0  0  0  0  0  0  0  0
  1  2  1  0
  2  3  2  0
  4  2  1  0
  5  4  1  0
  5  6  1  1
  7  5  1  0
  7  8  2  0
  9  7  1  0
 10  9  1  0
 10 11  1  0
 11 13  1  0
 12 11  2  0
 13 14  1  0
 14 15  1  6
 15 16  1  0
 16 17  1  0
 17 18  1  0
 18 19  1  0
 20 14  1  0
 20 21  1  0
 22 20  2  0
M  END
$$$$
