NGK.pdb
     RDKit          3D

 22 21  0  0  1  0  0  0  0  0999 V2000
    7.3106  -12.7276   18.0280 N   0  0  0  0  0  0  0  0  0  0  0  0
    8.2021  -13.3128   17.0741 C   0  0  0  0  0  0  0  0  0  0  0  0
    7.7665  -13.7675   16.0064 O   0  0  0  0  0  0  0  0  0  0  0  0
    9.6363  -13.3473   17.4174 C   0  0  0  0  0  0  0  0  0  0  0  0
   10.1110  -14.7425   17.7328 C   0  0  2  0  0  0  0  0  0  0  0  0
    9.0979  -15.4868   18.4294 N   0  0  0  0  0  0  0  0  0  0  0  0
   11.3794  -14.6225   18.4715 C   0  0  0  0  0  0  0  0  0  0  0  0
   12.4493  -14.5119   17.8101 O   0  0  0  0  0  0  0  0  0  0  0  0
   11.5155  -14.6194   19.8801 N   0  0  0  0  0  0  0  0  0  0  0  0
   12.5433  -15.3876   20.5572 C   0  0  0  0  0  0  0  0  0  0  0  0
   12.4797  -15.1800   22.0306 C   0  0  0  0  0  0  0  0  0  0  0  0
   12.3785  -14.0156   22.4969 O   0  0  0  0  0  0  0  0  0  0  0  0
   12.5332  -16.2922   22.8990 N   0  0  0  0  0  0  0  0  0  0  0  0
   11.4193  -16.7850   23.6819 C   0  0  1  0  0  0  0  0  0  0  0  0
   10.2477  -16.9888   22.8027 C   0  0  0  0  0  0  0  0  0  0  0  0
    9.3268  -15.8347   22.6286 C   0  0  0  0  0  0  0  0  0  0  0  0
    8.2076  -16.0177   21.6660 C   0  0  0  0  0  0  0  0  0  0  0  0
    7.2828  -14.8570   21.5082 C   0  0  0  0  0  0  0  0  0  0  0  0
    6.2094  -15.0742   20.5975 N   0  0  0  0  0  0  0  0  0  0  0  0
   11.7898  -17.9492   24.5310 C   0  0  0  0  0  0  0  0  0  0  0  0
   12.8816  -18.7454   24.3226 O   0  0  0  0  0  0  0  0  0  0  0  0
   11.0540  -18.2287   25.5097 O   0  0  0  0  0  0  0  0  0  0  0  0
  1  2  1  0
  2  3  2  0
  4  2  1  0
  5  4  1  0
  5  6  1  1
  7  5  1  0
  7  8  2  0
  9  7  1  0
 10  9  1  0
 10 11  1  0
 11 13  1  0
 12 11  2  0
 13 14  1  0
 14 15  1  6
 15 16  1  0
 16 17  1  0
 17 18  1  0
 18 19  1  0
 20 14  1  0
 20 21  1  0
 22 20  2  0
M  END
$$$$
