NGK.pdb
     RDKit          3D

 22 21  0  0  1  0  0  0  0  0999 V2000
    9.3201  -15.0289   16.5773 N   0  0  0  0  0  0  0  0  0  0  0  0
    8.0821  -14.3274   16.4286 C   0  0  0  0  0  0  0  0  0  0  0  0
    7.2830  -14.6491   15.5373 O   0  0  0  0  0  0  0  0  0  0  0  0
    7.8094  -13.2246   17.3696 C   0  0  0  0  0  0  0  0  0  0  0  0
    8.8686  -13.1133   18.4359 C   0  0  2  0  0  0  0  0  0  0  0  0
   10.1842  -13.2393   17.8711 N   0  0  0  0  0  0  0  0  0  0  0  0
    8.5631  -14.1163   19.4701 C   0  0  0  0  0  0  0  0  0  0  0  0
    7.4878  -13.9965   20.1212 O   0  0  0  0  0  0  0  0  0  0  0  0
    9.3763  -15.2234   19.8102 N   0  0  0  0  0  0  0  0  0  0  0  0
    9.0643  -16.0953   20.9270 C   0  0  0  0  0  0  0  0  0  0  0  0
    9.3426  -15.4192   22.2246 C   0  0  0  0  0  0  0  0  0  0  0  0
   10.4557  -14.8651   22.4179 O   0  0  0  0  0  0  0  0  0  0  0  0
    8.3548  -15.4030   23.2334 N   0  0  0  0  0  0  0  0  0  0  0  0
    8.5246  -14.8209   24.5484 C   0  0  1  0  0  0  0  0  0  0  0  0
    7.3650  -13.9579   24.8614 C   0  0  0  0  0  0  0  0  0  0  0  0
    7.4145  -13.1996   26.1392 C   0  0  0  0  0  0  0  0  0  0  0  0
    6.2208  -12.3757   26.4690 C   0  0  0  0  0  0  0  0  0  0  0  0
    6.3086  -11.5665   27.7199 C   0  0  0  0  0  0  0  0  0  0  0  0
    5.0993  -10.9095   28.0867 N   0  0  0  0  0  0  0  0  0  0  0  0
    8.8616  -15.8361   25.5824 C   0  0  0  0  0  0  0  0  0  0  0  0
    8.8635  -17.1871   25.3718 O   0  0  0  0  0  0  0  0  0  0  0  0
    9.1665  -15.4341   26.7325 O   0  0  0  0  0  0  0  0  0  0  0  0
  1  2  1  0
  2  3  2  0
  4  2  1  0
  5  4  1  0
  5  6  1  6
  7  5  1  0
  7  8  2  0
  9  7  1  0
 10  9  1  0
 10 11  1  0
 11 13  1  0
 12 11  2  0
 13 14  1  0
 14 15  1  1
 15 16  1  0
 16 17  1  0
 17 18  1  0
 18 19  1  0
 20 14  1  0
 20 21  1  0
 22 20  2  0
M  END
$$$$
