NGK.pdb
     RDKit          3D

 22 21  0  0  1  0  0  0  0  0999 V2000
    7.6212  -12.4100   16.0988 N   0  0  0  0  0  0  0  0  0  0  0  0
    7.3813  -13.7789   16.4386 C   0  0  0  0  0  0  0  0  0  0  0  0
    7.2708  -14.6350   15.5491 O   0  0  0  0  0  0  0  0  0  0  0  0
    7.2740  -14.1139   17.8712 C   0  0  0  0  0  0  0  0  0  0  0  0
    8.6228  -14.3453   18.5025 C   0  0  2  0  0  0  0  0  0  0  0  0
    9.5034  -15.0347   17.5997 N   0  0  0  0  0  0  0  0  0  0  0  0
    8.4005  -15.0503   19.7763 C   0  0  0  0  0  0  0  0  0  0  0  0
    7.8085  -14.4343   20.7062 O   0  0  0  0  0  0  0  0  0  0  0  0
    8.7955  -16.3786   20.0628 N   0  0  0  0  0  0  0  0  0  0  0  0
    8.5888  -16.9805   21.3666 C   0  0  0  0  0  0  0  0  0  0  0  0
    9.6957  -16.6268   22.2981 C   0  0  0  0  0  0  0  0  0  0  0  0
   10.8838  -16.6100   21.8840 O   0  0  0  0  0  0  0  0  0  0  0  0
    9.4067  -16.3114   23.6438 N   0  0  0  0  0  0  0  0  0  0  0  0
   10.4003  -16.0884   24.6732 C   0  0  1  0  0  0  0  0  0  0  0  0
    9.7538  -15.5007   25.8665 C   0  0  0  0  0  0  0  0  0  0  0  0
   10.6279  -15.2144   27.0345 C   0  0  0  0  0  0  0  0  0  0  0  0
    9.9612  -14.6584   28.2423 C   0  0  0  0  0  0  0  0  0  0  0  0
   10.8606  -14.2804   29.3717 C   0  0  0  0  0  0  0  0  0  0  0  0
   10.2128  -13.6028   30.4440 N   0  0  0  0  0  0  0  0  0  0  0  0
   11.2370  -17.2918   24.9287 C   0  0  0  0  0  0  0  0  0  0  0  0
   12.5854  -17.2659   25.1531 O   0  0  0  0  0  0  0  0  0  0  0  0
   10.6746  -18.4147   24.9403 O   0  0  0  0  0  0  0  0  0  0  0  0
  1  2  1  0
  2  3  2  0
  4  2  1  0
  5  4  1  0
  5  6  1  6
  7  5  1  0
  7  8  2  0
  9  7  1  0
 10  9  1  0
 10 11  1  0
 11 13  1  0
 12 11  2  0
 13 14  1  0
 14 15  1  1
 15 16  1  0
 16 17  1  0
 17 18  1  0
 18 19  1  0
 20 14  1  0
 20 21  1  0
 22 20  2  0
M  END
$$$$
