DML.pdb
     RDKit          3D

 25 24  0  0  1  0  0  0  0  0999 V2000
   10.2628  -17.7978   20.1157 N   0  0  0  0  0  0  0  0  0  0  0  0
   11.3481  -17.0837   20.7616 C   0  0  1  0  0  0  0  0  0  0  0  0
   11.9974  -16.2052   19.7055 C   0  0  0  0  0  0  0  0  0  0  0  0
   12.6157  -17.0078   18.6453 C   0  0  0  0  0  0  0  0  0  0  0  0
   13.4633  -17.8790   18.9949 O   0  0  0  0  0  0  0  0  0  0  0  0
   10.8430  -16.2426   21.8798 C   0  0  0  0  0  0  0  0  0  0  0  0
   11.5644  -15.3846   22.4230 O   0  0  0  0  0  0  0  0  0  0  0  0
   12.3513  -16.8934   17.2966 O   0  0  0  0  0  0  0  0  0  0  0  0
    6.2026  -12.4120   25.5853 C   0  0  0  0  0  0  0  0  0  0  0  0
    7.0867  -13.9243   25.1651 S   0  0  0  0  0  0  0  0  0  0  0  0
    6.6979  -14.4472   23.4743 C   0  0  0  0  0  0  0  0  0  0  0  0
    7.3782  -15.7706   23.2351 C   0  0  0  0  0  0  0  0  0  0  0  0
    8.9011  -15.6319   23.3606 C   0  0  2  0  0  0  0  0  0  0  0  0
    9.5285  -16.4118   22.3391 N   0  0  0  0  0  0  0  0  0  0  0  0
    9.2768  -16.1954   24.6834 C   0  0  0  0  0  0  0  0  0  0  0  0
    9.6034  -17.4121   24.7827 O   0  0  0  0  0  0  0  0  0  0  0  0
    9.9345  -14.8161   30.4995 C   0  0  0  0  0  0  0  0  0  0  0  0
   10.8538  -14.9890   29.2797 C   0  0  2  0  0  0  0  0  0  0  0  0
   12.0397  -14.0978   29.4974 C   0  0  0  0  0  0  0  0  0  0  0  0
   10.1133  -14.7244   28.0239 C   0  0  0  0  0  0  0  0  0  0  0  0
   10.1206  -15.8075   27.0015 C   0  0  2  0  0  0  0  0  0  0  0  0
    9.2830  -15.4074   25.8572 N   0  0  0  0  0  0  0  0  0  0  0  0
    9.5586  -17.0674   27.5699 C   0  0  0  0  0  0  0  0  0  0  0  0
    8.3361  -17.2526   27.7141 O   0  0  0  0  0  0  0  0  0  0  0  0
   10.4078  -18.1073   27.9690 O   0  0  0  0  0  0  0  0  0  0  0  0
  2  1  1  6
  2  3  1  0
  3  4  1  0
  4  5  2  0
  6  2  1  0
  6  7  2  0
  8  4  1  0
  9 10  1  0
 10 11  1  0
 11 12  1  0
 13 12  1  6
 13 14  1  0
 14  6  1  0
 15 22  1  0
 15 13  1  0
 16 15  2  0
 18 20  1  0
 18 17  1  1
 19 18  1  0
 21 22  1  0
 21 20  1  1
 23 21  1  0
 24 23  2  0
 25 23  1  0
M  END
$$$$
