DML.pdb
     RDKit          3D

 25 24  0  0  1  0  0  0  0  0999 V2000
    8.8804  -17.6337   19.9012 N   0  0  0  0  0  0  0  0  0  0  0  0
   10.2560  -17.2470   20.1525 C   0  0  1  0  0  0  0  0  0  0  0  0
   10.7644  -16.5588   18.8970 C   0  0  0  0  0  0  0  0  0  0  0  0
   11.3147  -17.5245   17.9404 C   0  0  0  0  0  0  0  0  0  0  0  0
   11.1669  -18.7527   18.2040 O   0  0  0  0  0  0  0  0  0  0  0  0
   10.3464  -16.3186   21.3113 C   0  0  0  0  0  0  0  0  0  0  0  0
   11.4282  -15.7964   21.6411 O   0  0  0  0  0  0  0  0  0  0  0  0
   11.9813  -17.2072   16.7755 O   0  0  0  0  0  0  0  0  0  0  0  0
    5.6347  -12.1269   26.1130 C   0  0  0  0  0  0  0  0  0  0  0  0
    5.8477  -13.2734   24.7398 S   0  0  0  0  0  0  0  0  0  0  0  0
    7.5784  -13.7907   24.5974 C   0  0  0  0  0  0  0  0  0  0  0  0
    7.7099  -14.6131   23.3413 C   0  0  0  0  0  0  0  0  0  0  0  0
    9.1421  -15.1401   23.1814 C   0  0  2  0  0  0  0  0  0  0  0  0
    9.1950  -16.0187   22.0543 N   0  0  0  0  0  0  0  0  0  0  0  0
    9.4514  -15.9230   24.4061 C   0  0  0  0  0  0  0  0  0  0  0  0
    9.7796  -17.1398   24.3126 O   0  0  0  0  0  0  0  0  0  0  0  0
   10.9689  -16.1185   29.6667 C   0  0  0  0  0  0  0  0  0  0  0  0
   11.3443  -14.8392   28.9016 C   0  0  2  0  0  0  0  0  0  0  0  0
   11.3608  -13.7219   29.9013 C   0  0  0  0  0  0  0  0  0  0  0  0
   10.4255  -14.6232   27.7594 C   0  0  0  0  0  0  0  0  0  0  0  0
   10.4457  -15.6498   26.6806 C   0  0  2  0  0  0  0  0  0  0  0  0
    9.3917  -15.3477   25.6961 N   0  0  0  0  0  0  0  0  0  0  0  0
   10.1800  -17.0058   27.2435 C   0  0  0  0  0  0  0  0  0  0  0  0
   11.0904  -17.8086   27.5198 O   0  0  0  0  0  0  0  0  0  0  0  0
    8.8672  -17.4298   27.4852 O   0  0  0  0  0  0  0  0  0  0  0  0
  2  1  1  6
  2  3  1  0
  3  4  1  0
  4  5  2  0
  6  2  1  0
  6  7  2  0
  8  4  1  0
  9 10  1  0
 10 11  1  0
 11 12  1  0
 13 12  1  1
 13 14  1  0
 14  6  1  0
 15 22  1  0
 15 13  1  0
 16 15  2  0
 18 20  1  0
 18 17  1  1
 19 18  1  0
 21 22  1  0
 21 20  1  1
 23 21  1  0
 24 23  2  0
 25 23  1  0
M  END
$$$$
