DML.pdb
     RDKit          3D

 25 24  0  0  1  0  0  0  0  0999 V2000
    9.5858  -17.8179   20.6872 N   0  0  0  0  0  0  0  0  0  0  0  0
   10.7497  -17.0627   21.1118 C   0  0  1  0  0  0  0  0  0  0  0  0
   11.0524  -16.0532   20.0173 C   0  0  0  0  0  0  0  0  0  0  0  0
   11.7552  -16.6764   18.8912 C   0  0  0  0  0  0  0  0  0  0  0  0
   11.9207  -17.9297   18.9309 O   0  0  0  0  0  0  0  0  0  0  0  0
   10.4890  -16.3564   22.3948 C   0  0  0  0  0  0  0  0  0  0  0  0
   11.3651  -15.6594   22.9410 O   0  0  0  0  0  0  0  0  0  0  0  0
   12.2523  -16.0111   17.7902 O   0  0  0  0  0  0  0  0  0  0  0  0
    6.3104  -12.7368   24.7934 C   0  0  0  0  0  0  0  0  0  0  0  0
    7.3645  -13.7285   25.8662 S   0  0  0  0  0  0  0  0  0  0  0  0
    6.9081  -15.4797   25.7746 C   0  0  0  0  0  0  0  0  0  0  0  0
    7.3331  -15.9948   24.4235 C   0  0  0  0  0  0  0  0  0  0  0  0
    8.8458  -15.8290   24.2273 C   0  0  2  0  0  0  0  0  0  0  0  0
    9.2337  -16.4716   23.0100 N   0  0  0  0  0  0  0  0  0  0  0  0
    9.5056  -16.5268   25.3614 C   0  0  0  0  0  0  0  0  0  0  0  0
    9.7692  -17.7599   25.2779 O   0  0  0  0  0  0  0  0  0  0  0  0
   11.4941  -13.6392   27.3451 C   0  0  0  0  0  0  0  0  0  0  0  0
   10.6253  -14.1854   28.4896 C   0  0  2  0  0  0  0  0  0  0  0  0
   10.8716  -13.3088   29.6809 C   0  0  0  0  0  0  0  0  0  0  0  0
   10.9052  -15.6220   28.7202 C   0  0  0  0  0  0  0  0  0  0  0  0
   10.6572  -16.5442   27.5773 C   0  0  2  0  0  0  0  0  0  0  0  0
    9.8567  -15.8511   26.5526 N   0  0  0  0  0  0  0  0  0  0  0  0
    9.8941  -17.7441   28.0291 C   0  0  0  0  0  0  0  0  0  0  0  0
    8.6831  -17.9005   27.7869 O   0  0  0  0  0  0  0  0  0  0  0  0
   10.5300  -18.7576   28.7573 O   0  0  0  0  0  0  0  0  0  0  0  0
  2  1  1  6
  2  3  1  0
  3  4  1  0
  4  5  2  0
  6  2  1  0
  6  7  2  0
  8  4  1  0
  9 10  1  0
 10 11  1  0
 11 12  1  0
 13 12  1  1
 13 14  1  0
 14  6  1  0
 15 22  1  0
 15 13  1  0
 16 15  2  0
 18 20  1  0
 18 17  1  6
 19 18  1  0
 21 22  1  0
 21 20  1  1
 23 21  1  0
 24 23  2  0
 25 23  1  0
M  END
$$$$
