DML.pdb
     RDKit          3D

 25 24  0  0  1  0  0  0  0  0999 V2000
    9.6391  -16.7603   19.3377 N   0  0  0  0  0  0  0  0  0  0  0  0
   10.5733  -17.1339   20.3830 C   0  0  1  0  0  0  0  0  0  0  0  0
   11.9639  -17.1075   19.7714 C   0  0  0  0  0  0  0  0  0  0  0  0
   12.3312  -18.4140   19.2158 C   0  0  0  0  0  0  0  0  0  0  0  0
   12.0463  -19.4381   19.9010 O   0  0  0  0  0  0  0  0  0  0  0  0
   10.5041  -16.1837   21.5255 C   0  0  0  0  0  0  0  0  0  0  0  0
   11.1838  -15.1400   21.5431 O   0  0  0  0  0  0  0  0  0  0  0  0
   12.9623  -18.6216   18.0072 O   0  0  0  0  0  0  0  0  0  0  0  0
    5.7813  -12.6775   26.4497 C   0  0  0  0  0  0  0  0  0  0  0  0
    6.0882  -13.8073   25.0804 S   0  0  0  0  0  0  0  0  0  0  0  0
    7.7598  -14.4992   25.1805 C   0  0  0  0  0  0  0  0  0  0  0  0
    7.9939  -15.3163   23.9360 C   0  0  0  0  0  0  0  0  0  0  0  0
    9.4862  -15.6264   23.7593 C   0  0  2  0  0  0  0  0  0  0  0  0
    9.6588  -16.4601   22.6103 N   0  0  0  0  0  0  0  0  0  0  0  0
    9.9130  -16.3861   24.9631 C   0  0  0  0  0  0  0  0  0  0  0  0
   10.2035  -17.6122   24.8670 O   0  0  0  0  0  0  0  0  0  0  0  0
   11.6780  -13.6592   28.0454 C   0  0  0  0  0  0  0  0  0  0  0  0
   10.3236  -14.2647   28.4478 C   0  0  2  0  0  0  0  0  0  0  0  0
    9.8669  -13.5347   29.6753 C   0  0  0  0  0  0  0  0  0  0  0  0
   10.4353  -15.7326   28.6163 C   0  0  0  0  0  0  0  0  0  0  0  0
   10.5537  -16.5422   27.3718 C   0  0  2  0  0  0  0  0  0  0  0  0
   10.0085  -15.7781   26.2359 N   0  0  0  0  0  0  0  0  0  0  0  0
    9.7749  -17.8089   27.4954 C   0  0  0  0  0  0  0  0  0  0  0  0
    8.6552  -17.9626   26.9738 O   0  0  0  0  0  0  0  0  0  0  0  0
   10.2902  -18.8917   28.2192 O   0  0  0  0  0  0  0  0  0  0  0  0
  2  1  1  6
  2  3  1  0
  3  4  1  0
  4  5  2  0
  6  2  1  0
  6  7  2  0
  8  4  1  0
  9 10  1  0
 10 11  1  0
 11 12  1  0
 13 12  1  1
 13 14  1  0
 14  6  1  0
 15 22  1  0
 15 13  1  0
 16 15  2  0
 18 20  1  0
 18 17  1  1
 19 18  1  0
 21 22  1  0
 21 20  1  1
 23 21  1  0
 24 23  2  0
 25 23  1  0
M  END
$$$$
