DML.pdb
     RDKit          3D

 25 24  0  0  1  0  0  0  0  0999 V2000
    7.6627  -18.9735   21.6950 N   0  0  0  0  0  0  0  0  0  0  0  0
    9.0627  -18.9533   21.3147 C   0  0  1  0  0  0  0  0  0  0  0  0
    9.1260  -19.2366   19.8234 C   0  0  0  0  0  0  0  0  0  0  0  0
    9.0762  -20.6760   19.5475 C   0  0  0  0  0  0  0  0  0  0  0  0
    8.8824  -21.4498   20.5290 O   0  0  0  0  0  0  0  0  0  0  0  0
    9.6758  -17.6295   21.6056 C   0  0  0  0  0  0  0  0  0  0  0  0
   10.9091  -17.4610   21.5558 O   0  0  0  0  0  0  0  0  0  0  0  0
    9.2231  -21.2593   18.3065 O   0  0  0  0  0  0  0  0  0  0  0  0
    7.8135  -11.5046   18.4948 C   0  0  0  0  0  0  0  0  0  0  0  0
    7.3019  -12.5963   19.8335 S   0  0  0  0  0  0  0  0  0  0  0  0
    8.7333  -13.4382   20.5585 C   0  0  0  0  0  0  0  0  0  0  0  0
    8.2517  -14.2103   21.7599 C   0  0  0  0  0  0  0  0  0  0  0  0
    9.3135  -15.2163   22.2236 C   0  0  2  0  0  0  0  0  0  0  0  0
    8.8566  -16.5423   21.9439 N   0  0  0  0  0  0  0  0  0  0  0  0
    9.4397  -15.0605   23.6961 C   0  0  0  0  0  0  0  0  0  0  0  0
   10.1325  -14.1184   24.1752 O   0  0  0  0  0  0  0  0  0  0  0  0
    7.7454  -12.7695   26.7246 C   0  0  0  0  0  0  0  0  0  0  0  0
    6.9946  -13.9025   26.0068 C   0  0  2  0  0  0  0  0  0  0  0  0
    5.5303  -13.6555   26.2142 C   0  0  0  0  0  0  0  0  0  0  0  0
    7.4640  -15.2253   26.4816 C   0  0  0  0  0  0  0  0  0  0  0  0
    8.8222  -15.6506   26.0428 C   0  0  2  0  0  0  0  0  0  0  0  0
    8.8020  -15.9424   24.5986 N   0  0  0  0  0  0  0  0  0  0  0  0
    9.2399  -16.8901   26.7608 C   0  0  0  0  0  0  0  0  0  0  0  0
    9.4292  -17.9731   26.1770 O   0  0  0  0  0  0  0  0  0  0  0  0
    9.4373  -16.8754   28.1473 O   0  0  0  0  0  0  0  0  0  0  0  0
  2  1  1  6
  2  3  1  0
  3  4  1  0
  4  5  2  0
  6  2  1  0
  6  7  2  0
  8  4  1  0
  9 10  1  0
 10 11  1  0
 11 12  1  0
 13 12  1  1
 13 14  1  0
 14  6  1  0
 15 22  1  0
 15 13  1  0
 16 15  2  0
 18 20  1  0
 18 17  1  1
 19 18  1  0
 21 22  1  0
 21 20  1  1
 23 21  1  0
 24 23  2  0
 25 23  1  0
M  END
$$$$
