DML.pdb
     RDKit          3D

 25 24  0  0  1  0  0  0  0  0999 V2000
    8.5266  -18.5658   20.9260 N   0  0  0  0  0  0  0  0  0  0  0  0
    9.8433  -18.0020   20.6952 C   0  0  1  0  0  0  0  0  0  0  0  0
    9.9455  -17.6955   19.2106 C   0  0  0  0  0  0  0  0  0  0  0  0
    9.7650  -18.9036   18.3991 C   0  0  0  0  0  0  0  0  0  0  0  0
    8.7898  -18.9229   17.5940 O   0  0  0  0  0  0  0  0  0  0  0  0
   10.0363  -16.7558   21.4844 C   0  0  0  0  0  0  0  0  0  0  0  0
   11.0198  -16.0149   21.2964 O   0  0  0  0  0  0  0  0  0  0  0  0
   10.5697  -20.0229   18.4390 O   0  0  0  0  0  0  0  0  0  0  0  0
    6.0457  -11.9823   26.3794 C   0  0  0  0  0  0  0  0  0  0  0  0
    6.2235  -13.6020   25.6111 S   0  0  0  0  0  0  0  0  0  0  0  0
    7.8372  -13.7555   24.8016 C   0  0  0  0  0  0  0  0  0  0  0  0
    7.8271  -15.0287   23.9951 C   0  0  0  0  0  0  0  0  0  0  0  0
    9.1858  -15.2579   23.3200 C   0  0  2  0  0  0  0  0  0  0  0  0
    9.0967  -16.3992   22.4629 N   0  0  0  0  0  0  0  0  0  0  0  0
   10.1594  -15.5547   24.4028 C   0  0  0  0  0  0  0  0  0  0  0  0
   11.2405  -14.9044   24.4768 O   0  0  0  0  0  0  0  0  0  0  0  0
    9.7642  -13.9170   29.4701 C   0  0  0  0  0  0  0  0  0  0  0  0
   10.5994  -14.9915   28.7553 C   0  0  2  0  0  0  0  0  0  0  0  0
   12.0296  -14.5459   28.8184 C   0  0  0  0  0  0  0  0  0  0  0  0
   10.0916  -15.2224   27.3826 C   0  0  0  0  0  0  0  0  0  0  0  0
   10.5566  -16.4597   26.6962 C   0  0  2  0  0  0  0  0  0  0  0  0
    9.9178  -16.5554   25.3718 N   0  0  0  0  0  0  0  0  0  0  0  0
   10.1766  -17.6691   27.4832 C   0  0  0  0  0  0  0  0  0  0  0  0
   10.8346  -18.0677   28.4618 O   0  0  0  0  0  0  0  0  0  0  0  0
    9.0407  -18.4126   27.1387 O   0  0  0  0  0  0  0  0  0  0  0  0
  2  1  1  6
  2  3  1  0
  3  4  1  0
  4  5  2  0
  6  2  1  0
  6  7  2  0
  8  4  1  0
  9 10  1  0
 10 11  1  0
 11 12  1  0
 13 12  1  1
 13 14  1  0
 14  6  1  0
 15 22  1  0
 15 13  1  0
 16 15  2  0
 18 20  1  0
 18 17  1  6
 19 18  1  0
 21 22  1  0
 21 20  1  1
 23 21  1  0
 24 23  2  0
 25 23  1  0
M  END
$$$$
