DML.pdb
     RDKit          3D

 25 24  0  0  1  0  0  0  0  0999 V2000
    8.3514  -19.2163   22.5484 N   0  0  0  0  0  0  0  0  0  0  0  0
    9.4300  -19.1022   21.5847 C   0  0  1  0  0  0  0  0  0  0  0  0
    8.8752  -19.5351   20.2381 C   0  0  0  0  0  0  0  0  0  0  0  0
    9.9352  -19.6454   19.2308 C   0  0  0  0  0  0  0  0  0  0  0  0
   10.8842  -18.8115   19.2917 O   0  0  0  0  0  0  0  0  0  0  0  0
    9.9262  -17.7022   21.5020 C   0  0  0  0  0  0  0  0  0  0  0  0
   11.1352  -17.4513   21.3377 O   0  0  0  0  0  0  0  0  0  0  0  0
    9.9858  -20.5828   18.2205 O   0  0  0  0  0  0  0  0  0  0  0  0
    6.7104  -12.9895   18.5638 C   0  0  0  0  0  0  0  0  0  0  0  0
    7.2573  -12.1168   20.0419 S   0  0  0  0  0  0  0  0  0  0  0  0
    8.6371  -12.9884   20.8291 C   0  0  0  0  0  0  0  0  0  0  0  0
    8.2821  -14.4519   20.8876 C   0  0  0  0  0  0  0  0  0  0  0  0
    9.3723  -15.2493   21.6157 C   0  0  2  0  0  0  0  0  0  0  0  0
    9.0215  -16.6357   21.6104 N   0  0  0  0  0  0  0  0  0  0  0  0
    9.3880  -14.7709   23.0226 C   0  0  0  0  0  0  0  0  0  0  0  0
    9.7124  -13.5772   23.2810 O   0  0  0  0  0  0  0  0  0  0  0  0
    5.8451  -12.8704   26.5689 C   0  0  0  0  0  0  0  0  0  0  0  0
    7.2149  -13.5552   26.7019 C   0  0  2  0  0  0  0  0  0  0  0  0
    8.1700  -12.5230   27.2219 C   0  0  0  0  0  0  0  0  0  0  0  0
    7.6204  -14.1700   25.4162 C   0  0  0  0  0  0  0  0  0  0  0  0
    8.8294  -15.0393   25.4417 C   0  0  2  0  0  0  0  0  0  0  0  0
    9.0471  -15.6161   24.1034 N   0  0  0  0  0  0  0  0  0  0  0  0
    8.6463  -16.1623   26.4069 C   0  0  0  0  0  0  0  0  0  0  0  0
    8.5273  -15.9818   27.6328 O   0  0  0  0  0  0  0  0  0  0  0  0
    8.6011  -17.4872   25.9548 O   0  0  0  0  0  0  0  0  0  0  0  0
  2  1  1  1
  2  3  1  0
  3  4  1  0
  4  5  2  0
  6  2  1  0
  6  7  2  0
  8  4  1  0
  9 10  1  0
 10 11  1  0
 11 12  1  0
 13 12  1  6
 13 14  1  0
 14  6  1  0
 15 22  1  0
 15 13  1  0
 16 15  2  0
 18 20  1  0
 18 17  1  6
 19 18  1  0
 21 22  1  0
 21 20  1  6
 23 21  1  0
 24 23  2  0
 25 23  1  0
M  END
$$$$
