DML.pdb
     RDKit          3D

 25 24  0  0  1  0  0  0  0  0999 V2000
   10.2748  -18.4435   19.8438 N   0  0  0  0  0  0  0  0  0  0  0  0
   11.3202  -17.5154   20.2323 C   0  0  1  0  0  0  0  0  0  0  0  0
   11.9213  -16.9569   18.9535 C   0  0  0  0  0  0  0  0  0  0  0  0
   13.1974  -17.6043   18.6326 C   0  0  0  0  0  0  0  0  0  0  0  0
   13.5893  -18.5297   19.4004 O   0  0  0  0  0  0  0  0  0  0  0  0
   10.7706  -16.4081   21.0597 C   0  0  0  0  0  0  0  0  0  0  0  0
   11.4965  -15.4818   21.4682 O   0  0  0  0  0  0  0  0  0  0  0  0
   14.0086  -17.2892   17.5626 O   0  0  0  0  0  0  0  0  0  0  0  0
    7.2168  -12.2487   19.1697 C   0  0  0  0  0  0  0  0  0  0  0  0
    7.7909  -13.2370   20.5622 S   0  0  0  0  0  0  0  0  0  0  0  0
    6.8985  -14.8119   20.6436 C   0  0  0  0  0  0  0  0  0  0  0  0
    7.2484  -15.4707   21.9531 C   0  0  0  0  0  0  0  0  0  0  0  0
    8.7609  -15.4151   22.2050 C   0  0  2  0  0  0  0  0  0  0  0  0
    9.4079  -16.3978   21.3921 N   0  0  0  0  0  0  0  0  0  0  0  0
    8.9724  -15.7689   23.6328 C   0  0  0  0  0  0  0  0  0  0  0  0
    9.4287  -16.9062   23.9416 O   0  0  0  0  0  0  0  0  0  0  0  0
    8.0329  -11.7326   27.0956 C   0  0  0  0  0  0  0  0  0  0  0  0
    7.7268  -13.0468   26.3594 C   0  0  2  0  0  0  0  0  0  0  0  0
    6.2352  -13.1985   26.3395 C   0  0  0  0  0  0  0  0  0  0  0  0
    8.4475  -14.1791   26.9869 C   0  0  0  0  0  0  0  0  0  0  0  0
    8.9117  -15.2636   26.0777 C   0  0  2  0  0  0  0  0  0  0  0  0
    8.6772  -14.8646   24.6788 N   0  0  0  0  0  0  0  0  0  0  0  0
    8.1530  -16.5224   26.3346 C   0  0  0  0  0  0  0  0  0  0  0  0
    8.3397  -17.2248   27.3453 O   0  0  0  0  0  0  0  0  0  0  0  0
    7.1835  -16.9654   25.4260 O   0  0  0  0  0  0  0  0  0  0  0  0
  2  1  1  6
  2  3  1  0
  3  4  1  0
  4  5  2  0
  6  2  1  0
  6  7  2  0
  8  4  1  0
  9 10  1  0
 10 11  1  0
 11 12  1  0
 13 12  1  6
 13 14  1  0
 14  6  1  0
 15 22  1  0
 15 13  1  0
 16 15  2  0
 18 20  1  0
 18 17  1  1
 19 18  1  0
 21 22  1  0
 21 20  1  1
 23 21  1  0
 24 23  2  0
 25 23  1  0
M  END
$$$$
