DML.pdb
     RDKit          3D

 25 24  0  0  1  0  0  0  0  0999 V2000
    8.2761  -17.7266   20.8416 N   0  0  0  0  0  0  0  0  0  0  0  0
    9.6579  -17.2948   20.7460 C   0  0  1  0  0  0  0  0  0  0  0  0
    9.8425  -16.6856   19.3664 C   0  0  0  0  0  0  0  0  0  0  0  0
    9.9800  -17.7202   18.3363 C   0  0  0  0  0  0  0  0  0  0  0  0
    9.8685  -18.9252   18.7041 O   0  0  0  0  0  0  0  0  0  0  0  0
    9.9757  -16.2861   21.7922 C   0  0  0  0  0  0  0  0  0  0  0  0
   11.0373  -15.6350   21.7641 O   0  0  0  0  0  0  0  0  0  0  0  0
   10.2213  -17.4910   16.9980 O   0  0  0  0  0  0  0  0  0  0  0  0
    6.3223  -12.4086   26.2215 C   0  0  0  0  0  0  0  0  0  0  0  0
    5.7165  -13.4175   24.8574 S   0  0  0  0  0  0  0  0  0  0  0  0
    7.0881  -13.9778   23.8143 C   0  0  0  0  0  0  0  0  0  0  0  0
    7.9423  -14.9064   24.6387 C   0  0  0  0  0  0  0  0  0  0  0  0
    9.2828  -15.1767   23.9429 C   0  0  2  0  0  0  0  0  0  0  0  0
    9.0674  -16.0563   22.8360 N   0  0  0  0  0  0  0  0  0  0  0  0
   10.1499  -15.8666   24.9332 C   0  0  0  0  0  0  0  0  0  0  0  0
   11.2647  -16.3419   24.5748 O   0  0  0  0  0  0  0  0  0  0  0  0
   11.6904  -13.6091   28.0093 C   0  0  0  0  0  0  0  0  0  0  0  0
   10.4214  -14.3914   28.3840 C   0  0  2  0  0  0  0  0  0  0  0  0
    9.8751  -13.7647   29.6318 C   0  0  0  0  0  0  0  0  0  0  0  0
   10.7148  -15.8387   28.5054 C   0  0  0  0  0  0  0  0  0  0  0  0
   10.7007  -16.6326   27.2454 C   0  0  2  0  0  0  0  0  0  0  0  0
    9.7683  -16.0141   26.2865 N   0  0  0  0  0  0  0  0  0  0  0  0
   10.2376  -18.0261   27.5100 C   0  0  0  0  0  0  0  0  0  0  0  0
    9.1378  -18.4549   27.1146 O   0  0  0  0  0  0  0  0  0  0  0  0
   11.0437  -18.9180   28.2286 O   0  0  0  0  0  0  0  0  0  0  0  0
  2  1  1  1
  2  3  1  0
  3  4  1  0
  4  5  2  0
  6  2  1  0
  6  7  2  0
  8  4  1  0
  9 10  1  0
 10 11  1  0
 11 12  1  0
 13 12  1  1
 13 14  1  0
 14  6  1  0
 15 22  1  0
 15 13  1  0
 16 15  2  0
 18 20  1  0
 18 17  1  1
 19 18  1  0
 21 22  1  0
 21 20  1  1
 23 21  1  0
 24 23  2  0
 25 23  1  0
M  END
$$$$
