DML.pdb
     RDKit          3D

 25 24  0  0  1  0  0  0  0  0999 V2000
    8.7565  -18.3711   20.1351 N   0  0  0  0  0  0  0  0  0  0  0  0
    8.0169  -17.1330   19.9768 C   0  0  1  0  0  0  0  0  0  0  0  0
    6.9267  -17.3905   18.9503 C   0  0  0  0  0  0  0  0  0  0  0  0
    7.4911  -17.7700   17.6511 C   0  0  0  0  0  0  0  0  0  0  0  0
    8.7471  -17.8997   17.5784 O   0  0  0  0  0  0  0  0  0  0  0  0
    7.4088  -16.7059   21.2655 C   0  0  0  0  0  0  0  0  0  0  0  0
    6.5512  -15.8035   21.3105 O   0  0  0  0  0  0  0  0  0  0  0  0
    6.7677  -17.9978   16.4993 O   0  0  0  0  0  0  0  0  0  0  0  0
    7.5695  -21.9416   24.4076 C   0  0  0  0  0  0  0  0  0  0  0  0
    6.2012  -20.8990   24.9428 S   0  0  0  0  0  0  0  0  0  0  0  0
    6.1402  -19.3704   23.9718 C   0  0  0  0  0  0  0  0  0  0  0  0
    7.1918  -18.4382   24.5165 C   0  0  0  0  0  0  0  0  0  0  0  0
    7.2022  -17.1144   23.7408 C   0  0  2  0  0  0  0  0  0  0  0  0
    7.8029  -17.3261   22.4604 N   0  0  0  0  0  0  0  0  0  0  0  0
    8.0528  -16.1708   24.5119 C   0  0  0  0  0  0  0  0  0  0  0  0
    9.3039  -16.1573   24.3340 O   0  0  0  0  0  0  0  0  0  0  0  0
    7.3797  -11.7598   24.8406 C   0  0  0  0  0  0  0  0  0  0  0  0
    6.6311  -12.5659   25.9143 C   0  0  2  0  0  0  0  0  0  0  0  0
    5.7158  -11.6097   26.6187 C   0  0  0  0  0  0  0  0  0  0  0  0
    7.5864  -13.2654   26.8051 C   0  0  0  0  0  0  0  0  0  0  0  0
    8.3945  -14.3574   26.1946 C   0  0  2  0  0  0  0  0  0  0  0  0
    7.5056  -15.2704   25.4546 N   0  0  0  0  0  0  0  0  0  0  0  0
    9.0931  -15.1453   27.2516 C   0  0  0  0  0  0  0  0  0  0  0  0
    8.7376  -16.2922   27.5799 O   0  0  0  0  0  0  0  0  0  0  0  0
   10.1975  -14.6078   27.9249 O   0  0  0  0  0  0  0  0  0  0  0  0
  2  1  1  1
  2  3  1  0
  3  4  1  0
  4  5  2  0
  6  2  1  0
  6  7  2  0
  8  4  1  0
  9 10  1  0
 10 11  1  0
 11 12  1  0
 13 12  1  1
 13 14  1  0
 14  6  1  0
 15 22  1  0
 15 13  1  0
 16 15  2  0
 18 20  1  0
 18 17  1  6
 19 18  1  0
 21 22  1  0
 21 20  1  1
 23 21  1  0
 24 23  2  0
 25 23  1  0
M  END
$$$$
