DML.pdb
     RDKit          3D

 25 24  0  0  1  0  0  0  0  0999 V2000
    9.1531  -17.8333   20.5230 N   0  0  0  0  0  0  0  0  0  0  0  0
    9.6036  -16.4659   20.3438 C   0  0  1  0  0  0  0  0  0  0  0  0
    8.7206  -15.8394   19.2777 C   0  0  0  0  0  0  0  0  0  0  0  0
    8.8424  -16.5439   17.9973 C   0  0  0  0  0  0  0  0  0  0  0  0
    7.8653  -17.2590   17.6319 O   0  0  0  0  0  0  0  0  0  0  0  0
    9.4909  -15.6961   21.6117 C   0  0  0  0  0  0  0  0  0  0  0  0
    9.2573  -14.4725   21.6090 O   0  0  0  0  0  0  0  0  0  0  0  0
    9.9340  -16.4932   17.1559 O   0  0  0  0  0  0  0  0  0  0  0  0
    6.6329  -11.8512   25.3900 C   0  0  0  0  0  0  0  0  0  0  0  0
    6.4153  -13.6164   25.6766 S   0  0  0  0  0  0  0  0  0  0  0  0
    8.0106  -14.4747   25.6397 C   0  0  0  0  0  0  0  0  0  0  0  0
    8.2039  -15.0250   24.2500 C   0  0  0  0  0  0  0  0  0  0  0  0
    9.5584  -15.7354   24.1278 C   0  0  2  0  0  0  0  0  0  0  0  0
    9.6494  -16.3528   22.8410 N   0  0  0  0  0  0  0  0  0  0  0  0
    9.5814  -16.7991   25.1652 C   0  0  0  0  0  0  0  0  0  0  0  0
    8.5016  -17.3331   25.5473 O   0  0  0  0  0  0  0  0  0  0  0  0
   10.1484  -15.5001   29.7486 C   0  0  0  0  0  0  0  0  0  0  0  0
   10.9111  -14.7781   28.6261 C   0  0  2  0  0  0  0  0  0  0  0  0
   10.5417  -13.3274   28.7108 C   0  0  0  0  0  0  0  0  0  0  0  0
   10.6285  -15.4047   27.3135 C   0  0  0  0  0  0  0  0  0  0  0  0
   11.1613  -16.7789   27.0991 C   0  0  2  0  0  0  0  0  0  0  0  0
   10.7878  -17.2451   25.7522 N   0  0  0  0  0  0  0  0  0  0  0  0
   10.5815  -17.7263   28.0955 C   0  0  0  0  0  0  0  0  0  0  0  0
    9.3782  -18.0450   28.0981 O   0  0  0  0  0  0  0  0  0  0  0  0
   11.3910  -18.3014   29.0833 O   0  0  0  0  0  0  0  0  0  0  0  0
  2  1  1  1
  2  3  1  0
  3  4  1  0
  4  5  2  0
  6  2  1  0
  6  7  2  0
  8  4  1  0
  9 10  1  0
 10 11  1  0
 11 12  1  0
 13 12  1  6
 13 14  1  0
 14  6  1  0
 15 22  1  0
 15 13  1  0
 16 15  2  0
 18 20  1  0
 18 17  1  1
 19 18  1  0
 21 22  1  0
 21 20  1  1
 23 21  1  0
 24 23  2  0
 25 23  1  0
M  END
$$$$
