DML.pdb
     RDKit          3D

 25 24  0  0  1  0  0  0  0  0999 V2000
    7.2204  -16.2799   20.4138 N   0  0  0  0  0  0  0  0  0  0  0  0
    8.6094  -16.6171   20.6630 C   0  0  1  0  0  0  0  0  0  0  0  0
    9.3995  -16.1982   19.4347 C   0  0  0  0  0  0  0  0  0  0  0  0
    9.3412  -17.2199   18.3844 C   0  0  0  0  0  0  0  0  0  0  0  0
    8.7044  -18.2821   18.6411 O   0  0  0  0  0  0  0  0  0  0  0  0
    9.1243  -15.9058   21.8638 C   0  0  0  0  0  0  0  0  0  0  0  0
   10.3248  -15.5888   21.9646 O   0  0  0  0  0  0  0  0  0  0  0  0
    9.9229  -17.1212   17.1378 O   0  0  0  0  0  0  0  0  0  0  0  0
    6.8448  -11.5024   27.9495 C   0  0  0  0  0  0  0  0  0  0  0  0
    6.4961  -12.3286   26.3870 S   0  0  0  0  0  0  0  0  0  0  0  0
    7.7037  -13.6421   26.0713 C   0  0  0  0  0  0  0  0  0  0  0  0
    7.3816  -14.2492   24.7300 C   0  0  0  0  0  0  0  0  0  0  0  0
    8.6174  -14.9316   24.1289 C   0  0  2  0  0  0  0  0  0  0  0  0
    8.2477  -15.5809   22.9094 N   0  0  0  0  0  0  0  0  0  0  0  0
    9.0533  -15.9666   25.1022 C   0  0  0  0  0  0  0  0  0  0  0  0
    8.2986  -16.9457   25.3644 O   0  0  0  0  0  0  0  0  0  0  0  0
   11.8134  -19.2428   25.0152 C   0  0  0  0  0  0  0  0  0  0  0  0
   12.5083  -17.8860   25.2133 C   0  0  2  0  0  0  0  0  0  0  0  0
   13.9796  -18.1207   25.0446 C   0  0  0  0  0  0  0  0  0  0  0  0
   12.1305  -17.2891   26.5157 C   0  0  0  0  0  0  0  0  0  0  0  0
   10.6916  -16.9552   26.7068 C   0  0  2  0  0  0  0  0  0  0  0  0
   10.3037  -15.8964   25.7583 N   0  0  0  0  0  0  0  0  0  0  0  0
   10.4508  -16.4502   28.0900 C   0  0  0  0  0  0  0  0  0  0  0  0
   10.1279  -15.2717   28.3281 O   0  0  0  0  0  0  0  0  0  0  0  0
   10.5832  -17.3052   29.1914 O   0  0  0  0  0  0  0  0  0  0  0  0
  2  1  1  6
  2  3  1  0
  3  4  1  0
  4  5  2  0
  6  2  1  0
  6  7  2  0
  8  4  1  0
  9 10  1  0
 10 11  1  0
 11 12  1  0
 13 12  1  1
 13 14  1  0
 14  6  1  0
 15 22  1  0
 15 13  1  0
 16 15  2  0
 18 20  1  0
 18 17  1  1
 19 18  1  0
 21 22  1  0
 21 20  1  1
 23 21  1  0
 24 23  2  0
 25 23  1  0
M  END
$$$$
