DML.pdb
     RDKit          3D

 25 24  0  0  1  0  0  0  0  0999 V2000
    9.2536  -17.5914   20.5481 N   0  0  0  0  0  0  0  0  0  0  0  0
   10.5573  -17.1899   21.0423 C   0  0  1  0  0  0  0  0  0  0  0  0
   11.2155  -16.3639   19.9501 C   0  0  0  0  0  0  0  0  0  0  0  0
   11.4752  -17.1679   18.7515 C   0  0  0  0  0  0  0  0  0  0  0  0
   10.4888  -17.4379   18.0074 O   0  0  0  0  0  0  0  0  0  0  0  0
   10.4314  -16.3801   22.2839 C   0  0  0  0  0  0  0  0  0  0  0  0
   11.3977  -15.7418   22.7425 O   0  0  0  0  0  0  0  0  0  0  0  0
   12.7061  -17.6559   18.3656 O   0  0  0  0  0  0  0  0  0  0  0  0
    7.0745  -11.9036   25.0294 C   0  0  0  0  0  0  0  0  0  0  0  0
    6.0817  -13.3792   25.3168 S   0  0  0  0  0  0  0  0  0  0  0  0
    7.1391  -14.8018   25.6927 C   0  0  0  0  0  0  0  0  0  0  0  0
    7.4424  -15.5042   24.3943 C   0  0  0  0  0  0  0  0  0  0  0  0
    8.9570  -15.6204   24.1774 C   0  0  2  0  0  0  0  0  0  0  0  0
    9.2031  -16.3280   22.9592 N   0  0  0  0  0  0  0  0  0  0  0  0
    9.4929  -16.4234   25.3072 C   0  0  0  0  0  0  0  0  0  0  0  0
    9.6090  -17.6766   25.1931 O   0  0  0  0  0  0  0  0  0  0  0  0
   10.7475  -13.4631   27.6914 C   0  0  0  0  0  0  0  0  0  0  0  0
   10.2848  -14.4565   28.7695 C   0  0  2  0  0  0  0  0  0  0  0  0
   10.4366  -13.7668   30.0922 C   0  0  0  0  0  0  0  0  0  0  0  0
   11.0272  -15.7340   28.6580 C   0  0  0  0  0  0  0  0  0  0  0  0
   10.7172  -16.5875   27.4775 C   0  0  2  0  0  0  0  0  0  0  0  0
    9.8854  -15.8277   26.5278 N   0  0  0  0  0  0  0  0  0  0  0  0
    9.9552  -17.8006   27.8945 C   0  0  0  0  0  0  0  0  0  0  0  0
   10.4736  -18.7310   28.5391 O   0  0  0  0  0  0  0  0  0  0  0  0
    8.6001  -17.9356   27.5670 O   0  0  0  0  0  0  0  0  0  0  0  0
  2  1  1  6
  2  3  1  0
  3  4  1  0
  4  5  2  0
  6  2  1  0
  6  7  2  0
  8  4  1  0
  9 10  1  0
 10 11  1  0
 11 12  1  0
 13 12  1  1
 13 14  1  0
 14  6  1  0
 15 22  1  0
 15 13  1  0
 16 15  2  0
 18 20  1  0
 18 17  1  6
 19 18  1  0
 21 22  1  0
 21 20  1  1
 23 21  1  0
 24 23  2  0
 25 23  1  0
M  END
$$$$
