DML.pdb
     RDKit          3D

 25 24  0  0  1  0  0  0  0  0999 V2000
   10.1802  -16.3764   18.9779 N   0  0  0  0  0  0  0  0  0  0  0  0
   10.5387  -16.9091   20.2790 C   0  0  1  0  0  0  0  0  0  0  0  0
   12.0359  -17.1668   20.2606 C   0  0  0  0  0  0  0  0  0  0  0  0
   12.3773  -18.2866   19.3774 C   0  0  0  0  0  0  0  0  0  0  0  0
   11.5412  -19.2312   19.2863 O   0  0  0  0  0  0  0  0  0  0  0  0
   10.2037  -15.9451   21.3614 C   0  0  0  0  0  0  0  0  0  0  0  0
   10.5677  -14.7551   21.3055 O   0  0  0  0  0  0  0  0  0  0  0  0
   13.5349  -18.3979   18.6360 O   0  0  0  0  0  0  0  0  0  0  0  0
    6.0555  -12.8984   25.7282 C   0  0  0  0  0  0  0  0  0  0  0  0
    7.2761  -13.1357   24.4247 S   0  0  0  0  0  0  0  0  0  0  0  0
    6.7563  -14.4482   23.2889 C   0  0  0  0  0  0  0  0  0  0  0  0
    7.4808  -15.7097   23.6826 C   0  0  0  0  0  0  0  0  0  0  0  0
    8.9981  -15.5370   23.5331 C   0  0  2  0  0  0  0  0  0  0  0  0
    9.4629  -16.3756   22.4720 N   0  0  0  0  0  0  0  0  0  0  0  0
    9.6111  -16.0004   24.8051 C   0  0  0  0  0  0  0  0  0  0  0  0
    9.8909  -17.2225   24.9637 O   0  0  0  0  0  0  0  0  0  0  0  0
   10.2675  -13.8293   30.5619 C   0  0  0  0  0  0  0  0  0  0  0  0
   10.5794  -14.9760   29.5869 C   0  0  2  0  0  0  0  0  0  0  0  0
   12.0065  -15.3718   29.8211 C   0  0  0  0  0  0  0  0  0  0  0  0
   10.2777  -14.5751   28.1928 C   0  0  0  0  0  0  0  0  0  0  0  0
   10.3772  -15.6378   27.1541 C   0  0  2  0  0  0  0  0  0  0  0  0
    9.8988  -15.1095   25.8644 N   0  0  0  0  0  0  0  0  0  0  0  0
    9.5274  -16.8084   27.5200 C   0  0  0  0  0  0  0  0  0  0  0  0
    8.2867  -16.7957   27.4183 O   0  0  0  0  0  0  0  0  0  0  0  0
   10.1111  -17.9872   28.0010 O   0  0  0  0  0  0  0  0  0  0  0  0
  2  1  1  6
  2  3  1  0
  3  4  1  0
  4  5  2  0
  6  2  1  0
  6  7  2  0
  8  4  1  0
  9 10  1  0
 10 11  1  0
 11 12  1  0
 13 12  1  1
 13 14  1  0
 14  6  1  0
 15 22  1  0
 15 13  1  0
 16 15  2  0
 18 20  1  0
 18 17  1  1
 19 18  1  0
 21 22  1  0
 21 20  1  1
 23 21  1  0
 24 23  2  0
 25 23  1  0
M  END
$$$$
