DML.pdb
     RDKit          3D

 25 24  0  0  1  0  0  0  0  0999 V2000
    7.1571  -18.7732   21.8991 N   0  0  0  0  0  0  0  0  0  0  0  0
    8.2710  -18.9305   20.9829 C   0  0  1  0  0  0  0  0  0  0  0  0
    7.6860  -19.2459   19.6165 C   0  0  0  0  0  0  0  0  0  0  0  0
    8.7386  -19.4895   18.6249 C   0  0  0  0  0  0  0  0  0  0  0  0
    9.6477  -20.3132   18.9324 O   0  0  0  0  0  0  0  0  0  0  0  0
    9.0833  -17.6863   20.9114 C   0  0  0  0  0  0  0  0  0  0  0  0
   10.1836  -17.6628   20.3279 O   0  0  0  0  0  0  0  0  0  0  0  0
    8.8219  -18.8957   17.3829 O   0  0  0  0  0  0  0  0  0  0  0  0
    7.7227  -11.5438   19.6193 C   0  0  0  0  0  0  0  0  0  0  0  0
    7.1789  -13.0999   18.8923 S   0  0  0  0  0  0  0  0  0  0  0  0
    8.1350  -14.4883   19.5568 C   0  0  0  0  0  0  0  0  0  0  0  0
    8.4989  -14.1553   20.9809 C   0  0  0  0  0  0  0  0  0  0  0  0
    9.3324  -15.2804   21.6085 C   0  0  2  0  0  0  0  0  0  0  0  0
    8.6090  -16.5101   21.5106 N   0  0  0  0  0  0  0  0  0  0  0  0
    9.4980  -14.9423   23.0461 C   0  0  0  0  0  0  0  0  0  0  0  0
   10.1744  -13.9296   23.3837 O   0  0  0  0  0  0  0  0  0  0  0  0
    6.0129  -13.0352   26.9443 C   0  0  0  0  0  0  0  0  0  0  0  0
    7.3686  -13.7593   26.9161 C   0  0  2  0  0  0  0  0  0  0  0  0
    8.4051  -12.7611   27.3372 C   0  0  0  0  0  0  0  0  0  0  0  0
    7.6104  -14.3671   25.5866 C   0  0  0  0  0  0  0  0  0  0  0  0
    8.8408  -15.1937   25.4422 C   0  0  2  0  0  0  0  0  0  0  0  0
    8.9166  -15.7250   24.0699 N   0  0  0  0  0  0  0  0  0  0  0  0
    8.8089  -16.3489   26.3860 C   0  0  0  0  0  0  0  0  0  0  0  0
    8.5833  -16.2161   27.6030 O   0  0  0  0  0  0  0  0  0  0  0  0
    9.0370  -17.6509   25.9229 O   0  0  0  0  0  0  0  0  0  0  0  0
  2  1  1  1
  2  3  1  0
  3  4  1  0
  4  5  2  0
  6  2  1  0
  6  7  2  0
  8  4  1  0
  9 10  1  0
 10 11  1  0
 11 12  1  0
 13 12  1  6
 13 14  1  0
 14  6  1  0
 15 22  1  0
 15 13  1  0
 16 15  2  0
 18 20  1  0
 18 17  1  6
 19 18  1  0
 21 22  1  0
 21 20  1  6
 23 21  1  0
 24 23  2  0
 25 23  1  0
M  END
$$$$
