DML.pdb
     RDKit          3D

 25 24  0  0  1  0  0  0  0  0999 V2000
    8.3031  -17.6687   20.6913 N   0  0  0  0  0  0  0  0  0  0  0  0
    9.6551  -17.1424   20.6961 C   0  0  1  0  0  0  0  0  0  0  0  0
    9.8923  -16.5044   19.3378 C   0  0  0  0  0  0  0  0  0  0  0  0
    9.9350  -17.5106   18.2718 C   0  0  0  0  0  0  0  0  0  0  0  0
   10.6252  -18.5497   18.4805 O   0  0  0  0  0  0  0  0  0  0  0  0
    9.8292  -16.1277   21.7700 C   0  0  0  0  0  0  0  0  0  0  0  0
   10.7782  -15.3210   21.7523 O   0  0  0  0  0  0  0  0  0  0  0  0
    9.2854  -17.4204   17.0586 O   0  0  0  0  0  0  0  0  0  0  0  0
    6.2026  -11.2500   26.2863 C   0  0  0  0  0  0  0  0  0  0  0  0
    6.0506  -12.9264   25.6443 S   0  0  0  0  0  0  0  0  0  0  0  0
    7.6819  -13.6919   25.4543 C   0  0  0  0  0  0  0  0  0  0  0  0
    7.6341  -14.5783   24.2364 C   0  0  0  0  0  0  0  0  0  0  0  0
    9.0077  -15.2051   23.9633 C   0  0  2  0  0  0  0  0  0  0  0  0
    8.9108  -16.0703   22.8287 N   0  0  0  0  0  0  0  0  0  0  0  0
    9.3511  -16.0243   25.1546 C   0  0  0  0  0  0  0  0  0  0  0  0
    8.4604  -16.7168   25.7240 O   0  0  0  0  0  0  0  0  0  0  0  0
   11.5849  -14.0455   28.3792 C   0  0  0  0  0  0  0  0  0  0  0  0
   10.1200  -14.4289   28.1150 C   0  0  2  0  0  0  0  0  0  0  0  0
    9.3032  -13.8120   29.2107 C   0  0  0  0  0  0  0  0  0  0  0  0
    9.9758  -15.8990   27.9994 C   0  0  0  0  0  0  0  0  0  0  0  0
   10.8858  -16.5877   27.0424 C   0  0  2  0  0  0  0  0  0  0  0  0
   10.6611  -16.0595   25.6853 N   0  0  0  0  0  0  0  0  0  0  0  0
   10.6104  -18.0540   27.0213 C   0  0  0  0  0  0  0  0  0  0  0  0
    9.7300  -18.5618   26.3024 O   0  0  0  0  0  0  0  0  0  0  0  0
   11.3505  -18.9274   27.8281 O   0  0  0  0  0  0  0  0  0  0  0  0
  2  1  1  6
  2  3  1  0
  3  4  1  0
  4  5  2  0
  6  2  1  0
  6  7  2  0
  8  4  1  0
  9 10  1  0
 10 11  1  0
 11 12  1  0
 13 12  1  1
 13 14  1  0
 14  6  1  0
 15 22  1  0
 15 13  1  0
 16 15  2  0
 18 20  1  0
 18 17  1  1
 19 18  1  0
 21 22  1  0
 21 20  1  1
 23 21  1  0
 24 23  2  0
 25 23  1  0
M  END
$$$$
