EAT.pdb
     RDKit          3D

 22 21  0  0  1  0  0  0  0  0999 V2000
   18.3239  -12.9909  -15.8330 N   0  0  0  0  0  0  0  0  0  0  0  0
   18.0156  -11.6410  -16.2431 C   0  0  1  0  0  0  0  0  0  0  0  0
   16.7785  -11.1992  -15.4966 C   0  0  0  0  0  0  0  0  0  0  0  0
   15.5689  -12.0187  -15.8815 C   0  0  0  0  0  0  0  0  0  0  0  0
   14.3229  -11.5638  -15.2498 C   0  0  0  0  0  0  0  0  0  0  0  0
   13.2107  -12.1146  -15.4854 O   0  0  0  0  0  0  0  0  0  0  0  0
   19.1524  -10.7202  -16.0224 C   0  0  0  0  0  0  0  0  0  0  0  0
   19.8081  -10.7465  -14.9560 O   0  0  0  0  0  0  0  0  0  0  0  0
   14.3262  -10.4926  -14.3559 O   0  0  0  0  0  0  0  0  0  0  0  0
   20.9024   -8.3549  -18.3308 C   0  0  0  0  0  0  0  0  0  0  0  0
   20.6389   -8.9040  -16.9336 C   0  0  2  0  0  0  0  0  0  0  0  0
   19.5096   -9.7892  -17.0337 N   0  0  0  0  0  0  0  0  0  0  0  0
   20.3869   -7.7715  -16.0089 C   0  0  0  0  0  0  0  0  0  0  0  0
   19.2490   -7.2429  -15.9849 O   0  0  0  0  0  0  0  0  0  0  0  0
   20.1793   -7.7995  -12.5318 C   0  0  0  0  0  0  0  0  0  0  0  0
   21.1837   -6.7298  -12.8076 C   0  0  1  0  0  0  0  0  0  0  0  0
   22.4500   -7.2291  -12.5067 O   0  0  0  0  0  0  0  0  0  0  0  0
   21.1222   -6.1773  -14.2006 C   0  0  2  0  0  0  0  0  0  0  0  0
   21.3807   -7.2488  -15.1386 N   0  0  0  0  0  0  0  0  0  0  0  0
   22.0194   -5.0648  -14.4562 C   0  0  0  0  0  0  0  0  0  0  0  0
   22.9291   -5.1934  -15.3138 O   0  0  0  0  0  0  0  0  0  0  0  0
   21.9593   -3.8294  -13.8152 O   0  0  0  0  0  0  0  0  0  0  0  0
  2  7  1  0
  2  1  1  1
  3  2  1  0
  4  5  1  0
  4  3  1  0
  5  9  1  0
  6  5  2  0
  7 12  1  0
  8  7  2  0
 11 10  1  6
 11 13  1  0
 12 11  1  0
 13 14  2  0
 13 19  1  0
 16 15  1  6
 17 16  1  0
 18 20  1  0
 18 16  1  0
 18 19  1  6
 20 22  1  0
 21 20  2  0
M  END
$$$$
