EAT.pdb
     RDKit          3D

 22 21  0  0  1  0  0  0  0  0999 V2000
   21.5573  -17.8496  -17.8313 N   0  0  0  0  0  0  0  0  0  0  0  0
   21.2804  -16.9853  -16.7080 C   0  0  1  0  0  0  0  0  0  0  0  0
   21.0711  -15.5861  -17.2382 C   0  0  0  0  0  0  0  0  0  0  0  0
   19.7822  -15.4689  -18.0176 C   0  0  0  0  0  0  0  0  0  0  0  0
   19.5482  -14.1289  -18.5728 C   0  0  0  0  0  0  0  0  0  0  0  0
   20.3780  -13.5661  -19.3413 O   0  0  0  0  0  0  0  0  0  0  0  0
   20.1216  -17.4558  -15.9177 C   0  0  0  0  0  0  0  0  0  0  0  0
   19.1730  -18.0661  -16.4616 O   0  0  0  0  0  0  0  0  0  0  0  0
   18.3850  -13.4225  -18.2651 O   0  0  0  0  0  0  0  0  0  0  0  0
   19.3386  -17.2006  -12.2539 C   0  0  0  0  0  0  0  0  0  0  0  0
   18.9826  -17.6115  -13.6778 C   0  0  2  0  0  0  0  0  0  0  0  0
   20.0795  -17.2136  -14.5189 N   0  0  0  0  0  0  0  0  0  0  0  0
   17.7089  -16.9570  -14.0655 C   0  0  0  0  0  0  0  0  0  0  0  0
   17.7354  -15.7866  -14.5175 O   0  0  0  0  0  0  0  0  0  0  0  0
   14.0841  -19.2089  -14.6248 C   0  0  0  0  0  0  0  0  0  0  0  0
   14.4789  -17.9260  -15.2784 C   0  0  1  0  0  0  0  0  0  0  0  0
   13.3368  -17.3425  -15.8247 O   0  0  0  0  0  0  0  0  0  0  0  0
   15.2076  -16.9773  -14.3737 C   0  0  2  0  0  0  0  0  0  0  0  0
   16.4454  -17.5959  -13.9495 N   0  0  0  0  0  0  0  0  0  0  0  0
   14.4506  -16.5341  -13.2168 C   0  0  0  0  0  0  0  0  0  0  0  0
   14.8274  -16.8765  -12.0678 O   0  0  0  0  0  0  0  0  0  0  0  0
   13.3083  -15.7384  -13.2693 O   0  0  0  0  0  0  0  0  0  0  0  0
  2  7  1  0
  2  1  1  6
  3  2  1  0
  4  5  1  0
  4  3  1  0
  5  9  1  0
  6  5  2  0
  7 12  1  0
  8  7  2  0
 11 10  1  1
 11 13  1  0
 12 11  1  0
 13 14  2  0
 13 19  1  0
 16 15  1  1
 17 16  1  0
 18 20  1  0
 18 16  1  0
 18 19  1  1
 20 22  1  0
 21 20  2  0
M  END
$$$$
