EAT.pdb
     RDKit          3D

 22 21  0  0  1  0  0  0  0  0999 V2000
   14.5093  -11.8614  -17.9225 N   0  0  0  0  0  0  0  0  0  0  0  0
   14.7412  -10.9210  -16.8514 C   0  0  1  0  0  0  0  0  0  0  0  0
   14.6712  -11.6772  -15.5452 C   0  0  0  0  0  0  0  0  0  0  0  0
   15.4759  -12.9550  -15.5934 C   0  0  0  0  0  0  0  0  0  0  0  0
   15.5701  -13.6420  -14.2981 C   0  0  0  0  0  0  0  0  0  0  0  0
   15.6912  -13.0108  -13.2105 O   0  0  0  0  0  0  0  0  0  0  0  0
   16.0275  -10.2069  -17.0081 C   0  0  0  0  0  0  0  0  0  0  0  0
   17.0446  -10.7946  -17.4418 O   0  0  0  0  0  0  0  0  0  0  0  0
   15.5289  -15.0347  -14.2248 O   0  0  0  0  0  0  0  0  0  0  0  0
   16.9497   -6.6042  -16.5243 C   0  0  0  0  0  0  0  0  0  0  0  0
   17.3220   -8.0592  -16.7842 C   0  0  2  0  0  0  0  0  0  0  0  0
   16.1152   -8.8322  -16.6621 N   0  0  0  0  0  0  0  0  0  0  0  0
   18.3586   -8.4747  -15.8075 C   0  0  0  0  0  0  0  0  0  0  0  0
   18.0027   -8.9874  -14.7188 O   0  0  0  0  0  0  0  0  0  0  0  0
   23.0212   -9.8253  -14.9794 C   0  0  0  0  0  0  0  0  0  0  0  0
   21.9073   -9.3450  -15.8498 C   0  0  1  0  0  0  0  0  0  0  0  0
   21.4889  -10.4057  -16.6518 O   0  0  0  0  0  0  0  0  0  0  0  0
   20.7628   -8.7338  -15.0974 C   0  0  2  0  0  0  0  0  0  0  0  0
   19.7505   -8.3194  -16.0451 N   0  0  0  0  0  0  0  0  0  0  0  0
   21.1230   -7.6221  -14.2358 C   0  0  0  0  0  0  0  0  0  0  0  0
   21.2247   -6.4705  -14.7287 O   0  0  0  0  0  0  0  0  0  0  0  0
   21.3734   -7.7221  -12.8691 O   0  0  0  0  0  0  0  0  0  0  0  0
  2  7  1  0
  2  1  1  6
  3  2  1  0
  4  5  1  0
  4  3  1  0
  5  9  1  0
  6  5  2  0
  7 12  1  0
  8  7  2  0
 11 10  1  1
 11 13  1  0
 12 11  1  0
 13 14  2  0
 13 19  1  0
 16 15  1  1
 17 16  1  0
 18 20  1  0
 18 16  1  0
 18 19  1  6
 20 22  1  0
 21 20  2  0
M  END
$$$$
