EAT.pdb
     RDKit          3D

 22 21  0  0  1  0  0  0  0  0999 V2000
   13.0141  -11.7293  -13.9084 N   0  0  0  0  0  0  0  0  0  0  0  0
   13.8952  -11.5592  -12.7769 C   0  0  1  0  0  0  0  0  0  0  0  0
   15.3175  -11.6750  -13.2734 C   0  0  0  0  0  0  0  0  0  0  0  0
   15.6506  -13.0867  -13.6960 C   0  0  0  0  0  0  0  0  0  0  0  0
   16.9723  -13.2183  -14.3239 C   0  0  0  0  0  0  0  0  0  0  0  0
   17.1203  -13.2424  -15.5783 O   0  0  0  0  0  0  0  0  0  0  0  0
   13.6574  -10.2784  -12.0756 C   0  0  0  0  0  0  0  0  0  0  0  0
   13.5388   -9.2057  -12.7106 O   0  0  0  0  0  0  0  0  0  0  0  0
   18.1249  -13.3229  -13.5447 O   0  0  0  0  0  0  0  0  0  0  0  0
   12.8458   -9.5120   -8.5121 C   0  0  0  0  0  0  0  0  0  0  0  0
   13.3020   -9.0678   -9.8969 C   0  0  2  0  0  0  0  0  0  0  0  0
   13.5615  -10.2599  -10.6587 N   0  0  0  0  0  0  0  0  0  0  0  0
   14.5077   -8.2144   -9.7578 C   0  0  0  0  0  0  0  0  0  0  0  0
   15.6342   -8.7586   -9.6589 O   0  0  0  0  0  0  0  0  0  0  0  0
   16.9545   -4.2765  -10.9398 C   0  0  0  0  0  0  0  0  0  0  0  0
   15.8599   -5.2919  -10.9536 C   0  0  1  0  0  0  0  0  0  0  0  0
   16.1336   -6.2180  -11.9590 O   0  0  0  0  0  0  0  0  0  0  0  0
   15.6293   -5.9610   -9.6313 C   0  0  2  0  0  0  0  0  0  0  0  0
   14.4508   -6.7952   -9.7305 N   0  0  0  0  0  0  0  0  0  0  0  0
   15.5051   -5.0561   -8.5027 C   0  0  0  0  0  0  0  0  0  0  0  0
   14.3731   -4.6006   -8.2019 O   0  0  0  0  0  0  0  0  0  0  0  0
   16.5622   -4.6352   -7.6991 O   0  0  0  0  0  0  0  0  0  0  0  0
  2  7  1  0
  2  1  1  6
  3  2  1  0
  4  5  1  0
  4  3  1  0
  5  9  1  0
  6  5  2  0
  7 12  1  0
  8  7  2  0
 11 10  1  1
 11 13  1  0
 12 11  1  0
 13 14  2  0
 13 19  1  0
 16 15  1  1
 17 16  1  0
 18 20  1  0
 18 16  1  0
 18 19  1  6
 20 22  1  0
 21 20  2  0
M  END
$$$$
