EAT.pdb
     RDKit          3D

 22 21  0  0  1  0  0  0  0  0999 V2000
   17.7797  -11.6806  -17.1986 N   0  0  0  0  0  0  0  0  0  0  0  0
   17.3330  -10.7346  -16.2031 C   0  0  1  0  0  0  0  0  0  0  0  0
   17.5601  -11.3497  -14.8419 C   0  0  0  0  0  0  0  0  0  0  0  0
   16.6669  -12.5462  -14.6113 C   0  0  0  0  0  0  0  0  0  0  0  0
   15.2837  -12.1919  -14.2651 C   0  0  0  0  0  0  0  0  0  0  0  0
   15.0113  -11.3703  -13.3449 O   0  0  0  0  0  0  0  0  0  0  0  0
   18.0094   -9.4257  -16.3377 C   0  0  0  0  0  0  0  0  0  0  0  0
   19.2505   -9.3516  -16.4865 O   0  0  0  0  0  0  0  0  0  0  0  0
   14.2092  -12.7594  -14.9505 O   0  0  0  0  0  0  0  0  0  0  0  0
   16.6314   -5.9522  -16.6355 C   0  0  0  0  0  0  0  0  0  0  0  0
   17.8004   -6.9233  -16.5183 C   0  0  2  0  0  0  0  0  0  0  0  0
   17.2429   -8.2307  -16.2980 N   0  0  0  0  0  0  0  0  0  0  0  0
   18.6786   -6.4901  -15.4038 C   0  0  0  0  0  0  0  0  0  0  0  0
   18.3946   -6.8359  -14.2313 O   0  0  0  0  0  0  0  0  0  0  0  0
   23.2122   -5.5819  -13.9535 C   0  0  0  0  0  0  0  0  0  0  0  0
   22.1403   -5.8637  -14.9538 C   0  0  1  0  0  0  0  0  0  0  0  0
   22.1521   -7.2288  -15.2364 O   0  0  0  0  0  0  0  0  0  0  0  0
   20.7774   -5.3954  -14.5384 C   0  0  2  0  0  0  0  0  0  0  0  0
   19.8388   -5.6939  -15.5990 N   0  0  0  0  0  0  0  0  0  0  0  0
   20.6967   -3.9898  -14.1835 C   0  0  0  0  0  0  0  0  0  0  0  0
   20.4218   -3.1460  -15.0733 O   0  0  0  0  0  0  0  0  0  0  0  0
   20.9037   -3.4781  -12.9044 O   0  0  0  0  0  0  0  0  0  0  0  0
  2  7  1  0
  2  1  1  6
  3  2  1  0
  4  5  1  0
  4  3  1  0
  5  9  1  0
  6  5  2  0
  7 12  1  0
  8  7  2  0
 11 10  1  1
 11 13  1  0
 12 11  1  0
 13 14  2  0
 13 19  1  0
 16 15  1  1
 17 16  1  0
 18 20  1  0
 18 16  1  0
 18 19  1  6
 20 22  1  0
 21 20  2  0
M  END
$$$$
