EAT.pdb
     RDKit          3D

 22 21  0  0  1  0  0  0  0  0999 V2000
   17.6318  -11.5162  -16.2714 N   0  0  0  0  0  0  0  0  0  0  0  0
   18.8377  -10.8787  -16.7455 C   0  0  1  0  0  0  0  0  0  0  0  0
   18.4548   -9.9237  -17.8520 C   0  0  0  0  0  0  0  0  0  0  0  0
   18.1813  -10.6490  -19.1488 C   0  0  0  0  0  0  0  0  0  0  0  0
   17.7809   -9.7607  -20.2484 C   0  0  0  0  0  0  0  0  0  0  0  0
   17.5578  -10.1937  -21.4140 O   0  0  0  0  0  0  0  0  0  0  0  0
   19.5705  -10.1967  -15.6561 C   0  0  0  0  0  0  0  0  0  0  0  0
   18.9678   -9.4962  -14.8111 O   0  0  0  0  0  0  0  0  0  0  0  0
   17.6319   -8.3894  -20.0393 O   0  0  0  0  0  0  0  0  0  0  0  0
   23.1739  -10.2403  -14.6351 C   0  0  0  0  0  0  0  0  0  0  0  0
   21.7900   -9.6019  -14.6271 C   0  0  2  0  0  0  0  0  0  0  0  0
   20.9809  -10.3356  -15.5630 N   0  0  0  0  0  0  0  0  0  0  0  0
   21.9164   -8.1697  -14.9933 C   0  0  0  0  0  0  0  0  0  0  0  0
   22.0351   -7.8557  -16.2025 O   0  0  0  0  0  0  0  0  0  0  0  0
   19.4772   -5.6333  -13.9240 C   0  0  0  0  0  0  0  0  0  0  0  0
   20.5819   -5.3161  -14.8770 C   0  0  1  0  0  0  0  0  0  0  0  0
   20.5259   -3.9557  -15.1761 O   0  0  0  0  0  0  0  0  0  0  0  0
   21.9424   -5.7219  -14.3935 C   0  0  2  0  0  0  0  0  0  0  0  0
   21.9099   -7.1232  -14.0326 N   0  0  0  0  0  0  0  0  0  0  0  0
   22.4571   -4.9348  -13.2873 C   0  0  0  0  0  0  0  0  0  0  0  0
   22.6570   -3.7047  -13.4489 O   0  0  0  0  0  0  0  0  0  0  0  0
   22.7581   -5.4382  -12.0237 O   0  0  0  0  0  0  0  0  0  0  0  0
  2  7  1  0
  2  1  1  1
  3  2  1  0
  4  5  1  0
  4  3  1  0
  5  9  1  0
  6  5  2  0
  7 12  1  0
  8  7  2  0
 11 10  1  6
 11 13  1  0
 12 11  1  0
 13 14  2  0
 13 19  1  0
 16 15  1  1
 17 16  1  0
 18 20  1  0
 18 16  1  0
 18 19  1  1
 20 22  1  0
 21 20  2  0
M  END
$$$$
