EAT.pdb
     RDKit          3D

 22 21  0  0  1  0  0  0  0  0999 V2000
   15.5593  -10.3089  -12.6121 N   0  0  0  0  0  0  0  0  0  0  0  0
   16.3128   -9.1429  -12.2146 C   0  0  1  0  0  0  0  0  0  0  0  0
   16.8426   -8.4826  -13.4661 C   0  0  0  0  0  0  0  0  0  0  0  0
   17.9296   -9.3057  -14.1170 C   0  0  0  0  0  0  0  0  0  0  0  0
   19.2806   -8.9831  -13.6382 C   0  0  0  0  0  0  0  0  0  0  0  0
   19.4920   -8.0739  -12.7869 O   0  0  0  0  0  0  0  0  0  0  0  0
   15.5043   -8.2109  -11.3982 C   0  0  0  0  0  0  0  0  0  0  0  0
   14.4494   -7.7068  -11.8466 O   0  0  0  0  0  0  0  0  0  0  0  0
   20.3915   -9.6797  -14.1149 O   0  0  0  0  0  0  0  0  0  0  0  0
   15.4373   -7.3607   -7.8097 C   0  0  0  0  0  0  0  0  0  0  0  0
   15.2582   -6.9122   -9.2554 C   0  0  2  0  0  0  0  0  0  0  0  0
   15.9274   -7.8792  -10.0836 N   0  0  0  0  0  0  0  0  0  0  0  0
   15.8228   -5.5492   -9.4119 C   0  0  0  0  0  0  0  0  0  0  0  0
   17.0672   -5.4081   -9.4928 O   0  0  0  0  0  0  0  0  0  0  0  0
   13.3349   -2.4467  -10.8055 C   0  0  0  0  0  0  0  0  0  0  0  0
   14.8141   -2.5340  -10.9882 C   0  0  1  0  0  0  0  0  0  0  0  0
   15.2855   -1.2748  -11.3564 O   0  0  0  0  0  0  0  0  0  0  0  0
   15.5471   -3.0736   -9.7962 C   0  0  2  0  0  0  0  0  0  0  0  0
   15.0164   -4.3814   -9.4756 N   0  0  0  0  0  0  0  0  0  0  0  0
   15.5133   -2.2211   -8.6214 C   0  0  0  0  0  0  0  0  0  0  0  0
   16.0785   -1.0993   -8.6597 O   0  0  0  0  0  0  0  0  0  0  0  0
   14.8907   -2.5467   -7.4185 O   0  0  0  0  0  0  0  0  0  0  0  0
  2  7  1  0
  2  1  1  6
  3  2  1  0
  4  5  1  0
  4  3  1  0
  5  9  1  0
  6  5  2  0
  7 12  1  0
  8  7  2  0
 11 10  1  1
 11 13  1  0
 12 11  1  0
 13 14  2  0
 13 19  1  0
 16 15  1  1
 17 16  1  0
 18 20  1  0
 18 16  1  0
 18 19  1  1
 20 22  1  0
 21 20  2  0
M  END
$$$$
