EAT.pdb
     RDKit          3D

 22 21  0  0  1  0  0  0  0  0999 V2000
   17.7965  -12.1039  -15.4629 N   0  0  0  0  0  0  0  0  0  0  0  0
   18.4364  -11.0009  -16.1407 C   0  0  1  0  0  0  0  0  0  0  0  0
   17.3599  -10.1792  -16.8107 C   0  0  0  0  0  0  0  0  0  0  0  0
   16.6768  -10.9465  -17.9184 C   0  0  0  0  0  0  0  0  0  0  0  0
   15.5230  -11.7351  -17.4653 C   0  0  0  0  0  0  0  0  0  0  0  0
   15.2104  -12.8361  -18.0002 O   0  0  0  0  0  0  0  0  0  0  0  0
   19.2607  -10.1866  -15.2207 C   0  0  0  0  0  0  0  0  0  0  0  0
   18.7441   -9.5803  -14.2546 O   0  0  0  0  0  0  0  0  0  0  0  0
   14.7220  -11.2879  -16.4141 O   0  0  0  0  0  0  0  0  0  0  0  0
   22.9552   -9.7230  -14.8983 C   0  0  0  0  0  0  0  0  0  0  0  0
   21.5272   -9.2578  -14.6386 C   0  0  2  0  0  0  0  0  0  0  0  0
   20.6616  -10.0879  -15.4326 N   0  0  0  0  0  0  0  0  0  0  0  0
   21.4143   -7.8222  -14.9956 C   0  0  0  0  0  0  0  0  0  0  0  0
   21.2006   -7.5040  -16.1905 O   0  0  0  0  0  0  0  0  0  0  0  0
   19.9925   -3.3670  -14.2230 C   0  0  0  0  0  0  0  0  0  0  0  0
   20.1128   -4.8516  -14.1191 C   0  0  1  0  0  0  0  0  0  0  0  0
   19.1624   -5.4284  -14.9602 O   0  0  0  0  0  0  0  0  0  0  0  0
   21.4904   -5.3749  -14.3981 C   0  0  2  0  0  0  0  0  0  0  0  0
   21.5373   -6.7768  -14.0415 N   0  0  0  0  0  0  0  0  0  0  0  0
   22.5626   -4.6561  -13.7334 C   0  0  0  0  0  0  0  0  0  0  0  0
   22.9054   -4.9983  -12.5738 O   0  0  0  0  0  0  0  0  0  0  0  0
   23.2666   -3.5877  -14.2844 O   0  0  0  0  0  0  0  0  0  0  0  0
  2  7  1  0
  2  1  1  1
  3  2  1  0
  4  5  1  0
  4  3  1  0
  5  9  1  0
  6  5  2  0
  7 12  1  0
  8  7  2  0
 11 10  1  6
 11 13  1  0
 12 11  1  0
 13 14  2  0
 13 19  1  0
 16 15  1  6
 17 16  1  0
 18 20  1  0
 18 16  1  0
 18 19  1  1
 20 22  1  0
 21 20  2  0
M  END
$$$$
