EAT.pdb
     RDKit          3D

 22 21  0  0  1  0  0  0  0  0999 V2000
   28.0679  -15.2045  -19.0866 N   0  0  0  0  0  0  0  0  0  0  0  0
   28.8798  -14.1355  -19.6192 C   0  0  1  0  0  0  0  0  0  0  0  0
   28.6702  -14.0932  -21.1149 C   0  0  0  0  0  0  0  0  0  0  0  0
   29.2628  -15.3031  -21.7986 C   0  0  0  0  0  0  0  0  0  0  0  0
   29.2826  -15.2020  -23.2641 C   0  0  0  0  0  0  0  0  0  0  0  0
   28.7953  -14.2096  -23.8753 O   0  0  0  0  0  0  0  0  0  0  0  0
   28.5747  -12.8358  -18.9816 C   0  0  0  0  0  0  0  0  0  0  0  0
   27.4123  -12.5547  -18.6104 O   0  0  0  0  0  0  0  0  0  0  0  0
   29.8480  -16.2134  -24.0413 O   0  0  0  0  0  0  0  0  0  0  0  0
   30.7170  -10.1793  -17.5427 C   0  0  0  0  0  0  0  0  0  0  0  0
   29.4043  -10.5914  -18.1986 C   0  0  2  0  0  0  0  0  0  0  0  0
   29.6140  -11.8879  -18.7850 N   0  0  0  0  0  0  0  0  0  0  0  0
   29.0269   -9.5711  -19.2074 C   0  0  0  0  0  0  0  0  0  0  0  0
   29.5792   -9.5913  -20.3341 O   0  0  0  0  0  0  0  0  0  0  0  0
   25.6772   -6.2344  -20.6894 C   0  0  0  0  0  0  0  0  0  0  0  0
   26.1906   -7.3253  -19.8089 C   0  0  1  0  0  0  0  0  0  0  0  0
   25.4328   -8.4716  -20.0437 O   0  0  0  0  0  0  0  0  0  0  0  0
   27.6591   -7.5915  -19.9573 C   0  0  2  0  0  0  0  0  0  0  0  0
   28.0603   -8.5600  -18.9594 N   0  0  0  0  0  0  0  0  0  0  0  0
   28.5042   -6.4137  -19.8760 C   0  0  0  0  0  0  0  0  0  0  0  0
   28.8542   -5.9851  -18.7476 O   0  0  0  0  0  0  0  0  0  0  0  0
   28.9760   -5.6946  -20.9718 O   0  0  0  0  0  0  0  0  0  0  0  0
  2  7  1  0
  2  1  1  1
  3  2  1  0
  4  5  1  0
  4  3  1  0
  5  9  1  0
  6  5  2  0
  7 12  1  0
  8  7  2  0
 11 10  1  6
 11 13  1  0
 12 11  1  0
 13 14  2  0
 13 19  1  0
 16 15  1  6
 17 16  1  0
 18 20  1  0
 18 16  1  0
 18 19  1  1
 20 22  1  0
 21 20  2  0
M  END
$$$$
