EAT.pdb
     RDKit          3D

 22 21  0  0  1  0  0  0  0  0999 V2000
   17.0134  -13.9884  -17.5848 N   0  0  0  0  0  0  0  0  0  0  0  0
   16.4170  -12.8966  -16.8514 C   0  0  1  0  0  0  0  0  0  0  0  0
   16.2929  -13.3200  -15.4063 C   0  0  0  0  0  0  0  0  0  0  0  0
   15.4165  -14.5411  -15.2532 C   0  0  0  0  0  0  0  0  0  0  0  0
   15.3367  -15.0407  -13.8739 C   0  0  0  0  0  0  0  0  0  0  0  0
   15.9597  -14.4897  -12.9230 O   0  0  0  0  0  0  0  0  0  0  0  0
   17.1897  -11.6432  -16.9954 C   0  0  0  0  0  0  0  0  0  0  0  0
   18.4391  -11.6595  -17.0769 O   0  0  0  0  0  0  0  0  0  0  0  0
   14.5592  -16.1568  -13.5634 O   0  0  0  0  0  0  0  0  0  0  0  0
   16.0874   -8.0764  -17.3768 C   0  0  0  0  0  0  0  0  0  0  0  0
   17.1725   -9.1363  -17.2276 C   0  0  2  0  0  0  0  0  0  0  0  0
   16.5077  -10.3983  -17.0425 N   0  0  0  0  0  0  0  0  0  0  0  0
   18.0393   -8.7819  -16.0769 C   0  0  0  0  0  0  0  0  0  0  0  0
   17.6845   -9.1121  -14.9193 O   0  0  0  0  0  0  0  0  0  0  0  0
   22.1154   -8.1153  -16.5918 C   0  0  0  0  0  0  0  0  0  0  0  0
   21.4466   -8.4411  -15.2973 C   0  0  1  0  0  0  0  0  0  0  0  0
   22.3337   -8.1536  -14.2610 O   0  0  0  0  0  0  0  0  0  0  0  0
   20.1258   -7.7580  -15.1021 C   0  0  2  0  0  0  0  0  0  0  0  0
   19.2654   -8.0790  -16.2208 N   0  0  0  0  0  0  0  0  0  0  0  0
   20.2026   -6.3184  -14.9302 C   0  0  0  0  0  0  0  0  0  0  0  0
   20.9115   -5.8467  -14.0059 O   0  0  0  0  0  0  0  0  0  0  0  0
   19.5394   -5.3849  -15.7237 O   0  0  0  0  0  0  0  0  0  0  0  0
  2  7  1  0
  2  1  1  6
  3  2  1  0
  4  5  1  0
  4  3  1  0
  5  9  1  0
  6  5  2  0
  7 12  1  0
  8  7  2  0
 11 10  1  1
 11 13  1  0
 12 11  1  0
 13 14  2  0
 13 19  1  0
 16 15  1  6
 17 16  1  0
 18 20  1  0
 18 16  1  0
 18 19  1  6
 20 22  1  0
 21 20  2  0
M  END
$$$$
