EAT.pdb
     RDKit          3D

 22 21  0  0  1  0  0  0  0  0999 V2000
   18.6587  -12.7556  -16.4243 N   0  0  0  0  0  0  0  0  0  0  0  0
   19.5474  -11.7504  -16.9584 C   0  0  1  0  0  0  0  0  0  0  0  0
   18.8338  -11.0546  -18.0940 C   0  0  0  0  0  0  0  0  0  0  0  0
   17.6327  -11.8400  -18.5663 C   0  0  0  0  0  0  0  0  0  0  0  0
   16.3779  -11.0767  -18.5318 C   0  0  0  0  0  0  0  0  0  0  0  0
   15.8954  -10.6262  -17.4546 O   0  0  0  0  0  0  0  0  0  0  0  0
   19.9948  -10.7963  -15.9199 C   0  0  0  0  0  0  0  0  0  0  0  0
   19.1685  -10.1740  -15.2145 O   0  0  0  0  0  0  0  0  0  0  0  0
   15.6665  -10.8202  -19.7043 O   0  0  0  0  0  0  0  0  0  0  0  0
   23.3774  -10.0607  -14.5180 C   0  0  0  0  0  0  0  0  0  0  0  0
   21.9089   -9.6989  -14.7071 C   0  0  2  0  0  0  0  0  0  0  0  0
   21.3836  -10.5792  -15.7161 N   0  0  0  0  0  0  0  0  0  0  0  0
   21.8094   -8.2711  -15.0977 C   0  0  0  0  0  0  0  0  0  0  0  0
   21.9665   -7.9540  -16.3017 O   0  0  0  0  0  0  0  0  0  0  0  0
   19.8290   -3.9341  -14.6793 C   0  0  0  0  0  0  0  0  0  0  0  0
   20.0295   -5.3985  -14.4684 C   0  0  1  0  0  0  0  0  0  0  0  0
   19.2312   -6.0863  -15.3811 O   0  0  0  0  0  0  0  0  0  0  0  0
   21.4617   -5.8372  -14.5437 C   0  0  2  0  0  0  0  0  0  0  0  0
   21.5423   -7.2321  -14.1665 N   0  0  0  0  0  0  0  0  0  0  0  0
   22.3838   -5.0512  -13.7436 C   0  0  0  0  0  0  0  0  0  0  0  0
   22.5416   -5.3365  -12.5299 O   0  0  0  0  0  0  0  0  0  0  0  0
   23.1319   -3.9756  -14.2169 O   0  0  0  0  0  0  0  0  0  0  0  0
  2  7  1  0
  2  1  1  1
  3  2  1  0
  4  5  1  0
  4  3  1  0
  5  9  1  0
  6  5  2  0
  7 12  1  0
  8  7  2  0
 11 10  1  6
 11 13  1  0
 12 11  1  0
 13 14  2  0
 13 19  1  0
 16 15  1  6
 17 16  1  0
 18 20  1  0
 18 16  1  0
 18 19  1  1
 20 22  1  0
 21 20  2  0
M  END
$$$$
