EAT.pdb
     RDKit          3D

 22 21  0  0  1  0  0  0  0  0999 V2000
   23.0564   -8.8565  -17.0125 N   0  0  0  0  0  0  0  0  0  0  0  0
   22.1665   -8.0772  -16.1840 C   0  0  1  0  0  0  0  0  0  0  0  0
   22.5890   -6.6298  -16.2808 C   0  0  0  0  0  0  0  0  0  0  0  0
   23.2770   -6.1611  -15.0201 C   0  0  0  0  0  0  0  0  0  0  0  0
   22.3503   -5.6829  -13.9852 C   0  0  0  0  0  0  0  0  0  0  0  0
   22.1597   -6.3174  -12.9095 O   0  0  0  0  0  0  0  0  0  0  0  0
   20.7486   -8.2654  -16.5621 C   0  0  0  0  0  0  0  0  0  0  0  0
   20.3569   -8.0487  -17.7315 O   0  0  0  0  0  0  0  0  0  0  0  0
   21.6391   -4.4952  -14.1583 O   0  0  0  0  0  0  0  0  0  0  0  0
   18.0055  -10.1774  -15.1081 C   0  0  0  0  0  0  0  0  0  0  0  0
   18.4195   -8.9224  -15.8674 C   0  0  2  0  0  0  0  0  0  0  0  0
   19.8122   -8.6986  -15.5860 N   0  0  0  0  0  0  0  0  0  0  0  0
   17.5672   -7.7896  -15.4298 C   0  0  0  0  0  0  0  0  0  0  0  0
   17.7704   -7.2697  -14.3059 O   0  0  0  0  0  0  0  0  0  0  0  0
   16.6406   -4.5353  -17.4979 C   0  0  0  0  0  0  0  0  0  0  0  0
   15.4365   -5.2637  -16.9990 C   0  0  1  0  0  0  0  0  0  0  0  0
   14.8895   -5.9845  -18.0595 O   0  0  0  0  0  0  0  0  0  0  0  0
   15.7002   -6.1400  -15.8107 C   0  0  2  0  0  0  0  0  0  0  0  0
   16.5198   -7.2573  -16.2284 N   0  0  0  0  0  0  0  0  0  0  0  0
   14.5108   -6.6216  -15.1314 C   0  0  0  0  0  0  0  0  0  0  0  0
   13.8375   -5.8241  -14.4313 O   0  0  0  0  0  0  0  0  0  0  0  0
   14.0353   -7.9297  -15.1889 O   0  0  0  0  0  0  0  0  0  0  0  0
  2  7  1  0
  2  1  1  6
  3  2  1  0
  4  5  1  0
  4  3  1  0
  5  9  1  0
  6  5  2  0
  7 12  1  0
  8  7  2  0
 11 10  1  1
 11 13  1  0
 12 11  1  0
 13 14  2  0
 13 19  1  0
 16 15  1  6
 17 16  1  0
 18 20  1  0
 18 16  1  0
 18 19  1  6
 20 22  1  0
 21 20  2  0
M  END
$$$$
