TWC.pdb
     RDKit          3D

 28 29  0  0  1  0  0  0  0  0999 V2000
    9.7010  -18.6908   17.3997 C   0  0  0  0  0  0  0  0  0  0  0  0
    9.7204  -18.2528   18.8654 C   0  0  1  0  0  0  0  0  0  0  0  0
   10.7584  -18.8922   19.4959 O   0  0  0  0  0  0  0  0  0  0  0  0
    9.7317  -16.7491   18.9915 C   0  0  2  0  0  0  0  0  0  0  0  0
   10.9093  -16.1882   18.3200 N   0  0  0  0  0  0  0  0  0  0  0  0
    9.6328  -16.2528   20.3613 C   0  0  0  0  0  0  0  0  0  0  0  0
   10.7257  -15.9451   20.9570 O   0  0  0  0  0  0  0  0  0  0  0  0
    8.3878  -16.1095   21.0220 N   0  0  0  0  0  0  0  0  0  0  0  0
    8.3713  -15.6556   22.3971 C   0  0  1  0  0  0  0  0  0  0  0  0
    6.9650  -15.3934   22.8933 C   0  0  0  0  0  0  0  0  0  0  0  0
    6.8846  -14.9687   24.2829 C   0  0  0  0  0  0  0  0  0  0  0  0
    6.5767  -15.7569   25.3633 C   0  0  0  0  0  0  0  0  0  0  0  0
    6.5936  -15.0425   26.4841 N   0  0  0  0  0  0  0  0  0  0  0  0
    6.9090  -13.7764   26.1839 C   0  0  0  0  0  0  0  0  0  0  0  0
    7.0471  -12.6809   27.0046 C   0  0  0  0  0  0  0  0  0  0  0  0
    7.3817  -11.4682   26.4573 C   0  0  0  0  0  0  0  0  0  0  0  0
    7.5717  -11.3763   25.0971 C   0  0  0  0  0  0  0  0  0  0  0  0
    7.4304  -12.4839   24.2810 C   0  0  0  0  0  0  0  0  0  0  0  0
    7.0944  -13.7130   24.8100 C   0  0  0  0  0  0  0  0  0  0  0  0
    8.9304  -16.7322   23.2442 C   0  0  0  0  0  0  0  0  0  0  0  0
    8.7734  -17.9250   22.9008 O   0  0  0  0  0  0  0  0  0  0  0  0
    9.6456  -16.4719   24.4432 N   0  0  0  0  0  0  0  0  0  0  0  0
   10.2804  -17.5450   25.1692 C   0  0  1  0  0  0  0  0  0  0  0  0
   11.5109  -18.0584   24.4492 C   0  0  0  0  0  0  0  0  0  0  0  0
   12.6784  -16.6972   24.1418 S   0  0  0  0  0  0  0  0  0  0  0  0
   10.6116  -17.1367   26.5633 C   0  0  0  0  0  0  0  0  0  0  0  0
   10.3964  -15.9695   26.9709 O   0  0  0  0  0  0  0  0  0  0  0  0
   11.1763  -18.0302   27.4830 O   0  0  0  0  0  0  0  0  0  0  0  0
  2  1  1  6
  2  3  1  0
  2  4  1  0
  4  6  1  0
  4  5  1  1
  6  7  2  0
  8  9  1  0
  8  6  1  0
 10 11  1  0
  9 10  1  1
 11 12  2  0
 13 12  1  0
 14 13  1  0
 15 14  2  0
 16 15  1  0
 17 18  1  0
 17 16  2  0
 18 19  2  0
 19 14  1  0
 19 11  1  0
 20  9  1  0
 20 21  2  0
 22 20  1  0
 23 22  1  0
 23 26  1  0
 23 24  1  6
 25 24  1  0
 26 28  1  0
 27 26  2  0
M  END
$$$$
