TWC.pdb
     RDKit          3D

 28 29  0  0  1  0  0  0  0  0999 V2000
    7.3151  -17.7108   18.9299 C   0  0  0  0  0  0  0  0  0  0  0  0
    8.2221  -17.4541   20.1349 C   0  0  1  0  0  0  0  0  0  0  0  0
    9.5240  -17.6538   19.7487 O   0  0  0  0  0  0  0  0  0  0  0  0
    7.9447  -16.1076   20.7571 C   0  0  2  0  0  0  0  0  0  0  0  0
    8.1195  -15.0402   19.7657 N   0  0  0  0  0  0  0  0  0  0  0  0
    8.7174  -15.8239   21.9632 C   0  0  0  0  0  0  0  0  0  0  0  0
    9.7161  -15.0280   21.8499 O   0  0  0  0  0  0  0  0  0  0  0  0
    8.3914  -16.3956   23.2179 N   0  0  0  0  0  0  0  0  0  0  0  0
    9.1971  -16.0589   24.3731 C   0  0  1  0  0  0  0  0  0  0  0  0
    8.4274  -16.2110   25.6681 C   0  0  0  0  0  0  0  0  0  0  0  0
    7.3500  -15.2491   25.8465 C   0  0  0  0  0  0  0  0  0  0  0  0
    6.0038  -15.5150   25.8279 C   0  0  0  0  0  0  0  0  0  0  0  0
    5.3040  -14.4021   26.0243 N   0  0  0  0  0  0  0  0  0  0  0  0
    6.1542  -13.3791   26.1769 C   0  0  0  0  0  0  0  0  0  0  0  0
    5.9020  -12.0454   26.4013 C   0  0  0  0  0  0  0  0  0  0  0  0
    6.9539  -11.1735   26.5253 C   0  0  0  0  0  0  0  0  0  0  0  0
    8.2393  -11.6549   26.4220 C   0  0  0  0  0  0  0  0  0  0  0  0
    8.4818  -12.9977   26.1962 C   0  0  0  0  0  0  0  0  0  0  0  0
    7.4391  -13.8921   26.0683 C   0  0  0  0  0  0  0  0  0  0  0  0
   10.3316  -17.0067   24.4355 C   0  0  0  0  0  0  0  0  0  0  0  0
   10.1387  -18.2112   24.1574 O   0  0  0  0  0  0  0  0  0  0  0  0
   11.6449  -16.6085   24.8006 N   0  0  0  0  0  0  0  0  0  0  0  0
   12.7057  -17.5805   24.9075 C   0  0  1  0  0  0  0  0  0  0  0  0
   14.0408  -17.0027   24.4834 C   0  0  0  0  0  0  0  0  0  0  0  0
   13.7926  -15.5002   23.4879 S   0  0  0  0  0  0  0  0  0  0  0  0
   12.7850  -18.1496   26.2821 C   0  0  0  0  0  0  0  0  0  0  0  0
   13.6615  -18.9931   26.5906 O   0  0  0  0  0  0  0  0  0  0  0  0
   11.8903  -17.7736   27.2927 O   0  0  0  0  0  0  0  0  0  0  0  0
  2  1  1  6
  2  3  1  0
  2  4  1  0
  4  6  1  0
  4  5  1  6
  6  7  2  0
  8  9  1  0
  8  6  1  0
 10 11  1  0
  9 10  1  1
 11 12  2  0
 13 12  1  0
 14 13  1  0
 15 14  2  0
 16 15  1  0
 17 18  1  0
 17 16  2  0
 18 19  2  0
 19 14  1  0
 19 11  1  0
 20  9  1  0
 20 21  2  0
 22 20  1  0
 23 22  1  0
 23 26  1  0
 23 24  1  1
 25 24  1  0
 26 28  1  0
 27 26  2  0
M  END
$$$$
