TWC.pdb
     RDKit          3D

 28 29  0  0  1  0  0  0  0  0999 V2000
    6.7896  -16.8030   18.5412 C   0  0  0  0  0  0  0  0  0  0  0  0
    7.6991  -16.8680   19.7696 C   0  0  1  0  0  0  0  0  0  0  0  0
    8.9794  -17.1276   19.3486 O   0  0  0  0  0  0  0  0  0  0  0  0
    7.5521  -15.6374   20.6306 C   0  0  2  0  0  0  0  0  0  0  0  0
    7.7752  -14.4260   19.8337 N   0  0  0  0  0  0  0  0  0  0  0  0
    8.3878  -15.6293   21.8280 C   0  0  0  0  0  0  0  0  0  0  0  0
    9.4197  -14.8684   21.8215 O   0  0  0  0  0  0  0  0  0  0  0  0
    8.0861  -16.4233   22.9620 N   0  0  0  0  0  0  0  0  0  0  0  0
    8.9631  -16.3649   24.1128 C   0  0  1  0  0  0  0  0  0  0  0  0
    8.1929  -16.3731   25.4165 C   0  0  0  0  0  0  0  0  0  0  0  0
    7.2852  -15.2487   25.5885 C   0  0  0  0  0  0  0  0  0  0  0  0
    5.9172  -15.2777   25.4841 C   0  0  0  0  0  0  0  0  0  0  0  0
    5.4053  -14.0705   25.7022 N   0  0  0  0  0  0  0  0  0  0  0  0
    6.4055  -13.2169   25.9542 C   0  0  0  0  0  0  0  0  0  0  0  0
    6.3696  -11.8707   26.2358 C   0  0  0  0  0  0  0  0  0  0  0  0
    7.5443  -11.1992   26.4619 C   0  0  0  0  0  0  0  0  0  0  0  0
    8.7334  -11.8898   26.4016 C   0  0  0  0  0  0  0  0  0  0  0  0
    8.7584  -13.2432   26.1176 C   0  0  0  0  0  0  0  0  0  0  0  0
    7.5891  -13.9382   25.8869 C   0  0  0  0  0  0  0  0  0  0  0  0
    9.8102  -17.5779   24.1085 C   0  0  0  0  0  0  0  0  0  0  0  0
    9.6504  -18.4327   23.2089 O   0  0  0  0  0  0  0  0  0  0  0  0
   10.8083  -17.8204   25.0891 N   0  0  0  0  0  0  0  0  0  0  0  0
   12.1447  -18.2011   24.7007 C   0  0  1  0  0  0  0  0  0  0  0  0
   12.7307  -17.2374   23.6888 C   0  0  0  0  0  0  0  0  0  0  0  0
   13.9084  -18.0992   22.6024 S   0  0  0  0  0  0  0  0  0  0  0  0
   13.0375  -18.3360   25.8858 C   0  0  0  0  0  0  0  0  0  0  0  0
   12.8525  -17.6560   26.9241 O   0  0  0  0  0  0  0  0  0  0  0  0
   14.1216  -19.2235   25.8998 O   0  0  0  0  0  0  0  0  0  0  0  0
  2  1  1  6
  2  3  1  0
  2  4  1  0
  4  6  1  0
  4  5  1  6
  6  7  2  0
  8  9  1  0
  8  6  1  0
 10 11  1  0
  9 10  1  1
 11 12  2  0
 13 12  1  0
 14 13  1  0
 15 14  2  0
 16 15  1  0
 17 18  1  0
 17 16  2  0
 18 19  2  0
 19 14  1  0
 19 11  1  0
 20  9  1  0
 20 21  2  0
 22 20  1  0
 23 22  1  0
 23 26  1  0
 23 24  1  6
 25 24  1  0
 26 28  1  0
 27 26  2  0
M  END
$$$$
