TWC.pdb
     RDKit          3D

 28 29  0  0  1  0  0  0  0  0999 V2000
    6.8463  -17.3947   18.2993 C   0  0  0  0  0  0  0  0  0  0  0  0
    7.7760  -17.1114   19.4807 C   0  0  1  0  0  0  0  0  0  0  0  0
    9.0728  -17.1584   19.0337 O   0  0  0  0  0  0  0  0  0  0  0  0
    7.3951  -15.8341   20.1884 C   0  0  2  0  0  0  0  0  0  0  0  0
    7.3666  -14.7138   19.2415 N   0  0  0  0  0  0  0  0  0  0  0  0
    8.2230  -15.5104   21.3469 C   0  0  0  0  0  0  0  0  0  0  0  0
    9.2039  -14.7053   21.1639 O   0  0  0  0  0  0  0  0  0  0  0  0
    7.9676  -16.0540   22.6301 N   0  0  0  0  0  0  0  0  0  0  0  0
    8.8846  -15.7604   23.7117 C   0  0  1  0  0  0  0  0  0  0  0  0
    8.2547  -15.9876   25.0697 C   0  0  0  0  0  0  0  0  0  0  0  0
    7.2605  -14.9943   25.4478 C   0  0  0  0  0  0  0  0  0  0  0  0
    5.9082  -15.1943   25.5681 C   0  0  0  0  0  0  0  0  0  0  0  0
    5.2991  -14.0700   25.9310 N   0  0  0  0  0  0  0  0  0  0  0  0
    6.2174  -13.1043   26.0604 C   0  0  0  0  0  0  0  0  0  0  0  0
    6.0679  -11.7834   26.4152 C   0  0  0  0  0  0  0  0  0  0  0  0
    7.1744  -10.9751   26.4807 C   0  0  0  0  0  0  0  0  0  0  0  0
    8.4105  -11.5060   26.1894 C   0  0  0  0  0  0  0  0  0  0  0  0
    8.5497  -12.8354   25.8338 C   0  0  0  0  0  0  0  0  0  0  0  0
    7.4506  -13.6661   25.7615 C   0  0  0  0  0  0  0  0  0  0  0  0
   10.0301  -16.6913   23.6100 C   0  0  0  0  0  0  0  0  0  0  0  0
   10.2964  -17.2156   22.5056 O   0  0  0  0  0  0  0  0  0  0  0  0
   10.8514  -17.0217   24.7204 N   0  0  0  0  0  0  0  0  0  0  0  0
   12.1907  -17.5205   24.5226 C   0  0  1  0  0  0  0  0  0  0  0  0
   13.0136  -16.5897   23.6552 C   0  0  0  0  0  0  0  0  0  0  0  0
   14.7101  -17.2228   23.4795 S   0  0  0  0  0  0  0  0  0  0  0  0
   12.8723  -17.7778   25.8222 C   0  0  0  0  0  0  0  0  0  0  0  0
   12.7042  -17.0213   26.8093 O   0  0  0  0  0  0  0  0  0  0  0  0
   13.7297  -18.8706   26.0059 O   0  0  0  0  0  0  0  0  0  0  0  0
  2  1  1  6
  2  3  1  0
  2  4  1  0
  4  6  1  0
  4  5  1  6
  6  7  2  0
  8  9  1  0
  8  6  1  0
 10 11  1  0
  9 10  1  1
 11 12  2  0
 13 12  1  0
 14 13  1  0
 15 14  2  0
 16 15  1  0
 17 18  1  0
 17 16  2  0
 18 19  2  0
 19 14  1  0
 19 11  1  0
 20  9  1  0
 20 21  2  0
 22 20  1  0
 23 22  1  0
 23 26  1  0
 23 24  1  1
 25 24  1  0
 26 28  1  0
 27 26  2  0
M  END
$$$$
