TWC.pdb
     RDKit          3D

 28 29  0  0  1  0  0  0  0  0999 V2000
    7.0620  -17.0127   18.7856 C   0  0  0  0  0  0  0  0  0  0  0  0
    7.9648  -16.7453   19.9913 C   0  0  1  0  0  0  0  0  0  0  0  0
    9.2148  -16.4125   19.5325 O   0  0  0  0  0  0  0  0  0  0  0  0
    7.3460  -15.7400   20.9314 C   0  0  2  0  0  0  0  0  0  0  0  0
    7.0196  -14.5024   20.2143 N   0  0  0  0  0  0  0  0  0  0  0  0
    8.1398  -15.4525   22.1229 C   0  0  0  0  0  0  0  0  0  0  0  0
    8.7218  -14.3117   22.1824 O   0  0  0  0  0  0  0  0  0  0  0  0
    8.2726  -16.3844   23.1818 N   0  0  0  0  0  0  0  0  0  0  0  0
    9.1058  -16.0436   24.3161 C   0  0  1  0  0  0  0  0  0  0  0  0
    8.3569  -16.1572   25.6272 C   0  0  0  0  0  0  0  0  0  0  0  0
    7.3428  -15.1341   25.8337 C   0  0  0  0  0  0  0  0  0  0  0  0
    5.9824  -15.3107   25.7969 C   0  0  0  0  0  0  0  0  0  0  0  0
    5.3547  -14.1623   26.0294 N   0  0  0  0  0  0  0  0  0  0  0  0
    6.2682  -13.2032   26.2246 C   0  0  0  0  0  0  0  0  0  0  0  0
    6.1012  -11.8648   26.4959 C   0  0  0  0  0  0  0  0  0  0  0  0
    7.2064  -11.0684   26.6582 C   0  0  0  0  0  0  0  0  0  0  0  0
    8.4586  -11.6285   26.5456 C   0  0  0  0  0  0  0  0  0  0  0  0
    8.6154  -12.9753   26.2725 C   0  0  0  0  0  0  0  0  0  0  0  0
    7.5179  -13.7946   26.1055 C   0  0  0  0  0  0  0  0  0  0  0  0
   10.2222  -17.0127   24.3754 C   0  0  0  0  0  0  0  0  0  0  0  0
    9.9808  -18.2332   24.2428 O   0  0  0  0  0  0  0  0  0  0  0  0
   11.5712  -16.6178   24.5782 N   0  0  0  0  0  0  0  0  0  0  0  0
   12.6258  -17.6010   24.6313 C   0  0  1  0  0  0  0  0  0  0  0  0
   13.9646  -17.0092   24.2394 C   0  0  0  0  0  0  0  0  0  0  0  0
   13.8159  -16.0860   22.6788 S   0  0  0  0  0  0  0  0  0  0  0  0
   12.7013  -18.2453   25.9726 C   0  0  0  0  0  0  0  0  0  0  0  0
   11.9781  -17.8612   26.9236 O   0  0  0  0  0  0  0  0  0  0  0  0
   13.5781  -19.3056   26.2373 O   0  0  0  0  0  0  0  0  0  0  0  0
  2  1  1  6
  2  3  1  0
  2  4  1  0
  4  6  1  0
  4  5  1  6
  6  7  2  0
  8  9  1  0
  8  6  1  0
 10 11  1  0
  9 10  1  1
 11 12  2  0
 13 12  1  0
 14 13  1  0
 15 14  2  0
 16 15  1  0
 17 18  1  0
 17 16  2  0
 18 19  2  0
 19 14  1  0
 19 11  1  0
 20  9  1  0
 20 21  2  0
 22 20  1  0
 23 22  1  0
 23 26  1  0
 23 24  1  1
 25 24  1  0
 26 28  1  0
 27 26  2  0
M  END
$$$$
