TWC.pdb
     RDKit          3D

 28 29  0  0  1  0  0  0  0  0999 V2000
    6.8262  -17.3809   18.6534 C   0  0  0  0  0  0  0  0  0  0  0  0
    7.7634  -17.1041   19.8305 C   0  0  1  0  0  0  0  0  0  0  0  0
    9.0582  -17.1790   19.3814 O   0  0  0  0  0  0  0  0  0  0  0  0
    7.4076  -15.8136   20.5271 C   0  0  2  0  0  0  0  0  0  0  0  0
    7.4042  -14.7004   19.5714 N   0  0  0  0  0  0  0  0  0  0  0  0
    8.2395  -15.4979   21.6849 C   0  0  0  0  0  0  0  0  0  0  0  0
    9.1094  -14.5658   21.5492 O   0  0  0  0  0  0  0  0  0  0  0  0
    8.1050  -16.1830   22.9178 N   0  0  0  0  0  0  0  0  0  0  0  0
    9.0553  -15.9144   23.9770 C   0  0  1  0  0  0  0  0  0  0  0  0
    8.4542  -16.1318   25.3497 C   0  0  0  0  0  0  0  0  0  0  0  0
    7.4037  -15.1894   25.7048 C   0  0  0  0  0  0  0  0  0  0  0  0
    6.0560  -15.4444   25.7493 C   0  0  0  0  0  0  0  0  0  0  0  0
    5.3852  -14.3560   26.1129 N   0  0  0  0  0  0  0  0  0  0  0  0
    6.2568  -13.3604   26.3174 C   0  0  0  0  0  0  0  0  0  0  0  0
    6.0374  -12.0579   26.7023 C   0  0  0  0  0  0  0  0  0  0  0  0
    7.1063  -11.2104   26.8482 C   0  0  0  0  0  0  0  0  0  0  0  0
    8.3755  -11.6845   26.6057 C   0  0  0  0  0  0  0  0  0  0  0  0
    8.5851  -12.9958   26.2192 C   0  0  0  0  0  0  0  0  0  0  0  0
    7.5248  -13.8653   26.0663 C   0  0  0  0  0  0  0  0  0  0  0  0
   10.1759  -16.8713   23.8440 C   0  0  0  0  0  0  0  0  0  0  0  0
    9.9898  -17.9517   23.2411 O   0  0  0  0  0  0  0  0  0  0  0  0
   11.4685  -16.6178   24.3748 N   0  0  0  0  0  0  0  0  0  0  0  0
   12.5348  -17.5747   24.2043 C   0  0  1  0  0  0  0  0  0  0  0  0
   13.7287  -16.9641   23.4987 C   0  0  0  0  0  0  0  0  0  0  0  0
   13.2691  -16.4346   21.8199 S   0  0  0  0  0  0  0  0  0  0  0  0
   12.9373  -18.1777   25.5059 C   0  0  0  0  0  0  0  0  0  0  0  0
   13.8824  -18.9999   25.5807 O   0  0  0  0  0  0  0  0  0  0  0  0
   12.2846  -17.8587   26.7039 O   0  0  0  0  0  0  0  0  0  0  0  0
  2  1  1  6
  2  3  1  0
  2  4  1  0
  4  6  1  0
  4  5  1  6
  6  7  2  0
  8  9  1  0
  8  6  1  0
 10 11  1  0
  9 10  1  1
 11 12  2  0
 13 12  1  0
 14 13  1  0
 15 14  2  0
 16 15  1  0
 17 18  1  0
 17 16  2  0
 18 19  2  0
 19 14  1  0
 19 11  1  0
 20  9  1  0
 20 21  2  0
 22 20  1  0
 23 22  1  0
 23 26  1  0
 23 24  1  1
 25 24  1  0
 26 28  1  0
 27 26  2  0
M  END
$$$$
