TWC.pdb
     RDKit          3D

 28 29  0  0  1  0  0  0  0  0999 V2000
    6.4746  -16.2417   18.5307 C   0  0  0  0  0  0  0  0  0  0  0  0
    7.4793  -16.3241   19.6814 C   0  0  1  0  0  0  0  0  0  0  0  0
    8.7285  -16.5337   19.1529 O   0  0  0  0  0  0  0  0  0  0  0  0
    7.3701  -15.1286   20.5958 C   0  0  2  0  0  0  0  0  0  0  0  0
    7.5229  -13.8851   19.8323 N   0  0  0  0  0  0  0  0  0  0  0  0
    8.2815  -15.1498   21.7364 C   0  0  0  0  0  0  0  0  0  0  0  0
    9.3536  -14.4524   21.6473 O   0  0  0  0  0  0  0  0  0  0  0  0
    8.0086  -15.9044   22.9041 N   0  0  0  0  0  0  0  0  0  0  0  0
    8.9229  -15.8196   24.0239 C   0  0  1  0  0  0  0  0  0  0  0  0
    8.2138  -15.9841   25.3516 C   0  0  0  0  0  0  0  0  0  0  0  0
    7.2348  -14.9483   25.6455 C   0  0  0  0  0  0  0  0  0  0  0  0
    5.8693  -15.0841   25.6289 C   0  0  0  0  0  0  0  0  0  0  0  0
    5.2807  -13.9358   25.9477 N   0  0  0  0  0  0  0  0  0  0  0  0
    6.2259  -13.0169   26.1819 C   0  0  0  0  0  0  0  0  0  0  0  0
    6.1041  -11.6943   26.5408 C   0  0  0  0  0  0  0  0  0  0  0  0
    7.2354  -10.9411   26.7275 C   0  0  0  0  0  0  0  0  0  0  0  0
    8.4680  -11.5278   26.5510 C   0  0  0  0  0  0  0  0  0  0  0  0
    8.5792  -12.8583   26.1900 C   0  0  0  0  0  0  0  0  0  0  0  0
    7.4549  -13.6343   25.9970 C   0  0  0  0  0  0  0  0  0  0  0  0
    9.8902  -16.9338   23.9142 C   0  0  0  0  0  0  0  0  0  0  0  0
    9.7368  -17.7912   23.0159 O   0  0  0  0  0  0  0  0  0  0  0  0
   10.9979  -17.0775   24.7911 N   0  0  0  0  0  0  0  0  0  0  0  0
   12.0009  -18.0864   24.5508 C   0  0  1  0  0  0  0  0  0  0  0  0
   12.6598  -17.9110   23.1975 C   0  0  0  0  0  0  0  0  0  0  0  0
   13.2834  -16.2119   23.0126 S   0  0  0  0  0  0  0  0  0  0  0  0
   13.0186  -18.1111   25.6386 C   0  0  0  0  0  0  0  0  0  0  0  0
   12.9850  -17.2862   26.5837 O   0  0  0  0  0  0  0  0  0  0  0  0
   14.0576  -19.0509   25.6604 O   0  0  0  0  0  0  0  0  0  0  0  0
  2  1  1  6
  2  3  1  0
  2  4  1  0
  4  6  1  0
  4  5  1  6
  6  7  2  0
  8  9  1  0
  8  6  1  0
 10 11  1  0
  9 10  1  1
 11 12  2  0
 13 12  1  0
 14 13  1  0
 15 14  2  0
 16 15  1  0
 17 18  1  0
 17 16  2  0
 18 19  2  0
 19 14  1  0
 19 11  1  0
 20  9  1  0
 20 21  2  0
 22 20  1  0
 23 22  1  0
 23 26  1  0
 23 24  1  6
 25 24  1  0
 26 28  1  0
 27 26  2  0
M  END
$$$$
