TWC.pdb
     RDKit          3D

 28 29  0  0  1  0  0  0  0  0999 V2000
    6.6137  -21.9724   22.4132 C   0  0  0  0  0  0  0  0  0  0  0  0
    7.5210  -20.7432   22.4919 C   0  0  1  0  0  0  0  0  0  0  0  0
    8.4459  -20.8209   21.4808 O   0  0  0  0  0  0  0  0  0  0  0  0
    6.7181  -19.4658   22.5200 C   0  0  2  0  0  0  0  0  0  0  0  0
    5.8561  -19.3773   21.3361 N   0  0  0  0  0  0  0  0  0  0  0  0
    7.5133  -18.2506   22.6721 C   0  0  0  0  0  0  0  0  0  0  0  0
    7.7149  -17.5429   21.6221 O   0  0  0  0  0  0  0  0  0  0  0  0
    8.0488  -17.8528   23.9220 N   0  0  0  0  0  0  0  0  0  0  0  0
    8.9342  -16.7081   23.9737 C   0  0  1  0  0  0  0  0  0  0  0  0
    8.9313  -16.0472   25.3360 C   0  0  0  0  0  0  0  0  0  0  0  0
    7.7461  -15.2513   25.6184 C   0  0  0  0  0  0  0  0  0  0  0  0
    6.4661  -15.7185   25.7812 C   0  0  0  0  0  0  0  0  0  0  0  0
    5.6294  -14.7155   26.0280 N   0  0  0  0  0  0  0  0  0  0  0  0
    6.3209  -13.5690   26.0360 C   0  0  0  0  0  0  0  0  0  0  0  0
    5.8918  -12.2788   26.2459 C   0  0  0  0  0  0  0  0  0  0  0  0
    6.8012  -11.2524   26.2049 C   0  0  0  0  0  0  0  0  0  0  0  0
    8.1240  -11.5385   25.9542 C   0  0  0  0  0  0  0  0  0  0  0  0
    8.5448  -12.8392   25.7445 C   0  0  0  0  0  0  0  0  0  0  0  0
    7.6476  -13.8866   25.7813 C   0  0  0  0  0  0  0  0  0  0  0  0
   10.3146  -17.1820   23.7307 C   0  0  0  0  0  0  0  0  0  0  0  0
   10.6666  -18.2963   24.1776 O   0  0  0  0  0  0  0  0  0  0  0  0
   11.2702  -16.4223   23.0052 N   0  0  0  0  0  0  0  0  0  0  0  0
   12.5721  -16.9682   22.7078 C   0  0  1  0  0  0  0  0  0  0  0  0
   13.1322  -16.4104   21.4150 C   0  0  0  0  0  0  0  0  0  0  0  0
   11.9261  -16.6046   20.0668 S   0  0  0  0  0  0  0  0  0  0  0  0
   13.5221  -16.7536   23.8353 C   0  0  0  0  0  0  0  0  0  0  0  0
   13.1954  -16.0868   24.8470 O   0  0  0  0  0  0  0  0  0  0  0  0
   14.8195  -17.2824   23.8223 O   0  0  0  0  0  0  0  0  0  0  0  0
  2  1  1  6
  2  3  1  0
  2  4  1  0
  4  6  1  0
  4  5  1  6
  6  7  2  0
  8  9  1  0
  8  6  1  0
 10 11  1  0
  9 10  1  1
 11 12  2  0
 13 12  1  0
 14 13  1  0
 15 14  2  0
 16 15  1  0
 17 18  1  0
 17 16  2  0
 18 19  2  0
 19 14  1  0
 19 11  1  0
 20  9  1  0
 20 21  2  0
 22 20  1  0
 23 22  1  0
 23 26  1  0
 23 24  1  6
 25 24  1  0
 26 28  1  0
 27 26  2  0
M  END
$$$$
