TWC.pdb
     RDKit          3D

 28 29  0  0  1  0  0  0  0  0999 V2000
    8.3885  -17.9087   19.9260 C   0  0  0  0  0  0  0  0  0  0  0  0
    7.9808  -16.5171   19.4385 C   0  0  1  0  0  0  0  0  0  0  0  0
    7.2165  -16.6599   18.3075 O   0  0  0  0  0  0  0  0  0  0  0  0
    7.3372  -15.7129   20.5413 C   0  0  2  0  0  0  0  0  0  0  0  0
    6.7576  -14.4776   20.0022 N   0  0  0  0  0  0  0  0  0  0  0  0
    8.2133  -15.4217   21.6727 C   0  0  0  0  0  0  0  0  0  0  0  0
    8.9765  -14.3958   21.5784 O   0  0  0  0  0  0  0  0  0  0  0  0
    8.2327  -16.2288   22.8369 N   0  0  0  0  0  0  0  0  0  0  0  0
    9.1035  -15.8582   23.9331 C   0  0  1  0  0  0  0  0  0  0  0  0
    8.4519  -16.0877   25.2805 C   0  0  0  0  0  0  0  0  0  0  0  0
    7.4266  -15.1153   25.6286 C   0  0  0  0  0  0  0  0  0  0  0  0
    6.0818  -15.3552   25.7600 C   0  0  0  0  0  0  0  0  0  0  0  0
    5.4370  -14.2399   26.0873 N   0  0  0  0  0  0  0  0  0  0  0  0
    6.3234  -13.2409   26.1812 C   0  0  0  0  0  0  0  0  0  0  0  0
    6.1316  -11.9145   26.4922 C   0  0  0  0  0  0  0  0  0  0  0  0
    7.2112  -11.0687   26.5269 C   0  0  0  0  0  0  0  0  0  0  0  0
    8.4633  -11.5684   26.2493 C   0  0  0  0  0  0  0  0  0  0  0  0
    8.6452  -12.9037   25.9378 C   0  0  0  0  0  0  0  0  0  0  0  0
    7.5737  -13.7718   25.8970 C   0  0  0  0  0  0  0  0  0  0  0  0
   10.3011  -16.7256   23.8835 C   0  0  0  0  0  0  0  0  0  0  0  0
   10.1563  -17.9627   23.7658 O   0  0  0  0  0  0  0  0  0  0  0  0
   11.6233  -16.2135   23.9642 N   0  0  0  0  0  0  0  0  0  0  0  0
   12.7598  -17.1017   23.9312 C   0  0  1  0  0  0  0  0  0  0  0  0
   13.9325  -16.4849   23.1961 C   0  0  0  0  0  0  0  0  0  0  0  0
   13.3998  -15.8451   21.5784 S   0  0  0  0  0  0  0  0  0  0  0  0
   13.1564  -17.5282   25.3025 C   0  0  0  0  0  0  0  0  0  0  0  0
   12.5546  -17.1035   26.3185 O   0  0  0  0  0  0  0  0  0  0  0  0
   14.2147  -18.4191   25.5247 O   0  0  0  0  0  0  0  0  0  0  0  0
  2  1  1  1
  2  3  1  0
  2  4  1  0
  4  6  1  0
  4  5  1  6
  6  7  2  0
  8  9  1  0
  8  6  1  0
 10 11  1  0
  9 10  1  1
 11 12  2  0
 13 12  1  0
 14 13  1  0
 15 14  2  0
 16 15  1  0
 17 18  1  0
 17 16  2  0
 18 19  2  0
 19 14  1  0
 19 11  1  0
 20  9  1  0
 20 21  2  0
 22 20  1  0
 23 22  1  0
 23 26  1  0
 23 24  1  1
 25 24  1  0
 26 28  1  0
 27 26  2  0
M  END
$$$$
