TWC.pdb
     RDKit          3D

 28 29  0  0  1  0  0  0  0  0999 V2000
   10.7853  -19.2655   19.6556 C   0  0  0  0  0  0  0  0  0  0  0  0
   10.9737  -18.6425   21.0401 C   0  0  1  0  0  0  0  0  0  0  0  0
   12.3186  -18.4930   21.2696 O   0  0  0  0  0  0  0  0  0  0  0  0
   10.1604  -17.3805   21.1924 C   0  0  2  0  0  0  0  0  0  0  0  0
   10.5706  -16.3843   20.1964 N   0  0  0  0  0  0  0  0  0  0  0  0
   10.1752  -16.8054   22.5345 C   0  0  0  0  0  0  0  0  0  0  0  0
   11.0118  -15.8609   22.7619 O   0  0  0  0  0  0  0  0  0  0  0  0
    9.3067  -17.2595   23.5576 N   0  0  0  0  0  0  0  0  0  0  0  0
    9.4121  -16.6749   24.8783 C   0  0  1  0  0  0  0  0  0  0  0  0
    8.0543  -16.4040   25.4911 C   0  0  0  0  0  0  0  0  0  0  0  0
    7.4608  -15.1324   25.1057 C   0  0  0  0  0  0  0  0  0  0  0  0
    6.8183  -14.8532   23.9256 C   0  0  0  0  0  0  0  0  0  0  0  0
    6.3996  -13.5917   23.9076 N   0  0  0  0  0  0  0  0  0  0  0  0
    6.7476  -13.0052   25.0597 C   0  0  0  0  0  0  0  0  0  0  0  0
    6.5337  -11.7184   25.4971 C   0  0  0  0  0  0  0  0  0  0  0  0
    6.9908  -11.3440   26.7352 C   0  0  0  0  0  0  0  0  0  0  0  0
    7.6540  -12.2667   27.5121 C   0  0  0  0  0  0  0  0  0  0  0  0
    7.8638  -13.5578   27.0628 C   0  0  0  0  0  0  0  0  0  0  0  0
    7.4128  -13.9558   25.8212 C   0  0  0  0  0  0  0  0  0  0  0  0
   10.0932  -17.6484   25.7600 C   0  0  0  0  0  0  0  0  0  0  0  0
    9.8396  -18.8674   25.6369 O   0  0  0  0  0  0  0  0  0  0  0  0
   11.0328  -17.2595   26.7513 N   0  0  0  0  0  0  0  0  0  0  0  0
   11.6173  -18.2382   27.6357 C   0  0  1  0  0  0  0  0  0  0  0  0
   12.6889  -17.6288   28.5168 C   0  0  0  0  0  0  0  0  0  0  0  0
   14.3328  -17.8772   27.7779 S   0  0  0  0  0  0  0  0  0  0  0  0
   10.5770  -18.9188   28.4568 C   0  0  0  0  0  0  0  0  0  0  0  0
   10.7695  -20.0609   28.9397 O   0  0  0  0  0  0  0  0  0  0  0  0
    9.3394  -18.3210   28.7291 O   0  0  0  0  0  0  0  0  0  0  0  0
  2  1  1  6
  2  3  1  0
  2  4  1  0
  4  6  1  0
  4  5  1  6
  6  7  2  0
  8  9  1  0
  8  6  1  0
 10 11  1  0
  9 10  1  1
 11 12  2  0
 13 12  1  0
 14 13  1  0
 15 14  2  0
 16 15  1  0
 17 18  1  0
 17 16  2  0
 18 19  2  0
 19 14  1  0
 19 11  1  0
 20  9  1  0
 20 21  2  0
 22 20  1  0
 23 22  1  0
 23 26  1  0
 23 24  1  1
 25 24  1  0
 26 28  1  0
 27 26  2  0
M  END
$$$$
