TWC.pdb
     RDKit          3D

 28 29  0  0  1  0  0  0  0  0999 V2000
    6.7427  -15.9968   18.4185 C   0  0  0  0  0  0  0  0  0  0  0  0
    7.7604  -15.9926   19.5607 C   0  0  1  0  0  0  0  0  0  0  0  0
    9.0214  -15.9948   19.0186 O   0  0  0  0  0  0  0  0  0  0  0  0
    7.4912  -14.8724   20.5354 C   0  0  2  0  0  0  0  0  0  0  0  0
    7.4688  -13.5819   19.8379 N   0  0  0  0  0  0  0  0  0  0  0  0
    8.4011  -14.8271   21.6765 C   0  0  0  0  0  0  0  0  0  0  0  0
    9.3689  -13.9877   21.6257 O   0  0  0  0  0  0  0  0  0  0  0  0
    8.2368  -15.6689   22.8042 N   0  0  0  0  0  0  0  0  0  0  0  0
    9.1690  -15.5552   23.9065 C   0  0  1  0  0  0  0  0  0  0  0  0
    8.5174  -15.8654   25.2376 C   0  0  0  0  0  0  0  0  0  0  0  0
    7.4120  -14.9861   25.5881 C   0  0  0  0  0  0  0  0  0  0  0  0
    6.0822  -15.3216   25.6349 C   0  0  0  0  0  0  0  0  0  0  0  0
    5.3472  -14.2735   25.9929 N   0  0  0  0  0  0  0  0  0  0  0  0
    6.1572  -13.2261   26.1913 C   0  0  0  0  0  0  0  0  0  0  0  0
    5.8597  -11.9370   26.5689 C   0  0  0  0  0  0  0  0  0  0  0  0
    6.8757  -11.0258   26.7094 C   0  0  0  0  0  0  0  0  0  0  0  0
    8.1711  -11.4239   26.4687 C   0  0  0  0  0  0  0  0  0  0  0  0
    8.4592  -12.7224   26.0895 C   0  0  0  0  0  0  0  0  0  0  0  0
    7.4533  -13.6550   25.9421 C   0  0  0  0  0  0  0  0  0  0  0  0
   10.2393  -16.5576   23.7099 C   0  0  0  0  0  0  0  0  0  0  0  0
    9.9538  -17.6670   23.2068 O   0  0  0  0  0  0  0  0  0  0  0  0
   11.5918  -16.3167   24.0697 N   0  0  0  0  0  0  0  0  0  0  0  0
   12.5847  -17.3552   23.9379 C   0  0  1  0  0  0  0  0  0  0  0  0
   13.7674  -16.8984   23.1079 C   0  0  0  0  0  0  0  0  0  0  0  0
   13.2662  -15.5714   21.9686 S   0  0  0  0  0  0  0  0  0  0  0  0
   13.0301  -17.8534   25.2695 C   0  0  0  0  0  0  0  0  0  0  0  0
   13.9224  -18.7295   25.3743 O   0  0  0  0  0  0  0  0  0  0  0  0
   12.4782  -17.3715   26.4637 O   0  0  0  0  0  0  0  0  0  0  0  0
  2  1  1  6
  2  3  1  0
  2  4  1  0
  4  6  1  0
  4  5  1  6
  6  7  2  0
  8  9  1  0
  8  6  1  0
 10 11  1  0
  9 10  1  1
 11 12  2  0
 13 12  1  0
 14 13  1  0
 15 14  2  0
 16 15  1  0
 17 18  1  0
 17 16  2  0
 18 19  2  0
 19 14  1  0
 19 11  1  0
 20  9  1  0
 20 21  2  0
 22 20  1  0
 23 22  1  0
 23 26  1  0
 23 24  1  1
 25 24  1  0
 26 28  1  0
 27 26  2  0
M  END
$$$$
