TWC.pdb
     RDKit          3D

 28 29  0  0  1  0  0  0  0  0999 V2000
    8.0751  -19.3997   17.8295 C   0  0  0  0  0  0  0  0  0  0  0  0
    8.5309  -18.7481   19.1365 C   0  0  1  0  0  0  0  0  0  0  0  0
    9.8810  -18.9522   19.2756 O   0  0  0  0  0  0  0  0  0  0  0  0
    8.0965  -17.3050   19.2142 C   0  0  2  0  0  0  0  0  0  0  0  0
    8.6675  -16.5383   18.1012 N   0  0  0  0  0  0  0  0  0  0  0  0
    8.3789  -16.6525   20.4896 C   0  0  0  0  0  0  0  0  0  0  0  0
    9.4317  -15.9239   20.5586 O   0  0  0  0  0  0  0  0  0  0  0  0
    7.5346  -16.8059   21.6169 N   0  0  0  0  0  0  0  0  0  0  0  0
    7.9080  -16.1726   22.8646 C   0  0  1  0  0  0  0  0  0  0  0  0
    6.7443  -16.0852   23.8293 C   0  0  0  0  0  0  0  0  0  0  0  0
    7.0541  -15.4298   25.0912 C   0  0  0  0  0  0  0  0  0  0  0  0
    7.4242  -16.0419   26.2623 C   0  0  0  0  0  0  0  0  0  0  0  0
    7.6314  -15.1403   27.2168 N   0  0  0  0  0  0  0  0  0  0  0  0
    7.4077  -13.9200   26.7133 C   0  0  0  0  0  0  0  0  0  0  0  0
    7.4934  -12.6856   27.3149 C   0  0  0  0  0  0  0  0  0  0  0  0
    7.2121  -11.5598   26.5832 C   0  0  0  0  0  0  0  0  0  0  0  0
    6.8501  -11.6922   25.2619 C   0  0  0  0  0  0  0  0  0  0  0  0
    6.7670  -12.9379   24.6667 C   0  0  0  0  0  0  0  0  0  0  0  0
    7.0454  -14.0833   25.3837 C   0  0  0  0  0  0  0  0  0  0  0  0
    8.9410  -17.0090   23.5146 C   0  0  0  0  0  0  0  0  0  0  0  0
    8.7787  -18.2483   23.5710 O   0  0  0  0  0  0  0  0  0  0  0  0
   10.1225  -16.4645   24.0842 N   0  0  0  0  0  0  0  0  0  0  0  0
   11.1184  -17.3247   24.6757 C   0  0  1  0  0  0  0  0  0  0  0  0
   12.5190  -16.9418   24.2423 C   0  0  0  0  0  0  0  0  0  0  0  0
   12.4531  -15.7290   22.8878 S   0  0  0  0  0  0  0  0  0  0  0  0
   11.0077  -17.3429   26.1614 C   0  0  0  0  0  0  0  0  0  0  0  0
   10.1834  -16.6135   26.7642 O   0  0  0  0  0  0  0  0  0  0  0  0
   11.8135  -18.1703   26.9546 O   0  0  0  0  0  0  0  0  0  0  0  0
  2  1  1  6
  2  3  1  0
  2  4  1  0
  4  6  1  0
  4  5  1  6
  6  7  2  0
  8  9  1  0
  8  6  1  0
 10 11  1  0
  9 10  1  1
 11 12  2  0
 13 12  1  0
 14 13  1  0
 15 14  2  0
 16 15  1  0
 17 18  1  0
 17 16  2  0
 18 19  2  0
 19 14  1  0
 19 11  1  0
 20  9  1  0
 20 21  2  0
 22 20  1  0
 23 22  1  0
 23 26  1  0
 23 24  1  1
 25 24  1  0
 26 28  1  0
 27 26  2  0
M  END
$$$$
