IEV.pdb
     RDKit          3D

 25 24  0  0  1  0  0  0  0  0999 V2000
   15.7559  -13.3276  -15.9458 C   0  0  0  0  0  0  0  0  0  0  0  0
   16.8848  -12.3615  -16.2300 C   0  0  0  0  0  0  0  0  0  0  0  0
   17.2087  -11.5549  -15.0145 C   0  0  2  0  0  0  0  0  0  0  0  0
   15.9637  -10.7907  -14.6141 C   0  0  0  0  0  0  0  0  0  0  0  0
   18.3932  -10.6302  -15.1927 C   0  0  2  0  0  0  0  0  0  0  0  0
   19.5753  -11.3982  -15.5270 N   0  0  0  0  0  0  0  0  0  0  0  0
   18.6688   -9.8231  -13.9972 C   0  0  0  0  0  0  0  0  0  0  0  0
   19.2691  -10.2906  -12.9771 O   0  0  0  0  0  0  0  0  0  0  0  0
   18.2605   -8.4699  -13.9541 N   0  0  0  0  0  0  0  0  0  0  0  0
   18.6141   -7.6314  -12.8178 C   0  0  1  0  0  0  0  0  0  0  0  0
   19.7143   -6.7260  -13.2871 C   0  0  0  0  0  0  0  0  0  0  0  0
   20.2412   -5.7818  -12.2598 C   0  0  0  0  0  0  0  0  0  0  0  0
   21.2284   -4.8393  -12.8532 C   0  0  0  0  0  0  0  0  0  0  0  0
   21.8690   -5.2248  -13.8636 O   0  0  0  0  0  0  0  0  0  0  0  0
   17.4212   -6.8993  -12.3348 C   0  0  0  0  0  0  0  0  0  0  0  0
   16.6810   -6.2783  -13.1169 O   0  0  0  0  0  0  0  0  0  0  0  0
   21.4524   -3.5747  -12.3292 O   0  0  0  0  0  0  0  0  0  0  0  0
   16.3993   -6.5755   -8.1297 C   0  0  0  0  0  0  0  0  0  0  0  0
   15.3379   -6.7579   -9.2031 C   0  0  2  0  0  0  0  0  0  0  0  0
   15.1330   -8.2462   -9.3574 C   0  0  0  0  0  0  0  0  0  0  0  0
   15.8142   -6.2278  -10.5387 C   0  0  2  0  0  0  0  0  0  0  0  0
   17.0524   -6.8628  -10.9525 N   0  0  0  0  0  0  0  0  0  0  0  0
   16.0612   -4.7826  -10.4125 C   0  0  0  0  0  0  0  0  0  0  0  0
   15.0061   -3.9211  -10.2116 O   0  0  0  0  0  0  0  0  0  0  0  0
   17.2182   -4.3324  -10.4863 O   0  0  0  0  0  0  0  0  0  0  0  0
  2  1  1  0
  3  2  1  0
  3  4  1  6
  5  3  1  0
  5  6  1  1
  7  9  1  0
  7  5  1  0
  8  7  2  0
 10  9  1  0
 10 11  1  6
 12 11  1  0
 13 14  2  0
 13 12  1  0
 15 16  2  0
 15 10  1  0
 17 13  1  0
 19 18  1  1
 20 19  1  0
 21 22  1  1
 21 19  1  0
 22 15  1  0
 23 21  1  0
 24 23  1  0
 25 23  2  0
M  END
$$$$
