IEV.pdb
     RDKit          3D

 25 24  0  0  1  0  0  0  0  0999 V2000
   11.4798  -12.2561  -14.1959 C   0  0  0  0  0  0  0  0  0  0  0  0
   12.9447  -12.3005  -14.5710 C   0  0  0  0  0  0  0  0  0  0  0  0
   13.7718  -11.5799  -13.5564 C   0  0  2  0  0  0  0  0  0  0  0  0
   13.2963  -10.1429  -13.4993 C   0  0  0  0  0  0  0  0  0  0  0  0
   15.2610  -11.6609  -13.8132 C   0  0  2  0  0  0  0  0  0  0  0  0
   15.6875  -13.0455  -13.8221 N   0  0  0  0  0  0  0  0  0  0  0  0
   16.0500  -10.9230  -12.8184 C   0  0  0  0  0  0  0  0  0  0  0  0
   16.2972  -11.3852  -11.6588 O   0  0  0  0  0  0  0  0  0  0  0  0
   16.5665   -9.6462  -13.1386 N   0  0  0  0  0  0  0  0  0  0  0  0
   17.2690   -8.8639  -12.1316 C   0  0  1  0  0  0  0  0  0  0  0  0
   18.5577   -8.4244  -12.7615 C   0  0  0  0  0  0  0  0  0  0  0  0
   19.3799   -7.4902  -11.9395 C   0  0  0  0  0  0  0  0  0  0  0  0
   20.6997   -7.2335  -12.5776 C   0  0  0  0  0  0  0  0  0  0  0  0
   21.3618   -8.2276  -12.9691 O   0  0  0  0  0  0  0  0  0  0  0  0
   16.4231   -7.7345  -11.6831 C   0  0  0  0  0  0  0  0  0  0  0  0
   15.8707   -6.9749  -12.4975 O   0  0  0  0  0  0  0  0  0  0  0  0
   21.2041   -5.9525  -12.7462 O   0  0  0  0  0  0  0  0  0  0  0  0
   15.3034   -7.3126   -7.5884 C   0  0  0  0  0  0  0  0  0  0  0  0
   14.4540   -6.7530   -8.7186 C   0  0  2  0  0  0  0  0  0  0  0  0
   13.5407   -7.8700   -9.1645 C   0  0  0  0  0  0  0  0  0  0  0  0
   15.3096   -6.3690   -9.9070 C   0  0  2  0  0  0  0  0  0  0  0  0
   16.1930   -7.4522  -10.2992 N   0  0  0  0  0  0  0  0  0  0  0  0
   16.1405   -5.2122   -9.5369 C   0  0  0  0  0  0  0  0  0  0  0  0
   15.5513   -3.9887   -9.3097 O   0  0  0  0  0  0  0  0  0  0  0  0
   17.3737   -5.3315   -9.4275 O   0  0  0  0  0  0  0  0  0  0  0  0
  2  1  1  0
  3  2  1  0
  3  4  1  6
  5  3  1  0
  5  6  1  1
  7  9  1  0
  7  5  1  0
  8  7  2  0
 10  9  1  0
 10 11  1  6
 12 11  1  0
 13 14  2  0
 13 12  1  0
 15 16  2  0
 15 10  1  0
 17 13  1  0
 19 18  1  1
 20 19  1  0
 21 22  1  1
 21 19  1  0
 22 15  1  0
 23 21  1  0
 24 23  1  0
 25 23  2  0
M  END
$$$$
