IEV.pdb
     RDKit          3D

 25 24  0  0  1  0  0  0  0  0999 V2000
   28.4969  -19.3998   -6.9295 C   0  0  0  0  0  0  0  0  0  0  0  0
   27.8819  -20.5641   -7.6744 C   0  0  0  0  0  0  0  0  0  0  0  0
   26.8756  -20.0829   -8.6687 C   0  0  2  0  0  0  0  0  0  0  0  0
   25.8127  -19.3051   -7.9205 C   0  0  0  0  0  0  0  0  0  0  0  0
   26.2677  -21.1872   -9.5060 C   0  0  2  0  0  0  0  0  0  0  0  0
   27.3155  -21.9756  -10.1222 N   0  0  0  0  0  0  0  0  0  0  0  0
   25.3722  -20.6789  -10.5531 C   0  0  0  0  0  0  0  0  0  0  0  0
   24.4564  -19.8270  -10.3186 O   0  0  0  0  0  0  0  0  0  0  0  0
   25.5138  -21.1395  -11.8826 N   0  0  0  0  0  0  0  0  0  0  0  0
   24.6639  -20.6088  -12.9386 C   0  0  1  0  0  0  0  0  0  0  0  0
   25.2418  -21.1004  -14.2329 C   0  0  0  0  0  0  0  0  0  0  0  0
   26.6873  -20.7961  -14.4390 C   0  0  0  0  0  0  0  0  0  0  0  0
   27.2027  -21.4494  -15.6729 C   0  0  0  0  0  0  0  0  0  0  0  0
   26.4159  -22.1926  -16.3119 O   0  0  0  0  0  0  0  0  0  0  0  0
   23.2619  -21.0346  -12.7259 C   0  0  0  0  0  0  0  0  0  0  0  0
   22.9872  -22.1636  -12.2840 O   0  0  0  0  0  0  0  0  0  0  0  0
   28.5009  -21.2612  -16.1234 O   0  0  0  0  0  0  0  0  0  0  0  0
   20.1048  -18.2441  -12.4072 C   0  0  0  0  0  0  0  0  0  0  0  0
   20.0566  -19.6577  -11.8491 C   0  0  2  0  0  0  0  0  0  0  0  0
   20.7892  -19.6246  -10.5290 C   0  0  0  0  0  0  0  0  0  0  0  0
   20.7937  -20.6263  -12.7493 C   0  0  2  0  0  0  0  0  0  0  0  0
   22.1500  -20.1808  -13.0133 N   0  0  0  0  0  0  0  0  0  0  0  0
   20.0820  -20.7120  -14.0345 C   0  0  0  0  0  0  0  0  0  0  0  0
   20.6917  -20.2701  -15.1872 O   0  0  0  0  0  0  0  0  0  0  0  0
   18.9314  -21.1812  -14.0874 O   0  0  0  0  0  0  0  0  0  0  0  0
  2  1  1  0
  3  2  1  0
  3  4  1  1
  5  3  1  0
  5  6  1  6
  7  9  1  0
  7  5  1  0
  8  7  2  0
 10  9  1  0
 10 11  1  6
 12 11  1  0
 13 14  2  0
 13 12  1  0
 15 16  2  0
 15 10  1  0
 17 13  1  0
 19 18  1  6
 20 19  1  0
 21 22  1  6
 21 19  1  0
 22 15  1  0
 23 21  1  0
 24 23  1  0
 25 23  2  0
M  END
$$$$
