IEV.pdb
     RDKit          3D

 25 24  0  0  1  0  0  0  0  0999 V2000
   27.6630  -20.0551   -7.2166 C   0  0  0  0  0  0  0  0  0  0  0  0
   27.7828  -20.9486   -8.4315 C   0  0  0  0  0  0  0  0  0  0  0  0
   26.7883  -20.5567   -9.4756 C   0  0  2  0  0  0  0  0  0  0  0  0
   25.4020  -20.7271   -8.8895 C   0  0  0  0  0  0  0  0  0  0  0  0
   26.9370  -21.3157  -10.7764 C   0  0  2  0  0  0  0  0  0  0  0  0
   28.3209  -21.2977  -11.2049 N   0  0  0  0  0  0  0  0  0  0  0  0
   26.0960  -20.7722  -11.8506 C   0  0  0  0  0  0  0  0  0  0  0  0
   26.3160  -19.6398  -12.3879 O   0  0  0  0  0  0  0  0  0  0  0  0
   24.9919  -21.5184  -12.3237 N   0  0  0  0  0  0  0  0  0  0  0  0
   24.1370  -20.9814  -13.3725 C   0  0  1  0  0  0  0  0  0  0  0  0
   24.5354  -21.6779  -14.6400 C   0  0  0  0  0  0  0  0  0  0  0  0
   23.7473  -21.2979  -15.8479 C   0  0  0  0  0  0  0  0  0  0  0  0
   22.8790  -22.4201  -16.2972 C   0  0  0  0  0  0  0  0  0  0  0  0
   21.6398  -22.2156  -16.3463 O   0  0  0  0  0  0  0  0  0  0  0  0
   22.7128  -21.1799  -13.0197 C   0  0  0  0  0  0  0  0  0  0  0  0
   22.3049  -22.2568  -12.5514 O   0  0  0  0  0  0  0  0  0  0  0  0
   23.3938  -23.6574  -16.6546 O   0  0  0  0  0  0  0  0  0  0  0  0
   20.1097  -17.8862  -12.5293 C   0  0  0  0  0  0  0  0  0  0  0  0
   19.8804  -19.2381  -11.8721 C   0  0  2  0  0  0  0  0  0  0  0  0
   20.7270  -19.2578  -10.6216 C   0  0  0  0  0  0  0  0  0  0  0  0
   20.3614  -20.3662  -12.7597 C   0  0  2  0  0  0  0  0  0  0  0  0
   21.7301  -20.1545  -13.1949 N   0  0  0  0  0  0  0  0  0  0  0  0
   19.5051  -20.4247  -13.9551 C   0  0  0  0  0  0  0  0  0  0  0  0
   18.1941  -20.8299  -13.8409 O   0  0  0  0  0  0  0  0  0  0  0  0
   19.9575  -20.1105  -15.0701 O   0  0  0  0  0  0  0  0  0  0  0  0
  2  1  1  0
  3  2  1  0
  3  4  1  1
  5  3  1  0
  5  6  1  6
  7  9  1  0
  7  5  1  0
  8  7  2  0
 10  9  1  0
 10 11  1  6
 12 11  1  0
 13 14  2  0
 13 12  1  0
 15 16  2  0
 15 10  1  0
 17 13  1  0
 19 18  1  6
 20 19  1  0
 21 22  1  6
 21 19  1  0
 22 15  1  0
 23 21  1  0
 24 23  1  0
 25 23  2  0
M  END
$$$$
