IEV.pdb
     RDKit          3D

 25 24  0  0  1  0  0  0  0  0999 V2000
   12.9625  -13.5152  -14.7296 C   0  0  0  0  0  0  0  0  0  0  0  0
   14.1742  -12.7329  -15.1861 C   0  0  0  0  0  0  0  0  0  0  0  0
   14.7845  -11.9893  -14.0427 C   0  0  2  0  0  0  0  0  0  0  0  0
   13.7225  -11.0853  -13.4516 C   0  0  0  0  0  0  0  0  0  0  0  0
   16.0292  -11.2128  -14.4138 C   0  0  2  0  0  0  0  0  0  0  0  0
   17.0741  -12.1236  -14.8353 N   0  0  0  0  0  0  0  0  0  0  0  0
   16.5323  -10.3846  -13.3103 C   0  0  0  0  0  0  0  0  0  0  0  0
   17.1752  -10.8707  -12.3255 O   0  0  0  0  0  0  0  0  0  0  0  0
   16.3056   -8.9889  -13.3199 N   0  0  0  0  0  0  0  0  0  0  0  0
   16.8682   -8.1457  -12.2750 C   0  0  1  0  0  0  0  0  0  0  0  0
   17.9353   -7.3184  -12.9287 C   0  0  0  0  0  0  0  0  0  0  0  0
   18.2984   -7.7310  -14.3152 C   0  0  0  0  0  0  0  0  0  0  0  0
   19.4319   -6.9199  -14.8371 C   0  0  0  0  0  0  0  0  0  0  0  0
   19.2082   -5.7144  -15.1136 O   0  0  0  0  0  0  0  0  0  0  0  0
   15.8014   -7.3330  -11.6474 C   0  0  0  0  0  0  0  0  0  0  0  0
   14.8415   -6.9011  -12.3088 O   0  0  0  0  0  0  0  0  0  0  0  0
   20.6998   -7.4514  -15.0210 O   0  0  0  0  0  0  0  0  0  0  0  0
   15.4597   -6.8504   -7.4091 C   0  0  0  0  0  0  0  0  0  0  0  0
   14.3063   -6.5880   -8.3645 C   0  0  2  0  0  0  0  0  0  0  0  0
   13.6249   -7.9165   -8.5918 C   0  0  0  0  0  0  0  0  0  0  0  0
   14.8085   -6.1036   -9.7079 C   0  0  2  0  0  0  0  0  0  0  0  0
   15.8111   -6.9991  -10.2559 N   0  0  0  0  0  0  0  0  0  0  0  0
   15.4253   -4.7791   -9.5321 C   0  0  0  0  0  0  0  0  0  0  0  0
   14.6359   -3.6865   -9.2510 O   0  0  0  0  0  0  0  0  0  0  0  0
   16.6566   -4.6387   -9.6359 O   0  0  0  0  0  0  0  0  0  0  0  0
  2  1  1  0
  3  2  1  0
  3  4  1  6
  5  3  1  0
  5  6  1  1
  7  9  1  0
  7  5  1  0
  8  7  2  0
 10  9  1  0
 10 11  1  6
 12 11  1  0
 13 14  2  0
 13 12  1  0
 15 16  2  0
 15 10  1  0
 17 13  1  0
 19 18  1  1
 20 19  1  0
 21 22  1  1
 21 19  1  0
 22 15  1  0
 23 21  1  0
 24 23  1  0
 25 23  2  0
M  END
$$$$
