IEV.pdb
     RDKit          3D

 25 24  0  0  1  0  0  0  0  0999 V2000
   16.0928  -12.5767  -20.4404 C   0  0  0  0  0  0  0  0  0  0  0  0
   17.2532  -12.4580  -19.4772 C   0  0  0  0  0  0  0  0  0  0  0  0
   17.1246  -11.2238  -18.6446 C   0  0  2  0  0  0  0  0  0  0  0  0
   17.1027  -10.0301  -19.5768 C   0  0  0  0  0  0  0  0  0  0  0  0
   18.2008  -11.0835  -17.5900 C   0  0  2  0  0  0  0  0  0  0  0  0
   18.2127  -12.2535  -16.7356 N   0  0  0  0  0  0  0  0  0  0  0  0
   18.0288   -9.8852  -16.7587 C   0  0  0  0  0  0  0  0  0  0  0  0
   17.1641   -9.8144  -15.8276 O   0  0  0  0  0  0  0  0  0  0  0  0
   18.8446   -8.7521  -16.9826 N   0  0  0  0  0  0  0  0  0  0  0  0
   18.7553   -7.5965  -16.1018 C   0  0  1  0  0  0  0  0  0  0  0  0
   19.9026   -7.7075  -15.1417 C   0  0  0  0  0  0  0  0  0  0  0  0
   19.5832   -8.3708  -13.8446 C   0  0  0  0  0  0  0  0  0  0  0  0
   20.7319   -8.2876  -12.9020 C   0  0  0  0  0  0  0  0  0  0  0  0
   21.8143   -7.8230  -13.3406 O   0  0  0  0  0  0  0  0  0  0  0  0
   18.7777   -6.3476  -16.8969 C   0  0  0  0  0  0  0  0  0  0  0  0
   19.5962   -6.1797  -17.8174 O   0  0  0  0  0  0  0  0  0  0  0  0
   20.6376   -8.7013  -11.5814 O   0  0  0  0  0  0  0  0  0  0  0  0
   15.6171   -3.5648  -16.5556 C   0  0  0  0  0  0  0  0  0  0  0  0
   16.4514   -3.6450  -17.8243 C   0  0  2  0  0  0  0  0  0  0  0  0
   15.8107   -4.6996  -18.6949 C   0  0  0  0  0  0  0  0  0  0  0  0
   17.8618   -4.1053  -17.5230 C   0  0  2  0  0  0  0  0  0  0  0  0
   17.8679   -5.2696  -16.6559 N   0  0  0  0  0  0  0  0  0  0  0  0
   18.5765   -3.0185  -16.8348 C   0  0  0  0  0  0  0  0  0  0  0  0
   18.9602   -1.8975  -17.5362 O   0  0  0  0  0  0  0  0  0  0  0  0
   18.8375   -3.1052  -15.6218 O   0  0  0  0  0  0  0  0  0  0  0  0
  2  1  1  0
  3  2  1  0
  3  4  1  6
  5  3  1  0
  5  6  1  1
  7  9  1  0
  7  5  1  0
  8  7  2  0
 10  9  1  0
 10 11  1  1
 12 11  1  0
 13 14  2  0
 13 12  1  0
 15 16  2  0
 15 10  1  0
 17 13  1  0
 19 18  1  1
 20 19  1  0
 21 22  1  1
 21 19  1  0
 22 15  1  0
 23 21  1  0
 24 23  1  0
 25 23  2  0
M  END
$$$$
