IEV.pdb
     RDKit          3D

 25 24  0  0  1  0  0  0  0  0999 V2000
   22.7981   -7.7881  -16.7883 C   0  0  0  0  0  0  0  0  0  0  0  0
   22.1039   -8.5910  -15.7103 C   0  0  0  0  0  0  0  0  0  0  0  0
   21.1242   -7.7418  -14.9674 C   0  0  2  0  0  0  0  0  0  0  0  0
   21.8757   -6.5663  -14.3776 C   0  0  0  0  0  0  0  0  0  0  0  0
   20.3473   -8.4912  -13.9067 C   0  0  2  0  0  0  0  0  0  0  0  0
   19.8960   -9.7645  -14.4301 N   0  0  0  0  0  0  0  0  0  0  0  0
   19.1871   -7.7378  -13.4137 C   0  0  0  0  0  0  0  0  0  0  0  0
   19.3014   -6.6508  -12.7618 O   0  0  0  0  0  0  0  0  0  0  0  0
   17.8807   -8.2193  -13.6607 N   0  0  0  0  0  0  0  0  0  0  0  0
   16.7225   -7.4896  -13.1650 C   0  0  1  0  0  0  0  0  0  0  0  0
   15.7347   -7.4486  -14.2933 C   0  0  0  0  0  0  0  0  0  0  0  0
   14.4251   -6.8133  -13.9677 C   0  0  0  0  0  0  0  0  0  0  0  0
   13.5125   -6.8320  -15.1432 C   0  0  0  0  0  0  0  0  0  0  0  0
   13.9431   -7.3420  -16.2083 O   0  0  0  0  0  0  0  0  0  0  0  0
   16.1917   -8.1438  -11.9474 C   0  0  0  0  0  0  0  0  0  0  0  0
   16.2233   -9.3788  -11.8089 O   0  0  0  0  0  0  0  0  0  0  0  0
   12.2277   -6.3118  -15.0916 O   0  0  0  0  0  0  0  0  0  0  0  0
   14.3980   -5.8773   -8.7420 C   0  0  0  0  0  0  0  0  0  0  0  0
   14.9923   -7.2561   -8.5014 C   0  0  2  0  0  0  0  0  0  0  0  0
   16.4403   -7.0419   -8.1299 C   0  0  0  0  0  0  0  0  0  0  0  0
   14.9698   -8.0894   -9.7650 C   0  0  2  0  0  0  0  0  0  0  0  0
   15.6161   -7.4013  -10.8679 N   0  0  0  0  0  0  0  0  0  0  0  0
   13.5692   -8.3406  -10.1404 C   0  0  0  0  0  0  0  0  0  0  0  0
   13.0406   -7.7391  -11.2604 O   0  0  0  0  0  0  0  0  0  0  0  0
   12.8578   -9.0936   -9.4521 O   0  0  0  0  0  0  0  0  0  0  0  0
  2  1  1  0
  3  2  1  0
  3  4  1  1
  5  3  1  0
  5  6  1  6
  7  9  1  0
  7  5  1  0
  8  7  2  0
 10  9  1  0
 10 11  1  6
 12 11  1  0
 13 14  2  0
 13 12  1  0
 15 16  2  0
 15 10  1  0
 17 13  1  0
 19 18  1  6
 20 19  1  0
 21 22  1  6
 21 19  1  0
 22 15  1  0
 23 21  1  0
 24 23  1  0
 25 23  2  0
M  END
$$$$
