IEV.pdb
     RDKit          3D

 25 24  0  0  1  0  0  0  0  0999 V2000
   15.4681  -15.0785  -15.5350 C   0  0  0  0  0  0  0  0  0  0  0  0
   16.2910  -14.9387  -16.7967 C   0  0  0  0  0  0  0  0  0  0  0  0
   17.3536  -13.9027  -16.6224 C   0  0  2  0  0  0  0  0  0  0  0  0
   16.6774  -12.5910  -16.2809 C   0  0  0  0  0  0  0  0  0  0  0  0
   18.2689  -13.7592  -17.8189 C   0  0  2  0  0  0  0  0  0  0  0  0
   18.9402  -15.0157  -18.0826 N   0  0  0  0  0  0  0  0  0  0  0  0
   19.2768  -12.7061  -17.6401 C   0  0  0  0  0  0  0  0  0  0  0  0
   20.3862  -12.9110  -17.0512 O   0  0  0  0  0  0  0  0  0  0  0  0
   19.0275  -11.4045  -18.1333 N   0  0  0  0  0  0  0  0  0  0  0  0
   20.0057  -10.3443  -17.9372 C   0  0  1  0  0  0  0  0  0  0  0  0
   20.0143   -9.5383  -19.2025 C   0  0  0  0  0  0  0  0  0  0  0  0
   20.9383   -8.3675  -19.2031 C   0  0  0  0  0  0  0  0  0  0  0  0
   20.2135   -7.1119  -19.5391 C   0  0  0  0  0  0  0  0  0  0  0  0
   19.1779   -7.2069  -20.2451 O   0  0  0  0  0  0  0  0  0  0  0  0
   19.6586   -9.5468  -16.7390 C   0  0  0  0  0  0  0  0  0  0  0  0
   18.4802   -9.2509  -16.4762 O   0  0  0  0  0  0  0  0  0  0  0  0
   20.6443   -5.8683  -19.1013 O   0  0  0  0  0  0  0  0  0  0  0  0
   20.8214   -7.7939  -12.2523 C   0  0  0  0  0  0  0  0  0  0  0  0
   21.2305   -8.5734  -13.4921 C   0  0  2  0  0  0  0  0  0  0  0  0
   22.5666   -8.0200  -13.9271 C   0  0  0  0  0  0  0  0  0  0  0  0
   20.2565   -8.3444  -14.6281 C   0  0  2  0  0  0  0  0  0  0  0  0
   20.6488   -9.0733  -15.8207 N   0  0  0  0  0  0  0  0  0  0  0  0
   20.2395   -6.9095  -14.9539 C   0  0  0  0  0  0  0  0  0  0  0  0
   19.3958   -6.0610  -14.2725 O   0  0  0  0  0  0  0  0  0  0  0  0
   20.9828   -6.4562  -15.8421 O   0  0  0  0  0  0  0  0  0  0  0  0
  2  1  1  0
  3  2  1  0
  3  4  1  6
  5  3  1  0
  5  6  1  1
  7  9  1  0
  7  5  1  0
  8  7  2  0
 10  9  1  0
 10 11  1  6
 12 11  1  0
 13 14  2  0
 13 12  1  0
 15 16  2  0
 15 10  1  0
 17 13  1  0
 19 18  1  1
 20 19  1  0
 21 22  1  6
 21 19  1  0
 22 15  1  0
 23 21  1  0
 24 23  1  0
 25 23  2  0
M  END
$$$$
