IEV.pdb
     RDKit          3D

 25 24  0  0  1  0  0  0  0  0999 V2000
   27.9820  -14.2304  -15.5068 C   0  0  0  0  0  0  0  0  0  0  0  0
   26.4852  -14.4286  -15.4114 C   0  0  0  0  0  0  0  0  0  0  0  0
   25.7592  -13.2490  -15.9720 C   0  0  2  0  0  0  0  0  0  0  0  0
   26.1495  -12.0303  -15.1615 C   0  0  0  0  0  0  0  0  0  0  0  0
   24.2569  -13.4235  -16.0217 C   0  0  2  0  0  0  0  0  0  0  0  0
   23.9221  -14.6303  -16.7501 N   0  0  0  0  0  0  0  0  0  0  0  0
   23.5728  -12.2829  -16.6445 C   0  0  0  0  0  0  0  0  0  0  0  0
   23.6478  -12.0348  -17.8904 O   0  0  0  0  0  0  0  0  0  0  0  0
   22.7937  -11.4115  -15.8487 N   0  0  0  0  0  0  0  0  0  0  0  0
   22.1514  -10.2489  -16.4446 C   0  0  1  0  0  0  0  0  0  0  0  0
   20.6783  -10.5332  -16.4431 C   0  0  0  0  0  0  0  0  0  0  0  0
   19.8182   -9.4296  -16.9595 C   0  0  0  0  0  0  0  0  0  0  0  0
   18.3862   -9.8338  -16.9883 C   0  0  0  0  0  0  0  0  0  0  0  0
   17.5487   -8.9871  -17.3904 O   0  0  0  0  0  0  0  0  0  0  0  0
   22.5110   -9.0264  -15.6908 C   0  0  0  0  0  0  0  0  0  0  0  0
   22.6671   -9.0475  -14.4577 O   0  0  0  0  0  0  0  0  0  0  0  0
   17.9643  -11.0940  -16.5910 O   0  0  0  0  0  0  0  0  0  0  0  0
   24.1940   -4.3394  -15.6578 C   0  0  0  0  0  0  0  0  0  0  0  0
   23.8407   -5.5932  -16.4421 C   0  0  2  0  0  0  0  0  0  0  0  0
   22.8603   -5.1708  -17.5103 C   0  0  0  0  0  0  0  0  0  0  0  0
   23.1407   -6.6084  -15.5641 C   0  0  2  0  0  0  0  0  0  0  0  0
   22.6987   -7.7598  -16.3299 N   0  0  0  0  0  0  0  0  0  0  0  0
   21.9553   -5.9761  -14.9635 C   0  0  0  0  0  0  0  0  0  0  0  0
   22.1022   -5.1142  -13.8998 O   0  0  0  0  0  0  0  0  0  0  0  0
   20.8195   -6.2149  -15.4101 O   0  0  0  0  0  0  0  0  0  0  0  0
  2  1  1  0
  3  2  1  0
  3  4  1  1
  5  3  1  0
  5  6  1  6
  7  9  1  0
  7  5  1  0
  8  7  2  0
 10  9  1  0
 10 11  1  1
 12 11  1  0
 13 14  2  0
 13 12  1  0
 15 16  2  0
 15 10  1  0
 17 13  1  0
 19 18  1  1
 20 19  1  0
 21 22  1  6
 21 19  1  0
 22 15  1  0
 23 21  1  0
 24 23  1  0
 25 23  2  0
M  END
$$$$
