ARG.pdb
     RDKit          3D

 21 20  0  0  1  0  0  0  0  0999 V2000
   25.0102  -19.2926  -17.7883 C   0  0  0  0  0  0  0  0  0  0  0  0
   23.8927  -18.9699  -16.8343 C   0  0  2  0  0  0  0  0  0  0  0  0
   24.0339  -17.6376  -16.3250 N   0  0  0  0  0  0  0  0  0  0  0  0
   23.8283  -19.9721  -15.7425 C   0  0  0  0  0  0  0  0  0  0  0  0
   23.5956  -21.1779  -16.0370 O   0  0  0  0  0  0  0  0  0  0  0  0
   29.1858  -21.8638   -9.5610 N   0  0  0  0  0  0  0  0  0  0  0  0
   29.5195  -21.4988  -10.9156 C   0  0  0  0  0  0  0  0  0  0  0  0
   30.5787  -21.9620  -11.4848 N   0  0  0  0  0  0  0  0  0  0  0  0
   28.6990  -20.6201  -11.6688 N   0  0  0  0  0  0  0  0  0  0  0  0
   27.2885  -20.4275  -11.4409 C   0  0  0  0  0  0  0  0  0  0  0  0
   26.4284  -20.7942  -12.6392 C   0  0  0  0  0  0  0  0  0  0  0  0
   25.0035  -20.4674  -12.2699 C   0  0  0  0  0  0  0  0  0  0  0  0
   24.0277  -20.6776  -13.3674 C   0  0  2  0  0  0  0  0  0  0  0  0
   24.0094  -19.6714  -14.3852 N   0  0  0  0  0  0  0  0  0  0  0  0
   22.6578  -20.8661  -12.7725 C   0  0  0  0  0  0  0  0  0  0  0  0
   22.4706  -21.6163  -11.7869 O   0  0  0  0  0  0  0  0  0  0  0  0
   30.8724  -21.6596  -12.4477 N   0  0  0  0  0  0  0  0  0  0  0  0
   21.5158  -20.1953  -13.3111 C   0  0  0  0  0  0  0  0  0  0  0  0
   20.1743  -20.4299  -12.7644 C   0  0  0  0  0  0  0  0  0  0  0  0
   19.4956  -21.5278  -13.4596 O   0  0  0  0  0  0  0  0  0  0  0  0
   18.3366  -21.8643  -13.1443 O   0  0  0  0  0  0  0  0  0  0  0  0
  2  1  1  6
  3  2  1  0
  4  5  2  0
  4  2  1  0
  7  6  1  0
  8  7  2  0
  9  7  1  0
 10  9  1  0
 10 11  1  0
 11 12  1  0
 13 12  1  1
 13 14  1  0
 14  4  1  0
 15 13  1  0
 15 17  1  0
 16 15  2  0
 18 17  1  0
 18 19  1  0
 19 21  1  0
 20 19  2  0
M  END
$$$$
