ARG.pdb
     RDKit          3D

 21 20  0  0  1  0  0  0  0  0999 V2000
   27.7146  -18.6017  -18.9812 C   0  0  0  0  0  0  0  0  0  0  0  0
   28.1879  -19.8878  -18.3607 C   0  0  2  0  0  0  0  0  0  0  0  0
   28.2927  -20.9171  -19.3526 N   0  0  0  0  0  0  0  0  0  0  0  0
   27.2997  -20.2897  -17.2427 C   0  0  0  0  0  0  0  0  0  0  0  0
   26.3676  -21.1105  -17.4715 O   0  0  0  0  0  0  0  0  0  0  0  0
   26.2884  -19.9399   -8.0901 N   0  0  0  0  0  0  0  0  0  0  0  0
   25.6625  -20.8338   -9.0328 C   0  0  0  0  0  0  0  0  0  0  0  0
   24.4000  -21.0842   -8.9704 N   0  0  0  0  0  0  0  0  0  0  0  0
   26.4089  -21.4685  -10.0587 N   0  0  0  0  0  0  0  0  0  0  0  0
   27.0635  -20.7727  -11.1386 C   0  0  0  0  0  0  0  0  0  0  0  0
   26.2594  -20.7681  -12.4283 C   0  0  0  0  0  0  0  0  0  0  0  0
   27.1822  -20.2797  -13.5161 C   0  0  0  0  0  0  0  0  0  0  0  0
   26.5694  -20.2545  -14.8670 C   0  0  2  0  0  0  0  0  0  0  0  0
   27.4224  -19.8153  -15.9292 N   0  0  0  0  0  0  0  0  0  0  0  0
   25.3085  -19.4338  -14.8153 C   0  0  0  0  0  0  0  0  0  0  0  0
   25.3418  -18.1818  -14.8408 O   0  0  0  0  0  0  0  0  0  0  0  0
   23.9282  -21.7439   -9.6391 N   0  0  0  0  0  0  0  0  0  0  0  0
   24.0224  -20.0531  -14.7341 C   0  0  0  0  0  0  0  0  0  0  0  0
   22.8048  -19.2486  -14.5802 C   0  0  0  0  0  0  0  0  0  0  0  0
   22.1413  -19.0269  -15.8685 O   0  0  0  0  0  0  0  0  0  0  0  0
   22.7928  -19.0323  -16.9322 O   0  0  0  0  0  0  0  0  0  0  0  0
  2  1  1  6
  3  2  1  0
  4  5  2  0
  4  2  1  0
  7  6  1  0
  8  7  2  0
  9  7  1  0
 10  9  1  0
 10 11  1  0
 11 12  1  0
 13 12  1  1
 13 14  1  0
 14  4  1  0
 15 13  1  0
 15 17  1  0
 16 15  2  0
 18 17  1  0
 18 19  1  0
 19 21  1  0
 20 19  2  0
M  END
$$$$
