ARG.pdb
     RDKit          3D

 21 20  0  0  1  0  0  0  0  0999 V2000
   22.0825  -20.2475  -14.0941 C   0  0  0  0  0  0  0  0  0  0  0  0
   23.0478  -20.3093  -15.2462 C   0  0  2  0  0  0  0  0  0  0  0  0
   23.2266  -21.6630  -15.6816 N   0  0  0  0  0  0  0  0  0  0  0  0
   24.3381  -19.6728  -14.8851 C   0  0  0  0  0  0  0  0  0  0  0  0
   24.3385  -18.4639  -14.5198 O   0  0  0  0  0  0  0  0  0  0  0  0
   23.7347  -21.0937  -10.8760 N   0  0  0  0  0  0  0  0  0  0  0  0
   24.7250  -21.0526   -9.8286 C   0  0  0  0  0  0  0  0  0  0  0  0
   24.3831  -20.8628   -8.6008 N   0  0  0  0  0  0  0  0  0  0  0  0
   26.1058  -21.2179  -10.1087 N   0  0  0  0  0  0  0  0  0  0  0  0
   26.6554  -21.3706  -11.4328 C   0  0  0  0  0  0  0  0  0  0  0  0
   27.0912  -20.0567  -12.0602 C   0  0  0  0  0  0  0  0  0  0  0  0
   27.5637  -20.3752  -13.4561 C   0  0  0  0  0  0  0  0  0  0  0  0
   26.7979  -19.6923  -14.5276 C   0  0  2  0  0  0  0  0  0  0  0  0
   25.5772  -20.3275  -14.9217 N   0  0  0  0  0  0  0  0  0  0  0  0
   27.7010  -19.4801  -15.7131 C   0  0  0  0  0  0  0  0  0  0  0  0
   28.7414  -20.1595  -15.8722 O   0  0  0  0  0  0  0  0  0  0  0  0
   25.0769  -20.9200   -7.8131 N   0  0  0  0  0  0  0  0  0  0  0  0
   27.4057  -18.4928  -16.7041 C   0  0  0  0  0  0  0  0  0  0  0  0
   28.3182  -18.2542  -17.8283 C   0  0  0  0  0  0  0  0  0  0  0  0
   27.9133  -17.0812  -18.6090 O   0  0  0  0  0  0  0  0  0  0  0  0
   28.6336  -16.6469  -19.5300 O   0  0  0  0  0  0  0  0  0  0  0  0
  2  1  1  1
  3  2  1  0
  4  5  2  0
  4  2  1  0
  7  6  1  0
  8  7  2  0
  9  7  1  0
 10  9  1  0
 10 11  1  0
 11 12  1  0
 13 12  1  1
 13 14  1  0
 14  4  1  0
 15 13  1  0
 15 17  1  0
 16 15  2  0
 18 17  1  0
 18 19  1  0
 19 21  1  0
 20 19  2  0
M  END
$$$$
