ARG.pdb
     RDKit          3D

 21 20  0  0  1  0  0  0  0  0999 V2000
   16.9455  -11.0035  -13.3021 C   0  0  0  0  0  0  0  0  0  0  0  0
   15.8563  -10.3480  -12.4978 C   0  0  2  0  0  0  0  0  0  0  0  0
   14.6352  -10.3018  -13.2469 N   0  0  0  0  0  0  0  0  0  0  0  0
   16.2761   -8.9988  -12.0466 C   0  0  0  0  0  0  0  0  0  0  0  0
   16.0580   -8.0100  -12.8012 O   0  0  0  0  0  0  0  0  0  0  0  0
   11.8304   -8.4637   -7.1351 N   0  0  0  0  0  0  0  0  0  0  0  0
   12.2443   -7.1078   -6.8708 C   0  0  0  0  0  0  0  0  0  0  0  0
   11.5522   -6.3426   -6.0987 N   0  0  0  0  0  0  0  0  0  0  0  0
   13.4223   -6.5677   -7.4479 N   0  0  0  0  0  0  0  0  0  0  0  0
   14.2151   -7.2318   -8.4523 C   0  0  0  0  0  0  0  0  0  0  0  0
   15.2695   -6.3344   -9.0791 C   0  0  0  0  0  0  0  0  0  0  0  0
   16.5748   -7.0867   -9.0184 C   0  0  0  0  0  0  0  0  0  0  0  0
   17.1516   -7.4110  -10.3462 C   0  0  2  0  0  0  0  0  0  0  0  0
   16.9088   -8.7386  -10.8228 N   0  0  0  0  0  0  0  0  0  0  0  0
   18.6261   -7.1085  -10.3245 C   0  0  0  0  0  0  0  0  0  0  0  0
   19.3527   -7.4653   -9.3683 O   0  0  0  0  0  0  0  0  0  0  0  0
   11.7841   -5.3258   -5.9674 N   0  0  0  0  0  0  0  0  0  0  0  0
   19.2546   -6.4004  -11.3958 C   0  0  0  0  0  0  0  0  0  0  0  0
   20.6734   -6.0317  -11.3280 C   0  0  0  0  0  0  0  0  0  0  0  0
   21.1199   -5.3851  -12.5657 O   0  0  0  0  0  0  0  0  0  0  0  0
   20.3694   -5.3211  -13.5599 O   0  0  0  0  0  0  0  0  0  0  0  0
  2  1  1  6
  3  2  1  0
  4  5  2  0
  4  2  1  0
  7  6  1  0
  8  7  2  0
  9  7  1  0
 10  9  1  0
 10 11  1  0
 11 12  1  0
 13 12  1  1
 13 14  1  0
 14  4  1  0
 15 13  1  0
 15 17  1  0
 16 15  2  0
 18 17  1  0
 18 19  1  0
 19 21  1  0
 20 19  2  0
M  END
$$$$
