ARG.pdb
     RDKit          3D

 21 20  0  0  1  0  0  0  0  0999 V2000
   25.7328  -22.1217  -17.2786 C   0  0  0  0  0  0  0  0  0  0  0  0
   26.1552  -22.8704  -16.0442 C   0  0  2  0  0  0  0  0  0  0  0  0
   26.3255  -24.2638  -16.3336 N   0  0  0  0  0  0  0  0  0  0  0  0
   25.1882  -22.6520  -14.9408 C   0  0  0  0  0  0  0  0  0  0  0  0
   24.3551  -23.5626  -14.6732 O   0  0  0  0  0  0  0  0  0  0  0  0
   29.0667  -20.5768  -11.9852 N   0  0  0  0  0  0  0  0  0  0  0  0
   29.0954  -21.1211  -10.6502 C   0  0  0  0  0  0  0  0  0  0  0  0
   30.1489  -21.7088  -10.1970 N   0  0  0  0  0  0  0  0  0  0  0  0
   27.9711  -21.0312   -9.7899 N   0  0  0  0  0  0  0  0  0  0  0  0
   26.6512  -20.6349  -10.2139 C   0  0  0  0  0  0  0  0  0  0  0  0
   26.2465  -21.2238  -11.5553 C   0  0  0  0  0  0  0  0  0  0  0  0
   24.8276  -20.7845  -11.8144 C   0  0  0  0  0  0  0  0  0  0  0  0
   24.2354  -21.3427  -13.0549 C   0  0  2  0  0  0  0  0  0  0  0  0
   25.1315  -21.4879  -14.1616 N   0  0  0  0  0  0  0  0  0  0  0  0
   23.0369  -20.5163  -13.4379 C   0  0  0  0  0  0  0  0  0  0  0  0
   23.1366  -19.2899  -13.6734 O   0  0  0  0  0  0  0  0  0  0  0  0
   30.1785  -22.1404   -9.2389 N   0  0  0  0  0  0  0  0  0  0  0  0
   21.7365  -21.1004  -13.5468 C   0  0  0  0  0  0  0  0  0  0  0  0
   20.5752  -20.2918  -13.9356 C   0  0  0  0  0  0  0  0  0  0  0  0
   19.4055  -20.5986  -13.1068 O   0  0  0  0  0  0  0  0  0  0  0  0
   19.4667  -21.4638  -12.2104 O   0  0  0  0  0  0  0  0  0  0  0  0
  2  1  1  6
  3  2  1  0
  4  5  2  0
  4  2  1  0
  7  6  1  0
  8  7  2  0
  9  7  1  0
 10  9  1  0
 10 11  1  0
 11 12  1  0
 13 12  1  1
 13 14  1  0
 14  4  1  0
 15 13  1  0
 15 17  1  0
 16 15  2  0
 18 17  1  0
 18 19  1  0
 19 21  1  0
 20 19  2  0
M  END
$$$$
