ARG.pdb
     RDKit          3D

 21 20  0  0  1  0  0  0  0  0999 V2000
   23.9648  -13.2609  -19.9069 C   0  0  0  0  0  0  0  0  0  0  0  0
   24.4602  -12.1728  -18.9939 C   0  0  2  0  0  0  0  0  0  0  0  0
   25.1059  -12.7348  -17.8444 N   0  0  0  0  0  0  0  0  0  0  0  0
   23.3528  -11.2625  -18.6125 C   0  0  0  0  0  0  0  0  0  0  0  0
   22.7207  -10.6587  -19.5240 O   0  0  0  0  0  0  0  0  0  0  0  0
   16.7981  -13.9752  -14.8111 N   0  0  0  0  0  0  0  0  0  0  0  0
   17.2808  -14.3316  -16.1224 C   0  0  0  0  0  0  0  0  0  0  0  0
   16.8017  -15.3497  -16.7505 N   0  0  0  0  0  0  0  0  0  0  0  0
   18.2961  -13.5793  -16.7670 N   0  0  0  0  0  0  0  0  0  0  0  0
   18.9727  -12.4514  -16.1765 C   0  0  0  0  0  0  0  0  0  0  0  0
   20.0640  -11.8718  -17.0616 C   0  0  0  0  0  0  0  0  0  0  0  0
   20.7145  -10.7587  -16.2798 C   0  0  0  0  0  0  0  0  0  0  0  0
   21.8758  -10.1356  -16.9611 C   0  0  2  0  0  0  0  0  0  0  0  0
   22.9517  -11.0200  -17.2913 N   0  0  0  0  0  0  0  0  0  0  0  0
   22.3653   -8.9791  -16.1310 C   0  0  0  0  0  0  0  0  0  0  0  0
   23.1852   -9.1446  -15.1984 O   0  0  0  0  0  0  0  0  0  0  0  0
   17.1315  -15.6180  -17.7118 N   0  0  0  0  0  0  0  0  0  0  0  0
   21.9118   -7.6454  -16.3753 C   0  0  0  0  0  0  0  0  0  0  0  0
   22.3908   -6.5233  -15.5600 C   0  0  0  0  0  0  0  0  0  0  0  0
   21.6525   -6.4232  -14.2974 O   0  0  0  0  0  0  0  0  0  0  0  0
   20.7653   -7.2510  -14.0086 O   0  0  0  0  0  0  0  0  0  0  0  0
  2  1  1  6
  3  2  1  0
  4  5  2  0
  4  2  1  0
  7  6  1  0
  8  7  2  0
  9  7  1  0
 10  9  1  0
 10 11  1  0
 11 12  1  0
 13 12  1  1
 13 14  1  0
 14  4  1  0
 15 13  1  0
 15 17  1  0
 16 15  2  0
 18 17  1  0
 18 19  1  0
 19 21  1  0
 20 19  2  0
M  END
$$$$
