ARG.pdb
     RDKit          3D

 21 20  0  0  1  0  0  0  0  0999 V2000
   23.1684  -15.1319  -18.0402 C   0  0  0  0  0  0  0  0  0  0  0  0
   24.1002  -16.3066  -18.1618 C   0  0  2  0  0  0  0  0  0  0  0  0
   24.2607  -16.6822  -19.5356 N   0  0  0  0  0  0  0  0  0  0  0  0
   23.6254  -17.4416  -17.3332 C   0  0  0  0  0  0  0  0  0  0  0  0
   22.7224  -18.1947  -17.7937 O   0  0  0  0  0  0  0  0  0  0  0  0
   24.5746  -23.9922  -13.8547 N   0  0  0  0  0  0  0  0  0  0  0  0
   25.7646  -23.2920  -14.2707 C   0  0  0  0  0  0  0  0  0  0  0  0
   26.5534  -23.7949  -15.1569 N   0  0  0  0  0  0  0  0  0  0  0  0
   26.1104  -22.0300  -13.7228 N   0  0  0  0  0  0  0  0  0  0  0  0
   25.2602  -21.2617  -12.8480 C   0  0  0  0  0  0  0  0  0  0  0  0
   24.0797  -20.6237  -13.5617 C   0  0  0  0  0  0  0  0  0  0  0  0
   24.6292  -19.4826  -14.3798 C   0  0  0  0  0  0  0  0  0  0  0  0
   23.6385  -18.8529  -15.2870 C   0  0  2  0  0  0  0  0  0  0  0  0
   24.1149  -17.7426  -16.0543 N   0  0  0  0  0  0  0  0  0  0  0  0
   22.4197  -18.4725  -14.4895 C   0  0  0  0  0  0  0  0  0  0  0  0
   22.4364  -17.5080  -13.6902 O   0  0  0  0  0  0  0  0  0  0  0  0
   27.3884  -23.2712  -15.5223 N   0  0  0  0  0  0  0  0  0  0  0  0
   21.1947  -19.1991  -14.6135 C   0  0  0  0  0  0  0  0  0  0  0  0
   20.0600  -18.9246  -13.7244 C   0  0  0  0  0  0  0  0  0  0  0  0
   18.9329  -19.8207  -13.9998 O   0  0  0  0  0  0  0  0  0  0  0  0
   18.9766  -20.6297  -14.9482 O   0  0  0  0  0  0  0  0  0  0  0  0
  2  1  1  6
  3  2  1  0
  4  5  2  0
  4  2  1  0
  7  6  1  0
  8  7  2  0
  9  7  1  0
 10  9  1  0
 10 11  1  0
 11 12  1  0
 13 12  1  1
 13 14  1  0
 14  4  1  0
 15 13  1  0
 15 17  1  0
 16 15  2  0
 18 17  1  0
 18 19  1  0
 19 21  1  0
 20 19  2  0
M  END
$$$$
