ARG.pdb
     RDKit          3D

 21 20  0  0  1  0  0  0  0  0999 V2000
   25.3098  -23.2853  -18.2652 C   0  0  0  0  0  0  0  0  0  0  0  0
   26.2086  -23.4238  -17.0669 C   0  0  2  0  0  0  0  0  0  0  0  0
   26.7534  -24.7476  -16.9961 N   0  0  0  0  0  0  0  0  0  0  0  0
   25.4864  -23.0590  -15.8237 C   0  0  0  0  0  0  0  0  0  0  0  0
   24.4959  -23.7575  -15.4687 O   0  0  0  0  0  0  0  0  0  0  0  0
   23.7327  -20.1061   -8.8815 N   0  0  0  0  0  0  0  0  0  0  0  0
   24.9096  -20.6727   -8.2706 C   0  0  0  0  0  0  0  0  0  0  0  0
   24.9299  -20.9630   -7.0153 N   0  0  0  0  0  0  0  0  0  0  0  0
   26.0836  -20.9302   -9.0241 N   0  0  0  0  0  0  0  0  0  0  0  0
   26.3080  -20.4593  -10.3682 C   0  0  0  0  0  0  0  0  0  0  0  0
   25.2843  -20.9745  -11.3665 C   0  0  0  0  0  0  0  0  0  0  0  0
   26.0206  -21.2196  -12.6593 C   0  0  0  0  0  0  0  0  0  0  0  0
   25.1596  -21.7017  -13.7671 C   0  0  2  0  0  0  0  0  0  0  0  0
   25.8296  -21.9764  -15.0017 N   0  0  0  0  0  0  0  0  0  0  0  0
   24.0345  -20.7227  -13.9717 C   0  0  0  0  0  0  0  0  0  0  0  0
   24.2274  -19.6085  -14.5109 O   0  0  0  0  0  0  0  0  0  0  0  0
   25.7675  -21.4036   -6.5579 N   0  0  0  0  0  0  0  0  0  0  0  0
   22.7006  -21.0275  -13.5571 C   0  0  0  0  0  0  0  0  0  0  0  0
   21.6147  -20.0560  -13.7314 C   0  0  0  0  0  0  0  0  0  0  0  0
   20.6808  -20.4769  -14.7802 O   0  0  0  0  0  0  0  0  0  0  0  0
   21.0248  -21.3047  -15.6475 O   0  0  0  0  0  0  0  0  0  0  0  0
  2  1  1  6
  3  2  1  0
  4  5  2  0
  4  2  1  0
  7  6  1  0
  8  7  2  0
  9  7  1  0
 10  9  1  0
 10 11  1  0
 11 12  1  0
 13 12  1  1
 13 14  1  0
 14  4  1  0
 15 13  1  0
 15 17  1  0
 16 15  2  0
 18 17  1  0
 18 19  1  0
 19 21  1  0
 20 19  2  0
M  END
$$$$
