ARG.pdb
     RDKit          3D

 21 20  0  0  1  0  0  0  0  0999 V2000
   27.0104  -19.9557  -18.3376 C   0  0  0  0  0  0  0  0  0  0  0  0
   27.4904  -20.8400  -17.2193 C   0  0  2  0  0  0  0  0  0  0  0  0
   28.1606  -21.9941  -17.7419 N   0  0  0  0  0  0  0  0  0  0  0  0
   26.3667  -21.2140  -16.3262 C   0  0  0  0  0  0  0  0  0  0  0  0
   25.7179  -22.2687  -16.5743 O   0  0  0  0  0  0  0  0  0  0  0  0
   24.0906  -21.1063   -7.8277 N   0  0  0  0  0  0  0  0  0  0  0  0
   25.2930  -20.9011   -8.5969 C   0  0  0  0  0  0  0  0  0  0  0  0
   26.4526  -20.9399   -8.0363 N   0  0  0  0  0  0  0  0  0  0  0  0
   25.2451  -20.6498   -9.9922 N   0  0  0  0  0  0  0  0  0  0  0  0
   24.0476  -20.3030  -10.7164 C   0  0  0  0  0  0  0  0  0  0  0  0
   23.9162  -21.0267  -12.0464 C   0  0  0  0  0  0  0  0  0  0  0  0
   25.0506  -20.5489  -12.9171 C   0  0  0  0  0  0  0  0  0  0  0  0
   24.8899  -20.8720  -14.3562 C   0  0  2  0  0  0  0  0  0  0  0  0
   25.9663  -20.4680  -15.2087 N   0  0  0  0  0  0  0  0  0  0  0  0
   23.5803  -20.3083  -14.8392 C   0  0  0  0  0  0  0  0  0  0  0  0
   23.4284  -19.0797  -15.0311 O   0  0  0  0  0  0  0  0  0  0  0  0
   27.3375  -20.7500   -8.5710 N   0  0  0  0  0  0  0  0  0  0  0  0
   22.4576  -21.1551  -15.0972 C   0  0  0  0  0  0  0  0  0  0  0  0
   21.1798  -20.5972  -15.5549 C   0  0  0  0  0  0  0  0  0  0  0  0
   20.3350  -20.1939  -14.4266 O   0  0  0  0  0  0  0  0  0  0  0  0
   20.5343  -20.6516  -13.2835 O   0  0  0  0  0  0  0  0  0  0  0  0
  2  1  1  6
  3  2  1  0
  4  5  2  0
  4  2  1  0
  7  6  1  0
  8  7  2  0
  9  7  1  0
 10  9  1  0
 10 11  1  0
 11 12  1  0
 13 12  1  1
 13 14  1  0
 14  4  1  0
 15 13  1  0
 15 17  1  0
 16 15  2  0
 18 17  1  0
 18 19  1  0
 19 21  1  0
 20 19  2  0
M  END
$$$$
