ARG.pdb
     RDKit          3D

 21 20  0  0  1  0  0  0  0  0999 V2000
   27.8700  -23.1624  -15.5445 C   0  0  0  0  0  0  0  0  0  0  0  0
   27.0013  -22.2644  -16.3823 C   0  0  2  0  0  0  0  0  0  0  0  0
   27.4726  -20.9120  -16.3261 N   0  0  0  0  0  0  0  0  0  0  0  0
   25.5814  -22.3697  -15.9661 C   0  0  0  0  0  0  0  0  0  0  0  0
   25.0270  -23.5043  -15.9776 O   0  0  0  0  0  0  0  0  0  0  0  0
   21.3844  -19.7114   -8.9909 N   0  0  0  0  0  0  0  0  0  0  0  0
   20.9933  -21.0129   -9.4731 C   0  0  0  0  0  0  0  0  0  0  0  0
   20.4954  -21.8931   -8.6745 N   0  0  0  0  0  0  0  0  0  0  0  0
   21.1414  -21.3719  -10.8375 N   0  0  0  0  0  0  0  0  0  0  0  0
   21.6850  -20.5048  -11.8531 C   0  0  0  0  0  0  0  0  0  0  0  0
   21.7923  -21.1668  -13.2170 C   0  0  0  0  0  0  0  0  0  0  0  0
   23.1997  -20.9342  -13.7054 C   0  0  0  0  0  0  0  0  0  0  0  0
   23.4568  -21.4333  -15.0787 C   0  0  2  0  0  0  0  0  0  0  0  0
   24.7981  -21.2822  -15.5549 N   0  0  0  0  0  0  0  0  0  0  0  0
   22.4753  -20.7913  -16.0224 C   0  0  0  0  0  0  0  0  0  0  0  0
   22.5673  -19.5827  -16.3389 O   0  0  0  0  0  0  0  0  0  0  0  0
   20.1849  -22.8394   -9.0107 N   0  0  0  0  0  0  0  0  0  0  0  0
   21.3982  -21.5377  -16.5942 C   0  0  0  0  0  0  0  0  0  0  0  0
   20.4640  -20.9137  -17.5383 C   0  0  0  0  0  0  0  0  0  0  0  0
   19.4168  -20.1621  -16.8401 O   0  0  0  0  0  0  0  0  0  0  0  0
   19.3954  -20.1027  -15.5943 O   0  0  0  0  0  0  0  0  0  0  0  0
  2  1  1  1
  3  2  1  0
  4  5  2  0
  4  2  1  0
  7  6  1  0
  8  7  2  0
  9  7  1  0
 10  9  1  0
 10 11  1  0
 11 12  1  0
 13 12  1  1
 13 14  1  0
 14  4  1  0
 15 13  1  0
 15 17  1  0
 16 15  2  0
 18 17  1  0
 18 19  1  0
 19 21  1  0
 20 19  2  0
M  END
$$$$
