ARG.pdb
     RDKit          3D

 21 20  0  0  1  0  0  0  0  0999 V2000
   26.2522  -21.6396  -18.7116 C   0  0  0  0  0  0  0  0  0  0  0  0
   25.2614  -20.6280  -18.2036 C   0  0  2  0  0  0  0  0  0  0  0  0
   25.8796  -19.3421  -18.0667 N   0  0  0  0  0  0  0  0  0  0  0  0
   24.6518  -21.0835  -16.9303 C   0  0  0  0  0  0  0  0  0  0  0  0
   24.0250  -22.1797  -16.9142 O   0  0  0  0  0  0  0  0  0  0  0  0
   25.4808  -19.1960   -9.9023 N   0  0  0  0  0  0  0  0  0  0  0  0
   25.3766  -20.6269   -9.7564 C   0  0  0  0  0  0  0  0  0  0  0  0
   24.7460  -21.1469   -8.7602 N   0  0  0  0  0  0  0  0  0  0  0  0
   25.9616  -21.5115  -10.6985 N   0  0  0  0  0  0  0  0  0  0  0  0
   26.7297  -21.0897  -11.8434 C   0  0  0  0  0  0  0  0  0  0  0  0
   26.0768  -21.4407  -13.1703 C   0  0  0  0  0  0  0  0  0  0  0  0
   24.8186  -20.6157  -13.2691 C   0  0  0  0  0  0  0  0  0  0  0  0
   24.0628  -20.8087  -14.5311 C   0  0  2  0  0  0  0  0  0  0  0  0
   24.7220  -20.3722  -15.7243 N   0  0  0  0  0  0  0  0  0  0  0  0
   22.7116  -20.1593  -14.3945 C   0  0  0  0  0  0  0  0  0  0  0  0
   22.5724  -18.9169  -14.4735 O   0  0  0  0  0  0  0  0  0  0  0  0
   24.6829  -22.1869   -8.6213 N   0  0  0  0  0  0  0  0  0  0  0  0
   21.5335  -20.9372  -14.1683 C   0  0  0  0  0  0  0  0  0  0  0  0
   20.2078  -20.3087  -14.1365 C   0  0  0  0  0  0  0  0  0  0  0  0
   19.1489  -21.2995  -13.9210 O   0  0  0  0  0  0  0  0  0  0  0  0
   19.2167  -22.4308  -14.4420 O   0  0  0  0  0  0  0  0  0  0  0  0
  2  1  1  1
  3  2  1  0
  4  5  2  0
  4  2  1  0
  7  6  1  0
  8  7  2  0
  9  7  1  0
 10  9  1  0
 10 11  1  0
 11 12  1  0
 13 12  1  1
 13 14  1  0
 14  4  1  0
 15 13  1  0
 15 17  1  0
 16 15  2  0
 18 17  1  0
 18 19  1  0
 19 21  1  0
 20 19  2  0
M  END
$$$$
