ARG.pdb
     RDKit          3D

 21 20  0  0  1  0  0  0  0  0999 V2000
   19.6818  -30.6695  -17.3439 C   0  0  0  0  0  0  0  0  0  0  0  0
   21.1318  -30.7068  -17.7428 C   0  0  2  0  0  0  0  0  0  0  0  0
   21.7923  -31.8253  -17.1371 N   0  0  0  0  0  0  0  0  0  0  0  0
   21.8014  -29.4259  -17.4091 C   0  0  0  0  0  0  0  0  0  0  0  0
   21.7191  -28.9864  -16.2281 O   0  0  0  0  0  0  0  0  0  0  0  0
   27.6745  -24.3682  -16.4890 N   0  0  0  0  0  0  0  0  0  0  0  0
   26.4237  -23.8210  -16.0246 C   0  0  0  0  0  0  0  0  0  0  0  0
   26.2658  -22.5490  -15.8920 N   0  0  0  0  0  0  0  0  0  0  0  0
   25.3258  -24.6577  -15.6975 N   0  0  0  0  0  0  0  0  0  0  0  0
   25.1211  -25.9796  -16.2353 C   0  0  0  0  0  0  0  0  0  0  0  0
   25.2395  -26.0398  -17.7494 C   0  0  0  0  0  0  0  0  0  0  0  0
   24.6162  -27.3420  -18.1843 C   0  0  0  0  0  0  0  0  0  0  0  0
   23.1497  -27.4149  -17.9715 C   0  0  2  0  0  0  0  0  0  0  0  0
   22.5303  -28.6555  -18.3260 N   0  0  0  0  0  0  0  0  0  0  0  0
   22.4954  -26.2631  -18.6866 C   0  0  0  0  0  0  0  0  0  0  0  0
   22.4680  -26.2009  -19.9375 O   0  0  0  0  0  0  0  0  0  0  0  0
   25.3303  -22.1228  -15.6726 N   0  0  0  0  0  0  0  0  0  0  0  0
   21.8797  -25.1939  -17.9642 C   0  0  0  0  0  0  0  0  0  0  0  0
   21.2702  -24.0593  -18.6675 C   0  0  0  0  0  0  0  0  0  0  0  0
   22.1671  -22.9000  -18.6949 O   0  0  0  0  0  0  0  0  0  0  0  0
   23.3135  -22.9673  -18.2079 O   0  0  0  0  0  0  0  0  0  0  0  0
  2  1  1  1
  3  2  1  0
  4  5  2  0
  4  2  1  0
  7  6  1  0
  8  7  2  0
  9  7  1  0
 10  9  1  0
 10 11  1  0
 11 12  1  0
 13 12  1  6
 13 14  1  0
 14  4  1  0
 15 13  1  0
 15 17  1  0
 16 15  2  0
 18 17  1  0
 18 19  1  0
 19 21  1  0
 20 19  2  0
M  END
$$$$
