ARG.pdb
     RDKit          3D

 21 20  0  0  1  0  0  0  0  0999 V2000
   20.6355  -19.6131  -14.3621 C   0  0  0  0  0  0  0  0  0  0  0  0
   21.6549  -19.8946  -15.4319 C   0  0  2  0  0  0  0  0  0  0  0  0
   21.6513  -21.2856  -15.7777 N   0  0  0  0  0  0  0  0  0  0  0  0
   23.0008  -19.4367  -15.0085 C   0  0  0  0  0  0  0  0  0  0  0  0
   23.1694  -18.2153  -14.7355 O   0  0  0  0  0  0  0  0  0  0  0  0
   26.4410  -19.8508   -8.5958 N   0  0  0  0  0  0  0  0  0  0  0  0
   25.4170  -20.7634   -9.0408 C   0  0  0  0  0  0  0  0  0  0  0  0
   24.2012  -20.6460   -8.6304 N   0  0  0  0  0  0  0  0  0  0  0  0
   25.7078  -21.8197   -9.9420 N   0  0  0  0  0  0  0  0  0  0  0  0
   26.2525  -21.6351  -11.2641 C   0  0  0  0  0  0  0  0  0  0  0  0
   25.3956  -20.7464  -12.1507 C   0  0  0  0  0  0  0  0  0  0  0  0
   26.1093  -20.6325  -13.4741 C   0  0  0  0  0  0  0  0  0  0  0  0
   25.4017  -19.7981  -14.4762 C   0  0  2  0  0  0  0  0  0  0  0  0
   24.1172  -20.2761  -14.8886 N   0  0  0  0  0  0  0  0  0  0  0  0
   26.3048  -19.5901  -15.6625 C   0  0  0  0  0  0  0  0  0  0  0  0
   27.4695  -19.1487  -15.5281 O   0  0  0  0  0  0  0  0  0  0  0  0
   23.4386  -21.2939   -8.9524 N   0  0  0  0  0  0  0  0  0  0  0  0
   25.8666  -19.8881  -16.9904 C   0  0  0  0  0  0  0  0  0  0  0  0
   26.7093  -19.5789  -18.1513 C   0  0  0  0  0  0  0  0  0  0  0  0
   27.3547  -20.7833  -18.6824 O   0  0  0  0  0  0  0  0  0  0  0  0
   27.1455  -21.9002  -18.1679 O   0  0  0  0  0  0  0  0  0  0  0  0
  2  1  1  1
  3  2  1  0
  4  5  2  0
  4  2  1  0
  7  6  1  0
  8  7  2  0
  9  7  1  0
 10  9  1  0
 10 11  1  0
 11 12  1  0
 13 12  1  1
 13 14  1  0
 14  4  1  0
 15 13  1  0
 15 17  1  0
 16 15  2  0
 18 17  1  0
 18 19  1  0
 19 21  1  0
 20 19  2  0
M  END
$$$$
