ARG.pdb
     RDKit          3D

 21 20  0  0  1  0  0  0  0  0999 V2000
   25.4339  -11.7273  -17.9247 C   0  0  0  0  0  0  0  0  0  0  0  0
   25.3722  -11.0385  -16.5888 C   0  0  2  0  0  0  0  0  0  0  0  0
   25.4082  -11.9983  -15.5250 N   0  0  0  0  0  0  0  0  0  0  0  0
   24.1756  -10.1662  -16.5024 C   0  0  0  0  0  0  0  0  0  0  0  0
   24.0292   -9.2483  -17.3573 O   0  0  0  0  0  0  0  0  0  0  0  0
   16.5250  -13.3850  -15.6239 N   0  0  0  0  0  0  0  0  0  0  0  0
   17.4232  -13.6152  -16.7283 C   0  0  0  0  0  0  0  0  0  0  0  0
   17.1338  -14.4668  -17.6511 N   0  0  0  0  0  0  0  0  0  0  0  0
   18.6531  -12.9171  -16.8399 N   0  0  0  0  0  0  0  0  0  0  0  0
   19.1049  -11.9103  -15.9121 C   0  0  0  0  0  0  0  0  0  0  0  0
   20.4430  -11.2975  -16.2914 C   0  0  0  0  0  0  0  0  0  0  0  0
   20.7232  -10.2066  -15.2890 C   0  0  0  0  0  0  0  0  0  0  0  0
   21.9975   -9.4825  -15.5190 C   0  0  2  0  0  0  0  0  0  0  0  0
   23.1797  -10.2894  -15.5234 N   0  0  0  0  0  0  0  0  0  0  0  0
   22.1118   -8.3660  -14.5158 C   0  0  0  0  0  0  0  0  0  0  0  0
   22.7918   -8.4926  -13.4713 O   0  0  0  0  0  0  0  0  0  0  0  0
   17.7773  -14.6517  -18.4615 N   0  0  0  0  0  0  0  0  0  0  0  0
   21.4469   -7.1163  -14.7169 C   0  0  0  0  0  0  0  0  0  0  0  0
   21.6126   -6.0108  -13.7661 C   0  0  0  0  0  0  0  0  0  0  0  0
   22.2265   -4.8420  -14.4034 O   0  0  0  0  0  0  0  0  0  0  0  0
   22.3676   -3.7729  -13.7766 O   0  0  0  0  0  0  0  0  0  0  0  0
  2  1  1  6
  3  2  1  0
  4  5  2  0
  4  2  1  0
  7  6  1  0
  8  7  2  0
  9  7  1  0
 10  9  1  0
 10 11  1  0
 11 12  1  0
 13 12  1  1
 13 14  1  0
 14  4  1  0
 15 13  1  0
 15 17  1  0
 16 15  2  0
 18 17  1  0
 18 19  1  0
 19 21  1  0
 20 19  2  0
M  END
$$$$
