GCH.pdb
     RDKit          3D

 21 21  0  0  1  0  0  0  0  0999 V2000
   28.2122  -18.3446  -15.5733 N   0  0  0  0  0  0  0  0  0  0  0  0
   26.8507  -18.7347  -15.7490 C   0  0  0  0  0  0  0  0  0  0  0  0
   26.4583  -19.8734  -14.8745 C   0  0  0  0  0  0  0  0  0  0  0  0
   26.6668  -21.0534  -15.2566 O   0  0  0  0  0  0  0  0  0  0  0  0
   25.8468  -19.7065  -13.6013 N   0  0  0  0  0  0  0  0  0  0  0  0
   25.4490  -20.8354  -12.7852 C   0  0  1  0  0  0  0  0  0  0  0  0
   25.4985  -20.4229  -11.3198 C   0  0  0  0  0  0  0  0  0  0  0  0
   25.1613  -21.8664  -10.2739 S   0  0  0  0  0  0  0  0  0  0  0  0
   24.1269  -21.3664  -13.1581 C   0  0  0  0  0  0  0  0  0  0  0  0
   23.1747  -20.5602  -13.3171 O   0  0  0  0  0  0  0  0  0  0  0  0
   23.8519  -22.7443  -13.3525 N   0  0  0  0  0  0  0  0  0  0  0  0
   22.5523  -23.2656  -13.6938 C   0  0  1  0  0  0  0  0  0  0  0  0
   22.6100  -24.7593  -13.6989 C   0  0  0  0  0  0  0  0  0  0  0  0
   23.3941  -25.3084  -14.8178 C   0  0  0  0  0  0  0  0  0  0  0  0
   23.9618  -24.5259  -15.8015 C   0  0  0  0  0  0  0  0  0  0  0  0
   24.6075  -25.3028  -16.6750 N   0  0  0  0  0  0  0  0  0  0  0  0
   24.4574  -26.5668  -16.2597 C   0  0  0  0  0  0  0  0  0  0  0  0
   23.7237  -26.5650  -15.1375 N   0  0  0  0  0  0  0  0  0  0  0  0
   21.4787  -22.7235  -12.8364 C   0  0  0  0  0  0  0  0  0  0  0  0
   20.3734  -22.1691  -13.4675 O   0  0  0  0  0  0  0  0  0  0  0  0
   21.4897  -22.7260  -11.5879 O   0  0  0  0  0  0  0  0  0  0  0  0
  1  2  1  0
  3  4  2  0
  3  2  1  0
  5  3  1  0
  6  5  1  0
  6  7  1  1
  8  7  1  0
  9  6  1  0
  9 11  1  0
 10  9  2  0
 12 19  1  0
 12 11  1  0
 13 14  1  0
 12 13  1  1
 14 18  1  0
 15 14  2  0
 15 16  1  0
 16 17  1  0
 18 17  2  0
 19 20  1  0
 21 19  2  0
M  END
$$$$
