GCH.pdb
     RDKit          3D

 21 21  0  0  1  0  0  0  0  0999 V2000
   16.7420  -15.2678  -15.9499 N   0  0  0  0  0  0  0  0  0  0  0  0
   15.6834  -14.6735  -15.1996 C   0  0  0  0  0  0  0  0  0  0  0  0
   16.1375  -13.5243  -14.3700 C   0  0  0  0  0  0  0  0  0  0  0  0
   16.1174  -13.6147  -13.1157 O   0  0  0  0  0  0  0  0  0  0  0  0
   16.6046  -12.2990  -14.9207 N   0  0  0  0  0  0  0  0  0  0  0  0
   17.0548  -11.2031  -14.0870 C   0  0  1  0  0  0  0  0  0  0  0  0
   17.8674  -10.2387  -14.9411 C   0  0  0  0  0  0  0  0  0  0  0  0
   18.3615   -8.8110  -13.9367 S   0  0  0  0  0  0  0  0  0  0  0  0
   15.9452  -10.5210  -13.3997 C   0  0  0  0  0  0  0  0  0  0  0  0
   14.9976  -10.0634  -14.0886 O   0  0  0  0  0  0  0  0  0  0  0  0
   15.8726  -10.3430  -11.9943 N   0  0  0  0  0  0  0  0  0  0  0  0
   14.7790   -9.6890  -11.3209 C   0  0  1  0  0  0  0  0  0  0  0  0
   14.2888  -10.5679  -10.2157 C   0  0  0  0  0  0  0  0  0  0  0  0
   13.1567   -9.9915   -9.4712 C   0  0  0  0  0  0  0  0  0  0  0  0
   12.5962   -8.7677   -9.7718 C   0  0  0  0  0  0  0  0  0  0  0  0
   11.5927   -8.5150   -8.9277 N   0  0  0  0  0  0  0  0  0  0  0  0
   11.5085   -9.5608   -8.0959 C   0  0  0  0  0  0  0  0  0  0  0  0
   12.4553  -10.4501   -8.4282 N   0  0  0  0  0  0  0  0  0  0  0  0
   15.1207   -8.3228  -10.8755 C   0  0  0  0  0  0  0  0  0  0  0  0
   14.0860   -7.4017  -10.7830 O   0  0  0  0  0  0  0  0  0  0  0  0
   16.2685   -7.9335  -10.5760 O   0  0  0  0  0  0  0  0  0  0  0  0
  1  2  1  0
  3  4  2  0
  3  2  1  0
  5  3  1  0
  6  5  1  0
  6  7  1  6
  8  7  1  0
  9  6  1  0
  9 11  1  0
 10  9  2  0
 12 19  1  0
 12 11  1  0
 13 14  1  0
 12 13  1  1
 14 18  1  0
 15 14  2  0
 15 16  1  0
 16 17  1  0
 18 17  2  0
 19 20  1  0
 21 19  2  0
M  END
$$$$
