GCH.pdb
     RDKit          3D

 21 21  0  0  1  0  0  0  0  0999 V2000
   18.3947  -14.7355  -16.1539 N   0  0  0  0  0  0  0  0  0  0  0  0
   18.2415  -13.4604  -16.7763 C   0  0  0  0  0  0  0  0  0  0  0  0
   19.2185  -12.4537  -16.2794 C   0  0  0  0  0  0  0  0  0  0  0  0
   19.6917  -12.5639  -15.1194 O   0  0  0  0  0  0  0  0  0  0  0  0
   19.6621  -11.3463  -17.0540 N   0  0  0  0  0  0  0  0  0  0  0  0
   20.6149  -10.3823  -16.5427 C   0  0  1  0  0  0  0  0  0  0  0  0
   21.5798  -10.0064  -17.6596 C   0  0  0  0  0  0  0  0  0  0  0  0
   22.6335  -11.4301  -18.0525 S   0  0  0  0  0  0  0  0  0  0  0  0
   19.9642   -9.1958  -15.9615 C   0  0  0  0  0  0  0  0  0  0  0  0
   18.9617   -8.7096  -16.5451 O   0  0  0  0  0  0  0  0  0  0  0  0
   20.3981   -8.5561  -14.7722 N   0  0  0  0  0  0  0  0  0  0  0  0
   19.7439   -7.4122  -14.1884 C   0  0  1  0  0  0  0  0  0  0  0  0
   19.7871   -7.5310  -12.6990 C   0  0  0  0  0  0  0  0  0  0  0  0
   18.8100   -8.4931  -12.1625 C   0  0  0  0  0  0  0  0  0  0  0  0
   17.9655   -9.2390  -12.9579 C   0  0  0  0  0  0  0  0  0  0  0  0
   17.1986  -10.0177  -12.1904 N   0  0  0  0  0  0  0  0  0  0  0  0
   17.5446   -9.7766  -10.9196 C   0  0  0  0  0  0  0  0  0  0  0  0
   18.5183   -8.8550  -10.9079 N   0  0  0  0  0  0  0  0  0  0  0  0
   20.2823   -6.1315  -14.6900 C   0  0  0  0  0  0  0  0  0  0  0  0
   19.5772   -4.9759  -14.3824 O   0  0  0  0  0  0  0  0  0  0  0  0
   21.3227   -6.0093  -15.3693 O   0  0  0  0  0  0  0  0  0  0  0  0
  1  2  1  0
  3  4  2  0
  3  2  1  0
  5  3  1  0
  6  5  1  0
  6  7  1  6
  8  7  1  0
  9  6  1  0
  9 11  1  0
 10  9  2  0
 12 19  1  0
 12 11  1  0
 13 14  1  0
 12 13  1  1
 14 18  1  0
 15 14  2  0
 15 16  1  0
 16 17  1  0
 18 17  2  0
 19 20  1  0
 21 19  2  0
M  END
$$$$
