GCH.pdb
     RDKit          3D

 21 21  0  0  1  0  0  0  0  0999 V2000
   26.6003  -15.3034  -17.2786 N   0  0  0  0  0  0  0  0  0  0  0  0
   26.5661  -15.6615  -15.8976 C   0  0  0  0  0  0  0  0  0  0  0  0
   26.7149  -17.1257  -15.6764 C   0  0  0  0  0  0  0  0  0  0  0  0
   26.0346  -17.9319  -16.3614 O   0  0  0  0  0  0  0  0  0  0  0  0
   27.6008  -17.6849  -14.7144 N   0  0  0  0  0  0  0  0  0  0  0  0
   27.6030  -19.0993  -14.4013 C   0  0  1  0  0  0  0  0  0  0  0  0
   28.9562  -19.4681  -13.8073 C   0  0  0  0  0  0  0  0  0  0  0  0
   28.9710  -21.2330  -13.3872 S   0  0  0  0  0  0  0  0  0  0  0  0
   26.4938  -19.4849  -13.5127 C   0  0  0  0  0  0  0  0  0  0  0  0
   26.0784  -18.6508  -12.6677 O   0  0  0  0  0  0  0  0  0  0  0  0
   25.8541  -20.7504  -13.5461 N   0  0  0  0  0  0  0  0  0  0  0  0
   24.7916  -21.1395  -12.6532 C   0  0  1  0  0  0  0  0  0  0  0  0
   24.8463  -20.2870  -11.4266 C   0  0  0  0  0  0  0  0  0  0  0  0
   23.8005  -20.6135  -10.4428 C   0  0  0  0  0  0  0  0  0  0  0  0
   24.0239  -21.3996   -9.3317 C   0  0  0  0  0  0  0  0  0  0  0  0
   22.8929  -21.5172   -8.6314 N   0  0  0  0  0  0  0  0  0  0  0  0
   21.9553  -20.8171   -9.2821 C   0  0  0  0  0  0  0  0  0  0  0  0
   22.5083  -20.2731  -10.3757 N   0  0  0  0  0  0  0  0  0  0  0  0
   23.4682  -21.1383  -13.3091 C   0  0  0  0  0  0  0  0  0  0  0  0
   22.4200  -21.7529  -12.6376 O   0  0  0  0  0  0  0  0  0  0  0  0
   23.2207  -20.6270  -14.4209 O   0  0  0  0  0  0  0  0  0  0  0  0
  1  2  1  0
  3  4  2  0
  3  2  1  0
  5  3  1  0
  6  5  1  0
  6  7  1  1
  8  7  1  0
  9  6  1  0
  9 11  1  0
 10  9  2  0
 12 19  1  0
 12 11  1  0
 13 14  1  0
 12 13  1  1
 14 18  1  0
 15 14  2  0
 15 16  1  0
 16 17  1  0
 18 17  2  0
 19 20  1  0
 21 19  2  0
M  END
$$$$
