GCH.pdb
     RDKit          3D

 21 21  0  0  1  0  0  0  0  0999 V2000
   25.4146  -32.4761   -9.2360 N   0  0  0  0  0  0  0  0  0  0  0  0
   26.0563  -32.7287   -7.9866 C   0  0  0  0  0  0  0  0  0  0  0  0
   25.1702  -32.4703   -6.8191 C   0  0  0  0  0  0  0  0  0  0  0  0
   24.0547  -31.9162   -6.9937 O   0  0  0  0  0  0  0  0  0  0  0  0
   25.5145  -32.8196   -5.4840 N   0  0  0  0  0  0  0  0  0  0  0  0
   24.5442  -32.7973   -4.4085 C   0  0  1  0  0  0  0  0  0  0  0  0
   23.4712  -33.8399   -4.6942 C   0  0  0  0  0  0  0  0  0  0  0  0
   22.1869  -33.7514   -3.4158 S   0  0  0  0  0  0  0  0  0  0  0  0
   25.1598  -32.9964   -3.0856 C   0  0  0  0  0  0  0  0  0  0  0  0
   26.1187  -33.8036   -2.9805 O   0  0  0  0  0  0  0  0  0  0  0  0
   24.7382  -32.3302   -1.9064 N   0  0  0  0  0  0  0  0  0  0  0  0
   25.3276  -32.5409   -0.6081 C   0  0  1  0  0  0  0  0  0  0  0  0
   24.7532  -31.5536    0.3562 C   0  0  0  0  0  0  0  0  0  0  0  0
   25.3499  -31.6364    1.6998 C   0  0  0  0  0  0  0  0  0  0  0  0
   26.3624  -32.5139    2.0267 C   0  0  0  0  0  0  0  0  0  0  0  0
   26.6940  -32.3571    3.3109 N   0  0  0  0  0  0  0  0  0  0  0  0
   25.9064  -31.3927    3.8032 C   0  0  0  0  0  0  0  0  0  0  0  0
   25.0962  -30.9606    2.8263 N   0  0  0  0  0  0  0  0  0  0  0  0
   25.2128  -33.9409   -0.1516 C   0  0  0  0  0  0  0  0  0  0  0  0
   26.2687  -34.4638    0.5825 O   0  0  0  0  0  0  0  0  0  0  0  0
   24.2390  -34.6894   -0.3756 O   0  0  0  0  0  0  0  0  0  0  0  0
  1  2  1  0
  3  4  2  0
  3  2  1  0
  5  3  1  0
  6  5  1  0
  6  7  1  6
  8  7  1  0
  9  6  1  0
  9 11  1  0
 10  9  2  0
 12 19  1  0
 12 11  1  0
 13 14  1  0
 12 13  1  1
 14 18  1  0
 15 14  2  0
 15 16  1  0
 16 17  1  0
 18 17  2  0
 19 20  1  0
 21 19  2  0
M  END
$$$$
