GCH.pdb
     RDKit          3D

 21 21  0  0  1  0  0  0  0  0999 V2000
   25.0810  -14.4492  -18.4006 N   0  0  0  0  0  0  0  0  0  0  0  0
   24.5202  -13.2232  -18.8686 C   0  0  0  0  0  0  0  0  0  0  0  0
   24.4163  -12.1908  -17.8017 C   0  0  0  0  0  0  0  0  0  0  0  0
   23.8353  -12.4674  -16.7210 O   0  0  0  0  0  0  0  0  0  0  0  0
   24.9463  -10.8773  -17.9308 N   0  0  0  0  0  0  0  0  0  0  0  0
   24.7990   -9.8824  -16.8880 C   0  0  1  0  0  0  0  0  0  0  0  0
   26.1376   -9.1852  -16.6827 C   0  0  0  0  0  0  0  0  0  0  0  0
   26.9870   -9.9161  -15.2559 S   0  0  0  0  0  0  0  0  0  0  0  0
   23.7205   -8.9203  -17.1708 C   0  0  0  0  0  0  0  0  0  0  0  0
   23.6345   -8.4312  -18.3264 O   0  0  0  0  0  0  0  0  0  0  0  0
   22.7596   -8.5028  -16.2147 N   0  0  0  0  0  0  0  0  0  0  0  0
   21.6830   -7.5883  -16.5014 C   0  0  1  0  0  0  0  0  0  0  0  0
   20.3993   -8.1729  -16.0069 C   0  0  0  0  0  0  0  0  0  0  0  0
   19.9723   -9.3632  -16.7612 C   0  0  0  0  0  0  0  0  0  0  0  0
   20.0424   -9.4551  -18.1356 C   0  0  0  0  0  0  0  0  0  0  0  0
   19.5864  -10.6471  -18.5288 N   0  0  0  0  0  0  0  0  0  0  0  0
   19.2280  -11.3127  -17.4237 C   0  0  0  0  0  0  0  0  0  0  0  0
   19.4629  -10.5330  -16.3586 N   0  0  0  0  0  0  0  0  0  0  0  0
   21.9421   -6.2267  -15.9908 C   0  0  0  0  0  0  0  0  0  0  0  0
   21.0135   -5.2408  -16.2961 O   0  0  0  0  0  0  0  0  0  0  0  0
   22.9319   -5.8953  -15.3060 O   0  0  0  0  0  0  0  0  0  0  0  0
  1  2  1  0
  3  4  2  0
  3  2  1  0
  5  3  1  0
  6  5  1  0
  6  7  1  6
  8  7  1  0
  9  6  1  0
  9 11  1  0
 10  9  2  0
 12 19  1  0
 12 11  1  0
 13 14  1  0
 12 13  1  1
 14 18  1  0
 15 14  2  0
 15 16  1  0
 16 17  1  0
 18 17  2  0
 19 20  1  0
 21 19  2  0
M  END
$$$$
