GCH.pdb
     RDKit          3D

 21 21  0  0  1  0  0  0  0  0999 V2000
   14.8008  -23.9980   -4.6674 N   0  0  0  0  0  0  0  0  0  0  0  0
   14.0166  -23.0093   -4.0009 C   0  0  0  0  0  0  0  0  0  0  0  0
   14.0151  -23.1734   -2.5217 C   0  0  0  0  0  0  0  0  0  0  0  0
   13.7522  -24.2962   -2.0193 O   0  0  0  0  0  0  0  0  0  0  0  0
   14.2996  -22.1132   -1.6173 N   0  0  0  0  0  0  0  0  0  0  0  0
   14.4451  -22.3352   -0.1931 C   0  0  1  0  0  0  0  0  0  0  0  0
   15.7586  -23.0643    0.0580 C   0  0  0  0  0  0  0  0  0  0  0  0
   15.9675  -23.3368    1.8394 S   0  0  0  0  0  0  0  0  0  0  0  0
   14.3550  -21.0892    0.5868 C   0  0  0  0  0  0  0  0  0  0  0  0
   15.0909  -20.1209    0.2662 O   0  0  0  0  0  0  0  0  0  0  0  0
   13.4824  -20.9056    1.6899 N   0  0  0  0  0  0  0  0  0  0  0  0
   13.4252  -19.7012    2.4796 C   0  0  1  0  0  0  0  0  0  0  0  0
   12.0141  -19.2098    2.5212 C   0  0  0  0  0  0  0  0  0  0  0  0
   11.5668  -18.6141    1.2510 C   0  0  0  0  0  0  0  0  0  0  0  0
   10.8135  -19.2954    0.3181 C   0  0  0  0  0  0  0  0  0  0  0  0
   10.5633  -18.4987   -0.7241 N   0  0  0  0  0  0  0  0  0  0  0  0
   11.1470  -17.3217   -0.4656 C   0  0  0  0  0  0  0  0  0  0  0  0
   11.7519  -17.3964    0.7286 N   0  0  0  0  0  0  0  0  0  0  0  0
   14.0269  -19.8694    3.8179 C   0  0  0  0  0  0  0  0  0  0  0  0
   14.0541  -18.7599    4.6520 O   0  0  0  0  0  0  0  0  0  0  0  0
   14.5127  -20.9328    4.2560 O   0  0  0  0  0  0  0  0  0  0  0  0
  1  2  1  0
  3  4  2  0
  3  2  1  0
  5  3  1  0
  6  5  1  0
  6  7  1  6
  8  7  1  0
  9  6  1  0
  9 11  1  0
 10  9  2  0
 12 19  1  0
 12 11  1  0
 13 14  1  0
 12 13  1  1
 14 18  1  0
 15 14  2  0
 15 16  1  0
 16 17  1  0
 18 17  2  0
 19 20  1  0
 21 19  2  0
M  END
$$$$
