GCH.pdb
     RDKit          3D

 21 21  0  0  1  0  0  0  0  0999 V2000
   13.1833  -12.6519   -9.8805 N   0  0  0  0  0  0  0  0  0  0  0  0
   14.3259  -12.1484  -10.5716 C   0  0  0  0  0  0  0  0  0  0  0  0
   14.3444  -10.6623  -10.6516 C   0  0  0  0  0  0  0  0  0  0  0  0
   13.6361  -10.0754  -11.5093 O   0  0  0  0  0  0  0  0  0  0  0  0
   15.1330   -9.8433   -9.7971 N   0  0  0  0  0  0  0  0  0  0  0  0
   15.1167   -8.3975   -9.8875 C   0  0  1  0  0  0  0  0  0  0  0  0
   15.0120   -7.8194   -8.4822 C   0  0  0  0  0  0  0  0  0  0  0  0
   13.4533   -8.3542   -7.7233 S   0  0  0  0  0  0  0  0  0  0  0  0
   16.2812   -7.8617  -10.6124 C   0  0  0  0  0  0  0  0  0  0  0  0
   17.4196   -7.9643  -10.0873 O   0  0  0  0  0  0  0  0  0  0  0  0
   16.2042   -7.2295  -11.8798 N   0  0  0  0  0  0  0  0  0  0  0  0
   17.3489   -6.7420  -12.6074 C   0  0  1  0  0  0  0  0  0  0  0  0
   17.4450   -7.4667  -13.9112 C   0  0  0  0  0  0  0  0  0  0  0  0
   17.5442   -8.9280  -13.7597 C   0  0  0  0  0  0  0  0  0  0  0  0
   16.5153   -9.7935  -14.0675 C   0  0  0  0  0  0  0  0  0  0  0  0
   16.8999  -11.0498  -13.8279 N   0  0  0  0  0  0  0  0  0  0  0  0
   18.1578  -10.9937  -13.3727 C   0  0  0  0  0  0  0  0  0  0  0  0
   18.5425   -9.7099  -13.3333 N   0  0  0  0  0  0  0  0  0  0  0  0
   17.3468   -5.2721  -12.7527 C   0  0  0  0  0  0  0  0  0  0  0  0
   16.2111   -4.5892  -12.3389 O   0  0  0  0  0  0  0  0  0  0  0  0
   18.2882   -4.5975  -13.2190 O   0  0  0  0  0  0  0  0  0  0  0  0
  1  2  1  0
  3  4  2  0
  3  2  1  0
  5  3  1  0
  6  5  1  0
  6  7  1  1
  8  7  1  0
  9  6  1  0
  9 11  1  0
 10  9  2  0
 12 19  1  0
 12 11  1  0
 13 14  1  0
 12 13  1  6
 14 18  1  0
 15 14  2  0
 15 16  1  0
 16 17  1  0
 18 17  2  0
 19 20  1  0
 21 19  2  0
M  END
$$$$
