GCH.pdb
     RDKit          3D

 21 21  0  0  1  0  0  0  0  0999 V2000
   38.1554  -29.4559  -15.1921 N   0  0  0  0  0  0  0  0  0  0  0  0
   37.1144  -30.2766  -14.6636 C   0  0  0  0  0  0  0  0  0  0  0  0
   36.6264  -31.2902  -15.6381 C   0  0  0  0  0  0  0  0  0  0  0  0
   37.1812  -31.3918  -16.7622 O   0  0  0  0  0  0  0  0  0  0  0  0
   35.5444  -32.1738  -15.3710 N   0  0  0  0  0  0  0  0  0  0  0  0
   35.1024  -33.1618  -16.3339 C   0  0  1  0  0  0  0  0  0  0  0  0
   34.4552  -34.3202  -15.5862 C   0  0  0  0  0  0  0  0  0  0  0  0
   35.5748  -34.8978  -14.2808 S   0  0  0  0  0  0  0  0  0  0  0  0
   34.2000  -32.5972  -17.3517 C   0  0  0  0  0  0  0  0  0  0  0  0
   33.5141  -31.5849  -17.0566 O   0  0  0  0  0  0  0  0  0  0  0  0
   34.0505  -33.1254  -18.6596 N   0  0  0  0  0  0  0  0  0  0  0  0
   33.7443  -32.3274  -19.8201 C   0  0  1  0  0  0  0  0  0  0  0  0
   34.6652  -31.1507  -19.8619 C   0  0  0  0  0  0  0  0  0  0  0  0
   34.4684  -30.2984  -21.0464 C   0  0  0  0  0  0  0  0  0  0  0  0
   33.3190  -30.3135  -21.8085 C   0  0  0  0  0  0  0  0  0  0  0  0
   33.4340  -29.4376  -22.8101 N   0  0  0  0  0  0  0  0  0  0  0  0
   34.6399  -28.8672  -22.6943 C   0  0  0  0  0  0  0  0  0  0  0  0
   35.2609  -29.3905  -21.6274 N   0  0  0  0  0  0  0  0  0  0  0  0
   33.7442  -33.1161  -21.0689 C   0  0  0  0  0  0  0  0  0  0  0  0
   32.8486  -32.7432  -22.0619 O   0  0  0  0  0  0  0  0  0  0  0  0
   34.4879  -34.0922  -21.2992 O   0  0  0  0  0  0  0  0  0  0  0  0
  1  2  1  0
  3  4  2  0
  3  2  1  0
  5  3  1  0
  6  5  1  0
  6  7  1  1
  8  7  1  0
  9  6  1  0
  9 11  1  0
 10  9  2  0
 12 19  1  0
 12 11  1  0
 13 14  1  0
 12 13  1  6
 14 18  1  0
 15 14  2  0
 15 16  1  0
 16 17  1  0
 18 17  2  0
 19 20  1  0
 21 19  2  0
M  END
$$$$
