GCH.pdb
     RDKit          3D

 21 21  0  0  1  0  0  0  0  0999 V2000
   29.0406  -21.3146  -15.3509 N   0  0  0  0  0  0  0  0  0  0  0  0
   27.7098  -21.0485  -15.7924 C   0  0  0  0  0  0  0  0  0  0  0  0
   26.6790  -21.4570  -14.7996 C   0  0  0  0  0  0  0  0  0  0  0  0
   26.0839  -22.5567  -14.9356 O   0  0  0  0  0  0  0  0  0  0  0  0
   26.3153  -20.6615  -13.6782 N   0  0  0  0  0  0  0  0  0  0  0  0
   25.4226  -21.1488  -12.6465 C   0  0  1  0  0  0  0  0  0  0  0  0
   25.8693  -20.5838  -11.3044 C   0  0  0  0  0  0  0  0  0  0  0  0
   24.6634  -21.0363  -10.0267 S   0  0  0  0  0  0  0  0  0  0  0  0
   24.0103  -20.8388  -12.9261 C   0  0  0  0  0  0  0  0  0  0  0  0
   23.6520  -19.6337  -12.9634 O   0  0  0  0  0  0  0  0  0  0  0  0
   23.0140  -21.8212  -13.1592 N   0  0  0  0  0  0  0  0  0  0  0  0
   21.6106  -21.5262  -13.3034 C   0  0  1  0  0  0  0  0  0  0  0  0
   20.9211  -22.7088  -13.9038 C   0  0  0  0  0  0  0  0  0  0  0  0
   19.4802  -22.4958  -14.1196 C   0  0  0  0  0  0  0  0  0  0  0  0
   18.9757  -21.6130  -15.0515 C   0  0  0  0  0  0  0  0  0  0  0  0
   17.6409  -21.6382  -15.0157 N   0  0  0  0  0  0  0  0  0  0  0  0
   17.2915  -22.5241  -14.0746 C   0  0  0  0  0  0  0  0  0  0  0  0
   18.4060  -23.0395  -13.5361 N   0  0  0  0  0  0  0  0  0  0  0  0
   20.9936  -21.0656  -12.0430 C   0  0  0  0  0  0  0  0  0  0  0  0
   19.8704  -20.2553  -12.1383 O   0  0  0  0  0  0  0  0  0  0  0  0
   21.4052  -21.3494  -10.8989 O   0  0  0  0  0  0  0  0  0  0  0  0
  1  2  1  0
  3  4  2  0
  3  2  1  0
  5  3  1  0
  6  5  1  0
  6  7  1  1
  8  7  1  0
  9  6  1  0
  9 11  1  0
 10  9  2  0
 12 19  1  0
 12 11  1  0
 13 14  1  0
 12 13  1  1
 14 18  1  0
 15 14  2  0
 15 16  1  0
 16 17  1  0
 18 17  2  0
 19 20  1  0
 21 19  2  0
M  END
$$$$
