GCH.pdb
     RDKit          3D

 21 21  0  0  1  0  0  0  0  0999 V2000
   28.1529  -21.6918  -16.1259 N   0  0  0  0  0  0  0  0  0  0  0  0
   27.8873  -20.7309  -15.1048 C   0  0  0  0  0  0  0  0  0  0  0  0
   26.8097  -21.1610  -14.1726 C   0  0  0  0  0  0  0  0  0  0  0  0
   25.9007  -21.9277  -14.5821 O   0  0  0  0  0  0  0  0  0  0  0  0
   26.7418  -20.7489  -12.8131 N   0  0  0  0  0  0  0  0  0  0  0  0
   25.5535  -20.9455  -12.0082 C   0  0  1  0  0  0  0  0  0  0  0  0
   25.8694  -20.5680  -10.5668 C   0  0  0  0  0  0  0  0  0  0  0  0
   24.3563  -20.6673   -9.5706 S   0  0  0  0  0  0  0  0  0  0  0  0
   24.3904  -20.2039  -12.5240 C   0  0  0  0  0  0  0  0  0  0  0  0
   24.5654  -19.0425  -12.9742 O   0  0  0  0  0  0  0  0  0  0  0  0
   23.0688  -20.7182  -12.5474 N   0  0  0  0  0  0  0  0  0  0  0  0
   22.0140  -20.1908  -13.3761 C   0  0  1  0  0  0  0  0  0  0  0  0
   22.3394  -20.4563  -14.8106 C   0  0  0  0  0  0  0  0  0  0  0  0
   21.3546  -19.8881  -15.7464 C   0  0  0  0  0  0  0  0  0  0  0  0
   20.2845  -19.1165  -15.3444 C   0  0  0  0  0  0  0  0  0  0  0  0
   19.5720  -18.7478  -16.4120 N   0  0  0  0  0  0  0  0  0  0  0  0
   20.1746  -19.2744  -17.4854 C   0  0  0  0  0  0  0  0  0  0  0  0
   21.2510  -19.9624  -17.0782 N   0  0  0  0  0  0  0  0  0  0  0  0
   20.6787  -20.6806  -12.9776 C   0  0  0  0  0  0  0  0  0  0  0  0
   20.5514  -22.0334  -12.6931 O   0  0  0  0  0  0  0  0  0  0  0  0
   19.6565  -19.9709  -12.8773 O   0  0  0  0  0  0  0  0  0  0  0  0
  1  2  1  0
  3  4  2  0
  3  2  1  0
  5  3  1  0
  6  5  1  0
  6  7  1  1
  8  7  1  0
  9  6  1  0
  9 11  1  0
 10  9  2  0
 12 19  1  0
 12 11  1  0
 13 14  1  0
 12 13  1  6
 14 18  1  0
 15 14  2  0
 15 16  1  0
 16 17  1  0
 18 17  2  0
 19 20  1  0
 21 19  2  0
M  END
$$$$
