GCH.pdb
     RDKit          3D

 21 21  0  0  1  0  0  0  0  0999 V2000
   21.2335  -15.6984  -18.0963 N   0  0  0  0  0  0  0  0  0  0  0  0
   20.7386  -14.4029  -18.4330 C   0  0  0  0  0  0  0  0  0  0  0  0
   21.0423  -13.3805  -17.3949 C   0  0  0  0  0  0  0  0  0  0  0  0
   20.1759  -13.0950  -16.5290 O   0  0  0  0  0  0  0  0  0  0  0  0
   22.2824  -12.6885  -17.3186 N   0  0  0  0  0  0  0  0  0  0  0  0
   22.5273  -11.6550  -16.3333 C   0  0  1  0  0  0  0  0  0  0  0  0
   24.0209  -11.3591  -16.2935 C   0  0  0  0  0  0  0  0  0  0  0  0
   24.8834  -12.7154  -15.4522 S   0  0  0  0  0  0  0  0  0  0  0  0
   21.7364  -10.4375  -16.5804 C   0  0  0  0  0  0  0  0  0  0  0  0
   21.6851   -9.9771  -17.7498 O   0  0  0  0  0  0  0  0  0  0  0  0
   21.0191   -9.7402  -15.5748 N   0  0  0  0  0  0  0  0  0  0  0  0
   20.2076   -8.5757  -15.8254 C   0  0  1  0  0  0  0  0  0  0  0  0
   18.7822   -8.8948  -15.5077 C   0  0  0  0  0  0  0  0  0  0  0  0
   17.8672   -7.7636  -15.7347 C   0  0  0  0  0  0  0  0  0  0  0  0
   17.3908   -6.9588  -14.7211 C   0  0  0  0  0  0  0  0  0  0  0  0
   16.5862   -6.0235  -15.2322 N   0  0  0  0  0  0  0  0  0  0  0  0
   16.5453   -6.2234  -16.5556 C   0  0  0  0  0  0  0  0  0  0  0  0
   17.3207   -7.2757  -16.8542 N   0  0  0  0  0  0  0  0  0  0  0  0
   20.7081   -7.3730  -15.1292 C   0  0  0  0  0  0  0  0  0  0  0  0
   20.4499   -6.1405  -15.7137 O   0  0  0  0  0  0  0  0  0  0  0  0
   21.3454   -7.3805  -14.0556 O   0  0  0  0  0  0  0  0  0  0  0  0
  1  2  1  0
  3  4  2  0
  3  2  1  0
  5  3  1  0
  6  5  1  0
  6  7  1  6
  8  7  1  0
  9  6  1  0
  9 11  1  0
 10  9  2  0
 12 19  1  0
 12 11  1  0
 13 14  1  0
 12 13  1  1
 14 18  1  0
 15 14  2  0
 15 16  1  0
 16 17  1  0
 18 17  2  0
 19 20  1  0
 21 19  2  0
M  END
$$$$
