GCH.pdb
     RDKit          3D

 21 21  0  0  1  0  0  0  0  0999 V2000
   28.7501  -20.5562  -14.8788 N   0  0  0  0  0  0  0  0  0  0  0  0
   27.7327  -19.8341  -14.1859 C   0  0  0  0  0  0  0  0  0  0  0  0
   26.7951  -20.7224  -13.4464 C   0  0  0  0  0  0  0  0  0  0  0  0
   26.5658  -21.8822  -13.8758 O   0  0  0  0  0  0  0  0  0  0  0  0
   26.1250  -20.3322  -12.2541 N   0  0  0  0  0  0  0  0  0  0  0  0
   25.0680  -21.1317  -11.6690 C   0  0  1  0  0  0  0  0  0  0  0  0
   24.9598  -20.7933  -10.1878 C   0  0  0  0  0  0  0  0  0  0  0  0
   26.5348  -21.1631   -9.3668 S   0  0  0  0  0  0  0  0  0  0  0  0
   23.7799  -20.9633  -12.3626 C   0  0  0  0  0  0  0  0  0  0  0  0
   23.3621  -19.7983  -12.5871 O   0  0  0  0  0  0  0  0  0  0  0  0
   22.9681  -22.0410  -12.8002 N   0  0  0  0  0  0  0  0  0  0  0  0
   21.7181  -21.8756  -13.4984 C   0  0  1  0  0  0  0  0  0  0  0  0
   21.2378  -23.2119  -13.9654 C   0  0  0  0  0  0  0  0  0  0  0  0
   19.9657  -23.1485  -14.7043 C   0  0  0  0  0  0  0  0  0  0  0  0
   18.8740  -22.4244  -14.2729 C   0  0  0  0  0  0  0  0  0  0  0  0
   17.8734  -22.5587  -15.1473 N   0  0  0  0  0  0  0  0  0  0  0  0
   18.3148  -23.3576  -16.1270 C   0  0  0  0  0  0  0  0  0  0  0  0
   19.5791  -23.7112  -15.8549 N   0  0  0  0  0  0  0  0  0  0  0  0
   20.7156  -21.1377  -12.7034 C   0  0  0  0  0  0  0  0  0  0  0  0
   19.8648  -20.2776  -13.3845 O   0  0  0  0  0  0  0  0  0  0  0  0
   20.5753  -21.2284  -11.4661 O   0  0  0  0  0  0  0  0  0  0  0  0
  1  2  1  0
  3  4  2  0
  3  2  1  0
  5  3  1  0
  6  5  1  0
  6  7  1  1
  8  7  1  0
  9  6  1  0
  9 11  1  0
 10  9  2  0
 12 19  1  0
 12 11  1  0
 13 14  1  0
 12 13  1  1
 14 18  1  0
 15 14  2  0
 15 16  1  0
 16 17  1  0
 18 17  2  0
 19 20  1  0
 21 19  2  0
M  END
$$$$
