QHC.pdb
     RDKit          3D

 26 26  0  0  1  0  0  0  0  0999 V2000
   10.2840  -13.0041   18.9765 N   0  0  0  0  0  0  0  0  0  0  0  0
    9.1120  -13.2485   18.2041 C   0  0  0  0  0  0  0  0  0  0  0  0
    9.2769  -13.5932   17.0191 O   0  0  0  0  0  0  0  0  0  0  0  0
    7.8027  -13.0802   18.8532 C   0  0  0  0  0  0  0  0  0  0  0  0
    7.8139  -13.6737   20.2162 C   0  0  0  0  0  0  0  0  0  0  0  0
    7.9732  -15.1503   20.1542 C   0  0  2  0  0  0  0  0  0  0  0  0
    6.8317  -15.7989   19.5375 N   0  0  0  0  0  0  0  0  0  0  0  0
    8.1263  -15.6280   21.5777 C   0  0  0  0  0  0  0  0  0  0  0  0
    7.0726  -15.8480   22.2233 O   0  0  0  0  0  0  0  0  0  0  0  0
    9.3745  -15.8298   22.1894 N   0  0  0  0  0  0  0  0  0  0  0  0
    9.4135  -16.3491   23.5433 C   0  0  1  0  0  0  0  0  0  0  0  0
   10.6360  -17.2078   23.6892 C   0  0  0  0  0  0  0  0  0  0  0  0
   10.3966  -18.5410   23.0565 C   0  0  0  0  0  0  0  0  0  0  0  0
    9.1956  -18.9395   22.5052 C   0  0  0  0  0  0  0  0  0  0  0  0
    9.3729  -20.1923   22.0396 N   0  0  0  0  0  0  0  0  0  0  0  0
   10.6227  -20.5939   22.2729 C   0  0  0  0  0  0  0  0  0  0  0  0
   11.2440  -19.5690   22.8996 N   0  0  0  0  0  0  0  0  0  0  0  0
    9.4421  -15.2002   24.5156 C   0  0  0  0  0  0  0  0  0  0  0  0
    9.5669  -14.0085   24.1411 O   0  0  0  0  0  0  0  0  0  0  0  0
    9.3262  -15.4424   25.9066 N   0  0  0  0  0  0  0  0  0  0  0  0
    9.1127  -14.3174   26.7901 C   0  0  1  0  0  0  0  0  0  0  0  0
    7.8255  -13.6310   26.3850 C   0  0  0  0  0  0  0  0  0  0  0  0
    7.3501  -12.3511   27.5809 S   0  0  0  0  0  0  0  0  0  0  0  0
    9.0289  -14.8526   28.1735 C   0  0  0  0  0  0  0  0  0  0  0  0
    8.4939  -15.9499   28.4436 O   0  0  0  0  0  0  0  0  0  0  0  0
    9.5616  -14.1165   29.2200 O   0  0  0  0  0  0  0  0  0  0  0  0
  2  1  1  0
  2  4  1  0
  3  2  2  0
  5  4  1  0
  5  6  1  0
  6  8  1  0
  6  7  1  1
  8 10  1  0
  9  8  2  0
 10 11  1  0
 11 18  1  0
 11 12  1  6
 13 12  1  0
 13 14  2  0
 15 14  1  0
 16 17  2  0
 16 15  1  0
 17 13  1  0
 18 20  1  0
 19 18  2  0
 20 21  1  0
 21 24  1  0
 21 22  1  6
 22 23  1  0
 24 25  2  0
 24 26  1  0
M  END
$$$$
