QHC.pdb
     RDKit          3D

 26 26  0  0  1  0  0  0  0  0999 V2000
    9.4029  -19.5953   14.2684 N   0  0  0  0  0  0  0  0  0  0  0  0
   10.5554  -20.2129   13.7023 C   0  0  0  0  0  0  0  0  0  0  0  0
   10.3747  -20.9529   12.7175 O   0  0  0  0  0  0  0  0  0  0  0  0
   11.8647  -19.9351   14.3126 C   0  0  0  0  0  0  0  0  0  0  0  0
   11.7131  -19.0495   15.4970 C   0  0  0  0  0  0  0  0  0  0  0  0
   12.0025  -17.6344   15.1460 C   0  0  2  0  0  0  0  0  0  0  0  0
   13.4048  -17.4210   14.8428 N   0  0  0  0  0  0  0  0  0  0  0  0
   11.6048  -16.8032   16.3414 C   0  0  0  0  0  0  0  0  0  0  0  0
   12.4841  -16.5988   17.2135 O   0  0  0  0  0  0  0  0  0  0  0  0
   10.3183  -16.2644   16.5077 N   0  0  0  0  0  0  0  0  0  0  0  0
   10.0533  -15.4332   17.6666 C   0  0  1  0  0  0  0  0  0  0  0  0
    8.7175  -14.7731   17.4840 C   0  0  0  0  0  0  0  0  0  0  0  0
    8.4013  -13.9317   18.6787 C   0  0  0  0  0  0  0  0  0  0  0  0
    9.1447  -13.9156   19.8416 C   0  0  0  0  0  0  0  0  0  0  0  0
    8.5490  -13.0411   20.6773 N   0  0  0  0  0  0  0  0  0  0  0  0
    7.4730  -12.5122   20.0940 C   0  0  0  0  0  0  0  0  0  0  0  0
    7.3918  -13.0679   18.8636 N   0  0  0  0  0  0  0  0  0  0  0  0
   10.0675  -16.2885   18.9054 C   0  0  0  0  0  0  0  0  0  0  0  0
    9.6065  -17.4560   18.9187 O   0  0  0  0  0  0  0  0  0  0  0  0
   10.6134  -15.7844   20.1116 N   0  0  0  0  0  0  0  0  0  0  0  0
   10.7055  -16.6683   21.2526 C   0  0  1  0  0  0  0  0  0  0  0  0
   12.0255  -17.4060   21.1787 C   0  0  0  0  0  0  0  0  0  0  0  0
   12.3419  -18.3555   22.6929 S   0  0  0  0  0  0  0  0  0  0  0  0
   10.6246  -15.8239   22.4724 C   0  0  0  0  0  0  0  0  0  0  0  0
   10.7591  -14.5812   22.4455 O   0  0  0  0  0  0  0  0  0  0  0  0
   10.3906  -16.4240   23.6996 O   0  0  0  0  0  0  0  0  0  0  0  0
  2  1  1  0
  2  4  1  0
  3  2  2  0
  5  4  1  0
  5  6  1  0
  6  8  1  0
  6  7  1  1
  8 10  1  0
  9  8  2  0
 10 11  1  0
 11 18  1  0
 11 12  1  6
 13 12  1  0
 13 14  2  0
 15 14  1  0
 16 17  2  0
 16 15  1  0
 17 13  1  0
 18 20  1  0
 19 18  2  0
 20 21  1  0
 21 24  1  0
 21 22  1  6
 22 23  1  0
 24 25  2  0
 24 26  1  0
M  END
$$$$
