QHC.pdb
     RDKit          3D

 26 26  0  0  1  0  0  0  0  0999 V2000
   15.5389  -15.0718   17.1140 N   0  0  0  0  0  0  0  0  0  0  0  0
   14.8218  -14.2903   18.0654 C   0  0  0  0  0  0  0  0  0  0  0  0
   15.3639  -14.1072   19.1712 O   0  0  0  0  0  0  0  0  0  0  0  0
   13.5059  -13.7582   17.6791 C   0  0  0  0  0  0  0  0  0  0  0  0
   12.4455  -14.2768   18.5827 C   0  0  0  0  0  0  0  0  0  0  0  0
   11.8825  -15.5526   18.0680 C   0  0  2  0  0  0  0  0  0  0  0  0
   11.0934  -15.3578   16.8666 N   0  0  0  0  0  0  0  0  0  0  0  0
   11.0130  -16.1149   19.1661 C   0  0  0  0  0  0  0  0  0  0  0  0
    9.7859  -15.8568   19.1123 O   0  0  0  0  0  0  0  0  0  0  0  0
   11.5162  -16.8967   20.2190 N   0  0  0  0  0  0  0  0  0  0  0  0
   10.6021  -17.3554   21.2476 C   0  0  1  0  0  0  0  0  0  0  0  0
   10.3818  -18.8292   21.0666 C   0  0  0  0  0  0  0  0  0  0  0  0
   11.6945  -19.5166   20.8683 C   0  0  0  0  0  0  0  0  0  0  0  0
   12.9187  -18.8790   20.8740 C   0  0  0  0  0  0  0  0  0  0  0  0
   13.8561  -19.8253   20.6645 N   0  0  0  0  0  0  0  0  0  0  0  0
   13.2778  -21.0191   20.5287 C   0  0  0  0  0  0  0  0  0  0  0  0
   11.9467  -20.8169   20.6560 N   0  0  0  0  0  0  0  0  0  0  0  0
   11.1892  -17.0601   22.6020 C   0  0  0  0  0  0  0  0  0  0  0  0
   12.4150  -16.8464   22.7686 O   0  0  0  0  0  0  0  0  0  0  0  0
   10.3537  -17.0155   23.7452 N   0  0  0  0  0  0  0  0  0  0  0  0
   10.9335  -16.6271   25.0119 C   0  0  1  0  0  0  0  0  0  0  0  0
    9.9659  -15.6982   25.7141 C   0  0  0  0  0  0  0  0  0  0  0  0
    8.2848  -16.3821   25.7351 S   0  0  0  0  0  0  0  0  0  0  0  0
   11.1559  -17.8700   25.7949 C   0  0  0  0  0  0  0  0  0  0  0  0
   11.8023  -17.8894   26.8649 O   0  0  0  0  0  0  0  0  0  0  0  0
   10.6311  -19.0667   25.3331 O   0  0  0  0  0  0  0  0  0  0  0  0
  2  1  1  0
  2  4  1  0
  3  2  2  0
  5  4  1  0
  5  6  1  0
  6  8  1  0
  6  7  1  6
  8 10  1  0
  9  8  2  0
 10 11  1  0
 11 18  1  0
 11 12  1  1
 13 12  1  0
 13 14  2  0
 15 14  1  0
 16 17  2  0
 16 15  1  0
 17 13  1  0
 18 20  1  0
 19 18  2  0
 20 21  1  0
 21 24  1  0
 21 22  1  1
 22 23  1  0
 24 25  2  0
 24 26  1  0
M  END
$$$$
