QHC.pdb
     RDKit          3D

 26 26  0  0  1  0  0  0  0  0999 V2000
   13.1124  -18.8173   19.6443 N   0  0  0  0  0  0  0  0  0  0  0  0
   13.2603  -18.6237   21.0481 C   0  0  0  0  0  0  0  0  0  0  0  0
   14.1873  -19.2367   21.6094 O   0  0  0  0  0  0  0  0  0  0  0  0
   12.3191  -17.7217   21.7295 C   0  0  0  0  0  0  0  0  0  0  0  0
   11.3248  -17.1782   20.7671 C   0  0  0  0  0  0  0  0  0  0  0  0
    9.9701  -17.7306   21.0301 C   0  0  2  0  0  0  0  0  0  0  0  0
    9.1982  -17.8911   19.8126 N   0  0  0  0  0  0  0  0  0  0  0  0
    9.2776  -16.7552   21.9506 C   0  0  0  0  0  0  0  0  0  0  0  0
    9.1409  -15.5779   21.5376 O   0  0  0  0  0  0  0  0  0  0  0  0
    8.7933  -17.1100   23.2205 N   0  0  0  0  0  0  0  0  0  0  0  0
    8.0823  -16.1148   24.0003 C   0  0  1  0  0  0  0  0  0  0  0  0
    6.6723  -16.5876   24.2045 C   0  0  0  0  0  0  0  0  0  0  0  0
    6.6575  -18.0714   24.3872 C   0  0  0  0  0  0  0  0  0  0  0  0
    7.6062  -18.7806   25.0959 C   0  0  0  0  0  0  0  0  0  0  0  0
    7.2528  -20.0803   25.0346 N   0  0  0  0  0  0  0  0  0  0  0  0
    6.1327  -20.2162   24.3240 C   0  0  0  0  0  0  0  0  0  0  0  0
    5.7752  -18.9727   23.9304 N   0  0  0  0  0  0  0  0  0  0  0  0
    8.7831  -15.9228   25.3188 C   0  0  0  0  0  0  0  0  0  0  0  0
    8.9442  -16.8629   26.1349 O   0  0  0  0  0  0  0  0  0  0  0  0
    9.2882  -14.6486   25.6770 N   0  0  0  0  0  0  0  0  0  0  0  0
    9.3023  -14.2772   27.0747 C   0  0  1  0  0  0  0  0  0  0  0  0
    7.9297  -13.7555   27.4431 C   0  0  0  0  0  0  0  0  0  0  0  0
    7.5336  -12.2316   26.5401 S   0  0  0  0  0  0  0  0  0  0  0  0
    9.6447  -15.4965   27.8516 C   0  0  0  0  0  0  0  0  0  0  0  0
    9.7508  -16.6261   27.3265 O   0  0  0  0  0  0  0  0  0  0  0  0
    9.8585  -15.3939   29.2171 O   0  0  0  0  0  0  0  0  0  0  0  0
  2  1  1  0
  2  4  1  0
  3  2  2  0
  5  4  1  0
  5  6  1  0
  6  8  1  0
  6  7  1  6
  8 10  1  0
  9  8  2  0
 10 11  1  0
 11 18  1  0
 11 12  1  1
 13 12  1  0
 13 14  2  0
 15 14  1  0
 16 17  2  0
 16 15  1  0
 17 13  1  0
 18 20  1  0
 19 18  2  0
 20 21  1  0
 21 24  1  0
 21 22  1  1
 22 23  1  0
 24 25  2  0
 24 26  1  0
M  END
$$$$
