QHC.pdb
     RDKit          3D

 26 26  0  0  1  0  0  0  0  0999 V2000
    9.4567  -20.1375   13.8454 N   0  0  0  0  0  0  0  0  0  0  0  0
    9.4989  -18.7483   14.1592 C   0  0  0  0  0  0  0  0  0  0  0  0
    8.6735  -18.0133   13.5859 O   0  0  0  0  0  0  0  0  0  0  0  0
   10.5023  -18.2838   15.1294 C   0  0  0  0  0  0  0  0  0  0  0  0
   10.1868  -16.9060   15.5900 C   0  0  0  0  0  0  0  0  0  0  0  0
   11.3969  -16.0432   15.5605 C   0  0  2  0  0  0  0  0  0  0  0  0
   12.5462  -16.7303   15.0030 N   0  0  0  0  0  0  0  0  0  0  0  0
   11.6801  -15.6479   16.9894 C   0  0  0  0  0  0  0  0  0  0  0  0
   12.6712  -16.1817   17.5444 O   0  0  0  0  0  0  0  0  0  0  0  0
   10.8934  -14.7274   17.7013 N   0  0  0  0  0  0  0  0  0  0  0  0
   11.3268  -14.3118   19.0217 C   0  0  1  0  0  0  0  0  0  0  0  0
   10.5601  -13.0809   19.4095 C   0  0  0  0  0  0  0  0  0  0  0  0
    9.1153  -13.4205   19.5897 C   0  0  0  0  0  0  0  0  0  0  0  0
    8.5814  -14.6811   19.4137 C   0  0  0  0  0  0  0  0  0  0  0  0
    7.2601  -14.5874   19.6650 N   0  0  0  0  0  0  0  0  0  0  0  0
    6.9443  -13.3329   19.9884 C   0  0  0  0  0  0  0  0  0  0  0  0
    8.0945  -12.6232   19.9388 N   0  0  0  0  0  0  0  0  0  0  0  0
   11.0827  -15.4299   19.9998 C   0  0  0  0  0  0  0  0  0  0  0  0
   10.6445  -16.5501   19.6408 O   0  0  0  0  0  0  0  0  0  0  0  0
   11.3476  -15.2395   21.3784 N   0  0  0  0  0  0  0  0  0  0  0  0
   11.2231  -16.3713   22.2702 C   0  0  1  0  0  0  0  0  0  0  0  0
   12.1997  -17.4388   21.8246 C   0  0  0  0  0  0  0  0  0  0  0  0
   13.9136  -16.9658   22.1894 S   0  0  0  0  0  0  0  0  0  0  0  0
   11.5355  -15.8895   23.6405 C   0  0  0  0  0  0  0  0  0  0  0  0
   11.9414  -14.7304   23.8744 O   0  0  0  0  0  0  0  0  0  0  0  0
   11.3753  -16.7493   24.7157 O   0  0  0  0  0  0  0  0  0  0  0  0
  2  1  1  0
  2  4  1  0
  3  2  2  0
  5  4  1  0
  5  6  1  0
  6  8  1  0
  6  7  1  1
  8 10  1  0
  9  8  2  0
 10 11  1  0
 11 18  1  0
 11 12  1  1
 13 12  1  0
 13 14  2  0
 15 14  1  0
 16 17  2  0
 16 15  1  0
 17 13  1  0
 18 20  1  0
 19 18  2  0
 20 21  1  0
 21 24  1  0
 21 22  1  6
 22 23  1  0
 24 25  2  0
 24 26  1  0
M  END
$$$$
