QHC.pdb
     RDKit          3D

 26 26  0  0  1  0  0  0  0  0999 V2000
    7.2799  -13.2306   17.2125 N   0  0  0  0  0  0  0  0  0  0  0  0
    8.2828  -13.2172   18.2245 C   0  0  0  0  0  0  0  0  0  0  0  0
    9.4404  -13.5176   17.8781 O   0  0  0  0  0  0  0  0  0  0  0  0
    7.8861  -12.8519   19.5930 C   0  0  0  0  0  0  0  0  0  0  0  0
    7.2924  -14.0198   20.2956 C   0  0  0  0  0  0  0  0  0  0  0  0
    8.2563  -15.1494   20.3619 C   0  0  2  0  0  0  0  0  0  0  0  0
    8.0419  -16.1153   19.3012 N   0  0  0  0  0  0  0  0  0  0  0  0
    8.0557  -15.8097   21.7041 C   0  0  0  0  0  0  0  0  0  0  0  0
    7.1507  -16.6756   21.7857 O   0  0  0  0  0  0  0  0  0  0  0  0
    8.8265  -15.4972   22.8360 N   0  0  0  0  0  0  0  0  0  0  0  0
    9.2043  -16.5659   23.7411 C   0  0  1  0  0  0  0  0  0  0  0  0
    9.9662  -17.6006   22.9649 C   0  0  0  0  0  0  0  0  0  0  0  0
    9.0955  -18.7904   22.7174 C   0  0  0  0  0  0  0  0  0  0  0  0
    7.7445  -18.8410   22.9957 C   0  0  0  0  0  0  0  0  0  0  0  0
    7.3148  -20.0678   22.6376 N   0  0  0  0  0  0  0  0  0  0  0  0
    8.3292  -20.7832   22.1507 C   0  0  0  0  0  0  0  0  0  0  0  0
    9.4208  -19.9866   22.2046 N   0  0  0  0  0  0  0  0  0  0  0  0
   10.0443  -16.0004   24.8550 C   0  0  0  0  0  0  0  0  0  0  0  0
   11.1670  -15.4780   24.6484 O   0  0  0  0  0  0  0  0  0  0  0  0
    9.5771  -16.0454   26.1916 N   0  0  0  0  0  0  0  0  0  0  0  0
   10.1902  -15.1737   27.1693 C   0  0  1  0  0  0  0  0  0  0  0  0
    9.2217  -14.0530   27.4823 C   0  0  0  0  0  0  0  0  0  0  0  0
    9.8579  -12.9718   28.7940 S   0  0  0  0  0  0  0  0  0  0  0  0
   10.4765  -15.9945   28.3742 C   0  0  0  0  0  0  0  0  0  0  0  0
    9.8530  -17.0446   28.6416 O   0  0  0  0  0  0  0  0  0  0  0  0
   11.4739  -15.5925   29.2485 O   0  0  0  0  0  0  0  0  0  0  0  0
  2  1  1  0
  2  4  1  0
  3  2  2  0
  5  4  1  0
  5  6  1  0
  6  8  1  0
  6  7  1  6
  8 10  1  0
  9  8  2  0
 10 11  1  0
 11 18  1  0
 11 12  1  6
 13 12  1  0
 13 14  2  0
 15 14  1  0
 16 17  2  0
 16 15  1  0
 17 13  1  0
 18 20  1  0
 19 18  2  0
 20 21  1  0
 21 24  1  0
 21 22  1  1
 22 23  1  0
 24 25  2  0
 24 26  1  0
M  END
$$$$
