QHC.pdb
     RDKit          3D

 26 26  0  0  1  0  0  0  0  0999 V2000
   11.5474  -16.0191   15.1131 N   0  0  0  0  0  0  0  0  0  0  0  0
   12.9021  -15.9765   14.6739 C   0  0  0  0  0  0  0  0  0  0  0  0
   13.1749  -16.5818   13.6206 O   0  0  0  0  0  0  0  0  0  0  0  0
   13.8738  -15.2272   15.4852 C   0  0  0  0  0  0  0  0  0  0  0  0
   13.1998  -14.5728   16.6374 C   0  0  0  0  0  0  0  0  0  0  0  0
   13.4559  -15.3168   17.8985 C   0  0  2  0  0  0  0  0  0  0  0  0
   13.3062  -16.7496   17.7292 N   0  0  0  0  0  0  0  0  0  0  0  0
   12.4533  -14.8130   18.9080 C   0  0  0  0  0  0  0  0  0  0  0  0
   12.6353  -13.6593   19.3676 O   0  0  0  0  0  0  0  0  0  0  0  0
   11.3523  -15.5707   19.3400 N   0  0  0  0  0  0  0  0  0  0  0  0
   10.5961  -15.1119   20.4897 C   0  0  1  0  0  0  0  0  0  0  0  0
    9.1388  -15.3643   20.2332 C   0  0  0  0  0  0  0  0  0  0  0  0
    8.6992  -14.6057   19.0222 C   0  0  0  0  0  0  0  0  0  0  0  0
    8.4532  -13.2478   18.9979 C   0  0  0  0  0  0  0  0  0  0  0  0
    8.0810  -12.9379   17.7396 N   0  0  0  0  0  0  0  0  0  0  0  0
    8.0828  -14.0335   16.9796 C   0  0  0  0  0  0  0  0  0  0  0  0
    8.4650  -15.0545   17.7799 N   0  0  0  0  0  0  0  0  0  0  0  0
   11.0630  -15.8474   21.7174 C   0  0  0  0  0  0  0  0  0  0  0  0
   11.8988  -16.7824   21.6608 O   0  0  0  0  0  0  0  0  0  0  0  0
   10.5590  -15.4937   22.9933 N   0  0  0  0  0  0  0  0  0  0  0  0
   10.9590  -16.2812   24.1385 C   0  0  1  0  0  0  0  0  0  0  0  0
   10.4438  -15.6002   25.3886 C   0  0  0  0  0  0  0  0  0  0  0  0
    8.6327  -15.4801   25.3816 S   0  0  0  0  0  0  0  0  0  0  0  0
   10.3643  -17.6328   23.9739 C   0  0  0  0  0  0  0  0  0  0  0  0
    9.4950  -17.8895   23.1127 O   0  0  0  0  0  0  0  0  0  0  0  0
   10.7801  -18.6633   24.8021 O   0  0  0  0  0  0  0  0  0  0  0  0
  2  1  1  0
  2  4  1  0
  3  2  2  0
  5  4  1  0
  5  6  1  0
  6  8  1  0
  6  7  1  6
  8 10  1  0
  9  8  2  0
 10 11  1  0
 11 18  1  0
 11 12  1  6
 13 12  1  0
 13 14  2  0
 15 14  1  0
 16 17  2  0
 16 15  1  0
 17 13  1  0
 18 20  1  0
 19 18  2  0
 20 21  1  0
 21 24  1  0
 21 22  1  1
 22 23  1  0
 24 25  2  0
 24 26  1  0
M  END
$$$$
