QHC.pdb
     RDKit          3D

 26 26  0  0  1  0  0  0  0  0999 V2000
    7.6199  -13.0163   16.6937 N   0  0  0  0  0  0  0  0  0  0  0  0
    8.2709  -14.2792   16.7991 C   0  0  0  0  0  0  0  0  0  0  0  0
    8.0449  -15.1093   15.8990 O   0  0  0  0  0  0  0  0  0  0  0  0
    9.1568  -14.5120   17.9501 C   0  0  0  0  0  0  0  0  0  0  0  0
    9.1176  -13.3555   18.8833 C   0  0  0  0  0  0  0  0  0  0  0  0
    9.9781  -13.5983   20.0708 C   0  0  2  0  0  0  0  0  0  0  0  0
   11.1248  -14.4289   19.7557 N   0  0  0  0  0  0  0  0  0  0  0  0
    9.1127  -14.2882   21.0971 C   0  0  0  0  0  0  0  0  0  0  0  0
    8.0409  -13.7187   21.4168 O   0  0  0  0  0  0  0  0  0  0  0  0
    9.4560  -15.5137   21.6915 N   0  0  0  0  0  0  0  0  0  0  0  0
    8.6152  -16.0359   22.7518 C   0  0  1  0  0  0  0  0  0  0  0  0
    8.8003  -17.5241   22.8175 C   0  0  0  0  0  0  0  0  0  0  0  0
    7.9889  -18.1828   21.7485 C   0  0  0  0  0  0  0  0  0  0  0  0
    7.1671  -17.5110   20.8661 C   0  0  0  0  0  0  0  0  0  0  0  0
    6.6109  -18.4394   20.0619 N   0  0  0  0  0  0  0  0  0  0  0  0
    7.0444  -19.6545   20.3987 C   0  0  0  0  0  0  0  0  0  0  0  0
    7.8924  -19.4844   21.4384 N   0  0  0  0  0  0  0  0  0  0  0  0
    8.9979  -15.3867   24.0550 C   0  0  0  0  0  0  0  0  0  0  0  0
   10.1944  -15.1839   24.3764 O   0  0  0  0  0  0  0  0  0  0  0  0
    7.9947  -14.9807   24.9692 N   0  0  0  0  0  0  0  0  0  0  0  0
    8.3999  -14.3631   26.2126 C   0  0  1  0  0  0  0  0  0  0  0  0
    7.2160  -13.6070   26.7771 C   0  0  0  0  0  0  0  0  0  0  0  0
    6.7409  -12.2207   25.7062 S   0  0  0  0  0  0  0  0  0  0  0  0
    8.8321  -15.4524   27.1259 C   0  0  0  0  0  0  0  0  0  0  0  0
    8.7567  -16.6623   26.8197 O   0  0  0  0  0  0  0  0  0  0  0  0
    9.3427  -15.1303   28.3734 O   0  0  0  0  0  0  0  0  0  0  0  0
  2  1  1  0
  2  4  1  0
  3  2  2  0
  5  4  1  0
  5  6  1  0
  6  8  1  0
  6  7  1  6
  8 10  1  0
  9  8  2  0
 10 11  1  0
 11 18  1  0
 11 12  1  1
 13 12  1  0
 13 14  2  0
 15 14  1  0
 16 17  2  0
 16 15  1  0
 17 13  1  0
 18 20  1  0
 19 18  2  0
 20 21  1  0
 21 24  1  0
 21 22  1  1
 22 23  1  0
 24 25  2  0
 24 26  1  0
M  END
$$$$
