QHC.pdb
     RDKit          3D

 26 26  0  0  1  0  0  0  0  0999 V2000
    9.0115  -12.4830   19.6089 N   0  0  0  0  0  0  0  0  0  0  0  0
    8.5368  -13.2582   18.5117 C   0  0  0  0  0  0  0  0  0  0  0  0
    8.4907  -12.6977   17.4008 O   0  0  0  0  0  0  0  0  0  0  0  0
    8.1401  -14.6520   18.7639 C   0  0  0  0  0  0  0  0  0  0  0  0
    8.2751  -14.9819   20.2072 C   0  0  0  0  0  0  0  0  0  0  0  0
    9.0947  -16.2069   20.4004 C   0  0  2  0  0  0  0  0  0  0  0  0
    8.6743  -17.2898   19.5317 N   0  0  0  0  0  0  0  0  0  0  0  0
    8.9281  -16.6144   21.8441 C   0  0  0  0  0  0  0  0  0  0  0  0
    7.9281  -17.3179   22.1277 O   0  0  0  0  0  0  0  0  0  0  0  0
    9.8298  -16.2435   22.8551 N   0  0  0  0  0  0  0  0  0  0  0  0
    9.5462  -16.6354   24.2226 C   0  0  1  0  0  0  0  0  0  0  0  0
    9.4231  -18.1306   24.2740 C   0  0  0  0  0  0  0  0  0  0  0  0
   10.6093  -18.7590   23.6156 C   0  0  0  0  0  0  0  0  0  0  0  0
   11.6742  -18.0559   23.0894 C   0  0  0  0  0  0  0  0  0  0  0  0
   12.5358  -18.9637   22.5881 N   0  0  0  0  0  0  0  0  0  0  0  0
   12.0616  -20.1958   22.7754 C   0  0  0  0  0  0  0  0  0  0  0  0
   10.8748  -20.0576   23.4090 N   0  0  0  0  0  0  0  0  0  0  0  0
   10.6568  -16.1546   25.1180 C   0  0  0  0  0  0  0  0  0  0  0  0
   11.6406  -15.5108   24.6782 O   0  0  0  0  0  0  0  0  0  0  0  0
   10.6166  -16.4234   26.5084 N   0  0  0  0  0  0  0  0  0  0  0  0
   10.4656  -15.3142   27.4240 C   0  0  1  0  0  0  0  0  0  0  0  0
    9.1312  -14.6519   27.1545 C   0  0  0  0  0  0  0  0  0  0  0  0
    8.8283  -13.2769   28.3000 S   0  0  0  0  0  0  0  0  0  0  0  0
   10.5271  -15.8677   28.8014 C   0  0  0  0  0  0  0  0  0  0  0  0
   11.0118  -15.2346   29.7644 O   0  0  0  0  0  0  0  0  0  0  0  0
   10.0302  -17.1383   29.0456 O   0  0  0  0  0  0  0  0  0  0  0  0
  2  1  1  0
  2  4  1  0
  3  2  2  0
  5  4  1  0
  5  6  1  0
  6  8  1  0
  6  7  1  6
  8 10  1  0
  9  8  2  0
 10 11  1  0
 11 18  1  0
 11 12  1  6
 13 12  1  0
 13 14  2  0
 15 14  1  0
 16 17  2  0
 16 15  1  0
 17 13  1  0
 18 20  1  0
 19 18  2  0
 20 21  1  0
 21 24  1  0
 21 22  1  6
 22 23  1  0
 24 25  2  0
 24 26  1  0
M  END
$$$$
