QHC.pdb
     RDKit          3D

 26 26  0  0  1  0  0  0  0  0999 V2000
   15.3627  -13.5418   18.4596 N   0  0  0  0  0  0  0  0  0  0  0  0
   15.3231  -14.7167   17.6546 C   0  0  0  0  0  0  0  0  0  0  0  0
   16.3872  -15.0660   17.1104 O   0  0  0  0  0  0  0  0  0  0  0  0
   14.0427  -15.4290   17.5248 C   0  0  0  0  0  0  0  0  0  0  0  0
   13.0059  -14.8038   18.3874 C   0  0  0  0  0  0  0  0  0  0  0  0
   12.6671  -15.6828   19.5373 C   0  0  2  0  0  0  0  0  0  0  0  0
   12.1366  -16.9634   19.1100 N   0  0  0  0  0  0  0  0  0  0  0  0
   11.6327  -14.9465   20.3533 C   0  0  0  0  0  0  0  0  0  0  0  0
   12.0118  -13.9161   20.9614 O   0  0  0  0  0  0  0  0  0  0  0  0
   10.2951  -15.3635   20.4533 N   0  0  0  0  0  0  0  0  0  0  0  0
    9.4047  -14.6471   21.3467 C   0  0  1  0  0  0  0  0  0  0  0  0
    8.0048  -14.7614   20.8169 C   0  0  0  0  0  0  0  0  0  0  0  0
    7.9532  -14.2569   19.4105 C   0  0  0  0  0  0  0  0  0  0  0  0
    8.0775  -12.9299   19.0517 C   0  0  0  0  0  0  0  0  0  0  0  0
    7.9792  -12.8748   17.7081 N   0  0  0  0  0  0  0  0  0  0  0  0
    7.8001  -14.0996   17.2124 C   0  0  0  0  0  0  0  0  0  0  0  0
    7.7857  -14.9427   18.2698 N   0  0  0  0  0  0  0  0  0  0  0  0
    9.5082  -15.2353   22.7286 C   0  0  0  0  0  0  0  0  0  0  0  0
   10.1054  -16.3164   22.9535 O   0  0  0  0  0  0  0  0  0  0  0  0
    8.9210  -14.5679   23.8316 N   0  0  0  0  0  0  0  0  0  0  0  0
    9.0398  -15.1631   25.1444 C   0  0  1  0  0  0  0  0  0  0  0  0
    8.5272  -14.1703   26.1659 C   0  0  0  0  0  0  0  0  0  0  0  0
    6.9638  -13.4170   25.6343 S   0  0  0  0  0  0  0  0  0  0  0  0
    8.2252  -16.4056   25.1407 C   0  0  0  0  0  0  0  0  0  0  0  0
    7.4845  -16.7266   24.1860 O   0  0  0  0  0  0  0  0  0  0  0  0
    8.2776  -17.2554   26.2343 O   0  0  0  0  0  0  0  0  0  0  0  0
  2  1  1  0
  2  4  1  0
  3  2  2  0
  5  4  1  0
  5  6  1  0
  6  8  1  0
  6  7  1  6
  8 10  1  0
  9  8  2  0
 10 11  1  0
 11 18  1  0
 11 12  1  6
 13 12  1  0
 13 14  2  0
 15 14  1  0
 16 17  2  0
 16 15  1  0
 17 13  1  0
 18 20  1  0
 19 18  2  0
 20 21  1  0
 21 24  1  0
 21 22  1  1
 22 23  1  0
 24 25  2  0
 24 26  1  0
M  END
$$$$
