QHC.pdb
     RDKit          3D

 26 26  0  0  1  0  0  0  0  0999 V2000
    7.0224  -12.8103   17.8351 N   0  0  0  0  0  0  0  0  0  0  0  0
    7.6554  -13.9073   17.1824 C   0  0  0  0  0  0  0  0  0  0  0  0
    7.6286  -13.9172   15.9376 O   0  0  0  0  0  0  0  0  0  0  0  0
    8.2914  -14.9399   18.0149 C   0  0  0  0  0  0  0  0  0  0  0  0
    8.0067  -14.7008   19.4542 C   0  0  0  0  0  0  0  0  0  0  0  0
    9.2631  -14.4819   20.2178 C   0  0  2  0  0  0  0  0  0  0  0  0
   10.4133  -15.0731   19.5608 N   0  0  0  0  0  0  0  0  0  0  0  0
    9.0625  -15.1196   21.5710 C   0  0  0  0  0  0  0  0  0  0  0  0
    8.0060  -14.8354   22.1859 O   0  0  0  0  0  0  0  0  0  0  0  0
    9.9930  -15.9975   22.1511 N   0  0  0  0  0  0  0  0  0  0  0  0
    9.7318  -16.5133   23.4815 C   0  0  1  0  0  0  0  0  0  0  0  0
   10.5914  -17.7244   23.7002 C   0  0  0  0  0  0  0  0  0  0  0  0
   10.0799  -18.8633   22.8777 C   0  0  0  0  0  0  0  0  0  0  0  0
    8.9586  -18.8053   22.0749 C   0  0  0  0  0  0  0  0  0  0  0  0
    8.8230  -20.0175   21.5003 N   0  0  0  0  0  0  0  0  0  0  0  0
    9.8025  -20.8269   21.9045 C   0  0  0  0  0  0  0  0  0  0  0  0
   10.5705  -20.1056   22.7524 N   0  0  0  0  0  0  0  0  0  0  0  0
   10.0363  -15.4451   24.4975 C   0  0  0  0  0  0  0  0  0  0  0  0
   10.4726  -14.3144   24.1704 O   0  0  0  0  0  0  0  0  0  0  0  0
    9.8331  -15.6966   25.8768 N   0  0  0  0  0  0  0  0  0  0  0  0
    9.6664  -14.5704   26.7688 C   0  0  1  0  0  0  0  0  0  0  0  0
    8.5120  -13.7304   26.2652 C   0  0  0  0  0  0  0  0  0  0  0  0
    8.1320  -12.3709   27.4061 S   0  0  0  0  0  0  0  0  0  0  0  0
    9.3885  -15.1170   28.1221 C   0  0  0  0  0  0  0  0  0  0  0  0
    8.6558  -16.1119   28.3129 O   0  0  0  0  0  0  0  0  0  0  0  0
    9.9580  -14.5096   29.2301 O   0  0  0  0  0  0  0  0  0  0  0  0
  2  1  1  0
  2  4  1  0
  3  2  2  0
  5  4  1  0
  5  6  1  0
  6  8  1  0
  6  7  1  6
  8 10  1  0
  9  8  2  0
 10 11  1  0
 11 18  1  0
 11 12  1  1
 13 12  1  0
 13 14  2  0
 15 14  1  0
 16 17  2  0
 16 15  1  0
 17 13  1  0
 18 20  1  0
 19 18  2  0
 20 21  1  0
 21 24  1  0
 21 22  1  6
 22 23  1  0
 24 25  2  0
 24 26  1  0
M  END
$$$$
