QHC.pdb
     RDKit          3D

 26 26  0  0  1  0  0  0  0  0999 V2000
   13.2994  -16.8164   14.0030 N   0  0  0  0  0  0  0  0  0  0  0  0
   11.9517  -17.2007   13.7457 C   0  0  0  0  0  0  0  0  0  0  0  0
   11.6443  -17.4278   12.5608 O   0  0  0  0  0  0  0  0  0  0  0  0
   11.0273  -17.3031   14.8854 C   0  0  0  0  0  0  0  0  0  0  0  0
   11.7159  -16.9415   16.1523 C   0  0  0  0  0  0  0  0  0  0  0  0
   11.3326  -17.8663   17.2511 C   0  0  2  0  0  0  0  0  0  0  0  0
   10.1840  -18.6818   16.9049 N   0  0  0  0  0  0  0  0  0  0  0  0
   11.0071  -17.0047   18.4467 C   0  0  0  0  0  0  0  0  0  0  0  0
   11.9027  -16.2225   18.8485 O   0  0  0  0  0  0  0  0  0  0  0  0
    9.7688  -17.0464   19.1085 N   0  0  0  0  0  0  0  0  0  0  0  0
    9.5604  -16.1844   20.2563 C   0  0  1  0  0  0  0  0  0  0  0  0
    8.1537  -15.6625   20.2111 C   0  0  0  0  0  0  0  0  0  0  0  0
    7.9771  -14.7866   19.0125 C   0  0  0  0  0  0  0  0  0  0  0  0
    8.2894  -13.4426   18.9743 C   0  0  0  0  0  0  0  0  0  0  0  0
    7.9934  -13.0050   17.7338 N   0  0  0  0  0  0  0  0  0  0  0  0
    7.5129  -14.0079   16.9981 C   0  0  0  0  0  0  0  0  0  0  0  0
    7.5073  -15.1001   17.7957 N   0  0  0  0  0  0  0  0  0  0  0  0
    9.8044  -16.9688   21.5178 C   0  0  0  0  0  0  0  0  0  0  0  0
    9.4873  -18.1786   21.6263 O   0  0  0  0  0  0  0  0  0  0  0  0
   10.4110  -16.3463   22.6365 N   0  0  0  0  0  0  0  0  0  0  0  0
   10.6145  -17.1264   23.8372 C   0  0  1  0  0  0  0  0  0  0  0  0
   11.6509  -16.4264   24.6904 C   0  0  0  0  0  0  0  0  0  0  0  0
   13.2347  -16.2703   23.8178 S   0  0  0  0  0  0  0  0  0  0  0  0
    9.3058  -17.2110   24.5355 C   0  0  0  0  0  0  0  0  0  0  0  0
    8.2970  -16.5738   24.1621 O   0  0  0  0  0  0  0  0  0  0  0  0
    9.1817  -18.0263   25.6493 O   0  0  0  0  0  0  0  0  0  0  0  0
  2  1  1  0
  2  4  1  0
  3  2  2  0
  5  4  1  0
  5  6  1  0
  6  8  1  0
  6  7  1  6
  8 10  1  0
  9  8  2  0
 10 11  1  0
 11 18  1  0
 11 12  1  1
 13 12  1  0
 13 14  2  0
 15 14  1  0
 16 17  2  0
 16 15  1  0
 17 13  1  0
 18 20  1  0
 19 18  2  0
 20 21  1  0
 21 24  1  0
 21 22  1  1
 22 23  1  0
 24 25  2  0
 24 26  1  0
M  END
$$$$
