EAS.pdb
     RDKit          3D

 21 20  0  0  1  0  0  0  0  0999 V2000
   11.3892  -14.6913   16.9457 N   0  0  0  0  0  0  0  0  0  0  0  0
   12.0683  -15.5127   17.8925 C   0  0  1  0  0  0  0  0  0  0  0  0
   13.2987  -14.8846   18.4425 C   0  0  0  0  0  0  0  0  0  0  0  0
   14.4670  -14.7613   17.5395 C   0  0  0  0  0  0  0  0  0  0  0  0
   15.6775  -14.1362   18.0644 C   0  0  0  0  0  0  0  0  0  0  0  0
   15.9012  -13.8824   19.2602 O   0  0  0  0  0  0  0  0  0  0  0  0
   11.1707  -15.8202   19.0325 C   0  0  0  0  0  0  0  0  0  0  0  0
   10.4326  -14.8931   19.4493 O   0  0  0  0  0  0  0  0  0  0  0  0
   16.6956  -13.7797   17.1604 O   0  0  0  0  0  0  0  0  0  0  0  0
   10.0270  -18.8952   20.7867 C   0  0  0  0  0  0  0  0  0  0  0  0
   10.2240  -17.3786   20.7591 C   0  0  2  0  0  0  0  0  0  0  0  0
   11.1147  -17.0703   19.6483 N   0  0  0  0  0  0  0  0  0  0  0  0
   10.7638  -16.8962   22.0537 C   0  0  0  0  0  0  0  0  0  0  0  0
   12.0018  -16.6962   22.1444 O   0  0  0  0  0  0  0  0  0  0  0  0
    8.7617  -14.4083   24.3618 O   0  0  0  0  0  0  0  0  0  0  0  0
    9.2940  -15.4054   25.1470 C   0  0  0  0  0  0  0  0  0  0  0  0
   10.3849  -16.1835   24.4311 C   0  0  2  0  0  0  0  0  0  0  0  0
    9.9103  -16.6641   23.1656 N   0  0  0  0  0  0  0  0  0  0  0  0
   11.0024  -17.2078   25.2749 C   0  0  0  0  0  0  0  0  0  0  0  0
   10.8536  -18.4129   24.9407 O   0  0  0  0  0  0  0  0  0  0  0  0
   11.7428  -16.9685   26.4190 O   0  0  0  0  0  0  0  0  0  0  0  0
  2  1  1  6
  3  2  1  0
  4  3  1  0
  4  5  1  0
  5  6  2  0
  7  2  1  0
  8  7  2  0
  9  5  1  0
 11 10  1  1
 11 13  1  0
 11 12  1  0
 12  7  1  0
 13 18  1  0
 14 13  2  0
 16 15  1  0
 17 16  1  1
 18 17  1  0
 19 21  1  0
 19 17  1  0
 20 19  2  0
M  END
$$$$
