EAS.pdb
     RDKit          3D

 21 20  0  0  1  0  0  0  0  0999 V2000
    9.8867  -16.0061   16.0803 N   0  0  0  0  0  0  0  0  0  0  0  0
    8.8531  -16.0102   17.0621 C   0  0  1  0  0  0  0  0  0  0  0  0
    8.7427  -17.2983   17.7965 C   0  0  0  0  0  0  0  0  0  0  0  0
    9.9267  -17.7537   18.5623 C   0  0  0  0  0  0  0  0  0  0  0  0
    9.8682  -19.0650   19.2015 C   0  0  0  0  0  0  0  0  0  0  0  0
   10.1200  -19.3004   20.3954 O   0  0  0  0  0  0  0  0  0  0  0  0
    9.0985  -14.9414   18.0607 C   0  0  0  0  0  0  0  0  0  0  0  0
   10.2939  -14.6977   18.3599 O   0  0  0  0  0  0  0  0  0  0  0  0
    9.4975  -20.1765   18.4217 O   0  0  0  0  0  0  0  0  0  0  0  0
    7.0029  -12.4431   19.9046 C   0  0  0  0  0  0  0  0  0  0  0  0
    8.3116  -13.2074   19.6978 C   0  0  2  0  0  0  0  0  0  0  0  0
    8.0773  -14.2117   18.6688 N   0  0  0  0  0  0  0  0  0  0  0  0
    8.7715  -13.8140   20.9708 C   0  0  0  0  0  0  0  0  0  0  0  0
    9.1115  -13.0464   21.9067 O   0  0  0  0  0  0  0  0  0  0  0  0
    6.9698  -16.8387   22.5193 O   0  0  0  0  0  0  0  0  0  0  0  0
    8.3190  -17.1027   22.5846 C   0  0  0  0  0  0  0  0  0  0  0  0
    9.1617  -15.8555   22.3793 C   0  0  2  0  0  0  0  0  0  0  0  0
    8.8287  -15.2242   21.1350 N   0  0  0  0  0  0  0  0  0  0  0  0
   10.5926  -16.0958   22.5723 C   0  0  0  0  0  0  0  0  0  0  0  0
   11.3693  -15.8163   21.6212 O   0  0  0  0  0  0  0  0  0  0  0  0
   11.1749  -16.6079   23.7183 O   0  0  0  0  0  0  0  0  0  0  0  0
  2  1  1  6
  3  2  1  0
  4  3  1  0
  4  5  1  0
  5  6  2  0
  7  2  1  0
  8  7  2  0
  9  5  1  0
 11 10  1  1
 11 13  1  0
 11 12  1  0
 12  7  1  0
 13 18  1  0
 14 13  2  0
 16 15  1  0
 17 16  1  6
 18 17  1  0
 19 21  1  0
 19 17  1  0
 20 19  2  0
M  END
$$$$
