EAS.pdb
     RDKit          3D

 21 20  0  0  1  0  0  0  0  0999 V2000
    9.7765  -15.5365   12.8865 N   0  0  0  0  0  0  0  0  0  0  0  0
    9.7033  -16.3016   14.0871 C   0  0  1  0  0  0  0  0  0  0  0  0
   10.4317  -17.5954   14.0071 C   0  0  0  0  0  0  0  0  0  0  0  0
   11.8338  -17.5635   13.5290 C   0  0  0  0  0  0  0  0  0  0  0  0
   12.5599  -18.8274   13.4462 C   0  0  0  0  0  0  0  0  0  0  0  0
   13.4389  -19.2106   14.2366 O   0  0  0  0  0  0  0  0  0  0  0  0
   10.2779  -15.5296   15.2157 C   0  0  0  0  0  0  0  0  0  0  0  0
   11.3167  -14.8619   14.9856 O   0  0  0  0  0  0  0  0  0  0  0  0
   12.2586  -19.7072   12.3898 O   0  0  0  0  0  0  0  0  0  0  0  0
    9.3106  -14.8582   18.7772 C   0  0  0  0  0  0  0  0  0  0  0  0
   10.2936  -14.7687   17.6088 C   0  0  2  0  0  0  0  0  0  0  0  0
    9.7239  -15.5159   16.4955 N   0  0  0  0  0  0  0  0  0  0  0  0
   11.6255  -15.2892   18.0028 C   0  0  0  0  0  0  0  0  0  0  0  0
   11.8732  -16.5048   17.7987 O   0  0  0  0  0  0  0  0  0  0  0  0
   16.2248  -14.4427   19.0115 O   0  0  0  0  0  0  0  0  0  0  0  0
   14.9818  -13.9782   18.6466 C   0  0  0  0  0  0  0  0  0  0  0  0
   13.8666  -14.9181   19.0720 C   0  0  2  0  0  0  0  0  0  0  0  0
   12.6001  -14.4421   18.5955 N   0  0  0  0  0  0  0  0  0  0  0  0
   13.8974  -15.2294   20.5019 C   0  0  0  0  0  0  0  0  0  0  0  0
   12.9772  -14.7641   21.2249 O   0  0  0  0  0  0  0  0  0  0  0  0
   14.8571  -15.9971   21.1376 O   0  0  0  0  0  0  0  0  0  0  0  0
  2  1  1  6
  3  2  1  0
  4  3  1  0
  4  5  1  0
  5  6  2  0
  7  2  1  0
  8  7  2  0
  9  5  1  0
 11 10  1  1
 11 13  1  0
 11 12  1  0
 12  7  1  0
 13 18  1  0
 14 13  2  0
 16 15  1  0
 17 16  1  1
 18 17  1  0
 19 21  1  0
 19 17  1  0
 20 19  2  0
M  END
$$$$
