EAS.pdb
     RDKit          3D

 21 20  0  0  1  0  0  0  0  0999 V2000
   11.0762  -16.6150   20.3867 N   0  0  0  0  0  0  0  0  0  0  0  0
   11.0310  -17.3429   21.6116 C   0  0  1  0  0  0  0  0  0  0  0  0
   12.3698  -17.5480   22.2252 C   0  0  0  0  0  0  0  0  0  0  0  0
   13.3962  -16.5047   21.9941 C   0  0  0  0  0  0  0  0  0  0  0  0
   14.6624  -16.6162   22.7123 C   0  0  0  0  0  0  0  0  0  0  0  0
   14.9812  -15.9672   23.7229 O   0  0  0  0  0  0  0  0  0  0  0  0
   10.1885  -16.6234   22.5977 C   0  0  0  0  0  0  0  0  0  0  0  0
   10.1416  -15.3713   22.5087 O   0  0  0  0  0  0  0  0  0  0  0  0
   15.6236  -17.5300   22.2412 O   0  0  0  0  0  0  0  0  0  0  0  0
    7.6595  -17.6261   25.1585 C   0  0  0  0  0  0  0  0  0  0  0  0
    8.5574  -16.5734   24.5065 C   0  0  2  0  0  0  0  0  0  0  0  0
    9.4621  -17.2670   23.5994 N   0  0  0  0  0  0  0  0  0  0  0  0
    9.2909  -15.7987   25.5369 C   0  0  0  0  0  0  0  0  0  0  0  0
   10.4464  -16.1780   25.8558 O   0  0  0  0  0  0  0  0  0  0  0  0
    7.3045  -12.6923   27.4598 O   0  0  0  0  0  0  0  0  0  0  0  0
    8.6714  -12.5591   27.3705 C   0  0  0  0  0  0  0  0  0  0  0  0
    9.3695  -13.8935   27.1702 C   0  0  2  0  0  0  0  0  0  0  0  0
    8.7091  -14.6572   26.1512 N   0  0  0  0  0  0  0  0  0  0  0  0
    9.5873  -14.6171   28.4238 C   0  0  0  0  0  0  0  0  0  0  0  0
   10.2012  -14.0210   29.3478 O   0  0  0  0  0  0  0  0  0  0  0  0
    9.1749  -15.9112   28.6876 O   0  0  0  0  0  0  0  0  0  0  0  0
  2  1  1  6
  3  2  1  0
  4  3  1  0
  4  5  1  0
  5  6  2  0
  7  2  1  0
  8  7  2  0
  9  5  1  0
 11 10  1  1
 11 13  1  0
 11 12  1  0
 12  7  1  0
 13 18  1  0
 14 13  2  0
 16 15  1  0
 17 16  1  1
 18 17  1  0
 19 21  1  0
 19 17  1  0
 20 19  2  0
M  END
$$$$
