EAS.pdb
     RDKit          3D

 21 20  0  0  1  0  0  0  0  0999 V2000
   10.6758  -15.7726   12.5991 N   0  0  0  0  0  0  0  0  0  0  0  0
   11.1791  -16.7376   13.5199 C   0  0  1  0  0  0  0  0  0  0  0  0
   12.4010  -17.4329   13.0359 C   0  0  0  0  0  0  0  0  0  0  0  0
   13.5343  -16.5917   12.5845 C   0  0  0  0  0  0  0  0  0  0  0  0
   14.7251  -17.2622   12.0709 C   0  0  0  0  0  0  0  0  0  0  0  0
   15.3306  -16.9642   11.0274 O   0  0  0  0  0  0  0  0  0  0  0  0
   11.5132  -16.0826   14.8080 C   0  0  0  0  0  0  0  0  0  0  0  0
   12.1466  -14.9992   14.7548 O   0  0  0  0  0  0  0  0  0  0  0  0
   15.2548  -18.3430   12.8004 O   0  0  0  0  0  0  0  0  0  0  0  0
   10.6388  -16.6355   18.4029 C   0  0  0  0  0  0  0  0  0  0  0  0
   11.4807  -15.9648   17.3162 C   0  0  2  0  0  0  0  0  0  0  0  0
   11.1609  -16.6103   16.0500 N   0  0  0  0  0  0  0  0  0  0  0  0
   12.9254  -16.0601   17.6385 C   0  0  0  0  0  0  0  0  0  0  0  0
   13.5514  -17.0851   17.2665 O   0  0  0  0  0  0  0  0  0  0  0  0
   15.6542  -13.3461   17.1494 O   0  0  0  0  0  0  0  0  0  0  0  0
   15.6301  -13.7152   18.4750 C   0  0  0  0  0  0  0  0  0  0  0  0
   14.9841  -15.0742   18.6841 C   0  0  2  0  0  0  0  0  0  0  0  0
   13.5905  -15.0243   18.3482 N   0  0  0  0  0  0  0  0  0  0  0  0
   15.2692  -15.6446   20.0017 C   0  0  0  0  0  0  0  0  0  0  0  0
   16.4760  -15.7765   20.3367 O   0  0  0  0  0  0  0  0  0  0  0  0
   14.3217  -16.0564   20.9221 O   0  0  0  0  0  0  0  0  0  0  0  0
  2  1  1  6
  3  2  1  0
  4  3  1  0
  4  5  1  0
  5  6  2  0
  7  2  1  0
  8  7  2  0
  9  5  1  0
 11 10  1  1
 11 13  1  0
 11 12  1  0
 12  7  1  0
 13 18  1  0
 14 13  2  0
 16 15  1  0
 17 16  1  1
 18 17  1  0
 19 21  1  0
 19 17  1  0
 20 19  2  0
M  END
$$$$
