EAS.pdb
     RDKit          3D

 21 20  0  0  1  0  0  0  0  0999 V2000
   10.6578  -16.6541   20.1548 N   0  0  0  0  0  0  0  0  0  0  0  0
   11.0282  -17.2681   21.3868 C   0  0  1  0  0  0  0  0  0  0  0  0
   12.4946  -17.4694   21.5277 C   0  0  0  0  0  0  0  0  0  0  0  0
   13.0814  -18.6837   20.9140 C   0  0  0  0  0  0  0  0  0  0  0  0
   14.0554  -19.4439   21.6918 C   0  0  0  0  0  0  0  0  0  0  0  0
   13.7904  -20.2128   22.6313 O   0  0  0  0  0  0  0  0  0  0  0  0
   10.5762  -16.4322   22.5256 C   0  0  0  0  0  0  0  0  0  0  0  0
   11.1509  -15.3276   22.6915 O   0  0  0  0  0  0  0  0  0  0  0  0
   15.4197  -19.3135   21.3715 O   0  0  0  0  0  0  0  0  0  0  0  0
    7.6361  -16.3764   24.7845 C   0  0  0  0  0  0  0  0  0  0  0  0
    9.0830  -15.9757   24.4923 C   0  0  2  0  0  0  0  0  0  0  0  0
    9.5609  -16.8151   23.4018 N   0  0  0  0  0  0  0  0  0  0  0  0
    9.9214  -16.1145   25.7080 C   0  0  0  0  0  0  0  0  0  0  0  0
   10.7023  -17.0970   25.7829 O   0  0  0  0  0  0  0  0  0  0  0  0
   10.6033  -12.9352   28.1736 O   0  0  0  0  0  0  0  0  0  0  0  0
   10.3673  -14.0937   28.8781 C   0  0  0  0  0  0  0  0  0  0  0  0
   10.5257  -15.3353   28.0169 C   0  0  2  0  0  0  0  0  0  0  0  0
    9.8490  -15.1661   26.7635 N   0  0  0  0  0  0  0  0  0  0  0  0
   10.1853  -16.5692   28.7270 C   0  0  0  0  0  0  0  0  0  0  0  0
    9.1939  -17.2289   28.3174 O   0  0  0  0  0  0  0  0  0  0  0  0
   10.8622  -17.0813   29.8197 O   0  0  0  0  0  0  0  0  0  0  0  0
  2  1  1  6
  3  2  1  0
  4  3  1  0
  4  5  1  0
  5  6  2  0
  7  2  1  0
  8  7  2  0
  9  5  1  0
 11 10  1  1
 11 13  1  0
 11 12  1  0
 12  7  1  0
 13 18  1  0
 14 13  2  0
 16 15  1  0
 17 16  1  1
 18 17  1  0
 19 21  1  0
 19 17  1  0
 20 19  2  0
M  END
$$$$
