EAS.pdb
     RDKit          3D

 21 20  0  0  1  0  0  0  0  0999 V2000
   12.1701  -23.3206   23.8579 N   0  0  0  0  0  0  0  0  0  0  0  0
   13.0307  -23.6732   24.9383 C   0  0  1  0  0  0  0  0  0  0  0  0
   14.3246  -22.9407   24.9245 C   0  0  0  0  0  0  0  0  0  0  0  0
   15.2382  -23.1857   23.7840 C   0  0  0  0  0  0  0  0  0  0  0  0
   16.5346  -22.5143   23.7864 C   0  0  0  0  0  0  0  0  0  0  0  0
   17.6374  -23.0699   23.9261 O   0  0  0  0  0  0  0  0  0  0  0  0
   12.3638  -23.3863   26.2317 C   0  0  0  0  0  0  0  0  0  0  0  0
   11.7879  -22.2760   26.3477 O   0  0  0  0  0  0  0  0  0  0  0  0
   16.5681  -21.1175   23.6178 O   0  0  0  0  0  0  0  0  0  0  0  0
   11.4316  -25.3339   29.2652 C   0  0  0  0  0  0  0  0  0  0  0  0
   11.7075  -23.9957   28.5778 C   0  0  2  0  0  0  0  0  0  0  0  0
   12.3510  -24.2803   27.3021 N   0  0  0  0  0  0  0  0  0  0  0  0
   12.5445  -23.1260   29.4398 C   0  0  0  0  0  0  0  0  0  0  0  0
   13.7946  -23.2295   29.3538 O   0  0  0  0  0  0  0  0  0  0  0  0
   11.7199  -19.3452   30.1501 O   0  0  0  0  0  0  0  0  0  0  0  0
   11.9711  -19.9873   31.3412 C   0  0  0  0  0  0  0  0  0  0  0  0
   12.7234  -21.2926   31.1458 C   0  0  2  0  0  0  0  0  0  0  0  0
   11.9558  -22.1984   30.3408 N   0  0  0  0  0  0  0  0  0  0  0  0
   13.2109  -21.8637   32.4023 C   0  0  0  0  0  0  0  0  0  0  0  0
   12.7808  -22.9986   32.7383 O   0  0  0  0  0  0  0  0  0  0  0  0
   14.1114  -21.2621   33.2634 O   0  0  0  0  0  0  0  0  0  0  0  0
  2  1  1  6
  3  2  1  0
  4  3  1  0
  4  5  1  0
  5  6  2  0
  7  2  1  0
  8  7  2  0
  9  5  1  0
 11 10  1  1
 11 13  1  0
 11 12  1  0
 12  7  1  0
 13 18  1  0
 14 13  2  0
 16 15  1  0
 17 16  1  1
 18 17  1  0
 19 21  1  0
 19 17  1  0
 20 19  2  0
M  END
$$$$
