EAS.pdb
     RDKit          3D

 21 20  0  0  1  0  0  0  0  0999 V2000
    8.2786  -12.9009   17.0529 N   0  0  0  0  0  0  0  0  0  0  0  0
    7.6567  -13.9398   17.8052 C   0  0  1  0  0  0  0  0  0  0  0  0
    7.6849  -15.2602   17.1220 C   0  0  0  0  0  0  0  0  0  0  0  0
    8.9784  -15.7119   16.5579 C   0  0  0  0  0  0  0  0  0  0  0  0
    9.0338  -17.0333   15.9395 C   0  0  0  0  0  0  0  0  0  0  0  0
   10.0573  -17.5856   15.5018 O   0  0  0  0  0  0  0  0  0  0  0  0
    8.3372  -14.0947   19.1140 C   0  0  0  0  0  0  0  0  0  0  0  0
    9.5932  -14.1085   19.1108 O   0  0  0  0  0  0  0  0  0  0  0  0
    7.8394  -17.7674   15.8153 O   0  0  0  0  0  0  0  0  0  0  0  0
    7.2369  -14.1880   22.6964 C   0  0  0  0  0  0  0  0  0  0  0  0
    8.3173  -14.2834   21.6180 C   0  0  2  0  0  0  0  0  0  0  0  0
    7.6534  -14.2237   20.3227 N   0  0  0  0  0  0  0  0  0  0  0  0
    9.1101  -15.5267   21.7784 C   0  0  0  0  0  0  0  0  0  0  0  0
    8.6813  -16.5791   21.2406 O   0  0  0  0  0  0  0  0  0  0  0  0
   13.1309  -15.4970   23.0280 O   0  0  0  0  0  0  0  0  0  0  0  0
   12.5280  -16.5358   22.3560 C   0  0  0  0  0  0  0  0  0  0  0  0
   11.0791  -16.7278   22.7706 C   0  0  2  0  0  0  0  0  0  0  0  0
   10.3229  -15.5351   22.5188 N   0  0  0  0  0  0  0  0  0  0  0  0
   10.9397  -17.2577   24.1280 C   0  0  0  0  0  0  0  0  0  0  0  0
   11.5215  -18.3412   24.3988 O   0  0  0  0  0  0  0  0  0  0  0  0
   10.2183  -16.6687   25.1513 O   0  0  0  0  0  0  0  0  0  0  0  0
  2  1  1  6
  3  2  1  0
  4  3  1  0
  4  5  1  0
  5  6  2  0
  7  2  1  0
  8  7  2  0
  9  5  1  0
 11 10  1  1
 11 13  1  0
 11 12  1  0
 12  7  1  0
 13 18  1  0
 14 13  2  0
 16 15  1  0
 17 16  1  1
 18 17  1  0
 19 21  1  0
 19 17  1  0
 20 19  2  0
M  END
$$$$
