EAS.pdb
     RDKit          3D

 21 20  0  0  1  0  0  0  0  0999 V2000
    8.0247  -12.9778   19.4751 N   0  0  0  0  0  0  0  0  0  0  0  0
    7.2726  -13.8058   20.3588 C   0  0  1  0  0  0  0  0  0  0  0  0
    7.1086  -15.1987   19.8651 C   0  0  0  0  0  0  0  0  0  0  0  0
    8.3351  -15.9423   19.4930 C   0  0  0  0  0  0  0  0  0  0  0  0
    8.1868  -17.3087   19.0007 C   0  0  0  0  0  0  0  0  0  0  0  0
    8.6283  -18.3297   19.5546 O   0  0  0  0  0  0  0  0  0  0  0  0
    7.9397  -13.8719   21.6819 C   0  0  0  0  0  0  0  0  0  0  0  0
    9.1931  -13.9536   21.6903 O   0  0  0  0  0  0  0  0  0  0  0  0
    7.4879  -17.5169   17.7970 O   0  0  0  0  0  0  0  0  0  0  0  0
    6.8975  -13.4815   25.2482 C   0  0  0  0  0  0  0  0  0  0  0  0
    7.8956  -13.9571   24.1913 C   0  0  2  0  0  0  0  0  0  0  0  0
    7.2462  -13.8486   22.8917 N   0  0  0  0  0  0  0  0  0  0  0  0
    8.3398  -15.3434   24.4756 C   0  0  0  0  0  0  0  0  0  0  0  0
    7.6255  -16.2930   24.0647 O   0  0  0  0  0  0  0  0  0  0  0  0
   12.3375  -16.3243   25.1818 O   0  0  0  0  0  0  0  0  0  0  0  0
   11.3390  -17.1648   24.7451 C   0  0  0  0  0  0  0  0  0  0  0  0
   10.0236  -16.9213   25.4652 C   0  0  2  0  0  0  0  0  0  0  0  0
    9.5397  -15.5987   25.1925 N   0  0  0  0  0  0  0  0  0  0  0  0
   10.0796  -17.2643   26.8870 C   0  0  0  0  0  0  0  0  0  0  0  0
    9.7266  -16.3863   27.7180 O   0  0  0  0  0  0  0  0  0  0  0  0
   10.4900  -18.4796   27.4057 O   0  0  0  0  0  0  0  0  0  0  0  0
  2  1  1  6
  3  2  1  0
  4  3  1  0
  4  5  1  0
  5  6  2  0
  7  2  1  0
  8  7  2  0
  9  5  1  0
 11 10  1  1
 11 13  1  0
 11 12  1  0
 12  7  1  0
 13 18  1  0
 14 13  2  0
 16 15  1  0
 17 16  1  1
 18 17  1  0
 19 21  1  0
 19 17  1  0
 20 19  2  0
M  END
$$$$
