EAS.pdb
     RDKit          3D

 21 20  0  0  1  0  0  0  0  0999 V2000
    8.2195  -15.9685   17.1398 N   0  0  0  0  0  0  0  0  0  0  0  0
    7.7475  -16.5036   18.3740 C   0  0  1  0  0  0  0  0  0  0  0  0
    7.6544  -17.9876   18.3759 C   0  0  0  0  0  0  0  0  0  0  0  0
    8.8815  -18.7512   18.0494 C   0  0  0  0  0  0  0  0  0  0  0  0
    8.8032  -20.2091   18.0491 C   0  0  0  0  0  0  0  0  0  0  0  0
    8.1063  -20.8966   17.2837 O   0  0  0  0  0  0  0  0  0  0  0  0
    8.6551  -16.1073   19.4781 C   0  0  0  0  0  0  0  0  0  0  0  0
    9.8782  -16.0086   19.2096 O   0  0  0  0  0  0  0  0  0  0  0  0
    9.5729  -20.9233   18.9863 O   0  0  0  0  0  0  0  0  0  0  0  0
    8.2141  -15.0677   23.0565 C   0  0  0  0  0  0  0  0  0  0  0  0
    9.0891  -15.3687   21.8387 C   0  0  2  0  0  0  0  0  0  0  0  0
    8.2150  -15.8461   20.7755 N   0  0  0  0  0  0  0  0  0  0  0  0
   10.1400  -16.3583   22.1796 C   0  0  0  0  0  0  0  0  0  0  0  0
    9.8577  -17.5803   22.0903 O   0  0  0  0  0  0  0  0  0  0  0  0
   14.0805  -15.0747   23.1967 O   0  0  0  0  0  0  0  0  0  0  0  0
   13.8406  -16.2363   22.4988 C   0  0  0  0  0  0  0  0  0  0  0  0
   12.5038  -16.8612   22.8602 C   0  0  2  0  0  0  0  0  0  0  0  0
   11.4334  -15.9434   22.5966 N   0  0  0  0  0  0  0  0  0  0  0  0
   12.4890  -17.4384   24.2052 C   0  0  0  0  0  0  0  0  0  0  0  0
   11.6323  -17.0064   25.0210 O   0  0  0  0  0  0  0  0  0  0  0  0
   13.3409  -18.4265   24.6659 O   0  0  0  0  0  0  0  0  0  0  0  0
  2  1  1  6
  3  2  1  0
  4  3  1  0
  4  5  1  0
  5  6  2  0
  7  2  1  0
  8  7  2  0
  9  5  1  0
 11 10  1  1
 11 13  1  0
 11 12  1  0
 12  7  1  0
 13 18  1  0
 14 13  2  0
 16 15  1  0
 17 16  1  1
 18 17  1  0
 19 21  1  0
 19 17  1  0
 20 19  2  0
M  END
$$$$
