EAS.pdb
     RDKit          3D

 21 20  0  0  1  0  0  0  0  0999 V2000
    8.3987  -16.5243   16.8593 N   0  0  0  0  0  0  0  0  0  0  0  0
    7.7558  -16.9693   18.0513 C   0  0  1  0  0  0  0  0  0  0  0  0
    7.6851  -18.4501   18.1653 C   0  0  0  0  0  0  0  0  0  0  0  0
    8.9593  -19.2036   18.1017 C   0  0  0  0  0  0  0  0  0  0  0  0
    8.8979  -20.6615   18.1470 C   0  0  0  0  0  0  0  0  0  0  0  0
    9.8761  -21.4279   18.1445 O   0  0  0  0  0  0  0  0  0  0  0  0
    8.4827  -16.4597   19.2395 C   0  0  0  0  0  0  0  0  0  0  0  0
    9.7138  -16.7003   19.3071 O   0  0  0  0  0  0  0  0  0  0  0  0
    7.6344  -21.2793   18.1985 O   0  0  0  0  0  0  0  0  0  0  0  0
    7.5843  -14.3921   22.2416 C   0  0  0  0  0  0  0  0  0  0  0  0
    8.5970  -15.1403   21.3731 C   0  0  2  0  0  0  0  0  0  0  0  0
    7.8677  -15.7401   20.2637 N   0  0  0  0  0  0  0  0  0  0  0  0
    9.3246  -16.1558   22.1726 C   0  0  0  0  0  0  0  0  0  0  0  0
    8.8056  -17.2934   22.3034 O   0  0  0  0  0  0  0  0  0  0  0  0
   13.3379  -15.4713   23.5428 O   0  0  0  0  0  0  0  0  0  0  0  0
   12.8255  -16.6869   23.1508 C   0  0  0  0  0  0  0  0  0  0  0  0
   11.3519  -16.8291   23.4919 C   0  0  2  0  0  0  0  0  0  0  0  0
   10.5754  -15.8576   22.7772 N   0  0  0  0  0  0  0  0  0  0  0  0
   11.1008  -16.8631   24.9336 C   0  0  0  0  0  0  0  0  0  0  0  0
   10.2868  -16.0277   25.4085 O   0  0  0  0  0  0  0  0  0  0  0  0
   11.6839  -17.7399   25.8312 O   0  0  0  0  0  0  0  0  0  0  0  0
  2  1  1  6
  3  2  1  0
  4  3  1  0
  4  5  1  0
  5  6  2  0
  7  2  1  0
  8  7  2  0
  9  5  1  0
 11 10  1  1
 11 13  1  0
 11 12  1  0
 12  7  1  0
 13 18  1  0
 14 13  2  0
 16 15  1  0
 17 16  1  1
 18 17  1  0
 19 21  1  0
 19 17  1  0
 20 19  2  0
M  END
$$$$
