EAS.pdb
     RDKit          3D

 21 20  0  0  1  0  0  0  0  0999 V2000
    9.7897  -15.6398   13.1469 N   0  0  0  0  0  0  0  0  0  0  0  0
   10.0878  -16.4684   14.2679 C   0  0  1  0  0  0  0  0  0  0  0  0
   11.0931  -17.5228   13.9709 C   0  0  0  0  0  0  0  0  0  0  0  0
   11.4361  -17.7610   12.5492 C   0  0  0  0  0  0  0  0  0  0  0  0
   12.5726  -18.6283   12.2531 C   0  0  0  0  0  0  0  0  0  0  0  0
   13.6761  -18.2537   11.8215 O   0  0  0  0  0  0  0  0  0  0  0  0
   10.6154  -15.6432   15.3818 C   0  0  0  0  0  0  0  0  0  0  0  0
   11.6630  -14.9854   15.1637 O   0  0  0  0  0  0  0  0  0  0  0  0
   12.4345  -20.0127   12.4655 O   0  0  0  0  0  0  0  0  0  0  0  0
    9.4357  -14.6645   18.7943 C   0  0  0  0  0  0  0  0  0  0  0  0
   10.5350  -14.7747   17.7366 C   0  0  2  0  0  0  0  0  0  0  0  0
   10.0088  -15.5702   16.6355 N   0  0  0  0  0  0  0  0  0  0  0  0
   11.7625  -15.3725   18.3162 C   0  0  0  0  0  0  0  0  0  0  0  0
   11.9071  -16.6195   18.2459 O   0  0  0  0  0  0  0  0  0  0  0  0
   15.4074  -13.8824   17.9757 O   0  0  0  0  0  0  0  0  0  0  0  0
   15.1069  -14.1009   19.3009 C   0  0  0  0  0  0  0  0  0  0  0  0
   13.9701  -15.0929   19.4789 C   0  0  2  0  0  0  0  0  0  0  0  0
   12.7526  -14.5634   18.9359 N   0  0  0  0  0  0  0  0  0  0  0  0
   13.8556  -15.5889   20.8513 C   0  0  0  0  0  0  0  0  0  0  0  0
   12.8157  -15.2950   21.4979 O   0  0  0  0  0  0  0  0  0  0  0  0
   14.7975  -16.3600   21.5091 O   0  0  0  0  0  0  0  0  0  0  0  0
  2  1  1  6
  3  2  1  0
  4  3  1  0
  4  5  1  0
  5  6  2  0
  7  2  1  0
  8  7  2  0
  9  5  1  0
 11 10  1  1
 11 13  1  0
 11 12  1  0
 12  7  1  0
 13 18  1  0
 14 13  2  0
 16 15  1  0
 17 16  1  1
 18 17  1  0
 19 21  1  0
 19 17  1  0
 20 19  2  0
M  END
$$$$
