EAS.pdb
     RDKit          3D

 21 20  0  0  1  0  0  0  0  0999 V2000
    8.4085  -13.0021   16.9243 N   0  0  0  0  0  0  0  0  0  0  0  0
    7.6841  -13.9331   17.7248 C   0  0  1  0  0  0  0  0  0  0  0  0
    7.6465  -15.3028   17.1476 C   0  0  0  0  0  0  0  0  0  0  0  0
    8.9131  -15.8557   16.6130 C   0  0  0  0  0  0  0  0  0  0  0  0
    8.8769  -17.1748   15.9885 C   0  0  0  0  0  0  0  0  0  0  0  0
    9.8602  -17.7960   15.5509 O   0  0  0  0  0  0  0  0  0  0  0  0
    8.2975  -14.0280   19.0718 C   0  0  0  0  0  0  0  0  0  0  0  0
    9.5520  -14.0456   19.1323 O   0  0  0  0  0  0  0  0  0  0  0  0
    7.6341  -17.8223   15.8577 O   0  0  0  0  0  0  0  0  0  0  0  0
    7.0236  -14.1442   22.6002 C   0  0  0  0  0  0  0  0  0  0  0  0
    8.1530  -14.2195   21.5716 C   0  0  2  0  0  0  0  0  0  0  0  0
    7.5535  -14.0979   20.2494 N   0  0  0  0  0  0  0  0  0  0  0  0
    8.9153  -15.4830   21.7212 C   0  0  0  0  0  0  0  0  0  0  0  0
    9.0086  -16.2431   20.7240 O   0  0  0  0  0  0  0  0  0  0  0  0
   12.9745  -16.7269   22.1675 O   0  0  0  0  0  0  0  0  0  0  0  0
   11.8202  -15.9774   22.1763 C   0  0  0  0  0  0  0  0  0  0  0  0
   10.7367  -16.5965   23.0427 C   0  0  2  0  0  0  0  0  0  0  0  0
    9.5264  -15.8314   22.9557 N   0  0  0  0  0  0  0  0  0  0  0  0
   11.1848  -16.8673   24.4096 C   0  0  0  0  0  0  0  0  0  0  0  0
   10.6455  -16.2185   25.3446 O   0  0  0  0  0  0  0  0  0  0  0  0
   12.1581  -17.7820   24.7707 O   0  0  0  0  0  0  0  0  0  0  0  0
  2  1  1  6
  3  2  1  0
  4  3  1  0
  4  5  1  0
  5  6  2  0
  7  2  1  0
  8  7  2  0
  9  5  1  0
 11 10  1  1
 11 13  1  0
 11 12  1  0
 12  7  1  0
 13 18  1  0
 14 13  2  0
 16 15  1  0
 17 16  1  6
 18 17  1  0
 19 21  1  0
 19 17  1  0
 20 19  2  0
M  END
$$$$
