TRS.pdb
     RDKit          3D

 25 24  0  0  1  0  0  0  0  0999 V2000
    8.0368  -12.4996   19.8449 C   0  0  0  0  0  0  0  0  0  0  0  0
    7.4487  -13.3936   18.8045 C   0  0  1  0  0  0  0  0  0  0  0  0
    6.6642  -12.7598   17.8670 O   0  0  0  0  0  0  0  0  0  0  0  0
    8.5010  -14.2733   18.1228 C   0  0  2  0  0  0  0  0  0  0  0  0
    7.9061  -15.1578   17.1657 N   0  0  0  0  0  0  0  0  0  0  0  0
    9.1329  -15.0672   19.1907 C   0  0  0  0  0  0  0  0  0  0  0  0
    8.5882  -16.1104   19.6266 O   0  0  0  0  0  0  0  0  0  0  0  0
   15.8755  -13.6096   17.1329 N   0  0  0  0  0  0  0  0  0  0  0  0
   15.9001  -13.8420   18.5320 C   0  0  0  0  0  0  0  0  0  0  0  0
   16.8174  -13.3455   19.2838 N   0  0  0  0  0  0  0  0  0  0  0  0
   14.8980  -14.6463   19.1777 N   0  0  0  0  0  0  0  0  0  0  0  0
   13.8232  -15.2898   18.4994 C   0  0  0  0  0  0  0  0  0  0  0  0
   12.9396  -16.1521   19.3399 C   0  0  0  0  0  0  0  0  0  0  0  0
   12.5460  -15.3166   20.5579 C   0  0  0  0  0  0  0  0  0  0  0  0
   11.0376  -15.4316   20.7198 C   0  0  2  0  0  0  0  0  0  0  0  0
   10.3662  -14.6326   19.7172 N   0  0  0  0  0  0  0  0  0  0  0  0
   10.6326  -14.9935   22.1017 C   0  0  0  0  0  0  0  0  0  0  0  0
   10.2932  -13.8257   22.3534 O   0  0  0  0  0  0  0  0  0  0  0  0
   16.7894  -13.5165   20.3017 O   0  0  0  0  0  0  0  0  0  0  0  0
    7.5140  -15.5697   24.9667 C   0  0  0  0  0  0  0  0  0  0  0  0
    8.3715  -15.7600   23.8810 C   0  0  2  0  0  0  0  0  0  0  0  0
    9.8204  -15.8820   24.3183 N   0  0  0  0  0  0  0  0  0  0  0  0
   10.6378  -15.9368   23.1463 C   0  0  0  0  0  0  0  0  0  0  0  0
    9.9393  -17.0450   25.1940 O   0  0  0  0  0  0  0  0  0  0  0  0
   10.0722  -18.1908   24.7060 O   0  0  0  0  0  0  0  0  0  0  0  0
  2  1  1  6
  3  2  1  0
  4  2  1  0
  4  5  1  6
  6  7  2  0
  6  4  1  0
  9  8  1  0
  9 11  1  0
 10  9  2  0
 12 11  1  0
 13 14  1  0
 13 12  1  0
 15 14  1  1
 15 16  1  0
 16  6  1  0
 17 15  1  0
 18 17  2  0
 19 20  1  0
 21 20  1  1
 21 22  1  0
 22 17  1  0
 23 21  1  0
 24 23  2  0
 25 23  1  0
M  END
$$$$
