TRS.pdb
     RDKit          3D

 25 24  0  0  1  0  0  0  0  0999 V2000
    8.4829  -16.0564   18.2657 C   0  0  0  0  0  0  0  0  0  0  0  0
    8.4272  -14.5719   18.1204 C   0  0  1  0  0  0  0  0  0  0  0  0
    8.1891  -14.1199   16.8417 O   0  0  0  0  0  0  0  0  0  0  0  0
    7.4596  -13.9203   19.1128 C   0  0  2  0  0  0  0  0  0  0  0  0
    7.3973  -12.5008   18.9306 N   0  0  0  0  0  0  0  0  0  0  0  0
    7.9839  -14.2149   20.4575 C   0  0  0  0  0  0  0  0  0  0  0  0
    9.0090  -13.6351   20.8909 O   0  0  0  0  0  0  0  0  0  0  0  0
    6.2749  -20.8358   26.1010 N   0  0  0  0  0  0  0  0  0  0  0  0
    6.8501  -19.8124   26.8972 C   0  0  0  0  0  0  0  0  0  0  0  0
    6.9685  -19.9335   28.1718 N   0  0  0  0  0  0  0  0  0  0  0  0
    7.3292  -18.5876   26.3154 N   0  0  0  0  0  0  0  0  0  0  0  0
    6.9092  -18.0788   25.0529 C   0  0  0  0  0  0  0  0  0  0  0  0
    7.5261  -16.7864   24.6284 C   0  0  0  0  0  0  0  0  0  0  0  0
    6.8723  -16.4069   23.2999 C   0  0  0  0  0  0  0  0  0  0  0  0
    7.8673  -15.5491   22.5323 C   0  0  2  0  0  0  0  0  0  0  0  0
    7.3108  -15.1642   21.2531 N   0  0  0  0  0  0  0  0  0  0  0  0
    9.1570  -16.3015   22.3417 C   0  0  0  0  0  0  0  0  0  0  0  0
    9.2515  -17.2684   21.5681 O   0  0  0  0  0  0  0  0  0  0  0  0
    7.4364  -19.1888   28.7128 O   0  0  0  0  0  0  0  0  0  0  0  0
   13.9086  -16.0575   22.6769 C   0  0  0  0  0  0  0  0  0  0  0  0
   12.6264  -15.5052   22.7130 C   0  0  1  0  0  0  0  0  0  0  0  0
   11.5699  -16.5473   23.0344 N   0  0  0  0  0  0  0  0  0  0  0  0
   10.2961  -15.8980   23.0631 C   0  0  0  0  0  0  0  0  0  0  0  0
   11.9411  -17.2074   24.2834 O   0  0  0  0  0  0  0  0  0  0  0  0
   11.2003  -17.1160   25.2892 O   0  0  0  0  0  0  0  0  0  0  0  0
  2  1  1  6
  3  2  1  0
  4  2  1  0
  4  5  1  6
  6  7  2  0
  6  4  1  0
  9  8  1  0
  9 11  1  0
 10  9  2  0
 12 11  1  0
 13 14  1  0
 13 12  1  0
 15 14  1  6
 15 16  1  0
 16  6  1  0
 17 15  1  0
 18 17  2  0
 19 20  1  0
 21 20  1  6
 21 22  1  0
 22 17  1  0
 23 21  1  0
 24 23  2  0
 25 23  1  0
M  END
$$$$
