TRS.pdb
     RDKit          3D

 25 24  0  0  1  0  0  0  0  0999 V2000
    7.9466  -11.5399   26.3611 C   0  0  0  0  0  0  0  0  0  0  0  0
    6.8800  -12.2895   27.0877 C   0  0  1  0  0  0  0  0  0  0  0  0
    6.3239  -11.6227   28.1565 O   0  0  0  0  0  0  0  0  0  0  0  0
    5.7880  -12.8141   26.1506 C   0  0  2  0  0  0  0  0  0  0  0  0
    4.7563  -13.4945   26.8751 N   0  0  0  0  0  0  0  0  0  0  0  0
    6.4465  -13.7631   25.2366 C   0  0  0  0  0  0  0  0  0  0  0  0
    6.5655  -14.9747   25.5415 O   0  0  0  0  0  0  0  0  0  0  0  0
    8.9292  -15.4747   17.0554 N   0  0  0  0  0  0  0  0  0  0  0  0
    8.2961  -14.3478   17.6398 C   0  0  0  0  0  0  0  0  0  0  0  0
    8.4876  -13.1575   17.1929 N   0  0  0  0  0  0  0  0  0  0  0  0
    7.4081  -14.4833   18.7629 N   0  0  0  0  0  0  0  0  0  0  0  0
    7.7340  -15.1704   19.9674 C   0  0  0  0  0  0  0  0  0  0  0  0
    8.6640  -14.4609   20.8962 C   0  0  0  0  0  0  0  0  0  0  0  0
    7.8035  -13.5230   21.7424 C   0  0  0  0  0  0  0  0  0  0  0  0
    7.5733  -14.2035   23.0836 C   0  0  2  0  0  0  0  0  0  0  0  0
    6.9433  -13.2845   24.0073 N   0  0  0  0  0  0  0  0  0  0  0  0
    8.8807  -14.6987   23.6415 C   0  0  0  0  0  0  0  0  0  0  0  0
    9.8148  -13.9298   23.9219 O   0  0  0  0  0  0  0  0  0  0  0  0
    7.9317  -12.3751   17.5737 O   0  0  0  0  0  0  0  0  0  0  0  0
    8.6375  -17.8241   25.7221 C   0  0  0  0  0  0  0  0  0  0  0  0
    9.8697  -17.9604   25.0792 C   0  0  2  0  0  0  0  0  0  0  0  0
   10.2532  -16.7040   24.3178 N   0  0  0  0  0  0  0  0  0  0  0  0
    9.0536  -16.0793   23.8535 C   0  0  0  0  0  0  0  0  0  0  0  0
   11.1904  -17.0756   23.2608 O   0  0  0  0  0  0  0  0  0  0  0  0
   10.9199  -16.8290   22.0630 O   0  0  0  0  0  0  0  0  0  0  0  0
  2  1  1  6
  3  2  1  0
  4  2  1  0
  4  5  1  1
  6  7  2  0
  6  4  1  0
  9  8  1  0
  9 11  1  0
 10  9  2  0
 12 11  1  0
 13 14  1  0
 13 12  1  0
 15 14  1  6
 15 16  1  0
 16  6  1  0
 17 15  1  0
 18 17  2  0
 19 20  1  0
 21 20  1  1
 21 22  1  0
 22 17  1  0
 23 21  1  0
 24 23  2  0
 25 23  1  0
M  END
$$$$
