TRS.pdb
     RDKit          3D

 25 24  0  0  1  0  0  0  0  0999 V2000
   10.0947  -12.4998   19.8869 C   0  0  0  0  0  0  0  0  0  0  0  0
    8.6697  -12.4412   19.4468 C   0  0  1  0  0  0  0  0  0  0  0  0
    8.3042  -11.2771   18.8084 O   0  0  0  0  0  0  0  0  0  0  0  0
    8.2595  -13.6630   18.6194 C   0  0  2  0  0  0  0  0  0  0  0  0
    6.8614  -13.6411   18.3080 N   0  0  0  0  0  0  0  0  0  0  0  0
    8.5539  -14.8438   19.4494 C   0  0  0  0  0  0  0  0  0  0  0  0
    7.6812  -15.3328   20.2072 O   0  0  0  0  0  0  0  0  0  0  0  0
   14.9003  -20.5339   20.6724 N   0  0  0  0  0  0  0  0  0  0  0  0
   13.7630  -21.3709   20.5380 C   0  0  0  0  0  0  0  0  0  0  0  0
   13.7655  -22.5871   20.9552 N   0  0  0  0  0  0  0  0  0  0  0  0
   12.5502  -20.8979   19.9269 N   0  0  0  0  0  0  0  0  0  0  0  0
   12.3529  -19.5685   19.4547 C   0  0  0  0  0  0  0  0  0  0  0  0
   11.3454  -18.7519   20.1958 C   0  0  0  0  0  0  0  0  0  0  0  0
   11.1844  -17.4465   19.4171 C   0  0  0  0  0  0  0  0  0  0  0  0
   10.1314  -16.6158   20.1353 C   0  0  2  0  0  0  0  0  0  0  0  0
    9.8393  -15.4179   19.3774 N   0  0  0  0  0  0  0  0  0  0  0  0
   10.6091  -16.2618   21.5181 C   0  0  0  0  0  0  0  0  0  0  0  0
   11.4963  -15.4157   21.7159 O   0  0  0  0  0  0  0  0  0  0  0  0
   12.9342  -23.1799   20.8013 O   0  0  0  0  0  0  0  0  0  0  0  0
    8.4025  -15.4175   24.7425 C   0  0  0  0  0  0  0  0  0  0  0  0
    9.0489  -16.6546   24.7884 C   0  0  2  0  0  0  0  0  0  0  0  0
   10.3445  -16.6462   23.9969 N   0  0  0  0  0  0  0  0  0  0  0  0
   10.0327  -16.9099   22.6265 C   0  0  0  0  0  0  0  0  0  0  0  0
   11.2604  -17.6080   24.6052 O   0  0  0  0  0  0  0  0  0  0  0  0
   11.6773  -18.5866   23.9440 O   0  0  0  0  0  0  0  0  0  0  0  0
  2  1  1  6
  3  2  1  0
  4  2  1  0
  4  5  1  1
  6  7  2  0
  6  4  1  0
  9  8  1  0
  9 11  1  0
 10  9  2  0
 12 11  1  0
 13 14  1  0
 13 12  1  0
 15 14  1  6
 15 16  1  0
 16  6  1  0
 17 15  1  0
 18 17  2  0
 19 20  1  0
 21 20  1  6
 21 22  1  0
 22 17  1  0
 23 21  1  0
 24 23  2  0
 25 23  1  0
M  END
$$$$
