TRS.pdb
     RDKit          3D

 25 24  0  0  1  0  0  0  0  0999 V2000
    9.0021  -13.2786   17.9135 C   0  0  0  0  0  0  0  0  0  0  0  0
    8.8721  -13.9706   19.2296 C   0  0  1  0  0  0  0  0  0  0  0  0
    9.4378  -13.3071   20.2954 O   0  0  0  0  0  0  0  0  0  0  0  0
    7.4265  -14.3664   19.5450 C   0  0  2  0  0  0  0  0  0  0  0  0
    6.5812  -13.2161   19.6647 N   0  0  0  0  0  0  0  0  0  0  0  0
    7.4633  -15.0784   20.8340 C   0  0  0  0  0  0  0  0  0  0  0  0
    7.1324  -14.5020   21.8985 O   0  0  0  0  0  0  0  0  0  0  0  0
    4.3057  -19.8903   21.9469 N   0  0  0  0  0  0  0  0  0  0  0  0
    4.6325  -21.2366   21.6425 C   0  0  0  0  0  0  0  0  0  0  0  0
    3.7245  -22.1325   21.4802 N   0  0  0  0  0  0  0  0  0  0  0  0
    5.9980  -21.6648   21.5008 N   0  0  0  0  0  0  0  0  0  0  0  0
    7.1250  -20.7968   21.5768 C   0  0  0  0  0  0  0  0  0  0  0  0
    6.8271  -19.3562   21.8350 C   0  0  0  0  0  0  0  0  0  0  0  0
    8.1711  -18.6282   21.8453 C   0  0  0  0  0  0  0  0  0  0  0  0
    7.8883  -17.1553   22.1008 C   0  0  2  0  0  0  0  0  0  0  0  0
    7.8787  -16.4254   20.8512 N   0  0  0  0  0  0  0  0  0  0  0  0
    8.9218  -16.5867   23.0359 C   0  0  0  0  0  0  0  0  0  0  0  0
    9.7474  -15.7338   22.6710 O   0  0  0  0  0  0  0  0  0  0  0  0
    3.9996  -23.0991   21.2429 O   0  0  0  0  0  0  0  0  0  0  0  0
    8.2075  -14.8411   26.0788 C   0  0  0  0  0  0  0  0  0  0  0  0
    9.4943  -15.0438   25.5754 C   0  0  1  0  0  0  0  0  0  0  0  0
    9.8068  -16.5189   25.3970 N   0  0  0  0  0  0  0  0  0  0  0  0
    8.9562  -17.0347   24.3697 C   0  0  0  0  0  0  0  0  0  0  0  0
    9.6609  -17.1791   26.6918 O   0  0  0  0  0  0  0  0  0  0  0  0
    8.7898  -18.0644   26.8535 O   0  0  0  0  0  0  0  0  0  0  0  0
  2  1  1  6
  3  2  1  0
  4  2  1  0
  4  5  1  1
  6  7  2  0
  6  4  1  0
  9  8  1  0
  9 11  1  0
 10  9  2  0
 12 11  1  0
 13 14  1  0
 13 12  1  0
 15 14  1  6
 15 16  1  0
 16  6  1  0
 17 15  1  0
 18 17  2  0
 19 20  1  0
 21 20  1  6
 21 22  1  0
 22 17  1  0
 23 21  1  0
 24 23  2  0
 25 23  1  0
M  END
$$$$
