TRS.pdb
     RDKit          3D

 25 24  0  0  1  0  0  0  0  0999 V2000
    7.9766  -20.2363   21.4711 C   0  0  0  0  0  0  0  0  0  0  0  0
    8.2187  -20.3601   20.0036 C   0  0  1  0  0  0  0  0  0  0  0  0
    7.6695  -21.4769   19.4143 O   0  0  0  0  0  0  0  0  0  0  0  0
    7.8262  -19.0950   19.2346 C   0  0  2  0  0  0  0  0  0  0  0  0
    8.0145  -19.2583   17.8238 N   0  0  0  0  0  0  0  0  0  0  0  0
    8.7104  -18.0224   19.7218 C   0  0  0  0  0  0  0  0  0  0  0  0
    9.9462  -18.0580   19.5062 O   0  0  0  0  0  0  0  0  0  0  0  0
    8.3953  -15.0802   16.6700 N   0  0  0  0  0  0  0  0  0  0  0  0
    7.6874  -13.8576   16.5425 C   0  0  0  0  0  0  0  0  0  0  0  0
    7.5227  -13.2874   15.4018 N   0  0  0  0  0  0  0  0  0  0  0  0
    7.1190  -13.1958   17.6858 N   0  0  0  0  0  0  0  0  0  0  0  0
    7.0801  -13.7486   18.9981 C   0  0  0  0  0  0  0  0  0  0  0  0
    8.3695  -13.7404   19.7518 C   0  0  0  0  0  0  0  0  0  0  0  0
    8.1458  -14.5829   21.0074 C   0  0  0  0  0  0  0  0  0  0  0  0
    8.9788  -15.8476   20.8607 C   0  0  2  0  0  0  0  0  0  0  0  0
    8.1415  -16.9497   20.4379 N   0  0  0  0  0  0  0  0  0  0  0  0
    9.6585  -16.1712   22.1641 C   0  0  0  0  0  0  0  0  0  0  0  0
    9.0384  -16.2264   23.2386 O   0  0  0  0  0  0  0  0  0  0  0  0
    6.9706  -12.4169   15.3427 O   0  0  0  0  0  0  0  0  0  0  0  0
   11.0323  -18.9391   23.4657 C   0  0  0  0  0  0  0  0  0  0  0  0
   12.1775  -18.1454   23.3708 C   0  0  2  0  0  0  0  0  0  0  0  0
   11.8393  -16.6657   23.3312 N   0  0  0  0  0  0  0  0  0  0  0  0
   11.0438  -16.4202   22.1686 C   0  0  0  0  0  0  0  0  0  0  0  0
   13.0871  -15.9080   23.3818 O   0  0  0  0  0  0  0  0  0  0  0  0
   13.4082  -15.1578   22.4316 O   0  0  0  0  0  0  0  0  0  0  0  0
  2  1  1  1
  3  2  1  0
  4  2  1  0
  4  5  1  6
  6  7  2  0
  6  4  1  0
  9  8  1  0
  9 11  1  0
 10  9  2  0
 12 11  1  0
 13 14  1  0
 13 12  1  0
 15 14  1  1
 15 16  1  0
 16  6  1  0
 17 15  1  0
 18 17  2  0
 19 20  1  0
 21 20  1  1
 21 22  1  0
 22 17  1  0
 23 21  1  0
 24 23  2  0
 25 23  1  0
M  END
$$$$
