TRS.pdb
     RDKit          3D

 25 24  0  0  1  0  0  0  0  0999 V2000
    6.4480  -13.1973   18.6825 C   0  0  0  0  0  0  0  0  0  0  0  0
    7.6937  -14.0138   18.7794 C   0  0  1  0  0  0  0  0  0  0  0  0
    8.2004  -14.4492   17.5753 O   0  0  0  0  0  0  0  0  0  0  0  0
    8.7835  -13.3270   19.6078 C   0  0  2  0  0  0  0  0  0  0  0  0
    9.3394  -12.2028   18.9154 N   0  0  0  0  0  0  0  0  0  0  0  0
    9.8368  -14.3338   19.8238 C   0  0  0  0  0  0  0  0  0  0  0  0
    9.5710  -15.4424   20.3485 O   0  0  0  0  0  0  0  0  0  0  0  0
   17.4214  -13.9081   19.2002 N   0  0  0  0  0  0  0  0  0  0  0  0
   16.8674  -13.5984   17.9317 C   0  0  0  0  0  0  0  0  0  0  0  0
   17.3733  -12.6885   17.1769 N   0  0  0  0  0  0  0  0  0  0  0  0
   15.7107  -14.2888   17.4282 N   0  0  0  0  0  0  0  0  0  0  0  0
   15.3979  -15.6487   17.7145 C   0  0  0  0  0  0  0  0  0  0  0  0
   14.3493  -15.8758   18.7536 C   0  0  0  0  0  0  0  0  0  0  0  0
   13.3149  -14.7641   18.5793 C   0  0  0  0  0  0  0  0  0  0  0  0
   12.1944  -15.0256   19.5747 C   0  0  2  0  0  0  0  0  0  0  0  0
   11.1552  -14.0290   19.4288 N   0  0  0  0  0  0  0  0  0  0  0  0
   12.7393  -15.0182   20.9778 C   0  0  0  0  0  0  0  0  0  0  0  0
   13.4470  -14.0931   21.4085 O   0  0  0  0  0  0  0  0  0  0  0  0
   16.9454  -12.4937   16.2576 O   0  0  0  0  0  0  0  0  0  0  0  0
   10.9744  -17.6431   23.5645 C   0  0  0  0  0  0  0  0  0  0  0  0
   11.7125  -16.5660   24.0597 C   0  0  1  0  0  0  0  0  0  0  0  0
   12.9047  -16.2428   23.1768 N   0  0  0  0  0  0  0  0  0  0  0  0
   12.4384  -16.0947   21.8331 C   0  0  0  0  0  0  0  0  0  0  0  0
   13.9072  -17.2896   23.3576 O   0  0  0  0  0  0  0  0  0  0  0  0
   14.2318  -18.0245   22.3967 O   0  0  0  0  0  0  0  0  0  0  0  0
  2  1  1  6
  3  2  1  0
  4  2  1  0
  4  5  1  6
  6  7  2  0
  6  4  1  0
  9  8  1  0
  9 11  1  0
 10  9  2  0
 12 11  1  0
 13 14  1  0
 13 12  1  0
 15 14  1  6
 15 16  1  0
 16  6  1  0
 17 15  1  0
 18 17  2  0
 19 20  1  0
 21 20  1  1
 21 22  1  0
 22 17  1  0
 23 21  1  0
 24 23  2  0
 25 23  1  0
M  END
$$$$
