TRS.pdb
     RDKit          3D

 25 24  0  0  1  0  0  0  0  0999 V2000
   10.1495  -13.0482   21.1601 C   0  0  0  0  0  0  0  0  0  0  0  0
    9.0240  -12.9303   20.1869 C   0  0  1  0  0  0  0  0  0  0  0  0
    9.3684  -12.4160   18.9569 O   0  0  0  0  0  0  0  0  0  0  0  0
    8.2463  -14.2400   20.0266 C   0  0  2  0  0  0  0  0  0  0  0  0
    7.1663  -14.0990   19.0960 N   0  0  0  0  0  0  0  0  0  0  0  0
    7.7024  -14.5649   21.3564 C   0  0  0  0  0  0  0  0  0  0  0  0
    6.6501  -14.0222   21.7726 O   0  0  0  0  0  0  0  0  0  0  0  0
    5.4077  -21.9639   23.5077 N   0  0  0  0  0  0  0  0  0  0  0  0
    4.7848  -21.1092   22.5623 C   0  0  0  0  0  0  0  0  0  0  0  0
    3.8226  -21.5171   21.8132 N   0  0  0  0  0  0  0  0  0  0  0  0
    5.2010  -19.7428   22.3961 N   0  0  0  0  0  0  0  0  0  0  0  0
    6.2983  -19.1472   23.0820 C   0  0  0  0  0  0  0  0  0  0  0  0
    6.4924  -17.6827   22.8621 C   0  0  0  0  0  0  0  0  0  0  0  0
    7.7181  -17.2776   23.6807 C   0  0  0  0  0  0  0  0  0  0  0  0
    7.9135  -15.7801   23.4959 C   0  0  2  0  0  0  0  0  0  0  0  0
    8.3878  -15.5007   22.1575 N   0  0  0  0  0  0  0  0  0  0  0  0
    8.8848  -15.2569   24.5198 C   0  0  0  0  0  0  0  0  0  0  0  0
   10.1134  -15.3883   24.3951 O   0  0  0  0  0  0  0  0  0  0  0  0
    3.4181  -20.8775   21.1107 O   0  0  0  0  0  0  0  0  0  0  0  0
    7.1072  -13.1467   27.5602 C   0  0  0  0  0  0  0  0  0  0  0  0
    8.4492  -12.8613   27.2998 C   0  0  1  0  0  0  0  0  0  0  0  0
    9.1806  -14.0587   26.7197 N   0  0  0  0  0  0  0  0  0  0  0  0
    8.3870  -14.5958   25.6582 C   0  0  0  0  0  0  0  0  0  0  0  0
    9.4564  -14.9977   27.8040 O   0  0  0  0  0  0  0  0  0  0  0  0
    8.9855  -16.1578   27.7685 O   0  0  0  0  0  0  0  0  0  0  0  0
  2  1  1  1
  3  2  1  0
  4  2  1  0
  4  5  1  6
  6  7  2  0
  6  4  1  0
  9  8  1  0
  9 11  1  0
 10  9  2  0
 12 11  1  0
 13 14  1  0
 13 12  1  0
 15 14  1  6
 15 16  1  0
 16  6  1  0
 17 15  1  0
 18 17  2  0
 19 20  1  0
 21 20  1  6
 21 22  1  0
 22 17  1  0
 23 21  1  0
 24 23  2  0
 25 23  1  0
M  END
$$$$
