TRS.pdb
     RDKit          3D

 25 24  0  0  1  0  0  0  0  0999 V2000
    7.8952  -11.6150   19.4837 C   0  0  0  0  0  0  0  0  0  0  0  0
    8.5395  -12.8563   20.0048 C   0  0  1  0  0  0  0  0  0  0  0  0
    8.4638  -13.0236   21.3695 O   0  0  0  0  0  0  0  0  0  0  0  0
    8.0601  -14.1166   19.2784 C   0  0  2  0  0  0  0  0  0  0  0  0
    6.6633  -14.3487   19.4956 N   0  0  0  0  0  0  0  0  0  0  0  0
    8.8321  -15.2383   19.8404 C   0  0  0  0  0  0  0  0  0  0  0  0
    8.3519  -15.9610   20.7470 O   0  0  0  0  0  0  0  0  0  0  0  0
   10.5691  -20.4132   16.0990 N   0  0  0  0  0  0  0  0  0  0  0  0
   10.9169  -19.4960   15.0744 C   0  0  0  0  0  0  0  0  0  0  0  0
   10.5413  -19.6683   13.8568 N   0  0  0  0  0  0  0  0  0  0  0  0
   11.7083  -18.3271   15.3492 N   0  0  0  0  0  0  0  0  0  0  0  0
   12.1992  -17.9733   16.6388 C   0  0  0  0  0  0  0  0  0  0  0  0
   11.1716  -17.5622   17.6417 C   0  0  0  0  0  0  0  0  0  0  0  0
   11.9348  -17.0443   18.8606 C   0  0  0  0  0  0  0  0  0  0  0  0
   10.9040  -16.5815   19.8795 C   0  0  2  0  0  0  0  0  0  0  0  0
   10.1261  -15.4870   19.3397 N   0  0  0  0  0  0  0  0  0  0  0  0
   11.5894  -16.1639   21.1529 C   0  0  0  0  0  0  0  0  0  0  0  0
   12.3963  -15.2207   21.1921 O   0  0  0  0  0  0  0  0  0  0  0  0
   10.7569  -18.9465   13.1505 O   0  0  0  0  0  0  0  0  0  0  0  0
   10.0373  -17.8693   24.5135 C   0  0  0  0  0  0  0  0  0  0  0  0
   10.7864  -16.7007   24.6665 C   0  0  1  0  0  0  0  0  0  0  0  0
   11.8825  -16.5898   23.6217 N   0  0  0  0  0  0  0  0  0  0  0  0
   11.3085  -16.8640   22.3410 C   0  0  0  0  0  0  0  0  0  0  0  0
   12.9713  -17.4863   24.0015 O   0  0  0  0  0  0  0  0  0  0  0  0
   13.3210  -18.4133   23.2354 O   0  0  0  0  0  0  0  0  0  0  0  0
  2  1  1  6
  3  2  1  0
  4  2  1  0
  4  5  1  1
  6  7  2  0
  6  4  1  0
  9  8  1  0
  9 11  1  0
 10  9  2  0
 12 11  1  0
 13 14  1  0
 13 12  1  0
 15 14  1  6
 15 16  1  0
 16  6  1  0
 17 15  1  0
 18 17  2  0
 19 20  1  0
 21 20  1  6
 21 22  1  0
 22 17  1  0
 23 21  1  0
 24 23  2  0
 25 23  1  0
M  END
$$$$
