TRS.pdb
     RDKit          3D

 25 24  0  0  1  0  0  0  0  0999 V2000
    7.0588  -12.5346   18.4591 C   0  0  0  0  0  0  0  0  0  0  0  0
    7.7763  -13.7792   18.8639 C   0  0  1  0  0  0  0  0  0  0  0  0
    8.1218  -14.6164   17.8267 O   0  0  0  0  0  0  0  0  0  0  0  0
    8.9885  -13.4949   19.7558 C   0  0  2  0  0  0  0  0  0  0  0  0
   10.0964  -13.0001   18.9942 N   0  0  0  0  0  0  0  0  0  0  0  0
    9.3591  -14.7796   20.3738 C   0  0  0  0  0  0  0  0  0  0  0  0
    8.5428  -15.4105   21.0884 O   0  0  0  0  0  0  0  0  0  0  0  0
   13.7766  -15.0547   16.2975 N   0  0  0  0  0  0  0  0  0  0  0  0
   14.8394  -14.7268   17.1778 C   0  0  0  0  0  0  0  0  0  0  0  0
   15.5342  -13.6551   17.0291 N   0  0  0  0  0  0  0  0  0  0  0  0
   15.1917  -15.5797   18.2808 N   0  0  0  0  0  0  0  0  0  0  0  0
   14.2981  -16.4961   18.9061 C   0  0  0  0  0  0  0  0  0  0  0  0
   13.1261  -15.8935   19.6088 C   0  0  0  0  0  0  0  0  0  0  0  0
   12.3298  -17.0549   20.2034 C   0  0  0  0  0  0  0  0  0  0  0  0
   11.0943  -16.4660   20.8678 C   0  0  2  0  0  0  0  0  0  0  0  0
   10.6532  -15.2908   20.1476 N   0  0  0  0  0  0  0  0  0  0  0  0
   11.3943  -16.1238   22.3026 C   0  0  0  0  0  0  0  0  0  0  0  0
   12.3199  -15.3597   22.6216 O   0  0  0  0  0  0  0  0  0  0  0  0
   16.1884  -13.3651   17.7735 O   0  0  0  0  0  0  0  0  0  0  0  0
    8.4647  -17.0324   25.0637 C   0  0  0  0  0  0  0  0  0  0  0  0
    9.4689  -16.1021   25.3402 C   0  0  1  0  0  0  0  0  0  0  0  0
   10.7974  -16.5030   24.7238 N   0  0  0  0  0  0  0  0  0  0  0  0
   10.6009  -16.6871   23.3194 C   0  0  0  0  0  0  0  0  0  0  0  0
   11.2914  -17.6847   25.4260 O   0  0  0  0  0  0  0  0  0  0  0  0
   11.3449  -18.7901   24.8396 O   0  0  0  0  0  0  0  0  0  0  0  0
  2  1  1  6
  3  2  1  0
  4  2  1  0
  4  5  1  6
  6  7  2  0
  6  4  1  0
  9  8  1  0
  9 11  1  0
 10  9  2  0
 12 11  1  0
 13 14  1  0
 13 12  1  0
 15 14  1  6
 15 16  1  0
 16  6  1  0
 17 15  1  0
 18 17  2  0
 19 20  1  0
 21 20  1  6
 21 22  1  0
 22 17  1  0
 23 21  1  0
 24 23  2  0
 25 23  1  0
M  END
$$$$
