TRS.pdb
     RDKit          3D

 25 24  0  0  1  0  0  0  0  0999 V2000
    2.7534  -19.1108   23.1958 C   0  0  0  0  0  0  0  0  0  0  0  0
    2.8200  -20.0270   22.0194 C   0  0  1  0  0  0  0  0  0  0  0  0
    1.6645  -20.7306   21.7625 O   0  0  0  0  0  0  0  0  0  0  0  0
    3.3166  -19.3225   20.7533 C   0  0  2  0  0  0  0  0  0  0  0  0
    3.3771  -20.2229   19.6407 N   0  0  0  0  0  0  0  0  0  0  0  0
    4.6723  -18.8325   21.0560 C   0  0  0  0  0  0  0  0  0  0  0  0
    5.6662  -19.5944   20.9747 O   0  0  0  0  0  0  0  0  0  0  0  0
   10.1414  -13.5069   20.2306 N   0  0  0  0  0  0  0  0  0  0  0  0
    8.9519  -12.8354   19.8482 C   0  0  0  0  0  0  0  0  0  0  0  0
    8.9241  -12.0246   18.8506 N   0  0  0  0  0  0  0  0  0  0  0  0
    7.7175  -13.0295   20.5600 N   0  0  0  0  0  0  0  0  0  0  0  0
    7.6260  -13.5384   21.8874 C   0  0  0  0  0  0  0  0  0  0  0  0
    7.6066  -15.0260   22.0197 C   0  0  0  0  0  0  0  0  0  0  0  0
    6.2053  -15.4815   21.6131 C   0  0  0  0  0  0  0  0  0  0  0  0
    6.1524  -16.9929   21.7799 C   0  0  2  0  0  0  0  0  0  0  0  0
    4.8348  -17.4860   21.4405 N   0  0  0  0  0  0  0  0  0  0  0  0
    6.5082  -17.3683   23.1935 C   0  0  0  0  0  0  0  0  0  0  0  0
    5.8635  -16.9545   24.1709 O   0  0  0  0  0  0  0  0  0  0  0  0
    8.0362  -11.5650   18.5926 O   0  0  0  0  0  0  0  0  0  0  0  0
    9.8836  -19.8124   23.5969 C   0  0  0  0  0  0  0  0  0  0  0  0
    8.8413  -19.9430   24.5171 C   0  0  1  0  0  0  0  0  0  0  0  0
    8.0806  -18.6417   24.6996 N   0  0  0  0  0  0  0  0  0  0  0  0
    7.6084  -18.2168   23.4185 C   0  0  0  0  0  0  0  0  0  0  0  0
    8.9596  -17.6859   25.3683 O   0  0  0  0  0  0  0  0  0  0  0  0
    9.2658  -16.6099   24.8050 O   0  0  0  0  0  0  0  0  0  0  0  0
  2  1  1  1
  3  2  1  0
  4  2  1  0
  4  5  1  6
  6  7  2  0
  6  4  1  0
  9  8  1  0
  9 11  1  0
 10  9  2  0
 12 11  1  0
 13 14  1  0
 13 12  1  0
 15 14  1  1
 15 16  1  0
 16  6  1  0
 17 15  1  0
 18 17  2  0
 19 20  1  0
 21 20  1  1
 21 22  1  0
 22 17  1  0
 23 21  1  0
 24 23  2  0
 25 23  1  0
M  END
$$$$
