TRS.pdb
     RDKit          3D

 25 24  0  0  1  0  0  0  0  0999 V2000
    9.0571  -12.6751   19.9040 C   0  0  0  0  0  0  0  0  0  0  0  0
    8.1380  -13.1853   18.8444 C   0  0  1  0  0  0  0  0  0  0  0  0
    7.5389  -12.2132   18.0748 O   0  0  0  0  0  0  0  0  0  0  0  0
    8.7954  -14.2473   17.9580 C   0  0  2  0  0  0  0  0  0  0  0  0
    7.8550  -14.8241   17.0441 N   0  0  0  0  0  0  0  0  0  0  0  0
    9.2950  -15.2941   18.8660 C   0  0  0  0  0  0  0  0  0  0  0  0
    8.5012  -16.0494   19.4777 O   0  0  0  0  0  0  0  0  0  0  0  0
   15.0770  -14.1709   16.7633 N   0  0  0  0  0  0  0  0  0  0  0  0
   15.9236  -14.0803   17.8979 C   0  0  0  0  0  0  0  0  0  0  0  0
   16.8199  -13.1641   18.0012 N   0  0  0  0  0  0  0  0  0  0  0  0
   15.8199  -15.0113   18.9890 N   0  0  0  0  0  0  0  0  0  0  0  0
   14.8255  -16.0264   19.0883 C   0  0  0  0  0  0  0  0  0  0  0  0
   13.4614  -15.5712   19.4920 C   0  0  0  0  0  0  0  0  0  0  0  0
   12.5991  -16.8279   19.6083 C   0  0  0  0  0  0  0  0  0  0  0  0
   11.1983  -16.3832   20.0018 C   0  0  2  0  0  0  0  0  0  0  0  0
   10.6874  -15.4334   19.0368 N   0  0  0  0  0  0  0  0  0  0  0  0
   11.2179  -15.7768   21.3794 C   0  0  0  0  0  0  0  0  0  0  0  0
   11.1755  -14.5494   21.5634 O   0  0  0  0  0  0  0  0  0  0  0  0
   17.4696  -13.1755   18.8037 O   0  0  0  0  0  0  0  0  0  0  0  0
    8.6685  -16.6443   23.8225 C   0  0  0  0  0  0  0  0  0  0  0  0
    9.6489  -15.6570   23.9424 C   0  0  1  0  0  0  0  0  0  0  0  0
   11.0496  -16.2362   23.8538 N   0  0  0  0  0  0  0  0  0  0  0  0
   11.2867  -16.6270   22.4989 C   0  0  0  0  0  0  0  0  0  0  0  0
   11.1599  -17.3217   24.8250 O   0  0  0  0  0  0  0  0  0  0  0  0
   11.3128  -18.5025   24.4362 O   0  0  0  0  0  0  0  0  0  0  0  0
  2  1  1  1
  3  2  1  0
  4  2  1  0
  4  5  1  6
  6  7  2  0
  6  4  1  0
  9  8  1  0
  9 11  1  0
 10  9  2  0
 12 11  1  0
 13 14  1  0
 13 12  1  0
 15 14  1  6
 15 16  1  0
 16  6  1  0
 17 15  1  0
 18 17  2  0
 19 20  1  0
 21 20  1  6
 21 22  1  0
 22 17  1  0
 23 21  1  0
 24 23  2  0
 25 23  1  0
M  END
$$$$
