TRS.pdb
     RDKit          3D

 25 24  0  0  1  0  0  0  0  0999 V2000
    9.2900  -12.0797   20.4047 C   0  0  0  0  0  0  0  0  0  0  0  0
    8.0598  -12.3636   19.6086 C   0  0  1  0  0  0  0  0  0  0  0  0
    7.3907  -11.2498   19.1526 O   0  0  0  0  0  0  0  0  0  0  0  0
    8.3154  -13.3473   18.4628 C   0  0  2  0  0  0  0  0  0  0  0  0
    7.0939  -13.7420   17.8271 N   0  0  0  0  0  0  0  0  0  0  0  0
    8.9532  -14.5301   19.0662 C   0  0  0  0  0  0  0  0  0  0  0  0
    8.2630  -15.4878   19.4920 O   0  0  0  0  0  0  0  0  0  0  0  0
   13.2523  -19.0699   15.6319 N   0  0  0  0  0  0  0  0  0  0  0  0
   13.8700  -19.7232   16.7291 C   0  0  0  0  0  0  0  0  0  0  0  0
   14.1017  -20.9880   16.7196 N   0  0  0  0  0  0  0  0  0  0  0  0
   14.2671  -19.0006   17.9073 N   0  0  0  0  0  0  0  0  0  0  0  0
   13.8931  -17.6554   18.1898 C   0  0  0  0  0  0  0  0  0  0  0  0
   12.5821  -17.4704   18.8811 C   0  0  0  0  0  0  0  0  0  0  0  0
   12.3456  -15.9629   18.9709 C   0  0  0  0  0  0  0  0  0  0  0  0
   11.0115  -15.7531   19.6716 C   0  0  2  0  0  0  0  0  0  0  0  0
   10.3594  -14.5678   19.1576 N   0  0  0  0  0  0  0  0  0  0  0  0
   11.2224  -15.6368   21.1575 C   0  0  0  0  0  0  0  0  0  0  0  0
   11.7824  -14.6551   21.6721 O   0  0  0  0  0  0  0  0  0  0  0  0
   14.6022  -21.4199   17.5127 O   0  0  0  0  0  0  0  0  0  0  0  0
    9.3187  -16.7368   25.3278 C   0  0  0  0  0  0  0  0  0  0  0  0
    9.3745  -16.6950   23.9330 C   0  0  1  0  0  0  0  0  0  0  0  0
   10.8047  -16.6615   23.4242 N   0  0  0  0  0  0  0  0  0  0  0  0
   10.7708  -16.6741   21.9947 C   0  0  0  0  0  0  0  0  0  0  0  0
   11.5312  -17.7787   24.0223 O   0  0  0  0  0  0  0  0  0  0  0  0
   11.8721  -18.7576   23.3194 O   0  0  0  0  0  0  0  0  0  0  0  0
  2  1  1  6
  3  2  1  0
  4  2  1  0
  4  5  1  1
  6  7  2  0
  6  4  1  0
  9  8  1  0
  9 11  1  0
 10  9  2  0
 12 11  1  0
 13 14  1  0
 13 12  1  0
 15 14  1  6
 15 16  1  0
 16  6  1  0
 17 15  1  0
 18 17  2  0
 19 20  1  0
 21 20  1  6
 21 22  1  0
 22 17  1  0
 23 21  1  0
 24 23  2  0
 25 23  1  0
M  END
$$$$
