TRS.pdb
     RDKit          3D

 25 24  0  0  1  0  0  0  0  0999 V2000
    8.6661  -14.2372   16.0415 C   0  0  0  0  0  0  0  0  0  0  0  0
    8.5701  -14.5467   17.4984 C   0  0  1  0  0  0  0  0  0  0  0  0
    9.7590  -14.4735   18.1894 O   0  0  0  0  0  0  0  0  0  0  0  0
    7.4843  -13.7279   18.2028 C   0  0  2  0  0  0  0  0  0  0  0  0
    7.8633  -12.3522   18.3298 N   0  0  0  0  0  0  0  0  0  0  0  0
    7.3275  -14.3144   19.5449 C   0  0  0  0  0  0  0  0  0  0  0  0
    8.0286  -13.9182   20.5074 O   0  0  0  0  0  0  0  0  0  0  0  0
    6.1983  -20.9528   21.9195 N   0  0  0  0  0  0  0  0  0  0  0  0
    5.2858  -20.9494   23.0055 C   0  0  0  0  0  0  0  0  0  0  0  0
    5.3329  -21.8411   23.9308 N   0  0  0  0  0  0  0  0  0  0  0  0
    4.2621  -19.9464   23.1236 N   0  0  0  0  0  0  0  0  0  0  0  0
    4.1317  -18.8243   22.2558 C   0  0  0  0  0  0  0  0  0  0  0  0
    5.2505  -17.8354   22.2896 C   0  0  0  0  0  0  0  0  0  0  0  0
    5.2130  -17.0890   20.9562 C   0  0  0  0  0  0  0  0  0  0  0  0
    6.3044  -16.0297   20.9974 C   0  0  2  0  0  0  0  0  0  0  0  0
    6.3715  -15.3336   19.7303 N   0  0  0  0  0  0  0  0  0  0  0  0
    7.6294  -16.6671   21.3199 C   0  0  0  0  0  0  0  0  0  0  0  0
    8.2414  -17.3730   20.5017 O   0  0  0  0  0  0  0  0  0  0  0  0
    4.6344  -21.8232   24.6910 O   0  0  0  0  0  0  0  0  0  0  0  0
   11.6378  -16.2841   23.7532 C   0  0  0  0  0  0  0  0  0  0  0  0
   10.3813  -15.8410   23.3345 C   0  0  2  0  0  0  0  0  0  0  0  0
    9.4411  -16.9972   23.0436 N   0  0  0  0  0  0  0  0  0  0  0  0
    8.1965  -16.4580   22.5909 C   0  0  0  0  0  0  0  0  0  0  0  0
    9.3423  -17.8221   24.2450 O   0  0  0  0  0  0  0  0  0  0  0  0
   10.3509  -18.4219   24.6826 O   0  0  0  0  0  0  0  0  0  0  0  0
  2  1  1  6
  3  2  1  0
  4  2  1  0
  4  5  1  1
  6  7  2  0
  6  4  1  0
  9  8  1  0
  9 11  1  0
 10  9  2  0
 12 11  1  0
 13 14  1  0
 13 12  1  0
 15 14  1  6
 15 16  1  0
 16  6  1  0
 17 15  1  0
 18 17  2  0
 19 20  1  0
 21 20  1  6
 21 22  1  0
 22 17  1  0
 23 21  1  0
 24 23  2  0
 25 23  1  0
M  END
$$$$
