WWG.pdb
     RDKit          3D

 33 36  0  0  1  0  0  0  0  0999 V2000
    6.6696  -19.3584   23.1755 N   0  0  0  0  0  0  0  0  0  0  0  0
    6.4487  -18.1357   22.4568 C   0  0  1  0  0  0  0  0  0  0  0  0
    5.0602  -17.6239   22.7466 C   0  0  0  0  0  0  0  0  0  0  0  0
    4.0363  -18.6592   22.5072 C   0  0  0  0  0  0  0  0  0  0  0  0
    3.5977  -19.6579   23.3161 C   0  0  0  0  0  0  0  0  0  0  0  0
    2.6592  -20.3832   22.6816 N   0  0  0  0  0  0  0  0  0  0  0  0
    2.4940  -19.8489   21.4621 C   0  0  0  0  0  0  0  0  0  0  0  0
    1.6435  -20.2338   20.4201 C   0  0  0  0  0  0  0  0  0  0  0  0
    1.6767  -19.5062   19.2584 C   0  0  0  0  0  0  0  0  0  0  0  0
    2.5199  -18.4237   19.1085 C   0  0  0  0  0  0  0  0  0  0  0  0
    3.3522  -18.0490   20.1314 C   0  0  0  0  0  0  0  0  0  0  0  0
    3.3256  -18.7773   21.3077 C   0  0  0  0  0  0  0  0  0  0  0  0
    7.4085  -17.0933   22.8659 C   0  0  0  0  0  0  0  0  0  0  0  0
    7.4059  -15.9414   22.3006 O   0  0  0  0  0  0  0  0  0  0  0  0
    8.4117  -17.2457   23.8927 N   0  0  0  0  0  0  0  0  0  0  0  0
    9.3290  -16.1720   24.1782 C   0  0  1  0  0  0  0  0  0  0  0  0
    9.2162  -15.5701   25.5144 C   0  0  0  0  0  0  0  0  0  0  0  0
    7.9712  -14.9072   25.8651 C   0  0  0  0  0  0  0  0  0  0  0  0
    6.7513  -15.5763   26.0136 C   0  0  0  0  0  0  0  0  0  0  0  0
    5.8029  -14.6817   26.3044 N   0  0  0  0  0  0  0  0  0  0  0  0
    6.3362  -13.4332   26.3587 C   0  0  0  0  0  0  0  0  0  0  0  0
    5.7702  -12.2099   26.6313 C   0  0  0  0  0  0  0  0  0  0  0  0
    6.5653  -11.0990   26.6342 C   0  0  0  0  0  0  0  0  0  0  0  0
    7.9064  -11.2177   26.3672 C   0  0  0  0  0  0  0  0  0  0  0  0
    8.4450  -12.4453   26.0975 C   0  0  0  0  0  0  0  0  0  0  0  0
    7.6955  -13.5889   26.0817 C   0  0  0  0  0  0  0  0  0  0  0  0
   10.7533  -16.6492   23.9185 C   0  0  0  0  0  0  0  0  0  0  0  0
   11.6793  -15.9159   24.3027 O   0  0  0  0  0  0  0  0  0  0  0  0
   11.0058  -17.8737   23.2674 N   0  0  0  0  0  0  0  0  0  0  0  0
   12.3209  -18.4093   23.0285 C   0  0  0  0  0  0  0  0  0  0  0  0
   12.9484  -17.8602   21.8097 C   0  0  0  0  0  0  0  0  0  0  0  0
   14.0656  -18.2461   21.4558 O   0  0  0  0  0  0  0  0  0  0  0  0
   12.2727  -16.9113   21.0731 O   0  0  0  0  0  0  0  0  0  0  0  0
  2 13  1  0
  2  1  1  1
  3  2  1  0
  4  3  1  0
  5  4  2  0
  6  5  1  0
  7  6  1  0
  7 12  2  0
  8  7  1  0
  9  8  2  0
  9 10  1  0
 10 11  2  0
 11 12  1  0
 12  4  1  0
 13 14  2  0
 15 16  1  0
 15 13  1  0
 16 17  1  1
 18 17  1  0
 19 18  2  0
 20 19  1  0
 21 20  1  0
 21 26  2  0
 22 21  1  0
 23 22  2  0
 23 24  1  0
 24 25  2  0
 25 26  1  0
 26 18  1  0
 27 28  2  0
 27 16  1  0
 29 27  1  0
 30 29  1  0
 31 30  1  0
 32 31  2  0
 33 31  1  0
M  END
$$$$
