WWG.pdb
     RDKit          3D

 33 36  0  0  1  0  0  0  0  0999 V2000
    8.9663  -20.0347   26.3609 N   0  0  0  0  0  0  0  0  0  0  0  0
    9.2441  -18.6349   26.2073 C   0  0  1  0  0  0  0  0  0  0  0  0
   10.7054  -18.3781   26.4760 C   0  0  0  0  0  0  0  0  0  0  0  0
   10.9034  -17.5932   27.7098 C   0  0  0  0  0  0  0  0  0  0  0  0
   11.1455  -18.0081   28.9800 C   0  0  0  0  0  0  0  0  0  0  0  0
   11.2418  -16.9454   29.7990 N   0  0  0  0  0  0  0  0  0  0  0  0
   11.0616  -15.8448   29.0533 C   0  0  0  0  0  0  0  0  0  0  0  0
   11.0627  -14.4965   29.4262 C   0  0  0  0  0  0  0  0  0  0  0  0
   10.8459  -13.5574   28.4509 C   0  0  0  0  0  0  0  0  0  0  0  0
   10.6315  -13.9185   27.1360 C   0  0  0  0  0  0  0  0  0  0  0  0
   10.6310  -15.2406   26.7737 C   0  0  0  0  0  0  0  0  0  0  0  0
   10.8490  -16.1956   27.7511 C   0  0  0  0  0  0  0  0  0  0  0  0
    8.9502  -18.1779   24.8361 C   0  0  0  0  0  0  0  0  0  0  0  0
    8.6974  -19.0224   23.9037 O   0  0  0  0  0  0  0  0  0  0  0  0
    8.9207  -16.7992   24.4092 N   0  0  0  0  0  0  0  0  0  0  0  0
    8.5371  -16.4633   23.0617 C   0  0  1  0  0  0  0  0  0  0  0  0
    7.4095  -15.5298   22.9296 C   0  0  0  0  0  0  0  0  0  0  0  0
    6.7816  -15.0364   24.1440 C   0  0  0  0  0  0  0  0  0  0  0  0
    6.1366  -15.8599   25.0733 C   0  0  0  0  0  0  0  0  0  0  0  0
    5.6419  -15.0979   26.0526 N   0  0  0  0  0  0  0  0  0  0  0  0
    5.9290  -13.7903   25.8203 C   0  0  0  0  0  0  0  0  0  0  0  0
    5.6471  -12.6523   26.5389 C   0  0  0  0  0  0  0  0  0  0  0  0
    6.0827  -11.4467   26.0665 C   0  0  0  0  0  0  0  0  0  0  0  0
    6.7892  -11.3881   24.8912 C   0  0  0  0  0  0  0  0  0  0  0  0
    7.0554  -12.5340   24.1941 C   0  0  0  0  0  0  0  0  0  0  0  0
    6.6436  -13.7660   24.6213 C   0  0  0  0  0  0  0  0  0  0  0  0
    9.7577  -15.9471   22.3084 C   0  0  0  0  0  0  0  0  0  0  0  0
    9.6075  -15.6568   21.1102 O   0  0  0  0  0  0  0  0  0  0  0  0
   11.0055  -15.8068   22.9491 N   0  0  0  0  0  0  0  0  0  0  0  0
   12.1790  -15.2512   22.3266 C   0  0  0  0  0  0  0  0  0  0  0  0
   13.0113  -16.2740   21.6618 C   0  0  0  0  0  0  0  0  0  0  0  0
   14.0751  -15.9578   21.1225 O   0  0  0  0  0  0  0  0  0  0  0  0
   12.5860  -17.5850   21.6496 O   0  0  0  0  0  0  0  0  0  0  0  0
  2 13  1  0
  2  1  1  6
  3  2  1  0
  4  3  1  0
  5  4  2  0
  6  5  1  0
  7  6  1  0
  7 12  2  0
  8  7  1  0
  9  8  2  0
  9 10  1  0
 10 11  2  0
 11 12  1  0
 12  4  1  0
 13 14  2  0
 15 16  1  0
 15 13  1  0
 16 17  1  1
 18 17  1  0
 19 18  2  0
 20 19  1  0
 21 20  1  0
 21 26  2  0
 22 21  1  0
 23 22  2  0
 23 24  1  0
 24 25  2  0
 25 26  1  0
 26 18  1  0
 27 28  2  0
 27 16  1  0
 29 27  1  0
 30 29  1  0
 31 30  1  0
 32 31  2  0
 33 31  1  0
M  END
$$$$
