WWG.pdb
     RDKit          3D

 33 36  0  0  1  0  0  0  0  0999 V2000
    7.3053  -18.7215   20.9254 N   0  0  0  0  0  0  0  0  0  0  0  0
    8.1171  -18.9279   22.0910 C   0  0  1  0  0  0  0  0  0  0  0  0
    9.2653  -19.8441   21.7505 C   0  0  0  0  0  0  0  0  0  0  0  0
    8.9180  -21.2605   21.9757 C   0  0  0  0  0  0  0  0  0  0  0  0
    8.2785  -22.1429   21.1654 C   0  0  0  0  0  0  0  0  0  0  0  0
    8.1587  -23.3308   21.7851 N   0  0  0  0  0  0  0  0  0  0  0  0
    8.7232  -23.2117   22.9963 C   0  0  0  0  0  0  0  0  0  0  0  0
    8.8558  -24.1532   24.0224 C   0  0  0  0  0  0  0  0  0  0  0  0
    9.4811  -23.7633   25.1787 C   0  0  0  0  0  0  0  0  0  0  0  0
    9.9697  -22.4822   25.3384 C   0  0  0  0  0  0  0  0  0  0  0  0
    9.8382  -21.5618   24.3310 C   0  0  0  0  0  0  0  0  0  0  0  0
    9.2086  -21.9463   23.1602 C   0  0  0  0  0  0  0  0  0  0  0  0
    8.6836  -17.6573   22.5808 C   0  0  0  0  0  0  0  0  0  0  0  0
    8.8425  -16.6614   21.7875 O   0  0  0  0  0  0  0  0  0  0  0  0
    9.1067  -17.4056   23.9379 N   0  0  0  0  0  0  0  0  0  0  0  0
    9.4851  -16.0770   24.3470 C   0  0  1  0  0  0  0  0  0  0  0  0
    9.0917  -15.6888   25.7090 C   0  0  0  0  0  0  0  0  0  0  0  0
    7.7522  -15.1624   25.9122 C   0  0  0  0  0  0  0  0  0  0  0  0
    6.5929  -15.9424   25.8386 C   0  0  0  0  0  0  0  0  0  0  0  0
    5.5321  -15.1561   26.0404 N   0  0  0  0  0  0  0  0  0  0  0  0
    5.9310  -13.8740   26.2482 C   0  0  0  0  0  0  0  0  0  0  0  0
    5.2183  -12.7271   26.5083 C   0  0  0  0  0  0  0  0  0  0  0  0
    5.8956  -11.5555   26.6956 C   0  0  0  0  0  0  0  0  0  0  0  0
    7.2661  -11.5391   26.6222 C   0  0  0  0  0  0  0  0  0  0  0  0
    7.9519  -12.6929   26.3608 C   0  0  0  0  0  0  0  0  0  0  0  0
    7.3244  -13.8921   26.1655 C   0  0  0  0  0  0  0  0  0  0  0  0
   10.9860  -15.9008   24.1467 C   0  0  0  0  0  0  0  0  0  0  0  0
   11.4878  -14.8256   24.5138 O   0  0  0  0  0  0  0  0  0  0  0  0
   11.7697  -16.9191   23.5671 N   0  0  0  0  0  0  0  0  0  0  0  0
   13.1979  -16.8469   23.3986 C   0  0  0  0  0  0  0  0  0  0  0  0
   13.7616  -18.0615   22.7758 C   0  0  0  0  0  0  0  0  0  0  0  0
   14.3980  -18.8720   23.4544 O   0  0  0  0  0  0  0  0  0  0  0  0
   13.5699  -18.2786   21.4283 O   0  0  0  0  0  0  0  0  0  0  0  0
  2 13  1  0
  2  1  1  6
  3  2  1  0
  4  3  1  0
  5  4  2  0
  6  5  1  0
  7  6  1  0
  7 12  2  0
  8  7  1  0
  9  8  2  0
  9 10  1  0
 10 11  2  0
 11 12  1  0
 12  4  1  0
 13 14  2  0
 15 16  1  0
 15 13  1  0
 16 17  1  1
 18 17  1  0
 19 18  2  0
 20 19  1  0
 21 20  1  0
 21 26  2  0
 22 21  1  0
 23 22  2  0
 23 24  1  0
 24 25  2  0
 25 26  1  0
 26 18  1  0
 27 28  2  0
 27 16  1  0
 29 27  1  0
 30 29  1  0
 31 30  1  0
 32 31  2  0
 33 31  1  0
M  END
$$$$
