WWG.pdb
     RDKit          3D

 33 36  0  0  1  0  0  0  0  0999 V2000
    8.0966  -17.6539   21.5566 N   0  0  0  0  0  0  0  0  0  0  0  0
    8.2817  -16.5504   22.4556 C   0  0  1  0  0  0  0  0  0  0  0  0
    7.1309  -15.5862   22.3147 C   0  0  0  0  0  0  0  0  0  0  0  0
    6.9978  -15.0947   20.9296 C   0  0  0  0  0  0  0  0  0  0  0  0
    6.3070  -15.6124   19.8814 C   0  0  0  0  0  0  0  0  0  0  0  0
    6.4797  -14.8413   18.7928 N   0  0  0  0  0  0  0  0  0  0  0  0
    7.2830  -13.8253   19.1425 C   0  0  0  0  0  0  0  0  0  0  0  0
    7.7667  -12.7580   18.3782 C   0  0  0  0  0  0  0  0  0  0  0  0
    8.5880  -11.8465   18.9903 C   0  0  0  0  0  0  0  0  0  0  0  0
    8.9352  -11.9670   20.3209 C   0  0  0  0  0  0  0  0  0  0  0  0
    8.4596  -13.0140   21.0672 C   0  0  0  0  0  0  0  0  0  0  0  0
    7.6299  -13.9389   20.4580 C   0  0  0  0  0  0  0  0  0  0  0  0
    8.3215  -17.0035   23.8586 C   0  0  0  0  0  0  0  0  0  0  0  0
    7.2394  -17.1405   24.5342 O   0  0  0  0  0  0  0  0  0  0  0  0
    9.5221  -17.3227   24.5940 N   0  0  0  0  0  0  0  0  0  0  0  0
   10.1670  -16.3204   25.4036 C   0  0  1  0  0  0  0  0  0  0  0  0
    9.4107  -15.8593   26.5766 C   0  0  0  0  0  0  0  0  0  0  0  0
    8.1376  -15.1943   26.3538 C   0  0  0  0  0  0  0  0  0  0  0  0
    6.9261  -15.8742   26.1873 C   0  0  0  0  0  0  0  0  0  0  0  0
    5.9575  -14.9801   25.9709 N   0  0  0  0  0  0  0  0  0  0  0  0
    6.4689  -13.7214   25.9856 C   0  0  0  0  0  0  0  0  0  0  0  0
    5.8732  -12.4922   25.8266 C   0  0  0  0  0  0  0  0  0  0  0  0
    6.6446  -11.3677   25.9084 C   0  0  0  0  0  0  0  0  0  0  0  0
    7.9919  -11.4789   26.1458 C   0  0  0  0  0  0  0  0  0  0  0  0
    8.5609  -12.7129   26.2988 C   0  0  0  0  0  0  0  0  0  0  0  0
    7.8358  -13.8701   26.2267 C   0  0  0  0  0  0  0  0  0  0  0  0
   11.5476  -16.8208   25.8127 C   0  0  0  0  0  0  0  0  0  0  0  0
   12.2356  -16.0742   26.5282 O   0  0  0  0  0  0  0  0  0  0  0  0
   12.0214  -18.0804   25.3935 N   0  0  0  0  0  0  0  0  0  0  0  0
   12.5190  -18.3611   24.0718 C   0  0  0  0  0  0  0  0  0  0  0  0
   13.8450  -17.7612   23.8214 C   0  0  0  0  0  0  0  0  0  0  0  0
   14.7680  -18.4511   23.3802 O   0  0  0  0  0  0  0  0  0  0  0  0
   14.0400  -16.4229   24.0871 O   0  0  0  0  0  0  0  0  0  0  0  0
  2 13  1  0
  2  1  1  6
  3  2  1  0
  4  3  1  0
  5  4  2  0
  6  5  1  0
  7  6  1  0
  7 12  2  0
  8  7  1  0
  9  8  2  0
  9 10  1  0
 10 11  2  0
 11 12  1  0
 12  4  1  0
 13 14  2  0
 15 16  1  0
 15 13  1  0
 16 17  1  1
 18 17  1  0
 19 18  2  0
 20 19  1  0
 21 20  1  0
 21 26  2  0
 22 21  1  0
 23 22  2  0
 23 24  1  0
 24 25  2  0
 25 26  1  0
 26 18  1  0
 27 28  2  0
 27 16  1  0
 29 27  1  0
 30 29  1  0
 31 30  1  0
 32 31  2  0
 33 31  1  0
M  END
$$$$
