WWG.pdb
     RDKit          3D

 33 36  0  0  1  0  0  0  0  0999 V2000
    6.8649  -19.0483   21.4971 N   0  0  0  0  0  0  0  0  0  0  0  0
    8.1126  -19.0271   22.2064 C   0  0  1  0  0  0  0  0  0  0  0  0
    9.2090  -19.5525   21.3146 C   0  0  0  0  0  0  0  0  0  0  0  0
    8.9731  -20.9576   20.9302 C   0  0  0  0  0  0  0  0  0  0  0  0
    8.7862  -21.5082   19.7030 C   0  0  0  0  0  0  0  0  0  0  0  0
    8.5877  -22.8334   19.8205 N   0  0  0  0  0  0  0  0  0  0  0  0
    8.6477  -23.1352   21.1263 C   0  0  0  0  0  0  0  0  0  0  0  0
    8.5030  -24.3682   21.7712 C   0  0  0  0  0  0  0  0  0  0  0  0
    8.6074  -24.3973   23.1381 C   0  0  0  0  0  0  0  0  0  0  0  0
    8.8479  -23.2508   23.8682 C   0  0  0  0  0  0  0  0  0  0  0  0
    8.9892  -22.0440   23.2334 C   0  0  0  0  0  0  0  0  0  0  0  0
    8.8855  -22.0048   21.8540 C   0  0  0  0  0  0  0  0  0  0  0  0
    8.4765  -17.6556   22.6089 C   0  0  0  0  0  0  0  0  0  0  0  0
    8.3924  -16.6837   21.7755 O   0  0  0  0  0  0  0  0  0  0  0  0
    8.9495  -17.2728   23.9180 N   0  0  0  0  0  0  0  0  0  0  0  0
    9.3583  -15.9154   24.1751 C   0  0  1  0  0  0  0  0  0  0  0  0
    9.0644  -15.4008   25.5202 C   0  0  0  0  0  0  0  0  0  0  0  0
    7.7292  -14.8898   25.7824 C   0  0  0  0  0  0  0  0  0  0  0  0
    6.5916  -15.7000   25.8678 C   0  0  0  0  0  0  0  0  0  0  0  0
    5.5262  -14.9239   26.0843 N   0  0  0  0  0  0  0  0  0  0  0  0
    5.9012  -13.6195   26.1490 C   0  0  0  0  0  0  0  0  0  0  0  0
    5.1764  -12.4710   26.3647 C   0  0  0  0  0  0  0  0  0  0  0  0
    5.8305  -11.2721   26.3966 C   0  0  0  0  0  0  0  0  0  0  0  0
    7.1902  -11.2304   26.2142 C   0  0  0  0  0  0  0  0  0  0  0  0
    7.8883  -12.3864   25.9997 C   0  0  0  0  0  0  0  0  0  0  0  0
    7.2841  -13.6124   25.9584 C   0  0  0  0  0  0  0  0  0  0  0  0
   10.8412  -15.7705   23.8528 C   0  0  0  0  0  0  0  0  0  0  0  0
   11.3431  -14.6407   23.9731 O   0  0  0  0  0  0  0  0  0  0  0  0
   11.6089  -16.8763   23.4346 N   0  0  0  0  0  0  0  0  0  0  0  0
   12.9859  -16.7980   23.0210 C   0  0  0  0  0  0  0  0  0  0  0  0
   13.9115  -16.5917   24.1530 C   0  0  0  0  0  0  0  0  0  0  0  0
   13.4837  -16.5593   25.3099 O   0  0  0  0  0  0  0  0  0  0  0  0
   15.2577  -16.4348   23.9026 O   0  0  0  0  0  0  0  0  0  0  0  0
  2 13  1  0
  2  1  1  6
  3  2  1  0
  4  3  1  0
  5  4  2  0
  6  5  1  0
  7  6  1  0
  7 12  2  0
  8  7  1  0
  9  8  2  0
  9 10  1  0
 10 11  2  0
 11 12  1  0
 12  4  1  0
 13 14  2  0
 15 16  1  0
 15 13  1  0
 16 17  1  1
 18 17  1  0
 19 18  2  0
 20 19  1  0
 21 20  1  0
 21 26  2  0
 22 21  1  0
 23 22  2  0
 23 24  1  0
 24 25  2  0
 25 26  1  0
 26 18  1  0
 27 28  2  0
 27 16  1  0
 29 27  1  0
 30 29  1  0
 31 30  1  0
 32 31  2  0
 33 31  1  0
M  END
$$$$
