WWG.pdb
     RDKit          3D

 33 36  0  0  1  0  0  0  0  0999 V2000
    7.6781  -18.1920   26.5767 N   0  0  0  0  0  0  0  0  0  0  0  0
    8.0304  -17.0996   25.7147 C   0  0  1  0  0  0  0  0  0  0  0  0
    9.0184  -16.2019   26.4159 C   0  0  0  0  0  0  0  0  0  0  0  0
    8.3512  -15.0522   27.0567 C   0  0  0  0  0  0  0  0  0  0  0  0
    8.2739  -14.7062   28.3676 C   0  0  0  0  0  0  0  0  0  0  0  0
    7.5466  -13.5827   28.5031 N   0  0  0  0  0  0  0  0  0  0  0  0
    7.1561  -13.2056   27.2763 C   0  0  0  0  0  0  0  0  0  0  0  0
    6.3816  -12.1113   26.8766 C   0  0  0  0  0  0  0  0  0  0  0  0
    6.1226  -11.9588   25.5388 C   0  0  0  0  0  0  0  0  0  0  0  0
    6.6058  -12.8517   24.6036 C   0  0  0  0  0  0  0  0  0  0  0  0
    7.3644  -13.9231   24.9984 C   0  0  0  0  0  0  0  0  0  0  0  0
    7.6311  -14.0852   26.3466 C   0  0  0  0  0  0  0  0  0  0  0  0
    8.6611  -17.5807   24.4713 C   0  0  0  0  0  0  0  0  0  0  0  0
    9.2824  -18.7029   24.4430 O   0  0  0  0  0  0  0  0  0  0  0  0
    8.6553  -16.8761   23.2113 N   0  0  0  0  0  0  0  0  0  0  0  0
    9.2920  -17.4510   22.0537 C   0  0  1  0  0  0  0  0  0  0  0  0
    8.7256  -17.0668   20.7530 C   0  0  0  0  0  0  0  0  0  0  0  0
    7.9488  -15.8406   20.6784 C   0  0  0  0  0  0  0  0  0  0  0  0
    6.5874  -15.7646   20.9923 C   0  0  0  0  0  0  0  0  0  0  0  0
    6.1689  -14.5122   20.7905 N   0  0  0  0  0  0  0  0  0  0  0  0
    7.1967  -13.7388   20.3525 C   0  0  0  0  0  0  0  0  0  0  0  0
    7.2604  -12.4042   20.0270 C   0  0  0  0  0  0  0  0  0  0  0  0
    8.4550  -11.8779   19.6242 C   0  0  0  0  0  0  0  0  0  0  0  0
    9.5655  -12.6811   19.5502 C   0  0  0  0  0  0  0  0  0  0  0  0
    9.4759  -14.0057   19.8778 C   0  0  0  0  0  0  0  0  0  0  0  0
    8.3060  -14.5836   20.2870 C   0  0  0  0  0  0  0  0  0  0  0  0
   10.7855  -17.1497   22.1035 C   0  0  0  0  0  0  0  0  0  0  0  0
   11.1240  -15.9918   22.3994 O   0  0  0  0  0  0  0  0  0  0  0  0
   11.7413  -18.1473   21.8237 N   0  0  0  0  0  0  0  0  0  0  0  0
   13.1658  -17.9447   21.8809 C   0  0  0  0  0  0  0  0  0  0  0  0
   13.7176  -17.4096   20.6199 C   0  0  0  0  0  0  0  0  0  0  0  0
   12.9845  -17.2362   19.6427 O   0  0  0  0  0  0  0  0  0  0  0  0
   15.0603  -17.1074   20.5468 O   0  0  0  0  0  0  0  0  0  0  0  0
  2 13  1  0
  2  1  1  1
  3  2  1  0
  4  3  1  0
  5  4  2  0
  6  5  1  0
  7  6  1  0
  7 12  2  0
  8  7  1  0
  9  8  2  0
  9 10  1  0
 10 11  2  0
 11 12  1  0
 12  4  1  0
 13 14  2  0
 15 16  1  0
 15 13  1  0
 16 17  1  6
 18 17  1  0
 19 18  2  0
 20 19  1  0
 21 20  1  0
 21 26  2  0
 22 21  1  0
 23 22  2  0
 23 24  1  0
 24 25  2  0
 25 26  1  0
 26 18  1  0
 27 28  2  0
 27 16  1  0
 29 27  1  0
 30 29  1  0
 31 30  1  0
 32 31  2  0
 33 31  1  0
M  END
$$$$
