WWG.pdb
     RDKit          3D

 33 36  0  0  1  0  0  0  0  0999 V2000
    9.5028  -20.1737   26.3118 N   0  0  0  0  0  0  0  0  0  0  0  0
    9.5469  -18.7390   26.3079 C   0  0  1  0  0  0  0  0  0  0  0  0
   10.8562  -18.2728   26.8926 C   0  0  0  0  0  0  0  0  0  0  0  0
   10.6633  -17.5905   28.1868 C   0  0  0  0  0  0  0  0  0  0  0  0
   10.9200  -18.0216   29.4487 C   0  0  0  0  0  0  0  0  0  0  0  0
   10.5734  -17.0726   30.3368 N   0  0  0  0  0  0  0  0  0  0  0  0
   10.0934  -16.0289   29.6439 C   0  0  0  0  0  0  0  0  0  0  0  0
    9.5991  -14.8008   30.0963 C   0  0  0  0  0  0  0  0  0  0  0  0
    9.1605  -13.8984   29.1617 C   0  0  0  0  0  0  0  0  0  0  0  0
    9.1998  -14.1811   27.8112 C   0  0  0  0  0  0  0  0  0  0  0  0
    9.6846  -15.3855   27.3710 C   0  0  0  0  0  0  0  0  0  0  0  0
   10.1297  -16.3026   28.3069 C   0  0  0  0  0  0  0  0  0  0  0  0
    9.4489  -18.2040   24.9369 C   0  0  0  0  0  0  0  0  0  0  0  0
    9.5073  -18.9868   23.9220 O   0  0  0  0  0  0  0  0  0  0  0  0
    9.2898  -16.8094   24.5996 N   0  0  0  0  0  0  0  0  0  0  0  0
    9.0139  -16.4167   23.2411 C   0  0  1  0  0  0  0  0  0  0  0  0
    7.9225  -15.4486   23.0623 C   0  0  0  0  0  0  0  0  0  0  0  0
    7.3643  -14.8178   24.2468 C   0  0  0  0  0  0  0  0  0  0  0  0
    6.5954  -15.4973   25.1980 C   0  0  0  0  0  0  0  0  0  0  0  0
    6.2111  -14.6306   26.1390 N   0  0  0  0  0  0  0  0  0  0  0  0
    6.6919  -13.3909   25.8596 C   0  0  0  0  0  0  0  0  0  0  0  0
    6.5764  -12.1950   26.5286 C   0  0  0  0  0  0  0  0  0  0  0  0
    7.1910  -11.0879   26.0155 C   0  0  0  0  0  0  0  0  0  0  0  0
    7.9089  -11.1835   24.8496 C   0  0  0  0  0  0  0  0  0  0  0  0
    8.0075  -12.3839   24.2023 C   0  0  0  0  0  0  0  0  0  0  0  0
    7.4128  -13.5224   24.6715 C   0  0  0  0  0  0  0  0  0  0  0  0
   10.2986  -15.9085   22.5970 C   0  0  0  0  0  0  0  0  0  0  0  0
   11.1118  -15.3235   23.3314 O   0  0  0  0  0  0  0  0  0  0  0  0
   10.5502  -16.0960   21.2228 N   0  0  0  0  0  0  0  0  0  0  0  0
   11.6935  -15.5643   20.5274 C   0  0  0  0  0  0  0  0  0  0  0  0
   12.7682  -16.5613   20.3494 C   0  0  0  0  0  0  0  0  0  0  0  0
   13.2594  -17.1297   21.3282 O   0  0  0  0  0  0  0  0  0  0  0  0
   13.2169  -16.8486   19.0783 O   0  0  0  0  0  0  0  0  0  0  0  0
  2 13  1  0
  2  1  1  6
  3  2  1  0
  4  3  1  0
  5  4  2  0
  6  5  1  0
  7  6  1  0
  7 12  2  0
  8  7  1  0
  9  8  2  0
  9 10  1  0
 10 11  2  0
 11 12  1  0
 12  4  1  0
 13 14  2  0
 15 16  1  0
 15 13  1  0
 16 17  1  1
 18 17  1  0
 19 18  2  0
 20 19  1  0
 21 20  1  0
 21 26  2  0
 22 21  1  0
 23 22  2  0
 23 24  1  0
 24 25  2  0
 25 26  1  0
 26 18  1  0
 27 28  2  0
 27 16  1  0
 29 27  1  0
 30 29  1  0
 31 30  1  0
 32 31  2  0
 33 31  1  0
M  END
$$$$
