WWG.pdb
     RDKit          3D

 33 36  0  0  1  0  0  0  0  0999 V2000
    6.6698  -18.8113   24.6690 N   0  0  0  0  0  0  0  0  0  0  0  0
    7.1273  -17.4531   24.5902 C   0  0  1  0  0  0  0  0  0  0  0  0
    7.3220  -16.9047   25.9813 C   0  0  0  0  0  0  0  0  0  0  0  0
    6.6646  -15.5941   26.1477 C   0  0  0  0  0  0  0  0  0  0  0  0
    5.3465  -15.2684   26.1240 C   0  0  0  0  0  0  0  0  0  0  0  0
    5.1982  -13.9435   26.3033 N   0  0  0  0  0  0  0  0  0  0  0  0
    6.4240  -13.4166   26.4432 C   0  0  0  0  0  0  0  0  0  0  0  0
    6.8134  -12.0886   26.6475 C   0  0  0  0  0  0  0  0  0  0  0  0
    8.1534  -11.8183   26.7536 C   0  0  0  0  0  0  0  0  0  0  0  0
    9.1008  -12.8182   26.6632 C   0  0  0  0  0  0  0  0  0  0  0  0
    8.7161  -14.1187   26.4629 C   0  0  0  0  0  0  0  0  0  0  0  0
    7.3658  -14.4011   26.3546 C   0  0  0  0  0  0  0  0  0  0  0  0
    8.4195  -17.3634   23.8848 C   0  0  0  0  0  0  0  0  0  0  0  0
    8.8446  -18.3394   23.1686 O   0  0  0  0  0  0  0  0  0  0  0  0
    9.3088  -16.2269   23.9232 N   0  0  0  0  0  0  0  0  0  0  0  0
   10.2257  -15.9841   22.8387 C   0  0  1  0  0  0  0  0  0  0  0  0
   10.1744  -14.6410   22.2439 C   0  0  0  0  0  0  0  0  0  0  0  0
    8.9726  -14.2556   21.5229 C   0  0  0  0  0  0  0  0  0  0  0  0
    7.7107  -14.1520   22.1183 C   0  0  0  0  0  0  0  0  0  0  0  0
    6.8204  -13.8114   21.1825 N   0  0  0  0  0  0  0  0  0  0  0  0
    7.4335  -13.6804   19.9771 C   0  0  0  0  0  0  0  0  0  0  0  0
    6.9464  -13.3370   18.7378 C   0  0  0  0  0  0  0  0  0  0  0  0
    7.8122  -13.2645   17.6835 C   0  0  0  0  0  0  0  0  0  0  0  0
    9.1446  -13.5333   17.8737 C   0  0  0  0  0  0  0  0  0  0  0  0
    9.6041  -13.8742   19.1156 C   0  0  0  0  0  0  0  0  0  0  0  0
    8.7818  -13.9613   20.2047 C   0  0  0  0  0  0  0  0  0  0  0  0
   11.6407  -16.3194   23.2959 C   0  0  0  0  0  0  0  0  0  0  0  0
   11.9222  -16.1010   24.4858 O   0  0  0  0  0  0  0  0  0  0  0  0
   12.5894  -16.8551   22.4014 N   0  0  0  0  0  0  0  0  0  0  0  0
   12.4646  -18.1377   21.7589 C   0  0  0  0  0  0  0  0  0  0  0  0
   13.5677  -18.4143   20.8169 C   0  0  0  0  0  0  0  0  0  0  0  0
   14.5040  -17.6188   20.7027 O   0  0  0  0  0  0  0  0  0  0  0  0
   13.5389  -19.5699   20.0663 O   0  0  0  0  0  0  0  0  0  0  0  0
  2 13  1  0
  2  1  1  1
  3  2  1  0
  4  3  1  0
  5  4  2  0
  6  5  1  0
  7  6  1  0
  7 12  2  0
  8  7  1  0
  9  8  2  0
  9 10  1  0
 10 11  2  0
 11 12  1  0
 12  4  1  0
 13 14  2  0
 15 16  1  0
 15 13  1  0
 16 17  1  1
 18 17  1  0
 19 18  2  0
 20 19  1  0
 21 20  1  0
 21 26  2  0
 22 21  1  0
 23 22  2  0
 23 24  1  0
 24 25  2  0
 25 26  1  0
 26 18  1  0
 27 28  2  0
 27 16  1  0
 29 27  1  0
 30 29  1  0
 31 30  1  0
 32 31  2  0
 33 31  1  0
M  END
$$$$
