WWG.pdb
     RDKit          3D

 33 36  0  0  1  0  0  0  0  0999 V2000
    8.2449  -19.9060   26.9661 N   0  0  0  0  0  0  0  0  0  0  0  0
    8.4981  -18.5103   26.7469 C   0  0  1  0  0  0  0  0  0  0  0  0
    9.9515  -18.2127   27.0167 C   0  0  0  0  0  0  0  0  0  0  0  0
   10.1148  -17.2514   28.1244 C   0  0  0  0  0  0  0  0  0  0  0  0
   10.5109  -17.4555   29.4072 C   0  0  0  0  0  0  0  0  0  0  0  0
   10.5005  -16.2913   30.0810 N   0  0  0  0  0  0  0  0  0  0  0  0
   10.0973  -15.3367   29.2289 C   0  0  0  0  0  0  0  0  0  0  0  0
    9.9160  -13.9651   29.4364 C   0  0  0  0  0  0  0  0  0  0  0  0
    9.4850  -13.2044   28.3801 C   0  0  0  0  0  0  0  0  0  0  0  0
    9.2336  -13.7633   27.1432 C   0  0  0  0  0  0  0  0  0  0  0  0
    9.4121  -15.1077   26.9430 C   0  0  0  0  0  0  0  0  0  0  0  0
    9.8470  -15.8835   28.0032 C   0  0  0  0  0  0  0  0  0  0  0  0
    8.2103  -18.1264   25.3522 C   0  0  0  0  0  0  0  0  0  0  0  0
    8.3201  -18.9806   24.4011 O   0  0  0  0  0  0  0  0  0  0  0  0
    7.7986  -16.8115   24.9214 N   0  0  0  0  0  0  0  0  0  0  0  0
    7.5192  -16.5561   23.5312 C   0  0  1  0  0  0  0  0  0  0  0  0
    6.9037  -15.2561   23.2290 C   0  0  0  0  0  0  0  0  0  0  0  0
    6.7425  -14.8813   21.8340 C   0  0  0  0  0  0  0  0  0  0  0  0
    5.8493  -15.5107   20.9600 C   0  0  0  0  0  0  0  0  0  0  0  0
    5.9673  -14.9552   19.7509 N   0  0  0  0  0  0  0  0  0  0  0  0
    6.9064  -13.9735   19.7752 C   0  0  0  0  0  0  0  0  0  0  0  0
    7.3633  -13.1230   18.7959 C   0  0  0  0  0  0  0  0  0  0  0  0
    8.3219  -12.2028   19.1133 C   0  0  0  0  0  0  0  0  0  0  0  0
    8.8117  -12.1403   20.3940 C   0  0  0  0  0  0  0  0  0  0  0  0
    8.3421  -12.9982   21.3496 C   0  0  0  0  0  0  0  0  0  0  0  0
    7.3839  -13.9376   21.0864 C   0  0  0  0  0  0  0  0  0  0  0  0
    8.7954  -16.7518   22.7208 C   0  0  0  0  0  0  0  0  0  0  0  0
    8.6710  -17.1245   21.5425 O   0  0  0  0  0  0  0  0  0  0  0  0
   10.0641  -16.5189   23.2891 N   0  0  0  0  0  0  0  0  0  0  0  0
   11.3083  -16.6445   22.5751 C   0  0  0  0  0  0  0  0  0  0  0  0
   12.4752  -16.2422   23.3859 C   0  0  0  0  0  0  0  0  0  0  0  0
   12.3827  -16.1602   24.6135 O   0  0  0  0  0  0  0  0  0  0  0  0
   13.6677  -15.9584   22.7558 O   0  0  0  0  0  0  0  0  0  0  0  0
  2 13  1  0
  2  1  1  6
  3  2  1  0
  4  3  1  0
  5  4  2  0
  6  5  1  0
  7  6  1  0
  7 12  2  0
  8  7  1  0
  9  8  2  0
  9 10  1  0
 10 11  2  0
 11 12  1  0
 12  4  1  0
 13 14  2  0
 15 16  1  0
 15 13  1  0
 16 17  1  1
 18 17  1  0
 19 18  2  0
 20 19  1  0
 21 20  1  0
 21 26  2  0
 22 21  1  0
 23 22  2  0
 23 24  1  0
 24 25  2  0
 25 26  1  0
 26 18  1  0
 27 28  2  0
 27 16  1  0
 29 27  1  0
 30 29  1  0
 31 30  1  0
 32 31  2  0
 33 31  1  0
M  END
$$$$
