WWG.pdb
     RDKit          3D

 33 36  0  0  1  0  0  0  0  0999 V2000
    8.4973  -19.8716   25.8132 N   0  0  0  0  0  0  0  0  0  0  0  0
    8.2977  -18.4902   25.4782 C   0  0  1  0  0  0  0  0  0  0  0  0
    9.5229  -17.6970   25.8570 C   0  0  0  0  0  0  0  0  0  0  0  0
    9.5297  -17.3568   27.2929 C   0  0  0  0  0  0  0  0  0  0  0  0
    9.8773  -18.1104   28.3678 C   0  0  0  0  0  0  0  0  0  0  0  0
    9.7135  -17.3998   29.4982 N   0  0  0  0  0  0  0  0  0  0  0  0
    9.2601  -16.1865   29.1488 C   0  0  0  0  0  0  0  0  0  0  0  0
    8.9296  -15.0865   29.9474 C   0  0  0  0  0  0  0  0  0  0  0  0
    8.4790  -13.9504   29.3258 C   0  0  0  0  0  0  0  0  0  0  0  0
    8.3504  -13.8812   27.9532 C   0  0  0  0  0  0  0  0  0  0  0  0
    8.6749  -14.9610   27.1733 C   0  0  0  0  0  0  0  0  0  0  0  0
    9.1307  -16.1119   27.7918 C   0  0  0  0  0  0  0  0  0  0  0  0
    8.0778  -18.3168   24.0301 C   0  0  0  0  0  0  0  0  0  0  0  0
    8.5390  -19.1701   23.1901 O   0  0  0  0  0  0  0  0  0  0  0  0
    7.3599  -17.2202   23.4251 N   0  0  0  0  0  0  0  0  0  0  0  0
    8.0715  -16.0669   22.9359 C   0  0  1  0  0  0  0  0  0  0  0  0
    8.7070  -15.2239   23.9586 C   0  0  0  0  0  0  0  0  0  0  0  0
    7.8530  -14.5710   24.9368 C   0  0  0  0  0  0  0  0  0  0  0  0
    7.0017  -15.2611   25.8066 C   0  0  0  0  0  0  0  0  0  0  0  0
    6.3356  -14.3738   26.5505 N   0  0  0  0  0  0  0  0  0  0  0  0
    6.7055  -13.1097   26.2164 C   0  0  0  0  0  0  0  0  0  0  0  0
    6.3139  -11.8851   26.7042 C   0  0  0  0  0  0  0  0  0  0  0  0
    6.8762  -10.7546   26.1825 C   0  0  0  0  0  0  0  0  0  0  0  0
    7.8159  -10.8555   25.1871 C   0  0  0  0  0  0  0  0  0  0  0  0
    8.1873  -12.0850   24.7179 C   0  0  0  0  0  0  0  0  0  0  0  0
    7.6569  -13.2478   25.2043 C   0  0  0  0  0  0  0  0  0  0  0  0
    9.0903  -16.5133   21.8935 C   0  0  0  0  0  0  0  0  0  0  0  0
    8.6504  -16.9659   20.8237 O   0  0  0  0  0  0  0  0  0  0  0  0
   10.4752  -16.4157   22.1375 N   0  0  0  0  0  0  0  0  0  0  0  0
   11.4827  -16.4239   21.1087 C   0  0  0  0  0  0  0  0  0  0  0  0
   12.8229  -16.0717   21.6190 C   0  0  0  0  0  0  0  0  0  0  0  0
   12.9949  -15.8552   22.8215 O   0  0  0  0  0  0  0  0  0  0  0  0
   13.8786  -15.9864   20.7371 O   0  0  0  0  0  0  0  0  0  0  0  0
  2 13  1  0
  2  1  1  6
  3  2  1  0
  4  3  1  0
  5  4  2  0
  6  5  1  0
  7  6  1  0
  7 12  2  0
  8  7  1  0
  9  8  2  0
  9 10  1  0
 10 11  2  0
 11 12  1  0
 12  4  1  0
 13 14  2  0
 15 16  1  0
 15 13  1  0
 16 17  1  1
 18 17  1  0
 19 18  2  0
 20 19  1  0
 21 20  1  0
 21 26  2  0
 22 21  1  0
 23 22  2  0
 23 24  1  0
 24 25  2  0
 25 26  1  0
 26 18  1  0
 27 28  2  0
 27 16  1  0
 29 27  1  0
 30 29  1  0
 31 30  1  0
 32 31  2  0
 33 31  1  0
M  END
$$$$
