WWG.pdb
     RDKit          3D

 33 36  0  0  1  0  0  0  0  0999 V2000
    7.7824  -17.3051   24.1317 N   0  0  0  0  0  0  0  0  0  0  0  0
    8.4032  -16.5638   23.0709 C   0  0  1  0  0  0  0  0  0  0  0  0
    8.4683  -15.1047   23.4458 C   0  0  0  0  0  0  0  0  0  0  0  0
    7.4751  -14.7632   24.4824 C   0  0  0  0  0  0  0  0  0  0  0  0
    6.6560  -15.5684   25.2068 C   0  0  0  0  0  0  0  0  0  0  0  0
    5.8963  -14.8262   26.0323 N   0  0  0  0  0  0  0  0  0  0  0  0
    6.2283  -13.5410   25.8382 C   0  0  0  0  0  0  0  0  0  0  0  0
    5.7296  -12.3827   26.4438 C   0  0  0  0  0  0  0  0  0  0  0  0
    6.2489  -11.1755   26.0524 C   0  0  0  0  0  0  0  0  0  0  0  0
    7.2349  -11.0918   25.0901 C   0  0  0  0  0  0  0  0  0  0  0  0
    7.7215  -12.2286   24.4984 C   0  0  0  0  0  0  0  0  0  0  0  0
    7.2036  -13.4516   24.8870 C   0  0  0  0  0  0  0  0  0  0  0  0
    9.7815  -17.0292   22.8278 C   0  0  0  0  0  0  0  0  0  0  0  0
   10.4153  -16.6771   21.7692 O   0  0  0  0  0  0  0  0  0  0  0  0
   10.5327  -17.8938   23.7066 N   0  0  0  0  0  0  0  0  0  0  0  0
   11.6380  -17.3723   24.4696 C   0  0  1  0  0  0  0  0  0  0  0  0
   11.8897  -18.0248   25.7623 C   0  0  0  0  0  0  0  0  0  0  0  0
   11.1925  -17.5193   26.9331 C   0  0  0  0  0  0  0  0  0  0  0  0
   10.8584  -18.3097   28.0383 C   0  0  0  0  0  0  0  0  0  0  0  0
   10.1992  -17.5560   28.9224 N   0  0  0  0  0  0  0  0  0  0  0  0
   10.0759  -16.2856   28.4565 C   0  0  0  0  0  0  0  0  0  0  0  0
    9.4978  -15.1646   29.0044 C   0  0  0  0  0  0  0  0  0  0  0  0
    9.5369  -13.9914   28.3055 C   0  0  0  0  0  0  0  0  0  0  0  0
   10.1469  -13.9479   27.0767 C   0  0  0  0  0  0  0  0  0  0  0  0
   10.7132  -15.0769   26.5528 C   0  0  0  0  0  0  0  0  0  0  0  0
   10.7028  -16.2764   27.2093 C   0  0  0  0  0  0  0  0  0  0  0  0
   12.8927  -17.3846   23.6040 C   0  0  0  0  0  0  0  0  0  0  0  0
   13.9433  -16.9652   24.1170 O   0  0  0  0  0  0  0  0  0  0  0  0
   12.8584  -17.8533   22.2750 N   0  0  0  0  0  0  0  0  0  0  0  0
   14.0259  -18.0662   21.4595 C   0  0  0  0  0  0  0  0  0  0  0  0
   14.3373  -16.9102   20.5951 C   0  0  0  0  0  0  0  0  0  0  0  0
   13.5262  -15.9888   20.4703 O   0  0  0  0  0  0  0  0  0  0  0  0
   15.5431  -16.8728   19.9286 O   0  0  0  0  0  0  0  0  0  0  0  0
  2 13  1  0
  2  1  1  1
  3  2  1  0
  4  3  1  0
  5  4  2  0
  6  5  1  0
  7  6  1  0
  7 12  2  0
  8  7  1  0
  9  8  2  0
  9 10  1  0
 10 11  2  0
 11 12  1  0
 12  4  1  0
 13 14  2  0
 15 16  1  0
 15 13  1  0
 16 17  1  1
 18 17  1  0
 19 18  2  0
 20 19  1  0
 21 20  1  0
 21 26  2  0
 22 21  1  0
 23 22  2  0
 23 24  1  0
 24 25  2  0
 25 26  1  0
 26 18  1  0
 27 28  2  0
 27 16  1  0
 29 27  1  0
 30 29  1  0
 31 30  1  0
 32 31  2  0
 33 31  1  0
M  END
$$$$
