YKY.pdb
     RDKit          3D

 34 35  0  0  1  0  0  0  0  0999 V2000
    7.5219  -13.0781   16.1964 O   0  0  0  0  0  0  0  0  0  0  0  0
    7.4182  -13.5569   17.4841 C   0  0  0  0  0  0  0  0  0  0  0  0
    7.9434  -12.8169   18.5148 C   0  0  0  0  0  0  0  0  0  0  0  0
    7.8742  -13.2383   19.8302 C   0  0  0  0  0  0  0  0  0  0  0  0
    7.2591  -14.4375   20.1124 C   0  0  0  0  0  0  0  0  0  0  0  0
    7.1574  -14.9371   21.5094 C   0  0  0  0  0  0  0  0  0  0  0  0
    8.4737  -15.5277   21.9965 C   0  0  2  0  0  0  0  0  0  0  0  0
    8.9456  -16.5132   21.0738 N   0  0  0  0  0  0  0  0  0  0  0  0
    8.2098  -16.0803   23.3506 C   0  0  0  0  0  0  0  0  0  0  0  0
    7.6351  -15.3234   24.1737 O   0  0  0  0  0  0  0  0  0  0  0  0
    6.7279  -15.1944   19.1073 C   0  0  0  0  0  0  0  0  0  0  0  0
    6.8090  -14.7496   17.7862 C   0  0  0  0  0  0  0  0  0  0  0  0
    8.5782  -17.3939   23.7218 N   0  0  0  0  0  0  0  0  0  0  0  0
    8.3710  -17.8699   25.0538 C   0  0  1  0  0  0  0  0  0  0  0  0
    8.5408  -19.3457   25.2100 C   0  0  0  0  0  0  0  0  0  0  0  0
    7.2317  -19.9893   25.5611 C   0  0  0  0  0  0  0  0  0  0  0  0
    7.3292  -21.4833   25.6620 C   0  0  0  0  0  0  0  0  0  0  0  0
    5.9862  -22.1363   25.8767 C   0  0  0  0  0  0  0  0  0  0  0  0
    6.1811  -23.5787   25.7810 N   0  0  0  0  0  0  0  0  0  0  0  0
    9.2649  -17.1607   26.0383 C   0  0  0  0  0  0  0  0  0  0  0  0
   10.4833  -17.1083   25.7272 O   0  0  0  0  0  0  0  0  0  0  0  0
    6.7445  -11.5358   24.7758 O   0  0  0  0  0  0  0  0  0  0  0  0
    7.2621  -12.3328   25.7782 C   0  0  0  0  0  0  0  0  0  0  0  0
    8.6349  -12.3281   25.9928 C   0  0  0  0  0  0  0  0  0  0  0  0
    9.1646  -13.1302   27.0031 C   0  0  0  0  0  0  0  0  0  0  0  0
    8.3764  -13.9301   27.7995 C   0  0  0  0  0  0  0  0  0  0  0  0
    9.0017  -14.7762   28.8212 C   0  0  0  0  0  0  0  0  0  0  0  0
    9.6610  -15.9683   28.1725 C   0  0  2  0  0  0  0  0  0  0  0  0
    8.7344  -16.5997   27.2290 N   0  0  0  0  0  0  0  0  0  0  0  0
   10.0892  -16.9169   29.2071 C   0  0  0  0  0  0  0  0  0  0  0  0
    9.5575  -18.0300   29.3217 O   0  0  0  0  0  0  0  0  0  0  0  0
    7.0208  -13.9221   27.5726 C   0  0  0  0  0  0  0  0  0  0  0  0
    6.4710  -13.1375   26.5794 C   0  0  0  0  0  0  0  0  0  0  0  0
   11.1070  -16.5611   30.0719 O   0  0  0  0  0  0  0  0  0  0  0  0
  2 12  2  0
  2  1  1  0
  3  2  1  0
  4  5  1  0
  4  3  2  0
  5 11  2  0
  6  5  1  0
  7  9  1  0
  7  6  1  0
  7  8  1  6
  9 13  1  0
 10  9  2  0
 11 12  1  0
 13 14  1  0
 14 20  1  0
 14 15  1  6
 16 17  1  0
 16 15  1  0
 18 17  1  0
 19 18  1  0
 20 21  2  0
 20 29  1  0
 23 22  1  0
 23 24  2  0
 24 25  1  0
 26 25  2  0
 27 26  1  0
 28 27  1  1
 28 30  1  0
 29 28  1  0
 30 31  2  0
 30 34  1  0
 32 26  1  0
 33 32  2  0
 33 23  1  0
M  END
$$$$
