YKY.pdb
     RDKit          3D

 34 35  0  0  1  0  0  0  0  0999 V2000
   17.7762  -27.2161   10.1343 O   0  0  0  0  0  0  0  0  0  0  0  0
   17.2706  -26.3731   11.0997 C   0  0  0  0  0  0  0  0  0  0  0  0
   18.0130  -25.2861   11.4909 C   0  0  0  0  0  0  0  0  0  0  0  0
   17.5657  -24.4002   12.4541 C   0  0  0  0  0  0  0  0  0  0  0  0
   16.3374  -24.6172   13.0374 C   0  0  0  0  0  0  0  0  0  0  0  0
   15.8090  -23.6956   14.0780 C   0  0  0  0  0  0  0  0  0  0  0  0
   14.4574  -23.1144   13.6857 C   0  0  2  0  0  0  0  0  0  0  0  0
   14.6099  -22.1949   12.6010 N   0  0  0  0  0  0  0  0  0  0  0  0
   13.9023  -22.4802   14.9098 C   0  0  0  0  0  0  0  0  0  0  0  0
   14.1626  -21.2636   15.0902 O   0  0  0  0  0  0  0  0  0  0  0  0
   15.5774  -25.6902   12.6679 C   0  0  0  0  0  0  0  0  0  0  0  0
   16.0487  -26.5720   11.6932 C   0  0  0  0  0  0  0  0  0  0  0  0
   13.1146  -23.1905   15.8447 N   0  0  0  0  0  0  0  0  0  0  0  0
   12.5779  -22.5427   17.0006 C   0  0  1  0  0  0  0  0  0  0  0  0
   11.1191  -22.7820   17.2148 C   0  0  0  0  0  0  0  0  0  0  0  0
   10.3507  -22.4905   15.9594 C   0  0  0  0  0  0  0  0  0  0  0  0
    8.8761  -22.7207   16.1162 C   0  0  0  0  0  0  0  0  0  0  0  0
    8.1052  -22.4010   14.8594 C   0  0  0  0  0  0  0  0  0  0  0  0
    6.7044  -22.7193   15.1129 N   0  0  0  0  0  0  0  0  0  0  0  0
   13.3320  -22.9262   18.2478 C   0  0  0  0  0  0  0  0  0  0  0  0
   13.6603  -24.1381   18.3340 O   0  0  0  0  0  0  0  0  0  0  0  0
   19.4762  -23.3621   16.9977 O   0  0  0  0  0  0  0  0  0  0  0  0
   18.5134  -22.9081   17.8779 C   0  0  0  0  0  0  0  0  0  0  0  0
   18.4551  -23.4659   19.1492 C   0  0  0  0  0  0  0  0  0  0  0  0
   17.4858  -23.0124   20.0433 C   0  0  0  0  0  0  0  0  0  0  0  0
   16.5805  -22.0290   19.7136 C   0  0  0  0  0  0  0  0  0  0  0  0
   15.5640  -21.6231   20.6897 C   0  0  0  0  0  0  0  0  0  0  0  0
   14.2940  -22.4077   20.4702 C   0  0  2  0  0  0  0  0  0  0  0  0
   13.6355  -21.9586   19.2405 N   0  0  0  0  0  0  0  0  0  0  0  0
   13.4105  -22.2481   21.6310 C   0  0  0  0  0  0  0  0  0  0  0  0
   12.3202  -21.6675   21.5369 O   0  0  0  0  0  0  0  0  0  0  0  0
   16.6530  -21.4891   18.4517 C   0  0  0  0  0  0  0  0  0  0  0  0
   17.6026  -21.9198   17.5478 C   0  0  0  0  0  0  0  0  0  0  0  0
   13.8031  -22.7561   22.8551 O   0  0  0  0  0  0  0  0  0  0  0  0
  2 12  2  0
  2  1  1  0
  3  2  1  0
  4  5  1  0
  4  3  2  0
  5 11  2  0
  6  5  1  0
  7  9  1  0
  7  6  1  0
  7  8  1  6
  9 13  1  0
 10  9  2  0
 11 12  1  0
 13 14  1  0
 14 20  1  0
 14 15  1  1
 16 17  1  0
 16 15  1  0
 18 17  1  0
 19 18  1  0
 20 21  2  0
 20 29  1  0
 23 22  1  0
 23 24  2  0
 24 25  1  0
 26 25  2  0
 27 26  1  0
 28 27  1  1
 28 30  1  0
 29 28  1  0
 30 31  2  0
 30 34  1  0
 32 26  1  0
 33 32  2  0
 33 23  1  0
M  END
$$$$
