YKY.pdb
     RDKit          3D

 34 35  0  0  1  0  0  0  0  0999 V2000
   15.1396  -15.7220   18.1680 O   0  0  0  0  0  0  0  0  0  0  0  0
   13.9478  -15.0765   18.4148 C   0  0  0  0  0  0  0  0  0  0  0  0
   12.7971  -15.5586   17.8410 C   0  0  0  0  0  0  0  0  0  0  0  0
   11.5677  -14.9593   18.0466 C   0  0  0  0  0  0  0  0  0  0  0  0
   11.4982  -13.8448   18.8521 C   0  0  0  0  0  0  0  0  0  0  0  0
   10.2018  -13.1619   19.1063 C   0  0  0  0  0  0  0  0  0  0  0  0
    9.0309  -13.9297   18.5077 C   0  0  2  0  0  0  0  0  0  0  0  0
    8.1850  -13.0448   17.7683 N   0  0  0  0  0  0  0  0  0  0  0  0
    8.3329  -14.5837   19.6452 C   0  0  0  0  0  0  0  0  0  0  0  0
    7.5260  -13.8775   20.3015 O   0  0  0  0  0  0  0  0  0  0  0  0
   12.6265  -13.3432   19.4359 C   0  0  0  0  0  0  0  0  0  0  0  0
   13.8573  -13.9642   19.2146 C   0  0  0  0  0  0  0  0  0  0  0  0
    8.5487  -15.9367   19.9942 N   0  0  0  0  0  0  0  0  0  0  0  0
    7.9081  -16.5161   21.1334 C   0  0  1  0  0  0  0  0  0  0  0  0
    7.6591  -17.9842   21.0151 C   0  0  0  0  0  0  0  0  0  0  0  0
    6.7668  -18.2714   19.8435 C   0  0  0  0  0  0  0  0  0  0  0  0
    6.4622  -19.7329   19.6919 C   0  0  0  0  0  0  0  0  0  0  0  0
    5.6529  -20.0284   18.4535 C   0  0  0  0  0  0  0  0  0  0  0  0
    5.5383  -21.4783   18.3417 N   0  0  0  0  0  0  0  0  0  0  0  0
    8.6808  -16.2442   22.3984 C   0  0  0  0  0  0  0  0  0  0  0  0
    9.9340  -16.2848   22.2898 O   0  0  0  0  0  0  0  0  0  0  0  0
   10.9475  -14.6877   30.6578 O   0  0  0  0  0  0  0  0  0  0  0  0
   10.2262  -14.7318   29.4807 C   0  0  0  0  0  0  0  0  0  0  0  0
    9.4822  -15.8702   29.1960 C   0  0  0  0  0  0  0  0  0  0  0  0
    8.7514  -15.9217   28.0095 C   0  0  0  0  0  0  0  0  0  0  0  0
    8.7386  -14.8837   27.1053 C   0  0  0  0  0  0  0  0  0  0  0  0
    7.9764  -15.0171   25.8595 C   0  0  0  0  0  0  0  0  0  0  0  0
    8.8134  -15.7111   24.8132 C   0  0  2  0  0  0  0  0  0  0  0  0
    8.0075  -15.9641   23.6158 N   0  0  0  0  0  0  0  0  0  0  0  0
    9.3498  -16.9616   25.3627 C   0  0  0  0  0  0  0  0  0  0  0  0
    8.6785  -18.0027   25.3719 O   0  0  0  0  0  0  0  0  0  0  0  0
    9.4807  -13.7658   27.4034 C   0  0  0  0  0  0  0  0  0  0  0  0
   10.2126  -13.6891   28.5707 C   0  0  0  0  0  0  0  0  0  0  0  0
   10.6311  -16.9783   25.8810 O   0  0  0  0  0  0  0  0  0  0  0  0
  2 12  2  0
  2  1  1  0
  3  2  1  0
  4  5  1  0
  4  3  2  0
  5 11  2  0
  6  5  1  0
  7  9  1  0
  7  6  1  0
  7  8  1  1
  9 13  1  0
 10  9  2  0
 11 12  1  0
 13 14  1  0
 14 20  1  0
 14 15  1  6
 16 17  1  0
 16 15  1  0
 18 17  1  0
 19 18  1  0
 20 21  2  0
 20 29  1  0
 23 22  1  0
 23 24  2  0
 24 25  1  0
 26 25  2  0
 27 26  1  0
 28 27  1  1
 28 30  1  0
 29 28  1  0
 30 31  2  0
 30 34  1  0
 32 26  1  0
 33 32  2  0
 33 23  1  0
M  END
$$$$
