YKY.pdb
     RDKit          3D

 34 35  0  0  1  0  0  0  0  0999 V2000
    8.7198  -12.0140   17.4361 O   0  0  0  0  0  0  0  0  0  0  0  0
    8.4082  -12.7008   18.5891 C   0  0  0  0  0  0  0  0  0  0  0  0
    7.1378  -12.6023   19.1012 C   0  0  0  0  0  0  0  0  0  0  0  0
    6.7580  -13.2648   20.2543 C   0  0  0  0  0  0  0  0  0  0  0  0
    7.6844  -14.0467   20.9072 C   0  0  0  0  0  0  0  0  0  0  0  0
    7.3284  -14.7804   22.1508 C   0  0  0  0  0  0  0  0  0  0  0  0
    7.2641  -16.2845   21.9218 C   0  0  2  0  0  0  0  0  0  0  0  0
    6.0411  -16.6337   21.2679 N   0  0  0  0  0  0  0  0  0  0  0  0
    7.4089  -16.9187   23.2580 C   0  0  0  0  0  0  0  0  0  0  0  0
    6.4107  -16.8759   24.0211 O   0  0  0  0  0  0  0  0  0  0  0  0
    8.9553  -14.1632   20.4208 C   0  0  0  0  0  0  0  0  0  0  0  0
    9.3172  -13.4854   19.2549 C   0  0  0  0  0  0  0  0  0  0  0  0
    8.6039  -17.5478   23.6765 N   0  0  0  0  0  0  0  0  0  0  0  0
    8.7356  -18.0771   24.9980 C   0  0  1  0  0  0  0  0  0  0  0  0
    9.1126  -19.5217   25.0443 C   0  0  0  0  0  0  0  0  0  0  0  0
    9.2603  -20.0693   23.6552 C   0  0  0  0  0  0  0  0  0  0  0  0
    8.9350  -21.5318   23.5714 C   0  0  0  0  0  0  0  0  0  0  0  0
    9.2117  -22.1073   22.2045 C   0  0  0  0  0  0  0  0  0  0  0  0
    9.0317  -23.5521   22.2938 N   0  0  0  0  0  0  0  0  0  0  0  0
    9.7200  -17.2809   25.8155 C   0  0  0  0  0  0  0  0  0  0  0  0
   10.7993  -16.9911   25.2366 O   0  0  0  0  0  0  0  0  0  0  0  0
    5.7557  -12.1491   25.7741 O   0  0  0  0  0  0  0  0  0  0  0  0
    6.7210  -12.8406   26.4798 C   0  0  0  0  0  0  0  0  0  0  0  0
    6.3497  -13.9884   27.1693 C   0  0  0  0  0  0  0  0  0  0  0  0
    7.3188  -14.6918   27.8838 C   0  0  0  0  0  0  0  0  0  0  0  0
    8.6351  -14.2912   27.9326 C   0  0  0  0  0  0  0  0  0  0  0  0
    9.5966  -15.0576   28.7320 C   0  0  0  0  0  0  0  0  0  0  0  0
   10.3552  -16.0168   27.8482 C   0  0  2  0  0  0  0  0  0  0  0  0
    9.4177  -16.8994   27.1485 N   0  0  0  0  0  0  0  0  0  0  0  0
   11.3021  -16.7896   28.6603 C   0  0  0  0  0  0  0  0  0  0  0  0
   11.1906  -18.0168   28.7885 O   0  0  0  0  0  0  0  0  0  0  0  0
    8.9839  -13.1535   27.2448 C   0  0  0  0  0  0  0  0  0  0  0  0
    8.0445  -12.4390   26.5298 C   0  0  0  0  0  0  0  0  0  0  0  0
   12.3403  -16.1347   29.2957 O   0  0  0  0  0  0  0  0  0  0  0  0
  2 12  2  0
  2  1  1  0
  3  2  1  0
  4  5  1  0
  4  3  2  0
  5 11  2  0
  6  5  1  0
  7  9  1  0
  7  6  1  0
  7  8  1  1
  9 13  1  0
 10  9  2  0
 11 12  1  0
 13 14  1  0
 14 20  1  0
 14 15  1  6
 16 17  1  0
 16 15  1  0
 18 17  1  0
 19 18  1  0
 20 21  2  0
 20 29  1  0
 23 22  1  0
 23 24  2  0
 24 25  1  0
 26 25  2  0
 27 26  1  0
 28 27  1  1
 28 30  1  0
 29 28  1  0
 30 31  2  0
 30 34  1  0
 32 26  1  0
 33 32  2  0
 33 23  1  0
M  END
$$$$
