YKY.pdb
     RDKit          3D

 34 35  0  0  1  0  0  0  0  0999 V2000
    8.4383  -12.5169   15.6900 O   0  0  0  0  0  0  0  0  0  0  0  0
    8.0961  -13.0948   16.8930 C   0  0  0  0  0  0  0  0  0  0  0  0
    8.0216  -12.3057   18.0145 C   0  0  0  0  0  0  0  0  0  0  0  0
    7.6842  -12.8206   19.2529 C   0  0  0  0  0  0  0  0  0  0  0  0
    7.4150  -14.1665   19.3620 C   0  0  0  0  0  0  0  0  0  0  0  0
    7.0474  -14.7715   20.6699 C   0  0  0  0  0  0  0  0  0  0  0  0
    6.2149  -16.0345   20.4951 C   0  0  2  0  0  0  0  0  0  0  0  0
    4.8757  -15.6971   20.1236 N   0  0  0  0  0  0  0  0  0  0  0  0
    6.2913  -16.7689   21.7849 C   0  0  0  0  0  0  0  0  0  0  0  0
    5.7472  -16.2295   22.7817 O   0  0  0  0  0  0  0  0  0  0  0  0
    7.4814  -14.9754   18.2635 C   0  0  0  0  0  0  0  0  0  0  0  0
    7.8241  -14.4342   17.0228 C   0  0  0  0  0  0  0  0  0  0  0  0
    6.9403  -18.0185   21.9119 N   0  0  0  0  0  0  0  0  0  0  0  0
    6.9414  -18.7266   23.1539 C   0  0  1  0  0  0  0  0  0  0  0  0
    7.1581  -20.1984   23.0194 C   0  0  0  0  0  0  0  0  0  0  0  0
    7.1752  -20.8509   24.3705 C   0  0  0  0  0  0  0  0  0  0  0  0
    7.3093  -22.3434   24.2914 C   0  0  0  0  0  0  0  0  0  0  0  0
    7.2420  -23.0017   25.6472 C   0  0  0  0  0  0  0  0  0  0  0  0
    7.3141  -24.4434   25.4372 N   0  0  0  0  0  0  0  0  0  0  0  0
    7.9589  -18.1607   24.1107 C   0  0  0  0  0  0  0  0  0  0  0  0
    9.1582  -18.4528   23.8651 O   0  0  0  0  0  0  0  0  0  0  0  0
   11.4055  -13.9972   31.0499 O   0  0  0  0  0  0  0  0  0  0  0  0
   10.6748  -14.3793   29.9418 C   0  0  0  0  0  0  0  0  0  0  0  0
    9.5360  -13.6551   29.6111 C   0  0  0  0  0  0  0  0  0  0  0  0
    8.7933  -14.0350   28.4936 C   0  0  0  0  0  0  0  0  0  0  0  0
    9.1465  -15.1046   27.7020 C   0  0  0  0  0  0  0  0  0  0  0  0
    8.3013  -15.4720   26.5611 C   0  0  0  0  0  0  0  0  0  0  0  0
    8.5840  -16.8946   26.1453 C   0  0  2  0  0  0  0  0  0  0  0  0
    7.5565  -17.3545   25.2071 N   0  0  0  0  0  0  0  0  0  0  0  0
    8.6359  -17.7533   27.3342 C   0  0  0  0  0  0  0  0  0  0  0  0
    7.6084  -18.2482   27.8180 O   0  0  0  0  0  0  0  0  0  0  0  0
   10.2757  -15.8093   28.0445 C   0  0  0  0  0  0  0  0  0  0  0  0
   11.0285  -15.4544   29.1452 C   0  0  0  0  0  0  0  0  0  0  0  0
    9.8568  -18.0155   27.9268 O   0  0  0  0  0  0  0  0  0  0  0  0
  2 12  2  0
  2  1  1  0
  3  2  1  0
  4  5  1  0
  4  3  2  0
  5 11  2  0
  6  5  1  0
  7  9  1  0
  7  6  1  0
  7  8  1  1
  9 13  1  0
 10  9  2  0
 11 12  1  0
 13 14  1  0
 14 20  1  0
 14 15  1  6
 16 17  1  0
 16 15  1  0
 18 17  1  0
 19 18  1  0
 20 21  2  0
 20 29  1  0
 23 22  1  0
 23 24  2  0
 24 25  1  0
 26 25  2  0
 27 26  1  0
 28 27  1  1
 28 30  1  0
 29 28  1  0
 30 31  2  0
 30 34  1  0
 32 26  1  0
 33 32  2  0
 33 23  1  0
M  END
$$$$
