YKY.pdb
     RDKit          3D

 34 35  0  0  1  0  0  0  0  0999 V2000
    7.4863  -12.1149   17.2221 O   0  0  0  0  0  0  0  0  0  0  0  0
    7.6457  -12.8124   18.3995 C   0  0  0  0  0  0  0  0  0  0  0  0
    7.3886  -12.1782   19.5902 C   0  0  0  0  0  0  0  0  0  0  0  0
    7.5283  -12.8188   20.8079 C   0  0  0  0  0  0  0  0  0  0  0  0
    7.9380  -14.1333   20.8241 C   0  0  0  0  0  0  0  0  0  0  0  0
    8.1041  -14.8690   22.1058 C   0  0  0  0  0  0  0  0  0  0  0  0
    8.1840  -16.3740   21.8882 C   0  0  2  0  0  0  0  0  0  0  0  0
    6.9228  -16.8768   21.4389 N   0  0  0  0  0  0  0  0  0  0  0  0
    8.6150  -16.9626   23.1830 C   0  0  0  0  0  0  0  0  0  0  0  0
    7.7096  -17.2728   23.9982 O   0  0  0  0  0  0  0  0  0  0  0  0
    8.2007  -14.7892   19.6553 C   0  0  0  0  0  0  0  0  0  0  0  0
    8.0530  -14.1230   18.4371 C   0  0  0  0  0  0  0  0  0  0  0  0
    9.9746  -17.1745   23.5078 N   0  0  0  0  0  0  0  0  0  0  0  0
   10.3506  -17.8102   24.7319 C   0  0  1  0  0  0  0  0  0  0  0  0
   11.5909  -18.6370   24.6368 C   0  0  0  0  0  0  0  0  0  0  0  0
   11.8273  -19.3763   25.9208 C   0  0  0  0  0  0  0  0  0  0  0  0
   13.1185  -20.1409   25.9199 C   0  0  0  0  0  0  0  0  0  0  0  0
   13.3327  -20.9138   27.1977 C   0  0  0  0  0  0  0  0  0  0  0  0
   14.5931  -21.6361   27.0658 N   0  0  0  0  0  0  0  0  0  0  0  0
   10.5056  -16.8096   25.8481 C   0  0  0  0  0  0  0  0  0  0  0  0
   11.3125  -15.8692   25.6276 O   0  0  0  0  0  0  0  0  0  0  0  0
    7.0712  -11.9678   24.2685 O   0  0  0  0  0  0  0  0  0  0  0  0
    7.4462  -12.8057   25.3006 C   0  0  0  0  0  0  0  0  0  0  0  0
    8.4127  -12.3681   26.1978 C   0  0  0  0  0  0  0  0  0  0  0  0
    8.7962  -13.2086   27.2424 C   0  0  0  0  0  0  0  0  0  0  0  0
    8.2518  -14.4606   27.4198 C   0  0  0  0  0  0  0  0  0  0  0  0
    8.7257  -15.3078   28.5191 C   0  0  0  0  0  0  0  0  0  0  0  0
   10.0180  -15.9831   28.1312 C   0  0  2  0  0  0  0  0  0  0  0  0
    9.7741  -16.9486   27.0562 N   0  0  0  0  0  0  0  0  0  0  0  0
   10.6027  -16.6382   29.3070 C   0  0  0  0  0  0  0  0  0  0  0  0
   10.7477  -17.8676   29.3551 O   0  0  0  0  0  0  0  0  0  0  0  0
    7.2974  -14.8766   26.5225 C   0  0  0  0  0  0  0  0  0  0  0  0
    6.8998  -14.0645   25.4800 C   0  0  0  0  0  0  0  0  0  0  0  0
   11.0000  -15.8675   30.3834 O   0  0  0  0  0  0  0  0  0  0  0  0
  2 12  2  0
  2  1  1  0
  3  2  1  0
  4  5  1  0
  4  3  2  0
  5 11  2  0
  6  5  1  0
  7  9  1  0
  7  6  1  0
  7  8  1  1
  9 13  1  0
 10  9  2  0
 11 12  1  0
 13 14  1  0
 14 20  1  0
 14 15  1  6
 16 17  1  0
 16 15  1  0
 18 17  1  0
 19 18  1  0
 20 21  2  0
 20 29  1  0
 23 22  1  0
 23 24  2  0
 24 25  1  0
 26 25  2  0
 27 26  1  0
 28 27  1  1
 28 30  1  0
 29 28  1  0
 30 31  2  0
 30 34  1  0
 32 26  1  0
 33 32  2  0
 33 23  1  0
M  END
$$$$
