YKY.pdb
     RDKit          3D

 34 35  0  0  1  0  0  0  0  0999 V2000
    7.6769  -11.8346   17.4379 O   0  0  0  0  0  0  0  0  0  0  0  0
    7.7620  -12.5750   18.5967 C   0  0  0  0  0  0  0  0  0  0  0  0
    6.6662  -13.2905   19.0128 C   0  0  0  0  0  0  0  0  0  0  0  0
    6.6831  -14.0542   20.1656 C   0  0  0  0  0  0  0  0  0  0  0  0
    7.8356  -14.0967   20.9178 C   0  0  0  0  0  0  0  0  0  0  0  0
    7.9076  -14.9021   22.1659 C   0  0  0  0  0  0  0  0  0  0  0  0
    8.3560  -16.3313   21.8921 C   0  0  2  0  0  0  0  0  0  0  0  0
    7.3499  -17.0336   21.1574 N   0  0  0  0  0  0  0  0  0  0  0  0
    8.6399  -16.9427   23.2166 C   0  0  0  0  0  0  0  0  0  0  0  0
    7.6492  -17.2648   23.9204 O   0  0  0  0  0  0  0  0  0  0  0  0
    8.9407  -13.3952   20.5282 C   0  0  0  0  0  0  0  0  0  0  0  0
    8.9015  -12.6305   19.3605 C   0  0  0  0  0  0  0  0  0  0  0  0
    9.9548  -17.1629   23.6873 N   0  0  0  0  0  0  0  0  0  0  0  0
   10.1918  -17.8186   24.9354 C   0  0  1  0  0  0  0  0  0  0  0  0
   11.2749  -18.8463   24.8912 C   0  0  0  0  0  0  0  0  0  0  0  0
   11.1987  -19.6330   23.6159 C   0  0  0  0  0  0  0  0  0  0  0  0
   12.2452  -20.7053   23.5333 C   0  0  0  0  0  0  0  0  0  0  0  0
   12.2346  -21.4213   22.2054 C   0  0  0  0  0  0  0  0  0  0  0  0
   13.2909  -22.4266   22.2423 N   0  0  0  0  0  0  0  0  0  0  0  0
   10.4921  -16.8280   26.0307 C   0  0  0  0  0  0  0  0  0  0  0  0
   11.3500  -15.9508   25.7506 O   0  0  0  0  0  0  0  0  0  0  0  0
    6.5045  -12.2779   24.9597 O   0  0  0  0  0  0  0  0  0  0  0  0
    7.1806  -12.9851   25.9347 C   0  0  0  0  0  0  0  0  0  0  0  0
    6.7361  -14.2597   26.2638 C   0  0  0  0  0  0  0  0  0  0  0  0
    7.4138  -14.9798   27.2472 C   0  0  0  0  0  0  0  0  0  0  0  0
    8.5111  -14.4742   27.9072 C   0  0  0  0  0  0  0  0  0  0  0  0
    9.1562  -15.2707   28.9562 C   0  0  0  0  0  0  0  0  0  0  0  0
   10.3081  -16.0537   28.3759 C   0  0  2  0  0  0  0  0  0  0  0  0
    9.8322  -16.9079   27.2845 N   0  0  0  0  0  0  0  0  0  0  0  0
   10.9426  -16.8507   29.4322 C   0  0  0  0  0  0  0  0  0  0  0  0
   10.9704  -18.0880   29.3782 O   0  0  0  0  0  0  0  0  0  0  0  0
    8.9363  -13.2119   27.5687 C   0  0  0  0  0  0  0  0  0  0  0  0
    8.2837  -12.4782   26.5991 C   0  0  0  0  0  0  0  0  0  0  0  0
   11.5213  -16.2074   30.5100 O   0  0  0  0  0  0  0  0  0  0  0  0
  2 12  2  0
  2  1  1  0
  3  2  1  0
  4  5  1  0
  4  3  2  0
  5 11  2  0
  6  5  1  0
  7  9  1  0
  7  6  1  0
  7  8  1  1
  9 13  1  0
 10  9  2  0
 11 12  1  0
 13 14  1  0
 14 20  1  0
 14 15  1  6
 16 17  1  0
 16 15  1  0
 18 17  1  0
 19 18  1  0
 20 21  2  0
 20 29  1  0
 23 22  1  0
 23 24  2  0
 24 25  1  0
 26 25  2  0
 27 26  1  0
 28 27  1  1
 28 30  1  0
 29 28  1  0
 30 31  2  0
 30 34  1  0
 32 26  1  0
 33 32  2  0
 33 23  1  0
M  END
$$$$
