YKY.pdb
     RDKit          3D

 34 35  0  0  1  0  0  0  0  0999 V2000
    8.5550  -11.8462   17.8938 O   0  0  0  0  0  0  0  0  0  0  0  0
    8.1954  -12.6007   18.9890 C   0  0  0  0  0  0  0  0  0  0  0  0
    8.1521  -13.9683   18.8714 C   0  0  0  0  0  0  0  0  0  0  0  0
    7.7994  -14.7851   19.9302 C   0  0  0  0  0  0  0  0  0  0  0  0
    7.4823  -14.2066   21.1388 C   0  0  0  0  0  0  0  0  0  0  0  0
    7.0965  -15.0385   22.3095 C   0  0  0  0  0  0  0  0  0  0  0  0
    7.1302  -16.5254   21.9828 C   0  0  2  0  0  0  0  0  0  0  0  0
    5.8131  -16.9971   21.6864 N   0  0  0  0  0  0  0  0  0  0  0  0
    7.7364  -17.1999   23.1603 C   0  0  0  0  0  0  0  0  0  0  0  0
    6.9747  -17.4519   24.1282 O   0  0  0  0  0  0  0  0  0  0  0  0
    7.5169  -12.8491   21.2848 C   0  0  0  0  0  0  0  0  0  0  0  0
    7.8757  -12.0434   20.2023 C   0  0  0  0  0  0  0  0  0  0  0  0
    9.1045  -17.5524   23.2148 N   0  0  0  0  0  0  0  0  0  0  0  0
    9.6527  -18.2075   24.3612 C   0  0  1  0  0  0  0  0  0  0  0  0
   10.7617  -19.1587   24.0511 C   0  0  0  0  0  0  0  0  0  0  0  0
   10.3271  -20.1487   23.0106 C   0  0  0  0  0  0  0  0  0  0  0  0
   10.5282  -21.5710   23.4445 C   0  0  0  0  0  0  0  0  0  0  0  0
    9.9879  -22.5618   22.4433 C   0  0  0  0  0  0  0  0  0  0  0  0
   10.3385  -23.8965   22.9160 N   0  0  0  0  0  0  0  0  0  0  0  0
   10.1248  -17.2137   25.3912 C   0  0  0  0  0  0  0  0  0  0  0  0
   11.0635  -16.4581   25.0279 O   0  0  0  0  0  0  0  0  0  0  0  0
    7.0399  -11.7698   24.5324 O   0  0  0  0  0  0  0  0  0  0  0  0
    7.5001  -12.6860   25.4580 C   0  0  0  0  0  0  0  0  0  0  0  0
    8.6110  -12.3587   26.2256 C   0  0  0  0  0  0  0  0  0  0  0  0
    9.0812  -13.2787   27.1622 C   0  0  0  0  0  0  0  0  0  0  0  0
    8.4846  -14.5041   27.3564 C   0  0  0  0  0  0  0  0  0  0  0  0
    9.0513  -15.4393   28.3336 C   0  0  0  0  0  0  0  0  0  0  0  0
   10.1242  -16.2783   27.6842 C   0  0  2  0  0  0  0  0  0  0  0  0
    9.5277  -17.1603   26.6774 N   0  0  0  0  0  0  0  0  0  0  0  0
   10.8324  -17.0516   28.7109 C   0  0  0  0  0  0  0  0  0  0  0  0
   10.8240  -18.2904   28.7057 O   0  0  0  0  0  0  0  0  0  0  0  0
    7.3870  -14.8107   26.5879 C   0  0  0  0  0  0  0  0  0  0  0  0
    6.9014  -13.9183   25.6542 C   0  0  0  0  0  0  0  0  0  0  0  0
   11.5232  -16.3839   29.7045 O   0  0  0  0  0  0  0  0  0  0  0  0
  2 12  2  0
  2  1  1  0
  3  2  1  0
  4  5  1  0
  4  3  2  0
  5 11  2  0
  6  5  1  0
  7  9  1  0
  7  6  1  0
  7  8  1  1
  9 13  1  0
 10  9  2  0
 11 12  1  0
 13 14  1  0
 14 20  1  0
 14 15  1  6
 16 17  1  0
 16 15  1  0
 18 17  1  0
 19 18  1  0
 20 21  2  0
 20 29  1  0
 23 22  1  0
 23 24  2  0
 24 25  1  0
 26 25  2  0
 27 26  1  0
 28 27  1  1
 28 30  1  0
 29 28  1  0
 30 31  2  0
 30 34  1  0
 32 26  1  0
 33 32  2  0
 33 23  1  0
M  END
$$$$
