YKY.pdb
     RDKit          3D

 34 35  0  0  1  0  0  0  0  0999 V2000
   17.4598  -22.1406   19.0897 O   0  0  0  0  0  0  0  0  0  0  0  0
   16.5212  -21.2524   19.5674 C   0  0  0  0  0  0  0  0  0  0  0  0
   15.1912  -21.5878   19.5009 C   0  0  0  0  0  0  0  0  0  0  0  0
   14.1975  -20.7435   19.9618 C   0  0  0  0  0  0  0  0  0  0  0  0
   14.5556  -19.5295   20.5039 C   0  0  0  0  0  0  0  0  0  0  0  0
   13.5272  -18.5843   21.0143 C   0  0  0  0  0  0  0  0  0  0  0  0
   12.6145  -18.0862   19.9018 C   0  0  2  0  0  0  0  0  0  0  0  0
   13.2795  -17.0847   19.1272 N   0  0  0  0  0  0  0  0  0  0  0  0
   11.3822  -17.5842   20.5636 C   0  0  0  0  0  0  0  0  0  0  0  0
   11.4074  -16.4042   20.9968 O   0  0  0  0  0  0  0  0  0  0  0  0
   15.8707  -19.1695   20.5829 C   0  0  0  0  0  0  0  0  0  0  0  0
   16.8576  -20.0375   20.1113 C   0  0  0  0  0  0  0  0  0  0  0  0
   10.2210  -18.3770   20.7122 N   0  0  0  0  0  0  0  0  0  0  0  0
    9.0261  -17.8364   21.2810 C   0  0  1  0  0  0  0  0  0  0  0  0
    7.8061  -18.6655   21.0454 C   0  0  0  0  0  0  0  0  0  0  0  0
    6.6308  -18.0879   21.7777 C   0  0  0  0  0  0  0  0  0  0  0  0
    5.3411  -18.7752   21.4369 C   0  0  0  0  0  0  0  0  0  0  0  0
    4.1480  -18.1186   22.0861 C   0  0  0  0  0  0  0  0  0  0  0  0
    2.9523  -18.7727   21.5661 N   0  0  0  0  0  0  0  0  0  0  0  0
    9.1811  -17.5911   22.7599 C   0  0  0  0  0  0  0  0  0  0  0  0
    9.6193  -18.5624   23.4295 O   0  0  0  0  0  0  0  0  0  0  0  0
    9.6294  -14.1347   30.7235 O   0  0  0  0  0  0  0  0  0  0  0  0
    9.4091  -14.2619   29.3658 C   0  0  0  0  0  0  0  0  0  0  0  0
   10.2373  -15.1014   28.6310 C   0  0  0  0  0  0  0  0  0  0  0  0
   10.0207  -15.2349   27.2599 C   0  0  0  0  0  0  0  0  0  0  0  0
    9.0135  -14.5641   26.6034 C   0  0  0  0  0  0  0  0  0  0  0  0
    8.8628  -14.7224   25.1532 C   0  0  0  0  0  0  0  0  0  0  0  0
    8.9354  -16.1832   24.7825 C   0  0  2  0  0  0  0  0  0  0  0  0
    8.8456  -16.3345   23.3277 N   0  0  0  0  0  0  0  0  0  0  0  0
    7.8576  -16.9159   25.4572 C   0  0  0  0  0  0  0  0  0  0  0  0
    8.0665  -17.5598   26.4947 O   0  0  0  0  0  0  0  0  0  0  0  0
    8.2045  -13.7379   27.3464 C   0  0  0  0  0  0  0  0  0  0  0  0
    8.3971  -13.5881   28.7045 C   0  0  0  0  0  0  0  0  0  0  0  0
    6.5827  -16.8869   24.9241 O   0  0  0  0  0  0  0  0  0  0  0  0
  2 12  2  0
  2  1  1  0
  3  2  1  0
  4  5  1  0
  4  3  2  0
  5 11  2  0
  6  5  1  0
  7  9  1  0
  7  6  1  0
  7  8  1  1
  9 13  1  0
 10  9  2  0
 11 12  1  0
 13 14  1  0
 14 20  1  0
 14 15  1  1
 16 17  1  0
 16 15  1  0
 18 17  1  0
 19 18  1  0
 20 21  2  0
 20 29  1  0
 23 22  1  0
 23 24  2  0
 24 25  1  0
 26 25  2  0
 27 26  1  0
 28 27  1  6
 28 30  1  0
 29 28  1  0
 30 31  2  0
 30 34  1  0
 32 26  1  0
 33 32  2  0
 33 23  1  0
M  END
$$$$
