YKY.pdb
     RDKit          3D

 34 35  0  0  1  0  0  0  0  0999 V2000
    5.3323  -10.4466   27.6402 O   0  0  0  0  0  0  0  0  0  0  0  0
    5.8898  -11.5689   27.0676 C   0  0  0  0  0  0  0  0  0  0  0  0
    7.0293  -11.4361   26.3126 C   0  0  0  0  0  0  0  0  0  0  0  0
    7.6405  -12.5204   25.7098 C   0  0  0  0  0  0  0  0  0  0  0  0
    7.0874  -13.7706   25.8731 C   0  0  0  0  0  0  0  0  0  0  0  0
    7.7044  -14.9700   25.2466 C   0  0  0  0  0  0  0  0  0  0  0  0
    6.9156  -15.4437   24.0333 C   0  0  2  0  0  0  0  0  0  0  0  0
    5.9963  -16.4720   24.4112 N   0  0  0  0  0  0  0  0  0  0  0  0
    7.9169  -15.8995   23.0341 C   0  0  0  0  0  0  0  0  0  0  0  0
    8.0819  -17.1403   22.9169 O   0  0  0  0  0  0  0  0  0  0  0  0
    5.9545  -13.9326   26.6185 C   0  0  0  0  0  0  0  0  0  0  0  0
    5.3539  -12.8239   27.2184 C   0  0  0  0  0  0  0  0  0  0  0  0
    8.6629  -14.9994   22.2390 N   0  0  0  0  0  0  0  0  0  0  0  0
    9.6577  -15.4707   21.3268 C   0  0  1  0  0  0  0  0  0  0  0  0
    9.8693  -14.5869   20.1413 C   0  0  0  0  0  0  0  0  0  0  0  0
    8.7032  -14.6824   19.2020 C   0  0  0  0  0  0  0  0  0  0  0  0
    8.9422  -13.9635   17.9067 C   0  0  0  0  0  0  0  0  0  0  0  0
    7.7617  -14.0512   16.9714 C   0  0  0  0  0  0  0  0  0  0  0  0
    8.0781  -13.2533   15.7920 N   0  0  0  0  0  0  0  0  0  0  0  0
   10.9774  -15.6974   22.0185 C   0  0  0  0  0  0  0  0  0  0  0  0
   11.7984  -14.7460   21.9493 O   0  0  0  0  0  0  0  0  0  0  0  0
   11.7934  -15.5564   30.3389 O   0  0  0  0  0  0  0  0  0  0  0  0
   11.5435  -15.6424   28.9832 C   0  0  0  0  0  0  0  0  0  0  0  0
   10.2683  -15.3434   28.5194 C   0  0  0  0  0  0  0  0  0  0  0  0
   10.0085  -15.4279   27.1519 C   0  0  0  0  0  0  0  0  0  0  0  0
   10.9711  -15.7978   26.2397 C   0  0  0  0  0  0  0  0  0  0  0  0
   10.6216  -15.9008   24.8191 C   0  0  0  0  0  0  0  0  0  0  0  0
   11.5541  -16.8633   24.1259 C   0  0  2  0  0  0  0  0  0  0  0  0
   11.2440  -16.9162   22.6946 N   0  0  0  0  0  0  0  0  0  0  0  0
   11.4372  -18.1905   24.7410 C   0  0  0  0  0  0  0  0  0  0  0  0
   10.4760  -18.9327   24.4961 O   0  0  0  0  0  0  0  0  0  0  0  0
   12.2265  -16.0901   26.7167 C   0  0  0  0  0  0  0  0  0  0  0  0
   12.5100  -16.0142   28.0651 C   0  0  0  0  0  0  0  0  0  0  0  0
   12.4200  -18.6216   25.6121 O   0  0  0  0  0  0  0  0  0  0  0  0
  2 12  2  0
  2  1  1  0
  3  2  1  0
  4  5  1  0
  4  3  2  0
  5 11  2  0
  6  5  1  0
  7  9  1  0
  7  6  1  0
  7  8  1  1
  9 13  1  0
 10  9  2  0
 11 12  1  0
 13 14  1  0
 14 20  1  0
 14 15  1  6
 16 17  1  0
 16 15  1  0
 18 17  1  0
 19 18  1  0
 20 21  2  0
 20 29  1  0
 23 22  1  0
 23 24  2  0
 24 25  1  0
 26 25  2  0
 27 26  1  0
 28 27  1  1
 28 30  1  0
 29 28  1  0
 30 31  2  0
 30 34  1  0
 32 26  1  0
 33 32  2  0
 33 23  1  0
M  END
$$$$
