YKY.pdb
     RDKit          3D

 34 35  0  0  1  0  0  0  0  0999 V2000
    7.2576  -13.0581   14.6045 O   0  0  0  0  0  0  0  0  0  0  0  0
    7.5618  -13.9100   15.6437 C   0  0  0  0  0  0  0  0  0  0  0  0
    7.7754  -15.2397   15.3751 C   0  0  0  0  0  0  0  0  0  0  0  0
    8.0843  -16.1490   16.3703 C   0  0  0  0  0  0  0  0  0  0  0  0
    8.1801  -15.7046   17.6700 C   0  0  0  0  0  0  0  0  0  0  0  0
    8.5096  -16.6401   18.7781 C   0  0  0  0  0  0  0  0  0  0  0  0
    8.3596  -15.9781   20.1412 C   0  0  2  0  0  0  0  0  0  0  0  0
    9.0496  -14.7256   20.1618 N   0  0  0  0  0  0  0  0  0  0  0  0
    8.8859  -16.9466   21.1379 C   0  0  0  0  0  0  0  0  0  0  0  0
    8.0437  -17.6591   21.7410 O   0  0  0  0  0  0  0  0  0  0  0  0
    7.9728  -14.3876   17.9666 C   0  0  0  0  0  0  0  0  0  0  0  0
    7.6619  -13.4868   16.9459 C   0  0  0  0  0  0  0  0  0  0  0  0
   10.2660  -17.0804   21.4141 N   0  0  0  0  0  0  0  0  0  0  0  0
   10.7293  -17.9326   22.4643 C   0  0  1  0  0  0  0  0  0  0  0  0
   12.0751  -18.5321   22.2179 C   0  0  0  0  0  0  0  0  0  0  0  0
   12.4545  -19.4483   23.3440 C   0  0  0  0  0  0  0  0  0  0  0  0
   13.7818  -20.1139   23.1271 C   0  0  0  0  0  0  0  0  0  0  0  0
   14.1446  -21.0569   24.2474 C   0  0  0  0  0  0  0  0  0  0  0  0
   15.1702  -20.4042   25.0535 N   0  0  0  0  0  0  0  0  0  0  0  0
   10.7401  -17.2174   23.7909 C   0  0  0  0  0  0  0  0  0  0  0  0
   11.6140  -16.3208   23.9184 O   0  0  0  0  0  0  0  0  0  0  0  0
    6.3126  -11.1304   27.4486 O   0  0  0  0  0  0  0  0  0  0  0  0
    6.7972  -12.2362   26.7776 C   0  0  0  0  0  0  0  0  0  0  0  0
    8.0855  -12.1905   26.2589 C   0  0  0  0  0  0  0  0  0  0  0  0
    8.5815  -13.3032   25.5804 C   0  0  0  0  0  0  0  0  0  0  0  0
    7.8409  -14.4502   25.4037 C   0  0  0  0  0  0  0  0  0  0  0  0
    8.4104  -15.5716   24.6493 C   0  0  0  0  0  0  0  0  0  0  0  0
    9.1908  -16.4731   25.5739 C   0  0  2  0  0  0  0  0  0  0  0  0
    9.8110  -17.5578   24.8081 N   0  0  0  0  0  0  0  0  0  0  0  0
    8.2995  -17.0025   26.6126 C   0  0  0  0  0  0  0  0  0  0  0  0
    7.5720  -17.9825   26.4003 O   0  0  0  0  0  0  0  0  0  0  0  0
    6.5687  -14.4771   25.9232 C   0  0  0  0  0  0  0  0  0  0  0  0
    6.0538  -13.3897   26.5991 C   0  0  0  0  0  0  0  0  0  0  0  0
    8.2710  -16.3950   27.8538 O   0  0  0  0  0  0  0  0  0  0  0  0
  2 12  2  0
  2  1  1  0
  3  2  1  0
  4  5  1  0
  4  3  2  0
  5 11  2  0
  6  5  1  0
  7  9  1  0
  7  6  1  0
  7  8  1  6
  9 13  1  0
 10  9  2  0
 11 12  1  0
 13 14  1  0
 14 20  1  0
 14 15  1  6
 16 17  1  0
 16 15  1  0
 18 17  1  0
 19 18  1  0
 20 21  2  0
 20 29  1  0
 23 22  1  0
 23 24  2  0
 24 25  1  0
 26 25  2  0
 27 26  1  0
 28 27  1  6
 28 30  1  0
 29 28  1  0
 30 31  2  0
 30 34  1  0
 32 26  1  0
 33 32  2  0
 33 23  1  0
M  END
$$$$
