YKY.pdb
     RDKit          3D

 34 35  0  0  1  0  0  0  0  0999 V2000
    8.2729  -12.2279   14.6503 O   0  0  0  0  0  0  0  0  0  0  0  0
    7.9596  -12.6321   15.9296 C   0  0  0  0  0  0  0  0  0  0  0  0
    8.8824  -12.4521   16.9305 C   0  0  0  0  0  0  0  0  0  0  0  0
    8.6332  -12.8347   18.2359 C   0  0  0  0  0  0  0  0  0  0  0  0
    7.4212  -13.4138   18.5388 C   0  0  0  0  0  0  0  0  0  0  0  0
    7.1019  -13.8435   19.9262 C   0  0  0  0  0  0  0  0  0  0  0  0
    8.0767  -14.8992   20.4301 C   0  0  2  0  0  0  0  0  0  0  0  0
    8.3240  -15.8713   19.4108 N   0  0  0  0  0  0  0  0  0  0  0  0
    7.4667  -15.4835   21.6530 C   0  0  0  0  0  0  0  0  0  0  0  0
    7.2109  -14.6930   22.5965 O   0  0  0  0  0  0  0  0  0  0  0  0
    6.4844  -13.6051   17.5635 C   0  0  0  0  0  0  0  0  0  0  0  0
    6.7572  -13.2112   16.2520 C   0  0  0  0  0  0  0  0  0  0  0  0
    7.1775  -16.8620   21.7751 N   0  0  0  0  0  0  0  0  0  0  0  0
    6.5226  -17.3786   22.9362 C   0  0  1  0  0  0  0  0  0  0  0  0
    5.9150  -18.7299   22.7463 C   0  0  0  0  0  0  0  0  0  0  0  0
    4.9020  -18.6980   21.6398 C   0  0  0  0  0  0  0  0  0  0  0  0
    4.2654  -20.0353   21.3984 C   0  0  0  0  0  0  0  0  0  0  0  0
    3.1670  -19.9737   20.3662 C   0  0  0  0  0  0  0  0  0  0  0  0
    2.6248  -21.3204   20.2239 N   0  0  0  0  0  0  0  0  0  0  0  0
    7.4506  -17.4142   24.1231 C   0  0  0  0  0  0  0  0  0  0  0  0
    8.5831  -17.9215   23.9131 O   0  0  0  0  0  0  0  0  0  0  0  0
   11.8588  -15.3180   31.2847 O   0  0  0  0  0  0  0  0  0  0  0  0
   10.9445  -15.3648   30.2505 C   0  0  0  0  0  0  0  0  0  0  0  0
   11.4138  -15.3372   28.9430 C   0  0  0  0  0  0  0  0  0  0  0  0
   10.4965  -15.3843   27.8937 C   0  0  0  0  0  0  0  0  0  0  0  0
    9.1380  -15.4573   28.1042 C   0  0  0  0  0  0  0  0  0  0  0  0
    8.2262  -15.4682   26.9555 C   0  0  0  0  0  0  0  0  0  0  0  0
    8.0177  -16.8831   26.4745 C   0  0  2  0  0  0  0  0  0  0  0  0
    7.0422  -16.9004   25.3812 N   0  0  0  0  0  0  0  0  0  0  0  0
    7.5724  -17.7221   27.5931 C   0  0  0  0  0  0  0  0  0  0  0  0
    6.3690  -17.8920   27.8330 O   0  0  0  0  0  0  0  0  0  0  0  0
    8.6921  -15.4834   29.4041 C   0  0  0  0  0  0  0  0  0  0  0  0
    9.5785  -15.4381   30.4606 C   0  0  0  0  0  0  0  0  0  0  0  0
    8.5155  -18.3357   28.3960 O   0  0  0  0  0  0  0  0  0  0  0  0
  2 12  2  0
  2  1  1  0
  3  2  1  0
  4  5  1  0
  4  3  2  0
  5 11  2  0
  6  5  1  0
  7  9  1  0
  7  6  1  0
  7  8  1  6
  9 13  1  0
 10  9  2  0
 11 12  1  0
 13 14  1  0
 14 20  1  0
 14 15  1  6
 16 17  1  0
 16 15  1  0
 18 17  1  0
 19 18  1  0
 20 21  2  0
 20 29  1  0
 23 22  1  0
 23 24  2  0
 24 25  1  0
 26 25  2  0
 27 26  1  0
 28 27  1  1
 28 30  1  0
 29 28  1  0
 30 31  2  0
 30 34  1  0
 32 26  1  0
 33 32  2  0
 33 23  1  0
M  END
$$$$
