YKY.pdb
     RDKit          3D

 34 35  0  0  1  0  0  0  0  0999 V2000
   11.0597  -12.6417   21.2278 O   0  0  0  0  0  0  0  0  0  0  0  0
   10.1275  -13.2061   20.3849 C   0  0  0  0  0  0  0  0  0  0  0  0
   10.2982  -14.5060   19.9765 C   0  0  0  0  0  0  0  0  0  0  0  0
    9.4012  -15.1336   19.1315 C   0  0  0  0  0  0  0  0  0  0  0  0
    8.3035  -14.4309   18.6873 C   0  0  0  0  0  0  0  0  0  0  0  0
    7.3082  -15.0580   17.7775 C   0  0  0  0  0  0  0  0  0  0  0  0
    7.5682  -16.5472   17.5945 C   0  0  2  0  0  0  0  0  0  0  0  0
    6.5558  -17.1286   16.7685 N   0  0  0  0  0  0  0  0  0  0  0  0
    7.6127  -17.1359   18.9584 C   0  0  0  0  0  0  0  0  0  0  0  0
    6.5224  -17.2225   19.5782 O   0  0  0  0  0  0  0  0  0  0  0  0
    8.1081  -13.1367   19.0771 C   0  0  0  0  0  0  0  0  0  0  0  0
    9.0266  -12.5226   19.9309 C   0  0  0  0  0  0  0  0  0  0  0  0
    8.8133  -17.5856   19.5545 N   0  0  0  0  0  0  0  0  0  0  0  0
    8.8117  -18.1967   20.8469 C   0  0  1  0  0  0  0  0  0  0  0  0
    9.4220  -19.5596   20.8806 C   0  0  0  0  0  0  0  0  0  0  0  0
    9.3241  -20.1435   22.2593 C   0  0  0  0  0  0  0  0  0  0  0  0
    9.9797  -21.4890   22.3666 C   0  0  0  0  0  0  0  0  0  0  0  0
    9.8902  -22.0655   23.7579 C   0  0  0  0  0  0  0  0  0  0  0  0
   10.6108  -23.3338   23.7528 N   0  0  0  0  0  0  0  0  0  0  0  0
    9.4904  -17.3237   21.8708 C   0  0  0  0  0  0  0  0  0  0  0  0
   10.7486  -17.3279   21.8410 O   0  0  0  0  0  0  0  0  0  0  0  0
   10.9967  -13.5596   29.6097 O   0  0  0  0  0  0  0  0  0  0  0  0
   10.3792  -14.1012   28.4992 C   0  0  0  0  0  0  0  0  0  0  0  0
    9.9277  -13.2448   27.5025 C   0  0  0  0  0  0  0  0  0  0  0  0
    9.3034  -13.7844   26.3783 C   0  0  0  0  0  0  0  0  0  0  0  0
    9.1163  -15.1388   26.2173 C   0  0  0  0  0  0  0  0  0  0  0  0
    8.4204  -15.6377   25.0266 C   0  0  0  0  0  0  0  0  0  0  0  0
    9.4196  -15.9776   23.9484 C   0  0  2  0  0  0  0  0  0  0  0  0
    8.7301  -16.5595   22.7937 N   0  0  0  0  0  0  0  0  0  0  0  0
   10.4255  -16.9023   24.4840 C   0  0  0  0  0  0  0  0  0  0  0  0
   11.6197  -16.5822   24.5615 O   0  0  0  0  0  0  0  0  0  0  0  0
    9.5691  -15.9705   27.2135 C   0  0  0  0  0  0  0  0  0  0  0  0
   10.1903  -15.4624   28.3360 C   0  0  0  0  0  0  0  0  0  0  0  0
   10.0322  -18.1568   24.9108 O   0  0  0  0  0  0  0  0  0  0  0  0
  2 12  2  0
  2  1  1  0
  3  2  1  0
  4  5  1  0
  4  3  2  0
  5 11  2  0
  6  5  1  0
  7  9  1  0
  7  6  1  0
  7  8  1  6
  9 13  1  0
 10  9  2  0
 11 12  1  0
 13 14  1  0
 14 20  1  0
 14 15  1  6
 16 17  1  0
 16 15  1  0
 18 17  1  0
 19 18  1  0
 20 21  2  0
 20 29  1  0
 23 22  1  0
 23 24  2  0
 24 25  1  0
 26 25  2  0
 27 26  1  0
 28 27  1  1
 28 30  1  0
 29 28  1  0
 30 31  2  0
 30 34  1  0
 32 26  1  0
 33 32  2  0
 33 23  1  0
M  END
$$$$
