NMK.pdb
     RDKit          3D

 26 25  0  0  1  0  0  0  0  0999 V2000
    7.2807  -19.6771   19.5033 N   0  0  0  0  0  0  0  0  0  0  0  0
    8.2361  -18.7096   19.1384 C   0  0  0  0  0  0  0  0  0  0  0  0
    8.4460  -18.4717   17.9350 O   0  0  0  0  0  0  0  0  0  0  0  0
    8.9784  -17.9876   20.1829 C   0  0  0  0  0  0  0  0  0  0  0  0
    8.3367  -16.6750   20.5330 C   0  0  2  0  0  0  0  0  0  0  0  0
    8.4107  -15.8105   19.3722 N   0  0  0  0  0  0  0  0  0  0  0  0
    8.8608  -16.0314   21.7298 C   0  0  0  0  0  0  0  0  0  0  0  0
   10.1240  -15.9690   21.8636 O   0  0  0  0  0  0  0  0  0  0  0  0
    6.7197  -11.3964   27.8584 C   0  0  0  0  0  0  0  0  0  0  0  0
    6.3809  -12.3950   26.4386 S   0  0  0  0  0  0  0  0  0  0  0  0
    7.7719  -13.3421   25.8323 C   0  0  0  0  0  0  0  0  0  0  0  0
    7.5739  -13.9788   24.5119 C   0  0  0  0  0  0  0  0  0  0  0  0
    8.7159  -14.7606   23.9295 C   0  0  2  0  0  0  0  0  0  0  0  0
    8.0936  -15.4683   22.7585 N   0  0  0  0  0  0  0  0  0  0  0  0
    9.0439  -15.9268   24.8395 C   0  0  0  0  0  0  0  0  0  0  0  0
    8.2196  -16.9126   24.8963 O   0  0  0  0  0  0  0  0  0  0  0  0
   10.2062  -15.9736   25.6164 N   0  0  0  0  0  0  0  0  0  0  0  0
   10.5310  -17.2174   26.3530 C   0  0  1  0  0  0  0  0  0  0  0  0
   11.7570  -17.8435   25.7946 C   0  0  0  0  0  0  0  0  0  0  0  0
   12.3077  -19.0095   26.5345 C   0  0  0  0  0  0  0  0  0  0  0  0
   13.5275  -19.6101   25.9241 C   0  0  0  0  0  0  0  0  0  0  0  0
   14.0783  -20.7012   26.8120 C   0  0  0  0  0  0  0  0  0  0  0  0
   15.1877  -21.2953   26.0728 N   0  0  0  0  0  0  0  0  0  0  0  0
   10.4785  -16.8918   27.7700 C   0  0  0  0  0  0  0  0  0  0  0  0
   10.3620  -17.8351   28.7664 O   0  0  0  0  0  0  0  0  0  0  0  0
   10.5359  -15.6802   28.1743 O   0  0  0  0  0  0  0  0  0  0  0  0
  2  1  1  0
  2  3  2  0
  4  2  1  0
  5  4  1  0
  5  7  1  0
  5  6  1  6
  7  8  2  0
  9 10  1  0
 10 11  1  0
 11 12  1  0
 13 12  1  1
 14  7  1  0
 14 13  1  0
 15 13  1  0
 15 16  2  0
 17 15  1  0
 18 17  1  0
 18 24  1  0
 18 19  1  6
 20 21  1  0
 20 19  1  0
 22 21  1  0
 23 22  1  0
 24 25  1  0
 26 24  2  0
M  END
$$$$
