NMK.pdb
     RDKit          3D

 26 25  0  0  1  0  0  0  0  0999 V2000
    9.3836  -16.1126   17.6774 N   0  0  0  0  0  0  0  0  0  0  0  0
    8.2941  -15.8730   18.5361 C   0  0  0  0  0  0  0  0  0  0  0  0
    7.1655  -16.3043   18.2375 O   0  0  0  0  0  0  0  0  0  0  0  0
    8.4988  -15.1148   19.7797 C   0  0  0  0  0  0  0  0  0  0  0  0
    8.6913  -16.0129   20.9687 C   0  0  2  0  0  0  0  0  0  0  0  0
    7.4978  -16.8200   21.1250 N   0  0  0  0  0  0  0  0  0  0  0  0
    9.0583  -15.3327   22.2031 C   0  0  0  0  0  0  0  0  0  0  0  0
   10.1473  -14.6761   22.2161 O   0  0  0  0  0  0  0  0  0  0  0  0
    6.7785  -12.0484   27.5413 C   0  0  0  0  0  0  0  0  0  0  0  0
    6.4905  -11.6177   25.8503 S   0  0  0  0  0  0  0  0  0  0  0  0
    6.8292  -12.9195   24.6713 C   0  0  0  0  0  0  0  0  0  0  0  0
    7.4700  -14.1284   25.2333 C   0  0  0  0  0  0  0  0  0  0  0  0
    8.7594  -14.5914   24.6189 C   0  0  2  0  0  0  0  0  0  0  0  0
    8.3141  -15.3347   23.3906 N   0  0  0  0  0  0  0  0  0  0  0  0
    9.3387  -15.7169   25.4517 C   0  0  0  0  0  0  0  0  0  0  0  0
    9.6011  -15.4922   26.6908 O   0  0  0  0  0  0  0  0  0  0  0  0
    9.5966  -16.9877   24.9272 N   0  0  0  0  0  0  0  0  0  0  0  0
   10.0954  -18.0520   25.8293 C   0  0  1  0  0  0  0  0  0  0  0  0
    9.7582  -19.3920   25.2835 C   0  0  0  0  0  0  0  0  0  0  0  0
   10.3218  -20.5661   26.0005 C   0  0  0  0  0  0  0  0  0  0  0  0
   10.0288  -21.8804   25.3620 C   0  0  0  0  0  0  0  0  0  0  0  0
   10.6079  -23.0070   26.1854 C   0  0  0  0  0  0  0  0  0  0  0  0
   10.2980  -24.2335   25.4577 N   0  0  0  0  0  0  0  0  0  0  0  0
   11.4827  -17.7323   26.1286 C   0  0  0  0  0  0  0  0  0  0  0  0
   12.0785  -17.9814   27.3448 O   0  0  0  0  0  0  0  0  0  0  0  0
   12.2402  -17.1856   25.2556 O   0  0  0  0  0  0  0  0  0  0  0  0
  2  1  1  0
  2  3  2  0
  4  2  1  0
  5  4  1  0
  5  7  1  0
  5  6  1  1
  7  8  2  0
  9 10  1  0
 10 11  1  0
 11 12  1  0
 13 12  1  1
 14  7  1  0
 14 13  1  0
 15 13  1  0
 15 16  2  0
 17 15  1  0
 18 17  1  0
 18 24  1  0
 18 19  1  6
 20 21  1  0
 20 19  1  0
 22 21  1  0
 23 22  1  0
 24 25  1  0
 26 24  2  0
M  END
$$$$
