NMK.pdb
     RDKit          3D

 26 25  0  0  1  0  0  0  0  0999 V2000
    9.3801  -18.2511   18.5586 N   0  0  0  0  0  0  0  0  0  0  0  0
   10.1291  -17.0636   18.4549 C   0  0  0  0  0  0  0  0  0  0  0  0
   10.7926  -16.8394   17.4261 O   0  0  0  0  0  0  0  0  0  0  0  0
   10.1211  -16.0972   19.5637 C   0  0  0  0  0  0  0  0  0  0  0  0
    9.3089  -16.5787   20.7324 C   0  0  2  0  0  0  0  0  0  0  0  0
    7.9128  -16.5813   20.3437 N   0  0  0  0  0  0  0  0  0  0  0  0
    9.5297  -15.8558   21.9773 C   0  0  0  0  0  0  0  0  0  0  0  0
   10.7320  -15.6424   22.3328 O   0  0  0  0  0  0  0  0  0  0  0  0
    6.1015  -11.1944   27.4354 C   0  0  0  0  0  0  0  0  0  0  0  0
    6.1417  -12.0910   25.9115 S   0  0  0  0  0  0  0  0  0  0  0  0
    7.5299  -13.2038   25.7266 C   0  0  0  0  0  0  0  0  0  0  0  0
    7.6621  -13.8312   24.3936 C   0  0  0  0  0  0  0  0  0  0  0  0
    8.8421  -14.7278   24.1520 C   0  0  2  0  0  0  0  0  0  0  0  0
    8.5290  -15.3683   22.8286 N   0  0  0  0  0  0  0  0  0  0  0  0
    8.7672  -15.9208   25.0829 C   0  0  0  0  0  0  0  0  0  0  0  0
    8.0007  -16.9030   24.7627 O   0  0  0  0  0  0  0  0  0  0  0  0
    9.4987  -15.9962   26.2728 N   0  0  0  0  0  0  0  0  0  0  0  0
    9.9654  -17.3192   26.7493 C   0  0  1  0  0  0  0  0  0  0  0  0
   10.8199  -17.9668   25.7210 C   0  0  0  0  0  0  0  0  0  0  0  0
   11.4715  -19.2471   26.1041 C   0  0  0  0  0  0  0  0  0  0  0  0
   12.2826  -19.8764   25.0238 C   0  0  0  0  0  0  0  0  0  0  0  0
   12.9128  -21.1579   25.5166 C   0  0  0  0  0  0  0  0  0  0  0  0
   13.5926  -21.7379   24.3627 N   0  0  0  0  0  0  0  0  0  0  0  0
   10.4910  -17.1204   28.0913 C   0  0  0  0  0  0  0  0  0  0  0  0
   10.7592  -15.8822   28.6307 O   0  0  0  0  0  0  0  0  0  0  0  0
   10.7411  -18.1120   28.8588 O   0  0  0  0  0  0  0  0  0  0  0  0
  2  1  1  0
  2  3  2  0
  4  2  1  0
  5  4  1  0
  5  7  1  0
  5  6  1  6
  7  8  2  0
  9 10  1  0
 10 11  1  0
 11 12  1  0
 13 12  1  1
 14  7  1  0
 14 13  1  0
 15 13  1  0
 15 16  2  0
 17 15  1  0
 18 17  1  0
 18 24  1  0
 18 19  1  6
 20 21  1  0
 20 19  1  0
 22 21  1  0
 23 22  1  0
 24 25  1  0
 26 24  2  0
M  END
$$$$
