NMK.pdb
     RDKit          3D

 26 25  0  0  1  0  0  0  0  0999 V2000
   10.1683  -16.3060   17.4555 N   0  0  0  0  0  0  0  0  0  0  0  0
    9.0395  -15.9299   18.2080 C   0  0  0  0  0  0  0  0  0  0  0  0
    7.8985  -16.1558   17.7653 O   0  0  0  0  0  0  0  0  0  0  0  0
    9.2181  -15.2730   19.5118 C   0  0  0  0  0  0  0  0  0  0  0  0
    8.8577  -16.1754   20.6578 C   0  0  2  0  0  0  0  0  0  0  0  0
    7.4551  -16.5200   20.5395 N   0  0  0  0  0  0  0  0  0  0  0  0
    9.1849  -15.6563   21.9787 C   0  0  0  0  0  0  0  0  0  0  0  0
   10.3948  -15.3380   22.2067 O   0  0  0  0  0  0  0  0  0  0  0  0
    6.2100  -11.9923   27.4054 C   0  0  0  0  0  0  0  0  0  0  0  0
    7.5041  -11.8681   26.2063 S   0  0  0  0  0  0  0  0  0  0  0  0
    7.2627  -12.8494   24.7304 C   0  0  0  0  0  0  0  0  0  0  0  0
    7.4449  -14.3068   24.9052 C   0  0  0  0  0  0  0  0  0  0  0  0
    8.7021  -14.9280   24.3685 C   0  0  2  0  0  0  0  0  0  0  0  0
    8.2798  -15.4731   23.0328 N   0  0  0  0  0  0  0  0  0  0  0  0
    8.9974  -16.2049   25.1288 C   0  0  0  0  0  0  0  0  0  0  0  0
    8.1818  -17.1927   25.0113 O   0  0  0  0  0  0  0  0  0  0  0  0
   10.1204  -16.3513   25.9498 N   0  0  0  0  0  0  0  0  0  0  0  0
   10.4394  -17.6883   26.5030 C   0  0  1  0  0  0  0  0  0  0  0  0
   11.4471  -18.3725   25.6525 C   0  0  0  0  0  0  0  0  0  0  0  0
   12.0027  -19.6499   26.1720 C   0  0  0  0  0  0  0  0  0  0  0  0
   13.1153  -20.2172   25.3589 C   0  0  0  0  0  0  0  0  0  0  0  0
   13.6976  -21.4341   26.0389 C   0  0  0  0  0  0  0  0  0  0  0  0
   14.7570  -21.9150   25.1579 N   0  0  0  0  0  0  0  0  0  0  0  0
   10.7104  -17.5023   27.9202 C   0  0  0  0  0  0  0  0  0  0  0  0
   10.6582  -18.5189   28.8475 O   0  0  0  0  0  0  0  0  0  0  0  0
   11.0160  -16.3537   28.3914 O   0  0  0  0  0  0  0  0  0  0  0  0
  2  1  1  0
  2  3  2  0
  4  2  1  0
  5  4  1  0
  5  7  1  0
  5  6  1  1
  7  8  2  0
  9 10  1  0
 10 11  1  0
 11 12  1  0
 13 12  1  1
 14  7  1  0
 14 13  1  0
 15 13  1  0
 15 16  2  0
 17 15  1  0
 18 17  1  0
 18 24  1  0
 18 19  1  6
 20 21  1  0
 20 19  1  0
 22 21  1  0
 23 22  1  0
 24 25  1  0
 26 24  2  0
M  END
$$$$
