NMK.pdb
     RDKit          3D

 26 25  0  0  1  0  0  0  0  0999 V2000
    8.9057  -17.5167   18.3141 N   0  0  0  0  0  0  0  0  0  0  0  0
    9.2914  -16.1652   18.3958 C   0  0  0  0  0  0  0  0  0  0  0  0
    9.6322  -15.5565   17.3651 O   0  0  0  0  0  0  0  0  0  0  0  0
    9.2882  -15.4835   19.6991 C   0  0  0  0  0  0  0  0  0  0  0  0
    8.9634  -16.4183   20.8295 C   0  0  2  0  0  0  0  0  0  0  0  0
    7.6157  -16.9143   20.6344 N   0  0  0  0  0  0  0  0  0  0  0  0
    9.1559  -15.8649   22.1629 C   0  0  0  0  0  0  0  0  0  0  0  0
   10.2979  -15.3809   22.4438 O   0  0  0  0  0  0  0  0  0  0  0  0
    6.2765  -10.9354   26.3393 C   0  0  0  0  0  0  0  0  0  0  0  0
    6.8716  -12.5950   26.4781 S   0  0  0  0  0  0  0  0  0  0  0  0
    6.6698  -13.5949   25.0087 C   0  0  0  0  0  0  0  0  0  0  0  0
    7.1477  -14.9899   25.1244 C   0  0  0  0  0  0  0  0  0  0  0  0
    8.4995  -15.3195   24.5601 C   0  0  2  0  0  0  0  0  0  0  0  0
    8.1886  -15.8160   23.1757 N   0  0  0  0  0  0  0  0  0  0  0  0
    9.0251  -16.5805   25.2153 C   0  0  0  0  0  0  0  0  0  0  0  0
    8.2962  -17.6399   25.1820 O   0  0  0  0  0  0  0  0  0  0  0  0
   10.2695  -16.6376   25.8515 N   0  0  0  0  0  0  0  0  0  0  0  0
   10.7293  -17.9258   26.4209 C   0  0  1  0  0  0  0  0  0  0  0  0
   12.0993  -18.2430   25.9417 C   0  0  0  0  0  0  0  0  0  0  0  0
   12.7614  -19.4277   26.5486 C   0  0  0  0  0  0  0  0  0  0  0  0
   14.1310  -19.7045   26.0304 C   0  0  0  0  0  0  0  0  0  0  0  0
   14.7512  -20.8644   26.7737 C   0  0  0  0  0  0  0  0  0  0  0  0
   16.1235  -20.9625   26.2869 N   0  0  0  0  0  0  0  0  0  0  0  0
   10.4695  -17.8690   27.8513 C   0  0  0  0  0  0  0  0  0  0  0  0
   10.3815  -18.9827   28.6562 O   0  0  0  0  0  0  0  0  0  0  0  0
   10.3014  -16.7521   28.4506 O   0  0  0  0  0  0  0  0  0  0  0  0
  2  1  1  0
  2  3  2  0
  4  2  1  0
  5  4  1  0
  5  7  1  0
  5  6  1  1
  7  8  2  0
  9 10  1  0
 10 11  1  0
 11 12  1  0
 13 12  1  1
 14  7  1  0
 14 13  1  0
 15 13  1  0
 15 16  2  0
 17 15  1  0
 18 17  1  0
 18 24  1  0
 18 19  1  1
 20 21  1  0
 20 19  1  0
 22 21  1  0
 23 22  1  0
 24 25  1  0
 26 24  2  0
M  END
$$$$
