NMK.pdb
     RDKit          3D

 26 25  0  0  1  0  0  0  0  0999 V2000
    8.5794  -17.5612   18.6633 N   0  0  0  0  0  0  0  0  0  0  0  0
    8.8704  -16.1848   18.6094 C   0  0  0  0  0  0  0  0  0  0  0  0
    8.9362  -15.6100   17.5076 O   0  0  0  0  0  0  0  0  0  0  0  0
    9.0940  -15.4375   19.8563 C   0  0  0  0  0  0  0  0  0  0  0  0
    9.0546  -16.3259   21.0672 C   0  0  2  0  0  0  0  0  0  0  0  0
    7.7870  -17.0284   21.0729 N   0  0  0  0  0  0  0  0  0  0  0  0
    9.3151  -15.6553   22.3336 C   0  0  0  0  0  0  0  0  0  0  0  0
   10.3614  -14.9375   22.4191 O   0  0  0  0  0  0  0  0  0  0  0  0
    5.6851  -11.5734   26.9430 C   0  0  0  0  0  0  0  0  0  0  0  0
    7.1501  -11.9351   26.0206 S   0  0  0  0  0  0  0  0  0  0  0  0
    6.9875  -13.2657   24.8363 C   0  0  0  0  0  0  0  0  0  0  0  0
    7.5186  -14.5730   25.2797 C   0  0  0  0  0  0  0  0  0  0  0  0
    8.8556  -15.0054   24.7504 C   0  0  2  0  0  0  0  0  0  0  0  0
    8.5107  -15.7288   23.4787 N   0  0  0  0  0  0  0  0  0  0  0  0
    9.3908  -16.1400   25.6001 C   0  0  0  0  0  0  0  0  0  0  0  0
    9.6689  -15.9054   26.8339 O   0  0  0  0  0  0  0  0  0  0  0  0
    9.5917  -17.4295   25.0967 N   0  0  0  0  0  0  0  0  0  0  0  0
   10.2168  -18.4533   25.9663 C   0  0  1  0  0  0  0  0  0  0  0  0
   11.2592  -19.2010   25.2171 C   0  0  0  0  0  0  0  0  0  0  0  0
   12.1006  -20.1419   26.0027 C   0  0  0  0  0  0  0  0  0  0  0  0
   13.0989  -20.9001   25.1969 C   0  0  0  0  0  0  0  0  0  0  0  0
   13.8409  -21.8857   26.0689 C   0  0  0  0  0  0  0  0  0  0  0  0
   14.5984  -22.7355   25.1557 N   0  0  0  0  0  0  0  0  0  0  0  0
   10.5720  -17.7873   27.2101 C   0  0  0  0  0  0  0  0  0  0  0  0
   10.2500  -18.2756   28.4567 O   0  0  0  0  0  0  0  0  0  0  0  0
   11.2158  -16.6827   27.2100 O   0  0  0  0  0  0  0  0  0  0  0  0
  2  1  1  0
  2  3  2  0
  4  2  1  0
  5  4  1  0
  5  7  1  0
  5  6  1  1
  7  8  2  0
  9 10  1  0
 10 11  1  0
 11 12  1  0
 13 12  1  1
 14  7  1  0
 14 13  1  0
 15 13  1  0
 15 16  2  0
 17 15  1  0
 18 17  1  0
 18 24  1  0
 18 19  1  6
 20 21  1  0
 20 19  1  0
 22 21  1  0
 23 22  1  0
 24 25  1  0
 26 24  2  0
M  END
$$$$
