NMK.pdb
     RDKit          3D

 26 25  0  0  1  0  0  0  0  0999 V2000
    6.7178  -17.3648   18.3606 N   0  0  0  0  0  0  0  0  0  0  0  0
    7.0548  -18.2734   19.3818 C   0  0  0  0  0  0  0  0  0  0  0  0
    6.8667  -19.4918   19.2116 O   0  0  0  0  0  0  0  0  0  0  0  0
    7.6269  -17.7749   20.6418 C   0  0  0  0  0  0  0  0  0  0  0  0
    7.7304  -16.2763   20.6662 C   0  0  2  0  0  0  0  0  0  0  0  0
    8.3300  -15.8430   19.4200 N   0  0  0  0  0  0  0  0  0  0  0  0
    8.4170  -15.7237   21.8258 C   0  0  0  0  0  0  0  0  0  0  0  0
    9.6854  -15.6446   21.7807 O   0  0  0  0  0  0  0  0  0  0  0  0
    5.9086  -10.8925   26.3497 C   0  0  0  0  0  0  0  0  0  0  0  0
    6.6321  -12.3744   26.9888 S   0  0  0  0  0  0  0  0  0  0  0  0
    7.9806  -13.0361   26.0177 C   0  0  0  0  0  0  0  0  0  0  0  0
    7.5814  -13.7257   24.7715 C   0  0  0  0  0  0  0  0  0  0  0  0
    8.5806  -14.6388   24.1216 C   0  0  2  0  0  0  0  0  0  0  0  0
    7.8023  -15.2663   22.9991 N   0  0  0  0  0  0  0  0  0  0  0  0
    8.8256  -15.8363   25.0170 C   0  0  0  0  0  0  0  0  0  0  0  0
    7.9388  -16.7673   25.0543 O   0  0  0  0  0  0  0  0  0  0  0  0
    9.9765  -15.9690   25.8009 N   0  0  0  0  0  0  0  0  0  0  0  0
   10.3825  -17.3171   26.2625 C   0  0  1  0  0  0  0  0  0  0  0  0
   11.4616  -17.8568   25.3959 C   0  0  0  0  0  0  0  0  0  0  0  0
   12.0815  -19.1393   25.8217 C   0  0  0  0  0  0  0  0  0  0  0  0
   13.2297  -19.5813   24.9808 C   0  0  0  0  0  0  0  0  0  0  0  0
   13.8546  -20.8303   25.5566 C   0  0  0  0  0  0  0  0  0  0  0  0
   14.9889  -21.1436   24.6934 N   0  0  0  0  0  0  0  0  0  0  0  0
   10.6012  -17.2210   27.6977 C   0  0  0  0  0  0  0  0  0  0  0  0
   11.2315  -16.1577   28.3045 O   0  0  0  0  0  0  0  0  0  0  0  0
   10.2121  -18.1453   28.4908 O   0  0  0  0  0  0  0  0  0  0  0  0
  2  1  1  0
  2  3  2  0
  4  2  1  0
  5  4  1  0
  5  7  1  0
  5  6  1  6
  7  8  2  0
  9 10  1  0
 10 11  1  0
 11 12  1  0
 13 12  1  1
 14  7  1  0
 14 13  1  0
 15 13  1  0
 15 16  2  0
 17 15  1  0
 18 17  1  0
 18 24  1  0
 18 19  1  6
 20 21  1  0
 20 19  1  0
 22 21  1  0
 23 22  1  0
 24 25  1  0
 26 24  2  0
M  END
$$$$
