NMK.pdb
     RDKit          3D

 26 25  0  0  1  0  0  0  0  0999 V2000
    9.4805  -15.6623   17.5221 N   0  0  0  0  0  0  0  0  0  0  0  0
    8.3111  -15.5134   18.2918 C   0  0  0  0  0  0  0  0  0  0  0  0
    7.2132  -15.8627   17.8214 O   0  0  0  0  0  0  0  0  0  0  0  0
    8.3970  -14.9461   19.6461 C   0  0  0  0  0  0  0  0  0  0  0  0
    8.5124  -16.0088   20.7019 C   0  0  2  0  0  0  0  0  0  0  0  0
    7.2762  -16.7648   20.7212 N   0  0  0  0  0  0  0  0  0  0  0  0
    8.8803  -15.5262   22.0259 C   0  0  0  0  0  0  0  0  0  0  0  0
   10.0715  -15.1149   22.1963 O   0  0  0  0  0  0  0  0  0  0  0  0
    7.3935  -11.5239   27.2983 C   0  0  0  0  0  0  0  0  0  0  0  0
    6.1675  -12.1230   26.1731 S   0  0  0  0  0  0  0  0  0  0  0  0
    6.8059  -13.0594   24.7892 C   0  0  0  0  0  0  0  0  0  0  0  0
    7.2291  -14.4413   25.1042 C   0  0  0  0  0  0  0  0  0  0  0  0
    8.4931  -14.9509   24.4742 C   0  0  2  0  0  0  0  0  0  0  0  0
    8.0336  -15.4724   23.1413 N   0  0  0  0  0  0  0  0  0  0  0  0
    8.9180  -16.2322   25.1624 C   0  0  0  0  0  0  0  0  0  0  0  0
    8.1822  -17.2780   25.0224 O   0  0  0  0  0  0  0  0  0  0  0  0
   10.0770  -16.3219   25.9403 N   0  0  0  0  0  0  0  0  0  0  0  0
   10.5287  -17.6527   26.4095 C   0  0  1  0  0  0  0  0  0  0  0  0
   11.6756  -18.1268   25.5928 C   0  0  0  0  0  0  0  0  0  0  0  0
   11.6921  -19.5708   25.2394 C   0  0  0  0  0  0  0  0  0  0  0  0
   11.8514  -19.8502   23.7842 C   0  0  0  0  0  0  0  0  0  0  0  0
   11.6729  -21.3248   23.5082 C   0  0  0  0  0  0  0  0  0  0  0  0
   11.7794  -21.4756   22.0605 N   0  0  0  0  0  0  0  0  0  0  0  0
   10.6714  -17.5621   27.8545 C   0  0  0  0  0  0  0  0  0  0  0  0
   10.8054  -18.6569   28.6788 O   0  0  0  0  0  0  0  0  0  0  0  0
   10.6765  -16.4308   28.4503 O   0  0  0  0  0  0  0  0  0  0  0  0
  2  1  1  0
  2  3  2  0
  4  2  1  0
  5  4  1  0
  5  7  1  0
  5  6  1  1
  7  8  2  0
  9 10  1  0
 10 11  1  0
 11 12  1  0
 13 12  1  1
 14  7  1  0
 14 13  1  0
 15 13  1  0
 15 16  2  0
 17 15  1  0
 18 17  1  0
 18 24  1  0
 18 19  1  6
 20 21  1  0
 20 19  1  0
 22 21  1  0
 23 22  1  0
 24 25  1  0
 26 24  2  0
M  END
$$$$
