NMK.pdb
     RDKit          3D

 26 25  0  0  1  0  0  0  0  0999 V2000
    7.8747  -18.1356   18.4023 N   0  0  0  0  0  0  0  0  0  0  0  0
    8.8574  -17.1471   18.2044 C   0  0  0  0  0  0  0  0  0  0  0  0
    9.3513  -16.9845   17.0737 O   0  0  0  0  0  0  0  0  0  0  0  0
    9.2923  -16.3143   19.3360 C   0  0  0  0  0  0  0  0  0  0  0  0
    8.5646  -16.6545   20.6057 C   0  0  2  0  0  0  0  0  0  0  0  0
    7.1418  -16.5321   20.3594 N   0  0  0  0  0  0  0  0  0  0  0  0
    8.9845  -15.9003   21.7788 C   0  0  0  0  0  0  0  0  0  0  0  0
   10.2326  -15.7484   21.9695 O   0  0  0  0  0  0  0  0  0  0  0  0
    6.4242  -11.0848   27.5956 C   0  0  0  0  0  0  0  0  0  0  0  0
    6.2642  -11.9551   26.0643 S   0  0  0  0  0  0  0  0  0  0  0  0
    7.6035  -13.0808   25.6921 C   0  0  0  0  0  0  0  0  0  0  0  0
    7.5211  -13.7448   24.3730 C   0  0  0  0  0  0  0  0  0  0  0  0
    8.6475  -14.6526   23.9707 C   0  0  2  0  0  0  0  0  0  0  0  0
    8.1309  -15.3203   22.7270 N   0  0  0  0  0  0  0  0  0  0  0  0
    8.7164  -15.8246   24.9285 C   0  0  0  0  0  0  0  0  0  0  0  0
    7.8952  -16.8011   24.7648 O   0  0  0  0  0  0  0  0  0  0  0  0
    9.6372  -15.8864   25.9797 N   0  0  0  0  0  0  0  0  0  0  0  0
    9.8890  -17.1879   26.6415 C   0  0  1  0  0  0  0  0  0  0  0  0
   10.5689  -18.1204   25.7060 C   0  0  0  0  0  0  0  0  0  0  0  0
   11.0549  -19.4037   26.2781 C   0  0  0  0  0  0  0  0  0  0  0  0
   11.7202  -20.3065   25.2966 C   0  0  0  0  0  0  0  0  0  0  0  0
   12.0990  -21.6126   25.9545 C   0  0  0  0  0  0  0  0  0  0  0  0
   12.6499  -22.4492   24.8931 N   0  0  0  0  0  0  0  0  0  0  0  0
   10.5035  -16.8931   27.9269 C   0  0  0  0  0  0  0  0  0  0  0  0
   10.5765  -17.7965   28.9635 O   0  0  0  0  0  0  0  0  0  0  0  0
   11.0185  -15.7480   28.1682 O   0  0  0  0  0  0  0  0  0  0  0  0
  2  1  1  0
  2  3  2  0
  4  2  1  0
  5  4  1  0
  5  7  1  0
  5  6  1  6
  7  8  2  0
  9 10  1  0
 10 11  1  0
 11 12  1  0
 13 12  1  1
 14  7  1  0
 14 13  1  0
 15 13  1  0
 15 16  2  0
 17 15  1  0
 18 17  1  0
 18 24  1  0
 18 19  1  6
 20 21  1  0
 20 19  1  0
 22 21  1  0
 23 22  1  0
 24 25  1  0
 26 24  2  0
M  END
$$$$
