NMK.pdb
     RDKit          3D

 26 25  0  0  1  0  0  0  0  0999 V2000
    8.5934  -16.3362   17.5835 N   0  0  0  0  0  0  0  0  0  0  0  0
    9.5731  -16.5966   18.5604 C   0  0  0  0  0  0  0  0  0  0  0  0
   10.3966  -17.5122   18.3808 O   0  0  0  0  0  0  0  0  0  0  0  0
    9.6153  -15.7839   19.7856 C   0  0  0  0  0  0  0  0  0  0  0  0
    9.2315  -16.5728   21.0053 C   0  0  2  0  0  0  0  0  0  0  0  0
    7.8498  -16.9859   20.8616 N   0  0  0  0  0  0  0  0  0  0  0  0
    9.4737  -15.9025   22.2754 C   0  0  0  0  0  0  0  0  0  0  0  0
   10.6740  -15.5974   22.5644 O   0  0  0  0  0  0  0  0  0  0  0  0
    7.0590  -10.8798   26.3474 C   0  0  0  0  0  0  0  0  0  0  0  0
    6.3390  -12.4672   26.6469 S   0  0  0  0  0  0  0  0  0  0  0  0
    7.4358  -13.8555   26.3840 C   0  0  0  0  0  0  0  0  0  0  0  0
    7.5391  -14.3214   24.9840 C   0  0  0  0  0  0  0  0  0  0  0  0
    8.8395  -14.9249   24.5374 C   0  0  2  0  0  0  0  0  0  0  0  0
    8.4958  -15.5590   23.2186 N   0  0  0  0  0  0  0  0  0  0  0  0
    9.1445  -16.1455   25.3817 C   0  0  0  0  0  0  0  0  0  0  0  0
    8.3019  -17.1174   25.3838 O   0  0  0  0  0  0  0  0  0  0  0  0
   10.3046  -16.2568   26.1552 N   0  0  0  0  0  0  0  0  0  0  0  0
   10.5526  -17.5096   26.9063 C   0  0  1  0  0  0  0  0  0  0  0  0
   11.6769  -18.2644   26.2954 C   0  0  0  0  0  0  0  0  0  0  0  0
   12.1382  -19.4779   27.0199 C   0  0  0  0  0  0  0  0  0  0  0  0
   13.2733  -20.1926   26.3704 C   0  0  0  0  0  0  0  0  0  0  0  0
   13.5726  -21.4804   27.1015 C   0  0  0  0  0  0  0  0  0  0  0  0
   14.5829  -22.1672   26.3030 N   0  0  0  0  0  0  0  0  0  0  0  0
   10.6173  -17.1491   28.3143 C   0  0  0  0  0  0  0  0  0  0  0  0
   10.5403  -15.8538   28.7752 O   0  0  0  0  0  0  0  0  0  0  0  0
   10.7561  -18.0399   29.2209 O   0  0  0  0  0  0  0  0  0  0  0  0
  2  1  1  0
  2  3  2  0
  4  2  1  0
  5  4  1  0
  5  7  1  0
  5  6  1  6
  7  8  2  0
  9 10  1  0
 10 11  1  0
 11 12  1  0
 13 12  1  1
 14  7  1  0
 14 13  1  0
 15 13  1  0
 15 16  2  0
 17 15  1  0
 18 17  1  0
 18 24  1  0
 18 19  1  6
 20 21  1  0
 20 19  1  0
 22 21  1  0
 23 22  1  0
 24 25  1  0
 26 24  2  0
M  END
$$$$
