KVN.pdb
     RDKit          3D

 25 24  0  0  1  0  0  0  0  0999 V2000
   19.1292  -13.8637  -15.5346 N   0  0  0  0  0  0  0  0  0  0  0  0
   18.9899  -12.5657  -16.2169 C   0  0  1  0  0  0  0  0  0  0  0  0
   17.4783  -12.3644  -16.3377 C   0  0  0  0  0  0  0  0  0  0  0  0
   16.8608  -13.1588  -17.4269 C   0  0  0  0  0  0  0  0  0  0  0  0
   16.9196  -12.5508  -18.7859 C   0  0  0  0  0  0  0  0  0  0  0  0
   16.2224  -13.2729  -19.8860 C   0  0  0  0  0  0  0  0  0  0  0  0
   16.4183  -12.6725  -21.1781 N   0  0  0  0  0  0  0  0  0  0  0  0
   19.5369  -11.4820  -15.3773 C   0  0  0  0  0  0  0  0  0  0  0  0
   19.1602  -11.3181  -14.2137 O   0  0  0  0  0  0  0  0  0  0  0  0
   23.1749   -9.7657  -16.5643 C   0  0  0  0  0  0  0  0  0  0  0  0
   22.5569   -9.6785  -15.2176 C   0  0  2  0  0  0  0  0  0  0  0  0
   23.0100  -10.8764  -14.4110 C   0  0  0  0  0  0  0  0  0  0  0  0
   21.0747   -9.4845  -15.1723 C   0  0  2  0  0  0  0  0  0  0  0  0
   20.5137  -10.6189  -15.9295 N   0  0  0  0  0  0  0  0  0  0  0  0
   20.5769   -8.2429  -15.7611 C   0  0  0  0  0  0  0  0  0  0  0  0
   20.2153   -8.2083  -16.9620 O   0  0  0  0  0  0  0  0  0  0  0  0
   18.4977   -3.5477  -16.5804 N   0  0  0  0  0  0  0  0  0  0  0  0
   17.8440   -4.5604  -15.8381 C   0  0  0  0  0  0  0  0  0  0  0  0
   16.6154   -4.4590  -15.5135 O   0  0  0  0  0  0  0  0  0  0  0  0
   18.5319   -5.7692  -15.4067 C   0  0  0  0  0  0  0  0  0  0  0  0
   20.0029   -5.8311  -15.7278 C   0  0  2  0  0  0  0  0  0  0  0  0
   20.4790   -7.0408  -15.0210 N   0  0  0  0  0  0  0  0  0  0  0  0
   20.6843   -4.6387  -15.1507 C   0  0  0  0  0  0  0  0  0  0  0  0
   20.9415   -3.4607  -15.8132 O   0  0  0  0  0  0  0  0  0  0  0  0
   21.0814   -4.6729  -13.9341 O   0  0  0  0  0  0  0  0  0  0  0  0
  2  1  1  1
  3  2  1  0
  4  5  1  0
  4  3  1  0
  5  6  1  0
  6  7  1  0
  8  2  1  0
  8 14  1  0
  9  8  2  0
 11 13  1  0
 11 10  1  6
 12 11  1  0
 13 14  1  6
 15 13  1  0
 16 15  2  0
 17 18  1  0
 18 19  2  0
 20 18  1  0
 21 20  1  1
 21 22  1  0
 21 23  1  0
 22 15  1  0
 23 24  1  0
 25 23  2  0
M  END
$$$$
