KVN.pdb
     RDKit          3D

 25 24  0  0  1  0  0  0  0  0999 V2000
   18.9657  -15.7141  -17.5434 N   0  0  0  0  0  0  0  0  0  0  0  0
   18.4217  -14.3545  -17.3846 C   0  0  1  0  0  0  0  0  0  0  0  0
   17.3513  -14.5017  -16.3017 C   0  0  0  0  0  0  0  0  0  0  0  0
   16.1014  -15.1345  -16.7875 C   0  0  0  0  0  0  0  0  0  0  0  0
   14.8399  -14.4119  -16.4612 C   0  0  0  0  0  0  0  0  0  0  0  0
   13.5629  -15.0354  -16.9065 C   0  0  0  0  0  0  0  0  0  0  0  0
   12.3954  -14.4088  -16.3476 N   0  0  0  0  0  0  0  0  0  0  0  0
   19.4652  -13.4382  -16.8845 C   0  0  0  0  0  0  0  0  0  0  0  0
   20.2653  -13.7898  -16.0132 O   0  0  0  0  0  0  0  0  0  0  0  0
   20.4426  -10.0306  -19.2386 C   0  0  0  0  0  0  0  0  0  0  0  0
   21.2589  -10.7185  -18.2074 C   0  0  2  0  0  0  0  0  0  0  0  0
   22.0044  -11.8543  -18.8744 C   0  0  0  0  0  0  0  0  0  0  0  0
   20.5442  -11.1522  -16.9673 C   0  0  2  0  0  0  0  0  0  0  0  0
   19.5399  -12.1312  -17.4232 N   0  0  0  0  0  0  0  0  0  0  0  0
   19.8584  -10.0960  -16.2254 C   0  0  0  0  0  0  0  0  0  0  0  0
   18.7464   -9.6643  -16.6143 O   0  0  0  0  0  0  0  0  0  0  0  0
   17.7264   -6.8882  -12.9868 N   0  0  0  0  0  0  0  0  0  0  0  0
   18.2938   -8.0432  -12.3969 C   0  0  0  0  0  0  0  0  0  0  0  0
   17.9578   -8.4265  -11.2284 O   0  0  0  0  0  0  0  0  0  0  0  0
   19.2858   -8.8560  -13.0867 C   0  0  0  0  0  0  0  0  0  0  0  0
   19.6896   -8.3692  -14.4544 C   0  0  2  0  0  0  0  0  0  0  0  0
   20.4028   -9.5188  -15.0539 N   0  0  0  0  0  0  0  0  0  0  0  0
   20.6435   -7.2339  -14.3120 C   0  0  0  0  0  0  0  0  0  0  0  0
   22.0017   -7.2939  -14.5228 O   0  0  0  0  0  0  0  0  0  0  0  0
   20.2005   -6.0843  -13.9641 O   0  0  0  0  0  0  0  0  0  0  0  0
  2  1  1  1
  3  2  1  0
  4  5  1  0
  4  3  1  0
  5  6  1  0
  6  7  1  0
  8  2  1  0
  8 14  1  0
  9  8  2  0
 11 13  1  0
 11 10  1  6
 12 11  1  0
 13 14  1  6
 15 13  1  0
 16 15  2  0
 17 18  1  0
 18 19  2  0
 20 18  1  0
 21 20  1  1
 21 22  1  0
 21 23  1  0
 22 15  1  0
 23 24  1  0
 25 23  2  0
M  END
$$$$
