KVN.pdb
     RDKit          3D

 25 24  0  0  1  0  0  0  0  0999 V2000
   21.3772  -13.6547  -18.4782 N   0  0  0  0  0  0  0  0  0  0  0  0
   22.0125  -12.3423  -18.6874 C   0  0  1  0  0  0  0  0  0  0  0  0
   20.9417  -11.5154  -19.4013 C   0  0  0  0  0  0  0  0  0  0  0  0
   19.9502  -12.3385  -20.1350 C   0  0  0  0  0  0  0  0  0  0  0  0
   18.8164  -11.5925  -20.7496 C   0  0  0  0  0  0  0  0  0  0  0  0
   17.8078  -12.3866  -21.5046 C   0  0  0  0  0  0  0  0  0  0  0  0
   16.6493  -11.6246  -21.8860 N   0  0  0  0  0  0  0  0  0  0  0  0
   22.3067  -11.7009  -17.3910 C   0  0  0  0  0  0  0  0  0  0  0  0
   21.6102  -11.9155  -16.3951 O   0  0  0  0  0  0  0  0  0  0  0  0
   25.9031  -10.0314  -14.6129 C   0  0  0  0  0  0  0  0  0  0  0  0
   25.2406  -10.5604  -15.8312 C   0  0  2  0  0  0  0  0  0  0  0  0
   26.1015  -10.2126  -17.0265 C   0  0  0  0  0  0  0  0  0  0  0  0
   23.8063  -10.1861  -16.0296 C   0  0  2  0  0  0  0  0  0  0  0  0
   23.4135  -10.8230  -17.3004 N   0  0  0  0  0  0  0  0  0  0  0  0
   23.5293   -8.7541  -16.1238 C   0  0  0  0  0  0  0  0  0  0  0  0
   23.6953   -8.1438  -17.2074 O   0  0  0  0  0  0  0  0  0  0  0  0
   19.7088   -4.9295  -16.3931 N   0  0  0  0  0  0  0  0  0  0  0  0
   21.1004   -5.1863  -16.4314 C   0  0  0  0  0  0  0  0  0  0  0  0
   21.9399   -4.2638  -16.6946 O   0  0  0  0  0  0  0  0  0  0  0  0
   21.6500   -6.5096  -16.1721 C   0  0  0  0  0  0  0  0  0  0  0  0
   22.8217   -6.5542  -15.2257 C   0  0  2  0  0  0  0  0  0  0  0  0
   23.0684   -7.9986  -15.0198 N   0  0  0  0  0  0  0  0  0  0  0  0
   22.4282   -5.9444  -13.9247 C   0  0  0  0  0  0  0  0  0  0  0  0
   22.4886   -4.6056  -13.6136 O   0  0  0  0  0  0  0  0  0  0  0  0
   21.9907   -6.6983  -12.9872 O   0  0  0  0  0  0  0  0  0  0  0  0
  2  1  1  1
  3  2  1  0
  4  5  1  0
  4  3  1  0
  5  6  1  0
  6  7  1  0
  8  2  1  0
  8 14  1  0
  9  8  2  0
 11 13  1  0
 11 10  1  1
 12 11  1  0
 13 14  1  6
 15 13  1  0
 16 15  2  0
 17 18  1  0
 18 19  2  0
 20 18  1  0
 21 20  1  6
 21 22  1  0
 21 23  1  0
 22 15  1  0
 23 24  1  0
 25 23  2  0
M  END
$$$$
