KVN.pdb
     RDKit          3D

 25 24  0  0  1  0  0  0  0  0999 V2000
   20.7203  -14.3202  -17.3008 N   0  0  0  0  0  0  0  0  0  0  0  0
   20.7623  -12.9509  -17.8422 C   0  0  1  0  0  0  0  0  0  0  0  0
   19.4480  -12.8102  -18.6122 C   0  0  0  0  0  0  0  0  0  0  0  0
   19.1127  -13.9993  -19.4322 C   0  0  0  0  0  0  0  0  0  0  0  0
   17.9165  -13.8646  -20.3102 C   0  0  0  0  0  0  0  0  0  0  0  0
   17.5838  -15.0190  -21.1902 C   0  0  0  0  0  0  0  0  0  0  0  0
   16.3668  -14.8382  -21.9347 N   0  0  0  0  0  0  0  0  0  0  0  0
   20.7653  -11.9639  -16.7447 C   0  0  0  0  0  0  0  0  0  0  0  0
   19.9720  -12.0475  -15.8031 O   0  0  0  0  0  0  0  0  0  0  0  0
   24.3419   -9.8289  -16.0520 C   0  0  0  0  0  0  0  0  0  0  0  0
   23.2149  -10.1457  -15.1396 C   0  0  2  0  0  0  0  0  0  0  0  0
   23.4199  -11.5462  -14.6033 C   0  0  0  0  0  0  0  0  0  0  0  0
   21.8364   -9.9351  -15.6799 C   0  0  2  0  0  0  0  0  0  0  0  0
   21.7025  -10.9037  -16.7840 N   0  0  0  0  0  0  0  0  0  0  0  0
   21.5535   -8.5985  -16.1992 C   0  0  0  0  0  0  0  0  0  0  0  0
   21.9916   -8.2456  -17.3206 O   0  0  0  0  0  0  0  0  0  0  0  0
   19.4382   -3.8158  -16.9070 N   0  0  0  0  0  0  0  0  0  0  0  0
   18.6085   -4.7459  -16.2360 C   0  0  0  0  0  0  0  0  0  0  0  0
   17.4017   -4.4652  -15.9361 O   0  0  0  0  0  0  0  0  0  0  0  0
   19.0815   -6.0691  -15.8538 C   0  0  0  0  0  0  0  0  0  0  0  0
   20.5427   -6.3364  -16.1067 C   0  0  2  0  0  0  0  0  0  0  0  0
   20.7858   -7.6537  -15.4780 N   0  0  0  0  0  0  0  0  0  0  0  0
   21.3610   -5.3101  -15.4023 C   0  0  0  0  0  0  0  0  0  0  0  0
   21.7658   -4.1050  -15.9283 O   0  0  0  0  0  0  0  0  0  0  0  0
   21.7419   -5.5307  -14.2002 O   0  0  0  0  0  0  0  0  0  0  0  0
  2  1  1  1
  3  2  1  0
  4  5  1  0
  4  3  1  0
  5  6  1  0
  6  7  1  0
  8  2  1  0
  8 14  1  0
  9  8  2  0
 11 13  1  0
 11 10  1  6
 12 11  1  0
 13 14  1  6
 15 13  1  0
 16 15  2  0
 17 18  1  0
 18 19  2  0
 20 18  1  0
 21 20  1  1
 21 22  1  0
 21 23  1  0
 22 15  1  0
 23 24  1  0
 25 23  2  0
M  END
$$$$
