KVN.pdb
     RDKit          3D

 25 24  0  0  1  0  0  0  0  0999 V2000
   21.0219  -21.1390  -10.9983 N   0  0  0  0  0  0  0  0  0  0  0  0
   22.1715  -20.3958  -11.5423 C   0  0  1  0  0  0  0  0  0  0  0  0
   23.3782  -20.9742  -10.8012 C   0  0  0  0  0  0  0  0  0  0  0  0
   23.5395  -20.4412   -9.4269 C   0  0  0  0  0  0  0  0  0  0  0  0
   22.7618  -21.1398   -8.3654 C   0  0  0  0  0  0  0  0  0  0  0  0
   22.9033  -20.6334   -6.9721 C   0  0  0  0  0  0  0  0  0  0  0  0
   22.0936  -21.3450   -6.0201 N   0  0  0  0  0  0  0  0  0  0  0  0
   22.3318  -20.6784  -12.9821 C   0  0  0  0  0  0  0  0  0  0  0  0
   22.0178  -21.7715  -13.4613 O   0  0  0  0  0  0  0  0  0  0  0  0
   22.3572  -17.4395  -15.5420 C   0  0  0  0  0  0  0  0  0  0  0  0
   22.1429  -18.8590  -15.9191 C   0  0  2  0  0  0  0  0  0  0  0  0
   20.6760  -19.1817  -15.7327 C   0  0  0  0  0  0  0  0  0  0  0  0
   23.0382  -19.8665  -15.2710 C   0  0  2  0  0  0  0  0  0  0  0  0
   22.8578  -19.6667  -13.8209 N   0  0  0  0  0  0  0  0  0  0  0  0
   24.4613  -19.7468  -15.5817 C   0  0  0  0  0  0  0  0  0  0  0  0
   25.1076  -18.7325  -15.2246 O   0  0  0  0  0  0  0  0  0  0  0  0
   29.3230  -20.7902  -17.4156 N   0  0  0  0  0  0  0  0  0  0  0  0
   28.7275  -21.7639  -16.5783 C   0  0  0  0  0  0  0  0  0  0  0  0
   29.4043  -22.7316  -16.0979 O   0  0  0  0  0  0  0  0  0  0  0  0
   27.3174  -21.7160  -16.2180 C   0  0  0  0  0  0  0  0  0  0  0  0
   26.5770  -20.4764  -16.6489 C   0  0  2  0  0  0  0  0  0  0  0  0
   25.1685  -20.7494  -16.2866 N   0  0  0  0  0  0  0  0  0  0  0  0
   26.6729  -20.3340  -18.1287 C   0  0  0  0  0  0  0  0  0  0  0  0
   25.7943  -20.8631  -19.0458 O   0  0  0  0  0  0  0  0  0  0  0  0
   27.6441  -19.6687  -18.6316 O   0  0  0  0  0  0  0  0  0  0  0  0
  2  1  1  1
  3  2  1  0
  4  5  1  0
  4  3  1  0
  5  6  1  0
  6  7  1  0
  8  2  1  0
  8 14  1  0
  9  8  2  0
 11 13  1  0
 11 10  1  1
 12 11  1  0
 13 14  1  1
 15 13  1  0
 16 15  2  0
 17 18  1  0
 18 19  2  0
 20 18  1  0
 21 20  1  6
 21 22  1  0
 21 23  1  0
 22 15  1  0
 23 24  1  0
 25 23  2  0
M  END
$$$$
