KVN.pdb
     RDKit          3D

 25 24  0  0  1  0  0  0  0  0999 V2000
   18.9172  -13.1194  -17.3561 N   0  0  0  0  0  0  0  0  0  0  0  0
   19.5529  -11.8487  -17.7446 C   0  0  1  0  0  0  0  0  0  0  0  0
   18.4733  -11.1167  -18.5438 C   0  0  0  0  0  0  0  0  0  0  0  0
   17.8991  -11.9284  -19.6439 C   0  0  0  0  0  0  0  0  0  0  0  0
   16.8837  -11.2438  -20.4925 C   0  0  0  0  0  0  0  0  0  0  0  0
   16.2938  -12.0261  -21.6140 C   0  0  0  0  0  0  0  0  0  0  0  0
   17.2644  -12.7901  -22.3506 N   0  0  0  0  0  0  0  0  0  0  0  0
   19.8697  -11.0451  -16.5478 C   0  0  0  0  0  0  0  0  0  0  0  0
   19.0393  -10.8726  -15.6514 O   0  0  0  0  0  0  0  0  0  0  0  0
   24.0071  -10.4272  -15.6570 C   0  0  0  0  0  0  0  0  0  0  0  0
   22.8219  -10.5039  -14.7668 C   0  0  2  0  0  0  0  0  0  0  0  0
   22.5459  -11.9624  -14.4714 C   0  0  0  0  0  0  0  0  0  0  0  0
   21.5992   -9.7685  -15.2150 C   0  0  2  0  0  0  0  0  0  0  0  0
   21.1563  -10.4651  -16.4371 N   0  0  0  0  0  0  0  0  0  0  0  0
   21.7868   -8.3537  -15.5301 C   0  0  0  0  0  0  0  0  0  0  0  0
   22.3346   -8.0084  -16.6047 O   0  0  0  0  0  0  0  0  0  0  0  0
   21.4347   -3.1565  -15.7686 N   0  0  0  0  0  0  0  0  0  0  0  0
   20.2486   -3.9131  -15.6118 C   0  0  0  0  0  0  0  0  0  0  0  0
   19.0978   -3.3805  -15.7432 O   0  0  0  0  0  0  0  0  0  0  0  0
   20.2740   -5.3342  -15.2955 C   0  0  0  0  0  0  0  0  0  0  0  0
   21.6400   -5.9242  -15.0579 C   0  0  2  0  0  0  0  0  0  0  0  0
   21.3679   -7.3223  -14.6567 N   0  0  0  0  0  0  0  0  0  0  0  0
   22.2917   -5.2167  -13.9204 C   0  0  0  0  0  0  0  0  0  0  0  0
   23.2119   -4.1996  -14.0274 O   0  0  0  0  0  0  0  0  0  0  0  0
   21.9971   -5.5556  -12.7215 O   0  0  0  0  0  0  0  0  0  0  0  0
  2  1  1  1
  3  2  1  0
  4  5  1  0
  4  3  1  0
  5  6  1  0
  6  7  1  0
  8  2  1  0
  8 14  1  0
  9  8  2  0
 11 13  1  0
 11 10  1  6
 12 11  1  0
 13 14  1  6
 15 13  1  0
 16 15  2  0
 17 18  1  0
 18 19  2  0
 20 18  1  0
 21 20  1  1
 21 22  1  0
 21 23  1  0
 22 15  1  0
 23 24  1  0
 25 23  2  0
M  END
$$$$
