KVN.pdb
     RDKit          3D

 25 24  0  0  1  0  0  0  0  0999 V2000
   28.4170  -21.6793  -15.5508 N   0  0  0  0  0  0  0  0  0  0  0  0
   27.3595  -20.7236  -15.1793 C   0  0  1  0  0  0  0  0  0  0  0  0
   26.7458  -20.3032  -16.5160 C   0  0  0  0  0  0  0  0  0  0  0  0
   27.6816  -19.5510  -17.3860 C   0  0  0  0  0  0  0  0  0  0  0  0
   27.6100  -18.0663  -17.2839 C   0  0  0  0  0  0  0  0  0  0  0  0
   28.4933  -17.2778  -18.1872 C   0  0  0  0  0  0  0  0  0  0  0  0
   28.4275  -15.8599  -17.9563 N   0  0  0  0  0  0  0  0  0  0  0  0
   26.3162  -21.3960  -14.3804 C   0  0  0  0  0  0  0  0  0  0  0  0
   25.8095  -22.4589  -14.7495 O   0  0  0  0  0  0  0  0  0  0  0  0
   25.3013  -19.7843  -10.4253 C   0  0  0  0  0  0  0  0  0  0  0  0
   25.2831  -21.1829  -10.9217 C   0  0  2  0  0  0  0  0  0  0  0  0
   26.6395  -21.7981  -10.6522 C   0  0  0  0  0  0  0  0  0  0  0  0
   24.8315  -21.3867  -12.3328 C   0  0  2  0  0  0  0  0  0  0  0  0
   25.8962  -20.7994  -13.1674 N   0  0  0  0  0  0  0  0  0  0  0  0
   23.5616  -20.7586  -12.6919 C   0  0  0  0  0  0  0  0  0  0  0  0
   23.5299  -19.5685  -13.0880 O   0  0  0  0  0  0  0  0  0  0  0  0
   18.5539  -21.5256  -15.6751 N   0  0  0  0  0  0  0  0  0  0  0  0
   19.2705  -20.8767  -14.6411 C   0  0  0  0  0  0  0  0  0  0  0  0
   18.8169  -19.8291  -14.0736 O   0  0  0  0  0  0  0  0  0  0  0  0
   20.5577  -21.3660  -14.1675 C   0  0  0  0  0  0  0  0  0  0  0  0
   21.0946  -20.6940  -12.9303 C   0  0  2  0  0  0  0  0  0  0  0  0
   22.3282  -21.4474  -12.6132 N   0  0  0  0  0  0  0  0  0  0  0  0
   20.1247  -20.8697  -11.8133 C   0  0  0  0  0  0  0  0  0  0  0  0
   19.1318  -19.9836  -11.4641 O   0  0  0  0  0  0  0  0  0  0  0  0
   20.1873  -21.9243  -11.0904 O   0  0  0  0  0  0  0  0  0  0  0  0
  2  1  1  6
  3  2  1  0
  4  5  1  0
  4  3  1  0
  5  6  1  0
  6  7  1  0
  8  2  1  0
  8 14  1  0
  9  8  2  0
 11 13  1  0
 11 10  1  6
 12 11  1  0
 13 14  1  6
 15 13  1  0
 16 15  2  0
 17 18  1  0
 18 19  2  0
 20 18  1  0
 21 20  1  6
 21 22  1  0
 21 23  1  0
 22 15  1  0
 23 24  1  0
 25 23  2  0
M  END
$$$$
