KVN.pdb
     RDKit          3D

 25 24  0  0  1  0  0  0  0  0999 V2000
   23.0704  -20.3352  -14.9136 N   0  0  0  0  0  0  0  0  0  0  0  0
   22.7783  -19.2405  -15.8549 C   0  0  1  0  0  0  0  0  0  0  0  0
   21.2598  -19.2915  -16.0319 C   0  0  0  0  0  0  0  0  0  0  0  0
   20.7565  -20.6245  -16.4424 C   0  0  0  0  0  0  0  0  0  0  0  0
   19.7518  -21.2457  -15.5344 C   0  0  0  0  0  0  0  0  0  0  0  0
   19.1686  -22.5502  -15.9541 C   0  0  0  0  0  0  0  0  0  0  0  0
   18.4300  -23.2084  -14.9104 N   0  0  0  0  0  0  0  0  0  0  0  0
   23.1325  -17.9389  -15.2558 C   0  0  0  0  0  0  0  0  0  0  0  0
   22.9318  -17.7056  -14.0607 O   0  0  0  0  0  0  0  0  0  0  0  0
   26.4242  -16.6248  -14.9142 C   0  0  0  0  0  0  0  0  0  0  0  0
   25.6537  -15.6497  -15.7257 C   0  0  2  0  0  0  0  0  0  0  0  0
   26.2633  -14.2793  -15.5226 C   0  0  0  0  0  0  0  0  0  0  0  0
   24.1696  -15.6498  -15.5412 C   0  0  2  0  0  0  0  0  0  0  0  0
   23.7139  -16.9451  -16.0793 N   0  0  0  0  0  0  0  0  0  0  0  0
   23.4429  -14.5822  -16.2256 C   0  0  0  0  0  0  0  0  0  0  0  0
   22.7853  -14.8256  -17.2660 O   0  0  0  0  0  0  0  0  0  0  0  0
   18.7289  -12.1590  -16.2863 N   0  0  0  0  0  0  0  0  0  0  0  0
   20.0860  -11.8950  -16.5903 C   0  0  0  0  0  0  0  0  0  0  0  0
   20.4240  -10.9046  -17.3183 O   0  0  0  0  0  0  0  0  0  0  0  0
   21.1674  -12.7327  -16.0910 C   0  0  0  0  0  0  0  0  0  0  0  0
   22.5600  -12.2754  -16.4405 C   0  0  2  0  0  0  0  0  0  0  0  0
   23.4439  -13.2466  -15.7585 N   0  0  0  0  0  0  0  0  0  0  0  0
   22.7950  -10.9233  -15.8610 C   0  0  0  0  0  0  0  0  0  0  0  0
   22.6293   -9.7267  -16.5194 O   0  0  0  0  0  0  0  0  0  0  0  0
   23.1869  -10.8227  -14.6465 O   0  0  0  0  0  0  0  0  0  0  0  0
  2  1  1  1
  3  2  1  0
  4  5  1  0
  4  3  1  0
  5  6  1  0
  6  7  1  0
  8  2  1  0
  8 14  1  0
  9  8  2  0
 11 13  1  0
 11 10  1  1
 12 11  1  0
 13 14  1  6
 15 13  1  0
 16 15  2  0
 17 18  1  0
 18 19  2  0
 20 18  1  0
 21 20  1  1
 21 22  1  0
 21 23  1  0
 22 15  1  0
 23 24  1  0
 25 23  2  0
M  END
$$$$
