KVN.pdb
     RDKit          3D

 25 24  0  0  1  0  0  0  0  0999 V2000
   29.0208  -21.2378  -14.4768 N   0  0  0  0  0  0  0  0  0  0  0  0
   27.9455  -20.3121  -14.0809 C   0  0  1  0  0  0  0  0  0  0  0  0
   27.3196  -19.8737  -15.4061 C   0  0  0  0  0  0  0  0  0  0  0  0
   28.2285  -19.0600  -16.2490 C   0  0  0  0  0  0  0  0  0  0  0  0
   27.6168  -17.8647  -16.8947 C   0  0  0  0  0  0  0  0  0  0  0  0
   28.5133  -16.9944  -17.7050 C   0  0  0  0  0  0  0  0  0  0  0  0
   27.8438  -15.8553  -18.2729 N   0  0  0  0  0  0  0  0  0  0  0  0
   26.9182  -21.0232  -13.2950 C   0  0  0  0  0  0  0  0  0  0  0  0
   26.5902  -22.1818  -13.5652 O   0  0  0  0  0  0  0  0  0  0  0  0
   25.3366  -19.2642   -9.5815 C   0  0  0  0  0  0  0  0  0  0  0  0
   25.4253  -20.6715  -10.0447 C   0  0  2  0  0  0  0  0  0  0  0  0
   26.7628  -21.2296   -9.6082 C   0  0  0  0  0  0  0  0  0  0  0  0
   25.1464  -20.9185  -11.4931 C   0  0  2  0  0  0  0  0  0  0  0  0
   26.3034  -20.3518  -12.2110 N   0  0  0  0  0  0  0  0  0  0  0  0
   23.9286  -20.3062  -12.0204 C   0  0  0  0  0  0  0  0  0  0  0  0
   23.9956  -19.3266  -12.8014 O   0  0  0  0  0  0  0  0  0  0  0  0
   20.9359  -21.7886  -16.1297 N   0  0  0  0  0  0  0  0  0  0  0  0
   20.8559  -21.0369  -14.9329 C   0  0  0  0  0  0  0  0  0  0  0  0
   19.9179  -20.1962  -14.7370 O   0  0  0  0  0  0  0  0  0  0  0  0
   21.8327  -21.1810  -13.8625 C   0  0  0  0  0  0  0  0  0  0  0  0
   21.5192  -20.4368  -12.5903 C   0  0  2  0  0  0  0  0  0  0  0  0
   22.6378  -20.7783  -11.6839 N   0  0  0  0  0  0  0  0  0  0  0  0
   20.2528  -20.9644  -12.0096 C   0  0  0  0  0  0  0  0  0  0  0  0
   20.1335  -22.0954  -11.2354 O   0  0  0  0  0  0  0  0  0  0  0  0
   19.1568  -20.3398  -12.2273 O   0  0  0  0  0  0  0  0  0  0  0  0
  2  1  1  6
  3  2  1  0
  4  5  1  0
  4  3  1  0
  5  6  1  0
  6  7  1  0
  8  2  1  0
  8 14  1  0
  9  8  2  0
 11 13  1  0
 11 10  1  6
 12 11  1  0
 13 14  1  6
 15 13  1  0
 16 15  2  0
 17 18  1  0
 18 19  2  0
 20 18  1  0
 21 20  1  6
 21 22  1  0
 21 23  1  0
 22 15  1  0
 23 24  1  0
 25 23  2  0
M  END
$$$$
