KVN.pdb
     RDKit          3D

 25 24  0  0  1  0  0  0  0  0999 V2000
   24.0858  -22.1260  -11.7005 N   0  0  0  0  0  0  0  0  0  0  0  0
   23.9834  -21.9058  -13.1534 C   0  0  1  0  0  0  0  0  0  0  0  0
   22.4942  -21.6497  -13.3911 C   0  0  0  0  0  0  0  0  0  0  0  0
   21.6637  -22.8759  -13.3159 C   0  0  0  0  0  0  0  0  0  0  0  0
   20.6087  -22.8805  -12.2638 C   0  0  0  0  0  0  0  0  0  0  0  0
   19.6250  -23.9982  -12.2903 C   0  0  0  0  0  0  0  0  0  0  0  0
   18.5134  -23.8028  -11.3990 N   0  0  0  0  0  0  0  0  0  0  0  0
   24.7310  -20.6945  -13.5438 C   0  0  0  0  0  0  0  0  0  0  0  0
   24.9089  -19.7657  -12.7510 O   0  0  0  0  0  0  0  0  0  0  0  0
   28.4954  -18.9464  -15.7205 C   0  0  0  0  0  0  0  0  0  0  0  0
   27.4540  -19.9475  -15.3792 C   0  0  2  0  0  0  0  0  0  0  0  0
   27.6090  -21.1284  -16.3131 C   0  0  0  0  0  0  0  0  0  0  0  0
   26.0448  -19.4513  -15.3117 C   0  0  2  0  0  0  0  0  0  0  0  0
   25.2498  -20.6077  -14.8581 N   0  0  0  0  0  0  0  0  0  0  0  0
   25.4801  -18.9653  -16.5692 C   0  0  0  0  0  0  0  0  0  0  0  0
   25.2186  -19.7646  -17.5002 O   0  0  0  0  0  0  0  0  0  0  0  0
   21.7958  -17.5220  -18.1029 N   0  0  0  0  0  0  0  0  0  0  0  0
   22.3462  -16.2516  -17.8082 C   0  0  0  0  0  0  0  0  0  0  0  0
   21.6038  -15.2544  -17.5259 O   0  0  0  0  0  0  0  0  0  0  0  0
   23.7826  -16.0122  -17.8085 C   0  0  0  0  0  0  0  0  0  0  0  0
   24.6427  -17.2122  -18.1095 C   0  0  2  0  0  0  0  0  0  0  0  0
   25.2046  -17.5960  -16.7954 N   0  0  0  0  0  0  0  0  0  0  0  0
   25.7590  -16.8059  -19.0085 C   0  0  0  0  0  0  0  0  0  0  0  0
   25.7677  -16.9167  -20.3797 O   0  0  0  0  0  0  0  0  0  0  0  0
   26.8217  -16.3056  -18.4995 O   0  0  0  0  0  0  0  0  0  0  0  0
  2  1  1  1
  3  2  1  0
  4  5  1  0
  4  3  1  0
  5  6  1  0
  6  7  1  0
  8  2  1  0
  8 14  1  0
  9  8  2  0
 11 13  1  0
 11 10  1  6
 12 11  1  0
 13 14  1  6
 15 13  1  0
 16 15  2  0
 17 18  1  0
 18 19  2  0
 20 18  1  0
 21 20  1  1
 21 22  1  0
 21 23  1  0
 22 15  1  0
 23 24  1  0
 25 23  2  0
M  END
$$$$
