KVN.pdb
     RDKit          3D

 25 24  0  0  1  0  0  0  0  0999 V2000
   25.9796  -22.3796  -11.4836 N   0  0  0  0  0  0  0  0  0  0  0  0
   25.7194  -20.9647  -11.8000 C   0  0  1  0  0  0  0  0  0  0  0  0
   25.8156  -20.2533  -10.4493 C   0  0  0  0  0  0  0  0  0  0  0  0
   24.6471  -20.4948   -9.5689 C   0  0  0  0  0  0  0  0  0  0  0  0
   23.3226  -20.5457  -10.2492 C   0  0  0  0  0  0  0  0  0  0  0  0
   22.1172  -20.6762   -9.3846 C   0  0  0  0  0  0  0  0  0  0  0  0
   20.8866  -20.7434  -10.1258 N   0  0  0  0  0  0  0  0  0  0  0  0
   26.7765  -20.4321  -12.6817 C   0  0  0  0  0  0  0  0  0  0  0  0
   27.9636  -20.7219  -12.5093 O   0  0  0  0  0  0  0  0  0  0  0  0
   28.8476  -21.0873  -15.9244 C   0  0  0  0  0  0  0  0  0  0  0  0
   27.4690  -20.7409  -15.4973 C   0  0  2  0  0  0  0  0  0  0  0  0
   26.5302  -21.0311  -16.6485 C   0  0  0  0  0  0  0  0  0  0  0  0
   27.2689  -19.3736  -14.9254 C   0  0  2  0  0  0  0  0  0  0  0  0
   26.4088  -19.5716  -13.7439 N   0  0  0  0  0  0  0  0  0  0  0  0
   26.6268  -18.4019  -15.8084 C   0  0  0  0  0  0  0  0  0  0  0  0
   25.3930  -18.4602  -16.0287 O   0  0  0  0  0  0  0  0  0  0  0  0
   25.8844  -14.5215  -19.3316 N   0  0  0  0  0  0  0  0  0  0  0  0
   27.1762  -14.4636  -18.7557 C   0  0  0  0  0  0  0  0  0  0  0  0
   28.0085  -13.5537  -19.0792 O   0  0  0  0  0  0  0  0  0  0  0  0
   27.6256  -15.4322  -17.7656 C   0  0  0  0  0  0  0  0  0  0  0  0
   26.6091  -16.4679  -17.3597 C   0  0  2  0  0  0  0  0  0  0  0  0
   27.3498  -17.3664  -16.4465 N   0  0  0  0  0  0  0  0  0  0  0  0
   26.1893  -17.2438  -18.5602 C   0  0  0  0  0  0  0  0  0  0  0  0
   24.9853  -17.1230  -19.2147 O   0  0  0  0  0  0  0  0  0  0  0  0
   26.9907  -18.1095  -19.0573 O   0  0  0  0  0  0  0  0  0  0  0  0
  2  1  1  1
  3  2  1  0
  4  5  1  0
  4  3  1  0
  5  6  1  0
  6  7  1  0
  8  2  1  0
  8 14  1  0
  9  8  2  0
 11 13  1  0
 11 10  1  6
 12 11  1  0
 13 14  1  1
 15 13  1  0
 16 15  2  0
 17 18  1  0
 18 19  2  0
 20 18  1  0
 21 20  1  6
 21 22  1  0
 21 23  1  0
 22 15  1  0
 23 24  1  0
 25 23  2  0
M  END
$$$$
