KVN.pdb
     RDKit          3D

 25 24  0  0  1  0  0  0  0  0999 V2000
   28.9785  -23.5969  -17.1873 N   0  0  0  0  0  0  0  0  0  0  0  0
   28.2939  -22.3021  -17.0298 C   0  0  1  0  0  0  0  0  0  0  0  0
   27.5256  -22.1209  -18.3401 C   0  0  0  0  0  0  0  0  0  0  0  0
   28.2289  -21.2638  -19.3246 C   0  0  0  0  0  0  0  0  0  0  0  0
   29.7101  -21.1923  -19.1802 C   0  0  0  0  0  0  0  0  0  0  0  0
   30.4470  -20.3233  -20.1392 C   0  0  0  0  0  0  0  0  0  0  0  0
   29.7488  -20.1210  -21.3801 N   0  0  0  0  0  0  0  0  0  0  0  0
   27.3179  -22.3676  -15.9245 C   0  0  0  0  0  0  0  0  0  0  0  0
   26.7330  -23.4177  -15.6450 O   0  0  0  0  0  0  0  0  0  0  0  0
   26.9955  -18.9044  -13.3304 C   0  0  0  0  0  0  0  0  0  0  0  0
   26.8233  -20.3388  -12.9903 C   0  0  2  0  0  0  0  0  0  0  0  0
   28.1692  -20.8905  -12.5718 C   0  0  0  0  0  0  0  0  0  0  0  0
   26.1472  -21.1933  -14.0146 C   0  0  2  0  0  0  0  0  0  0  0  0
   27.0555  -21.1948  -15.1765 N   0  0  0  0  0  0  0  0  0  0  0  0
   24.8308  -20.7368  -14.4561 C   0  0  0  0  0  0  0  0  0  0  0  0
   24.7264  -19.7876  -15.2700 O   0  0  0  0  0  0  0  0  0  0  0  0
   22.1906  -23.2975  -13.2542 N   0  0  0  0  0  0  0  0  0  0  0  0
   21.4278  -22.9439  -14.3931 C   0  0  0  0  0  0  0  0  0  0  0  0
   20.6170  -23.7668  -14.9321 O   0  0  0  0  0  0  0  0  0  0  0  0
   21.5231  -21.6281  -15.0096 C   0  0  0  0  0  0  0  0  0  0  0  0
   22.3614  -20.6201  -14.2668 C   0  0  2  0  0  0  0  0  0  0  0  0
   23.6312  -21.3307  -13.9975 N   0  0  0  0  0  0  0  0  0  0  0  0
   21.7078  -20.2964  -12.9679 C   0  0  0  0  0  0  0  0  0  0  0  0
   20.5514  -19.5682  -12.8094 O   0  0  0  0  0  0  0  0  0  0  0  0
   22.2376  -20.7138  -11.8798 O   0  0  0  0  0  0  0  0  0  0  0  0
  2  1  1  6
  3  2  1  0
  4  5  1  0
  4  3  1  0
  5  6  1  0
  6  7  1  0
  8  2  1  0
  8 14  1  0
  9  8  2  0
 11 13  1  0
 11 10  1  6
 12 11  1  0
 13 14  1  6
 15 13  1  0
 16 15  2  0
 17 18  1  0
 18 19  2  0
 20 18  1  0
 21 20  1  6
 21 22  1  0
 21 23  1  0
 22 15  1  0
 23 24  1  0
 25 23  2  0
M  END
$$$$
