KVN.pdb
     RDKit          3D

 25 24  0  0  1  0  0  0  0  0999 V2000
   23.4407  -21.0071   -8.0366 N   0  0  0  0  0  0  0  0  0  0  0  0
   22.6436  -21.1476   -9.2673 C   0  0  1  0  0  0  0  0  0  0  0  0
   21.3256  -20.4413   -8.9446 C   0  0  0  0  0  0  0  0  0  0  0  0
   20.1640  -21.3603   -8.8732 C   0  0  0  0  0  0  0  0  0  0  0  0
   20.4223  -22.6831   -8.2382 C   0  0  0  0  0  0  0  0  0  0  0  0
   19.2745  -23.6267   -8.1384 C   0  0  0  0  0  0  0  0  0  0  0  0
   18.3355  -23.2777   -7.1065 N   0  0  0  0  0  0  0  0  0  0  0  0
   23.2919  -20.4330  -10.3843 C   0  0  0  0  0  0  0  0  0  0  0  0
   23.6341  -19.2520  -10.2793 O   0  0  0  0  0  0  0  0  0  0  0  0
   25.2447  -22.7185  -13.2878 C   0  0  0  0  0  0  0  0  0  0  0  0
   25.4160  -21.2738  -12.9938 C   0  0  2  0  0  0  0  0  0  0  0  0
   26.4119  -21.1362  -11.8623 C   0  0  0  0  0  0  0  0  0  0  0  0
   24.1670  -20.4861  -12.7567 C   0  0  2  0  0  0  0  0  0  0  0  0
   23.5207  -21.1273  -11.5965 N   0  0  0  0  0  0  0  0  0  0  0  0
   23.2119  -20.4589  -13.8628 C   0  0  0  0  0  0  0  0  0  0  0  0
   22.4287  -21.4209  -14.0510 O   0  0  0  0  0  0  0  0  0  0  0  0
   19.6950  -19.8551  -14.3589 N   0  0  0  0  0  0  0  0  0  0  0  0
   19.9871  -18.5568  -14.8413 C   0  0  0  0  0  0  0  0  0  0  0  0
   19.1889  -17.5813  -14.6507 O   0  0  0  0  0  0  0  0  0  0  0  0
   21.2090  -18.2618  -15.5766 C   0  0  0  0  0  0  0  0  0  0  0  0
   22.1125  -19.4392  -15.8373 C   0  0  2  0  0  0  0  0  0  0  0  0
   23.1236  -19.3677  -14.7592 N   0  0  0  0  0  0  0  0  0  0  0  0
   22.7953  -19.2561  -17.1485 C   0  0  0  0  0  0  0  0  0  0  0  0
   22.2550  -19.5367  -18.3823 O   0  0  0  0  0  0  0  0  0  0  0  0
   23.9913  -18.8001  -17.1728 O   0  0  0  0  0  0  0  0  0  0  0  0
  2  1  1  1
  3  2  1  0
  4  5  1  0
  4  3  1  0
  5  6  1  0
  6  7  1  0
  8  2  1  0
  8 14  1  0
  9  8  2  0
 11 13  1  0
 11 10  1  1
 12 11  1  0
 13 14  1  1
 15 13  1  0
 16 15  2  0
 17 18  1  0
 18 19  2  0
 20 18  1  0
 21 20  1  1
 21 22  1  0
 21 23  1  0
 22 15  1  0
 23 24  1  0
 25 23  2  0
M  END
$$$$
