WQG.pdb
     RDKit          3D

 28 29  0  0  1  0  0  0  0  0999 V2000
   27.0184  -18.7734   -9.8252 N   0  0  0  0  0  0  0  0  0  0  0  0
   26.5666  -20.1324   -9.6757 C   0  0  1  0  0  0  0  0  0  0  0  0
   25.9461  -20.3108   -8.3213 C   0  0  0  0  0  0  0  0  0  0  0  0
   26.8649  -19.7461   -7.2968 C   0  0  0  0  0  0  0  0  0  0  0  0
   27.0943  -18.3694   -7.1224 C   0  0  0  0  0  0  0  0  0  0  0  0
   27.9391  -18.2152   -6.0951 N   0  0  0  0  0  0  0  0  0  0  0  0
   28.2808  -19.4103   -5.5822 C   0  0  0  0  0  0  0  0  0  0  0  0
   29.1164  -19.7378   -4.5421 C   0  0  0  0  0  0  0  0  0  0  0  0
   29.3030  -21.0619   -4.2261 C   0  0  0  0  0  0  0  0  0  0  0  0
   28.6343  -22.0322   -4.9767 C   0  0  0  0  0  0  0  0  0  0  0  0
   27.7981  -21.6751   -6.0193 C   0  0  0  0  0  0  0  0  0  0  0  0
   27.6065  -20.3641   -6.3382 C   0  0  0  0  0  0  0  0  0  0  0  0
   25.5990  -20.4166  -10.7716 C   0  0  0  0  0  0  0  0  0  0  0  0
   24.5716  -19.7454  -10.8648 O   0  0  0  0  0  0  0  0  0  0  0  0
   23.7590  -20.7082  -16.5250 N   0  0  0  0  0  0  0  0  0  0  0  0
   24.9118  -21.2903  -15.9638 C   0  0  0  0  0  0  0  0  0  0  0  0
   26.0021  -20.6423  -16.1230 O   0  0  0  0  0  0  0  0  0  0  0  0
   24.8808  -22.5892  -15.2221 C   0  0  0  0  0  0  0  0  0  0  0  0
   25.7245  -22.4261  -13.9824 C   0  0  0  0  0  0  0  0  0  0  0  0
   25.0439  -21.5817  -12.9364 C   0  0  2  0  0  0  0  0  0  0  0  0
   25.8253  -21.4558  -11.7314 N   0  0  0  0  0  0  0  0  0  0  0  0
   23.6929  -22.0603  -12.6044 C   0  0  0  0  0  0  0  0  0  0  0  0
   23.5622  -23.0371  -11.8389 O   0  0  0  0  0  0  0  0  0  0  0  0
   22.5099  -21.4435  -13.1303 N   0  0  0  0  0  0  0  0  0  0  0  0
   21.1819  -21.8993  -12.8423 C   0  0  0  0  0  0  0  0  0  0  0  0
   20.8254  -23.1379  -13.5542 C   0  0  0  0  0  0  0  0  0  0  0  0
   19.5595  -23.6678  -13.3524 O   0  0  0  0  0  0  0  0  0  0  0  0
   21.5929  -23.7527  -14.3372 O   0  0  0  0  0  0  0  0  0  0  0  0
  2  1  1  6
  3  4  1  0
  3  2  1  0
  4  5  2  0
  6  5  1  0
  7  6  1  0
  8  7  2  0
  9  8  1  0
 10 11  1  0
 10  9  2  0
 11 12  2  0
 12  7  1  0
 12  4  1  0
 13 21  1  0
 13  2  1  0
 14 13  2  0
 16 15  1  0
 17 16  2  0
 18 16  1  0
 20 19  1  6
 19 18  1  0
 20 22  1  0
 20 21  1  0
 22 23  2  0
 24 25  1  0
 24 22  1  0
 25 26  1  0
 26 28  2  0
 26 27  1  0
M  END
$$$$
