WQG.pdb
     RDKit          3D

 28 29  0  0  1  0  0  0  0  0999 V2000
   24.8044  -21.1751   -9.0538 N   0  0  0  0  0  0  0  0  0  0  0  0
   25.7091  -20.2111   -9.6244 C   0  0  1  0  0  0  0  0  0  0  0  0
   27.0965  -20.4548   -9.1075 C   0  0  0  0  0  0  0  0  0  0  0  0
   27.1098  -20.2089   -7.6406 C   0  0  0  0  0  0  0  0  0  0  0  0
   25.9502  -20.0352   -6.8638 C   0  0  0  0  0  0  0  0  0  0  0  0
   26.3242  -19.8755   -5.5879 N   0  0  0  0  0  0  0  0  0  0  0  0
   27.6631  -19.9331   -5.4784 C   0  0  0  0  0  0  0  0  0  0  0  0
   28.4825  -19.8148   -4.3821 C   0  0  0  0  0  0  0  0  0  0  0  0
   29.8432  -19.9028   -4.5518 C   0  0  0  0  0  0  0  0  0  0  0  0
   30.3474  -20.1100   -5.8382 C   0  0  0  0  0  0  0  0  0  0  0  0
   29.4999  -20.2259   -6.9255 C   0  0  0  0  0  0  0  0  0  0  0  0
   28.1493  -20.1412   -6.7653 C   0  0  0  0  0  0  0  0  0  0  0  0
   25.6384  -20.3377  -11.1065 C   0  0  0  0  0  0  0  0  0  0  0  0
   26.3776  -19.6508  -11.8114 O   0  0  0  0  0  0  0  0  0  0  0  0
   26.1841  -20.6112  -15.5780 N   0  0  0  0  0  0  0  0  0  0  0  0
   27.1051  -21.3261  -14.7884 C   0  0  0  0  0  0  0  0  0  0  0  0
   28.3376  -21.0336  -14.9600 O   0  0  0  0  0  0  0  0  0  0  0  0
   26.6840  -22.3695  -13.8024 C   0  0  0  0  0  0  0  0  0  0  0  0
   25.1780  -22.4469  -13.8364 C   0  0  0  0  0  0  0  0  0  0  0  0
   24.5307  -21.2578  -13.1751 C   0  0  2  0  0  0  0  0  0  0  0  0
   24.7298  -21.2412  -11.7473 N   0  0  0  0  0  0  0  0  0  0  0  0
   23.0953  -21.1455  -13.4776 C   0  0  0  0  0  0  0  0  0  0  0  0
   22.2811  -21.8472  -12.8437 O   0  0  0  0  0  0  0  0  0  0  0  0
   22.5904  -20.2538  -14.4807 N   0  0  0  0  0  0  0  0  0  0  0  0
   21.2017  -20.1428  -14.8178 C   0  0  0  0  0  0  0  0  0  0  0  0
   20.4192  -19.3955  -13.8193 C   0  0  0  0  0  0  0  0  0  0  0  0
   19.2801  -18.7285  -14.2457 O   0  0  0  0  0  0  0  0  0  0  0  0
   20.7129  -19.3191  -12.5995 O   0  0  0  0  0  0  0  0  0  0  0  0
  2  1  1  1
  3  4  1  0
  3  2  1  0
  4  5  2  0
  6  5  1  0
  7  6  1  0
  8  7  2  0
  9  8  1  0
 10 11  1  0
 10  9  2  0
 11 12  2  0
 12  7  1  0
 12  4  1  0
 13 21  1  0
 13  2  1  0
 14 13  2  0
 16 15  1  0
 17 16  2  0
 18 16  1  0
 20 19  1  1
 19 18  1  0
 20 22  1  0
 20 21  1  0
 22 23  2  0
 24 25  1  0
 24 22  1  0
 25 26  1  0
 26 28  2  0
 26 27  1  0
M  END
$$$$
