WQG.pdb
     RDKit          3D

 28 29  0  0  1  0  0  0  0  0999 V2000
   27.8222  -21.8169  -10.4073 N   0  0  0  0  0  0  0  0  0  0  0  0
   26.7286  -21.0130   -9.9264 C   0  0  1  0  0  0  0  0  0  0  0  0
   27.2630  -19.7596   -9.2983 C   0  0  0  0  0  0  0  0  0  0  0  0
   28.2208  -20.1345   -8.2239 C   0  0  0  0  0  0  0  0  0  0  0  0
   29.4189  -20.8355   -8.4506 C   0  0  0  0  0  0  0  0  0  0  0  0
   30.0515  -20.9684   -7.2779 N   0  0  0  0  0  0  0  0  0  0  0  0
   29.3398  -20.3965   -6.2908 C   0  0  0  0  0  0  0  0  0  0  0  0
   29.5886  -20.2960   -4.9435 C   0  0  0  0  0  0  0  0  0  0  0  0
   28.6741  -19.6580   -4.1406 C   0  0  0  0  0  0  0  0  0  0  0  0
   27.5190  -19.1322   -4.7248 C   0  0  0  0  0  0  0  0  0  0  0  0
   27.2929  -19.2470   -6.0848 C   0  0  0  0  0  0  0  0  0  0  0  0
   28.1956  -19.8771   -6.8881 C   0  0  0  0  0  0  0  0  0  0  0  0
   25.8346  -20.7184  -11.0804 C   0  0  0  0  0  0  0  0  0  0  0  0
   26.2017  -19.9251  -11.9469 O   0  0  0  0  0  0  0  0  0  0  0  0
   26.6958  -20.9844  -14.9560 N   0  0  0  0  0  0  0  0  0  0  0  0
   25.4022  -21.5337  -14.8679 C   0  0  0  0  0  0  0  0  0  0  0  0
   24.5553  -21.1162  -15.7296 O   0  0  0  0  0  0  0  0  0  0  0  0
   25.0240  -22.5464  -13.8338 C   0  0  0  0  0  0  0  0  0  0  0  0
   23.6464  -22.1924  -13.3319 C   0  0  0  0  0  0  0  0  0  0  0  0
   23.6755  -21.0637  -12.3340 C   0  0  2  0  0  0  0  0  0  0  0  0
   24.5478  -21.3329  -11.2182 N   0  0  0  0  0  0  0  0  0  0  0  0
   22.3376  -20.6999  -11.8419 C   0  0  0  0  0  0  0  0  0  0  0  0
   21.9374  -21.1700  -10.7574 O   0  0  0  0  0  0  0  0  0  0  0  0
   21.4677  -19.8189  -12.5654 N   0  0  0  0  0  0  0  0  0  0  0  0
   20.1434  -19.4803  -12.1341 C   0  0  0  0  0  0  0  0  0  0  0  0
   19.2004  -20.6083  -12.2124 C   0  0  0  0  0  0  0  0  0  0  0  0
   17.9157  -20.4229  -11.7231 O   0  0  0  0  0  0  0  0  0  0  0  0
   19.4797  -21.7349  -12.6949 O   0  0  0  0  0  0  0  0  0  0  0  0
  2  1  1  6
  3  4  1  0
  3  2  1  0
  4  5  2  0
  6  5  1  0
  7  6  1  0
  8  7  2  0
  9  8  1  0
 10 11  1  0
 10  9  2  0
 11 12  2  0
 12  7  1  0
 12  4  1  0
 13 21  1  0
 13  2  1  0
 14 13  2  0
 16 15  1  0
 17 16  2  0
 18 16  1  0
 20 19  1  6
 19 18  1  0
 20 22  1  0
 20 21  1  0
 22 23  2  0
 24 25  1  0
 24 22  1  0
 25 26  1  0
 26 28  2  0
 26 27  1  0
M  END
$$$$
