WQG.pdb
     RDKit          3D

 28 29  0  0  1  0  0  0  0  0999 V2000
   27.7981  -21.2740   -9.5098 N   0  0  0  0  0  0  0  0  0  0  0  0
   26.4185  -20.9117   -9.3125 C   0  0  1  0  0  0  0  0  0  0  0  0
   26.3352  -19.7248   -8.3984 C   0  0  0  0  0  0  0  0  0  0  0  0
   26.6883  -20.1578   -7.0199 C   0  0  0  0  0  0  0  0  0  0  0  0
   25.9307  -21.0729   -6.2669 C   0  0  0  0  0  0  0  0  0  0  0  0
   26.5524  -21.2639   -5.0964 N   0  0  0  0  0  0  0  0  0  0  0  0
   27.6755  -20.5273   -5.0334 C   0  0  0  0  0  0  0  0  0  0  0  0
   28.6130  -20.3989   -4.0375 C   0  0  0  0  0  0  0  0  0  0  0  0
   29.6796  -19.5539   -4.2284 C   0  0  0  0  0  0  0  0  0  0  0  0
   29.7732  -18.8522   -5.4329 C   0  0  0  0  0  0  0  0  0  0  0  0
   28.8151  -19.0000   -6.4198 C   0  0  0  0  0  0  0  0  0  0  0  0
   27.7551  -19.8371   -6.2388 C   0  0  0  0  0  0  0  0  0  0  0  0
   25.8242  -20.6269  -10.6480 C   0  0  0  0  0  0  0  0  0  0  0  0
   26.3464  -19.7855  -11.3789 O   0  0  0  0  0  0  0  0  0  0  0  0
   26.7655  -20.2024  -14.8002 N   0  0  0  0  0  0  0  0  0  0  0  0
   26.1316  -21.3932  -14.3963 C   0  0  0  0  0  0  0  0  0  0  0  0
   26.8658  -22.2388  -13.7801 O   0  0  0  0  0  0  0  0  0  0  0  0
   24.6858  -21.6688  -14.6643 C   0  0  0  0  0  0  0  0  0  0  0  0
   24.0536  -22.0918  -13.3618 C   0  0  0  0  0  0  0  0  0  0  0  0
   24.0058  -20.9677  -12.3596 C   0  0  2  0  0  0  0  0  0  0  0  0
   24.6528  -21.3057  -11.1163 N   0  0  0  0  0  0  0  0  0  0  0  0
   22.6381  -20.4945  -12.0949 C   0  0  0  0  0  0  0  0  0  0  0  0
   22.0010  -20.9743  -11.1352 O   0  0  0  0  0  0  0  0  0  0  0  0
   22.0024  -19.4949  -12.9032 N   0  0  0  0  0  0  0  0  0  0  0  0
   20.6819  -18.9958  -12.6558 C   0  0  0  0  0  0  0  0  0  0  0  0
   19.6267  -19.9885  -12.9186 C   0  0  0  0  0  0  0  0  0  0  0  0
   18.3182  -19.5406  -13.0251 O   0  0  0  0  0  0  0  0  0  0  0  0
   19.8298  -21.2216  -13.0541 O   0  0  0  0  0  0  0  0  0  0  0  0
  2  1  1  6
  3  4  1  0
  3  2  1  0
  4  5  2  0
  6  5  1  0
  7  6  1  0
  8  7  2  0
  9  8  1  0
 10 11  1  0
 10  9  2  0
 11 12  2  0
 12  7  1  0
 12  4  1  0
 13 21  1  0
 13  2  1  0
 14 13  2  0
 16 15  1  0
 17 16  2  0
 18 16  1  0
 20 19  1  6
 19 18  1  0
 20 22  1  0
 20 21  1  0
 22 23  2  0
 24 25  1  0
 24 22  1  0
 25 26  1  0
 26 28  2  0
 26 27  1  0
M  END
$$$$
