WQG.pdb
     RDKit          3D

 28 29  0  0  1  0  0  0  0  0999 V2000
   26.9466  -22.4575  -13.0782 N   0  0  0  0  0  0  0  0  0  0  0  0
   26.1612  -21.4756  -12.3763 C   0  0  1  0  0  0  0  0  0  0  0  0
   27.0005  -20.2631  -12.0999 C   0  0  0  0  0  0  0  0  0  0  0  0
   27.8580  -20.5354  -10.9155 C   0  0  0  0  0  0  0  0  0  0  0  0
   29.2312  -20.8299  -10.9922 C   0  0  0  0  0  0  0  0  0  0  0  0
   29.6950  -20.9797   -9.7450 N   0  0  0  0  0  0  0  0  0  0  0  0
   28.7072  -20.8018   -8.8501 C   0  0  0  0  0  0  0  0  0  0  0  0
   28.7134  -20.8661   -7.4779 C   0  0  0  0  0  0  0  0  0  0  0  0
   27.5417  -20.6505   -6.7933 C   0  0  0  0  0  0  0  0  0  0  0  0
   26.3809  -20.3728   -7.5196 C   0  0  0  0  0  0  0  0  0  0  0  0
   26.4023  -20.3136   -8.9015 C   0  0  0  0  0  0  0  0  0  0  0  0
   27.5605  -20.5249   -9.5879 C   0  0  0  0  0  0  0  0  0  0  0  0
   24.9759  -21.1507  -13.2173 C   0  0  0  0  0  0  0  0  0  0  0  0
   25.1311  -20.8788  -14.4077 O   0  0  0  0  0  0  0  0  0  0  0  0
   23.7287  -25.4862  -15.5264 N   0  0  0  0  0  0  0  0  0  0  0  0
   22.8845  -24.6181  -14.8076 C   0  0  0  0  0  0  0  0  0  0  0  0
   22.0674  -25.1737  -13.9965 O   0  0  0  0  0  0  0  0  0  0  0  0
   22.9276  -23.1317  -14.9708 C   0  0  0  0  0  0  0  0  0  0  0  0
   22.0387  -22.5309  -13.9107 C   0  0  0  0  0  0  0  0  0  0  0  0
   22.4739  -21.1419  -13.5213 C   0  0  2  0  0  0  0  0  0  0  0  0
   23.6467  -21.1433  -12.6828 N   0  0  0  0  0  0  0  0  0  0  0  0
   21.4032  -20.3662  -12.8761 C   0  0  0  0  0  0  0  0  0  0  0  0
   21.1891  -20.5185  -11.6562 O   0  0  0  0  0  0  0  0  0  0  0  0
   20.5886  -19.4340  -13.5998 N   0  0  0  0  0  0  0  0  0  0  0  0
   19.3725  -19.7939  -14.2676 C   0  0  0  0  0  0  0  0  0  0  0  0
   18.3370  -20.3045  -13.3539 C   0  0  0  0  0  0  0  0  0  0  0  0
   17.6133  -19.3871  -12.6063 O   0  0  0  0  0  0  0  0  0  0  0  0
   18.0608  -21.5214  -13.2030 O   0  0  0  0  0  0  0  0  0  0  0  0
  2  1  1  6
  3  4  1  0
  3  2  1  0
  4  5  2  0
  6  5  1  0
  7  6  1  0
  8  7  2  0
  9  8  1  0
 10 11  1  0
 10  9  2  0
 11 12  2  0
 12  7  1  0
 12  4  1  0
 13 21  1  0
 13  2  1  0
 14 13  2  0
 16 15  1  0
 17 16  2  0
 18 16  1  0
 20 19  1  1
 19 18  1  0
 20 22  1  0
 20 21  1  0
 22 23  2  0
 24 25  1  0
 24 22  1  0
 25 26  1  0
 26 28  2  0
 26 27  1  0
M  END
$$$$
