WQG.pdb
     RDKit          3D

 28 29  0  0  1  0  0  0  0  0999 V2000
   24.3385  -20.0238  -11.1676 N   0  0  0  0  0  0  0  0  0  0  0  0
   25.7350  -20.2466  -11.4391 C   0  0  1  0  0  0  0  0  0  0  0  0
   26.2144  -21.4396  -10.6657 C   0  0  0  0  0  0  0  0  0  0  0  0
   26.4867  -21.0224   -9.2642 C   0  0  0  0  0  0  0  0  0  0  0  0
   25.5042  -20.5262   -8.3885 C   0  0  0  0  0  0  0  0  0  0  0  0
   26.0836  -20.2883   -7.2049 N   0  0  0  0  0  0  0  0  0  0  0  0
   27.3913  -20.5982   -7.2494 C   0  0  0  0  0  0  0  0  0  0  0  0
   28.3700  -20.5116   -6.2893 C   0  0  0  0  0  0  0  0  0  0  0  0
   29.6525  -20.8897   -6.6061 C   0  0  0  0  0  0  0  0  0  0  0  0
   29.9170  -21.3504   -7.8983 C   0  0  0  0  0  0  0  0  0  0  0  0
   28.9126  -21.4280   -8.8465 C   0  0  0  0  0  0  0  0  0  0  0  0
   27.6379  -21.0561   -8.5399 C   0  0  0  0  0  0  0  0  0  0  0  0
   25.8914  -20.4374  -12.9078 C   0  0  0  0  0  0  0  0  0  0  0  0
   24.9497  -20.8765  -13.5675 O   0  0  0  0  0  0  0  0  0  0  0  0
   28.1235  -17.7752  -17.9185 N   0  0  0  0  0  0  0  0  0  0  0  0
   27.6281  -17.1592  -16.7532 C   0  0  0  0  0  0  0  0  0  0  0  0
   27.1909  -15.9660  -16.8916 O   0  0  0  0  0  0  0  0  0  0  0  0
   27.6073  -17.8453  -15.4240 C   0  0  0  0  0  0  0  0  0  0  0  0
   28.1591  -19.2353  -15.6201 C   0  0  0  0  0  0  0  0  0  0  0  0
   27.2749  -20.2914  -15.0094 C   0  0  2  0  0  0  0  0  0  0  0  0
   27.1135  -20.1241  -13.5865 N   0  0  0  0  0  0  0  0  0  0  0  0
   27.7325  -21.6593  -15.2997 C   0  0  0  0  0  0  0  0  0  0  0  0
   28.8256  -21.8275  -15.8777 O   0  0  0  0  0  0  0  0  0  0  0  0
   26.9656  -22.8168  -14.9417 N   0  0  0  0  0  0  0  0  0  0  0  0
   26.1975  -23.5814  -15.8797 C   0  0  0  0  0  0  0  0  0  0  0  0
   27.0184  -24.2084  -16.9289 C   0  0  0  0  0  0  0  0  0  0  0  0
   27.5393  -23.3962  -17.9254 O   0  0  0  0  0  0  0  0  0  0  0  0
   27.2819  -25.4362  -16.9852 O   0  0  0  0  0  0  0  0  0  0  0  0
  2  1  1  6
  3  4  1  0
  3  2  1  0
  4  5  2  0
  6  5  1  0
  7  6  1  0
  8  7  2  0
  9  8  1  0
 10 11  1  0
 10  9  2  0
 11 12  2  0
 12  7  1  0
 12  4  1  0
 13 21  1  0
 13  2  1  0
 14 13  2  0
 16 15  1  0
 17 16  2  0
 18 16  1  0
 20 19  1  1
 19 18  1  0
 20 22  1  0
 20 21  1  0
 22 23  2  0
 24 25  1  0
 24 22  1  0
 25 26  1  0
 26 28  2  0
 26 27  1  0
M  END
$$$$
