WQG.pdb
     RDKit          3D

 28 29  0  0  1  0  0  0  0  0999 V2000
   26.2079  -22.4808  -12.2328 N   0  0  0  0  0  0  0  0  0  0  0  0
   25.5858  -21.4043  -11.5064 C   0  0  1  0  0  0  0  0  0  0  0  0
   26.4559  -20.1836  -11.5719 C   0  0  0  0  0  0  0  0  0  0  0  0
   27.5693  -20.3378  -10.5979 C   0  0  0  0  0  0  0  0  0  0  0  0
   28.8864  -20.6744  -10.9589 C   0  0  0  0  0  0  0  0  0  0  0  0
   29.6319  -20.6894   -9.8466 N   0  0  0  0  0  0  0  0  0  0  0  0
   28.8827  -20.3830   -8.7729 C   0  0  0  0  0  0  0  0  0  0  0  0
   29.2128  -20.2868   -7.4429 C   0  0  0  0  0  0  0  0  0  0  0  0
   28.2353  -19.9628   -6.5332 C   0  0  0  0  0  0  0  0  0  0  0  0
   26.9351  -19.7420   -6.9947 C   0  0  0  0  0  0  0  0  0  0  0  0
   26.6296  -19.8451   -8.3400 C   0  0  0  0  0  0  0  0  0  0  0  0
   27.5936  -20.1647   -9.2486 C   0  0  0  0  0  0  0  0  0  0  0  0
   24.2440  -21.1627  -12.1055 C   0  0  0  0  0  0  0  0  0  0  0  0
   24.0294  -21.4962  -13.2707 O   0  0  0  0  0  0  0  0  0  0  0  0
   18.6096  -21.9243  -12.8670 N   0  0  0  0  0  0  0  0  0  0  0  0
   18.9471  -21.4322  -11.5915 C   0  0  0  0  0  0  0  0  0  0  0  0
   18.8191  -22.2541  -10.6208 O   0  0  0  0  0  0  0  0  0  0  0  0
   19.4284  -20.0336  -11.3674 C   0  0  0  0  0  0  0  0  0  0  0  0
   20.8305  -20.1169  -10.8175 C   0  0  0  0  0  0  0  0  0  0  0  0
   21.8466  -20.4157  -11.8892 C   0  0  2  0  0  0  0  0  0  0  0  0
   23.1828  -20.5486  -11.3645 N   0  0  0  0  0  0  0  0  0  0  0  0
   21.8371  -19.4271  -12.9788 C   0  0  0  0  0  0  0  0  0  0  0  0
   22.5766  -18.4250  -12.9005 O   0  0  0  0  0  0  0  0  0  0  0  0
   21.0043  -19.5707  -14.1374 N   0  0  0  0  0  0  0  0  0  0  0  0
   21.4849  -20.0248  -15.4091 C   0  0  0  0  0  0  0  0  0  0  0  0
   22.2877  -19.0164  -16.1209 C   0  0  0  0  0  0  0  0  0  0  0  0
   23.6681  -19.1526  -16.1113 O   0  0  0  0  0  0  0  0  0  0  0  0
   21.8066  -18.0343  -16.7407 O   0  0  0  0  0  0  0  0  0  0  0  0
  2  1  1  6
  3  4  1  0
  3  2  1  0
  4  5  2  0
  6  5  1  0
  7  6  1  0
  8  7  2  0
  9  8  1  0
 10 11  1  0
 10  9  2  0
 11 12  2  0
 12  7  1  0
 12  4  1  0
 13 21  1  0
 13  2  1  0
 14 13  2  0
 16 15  1  0
 17 16  2  0
 18 16  1  0
 20 19  1  1
 19 18  1  0
 20 22  1  0
 20 21  1  0
 22 23  2  0
 24 25  1  0
 24 22  1  0
 25 26  1  0
 26 28  2  0
 26 27  1  0
M  END
$$$$
