WQG.pdb
     RDKit          3D

 28 29  0  0  1  0  0  0  0  0999 V2000
   27.7435  -22.0840  -10.8342 N   0  0  0  0  0  0  0  0  0  0  0  0
   26.7439  -21.1671  -10.3509 C   0  0  1  0  0  0  0  0  0  0  0  0
   27.4054  -19.9112   -9.8647 C   0  0  0  0  0  0  0  0  0  0  0  0
   28.3207  -20.2564   -8.7442 C   0  0  0  0  0  0  0  0  0  0  0  0
   29.6272  -20.7465   -8.9211 C   0  0  0  0  0  0  0  0  0  0  0  0
   30.1769  -20.9118   -7.7113 N   0  0  0  0  0  0  0  0  0  0  0  0
   29.3086  -20.5599   -6.7468 C   0  0  0  0  0  0  0  0  0  0  0  0
   29.4303  -20.5705   -5.3785 C   0  0  0  0  0  0  0  0  0  0  0  0
   28.3669  -20.1632   -4.6096 C   0  0  0  0  0  0  0  0  0  0  0  0
   27.1947  -19.7515   -5.2489 C   0  0  0  0  0  0  0  0  0  0  0  0
   27.0986  -19.7503   -6.6289 C   0  0  0  0  0  0  0  0  0  0  0  0
   28.1492  -20.1514   -7.3986 C   0  0  0  0  0  0  0  0  0  0  0  0
   25.7922  -20.8982  -11.4644 C   0  0  0  0  0  0  0  0  0  0  0  0
   26.1710  -20.2621  -12.4476 O   0  0  0  0  0  0  0  0  0  0  0  0
   25.6214  -23.4862  -12.8784 N   0  0  0  0  0  0  0  0  0  0  0  0
   25.2235  -23.2187  -14.2024 C   0  0  0  0  0  0  0  0  0  0  0  0
   26.0282  -23.6019  -15.1187 O   0  0  0  0  0  0  0  0  0  0  0  0
   23.9389  -22.5279  -14.5352 C   0  0  0  0  0  0  0  0  0  0  0  0
   23.1548  -22.3827  -13.2549 C   0  0  0  0  0  0  0  0  0  0  0  0
   23.5094  -21.1226  -12.5088 C   0  0  2  0  0  0  0  0  0  0  0  0
   24.4363  -21.3593  -11.4302 N   0  0  0  0  0  0  0  0  0  0  0  0
   22.3288  -20.4066  -12.0007 C   0  0  0  0  0  0  0  0  0  0  0  0
   21.9764  -20.5743  -10.8155 O   0  0  0  0  0  0  0  0  0  0  0  0
   21.5603  -19.5160  -12.8208 N   0  0  0  0  0  0  0  0  0  0  0  0
   20.3779  -18.8430  -12.3699 C   0  0  0  0  0  0  0  0  0  0  0  0
   19.1974  -19.7207  -12.3079 C   0  0  0  0  0  0  0  0  0  0  0  0
   18.1094  -19.3026  -11.5559 O   0  0  0  0  0  0  0  0  0  0  0  0
   19.1058  -20.8297  -12.8927 O   0  0  0  0  0  0  0  0  0  0  0  0
  2  1  1  6
  3  4  1  0
  3  2  1  0
  4  5  2  0
  6  5  1  0
  7  6  1  0
  8  7  2  0
  9  8  1  0
 10 11  1  0
 10  9  2  0
 11 12  2  0
 12  7  1  0
 12  4  1  0
 13 21  1  0
 13  2  1  0
 14 13  2  0
 16 15  1  0
 17 16  2  0
 18 16  1  0
 20 19  1  1
 19 18  1  0
 20 22  1  0
 20 21  1  0
 22 23  2  0
 24 25  1  0
 24 22  1  0
 25 26  1  0
 26 28  2  0
 26 27  1  0
M  END
$$$$
