WQG.pdb
     RDKit          3D

 28 29  0  0  1  0  0  0  0  0999 V2000
   24.9394  -19.4239  -10.4285 N   0  0  0  0  0  0  0  0  0  0  0  0
   25.8173  -20.3853  -11.0437 C   0  0  1  0  0  0  0  0  0  0  0  0
   26.1085  -21.4936  -10.0752 C   0  0  0  0  0  0  0  0  0  0  0  0
   26.2904  -20.9083   -8.7200 C   0  0  0  0  0  0  0  0  0  0  0  0
   25.2467  -20.7376   -7.7927 C   0  0  0  0  0  0  0  0  0  0  0  0
   25.7668  -20.2243   -6.6706 N   0  0  0  0  0  0  0  0  0  0  0  0
   27.0928  -20.0457   -6.8044 C   0  0  0  0  0  0  0  0  0  0  0  0
   28.0264  -19.5453   -5.9296 C   0  0  0  0  0  0  0  0  0  0  0  0
   29.3382  -19.4587   -6.3294 C   0  0  0  0  0  0  0  0  0  0  0  0
   29.6775  -19.8838   -7.6163 C   0  0  0  0  0  0  0  0  0  0  0  0
   28.7175  -20.3842   -8.4775 C   0  0  0  0  0  0  0  0  0  0  0  0
   27.4146  -20.4746   -8.0883 C   0  0  0  0  0  0  0  0  0  0  0  0
   25.1536  -20.8871  -12.2788 C   0  0  0  0  0  0  0  0  0  0  0  0
   25.6362  -21.8454  -12.8819 O   0  0  0  0  0  0  0  0  0  0  0  0
   21.4720  -22.0283  -11.7598 N   0  0  0  0  0  0  0  0  0  0  0  0
   21.3924  -22.7950  -12.9382 C   0  0  0  0  0  0  0  0  0  0  0  0
   21.1790  -24.0455  -12.7809 O   0  0  0  0  0  0  0  0  0  0  0  0
   21.5462  -22.1982  -14.3014 C   0  0  0  0  0  0  0  0  0  0  0  0
   21.9521  -20.7563  -14.1243 C   0  0  0  0  0  0  0  0  0  0  0  0
   23.4488  -20.5828  -14.1100 C   0  0  2  0  0  0  0  0  0  0  0  0
   23.9598  -20.2863  -12.7950 N   0  0  0  0  0  0  0  0  0  0  0  0
   23.9164  -19.5661  -15.0653 C   0  0  0  0  0  0  0  0  0  0  0  0
   23.7750  -18.3576  -14.7886 O   0  0  0  0  0  0  0  0  0  0  0  0
   24.5336  -19.9121  -16.3126 N   0  0  0  0  0  0  0  0  0  0  0  0
   25.0372  -18.9460  -17.2439 C   0  0  0  0  0  0  0  0  0  0  0  0
   24.0169  -18.4628  -18.1890 C   0  0  0  0  0  0  0  0  0  0  0  0
   24.3522  -17.4172  -19.0365 O   0  0  0  0  0  0  0  0  0  0  0  0
   22.8555  -18.9347  -18.2823 O   0  0  0  0  0  0  0  0  0  0  0  0
  2  1  1  1
  3  4  1  0
  3  2  1  0
  4  5  2  0
  6  5  1  0
  7  6  1  0
  8  7  2  0
  9  8  1  0
 10 11  1  0
 10  9  2  0
 11 12  2  0
 12  7  1  0
 12  4  1  0
 13 21  1  0
 13  2  1  0
 14 13  2  0
 16 15  1  0
 17 16  2  0
 18 16  1  0
 20 19  1  1
 19 18  1  0
 20 22  1  0
 20 21  1  0
 22 23  2  0
 24 25  1  0
 24 22  1  0
 25 26  1  0
 26 28  2  0
 26 27  1  0
M  END
$$$$
