LRC.pdb
     RDKit          3D

 26 25  0  0  1  0  0  0  0  0999 V2000
    6.3767  -10.9162   27.6650 C   0  0  0  0  0  0  0  0  0  0  0  0
    6.1502  -11.7805   26.4485 C   0  0  1  0  0  0  0  0  0  0  0  0
    6.4842  -11.0770   25.1694 C   0  0  0  0  0  0  0  0  0  0  0  0
    6.9702  -13.0713   26.5978 C   0  0  0  0  0  0  0  0  0  0  0  0
    6.6430  -13.9002   25.3734 C   0  0  2  0  0  0  0  0  0  0  0  0
    5.2605  -14.3360   25.5487 N   0  0  0  0  0  0  0  0  0  0  0  0
    7.4874  -15.0889   25.2401 C   0  0  0  0  0  0  0  0  0  0  0  0
    7.5885  -15.8789   26.2073 O   0  0  0  0  0  0  0  0  0  0  0  0
    9.8294  -13.0453   19.5170 N   0  0  0  0  0  0  0  0  0  0  0  0
    8.8059  -13.9590   19.0668 C   0  0  0  0  0  0  0  0  0  0  0  0
    7.9009  -13.5107   18.2993 N   0  0  0  0  0  0  0  0  0  0  0  0
    8.8175  -15.3205   19.4764 N   0  0  0  0  0  0  0  0  0  0  0  0
    9.8339  -15.8472   20.3384 C   0  0  0  0  0  0  0  0  0  0  0  0
    9.6443  -15.4540   21.7785 C   0  0  0  0  0  0  0  0  0  0  0  0
    9.6753  -16.6805   22.6379 C   0  0  0  0  0  0  0  0  0  0  0  0
    9.1297  -16.5083   24.0174 C   0  0  2  0  0  0  0  0  0  0  0  0
    8.1903  -15.3686   24.0511 N   0  0  0  0  0  0  0  0  0  0  0  0
   10.1591  -16.3096   25.0637 C   0  0  0  0  0  0  0  0  0  0  0  0
   10.9782  -15.3720   24.9723 O   0  0  0  0  0  0  0  0  0  0  0  0
    7.0940  -14.1083   18.0376 N   0  0  0  0  0  0  0  0  0  0  0  0
   10.2462  -17.1806   26.2059 C   0  0  1  0  0  0  0  0  0  0  0  0
   11.2427  -16.9002   27.2001 C   0  0  0  0  0  0  0  0  0  0  0  0
   10.5350  -16.2025   28.3459 S   0  0  0  0  0  0  0  0  0  0  0  0
   11.6926  -16.0338   29.7214 C   0  0  0  0  0  0  0  0  0  0  0  0
   11.9707  -18.1140   27.6339 O   0  0  0  0  0  0  0  0  0  0  0  0
   11.5353  -19.2783   27.4063 O   0  0  0  0  0  0  0  0  0  0  0  0
  2  4  1  0
  2  1  1  1
  3  2  1  0
  4  5  1  0
  5  6  1  1
  7  8  2  0
  7  5  1  0
  9 10  1  0
 10 12  1  0
 11 10  2  0
 12 13  1  0
 13 14  1  0
 14 15  1  0
 16 15  1  6
 16 17  1  0
 17  7  1  0
 18 16  1  0
 19 18  2  0
 20 18  1  0
 21 20  1  0
 21 22  1  6
 23 22  1  0
 24 21  1  0
 24 26  1  0
 25 24  2  0
M  END
$$$$
