LRC.pdb
     RDKit          3D

 26 25  0  0  1  0  0  0  0  0999 V2000
    6.8940  -11.6062   27.6534 C   0  0  0  0  0  0  0  0  0  0  0  0
    6.3788  -12.4399   26.5056 C   0  0  1  0  0  0  0  0  0  0  0  0
    6.0339  -11.6172   25.3028 C   0  0  0  0  0  0  0  0  0  0  0  0
    7.4269  -13.5090   26.1598 C   0  0  0  0  0  0  0  0  0  0  0  0
    6.7183  -14.4872   25.2464 C   0  0  2  0  0  0  0  0  0  0  0  0
    5.6651  -15.0927   26.0563 N   0  0  0  0  0  0  0  0  0  0  0  0
    7.5928  -15.5540   24.7555 C   0  0  0  0  0  0  0  0  0  0  0  0
    7.7306  -16.5949   25.4389 O   0  0  0  0  0  0  0  0  0  0  0  0
    7.1601  -12.5454   18.0862 N   0  0  0  0  0  0  0  0  0  0  0  0
    8.2636  -13.3550   18.5465 C   0  0  0  0  0  0  0  0  0  0  0  0
    9.3161  -12.7638   18.9360 N   0  0  0  0  0  0  0  0  0  0  0  0
    8.1670  -14.7735   18.5594 N   0  0  0  0  0  0  0  0  0  0  0  0
    8.9972  -15.5852   19.3995 C   0  0  0  0  0  0  0  0  0  0  0  0
    8.5531  -15.5884   20.8372 C   0  0  0  0  0  0  0  0  0  0  0  0
    9.5358  -16.3635   21.6602 C   0  0  0  0  0  0  0  0  0  0  0  0
    9.1659  -16.5430   23.0960 C   0  0  2  0  0  0  0  0  0  0  0  0
    8.2845  -15.4409   23.5328 N   0  0  0  0  0  0  0  0  0  0  0  0
   10.3198  -16.6266   24.0208 C   0  0  0  0  0  0  0  0  0  0  0  0
   10.7276  -15.6067   24.6141 O   0  0  0  0  0  0  0  0  0  0  0  0
   10.1368  -13.3132   19.2546 N   0  0  0  0  0  0  0  0  0  0  0  0
   10.9993  -17.8719   24.2625 C   0  0  1  0  0  0  0  0  0  0  0  0
   11.6136  -18.0735   25.5440 C   0  0  0  0  0  0  0  0  0  0  0  0
   10.5071  -17.9929   26.5783 S   0  0  0  0  0  0  0  0  0  0  0  0
   11.2256  -18.2599   28.2132 C   0  0  0  0  0  0  0  0  0  0  0  0
   12.3721  -19.3426   25.6179 O   0  0  0  0  0  0  0  0  0  0  0  0
   11.9067  -20.4322   25.1786 O   0  0  0  0  0  0  0  0  0  0  0  0
  2  4  1  0
  2  1  1  1
  3  2  1  0
  4  5  1  0
  5  6  1  1
  7  8  2  0
  7  5  1  0
  9 10  1  0
 10 12  1  0
 11 10  2  0
 12 13  1  0
 13 14  1  0
 14 15  1  0
 16 15  1  6
 16 17  1  0
 17  7  1  0
 18 16  1  0
 19 18  2  0
 20 18  1  0
 21 20  1  0
 21 22  1  6
 23 22  1  0
 24 21  1  0
 24 26  1  0
 25 24  2  0
M  END
$$$$
