LRC.pdb
     RDKit          3D

 26 25  0  0  1  0  0  0  0  0999 V2000
    7.6110  -12.2984   18.3650 C   0  0  0  0  0  0  0  0  0  0  0  0
    8.2746  -13.5657   18.8465 C   0  0  1  0  0  0  0  0  0  0  0  0
    9.7465  -13.3995   19.0669 C   0  0  0  0  0  0  0  0  0  0  0  0
    7.5746  -14.0346   20.1313 C   0  0  0  0  0  0  0  0  0  0  0  0
    8.2440  -15.3417   20.5008 C   0  0  2  0  0  0  0  0  0  0  0  0
    7.5818  -16.3659   19.6982 N   0  0  0  0  0  0  0  0  0  0  0  0
    8.0863  -15.6904   21.9140 C   0  0  0  0  0  0  0  0  0  0  0  0
    6.9363  -15.8865   22.3709 O   0  0  0  0  0  0  0  0  0  0  0  0
   12.0303  -20.6782   25.6339 N   0  0  0  0  0  0  0  0  0  0  0  0
   11.4381  -21.1541   24.4059 C   0  0  0  0  0  0  0  0  0  0  0  0
   12.1405  -21.8933   23.6515 N   0  0  0  0  0  0  0  0  0  0  0  0
   10.1058  -20.7999   24.0580 N   0  0  0  0  0  0  0  0  0  0  0  0
    9.4991  -19.5829   24.5102 C   0  0  0  0  0  0  0  0  0  0  0  0
    9.9947  -18.3696   23.7710 C   0  0  0  0  0  0  0  0  0  0  0  0
    9.9056  -17.1709   24.6649 C   0  0  0  0  0  0  0  0  0  0  0  0
    8.9710  -16.0999   24.2067 C   0  0  2  0  0  0  0  0  0  0  0  0
    9.1952  -15.8115   22.7753 N   0  0  0  0  0  0  0  0  0  0  0  0
    9.0674  -14.8341   24.9696 C   0  0  0  0  0  0  0  0  0  0  0  0
   10.1169  -14.1587   24.9407 O   0  0  0  0  0  0  0  0  0  0  0  0
   11.7467  -22.2584   22.7636 N   0  0  0  0  0  0  0  0  0  0  0  0
    7.9667  -14.3477   25.7589 C   0  0  2  0  0  0  0  0  0  0  0  0
    8.1984  -13.2356   26.6361 C   0  0  0  0  0  0  0  0  0  0  0  0
    7.0033  -12.3119   26.4984 S   0  0  0  0  0  0  0  0  0  0  0  0
    5.5005  -13.2629   26.8111 C   0  0  0  0  0  0  0  0  0  0  0  0
    8.4367  -13.6550   28.0357 O   0  0  0  0  0  0  0  0  0  0  0  0
    8.2435  -14.8414   28.4257 O   0  0  0  0  0  0  0  0  0  0  0  0
  2  4  1  0
  2  1  1  1
  3  2  1  0
  4  5  1  0
  5  6  1  6
  7  8  2  0
  7  5  1  0
  9 10  1  0
 10 12  1  0
 11 10  2  0
 12 13  1  0
 13 14  1  0
 14 15  1  0
 16 15  1  1
 16 17  1  0
 17  7  1  0
 18 16  1  0
 19 18  2  0
 20 18  1  0
 21 20  1  0
 21 22  1  6
 23 22  1  0
 24 21  1  0
 24 26  1  0
 25 24  2  0
M  END
$$$$
