LRC.pdb
     RDKit          3D

 26 25  0  0  1  0  0  0  0  0999 V2000
    7.5342  -12.1166   19.4914 C   0  0  0  0  0  0  0  0  0  0  0  0
    8.3669  -13.3613   19.3036 C   0  0  1  0  0  0  0  0  0  0  0  0
    9.1206  -13.7444   20.5397 C   0  0  0  0  0  0  0  0  0  0  0  0
    7.4516  -14.5049   18.8398 C   0  0  0  0  0  0  0  0  0  0  0  0
    8.3726  -15.6792   18.5831 C   0  0  2  0  0  0  0  0  0  0  0  0
    7.5297  -16.7250   18.0106 N   0  0  0  0  0  0  0  0  0  0  0  0
    8.9920  -16.2026   19.8022 C   0  0  0  0  0  0  0  0  0  0  0  0
    8.2604  -16.6316   20.7243 O   0  0  0  0  0  0  0  0  0  0  0  0
   15.2218  -14.1448   20.4442 N   0  0  0  0  0  0  0  0  0  0  0  0
   15.5284  -14.6254   19.1174 C   0  0  0  0  0  0  0  0  0  0  0  0
   16.0581  -13.8160   18.2969 N   0  0  0  0  0  0  0  0  0  0  0  0
   15.2415  -15.9679   18.7477 N   0  0  0  0  0  0  0  0  0  0  0  0
   14.5065  -16.8523   19.6029 C   0  0  0  0  0  0  0  0  0  0  0  0
   13.1077  -16.3725   19.8811 C   0  0  0  0  0  0  0  0  0  0  0  0
   12.3989  -17.3748   20.7396 C   0  0  0  0  0  0  0  0  0  0  0  0
   10.9728  -17.0567   21.0487 C   0  0  2  0  0  0  0  0  0  0  0  0
   10.3914  -16.2370   19.9659 N   0  0  0  0  0  0  0  0  0  0  0  0
   10.7656  -16.3598   22.3391 C   0  0  0  0  0  0  0  0  0  0  0  0
   10.9598  -15.1299   22.4298 O   0  0  0  0  0  0  0  0  0  0  0  0
   16.2242  -14.1025   17.3135 N   0  0  0  0  0  0  0  0  0  0  0  0
   10.3380  -17.0699   23.5154 C   0  0  1  0  0  0  0  0  0  0  0  0
   10.2574  -16.3480   24.7534 C   0  0  0  0  0  0  0  0  0  0  0  0
    8.7874  -16.0714   25.0049 S   0  0  0  0  0  0  0  0  0  0  0  0
    8.6219  -15.2379   26.5982 C   0  0  0  0  0  0  0  0  0  0  0  0
   10.9023  -17.0678   25.8747 O   0  0  0  0  0  0  0  0  0  0  0  0
   11.2700  -18.2731   25.7790 O   0  0  0  0  0  0  0  0  0  0  0  0
  2  4  1  0
  2  1  1  1
  3  2  1  0
  4  5  1  0
  5  6  1  1
  7  8  2  0
  7  5  1  0
  9 10  1  0
 10 12  1  0
 11 10  2  0
 12 13  1  0
 13 14  1  0
 14 15  1  0
 16 15  1  6
 16 17  1  0
 17  7  1  0
 18 16  1  0
 19 18  2  0
 20 18  1  0
 21 20  1  0
 21 22  1  1
 23 22  1  0
 24 21  1  0
 24 26  1  0
 25 24  2  0
M  END
$$$$
