LRC.pdb
     RDKit          3D

 26 25  0  0  1  0  0  0  0  0999 V2000
    7.6141  -11.8903   27.7022 C   0  0  0  0  0  0  0  0  0  0  0  0
    6.7079  -12.9956   27.2173 C   0  0  1  0  0  0  0  0  0  0  0  0
    5.6827  -12.5145   26.2374 C   0  0  0  0  0  0  0  0  0  0  0  0
    7.5701  -14.1126   26.6091 C   0  0  0  0  0  0  0  0  0  0  0  0
    6.6443  -14.8801   25.6887 C   0  0  2  0  0  0  0  0  0  0  0  0
    6.2894  -16.0984   26.4111 N   0  0  0  0  0  0  0  0  0  0  0  0
    7.2757  -15.2618   24.4241 C   0  0  0  0  0  0  0  0  0  0  0  0
    7.9668  -16.3056   24.3761 O   0  0  0  0  0  0  0  0  0  0  0  0
    9.8786  -15.0746   17.7819 N   0  0  0  0  0  0  0  0  0  0  0  0
    8.8360  -14.6322   16.8861 C   0  0  0  0  0  0  0  0  0  0  0  0
    8.8019  -15.1273   15.7188 N   0  0  0  0  0  0  0  0  0  0  0  0
    7.8788  -13.6685   17.3064 N   0  0  0  0  0  0  0  0  0  0  0  0
    7.8772  -13.1260   18.6329 C   0  0  0  0  0  0  0  0  0  0  0  0
    8.3437  -14.1107   19.6707 C   0  0  0  0  0  0  0  0  0  0  0  0
    7.6094  -13.8676   20.9535 C   0  0  0  0  0  0  0  0  0  0  0  0
    7.8816  -14.8529   22.0424 C   0  0  2  0  0  0  0  0  0  0  0  0
    7.1264  -14.4851   23.2576 N   0  0  0  0  0  0  0  0  0  0  0  0
    9.3128  -14.9973   22.3951 C   0  0  0  0  0  0  0  0  0  0  0  0
    9.9094  -14.0809   22.9973 O   0  0  0  0  0  0  0  0  0  0  0  0
    8.1072  -14.7876   15.0269 N   0  0  0  0  0  0  0  0  0  0  0  0
   10.0524  -16.1852   22.0593 C   0  0  2  0  0  0  0  0  0  0  0  0
   11.4507  -16.2287   22.3801 C   0  0  0  0  0  0  0  0  0  0  0  0
   11.6750  -17.4889   23.1941 S   0  0  0  0  0  0  0  0  0  0  0  0
   10.8535  -17.2978   24.7907 C   0  0  0  0  0  0  0  0  0  0  0  0
   12.3124  -16.1654   21.1781 O   0  0  0  0  0  0  0  0  0  0  0  0
   11.8353  -16.0911   20.0103 O   0  0  0  0  0  0  0  0  0  0  0  0
  2  4  1  0
  2  1  1  6
  3  2  1  0
  4  5  1  0
  5  6  1  1
  7  8  2  0
  7  5  1  0
  9 10  1  0
 10 12  1  0
 11 10  2  0
 12 13  1  0
 13 14  1  0
 14 15  1  0
 16 15  1  6
 16 17  1  0
 17  7  1  0
 18 16  1  0
 19 18  2  0
 20 18  1  0
 21 20  1  0
 21 22  1  1
 23 22  1  0
 24 21  1  0
 24 26  1  0
 25 24  2  0
M  END
$$$$
