LRC.pdb
     RDKit          3D

 26 25  0  0  1  0  0  0  0  0999 V2000
    7.7783  -11.9652   28.2780 C   0  0  0  0  0  0  0  0  0  0  0  0
    6.8439  -12.9236   27.5806 C   0  0  1  0  0  0  0  0  0  0  0  0
    5.6796  -12.2328   26.9403 C   0  0  0  0  0  0  0  0  0  0  0  0
    7.6430  -13.7305   26.5457 C   0  0  0  0  0  0  0  0  0  0  0  0
    6.6825  -14.7777   26.0223 C   0  0  2  0  0  0  0  0  0  0  0  0
    6.5992  -15.7949   27.0664 N   0  0  0  0  0  0  0  0  0  0  0  0
    7.1450  -15.4191   24.7900 C   0  0  0  0  0  0  0  0  0  0  0  0
    7.7730  -16.5008   24.8621 O   0  0  0  0  0  0  0  0  0  0  0  0
    9.0525  -12.5796   17.6538 N   0  0  0  0  0  0  0  0  0  0  0  0
    9.0245  -13.9555   17.2162 C   0  0  0  0  0  0  0  0  0  0  0  0
   10.0399  -14.4086   16.6058 N   0  0  0  0  0  0  0  0  0  0  0  0
    7.8881  -14.7729   17.4648 N   0  0  0  0  0  0  0  0  0  0  0  0
    7.0962  -14.6349   18.6512 C   0  0  0  0  0  0  0  0  0  0  0  0
    7.8994  -14.7883   19.9145 C   0  0  0  0  0  0  0  0  0  0  0  0
    6.9729  -14.8392   21.0905 C   0  0  0  0  0  0  0  0  0  0  0  0
    7.5480  -15.4389   22.3316 C   0  0  2  0  0  0  0  0  0  0  0  0
    6.9021  -14.8513   23.5233 N   0  0  0  0  0  0  0  0  0  0  0  0
    9.0158  -15.2896   22.4616 C   0  0  0  0  0  0  0  0  0  0  0  0
    9.5024  -14.2562   22.9653 O   0  0  0  0  0  0  0  0  0  0  0  0
   10.0870  -15.4111   16.3420 N   0  0  0  0  0  0  0  0  0  0  0  0
    9.9172  -16.3196   22.0172 C   0  0  2  0  0  0  0  0  0  0  0  0
   11.2609  -16.3109   22.5217 C   0  0  0  0  0  0  0  0  0  0  0  0
   11.1650  -16.4641   24.0277 S   0  0  0  0  0  0  0  0  0  0  0  0
   12.8361  -16.5562   24.7054 C   0  0  0  0  0  0  0  0  0  0  0  0
   12.1103  -17.3493   21.8958 O   0  0  0  0  0  0  0  0  0  0  0  0
   11.6238  -18.3031   21.2246 O   0  0  0  0  0  0  0  0  0  0  0  0
  2  4  1  0
  2  1  1  6
  3  2  1  0
  4  5  1  0
  5  6  1  1
  7  8  2  0
  7  5  1  0
  9 10  1  0
 10 12  1  0
 11 10  2  0
 12 13  1  0
 13 14  1  0
 14 15  1  0
 16 15  1  6
 16 17  1  0
 17  7  1  0
 18 16  1  0
 19 18  2  0
 20 18  1  0
 21 20  1  0
 21 22  1  6
 23 22  1  0
 24 21  1  0
 24 26  1  0
 25 24  2  0
M  END
$$$$
