LRC.pdb
     RDKit          3D

 26 25  0  0  1  0  0  0  0  0999 V2000
    7.2811  -12.1168   19.8170 C   0  0  0  0  0  0  0  0  0  0  0  0
    8.0011  -13.4430   19.8452 C   0  0  1  0  0  0  0  0  0  0  0  0
    9.3930  -13.3567   19.2996 C   0  0  0  0  0  0  0  0  0  0  0  0
    8.0065  -13.9735   21.2872 C   0  0  0  0  0  0  0  0  0  0  0  0
    8.6410  -15.3463   21.2091 C   0  0  2  0  0  0  0  0  0  0  0  0
    7.6845  -16.1837   20.4909 N   0  0  0  0  0  0  0  0  0  0  0  0
    8.8819  -15.9452   22.5232 C   0  0  0  0  0  0  0  0  0  0  0  0
    7.9041  -16.2639   23.2386 O   0  0  0  0  0  0  0  0  0  0  0  0
   12.2778  -21.6771   19.9956 N   0  0  0  0  0  0  0  0  0  0  0  0
   12.8323  -20.6020   20.7844 C   0  0  0  0  0  0  0  0  0  0  0  0
   13.5541  -19.7407   20.1961 N   0  0  0  0  0  0  0  0  0  0  0  0
   12.5734  -20.5177   22.1799 N   0  0  0  0  0  0  0  0  0  0  0  0
   12.6478  -19.2776   22.8941 C   0  0  0  0  0  0  0  0  0  0  0  0
   11.3771  -18.9458   23.6287 C   0  0  0  0  0  0  0  0  0  0  0  0
   11.5524  -17.6555   24.3693 C   0  0  0  0  0  0  0  0  0  0  0  0
   10.3688  -16.7448   24.3553 C   0  0  2  0  0  0  0  0  0  0  0  0
   10.1864  -16.1732   23.0053 N   0  0  0  0  0  0  0  0  0  0  0  0
   10.4349  -15.6380   25.3374 C   0  0  0  0  0  0  0  0  0  0  0  0
   11.3138  -14.7572   25.2366 O   0  0  0  0  0  0  0  0  0  0  0  0
   13.9818  -18.9626   20.7330 N   0  0  0  0  0  0  0  0  0  0  0  0
    9.4985  -15.5437   26.4261 C   0  0  1  0  0  0  0  0  0  0  0  0
    9.7567  -14.5861   27.4636 C   0  0  0  0  0  0  0  0  0  0  0  0
    8.4667  -13.8189   27.6831 S   0  0  0  0  0  0  0  0  0  0  0  0
    8.1306  -12.8239   26.2143 C   0  0  0  0  0  0  0  0  0  0  0  0
   10.2647  -15.2143   28.7040 O   0  0  0  0  0  0  0  0  0  0  0  0
   10.3657  -16.4675   28.8321 O   0  0  0  0  0  0  0  0  0  0  0  0
  2  4  1  0
  2  1  1  1
  3  2  1  0
  4  5  1  0
  5  6  1  6
  7  8  2  0
  7  5  1  0
  9 10  1  0
 10 12  1  0
 11 10  2  0
 12 13  1  0
 13 14  1  0
 14 15  1  0
 16 15  1  6
 16 17  1  0
 17  7  1  0
 18 16  1  0
 19 18  2  0
 20 18  1  0
 21 20  1  0
 21 22  1  1
 23 22  1  0
 24 21  1  0
 24 26  1  0
 25 24  2  0
M  END
$$$$
