LRC.pdb
     RDKit          3D

 26 25  0  0  1  0  0  0  0  0999 V2000
    6.5347  -11.5867   26.6610 C   0  0  0  0  0  0  0  0  0  0  0  0
    7.1250  -12.9751   26.7044 C   0  0  1  0  0  0  0  0  0  0  0  0
    7.8846  -13.2410   27.9674 C   0  0  0  0  0  0  0  0  0  0  0  0
    5.9962  -13.9999   26.5142 C   0  0  0  0  0  0  0  0  0  0  0  0
    6.6889  -15.3068   26.1898 C   0  0  2  0  0  0  0  0  0  0  0  0
    7.8862  -15.3377   27.0250 N   0  0  0  0  0  0  0  0  0  0  0  0
    7.1019  -15.4077   24.7888 C   0  0  0  0  0  0  0  0  0  0  0  0
    6.2265  -15.4196   23.8925 O   0  0  0  0  0  0  0  0  0  0  0  0
    9.2023  -12.6294   19.2819 N   0  0  0  0  0  0  0  0  0  0  0  0
    8.4175  -13.4140   18.3580 C   0  0  0  0  0  0  0  0  0  0  0  0
    8.4031  -13.0631   17.1391 N   0  0  0  0  0  0  0  0  0  0  0  0
    7.6837  -14.5456   18.8082 N   0  0  0  0  0  0  0  0  0  0  0  0
    6.8816  -14.5093   19.9952 C   0  0  0  0  0  0  0  0  0  0  0  0
    7.2945  -15.5362   21.0147 C   0  0  0  0  0  0  0  0  0  0  0  0
    8.0895  -14.8721   22.0967 C   0  0  0  0  0  0  0  0  0  0  0  0
    8.8117  -15.7983   23.0194 C   0  0  2  0  0  0  0  0  0  0  0  0
    8.4598  -15.4917   24.4210 N   0  0  0  0  0  0  0  0  0  0  0  0
   10.2862  -15.7752   22.8812 C   0  0  0  0  0  0  0  0  0  0  0  0
   10.9362  -14.7670   23.2270 O   0  0  0  0  0  0  0  0  0  0  0  0
    7.7701  -13.5360   16.4665 N   0  0  0  0  0  0  0  0  0  0  0  0
   11.0080  -16.9014   22.3508 C   0  0  1  0  0  0  0  0  0  0  0  0
   11.9830  -17.5397   23.1888 C   0  0  0  0  0  0  0  0  0  0  0  0
   11.3030  -17.8242   24.5145 S   0  0  0  0  0  0  0  0  0  0  0  0
   12.5156  -18.5454   25.6414 C   0  0  0  0  0  0  0  0  0  0  0  0
   12.5567  -18.7557   22.5696 O   0  0  0  0  0  0  0  0  0  0  0  0
   11.8336  -19.6520   22.0492 O   0  0  0  0  0  0  0  0  0  0  0  0
  2  4  1  0
  2  1  1  1
  3  2  1  0
  4  5  1  0
  5  6  1  1
  7  8  2  0
  7  5  1  0
  9 10  1  0
 10 12  1  0
 11 10  2  0
 12 13  1  0
 13 14  1  0
 14 15  1  0
 16 15  1  6
 16 17  1  0
 17  7  1  0
 18 16  1  0
 19 18  2  0
 20 18  1  0
 21 20  1  0
 21 22  1  1
 23 22  1  0
 24 21  1  0
 24 26  1  0
 25 24  2  0
M  END
$$$$
