PFT.pdb
     RDKit          3D

 26 27  0  0  1  0  0  0  0  0999 V2000
   27.6322  -20.2960  -16.2635 N   0  0  0  0  0  0  0  0  0  0  0  0
   28.9864  -20.1214  -16.7425 C   0  0  0  0  0  0  0  0  0  0  0  0
   29.8087  -21.2222  -16.1345 C   0  0  0  0  0  0  0  0  0  0  0  0
   28.8498  -22.2464  -15.6260 C   0  0  0  0  0  0  0  0  0  0  0  0
   27.5007  -21.6465  -15.8250 C   0  0  1  0  0  0  0  0  0  0  0  0
   26.6595  -21.7597  -14.5875 C   0  0  0  0  0  0  0  0  0  0  0  0
   26.4722  -22.9056  -14.1333 O   0  0  0  0  0  0  0  0  0  0  0  0
   26.1002  -20.6422  -13.9551 N   0  0  0  0  0  0  0  0  0  0  0  0
   25.2695  -20.8383  -12.7458 C   0  0  1  0  0  0  0  0  0  0  0  0
   25.7128  -19.8849  -11.6910 C   0  0  0  0  0  0  0  0  0  0  0  0
   26.7108  -20.4121  -10.7533 C   0  0  0  0  0  0  0  0  0  0  0  0
   26.3886  -20.6524   -9.4101 C   0  0  0  0  0  0  0  0  0  0  0  0
   27.3195  -21.1924   -8.5536 C   0  0  0  0  0  0  0  0  0  0  0  0
   28.6013  -21.5206   -8.9678 C   0  0  0  0  0  0  0  0  0  0  0  0
   28.9147  -21.2836  -10.2860 C   0  0  0  0  0  0  0  0  0  0  0  0
   28.0043  -20.7498  -11.1452 C   0  0  0  0  0  0  0  0  0  0  0  0
   23.8791  -20.5752  -13.1517 C   0  0  0  0  0  0  0  0  0  0  0  0
   23.5872  -19.3651  -13.4879 O   0  0  0  0  0  0  0  0  0  0  0  0
   21.8846  -22.1309  -15.8316 C   0  0  0  0  0  0  0  0  0  0  0  0
   20.9563  -22.0565  -14.6556 C   0  0  1  0  0  0  0  0  0  0  0  0
   20.8746  -23.3276  -14.0985 O   0  0  0  0  0  0  0  0  0  0  0  0
   21.5168  -21.0724  -13.6186 C   0  0  2  0  0  0  0  0  0  0  0  0
   22.8293  -21.5229  -13.2177 N   0  0  0  0  0  0  0  0  0  0  0  0
   20.5701  -20.8439  -12.5331 C   0  0  0  0  0  0  0  0  0  0  0  0
   20.9620  -21.1793  -11.2223 O   0  0  0  0  0  0  0  0  0  0  0  0
   19.4467  -20.3728  -12.7081 O   0  0  0  0  0  0  0  0  0  0  0  0
  1  5  1  0
  1  2  1  0
  2  3  1  0
  4  3  1  0
  5  6  1  1
  5  4  1  0
  6  7  2  0
  8  9  1  0
  8  6  1  0
  9 10  1  1
 11 16  1  0
 11 10  1  0
 12 11  2  0
 13 14  2  0
 13 12  1  0
 14 15  1  0
 15 16  2  0
 17  9  1  0
 18 17  2  0
 20 19  1  6
 20 22  1  0
 21 20  1  0
 22 23  1  1
 23 17  1  0
 24 25  1  0
 24 22  1  0
 26 24  2  0
M  END
$$$$
