PFT.pdb
     RDKit          3D

 26 27  0  0  1  0  0  0  0  0999 V2000
   24.6746  -10.9642  -15.6583 N   0  0  0  0  0  0  0  0  0  0  0  0
   25.1508  -12.3295  -15.7126 C   0  0  0  0  0  0  0  0  0  0  0  0
   24.3700  -13.0203  -16.7946 C   0  0  0  0  0  0  0  0  0  0  0  0
   23.7299  -11.9503  -17.6149 C   0  0  0  0  0  0  0  0  0  0  0  0
   24.0403  -10.6789  -16.9031 C   0  0  1  0  0  0  0  0  0  0  0  0
   22.8146   -9.8302  -16.7317 C   0  0  0  0  0  0  0  0  0  0  0  0
   22.2171   -9.4827  -17.7694 O   0  0  0  0  0  0  0  0  0  0  0  0
   22.3454   -9.4347  -15.4728 N   0  0  0  0  0  0  0  0  0  0  0  0
   21.0776   -8.6763  -15.3811 C   0  0  1  0  0  0  0  0  0  0  0  0
   20.1296   -9.4174  -14.5036 C   0  0  0  0  0  0  0  0  0  0  0  0
   19.4111  -10.5201  -15.1525 C   0  0  0  0  0  0  0  0  0  0  0  0
   18.4611  -10.2770  -16.1546 C   0  0  0  0  0  0  0  0  0  0  0  0
   17.8305  -11.3219  -16.7886 C   0  0  0  0  0  0  0  0  0  0  0  0
   18.0975  -12.6456  -16.4743 C   0  0  0  0  0  0  0  0  0  0  0  0
   19.0298  -12.8812  -15.4908 C   0  0  0  0  0  0  0  0  0  0  0  0
   19.6618  -11.8576  -14.8546 C   0  0  0  0  0  0  0  0  0  0  0  0
   21.4205   -7.3646  -14.8073 C   0  0  0  0  0  0  0  0  0  0  0  0
   21.8759   -7.3552  -13.6011 O   0  0  0  0  0  0  0  0  0  0  0  0
   23.9654   -4.8997  -15.4833 C   0  0  0  0  0  0  0  0  0  0  0  0
   22.6849   -4.1190  -15.4557 C   0  0  1  0  0  0  0  0  0  0  0  0
   22.2803   -3.9208  -16.7710 O   0  0  0  0  0  0  0  0  0  0  0  0
   21.6122   -4.9157  -14.6991 C   0  0  2  0  0  0  0  0  0  0  0  0
   21.3073   -6.1096  -15.4528 N   0  0  0  0  0  0  0  0  0  0  0  0
   20.4688   -4.0785  -14.3549 C   0  0  0  0  0  0  0  0  0  0  0  0
   20.6841   -2.9611  -13.5245 O   0  0  0  0  0  0  0  0  0  0  0  0
   19.3266   -4.3018  -14.7550 O   0  0  0  0  0  0  0  0  0  0  0  0
  1  5  1  0
  1  2  1  0
  2  3  1  0
  4  3  1  0
  5  6  1  1
  5  4  1  0
  6  7  2  0
  8  9  1  0
  8  6  1  0
  9 10  1  1
 11 16  1  0
 11 10  1  0
 12 11  2  0
 13 14  2  0
 13 12  1  0
 14 15  1  0
 15 16  2  0
 17  9  1  0
 18 17  2  0
 20 19  1  6
 20 22  1  0
 21 20  1  0
 22 23  1  6
 23 17  1  0
 24 25  1  0
 24 22  1  0
 26 24  2  0
M  END
$$$$
