PFT.pdb
     RDKit          3D

 26 27  0  0  1  0  0  0  0  0999 V2000
   28.0126  -22.2959  -17.3628 N   0  0  0  0  0  0  0  0  0  0  0  0
   27.8290  -21.9754  -18.7619 C   0  0  0  0  0  0  0  0  0  0  0  0
   26.9874  -20.7319  -18.8169 C   0  0  0  0  0  0  0  0  0  0  0  0
   27.0208  -20.1276  -17.4527 C   0  0  0  0  0  0  0  0  0  0  0  0
   27.7611  -21.1099  -16.6121 C   0  0  1  0  0  0  0  0  0  0  0  0
   27.0352  -21.3955  -15.3302 C   0  0  0  0  0  0  0  0  0  0  0  0
   26.3748  -22.4518  -15.2769 O   0  0  0  0  0  0  0  0  0  0  0  0
   27.0834  -20.5290  -14.2310 N   0  0  0  0  0  0  0  0  0  0  0  0
   26.3700  -20.8998  -12.9883 C   0  0  1  0  0  0  0  0  0  0  0  0
   27.0317  -20.2363  -11.8308 C   0  0  0  0  0  0  0  0  0  0  0  0
   26.3092  -20.3368  -10.5575 C   0  0  0  0  0  0  0  0  0  0  0  0
   25.7668  -21.5554  -10.1253 C   0  0  0  0  0  0  0  0  0  0  0  0
   25.1346  -21.6464   -8.9073 C   0  0  0  0  0  0  0  0  0  0  0  0
   25.0037  -20.5569   -8.0599 C   0  0  0  0  0  0  0  0  0  0  0  0
   25.5367  -19.3627   -8.4865 C   0  0  0  0  0  0  0  0  0  0  0  0
   26.1650  -19.2573   -9.6890 C   0  0  0  0  0  0  0  0  0  0  0  0
   24.9842  -20.4304  -13.1508 C   0  0  0  0  0  0  0  0  0  0  0  0
   24.8210  -19.2461  -13.6338 O   0  0  0  0  0  0  0  0  0  0  0  0
   21.7026  -22.5124  -14.2726 C   0  0  0  0  0  0  0  0  0  0  0  0
   21.9392  -21.0344  -14.3690 C   0  0  1  0  0  0  0  0  0  0  0  0
   20.7129  -20.4228  -14.6036 O   0  0  0  0  0  0  0  0  0  0  0  0
   22.5292  -20.5200  -13.0479 C   0  0  2  0  0  0  0  0  0  0  0  0
   23.8092  -21.1550  -12.8363 N   0  0  0  0  0  0  0  0  0  0  0  0
   21.5748  -20.6451  -11.9523 C   0  0  0  0  0  0  0  0  0  0  0  0
   20.3094  -20.0430  -12.0957 O   0  0  0  0  0  0  0  0  0  0  0  0
   21.8225  -21.2510  -10.9101 O   0  0  0  0  0  0  0  0  0  0  0  0
  1  5  1  0
  1  2  1  0
  2  3  1  0
  4  3  1  0
  5  6  1  1
  5  4  1  0
  6  7  2  0
  8  9  1  0
  8  6  1  0
  9 10  1  1
 11 16  1  0
 11 10  1  0
 12 11  2  0
 13 14  2  0
 13 12  1  0
 14 15  1  0
 15 16  2  0
 17  9  1  0
 18 17  2  0
 20 19  1  1
 20 22  1  0
 21 20  1  0
 22 23  1  1
 23 17  1  0
 24 25  1  0
 24 22  1  0
 26 24  2  0
M  END
$$$$
