PFT.pdb
     RDKit          3D

 26 27  0  0  1  0  0  0  0  0999 V2000
   27.5922  -19.5295  -13.5911 N   0  0  0  0  0  0  0  0  0  0  0  0
   28.5603  -19.3917  -14.6577 C   0  0  0  0  0  0  0  0  0  0  0  0
   29.3528  -20.6678  -14.6939 C   0  0  0  0  0  0  0  0  0  0  0  0
   28.5811  -21.6772  -13.9112 C   0  0  0  0  0  0  0  0  0  0  0  0
   27.4379  -20.9221  -13.3260 C   0  0  1  0  0  0  0  0  0  0  0  0
   27.2834  -21.2049  -11.8604 C   0  0  0  0  0  0  0  0  0  0  0  0
   26.8959  -22.3464  -11.5420 O   0  0  0  0  0  0  0  0  0  0  0  0
   27.5565  -20.2451  -10.8777 N   0  0  0  0  0  0  0  0  0  0  0  0
   27.2940  -20.5714   -9.4580 C   0  0  1  0  0  0  0  0  0  0  0  0
   28.2043  -19.7663   -8.5972 C   0  0  0  0  0  0  0  0  0  0  0  0
   28.0207  -19.9490   -7.1529 C   0  0  0  0  0  0  0  0  0  0  0  0
   28.4164  -21.1333   -6.5152 C   0  0  0  0  0  0  0  0  0  0  0  0
   28.2832  -21.2723   -5.1534 C   0  0  0  0  0  0  0  0  0  0  0  0
   27.7602  -20.2659   -4.3560 C   0  0  0  0  0  0  0  0  0  0  0  0
   27.3727  -19.1051   -4.9842 C   0  0  0  0  0  0  0  0  0  0  0  0
   27.4983  -18.9531   -6.3307 C   0  0  0  0  0  0  0  0  0  0  0  0
   25.8840  -20.2295   -9.2086 C   0  0  0  0  0  0  0  0  0  0  0  0
   25.5415  -18.9985   -9.3818 O   0  0  0  0  0  0  0  0  0  0  0  0
   23.5153  -19.8729  -10.9912 C   0  0  0  0  0  0  0  0  0  0  0  0
   22.7819  -20.6806   -9.9617 C   0  0  1  0  0  0  0  0  0  0  0  0
   22.7467  -21.9987  -10.4027 O   0  0  0  0  0  0  0  0  0  0  0  0
   23.5260  -20.6036   -8.6207 C   0  0  2  0  0  0  0  0  0  0  0  0
   24.8618  -21.1217   -8.8042 N   0  0  0  0  0  0  0  0  0  0  0  0
   22.7543  -21.2167   -7.5459 C   0  0  0  0  0  0  0  0  0  0  0  0
   21.4328  -20.7762   -7.3361 O   0  0  0  0  0  0  0  0  0  0  0  0
   23.2024  -22.0994   -6.8147 O   0  0  0  0  0  0  0  0  0  0  0  0
  1  5  1  0
  1  2  1  0
  2  3  1  0
  4  3  1  0
  5  6  1  1
  5  4  1  0
  6  7  2  0
  8  9  1  0
  8  6  1  0
  9 10  1  1
 11 16  1  0
 11 10  1  0
 12 11  2  0
 13 14  2  0
 13 12  1  0
 14 15  1  0
 15 16  2  0
 17  9  1  0
 18 17  2  0
 20 19  1  6
 20 22  1  0
 21 20  1  0
 22 23  1  6
 23 17  1  0
 24 25  1  0
 24 22  1  0
 26 24  2  0
M  END
$$$$
