PFT.pdb
     RDKit          3D

 26 27  0  0  1  0  0  0  0  0999 V2000
   27.2369  -19.7633  -17.5327 N   0  0  0  0  0  0  0  0  0  0  0  0
   27.4454  -19.3570  -18.9058 C   0  0  0  0  0  0  0  0  0  0  0  0
   27.1098  -17.8944  -18.9829 C   0  0  0  0  0  0  0  0  0  0  0  0
   27.0881  -17.3824  -17.5812 C   0  0  0  0  0  0  0  0  0  0  0  0
   27.2703  -18.5883  -16.7255 C   0  0  1  0  0  0  0  0  0  0  0  0
   26.2600  -18.6349  -15.6170 C   0  0  0  0  0  0  0  0  0  0  0  0
   26.1149  -17.5983  -14.9394 O   0  0  0  0  0  0  0  0  0  0  0  0
   25.5035  -19.7802  -15.3384 N   0  0  0  0  0  0  0  0  0  0  0  0
   24.4312  -19.7064  -14.3207 C   0  0  1  0  0  0  0  0  0  0  0  0
   23.1856  -20.2988  -14.8824 C   0  0  0  0  0  0  0  0  0  0  0  0
   22.4792  -19.4584  -15.8560 C   0  0  0  0  0  0  0  0  0  0  0  0
   22.6190  -19.6714  -17.2348 C   0  0  0  0  0  0  0  0  0  0  0  0
   21.9133  -18.9079  -18.1352 C   0  0  0  0  0  0  0  0  0  0  0  0
   21.0432  -17.9065  -17.7323 C   0  0  0  0  0  0  0  0  0  0  0  0
   20.9081  -17.6997  -16.3791 C   0  0  0  0  0  0  0  0  0  0  0  0
   21.5997  -18.4470  -15.4763 C   0  0  0  0  0  0  0  0  0  0  0  0
   24.9096  -20.4738  -13.1591 C   0  0  0  0  0  0  0  0  0  0  0  0
   25.1805  -21.7195  -13.3527 O   0  0  0  0  0  0  0  0  0  0  0  0
   27.8379  -20.6497  -11.3769 C   0  0  0  0  0  0  0  0  0  0  0  0
   26.8380  -20.5733  -10.2613 C   0  0  1  0  0  0  0  0  0  0  0  0
   26.8481  -19.2724   -9.7709 O   0  0  0  0  0  0  0  0  0  0  0  0
   25.4401  -20.9126  -10.7986 C   0  0  2  0  0  0  0  0  0  0  0  0
   25.1101  -19.9771  -11.8485 N   0  0  0  0  0  0  0  0  0  0  0  0
   24.4647  -21.0189   -9.7197 C   0  0  0  0  0  0  0  0  0  0  0  0
   24.7197  -21.9289   -8.6750 O   0  0  0  0  0  0  0  0  0  0  0  0
   23.4311  -20.3523   -9.6790 O   0  0  0  0  0  0  0  0  0  0  0  0
  1  5  1  0
  1  2  1  0
  2  3  1  0
  4  3  1  0
  5  6  1  1
  5  4  1  0
  6  7  2  0
  8  9  1  0
  8  6  1  0
  9 10  1  6
 11 16  1  0
 11 10  1  0
 12 11  2  0
 13 14  2  0
 13 12  1  0
 14 15  1  0
 15 16  2  0
 17  9  1  0
 18 17  2  0
 20 19  1  6
 20 22  1  0
 21 20  1  0
 22 23  1  6
 23 17  1  0
 24 25  1  0
 24 22  1  0
 26 24  2  0
M  END
$$$$
