PFT.pdb
     RDKit          3D

 26 27  0  0  1  0  0  0  0  0999 V2000
   27.7034  -20.7084  -17.0949 N   0  0  0  0  0  0  0  0  0  0  0  0
   29.0004  -20.6463  -17.7334 C   0  0  0  0  0  0  0  0  0  0  0  0
   29.7962  -21.8115  -17.2170 C   0  0  0  0  0  0  0  0  0  0  0  0
   28.8239  -22.7530  -16.5881 C   0  0  0  0  0  0  0  0  0  0  0  0
   27.5147  -22.0434  -16.6308 C   0  0  1  0  0  0  0  0  0  0  0  0
   26.8209  -22.0870  -15.3009 C   0  0  0  0  0  0  0  0  0  0  0  0
   26.2129  -23.1370  -15.0138 O   0  0  0  0  0  0  0  0  0  0  0  0
   26.8422  -21.0088  -14.4074 N   0  0  0  0  0  0  0  0  0  0  0  0
   26.2034  -21.1587  -13.0805 C   0  0  1  0  0  0  0  0  0  0  0  0
   27.0248  -20.4479  -12.0618 C   0  0  0  0  0  0  0  0  0  0  0  0
   26.4853  -20.4728  -10.6974 C   0  0  0  0  0  0  0  0  0  0  0  0
   25.8538  -19.3488  -10.1463 C   0  0  0  0  0  0  0  0  0  0  0  0
   25.3094  -19.4013   -8.8843 C   0  0  0  0  0  0  0  0  0  0  0  0
   25.3566  -20.5482   -8.1068 C   0  0  0  0  0  0  0  0  0  0  0  0
   25.9768  -21.6493   -8.6500 C   0  0  0  0  0  0  0  0  0  0  0  0
   26.5201  -21.6125   -9.8972 C   0  0  0  0  0  0  0  0  0  0  0  0
   24.8633  -20.5606  -13.1964 C   0  0  0  0  0  0  0  0  0  0  0  0
   24.8026  -19.3335  -13.5877 O   0  0  0  0  0  0  0  0  0  0  0  0
   22.4747  -20.5820  -15.4717 C   0  0  0  0  0  0  0  0  0  0  0  0
   21.6377  -20.8384  -14.2536 C   0  0  1  0  0  0  0  0  0  0  0  0
   21.3640  -22.2006  -14.2059 O   0  0  0  0  0  0  0  0  0  0  0  0
   22.4164  -20.4231  -12.9970 C   0  0  2  0  0  0  0  0  0  0  0  0
   23.6304  -21.2029  -12.9281 N   0  0  0  0  0  0  0  0  0  0  0  0
   21.5728  -20.4640  -11.8082 C   0  0  0  0  0  0  0  0  0  0  0  0
   20.4137  -19.6639  -11.7829 O   0  0  0  0  0  0  0  0  0  0  0  0
   21.8253  -21.1636  -10.8276 O   0  0  0  0  0  0  0  0  0  0  0  0
  1  5  1  0
  1  2  1  0
  2  3  1  0
  4  3  1  0
  5  6  1  1
  5  4  1  0
  6  7  2  0
  8  9  1  0
  8  6  1  0
  9 10  1  1
 11 16  1  0
 11 10  1  0
 12 11  2  0
 13 14  2  0
 13 12  1  0
 14 15  1  0
 15 16  2  0
 17  9  1  0
 18 17  2  0
 20 19  1  6
 20 22  1  0
 21 20  1  0
 22 23  1  1
 23 17  1  0
 24 25  1  0
 24 22  1  0
 26 24  2  0
M  END
$$$$
