PFT.pdb
     RDKit          3D

 26 27  0  0  1  0  0  0  0  0999 V2000
   27.6808  -19.6360  -13.9637 N   0  0  0  0  0  0  0  0  0  0  0  0
   28.7096  -19.4603  -14.9660 C   0  0  0  0  0  0  0  0  0  0  0  0
   29.5763  -20.6867  -14.9200 C   0  0  0  0  0  0  0  0  0  0  0  0
   28.8137  -21.7259  -14.1677 C   0  0  0  0  0  0  0  0  0  0  0  0
   27.5910  -21.0301  -13.6778 C   0  0  1  0  0  0  0  0  0  0  0  0
   27.3538  -21.2941  -12.2197 C   0  0  0  0  0  0  0  0  0  0  0  0
   26.8660  -22.4009  -11.9169 O   0  0  0  0  0  0  0  0  0  0  0  0
   27.6590  -20.3542  -11.2273 N   0  0  0  0  0  0  0  0  0  0  0  0
   27.2756  -20.6350   -9.8254 C   0  0  1  0  0  0  0  0  0  0  0  0
   28.2169  -19.9288   -8.9126 C   0  0  0  0  0  0  0  0  0  0  0  0
   27.8862  -20.0170   -7.4857 C   0  0  0  0  0  0  0  0  0  0  0  0
   27.9223  -21.2434   -6.8070 C   0  0  0  0  0  0  0  0  0  0  0  0
   27.6576  -21.3044   -5.4587 C   0  0  0  0  0  0  0  0  0  0  0  0
   27.3470  -20.1760   -4.7153 C   0  0  0  0  0  0  0  0  0  0  0  0
   27.3122  -18.9743   -5.3838 C   0  0  0  0  0  0  0  0  0  0  0  0
   27.5718  -18.8983   -6.7175 C   0  0  0  0  0  0  0  0  0  0  0  0
   25.9006  -20.1346   -9.6643 C   0  0  0  0  0  0  0  0  0  0  0  0
   25.7383  -18.8555   -9.6811 O   0  0  0  0  0  0  0  0  0  0  0  0
   23.8664  -19.6317  -11.8967 C   0  0  0  0  0  0  0  0  0  0  0  0
   22.9074  -20.3188  -10.9704 C   0  0  1  0  0  0  0  0  0  0  0  0
   22.7988  -21.6435  -11.3784 O   0  0  0  0  0  0  0  0  0  0  0  0
   23.4485  -20.2627   -9.5345 C   0  0  2  0  0  0  0  0  0  0  0  0
   24.7342  -20.9202   -9.5002 N   0  0  0  0  0  0  0  0  0  0  0  0
   22.4655  -20.7502   -8.5739 C   0  0  0  0  0  0  0  0  0  0  0  0
   21.1892  -20.1542   -8.5623 O   0  0  0  0  0  0  0  0  0  0  0  0
   22.6981  -21.6563   -7.7742 O   0  0  0  0  0  0  0  0  0  0  0  0
  1  5  1  0
  1  2  1  0
  2  3  1  0
  4  3  1  0
  5  6  1  1
  5  4  1  0
  6  7  2  0
  8  9  1  0
  8  6  1  0
  9 10  1  1
 11 16  1  0
 11 10  1  0
 12 11  2  0
 13 14  2  0
 13 12  1  0
 14 15  1  0
 15 16  2  0
 17  9  1  0
 18 17  2  0
 20 19  1  6
 20 22  1  0
 21 20  1  0
 22 23  1  6
 23 17  1  0
 24 25  1  0
 24 22  1  0
 26 24  2  0
M  END
$$$$
