PFT.pdb
     RDKit          3D

 26 27  0  0  1  0  0  0  0  0999 V2000
   27.6229  -19.4314  -13.8794 N   0  0  0  0  0  0  0  0  0  0  0  0
   28.6213  -19.1989  -14.9008 C   0  0  0  0  0  0  0  0  0  0  0  0
   29.5658  -20.3668  -14.8603 C   0  0  0  0  0  0  0  0  0  0  0  0
   28.8844  -21.4461  -14.0869 C   0  0  0  0  0  0  0  0  0  0  0  0
   27.6278  -20.8258  -13.5812 C   0  0  1  0  0  0  0  0  0  0  0  0
   27.4327  -21.0916  -12.1172 C   0  0  0  0  0  0  0  0  0  0  0  0
   27.1197  -22.2532  -11.7896 O   0  0  0  0  0  0  0  0  0  0  0  0
   27.5898  -20.0950  -11.1459 N   0  0  0  0  0  0  0  0  0  0  0  0
   27.3351  -20.4253   -9.7257 C   0  0  1  0  0  0  0  0  0  0  0  0
   28.2484  -19.6208   -8.8675 C   0  0  0  0  0  0  0  0  0  0  0  0
   28.0727  -19.8078   -7.4227 C   0  0  0  0  0  0  0  0  0  0  0  0
   27.3143  -18.9071   -6.6614 C   0  0  0  0  0  0  0  0  0  0  0  0
   27.1173  -19.1209   -5.3172 C   0  0  0  0  0  0  0  0  0  0  0  0
   27.6492  -20.2186   -4.6581 C   0  0  0  0  0  0  0  0  0  0  0  0
   28.3928  -21.1005   -5.4074 C   0  0  0  0  0  0  0  0  0  0  0  0
   28.5965  -20.9023   -6.7383 C   0  0  0  0  0  0  0  0  0  0  0  0
   25.9257  -20.0865   -9.4683 C   0  0  0  0  0  0  0  0  0  0  0  0
   25.5938  -18.8452   -9.5762 O   0  0  0  0  0  0  0  0  0  0  0  0
   23.4798  -19.8125  -11.3246 C   0  0  0  0  0  0  0  0  0  0  0  0
   22.7910  -20.6133  -10.2595 C   0  0  1  0  0  0  0  0  0  0  0  0
   22.7888  -21.9436  -10.6635 O   0  0  0  0  0  0  0  0  0  0  0  0
   23.5572  -20.4762   -8.9358 C   0  0  2  0  0  0  0  0  0  0  0  0
   24.8938  -20.9914   -9.1211 N   0  0  0  0  0  0  0  0  0  0  0  0
   22.8088  -21.0507   -7.8238 C   0  0  0  0  0  0  0  0  0  0  0  0
   21.4880  -20.6109   -7.6085 O   0  0  0  0  0  0  0  0  0  0  0  0
   23.2761  -21.9002   -7.0658 O   0  0  0  0  0  0  0  0  0  0  0  0
  1  5  1  0
  1  2  1  0
  2  3  1  0
  4  3  1  0
  5  6  1  1
  5  4  1  0
  6  7  2  0
  8  9  1  0
  8  6  1  0
  9 10  1  1
 11 16  1  0
 11 10  1  0
 12 11  2  0
 13 14  2  0
 13 12  1  0
 14 15  1  0
 15 16  2  0
 17  9  1  0
 18 17  2  0
 20 19  1  6
 20 22  1  0
 21 20  1  0
 22 23  1  6
 23 17  1  0
 24 25  1  0
 24 22  1  0
 26 24  2  0
M  END
$$$$
