PFT.pdb
     RDKit          3D

 26 27  0  0  1  0  0  0  0  0999 V2000
   27.6724  -19.4729  -13.6267 N   0  0  0  0  0  0  0  0  0  0  0  0
   28.6801  -19.2967  -14.6502 C   0  0  0  0  0  0  0  0  0  0  0  0
   29.5904  -20.4897  -14.5750 C   0  0  0  0  0  0  0  0  0  0  0  0
   28.8759  -21.5278  -13.7756 C   0  0  0  0  0  0  0  0  0  0  0  0
   27.6362  -20.8584  -13.2913 C   0  0  1  0  0  0  0  0  0  0  0  0
   27.4291  -21.0791  -11.8215 C   0  0  0  0  0  0  0  0  0  0  0  0
   27.1533  -22.2390  -11.4567 O   0  0  0  0  0  0  0  0  0  0  0  0
   27.5360  -20.0436  -10.8845 N   0  0  0  0  0  0  0  0  0  0  0  0
   27.2439  -20.3259   -9.4612 C   0  0  1  0  0  0  0  0  0  0  0  0
   28.0880  -19.4448   -8.6072 C   0  0  0  0  0  0  0  0  0  0  0  0
   28.0321  -19.7308   -7.1690 C   0  0  0  0  0  0  0  0  0  0  0  0
   28.7103  -20.8286   -6.6206 C   0  0  0  0  0  0  0  0  0  0  0  0
   28.6895  -21.0570   -5.2645 C   0  0  0  0  0  0  0  0  0  0  0  0
   28.0086  -20.2278   -4.3864 C   0  0  0  0  0  0  0  0  0  0  0  0
   27.3440  -19.1517   -4.9271 C   0  0  0  0  0  0  0  0  0  0  0  0
   27.3555  -18.9129   -6.2668 C   0  0  0  0  0  0  0  0  0  0  0  0
   25.8123  -20.0422   -9.2682 C   0  0  0  0  0  0  0  0  0  0  0  0
   25.4335  -18.8188   -9.4171 O   0  0  0  0  0  0  0  0  0  0  0  0
   23.4547  -19.9003  -11.2355 C   0  0  0  0  0  0  0  0  0  0  0  0
   22.7499  -20.7162  -10.1927 C   0  0  1  0  0  0  0  0  0  0  0  0
   22.8291  -22.0511  -10.5732 O   0  0  0  0  0  0  0  0  0  0  0  0
   23.4405  -20.5238   -8.8347 C   0  0  2  0  0  0  0  0  0  0  0  0
   24.8057  -20.9830   -8.9425 N   0  0  0  0  0  0  0  0  0  0  0  0
   22.6613  -21.1121   -7.7514 C   0  0  0  0  0  0  0  0  0  0  0  0
   21.2998  -20.7674   -7.6432 O   0  0  0  0  0  0  0  0  0  0  0  0
   23.1365  -21.8942   -6.9285 O   0  0  0  0  0  0  0  0  0  0  0  0
  1  5  1  0
  1  2  1  0
  2  3  1  0
  4  3  1  0
  5  6  1  1
  5  4  1  0
  6  7  2  0
  8  9  1  0
  8  6  1  0
  9 10  1  1
 11 16  1  0
 11 10  1  0
 12 11  2  0
 13 14  2  0
 13 12  1  0
 14 15  1  0
 15 16  2  0
 17  9  1  0
 18 17  2  0
 20 19  1  6
 20 22  1  0
 21 20  1  0
 22 23  1  6
 23 17  1  0
 24 25  1  0
 24 22  1  0
 26 24  2  0
M  END
$$$$
