PFT.pdb
     RDKit          3D

 26 27  0  0  1  0  0  0  0  0999 V2000
   27.6625  -20.3609  -17.0337 N   0  0  0  0  0  0  0  0  0  0  0  0
   28.9123  -20.2608  -17.7561 C   0  0  0  0  0  0  0  0  0  0  0  0
   29.7089  -21.4898  -17.4205 C   0  0  0  0  0  0  0  0  0  0  0  0
   28.7570  -22.4703  -16.8206 C   0  0  0  0  0  0  0  0  0  0  0  0
   27.4689  -21.7324  -16.6949 C   0  0  1  0  0  0  0  0  0  0  0  0
   26.8701  -21.8983  -15.3290 C   0  0  0  0  0  0  0  0  0  0  0  0
   26.4630  -23.0366  -15.0239 O   0  0  0  0  0  0  0  0  0  0  0  0
   26.7634  -20.8364  -14.4220 N   0  0  0  0  0  0  0  0  0  0  0  0
   26.1316  -21.0736  -13.1047 C   0  0  1  0  0  0  0  0  0  0  0  0
   26.9285  -20.3852  -12.0517 C   0  0  0  0  0  0  0  0  0  0  0  0
   26.3508  -20.4291  -10.7035 C   0  0  0  0  0  0  0  0  0  0  0  0
   25.7677  -19.2921  -10.1265 C   0  0  0  0  0  0  0  0  0  0  0  0
   25.1865  -19.3596   -8.8818 C   0  0  0  0  0  0  0  0  0  0  0  0
   25.1485  -20.5348   -8.1473 C   0  0  0  0  0  0  0  0  0  0  0  0
   25.7215  -21.6487   -8.7157 C   0  0  0  0  0  0  0  0  0  0  0  0
   26.3003  -21.5973   -9.9462 C   0  0  0  0  0  0  0  0  0  0  0  0
   24.7711  -20.5180  -13.1921 C   0  0  0  0  0  0  0  0  0  0  0  0
   24.6691  -19.2612  -13.4613 O   0  0  0  0  0  0  0  0  0  0  0  0
   22.4101  -20.3899  -15.5035 C   0  0  0  0  0  0  0  0  0  0  0  0
   21.5714  -20.8058  -14.3315 C   0  0  1  0  0  0  0  0  0  0  0  0
   21.3550  -22.1757  -14.4295 O   0  0  0  0  0  0  0  0  0  0  0  0
   22.3180  -20.4923  -13.0269 C   0  0  2  0  0  0  0  0  0  0  0  0
   23.5599  -21.2300  -13.0175 N   0  0  0  0  0  0  0  0  0  0  0  0
   21.4618  -20.6849  -11.8622 C   0  0  0  0  0  0  0  0  0  0  0  0
   20.2909  -19.9087  -11.7573 O   0  0  0  0  0  0  0  0  0  0  0  0
   21.7136  -21.4922  -10.9680 O   0  0  0  0  0  0  0  0  0  0  0  0
  1  5  1  0
  1  2  1  0
  2  3  1  0
  4  3  1  0
  5  6  1  1
  5  4  1  0
  6  7  2  0
  8  9  1  0
  8  6  1  0
  9 10  1  1
 11 16  1  0
 11 10  1  0
 12 11  2  0
 13 14  2  0
 13 12  1  0
 14 15  1  0
 15 16  2  0
 17  9  1  0
 18 17  2  0
 20 19  1  6
 20 22  1  0
 21 20  1  0
 22 23  1  1
 23 17  1  0
 24 25  1  0
 24 22  1  0
 26 24  2  0
M  END
$$$$
