PFT.pdb
     RDKit          3D

 26 27  0  0  1  0  0  0  0  0999 V2000
   30.7188  -20.8987  -10.3715 N   0  0  0  0  0  0  0  0  0  0  0  0
   32.0841  -21.1689   -9.9753 C   0  0  0  0  0  0  0  0  0  0  0  0
   32.0614  -22.4391   -9.1729 C   0  0  0  0  0  0  0  0  0  0  0  0
   30.7489  -23.0963   -9.4428 C   0  0  0  0  0  0  0  0  0  0  0  0
   29.9927  -22.1224  -10.2789 C   0  0  1  0  0  0  0  0  0  0  0  0
   28.6000  -21.9156   -9.7600 C   0  0  0  0  0  0  0  0  0  0  0  0
   27.8958  -22.9332   -9.6077 O   0  0  0  0  0  0  0  0  0  0  0  0
   28.0935  -20.6461   -9.4544 N   0  0  0  0  0  0  0  0  0  0  0  0
   26.7106  -20.5258   -8.9405 C   0  0  1  0  0  0  0  0  0  0  0  0
   26.6616  -19.4373   -7.9253 C   0  0  0  0  0  0  0  0  0  0  0  0
   27.3779  -19.7171   -6.6756 C   0  0  0  0  0  0  0  0  0  0  0  0
   27.1206  -20.8807   -5.9368 C   0  0  0  0  0  0  0  0  0  0  0  0
   27.8335  -21.1546   -4.7930 C   0  0  0  0  0  0  0  0  0  0  0  0
   28.8254  -20.3089   -4.3207 C   0  0  0  0  0  0  0  0  0  0  0  0
   29.0757  -19.1681   -5.0474 C   0  0  0  0  0  0  0  0  0  0  0  0
   28.3784  -18.8836   -6.1810 C   0  0  0  0  0  0  0  0  0  0  0  0
   25.8635  -20.2096  -10.1022 C   0  0  0  0  0  0  0  0  0  0  0  0
   26.1392  -19.1294  -10.7501 O   0  0  0  0  0  0  0  0  0  0  0  0
   25.7845  -21.4236  -13.2247 C   0  0  0  0  0  0  0  0  0  0  0  0
   24.3156  -21.4184  -12.9207 C   0  0  1  0  0  0  0  0  0  0  0  0
   23.9441  -22.7191  -12.5997 O   0  0  0  0  0  0  0  0  0  0  0  0
   24.0400  -20.4924  -11.7272 C   0  0  2  0  0  0  0  0  0  0  0  0
   24.7782  -20.9798  -10.5853 N   0  0  0  0  0  0  0  0  0  0  0  0
   22.6093  -20.3020  -11.5183 C   0  0  0  0  0  0  0  0  0  0  0  0
   21.8301  -19.8481  -12.6004 O   0  0  0  0  0  0  0  0  0  0  0  0
   22.0516  -20.5190  -10.4429 O   0  0  0  0  0  0  0  0  0  0  0  0
  1  5  1  0
  1  2  1  0
  2  3  1  0
  4  3  1  0
  5  6  1  1
  5  4  1  0
  6  7  2  0
  8  9  1  0
  8  6  1  0
  9 10  1  1
 11 16  1  0
 11 10  1  0
 12 11  2  0
 13 14  2  0
 13 12  1  0
 14 15  1  0
 15 16  2  0
 17  9  1  0
 18 17  2  0
 20 19  1  1
 20 22  1  0
 21 20  1  0
 22 23  1  1
 23 17  1  0
 24 25  1  0
 24 22  1  0
 26 24  2  0
M  END
$$$$
