PFT.pdb
     RDKit          3D

 26 27  0  0  1  0  0  0  0  0999 V2000
   22.5293  -10.5485  -19.2080 N   0  0  0  0  0  0  0  0  0  0  0  0
   22.7888  -11.7318  -19.9993 C   0  0  0  0  0  0  0  0  0  0  0  0
   22.9818  -12.8673  -19.0344 C   0  0  0  0  0  0  0  0  0  0  0  0
   22.4470  -12.4103  -17.7181 C   0  0  0  0  0  0  0  0  0  0  0  0
   22.0908  -10.9780  -17.9210 C   0  0  1  0  0  0  0  0  0  0  0  0
   22.6343  -10.1140  -16.8210 C   0  0  0  0  0  0  0  0  0  0  0  0
   22.4052  -10.4772  -15.6504 O   0  0  0  0  0  0  0  0  0  0  0  0
   23.3682   -8.9485  -17.0750 N   0  0  0  0  0  0  0  0  0  0  0  0
   23.9438   -8.1963  -15.9375 C   0  0  1  0  0  0  0  0  0  0  0  0
   25.4065   -8.0245  -16.1580 C   0  0  0  0  0  0  0  0  0  0  0  0
   26.1800   -9.2704  -16.2107 C   0  0  0  0  0  0  0  0  0  0  0  0
   26.1731  -10.1745  -15.1391 C   0  0  0  0  0  0  0  0  0  0  0  0
   26.8635  -11.3612  -15.2211 C   0  0  0  0  0  0  0  0  0  0  0  0
   27.5886  -11.7174  -16.3478 C   0  0  0  0  0  0  0  0  0  0  0  0
   27.5937  -10.8285  -17.3975 C   0  0  0  0  0  0  0  0  0  0  0  0
   26.9155   -9.6506  -17.3310 C   0  0  0  0  0  0  0  0  0  0  0  0
   23.2528   -6.8967  -15.9087 C   0  0  0  0  0  0  0  0  0  0  0  0
   23.4521   -6.1065  -16.9079 O   0  0  0  0  0  0  0  0  0  0  0  0
   19.9657   -5.9353  -16.3878 C   0  0  0  0  0  0  0  0  0  0  0  0
   20.3188   -5.1878  -15.1361 C   0  0  1  0  0  0  0  0  0  0  0  0
   19.7999   -5.8963  -14.0582 O   0  0  0  0  0  0  0  0  0  0  0  0
   21.8459   -5.0936  -15.0060 C   0  0  2  0  0  0  0  0  0  0  0  0
   22.3825   -6.4300  -14.8943 N   0  0  0  0  0  0  0  0  0  0  0  0
   22.2356   -4.1676  -13.9489 C   0  0  0  0  0  0  0  0  0  0  0  0
   21.8213   -2.8250  -14.0498 O   0  0  0  0  0  0  0  0  0  0  0  0
   22.9082   -4.5032  -12.9745 O   0  0  0  0  0  0  0  0  0  0  0  0
  1  5  1  0
  1  2  1  0
  2  3  1  0
  4  3  1  0
  5  6  1  1
  5  4  1  0
  6  7  2  0
  8  9  1  0
  8  6  1  0
  9 10  1  6
 11 16  1  0
 11 10  1  0
 12 11  2  0
 13 14  2  0
 13 12  1  0
 14 15  1  0
 15 16  2  0
 17  9  1  0
 18 17  2  0
 20 19  1  6
 20 22  1  0
 21 20  1  0
 22 23  1  1
 23 17  1  0
 24 25  1  0
 24 22  1  0
 26 24  2  0
M  END
$$$$
