PFT.pdb
     RDKit          3D

 26 27  0  0  1  0  0  0  0  0999 V2000
   19.4636  -11.9871  -19.2315 N   0  0  0  0  0  0  0  0  0  0  0  0
   19.8291  -13.3151  -19.6751 C   0  0  0  0  0  0  0  0  0  0  0  0
   19.5033  -14.2553  -18.5493 C   0  0  0  0  0  0  0  0  0  0  0  0
   18.5952  -13.5191  -17.6216 C   0  0  0  0  0  0  0  0  0  0  0  0
   18.5346  -12.1311  -18.1594 C   0  0  1  0  0  0  0  0  0  0  0  0
   18.7545  -11.1120  -17.0801 C   0  0  0  0  0  0  0  0  0  0  0  0
   17.9755  -11.1411  -16.1069 O   0  0  0  0  0  0  0  0  0  0  0  0
   19.7817  -10.1621  -17.1425 N   0  0  0  0  0  0  0  0  0  0  0  0
   19.9008   -9.1564  -16.0629 C   0  0  1  0  0  0  0  0  0  0  0  0
   21.3098   -9.1236  -15.5817 C   0  0  0  0  0  0  0  0  0  0  0  0
   21.6138   -8.0636  -14.6135 C   0  0  0  0  0  0  0  0  0  0  0  0
   21.3768   -8.2426  -13.2433 C   0  0  0  0  0  0  0  0  0  0  0  0
   21.7116   -7.2596  -12.3415 C   0  0  0  0  0  0  0  0  0  0  0  0
   22.2903   -6.0627  -12.7348 C   0  0  0  0  0  0  0  0  0  0  0  0
   22.5215   -5.8897  -14.0797 C   0  0  0  0  0  0  0  0  0  0  0  0
   22.1956   -6.8532  -14.9838 C   0  0  0  0  0  0  0  0  0  0  0  0
   19.5093   -7.8663  -16.6541 C   0  0  0  0  0  0  0  0  0  0  0  0
   20.0080   -7.5763  -17.8072 O   0  0  0  0  0  0  0  0  0  0  0  0
   16.1969   -5.4305  -15.6645 C   0  0  0  0  0  0  0  0  0  0  0  0
   16.8713   -5.5257  -17.0009 C   0  0  1  0  0  0  0  0  0  0  0  0
   16.6102   -4.3484  -17.6928 O   0  0  0  0  0  0  0  0  0  0  0  0
   18.3858   -5.6842  -16.8033 C   0  0  2  0  0  0  0  0  0  0  0  0
   18.6310   -6.9130  -16.0846 N   0  0  0  0  0  0  0  0  0  0  0  0
   18.9768   -4.4849  -16.2209 C   0  0  0  0  0  0  0  0  0  0  0  0
   18.9790   -3.3017  -16.9853 O   0  0  0  0  0  0  0  0  0  0  0  0
   19.4728   -4.4579  -15.0949 O   0  0  0  0  0  0  0  0  0  0  0  0
  1  5  1  0
  1  2  1  0
  2  3  1  0
  4  3  1  0
  5  6  1  1
  5  4  1  0
  6  7  2  0
  8  9  1  0
  8  6  1  0
  9 10  1  6
 11 16  1  0
 11 10  1  0
 12 11  2  0
 13 14  2  0
 13 12  1  0
 14 15  1  0
 15 16  2  0
 17  9  1  0
 18 17  2  0
 20 19  1  1
 20 22  1  0
 21 20  1  0
 22 23  1  1
 23 17  1  0
 24 25  1  0
 24 22  1  0
 26 24  2  0
M  END
$$$$
