KPR.pdb
     RDKit          3D

 28 28  0  0  1  0  0  0  0  0999 V2000
   22.4558  -19.7804  -16.9465 N   0  0  0  0  0  0  0  0  0  0  0  0
   23.5522  -19.8581  -16.0253 C   0  0  1  0  0  0  0  0  0  0  0  0
   23.2120  -20.7488  -14.8350 C   0  0  0  0  0  0  0  0  0  0  0  0
   22.2246  -20.0532  -13.9603 C   0  0  0  0  0  0  0  0  0  0  0  0
   21.1904  -21.0422  -13.4894 C   0  0  0  0  0  0  0  0  0  0  0  0
   20.0987  -20.3673  -12.7180 C   0  0  0  0  0  0  0  0  0  0  0  0
   19.1008  -21.3339  -12.2464 N   0  0  0  0  0  0  0  0  0  0  0  0
   24.8409  -20.2345  -16.6003 C   0  0  0  0  0  0  0  0  0  0  0  0
   24.8090  -21.1595  -17.4839 O   0  0  0  0  0  0  0  0  0  0  0  0
   26.1080  -19.6858  -16.2836 N   0  0  0  0  0  0  0  0  0  0  0  0
   26.3788  -18.5946  -15.3727 C   0  0  0  0  0  0  0  0  0  0  0  0
   27.8558  -18.7431  -15.0944 C   0  0  0  0  0  0  0  0  0  0  0  0
   28.3717  -19.0878  -16.4898 C   0  0  0  0  0  0  0  0  0  0  0  0
   27.3665  -20.1592  -16.8655 C   0  0  1  0  0  0  0  0  0  0  0  0
   27.7277  -21.4941  -16.3557 C   0  0  0  0  0  0  0  0  0  0  0  0
   27.5945  -21.7260  -15.1125 O   0  0  0  0  0  0  0  0  0  0  0  0
   29.2844  -29.0858  -17.0603 N   0  0  0  0  0  0  0  0  0  0  0  0
   27.8908  -29.3540  -16.9992 C   0  0  0  0  0  0  0  0  0  0  0  0
   27.4701  -30.4220  -16.4462 N   0  0  0  0  0  0  0  0  0  0  0  0
   26.9236  -28.4602  -17.5420 N   0  0  0  0  0  0  0  0  0  0  0  0
   27.2767  -27.1761  -18.0932 C   0  0  0  0  0  0  0  0  0  0  0  0
   27.9426  -26.2780  -17.0836 C   0  0  0  0  0  0  0  0  0  0  0  0
   27.8008  -24.8560  -17.5016 C   0  0  0  0  0  0  0  0  0  0  0  0
   28.5632  -23.8693  -16.6333 C   0  0  2  0  0  0  0  0  0  0  0  0
   28.2163  -22.5512  -17.1459 N   0  0  0  0  0  0  0  0  0  0  0  0
   30.0120  -24.0622  -16.8188 C   0  0  0  0  0  0  0  0  0  0  0  0
   30.6979  -23.4687  -17.6935 O   0  0  0  0  0  0  0  0  0  0  0  0
   30.7025  -24.9444  -15.9993 O   0  0  0  0  0  0  0  0  0  0  0  0
  2  1  1  6
  3  4  1  0
  3  2  1  0
  4  5  1  0
  5  6  1  0
  7  6  1  0
  8  2  1  0
  9  8  2  0
 10  8  1  0
 11 10  1  0
 12 13  1  0
 12 11  1  0
 13 14  1  0
 14 10  1  0
 14 15  1  1
 15 16  2  0
 17 18  1  0
 18 19  2  0
 18 20  1  0
 20 21  1  0
 21 22  1  0
 22 23  1  0
 24 23  1  6
 25 15  1  0
 25 24  1  0
 26 24  1  0
 26 28  1  0
 27 26  2  0
M  END
$$$$
