KPR.pdb
     RDKit          3D

 28 28  0  0  1  0  0  0  0  0999 V2000
   21.0297  -15.8896  -18.2345 N   0  0  0  0  0  0  0  0  0  0  0  0
   19.8833  -15.1813  -18.7251 C   0  0  1  0  0  0  0  0  0  0  0  0
   18.5996  -15.6927  -18.0796 C   0  0  0  0  0  0  0  0  0  0  0  0
   18.5831  -17.1834  -18.1198 C   0  0  0  0  0  0  0  0  0  0  0  0
   18.0128  -17.7117  -16.8294 C   0  0  0  0  0  0  0  0  0  0  0  0
   17.8024  -19.1930  -16.8898 C   0  0  0  0  0  0  0  0  0  0  0  0
   17.5099  -19.7461  -15.5628 N   0  0  0  0  0  0  0  0  0  0  0  0
   19.9547  -13.7246  -18.6490 C   0  0  0  0  0  0  0  0  0  0  0  0
   20.4022  -13.2444  -17.5506 O   0  0  0  0  0  0  0  0  0  0  0  0
   19.5839  -12.7995  -19.6559 N   0  0  0  0  0  0  0  0  0  0  0  0
   19.1624  -13.1075  -21.0055 C   0  0  0  0  0  0  0  0  0  0  0  0
   18.4879  -11.8315  -21.4501 C   0  0  0  0  0  0  0  0  0  0  0  0
   19.4427  -10.7911  -20.8686 C   0  0  0  0  0  0  0  0  0  0  0  0
   19.5863  -11.3470  -19.4651 C   0  0  1  0  0  0  0  0  0  0  0  0
   18.5029  -10.9201  -18.5614 C   0  0  0  0  0  0  0  0  0  0  0  0
   17.4427  -11.6205  -18.5110 O   0  0  0  0  0  0  0  0  0  0  0  0
   21.4800   -7.0680  -11.8893 N   0  0  0  0  0  0  0  0  0  0  0  0
   21.5032   -6.2938  -13.0801 C   0  0  0  0  0  0  0  0  0  0  0  0
   22.2651   -5.2760  -13.1648 N   0  0  0  0  0  0  0  0  0  0  0  0
   20.6932   -6.6144  -14.2071 N   0  0  0  0  0  0  0  0  0  0  0  0
   19.7799   -7.7294  -14.2145 C   0  0  0  0  0  0  0  0  0  0  0  0
   19.0918   -7.9029  -15.5432 C   0  0  0  0  0  0  0  0  0  0  0  0
   18.1964   -9.0916  -15.4967 C   0  0  0  0  0  0  0  0  0  0  0  0
   17.4922   -9.3968  -16.8081 C   0  0  2  0  0  0  0  0  0  0  0  0
   18.5467   -9.7814  -17.7356 N   0  0  0  0  0  0  0  0  0  0  0  0
   16.8560   -8.1728  -17.3255 C   0  0  0  0  0  0  0  0  0  0  0  0
   17.2819   -7.5186  -18.3146 O   0  0  0  0  0  0  0  0  0  0  0  0
   15.7137   -7.6755  -16.7133 O   0  0  0  0  0  0  0  0  0  0  0  0
  2  1  1  1
  3  4  1  0
  3  2  1  0
  4  5  1  0
  5  6  1  0
  7  6  1  0
  8  2  1  0
  9  8  2  0
 10  8  1  0
 11 10  1  0
 12 13  1  0
 12 11  1  0
 13 14  1  0
 14 10  1  0
 14 15  1  1
 15 16  2  0
 17 18  1  0
 18 19  2  0
 18 20  1  0
 20 21  1  0
 21 22  1  0
 22 23  1  0
 24 23  1  1
 25 15  1  0
 25 24  1  0
 26 24  1  0
 26 28  1  0
 27 26  2  0
M  END
$$$$
