KPR.pdb
     RDKit          3D

 28 28  0  0  1  0  0  0  0  0999 V2000
   17.5080  -10.5199  -18.9706 N   0  0  0  0  0  0  0  0  0  0  0  0
   17.2207   -9.3265  -18.2290 C   0  0  1  0  0  0  0  0  0  0  0  0
   16.5567   -9.6510  -16.8950 C   0  0  0  0  0  0  0  0  0  0  0  0
   16.1342  -11.0812  -16.8852 C   0  0  0  0  0  0  0  0  0  0  0  0
   16.9663  -11.8411  -15.8854 C   0  0  0  0  0  0  0  0  0  0  0  0
   16.1101  -12.6669  -14.9757 C   0  0  0  0  0  0  0  0  0  0  0  0
   15.1998  -11.8268  -14.1896 N   0  0  0  0  0  0  0  0  0  0  0  0
   18.3421   -8.4104  -18.0384 C   0  0  0  0  0  0  0  0  0  0  0  0
   19.4971   -8.9534  -17.9472 O   0  0  0  0  0  0  0  0  0  0  0  0
   18.2822   -6.9980  -17.9458 N   0  0  0  0  0  0  0  0  0  0  0  0
   17.1047   -6.1679  -18.0822 C   0  0  0  0  0  0  0  0  0  0  0  0
   17.5374   -4.8604  -17.4625 C   0  0  0  0  0  0  0  0  0  0  0  0
   18.9600   -4.7483  -18.0065 C   0  0  0  0  0  0  0  0  0  0  0  0
   19.4512   -6.1498  -17.7002 C   0  0  1  0  0  0  0  0  0  0  0  0
   19.9454   -6.2996  -16.3196 C   0  0  0  0  0  0  0  0  0  0  0  0
   19.1217   -6.6424  -15.4135 O   0  0  0  0  0  0  0  0  0  0  0  0
   26.2644  -11.2123  -15.9200 N   0  0  0  0  0  0  0  0  0  0  0  0
   24.9185  -11.5539  -16.2196 C   0  0  0  0  0  0  0  0  0  0  0  0
   24.6437  -12.6994  -16.7051 N   0  0  0  0  0  0  0  0  0  0  0  0
   23.8405  -10.6500  -15.9954 N   0  0  0  0  0  0  0  0  0  0  0  0
   24.0406   -9.3107  -15.5019 C   0  0  0  0  0  0  0  0  0  0  0  0
   22.7442   -8.5708  -15.2990 C   0  0  0  0  0  0  0  0  0  0  0  0
   23.0185   -7.2091  -14.7632 C   0  0  0  0  0  0  0  0  0  0  0  0
   21.7799   -6.3495  -14.5737 C   0  0  2  0  0  0  0  0  0  0  0  0
   21.2771   -6.0905  -15.9155 N   0  0  0  0  0  0  0  0  0  0  0  0
   22.1595   -5.0587  -13.9736 C   0  0  0  0  0  0  0  0  0  0  0  0
   22.2911   -3.9879  -14.6246 O   0  0  0  0  0  0  0  0  0  0  0  0
   22.3961   -4.9738  -12.6084 O   0  0  0  0  0  0  0  0  0  0  0  0
  2  1  1  1
  3  4  1  0
  3  2  1  0
  4  5  1  0
  5  6  1  0
  7  6  1  0
  8  2  1  0
  9  8  2  0
 10  8  1  0
 11 10  1  0
 12 13  1  0
 12 11  1  0
 13 14  1  0
 14 10  1  0
 14 15  1  1
 15 16  2  0
 17 18  1  0
 18 19  2  0
 18 20  1  0
 20 21  1  0
 21 22  1  0
 22 23  1  0
 24 23  1  6
 25 15  1  0
 25 24  1  0
 26 24  1  0
 26 28  1  0
 27 26  2  0
M  END
$$$$
