KPR.pdb
     RDKit          3D

 28 28  0  0  1  0  0  0  0  0999 V2000
   18.6721  -26.8830  -11.9250 N   0  0  0  0  0  0  0  0  0  0  0  0
   18.9772  -26.3573  -10.6261 C   0  0  1  0  0  0  0  0  0  0  0  0
   19.3297  -24.8752  -10.6983 C   0  0  0  0  0  0  0  0  0  0  0  0
   18.5168  -24.2227  -11.7648 C   0  0  0  0  0  0  0  0  0  0  0  0
   17.6830  -23.1253  -11.1564 C   0  0  0  0  0  0  0  0  0  0  0  0
   17.9781  -21.7998  -11.7875 C   0  0  0  0  0  0  0  0  0  0  0  0
   16.7441  -21.0806  -12.1228 N   0  0  0  0  0  0  0  0  0  0  0  0
   17.9768  -26.6003   -9.5902 C   0  0  0  0  0  0  0  0  0  0  0  0
   17.4436  -25.5579   -9.0738 O   0  0  0  0  0  0  0  0  0  0  0  0
   17.5410  -27.8578   -9.1047 N   0  0  0  0  0  0  0  0  0  0  0  0
   17.9194  -29.1611   -9.6069 C   0  0  0  0  0  0  0  0  0  0  0  0
   17.5368  -30.0852   -8.4752 C   0  0  0  0  0  0  0  0  0  0  0  0
   16.1997  -29.4781   -8.0560 C   0  0  0  0  0  0  0  0  0  0  0  0
   16.6027  -28.0177   -7.9910 C   0  0  1  0  0  0  0  0  0  0  0  0
   17.2225  -27.6464   -6.7063 C   0  0  0  0  0  0  0  0  0  0  0  0
   18.4768  -27.8048   -6.5688 O   0  0  0  0  0  0  0  0  0  0  0  0
   12.9133  -21.5364   -3.5177 N   0  0  0  0  0  0  0  0  0  0  0  0
   12.4402  -22.7548   -4.0740 C   0  0  0  0  0  0  0  0  0  0  0  0
   11.3023  -22.7960   -4.6457 N   0  0  0  0  0  0  0  0  0  0  0  0
   13.2008  -23.9580   -4.0179 N   0  0  0  0  0  0  0  0  0  0  0  0
   14.5595  -23.9956   -3.5384 C   0  0  0  0  0  0  0  0  0  0  0  0
   15.1440  -25.3837   -3.5689 C   0  0  0  0  0  0  0  0  0  0  0  0
   16.5509  -25.3286   -4.0530 C   0  0  0  0  0  0  0  0  0  0  0  0
   17.1599  -26.6857   -4.3633 C   0  0  2  0  0  0  0  0  0  0  0  0
   16.5278  -27.1220   -5.6004 N   0  0  0  0  0  0  0  0  0  0  0  0
   16.7982  -27.6449   -3.3052 C   0  0  0  0  0  0  0  0  0  0  0  0
   15.8303  -28.4482   -3.3801 O   0  0  0  0  0  0  0  0  0  0  0  0
   17.5449  -27.6990   -2.1364 O   0  0  0  0  0  0  0  0  0  0  0  0
  2  1  1  6
  3  4  1  0
  3  2  1  0
  4  5  1  0
  5  6  1  0
  7  6  1  0
  8  2  1  0
  9  8  2  0
 10  8  1  0
 11 10  1  0
 12 13  1  0
 12 11  1  0
 13 14  1  0
 14 10  1  0
 14 15  1  1
 15 16  2  0
 17 18  1  0
 18 19  2  0
 18 20  1  0
 20 21  1  0
 21 22  1  0
 22 23  1  0
 24 23  1  1
 25 15  1  0
 25 24  1  0
 26 24  1  0
 26 28  1  0
 27 26  2  0
M  END
$$$$
