KPR.pdb
     RDKit          3D

 28 28  0  0  1  0  0  0  0  0999 V2000
   28.0514  -20.0051  -19.1088 N   0  0  0  0  0  0  0  0  0  0  0  0
   27.2354  -19.0865  -18.3692 C   0  0  1  0  0  0  0  0  0  0  0  0
   26.1465  -18.4821  -19.2495 C   0  0  0  0  0  0  0  0  0  0  0  0
   26.5407  -17.1004  -19.6490 C   0  0  0  0  0  0  0  0  0  0  0  0
   26.9982  -17.1068  -21.0844 C   0  0  0  0  0  0  0  0  0  0  0  0
   27.3970  -15.7365  -21.5379 C   0  0  0  0  0  0  0  0  0  0  0  0
   26.2274  -14.8662  -21.7027 N   0  0  0  0  0  0  0  0  0  0  0  0
   26.6682  -19.5989  -17.1247 C   0  0  0  0  0  0  0  0  0  0  0  0
   26.2447  -20.8058  -17.1597 O   0  0  0  0  0  0  0  0  0  0  0  0
   26.5411  -18.9040  -15.8966 N   0  0  0  0  0  0  0  0  0  0  0  0
   26.9919  -17.5594  -15.6090 C   0  0  0  0  0  0  0  0  0  0  0  0
   26.2185  -17.2016  -14.3621 C   0  0  0  0  0  0  0  0  0  0  0  0
   26.3044  -18.5167  -13.5905 C   0  0  0  0  0  0  0  0  0  0  0  0
   25.9212  -19.4774  -14.6994 C   0  0  1  0  0  0  0  0  0  0  0  0
   24.4631  -19.6190  -14.8625 C   0  0  0  0  0  0  0  0  0  0  0  0
   23.8103  -18.6472  -15.3589 O   0  0  0  0  0  0  0  0  0  0  0  0
   18.7308  -24.3303  -12.3140 N   0  0  0  0  0  0  0  0  0  0  0  0
   19.0749  -23.8145  -11.0360 C   0  0  0  0  0  0  0  0  0  0  0  0
   19.1159  -24.5890  -10.0251 N   0  0  0  0  0  0  0  0  0  0  0  0
   19.3823  -22.4384  -10.8330 N   0  0  0  0  0  0  0  0  0  0  0  0
   19.9079  -21.5981  -11.8794 C   0  0  0  0  0  0  0  0  0  0  0  0
   21.0028  -22.2714  -12.6650 C   0  0  0  0  0  0  0  0  0  0  0  0
   22.1521  -21.3393  -12.8303 C   0  0  0  0  0  0  0  0  0  0  0  0
   22.2927  -20.7606  -14.2282 C   0  0  2  0  0  0  0  0  0  0  0  0
   23.7218  -20.7613  -14.5076 N   0  0  0  0  0  0  0  0  0  0  0  0
   21.8291  -19.3622  -14.2346 C   0  0  0  0  0  0  0  0  0  0  0  0
   22.2672  -18.4686  -13.4617 O   0  0  0  0  0  0  0  0  0  0  0  0
   20.8493  -18.9628  -15.1331 O   0  0  0  0  0  0  0  0  0  0  0  0
  2  1  1  6
  3  4  1  0
  3  2  1  0
  4  5  1  0
  5  6  1  0
  7  6  1  0
  8  2  1  0
  9  8  2  0
 10  8  1  0
 11 10  1  0
 12 13  1  0
 12 11  1  0
 13 14  1  0
 14 10  1  0
 14 15  1  6
 15 16  2  0
 17 18  1  0
 18 19  2  0
 18 20  1  0
 20 21  1  0
 21 22  1  0
 22 23  1  0
 24 23  1  1
 25 15  1  0
 25 24  1  0
 26 24  1  0
 26 28  1  0
 27 26  2  0
M  END
$$$$
