KPR.pdb
     RDKit          3D

 28 28  0  0  1  0  0  0  0  0999 V2000
   27.3807  -21.0176  -16.0352 N   0  0  0  0  0  0  0  0  0  0  0  0
   26.7784  -20.3038  -14.9469 C   0  0  1  0  0  0  0  0  0  0  0  0
   26.1452  -19.0009  -15.4234 C   0  0  0  0  0  0  0  0  0  0  0  0
   27.2079  -17.9717  -15.6114 C   0  0  0  0  0  0  0  0  0  0  0  0
   26.5672  -16.6374  -15.8918 C   0  0  0  0  0  0  0  0  0  0  0  0
   27.5935  -15.5561  -16.0323 C   0  0  0  0  0  0  0  0  0  0  0  0
   26.9722  -14.2686  -16.3623 N   0  0  0  0  0  0  0  0  0  0  0  0
   25.8388  -21.0658  -14.1287 C   0  0  0  0  0  0  0  0  0  0  0  0
   25.1098  -21.9100  -14.7558 O   0  0  0  0  0  0  0  0  0  0  0  0
   25.6545  -20.9671  -12.7275 N   0  0  0  0  0  0  0  0  0  0  0  0
   26.4026  -20.1354  -11.8096 C   0  0  0  0  0  0  0  0  0  0  0  0
   25.5142  -20.0925  -10.5891 C   0  0  0  0  0  0  0  0  0  0  0  0
   25.0434  -21.5441  -10.5325 C   0  0  0  0  0  0  0  0  0  0  0  0
   24.6490  -21.7311  -11.9847 C   0  0  1  0  0  0  0  0  0  0  0  0
   23.2851  -21.2556  -12.2785 C   0  0  0  0  0  0  0  0  0  0  0  0
   23.0965  -20.0071  -12.4290 O   0  0  0  0  0  0  0  0  0  0  0  0
   18.8108  -23.9892   -7.9595 N   0  0  0  0  0  0  0  0  0  0  0  0
   18.9461  -24.8311   -9.0956 C   0  0  0  0  0  0  0  0  0  0  0  0
   18.3032  -25.9295   -9.1562 N   0  0  0  0  0  0  0  0  0  0  0  0
   19.7886  -24.4917  -10.1930 N   0  0  0  0  0  0  0  0  0  0  0  0
   19.3311  -24.5170  -11.5594 C   0  0  0  0  0  0  0  0  0  0  0  0
   20.3993  -24.0937  -12.5336 C   0  0  0  0  0  0  0  0  0  0  0  0
   20.0251  -22.7964  -13.1611 C   0  0  0  0  0  0  0  0  0  0  0  0
   20.8013  -21.6001  -12.6363 C   0  0  2  0  0  0  0  0  0  0  0  0
   22.1553  -22.0846  -12.4081 N   0  0  0  0  0  0  0  0  0  0  0  0
   20.2448  -21.1786  -11.3389 C   0  0  0  0  0  0  0  0  0  0  0  0
   20.8087  -21.3772  -10.2297 O   0  0  0  0  0  0  0  0  0  0  0  0
   19.0248  -20.5182  -11.2917 O   0  0  0  0  0  0  0  0  0  0  0  0
  2  1  1  6
  3  4  1  0
  3  2  1  0
  4  5  1  0
  5  6  1  0
  7  6  1  0
  8  2  1  0
  9  8  2  0
 10  8  1  0
 11 10  1  0
 12 13  1  0
 12 11  1  0
 13 14  1  0
 14 10  1  0
 14 15  1  1
 15 16  2  0
 17 18  1  0
 18 19  2  0
 18 20  1  0
 20 21  1  0
 21 22  1  0
 22 23  1  0
 24 23  1  1
 25 15  1  0
 25 24  1  0
 26 24  1  0
 26 28  1  0
 27 26  2  0
M  END
$$$$
