KPR.pdb
     RDKit          3D

 28 28  0  0  1  0  0  0  0  0999 V2000
   26.3013  -22.0429  -16.8213 N   0  0  0  0  0  0  0  0  0  0  0  0
   25.2406  -22.9219  -17.2197 C   0  0  1  0  0  0  0  0  0  0  0  0
   25.4939  -24.3471  -16.7397 C   0  0  0  0  0  0  0  0  0  0  0  0
   26.7373  -24.8714  -17.3745 C   0  0  0  0  0  0  0  0  0  0  0  0
   27.0130  -26.2606  -16.8608 C   0  0  0  0  0  0  0  0  0  0  0  0
   28.2325  -26.8487  -17.5005 C   0  0  0  0  0  0  0  0  0  0  0  0
   29.4537  -26.4475  -16.7932 N   0  0  0  0  0  0  0  0  0  0  0  0
   23.8905  -22.4906  -16.8674 C   0  0  0  0  0  0  0  0  0  0  0  0
   23.7194  -22.1297  -15.6517 O   0  0  0  0  0  0  0  0  0  0  0  0
   22.7640  -22.4311  -17.7244 N   0  0  0  0  0  0  0  0  0  0  0  0
   22.7427  -22.6828  -19.1492 C   0  0  0  0  0  0  0  0  0  0  0  0
   21.2773  -22.9159  -19.4309 C   0  0  0  0  0  0  0  0  0  0  0  0
   20.6469  -21.8362  -18.5541 C   0  0  0  0  0  0  0  0  0  0  0  0
   21.4154  -22.0828  -17.2703 C   0  0  1  0  0  0  0  0  0  0  0  0
   20.8310  -23.1547  -16.4444 C   0  0  0  0  0  0  0  0  0  0  0  0
   21.1547  -24.3588  -16.6941 O   0  0  0  0  0  0  0  0  0  0  0  0
   19.7043  -19.2236  -10.2872 N   0  0  0  0  0  0  0  0  0  0  0  0
   20.9638  -19.8797  -10.3179 C   0  0  0  0  0  0  0  0  0  0  0  0
   22.0084  -19.2754   -9.9093 N   0  0  0  0  0  0  0  0  0  0  0  0
   21.1109  -21.2132  -10.7970 N   0  0  0  0  0  0  0  0  0  0  0  0
   20.0120  -21.9653  -11.3484 C   0  0  0  0  0  0  0  0  0  0  0  0
   20.3536  -22.6004  -12.6711 C   0  0  0  0  0  0  0  0  0  0  0  0
   19.1870  -23.3765  -13.1747 C   0  0  0  0  0  0  0  0  0  0  0  0
   19.3994  -24.0119  -14.5386 C   0  0  2  0  0  0  0  0  0  0  0  0
   19.9286  -22.9509  -15.3839 N   0  0  0  0  0  0  0  0  0  0  0  0
   18.1026  -24.4333  -15.0964 C   0  0  0  0  0  0  0  0  0  0  0  0
   17.4879  -23.8118  -16.0040 O   0  0  0  0  0  0  0  0  0  0  0  0
   17.4852  -25.5815  -14.6197 O   0  0  0  0  0  0  0  0  0  0  0  0
  2  1  1  1
  3  4  1  0
  3  2  1  0
  4  5  1  0
  5  6  1  0
  7  6  1  0
  8  2  1  0
  9  8  2  0
 10  8  1  0
 11 10  1  0
 12 13  1  0
 12 11  1  0
 13 14  1  0
 14 10  1  0
 14 15  1  6
 15 16  2  0
 17 18  1  0
 18 19  2  0
 18 20  1  0
 20 21  1  0
 21 22  1  0
 22 23  1  0
 24 23  1  1
 25 15  1  0
 25 24  1  0
 26 24  1  0
 26 28  1  0
 27 26  2  0
M  END
$$$$
