KPR.pdb
     RDKit          3D

 28 28  0  0  1  0  0  0  0  0999 V2000
   28.1445  -23.4390  -16.7426 N   0  0  0  0  0  0  0  0  0  0  0  0
   27.5282  -22.1506  -16.8728 C   0  0  1  0  0  0  0  0  0  0  0  0
   26.3567  -22.1942  -17.8481 C   0  0  0  0  0  0  0  0  0  0  0  0
   26.8296  -22.6960  -19.1705 C   0  0  0  0  0  0  0  0  0  0  0  0
   25.6977  -23.4011  -19.8712 C   0  0  0  0  0  0  0  0  0  0  0  0
   26.1382  -23.9751  -21.1822 C   0  0  0  0  0  0  0  0  0  0  0  0
   25.0631  -24.7456  -21.8169 N   0  0  0  0  0  0  0  0  0  0  0  0
   27.1364  -21.5035  -15.6235 C   0  0  0  0  0  0  0  0  0  0  0  0
   26.7682  -22.2867  -14.6809 O   0  0  0  0  0  0  0  0  0  0  0  0
   27.1230  -20.1132  -15.3517 N   0  0  0  0  0  0  0  0  0  0  0  0
   27.4223  -19.0441  -16.2797 C   0  0  0  0  0  0  0  0  0  0  0  0
   26.8291  -17.8311  -15.6030 C   0  0  0  0  0  0  0  0  0  0  0  0
   27.2289  -18.0944  -14.1528 C   0  0  0  0  0  0  0  0  0  0  0  0
   26.8021  -19.5451  -14.0400 C   0  0  1  0  0  0  0  0  0  0  0  0
   25.3722  -19.7031  -13.7192 C   0  0  0  0  0  0  0  0  0  0  0  0
   24.5346  -19.7307  -14.6756 O   0  0  0  0  0  0  0  0  0  0  0  0
   20.2974  -24.2355  -10.2208 N   0  0  0  0  0  0  0  0  0  0  0  0
   19.9352  -23.0205   -9.5802 C   0  0  0  0  0  0  0  0  0  0  0  0
   19.1518  -23.0376   -8.5755 N   0  0  0  0  0  0  0  0  0  0  0  0
   20.4212  -21.7570  -10.0237 N   0  0  0  0  0  0  0  0  0  0  0  0
   21.5585  -21.1081   -9.4214 C   0  0  0  0  0  0  0  0  0  0  0  0
   21.9195  -19.8186  -10.1114 C   0  0  0  0  0  0  0  0  0  0  0  0
   23.3208  -19.8877  -10.6098 C   0  0  0  0  0  0  0  0  0  0  0  0
   23.4425  -20.0509  -12.1156 C   0  0  2  0  0  0  0  0  0  0  0  0
   24.8492  -19.8280  -12.4187 N   0  0  0  0  0  0  0  0  0  0  0  0
   22.6600  -19.0021  -12.7926 C   0  0  0  0  0  0  0  0  0  0  0  0
   21.5568  -19.2031  -13.3674 O   0  0  0  0  0  0  0  0  0  0  0  0
   23.1324  -17.6972  -12.8218 O   0  0  0  0  0  0  0  0  0  0  0  0
  2  1  1  1
  3  4  1  0
  3  2  1  0
  4  5  1  0
  5  6  1  0
  7  6  1  0
  8  2  1  0
  9  8  2  0
 10  8  1  0
 11 10  1  0
 12 13  1  0
 12 11  1  0
 13 14  1  0
 14 10  1  0
 14 15  1  6
 15 16  2  0
 17 18  1  0
 18 19  2  0
 18 20  1  0
 20 21  1  0
 21 22  1  0
 22 23  1  0
 24 23  1  1
 25 15  1  0
 25 24  1  0
 26 24  1  0
 26 28  1  0
 27 26  2  0
M  END
$$$$
