KPR.pdb
     RDKit          3D

 28 28  0  0  1  0  0  0  0  0999 V2000
   25.8467  -20.1232  -17.7072 N   0  0  0  0  0  0  0  0  0  0  0  0
   24.4420  -19.9339  -17.9256 C   0  0  1  0  0  0  0  0  0  0  0  0
   23.8021  -21.1828  -18.5228 C   0  0  0  0  0  0  0  0  0  0  0  0
   23.5186  -20.9526  -19.9687 C   0  0  0  0  0  0  0  0  0  0  0  0
   22.8392  -22.1678  -20.5442 C   0  0  0  0  0  0  0  0  0  0  0  0
   22.5517  -21.9947  -22.0036 C   0  0  0  0  0  0  0  0  0  0  0  0
   22.0126  -23.2257  -22.5922 N   0  0  0  0  0  0  0  0  0  0  0  0
   23.6770  -19.4617  -16.7746 C   0  0  0  0  0  0  0  0  0  0  0  0
   24.0248  -19.9392  -15.6395 O   0  0  0  0  0  0  0  0  0  0  0  0
   22.6019  -18.5392  -16.7863 N   0  0  0  0  0  0  0  0  0  0  0  0
   22.0702  -17.8400  -17.9362 C   0  0  0  0  0  0  0  0  0  0  0  0
   20.7157  -17.3765  -17.4552 C   0  0  0  0  0  0  0  0  0  0  0  0
   21.0576  -16.9351  -16.0338 C   0  0  0  0  0  0  0  0  0  0  0  0
   21.8586  -18.1430  -15.5877 C   0  0  1  0  0  0  0  0  0  0  0  0
   21.0143  -19.2433  -15.0886 C   0  0  0  0  0  0  0  0  0  0  0  0
   20.3884  -19.9595  -15.9325 O   0  0  0  0  0  0  0  0  0  0  0  0
   24.9713  -20.1050   -8.9081 N   0  0  0  0  0  0  0  0  0  0  0  0
   25.3239  -20.8999  -10.0313 C   0  0  0  0  0  0  0  0  0  0  0  0
   26.5375  -21.2415  -10.2157 N   0  0  0  0  0  0  0  0  0  0  0  0
   24.3570  -21.3401  -10.9803 N   0  0  0  0  0  0  0  0  0  0  0  0
   22.9757  -20.9322  -10.9272 C   0  0  0  0  0  0  0  0  0  0  0  0
   22.1422  -21.5754  -12.0047 C   0  0  0  0  0  0  0  0  0  0  0  0
   20.7379  -21.0888  -11.9147 C   0  0  0  0  0  0  0  0  0  0  0  0
   20.1104  -20.7367  -13.2531 C   0  0  2  0  0  0  0  0  0  0  0  0
   20.8414  -19.5716  -13.7310 N   0  0  0  0  0  0  0  0  0  0  0  0
   18.7054  -20.3411  -13.0529 C   0  0  0  0  0  0  0  0  0  0  0  0
   18.3042  -19.1469  -13.0263 O   0  0  0  0  0  0  0  0  0  0  0  0
   17.7312  -21.3144  -12.8788 O   0  0  0  0  0  0  0  0  0  0  0  0
  2  1  1  1
  3  4  1  0
  3  2  1  0
  4  5  1  0
  5  6  1  0
  7  6  1  0
  8  2  1  0
  9  8  2  0
 10  8  1  0
 11 10  1  0
 12 13  1  0
 12 11  1  0
 13 14  1  0
 14 10  1  0
 14 15  1  6
 15 16  2  0
 17 18  1  0
 18 19  2  0
 18 20  1  0
 20 21  1  0
 21 22  1  0
 22 23  1  0
 24 23  1  1
 25 15  1  0
 25 24  1  0
 26 24  1  0
 26 28  1  0
 27 26  2  0
M  END
$$$$
