KPR.pdb
     RDKit          3D

 28 28  0  0  1  0  0  0  0  0999 V2000
   25.2618  -22.7235  -15.0636 N   0  0  0  0  0  0  0  0  0  0  0  0
   23.9188  -22.3122  -15.3531 C   0  0  1  0  0  0  0  0  0  0  0  0
   23.2228  -23.3067  -16.2763 C   0  0  0  0  0  0  0  0  0  0  0  0
   22.9798  -22.6679  -17.6018 C   0  0  0  0  0  0  0  0  0  0  0  0
   24.2666  -22.6362  -18.3846 C   0  0  0  0  0  0  0  0  0  0  0  0
   24.0965  -21.9203  -19.6887 C   0  0  0  0  0  0  0  0  0  0  0  0
   25.3359  -21.9372  -20.4737 N   0  0  0  0  0  0  0  0  0  0  0  0
   23.0822  -22.0100  -14.1948 C   0  0  0  0  0  0  0  0  0  0  0  0
   23.1858  -22.8157  -13.2061 O   0  0  0  0  0  0  0  0  0  0  0  0
   22.1783  -20.9280  -14.0555 N   0  0  0  0  0  0  0  0  0  0  0  0
   21.8432  -19.9417  -15.0598 C   0  0  0  0  0  0  0  0  0  0  0  0
   20.5572  -19.3474  -14.5363 C   0  0  0  0  0  0  0  0  0  0  0  0
   20.8783  -19.2499  -13.0465 C   0  0  0  0  0  0  0  0  0  0  0  0
   21.4378  -20.6416  -12.8243 C   0  0  1  0  0  0  0  0  0  0  0  0
   20.3928  -21.6512  -12.5764 C   0  0  0  0  0  0  0  0  0  0  0  0
   19.8000  -22.1695  -13.5749 O   0  0  0  0  0  0  0  0  0  0  0  0
   18.3903  -25.7319   -4.8792 N   0  0  0  0  0  0  0  0  0  0  0  0
   17.3585  -26.1115   -5.7788 C   0  0  0  0  0  0  0  0  0  0  0  0
   16.3982  -26.8454   -5.3755 N   0  0  0  0  0  0  0  0  0  0  0  0
   17.3526  -25.6974   -7.1418 N   0  0  0  0  0  0  0  0  0  0  0  0
   18.3596  -24.8254   -7.6923 C   0  0  0  0  0  0  0  0  0  0  0  0
   18.0808  -24.4543   -9.1254 C   0  0  0  0  0  0  0  0  0  0  0  0
   19.1379  -23.5313   -9.6228 C   0  0  0  0  0  0  0  0  0  0  0  0
   18.9630  -23.1008  -11.0695 C   0  0  2  0  0  0  0  0  0  0  0  0
   19.9906  -22.0959  -11.3032 N   0  0  0  0  0  0  0  0  0  0  0  0
   17.6495  -22.4555  -11.2393 C   0  0  0  0  0  0  0  0  0  0  0  0
   17.4198  -21.2425  -10.9871 O   0  0  0  0  0  0  0  0  0  0  0  0
   16.5707  -23.1952  -11.7040 O   0  0  0  0  0  0  0  0  0  0  0  0
  2  1  1  1
  3  4  1  0
  3  2  1  0
  4  5  1  0
  5  6  1  0
  7  6  1  0
  8  2  1  0
  9  8  2  0
 10  8  1  0
 11 10  1  0
 12 13  1  0
 12 11  1  0
 13 14  1  0
 14 10  1  0
 14 15  1  6
 15 16  2  0
 17 18  1  0
 18 19  2  0
 18 20  1  0
 20 21  1  0
 21 22  1  0
 22 23  1  0
 24 23  1  1
 25 15  1  0
 25 24  1  0
 26 24  1  0
 26 28  1  0
 27 26  2  0
M  END
$$$$
