KPR.pdb
     RDKit          3D

 28 28  0  0  1  0  0  0  0  0999 V2000
   22.7841  -20.8632  -10.5804 N   0  0  0  0  0  0  0  0  0  0  0  0
   22.8891  -21.3690  -11.9181 C   0  0  1  0  0  0  0  0  0  0  0  0
   21.5140  -21.5327  -12.5569 C   0  0  0  0  0  0  0  0  0  0  0  0
   21.0668  -22.9485  -12.4175 C   0  0  0  0  0  0  0  0  0  0  0  0
   19.8071  -23.1557  -13.2173 C   0  0  0  0  0  0  0  0  0  0  0  0
   19.2877  -24.5523  -13.0687 C   0  0  0  0  0  0  0  0  0  0  0  0
   17.9970  -24.7178  -13.7462 N   0  0  0  0  0  0  0  0  0  0  0  0
   23.7874  -20.6366  -12.8067 C   0  0  0  0  0  0  0  0  0  0  0  0
   23.6474  -19.3647  -12.8171 O   0  0  0  0  0  0  0  0  0  0  0  0
   24.7869  -21.1843  -13.6483 N   0  0  0  0  0  0  0  0  0  0  0  0
   25.1561  -22.5786  -13.7642 C   0  0  0  0  0  0  0  0  0  0  0  0
   25.9100  -22.6225  -15.0722 C   0  0  0  0  0  0  0  0  0  0  0  0
   26.7237  -21.3341  -14.9714 C   0  0  0  0  0  0  0  0  0  0  0  0
   25.6237  -20.3819  -14.5439 C   0  0  1  0  0  0  0  0  0  0  0  0
   24.8456  -19.8521  -15.6782 C   0  0  0  0  0  0  0  0  0  0  0  0
   23.9515  -20.5911  -16.1993 O   0  0  0  0  0  0  0  0  0  0  0  0
   22.8813  -11.4092  -17.2988 N   0  0  0  0  0  0  0  0  0  0  0  0
   22.1131  -12.1523  -18.2345 C   0  0  0  0  0  0  0  0  0  0  0  0
   21.2907  -11.5548  -19.0027 N   0  0  0  0  0  0  0  0  0  0  0  0
   22.2259  -13.5674  -18.3520 N   0  0  0  0  0  0  0  0  0  0  0  0
   23.0485  -14.3564  -17.4699 C   0  0  0  0  0  0  0  0  0  0  0  0
   23.1468  -15.7951  -17.9054 C   0  0  0  0  0  0  0  0  0  0  0  0
   23.9572  -16.5659  -16.9225 C   0  0  0  0  0  0  0  0  0  0  0  0
   24.1763  -18.0222  -17.2968 C   0  0  2  0  0  0  0  0  0  0  0  0
   25.0142  -18.5733  -16.2411 N   0  0  0  0  0  0  0  0  0  0  0  0
   24.9278  -18.1013  -18.5615 C   0  0  0  0  0  0  0  0  0  0  0  0
   26.1803  -18.2181  -18.6334 O   0  0  0  0  0  0  0  0  0  0  0  0
   24.2511  -18.0475  -19.7723 O   0  0  0  0  0  0  0  0  0  0  0  0
  2  1  1  1
  3  4  1  0
  3  2  1  0
  4  5  1  0
  5  6  1  0
  7  6  1  0
  8  2  1  0
  9  8  2  0
 10  8  1  0
 11 10  1  0
 12 13  1  0
 12 11  1  0
 13 14  1  0
 14 10  1  0
 14 15  1  6
 15 16  2  0
 17 18  1  0
 18 19  2  0
 18 20  1  0
 20 21  1  0
 21 22  1  0
 22 23  1  0
 24 23  1  1
 25 15  1  0
 25 24  1  0
 26 24  1  0
 26 28  1  0
 27 26  2  0
M  END
$$$$
