KPR.pdb
     RDKit          3D

 28 28  0  0  1  0  0  0  0  0999 V2000
   13.2482  -25.7998   -0.0191 N   0  0  0  0  0  0  0  0  0  0  0  0
   14.3001  -24.8352    0.1214 C   0  0  1  0  0  0  0  0  0  0  0  0
   14.4636  -24.0067   -1.1485 C   0  0  0  0  0  0  0  0  0  0  0  0
   14.8905  -24.8936   -2.2688 C   0  0  0  0  0  0  0  0  0  0  0  0
   15.0218  -24.0788   -3.5291 C   0  0  0  0  0  0  0  0  0  0  0  0
   15.3262  -24.9451   -4.7119 C   0  0  0  0  0  0  0  0  0  0  0  0
   15.3671  -24.1620   -5.9519 N   0  0  0  0  0  0  0  0  0  0  0  0
   14.2177  -23.9703    1.2953 C   0  0  0  0  0  0  0  0  0  0  0  0
   13.0784  -23.4293    1.5111 O   0  0  0  0  0  0  0  0  0  0  0  0
   15.2585  -23.6729    2.2093 N   0  0  0  0  0  0  0  0  0  0  0  0
   16.6133  -24.1804    2.1777 C   0  0  0  0  0  0  0  0  0  0  0  0
   17.3575  -23.2173    3.0719 C   0  0  0  0  0  0  0  0  0  0  0  0
   16.3399  -23.0329    4.1955 C   0  0  0  0  0  0  0  0  0  0  0  0
   15.0971  -22.7846    3.3630 C   0  0  1  0  0  0  0  0  0  0  0  0
   14.9537  -21.3785    2.9449 C   0  0  0  0  0  0  0  0  0  0  0  0
   15.5427  -20.9971    1.8844 O   0  0  0  0  0  0  0  0  0  0  0  0
    9.8562  -16.7656   -0.5308 N   0  0  0  0  0  0  0  0  0  0  0  0
   10.2565  -15.7161    0.3388 C   0  0  0  0  0  0  0  0  0  0  0  0
    9.9667  -14.5079    0.0565 N   0  0  0  0  0  0  0  0  0  0  0  0
   10.9839  -15.9631    1.5383 N   0  0  0  0  0  0  0  0  0  0  0  0
   11.3404  -17.2912    1.9702 C   0  0  0  0  0  0  0  0  0  0  0  0
   12.1933  -17.2847    3.2119 C   0  0  0  0  0  0  0  0  0  0  0  0
   12.5885  -18.6773    3.5602 C   0  0  0  0  0  0  0  0  0  0  0  0
   14.0144  -19.0376    3.1781 C   0  0  2  0  0  0  0  0  0  0  0  0
   14.2054  -20.4069    3.6353 N   0  0  0  0  0  0  0  0  0  0  0  0
   14.9572  -18.1771    3.9138 C   0  0  0  0  0  0  0  0  0  0  0  0
   15.3721  -18.4176    5.0790 O   0  0  0  0  0  0  0  0  0  0  0  0
   15.4428  -17.0194    3.3218 O   0  0  0  0  0  0  0  0  0  0  0  0
  2  1  1  6
  3  4  1  0
  3  2  1  0
  4  5  1  0
  5  6  1  0
  7  6  1  0
  8  2  1  0
  9  8  2  0
 10  8  1  0
 11 10  1  0
 12 13  1  0
 12 11  1  0
 13 14  1  0
 14 10  1  0
 14 15  1  6
 15 16  2  0
 17 18  1  0
 18 19  2  0
 18 20  1  0
 20 21  1  0
 21 22  1  0
 22 23  1  0
 24 23  1  1
 25 15  1  0
 25 24  1  0
 26 24  1  0
 26 28  1  0
 27 26  2  0
M  END
$$$$
