LYD.pdb
     RDKit          3D

 29 29  0  0  1  0  0  0  0  0999 V2000
    8.8390  -13.8335   18.1391 C   0  0  0  0  0  0  0  0  0  0  0  0
    7.8482  -13.4616   19.2599 C   0  0  2  0  0  0  0  0  0  0  0  0
    7.3578  -12.0708   18.9464 C   0  0  0  0  0  0  0  0  0  0  0  0
    8.6501  -13.5135   20.5296 C   0  0  0  0  0  0  0  0  0  0  0  0
    9.1139  -14.8674   20.9415 C   0  0  2  0  0  0  0  0  0  0  0  0
    7.9357  -15.7509   20.7632 N   0  0  0  0  0  0  0  0  0  0  0  0
    9.5065  -15.0062   22.3550 C   0  0  0  0  0  0  0  0  0  0  0  0
   10.5335  -14.3745   22.7781 O   0  0  0  0  0  0  0  0  0  0  0  0
    6.2153  -10.6227   26.7481 O   0  0  0  0  0  0  0  0  0  0  0  0
    6.6012  -11.9153   26.4583 C   0  0  0  0  0  0  0  0  0  0  0  0
    5.7397  -12.9850   26.6069 C   0  0  0  0  0  0  0  0  0  0  0  0
    6.1652  -14.2650   26.3056 C   0  0  0  0  0  0  0  0  0  0  0  0
    7.4282  -14.5284   25.8570 C   0  0  0  0  0  0  0  0  0  0  0  0
    7.9682  -15.8442   25.5224 C   0  0  0  0  0  0  0  0  0  0  0  0
    9.2466  -15.8114   24.7363 C   0  0  2  0  0  0  0  0  0  0  0  0
    8.8642  -15.7773   23.3405 N   0  0  0  0  0  0  0  0  0  0  0  0
   10.0971  -16.9921   24.9521 C   0  0  0  0  0  0  0  0  0  0  0  0
   10.3294  -17.3626   26.1310 O   0  0  0  0  0  0  0  0  0  0  0  0
    8.2740  -13.4311   25.7168 C   0  0  0  0  0  0  0  0  0  0  0  0
    7.8715  -12.1434   26.0114 C   0  0  0  0  0  0  0  0  0  0  0  0
   10.6697  -17.7356   23.8830 N   0  0  0  0  0  0  0  0  0  0  0  0
   11.5321  -18.8681   24.2472 C   0  0  1  0  0  0  0  0  0  0  0  0
   11.6655  -19.8096   23.0971 C   0  0  0  0  0  0  0  0  0  0  0  0
   10.3867  -20.4488   22.7656 C   0  0  0  0  0  0  0  0  0  0  0  0
    9.3469  -20.2286   23.4287 O   0  0  0  0  0  0  0  0  0  0  0  0
   12.8663  -18.2686   24.5541 C   0  0  0  0  0  0  0  0  0  0  0  0
   13.9236  -19.0024   25.0259 O   0  0  0  0  0  0  0  0  0  0  0  0
   10.2690  -21.3401   21.6859 O   0  0  0  0  0  0  0  0  0  0  0  0
   13.0112  -17.0207   24.3642 O   0  0  0  0  0  0  0  0  0  0  0  0
  2  1  1  6
  2  4  1  0
  3  2  1  0
  5  4  1  0
  5  6  1  1
  7  5  1  0
  7  8  2  0
  9 10  1  0
 10 20  2  0
 10 11  1  0
 11 12  2  0
 12 13  1  0
 13 14  1  0
 15 14  1  1
 15 16  1  0
 16  7  1  0
 17 21  1  0
 17 15  1  0
 18 17  2  0
 19 13  2  0
 20 19  1  0
 22 21  1  0
 22 26  1  0
 23 24  1  0
 22 23  1  6
 24 28  1  0
 25 24  2  0
 26 27  1  0
 29 26  2  0
M  END
$$$$
