LYD.pdb
     RDKit          3D

 29 29  0  0  1  0  0  0  0  0999 V2000
    8.4617  -14.7801   16.5212 C   0  0  0  0  0  0  0  0  0  0  0  0
    7.5719  -14.1159   17.5906 C   0  0  2  0  0  0  0  0  0  0  0  0
    7.0654  -12.8331   16.9817 C   0  0  0  0  0  0  0  0  0  0  0  0
    8.4784  -13.8741   18.7644 C   0  0  0  0  0  0  0  0  0  0  0  0
    8.8416  -15.0826   19.5551 C   0  0  2  0  0  0  0  0  0  0  0  0
    7.6446  -15.9569   19.4976 N   0  0  0  0  0  0  0  0  0  0  0  0
    9.1011  -14.8551   20.9877 C   0  0  0  0  0  0  0  0  0  0  0  0
   10.1128  -14.1541   21.3309 O   0  0  0  0  0  0  0  0  0  0  0  0
    7.3422  -12.6798   29.3158 O   0  0  0  0  0  0  0  0  0  0  0  0
    7.3013  -13.1870   28.0333 C   0  0  0  0  0  0  0  0  0  0  0  0
    7.0888  -14.5293   27.7856 C   0  0  0  0  0  0  0  0  0  0  0  0
    7.0548  -14.9977   26.4857 C   0  0  0  0  0  0  0  0  0  0  0  0
    7.2257  -14.1756   25.4083 C   0  0  0  0  0  0  0  0  0  0  0  0
    7.2143  -14.5796   24.0042 C   0  0  0  0  0  0  0  0  0  0  0  0
    8.5586  -14.9582   23.4539 C   0  0  2  0  0  0  0  0  0  0  0  0
    8.3413  -15.3304   22.0718 N   0  0  0  0  0  0  0  0  0  0  0  0
    9.1745  -16.1002   24.1469 C   0  0  0  0  0  0  0  0  0  0  0  0
    8.7156  -17.2523   23.9395 O   0  0  0  0  0  0  0  0  0  0  0  0
    7.4378  -12.8281   25.6884 C   0  0  0  0  0  0  0  0  0  0  0  0
    7.4758  -12.3370   26.9785 C   0  0  0  0  0  0  0  0  0  0  0  0
   10.2696  -15.9584   25.0438 N   0  0  0  0  0  0  0  0  0  0  0  0
   10.8392  -17.1939   25.5988 C   0  0  1  0  0  0  0  0  0  0  0  0
   12.3301  -17.1316   25.5811 C   0  0  0  0  0  0  0  0  0  0  0  0
   12.8675  -17.3353   24.2307 C   0  0  0  0  0  0  0  0  0  0  0  0
   14.0031  -16.9205   23.9023 O   0  0  0  0  0  0  0  0  0  0  0  0
   10.3625  -17.2501   27.0142 C   0  0  0  0  0  0  0  0  0  0  0  0
   10.5030  -18.3604   27.8056 O   0  0  0  0  0  0  0  0  0  0  0  0
   12.1310  -18.0070   23.2405 O   0  0  0  0  0  0  0  0  0  0  0  0
    9.8033  -16.2135   27.4909 O   0  0  0  0  0  0  0  0  0  0  0  0
  2  1  1  6
  2  4  1  0
  3  2  1  0
  5  4  1  0
  5  6  1  1
  7  5  1  0
  7  8  2  0
  9 10  1  0
 10 20  2  0
 10 11  1  0
 11 12  2  0
 12 13  1  0
 13 14  1  0
 15 14  1  1
 15 16  1  0
 16  7  1  0
 17 21  1  0
 17 15  1  0
 18 17  2  0
 19 13  2  0
 20 19  1  0
 22 21  1  0
 22 26  1  0
 23 24  1  0
 22 23  1  1
 24 28  1  0
 25 24  2  0
 26 27  1  0
 29 26  2  0
M  END
$$$$
