LYD.pdb
     RDKit          3D

 29 29  0  0  1  0  0  0  0  0999 V2000
   10.8156  -14.9805   29.1408 C   0  0  0  0  0  0  0  0  0  0  0  0
   10.1783  -14.3122   27.9065 C   0  0  2  0  0  0  0  0  0  0  0  0
    9.9761  -12.8625   28.2679 C   0  0  0  0  0  0  0  0  0  0  0  0
    8.8789  -15.0357   27.6921 C   0  0  0  0  0  0  0  0  0  0  0  0
    8.9656  -16.2880   26.8910 C   0  0  2  0  0  0  0  0  0  0  0  0
   10.3964  -16.6770   26.9345 N   0  0  0  0  0  0  0  0  0  0  0  0
    8.6309  -16.1572   25.4618 C   0  0  0  0  0  0  0  0  0  0  0  0
    7.4767  -15.7185   25.1330 O   0  0  0  0  0  0  0  0  0  0  0  0
    7.4004  -12.8323   17.7466 O   0  0  0  0  0  0  0  0  0  0  0  0
    7.7082  -13.3509   18.9876 C   0  0  0  0  0  0  0  0  0  0  0  0
    7.2769  -14.6022   19.3833 C   0  0  0  0  0  0  0  0  0  0  0  0
    7.6069  -15.0856   20.6354 C   0  0  0  0  0  0  0  0  0  0  0  0
    8.3576  -14.3665   21.5215 C   0  0  0  0  0  0  0  0  0  0  0  0
    8.7479  -14.7897   22.8644 C   0  0  0  0  0  0  0  0  0  0  0  0
    9.1037  -16.2434   22.9807 C   0  0  2  0  0  0  0  0  0  0  0  0
    9.4582  -16.4650   24.3668 N   0  0  0  0  0  0  0  0  0  0  0  0
   10.2488  -16.6347   22.1444 C   0  0  0  0  0  0  0  0  0  0  0  0
   10.1492  -16.5290   20.8954 O   0  0  0  0  0  0  0  0  0  0  0  0
    8.7782  -13.1093   21.0954 C   0  0  0  0  0  0  0  0  0  0  0  0
    8.4611  -12.6053   19.8494 C   0  0  0  0  0  0  0  0  0  0  0  0
   11.4673  -17.1285   22.6876 N   0  0  0  0  0  0  0  0  0  0  0  0
   12.6531  -17.0711   21.8219 C   0  0  1  0  0  0  0  0  0  0  0  0
   12.9577  -15.6577   21.4523 C   0  0  0  0  0  0  0  0  0  0  0  0
   14.1398  -15.5638   20.5875 C   0  0  0  0  0  0  0  0  0  0  0  0
   15.2756  -15.9170   20.9809 O   0  0  0  0  0  0  0  0  0  0  0  0
   13.7729  -17.6201   22.6454 C   0  0  0  0  0  0  0  0  0  0  0  0
   14.0829  -17.1469   23.8940 O   0  0  0  0  0  0  0  0  0  0  0  0
   14.0522  -15.0717   19.2744 O   0  0  0  0  0  0  0  0  0  0  0  0
   14.4597  -18.5683   22.1518 O   0  0  0  0  0  0  0  0  0  0  0  0
  2  1  1  1
  2  4  1  0
  3  2  1  0
  5  4  1  0
  5  6  1  6
  7  5  1  0
  7  8  2  0
  9 10  1  0
 10 20  2  0
 10 11  1  0
 11 12  2  0
 12 13  1  0
 13 14  1  0
 15 14  1  1
 15 16  1  0
 16  7  1  0
 17 21  1  0
 17 15  1  0
 18 17  2  0
 19 13  2  0
 20 19  1  0
 22 21  1  0
 22 26  1  0
 23 24  1  0
 22 23  1  1
 24 28  1  0
 25 24  2  0
 26 27  1  0
 29 26  2  0
M  END
$$$$
