LYD.pdb
     RDKit          3D

 29 29  0  0  1  0  0  0  0  0999 V2000
    5.1761  -14.9685   18.9603 C   0  0  0  0  0  0  0  0  0  0  0  0
    6.5171  -15.6685   18.6633 C   0  0  2  0  0  0  0  0  0  0  0  0
    6.1712  -17.0314   18.1194 C   0  0  0  0  0  0  0  0  0  0  0  0
    7.2258  -15.7426   19.9863 C   0  0  0  0  0  0  0  0  0  0  0  0
    7.4932  -14.4345   20.6458 C   0  0  2  0  0  0  0  0  0  0  0  0
    8.2580  -13.6471   19.6481 N   0  0  0  0  0  0  0  0  0  0  0  0
    8.3426  -14.4869   21.8489 C   0  0  0  0  0  0  0  0  0  0  0  0
    9.6115  -14.5455   21.7099 O   0  0  0  0  0  0  0  0  0  0  0  0
   10.6149  -14.8221   30.4846 O   0  0  0  0  0  0  0  0  0  0  0  0
    9.9639  -14.7006   29.2741 C   0  0  0  0  0  0  0  0  0  0  0  0
    9.2900  -15.7602   28.6982 C   0  0  0  0  0  0  0  0  0  0  0  0
    8.6502  -15.5974   27.4840 C   0  0  0  0  0  0  0  0  0  0  0  0
    8.6532  -14.4092   26.8103 C   0  0  0  0  0  0  0  0  0  0  0  0
    8.0145  -14.1456   25.5228 C   0  0  0  0  0  0  0  0  0  0  0  0
    8.7892  -14.6309   24.3321 C   0  0  2  0  0  0  0  0  0  0  0  0
    7.9146  -14.4774   23.1887 N   0  0  0  0  0  0  0  0  0  0  0  0
    9.1809  -16.0458   24.4255 C   0  0  0  0  0  0  0  0  0  0  0  0
    8.3052  -16.9290   24.2407 O   0  0  0  0  0  0  0  0  0  0  0  0
    9.3400  -13.3594   27.4147 C   0  0  0  0  0  0  0  0  0  0  0  0
    9.9864  -13.4981   28.6270 C   0  0  0  0  0  0  0  0  0  0  0  0
   10.5104  -16.4602   24.7160 N   0  0  0  0  0  0  0  0  0  0  0  0
   10.7790  -17.9044   24.6841 C   0  0  1  0  0  0  0  0  0  0  0  0
   11.3477  -18.2973   23.3615 C   0  0  0  0  0  0  0  0  0  0  0  0
   12.5377  -17.5072   23.0242 C   0  0  0  0  0  0  0  0  0  0  0  0
   12.9551  -16.5908   23.7696 O   0  0  0  0  0  0  0  0  0  0  0  0
   11.7974  -18.1425   25.7517 C   0  0  0  0  0  0  0  0  0  0  0  0
   12.3388  -17.1335   26.5052 O   0  0  0  0  0  0  0  0  0  0  0  0
   13.2662  -17.7427   21.8461 O   0  0  0  0  0  0  0  0  0  0  0  0
   12.1682  -19.3401   25.9581 O   0  0  0  0  0  0  0  0  0  0  0  0
  2  1  1  1
  2  4  1  0
  3  2  1  0
  5  4  1  0
  5  6  1  6
  7  5  1  0
  7  8  2  0
  9 10  1  0
 10 20  2  0
 10 11  1  0
 11 12  2  0
 12 13  1  0
 13 14  1  0
 15 14  1  1
 15 16  1  0
 16  7  1  0
 17 21  1  0
 17 15  1  0
 18 17  2  0
 19 13  2  0
 20 19  1  0
 22 21  1  0
 22 26  1  0
 23 24  1  0
 22 23  1  6
 24 28  1  0
 25 24  2  0
 26 27  1  0
 29 26  2  0
M  END
$$$$
