LYD.pdb
     RDKit          3D

 29 29  0  0  1  0  0  0  0  0999 V2000
    7.8026  -13.6286   17.2816 C   0  0  0  0  0  0  0  0  0  0  0  0
    8.1378  -13.8901   18.7634 C   0  0  2  0  0  0  0  0  0  0  0  0
    8.3434  -12.5368   19.3955 C   0  0  0  0  0  0  0  0  0  0  0  0
    9.3963  -14.7109   18.7451 C   0  0  0  0  0  0  0  0  0  0  0  0
    9.4201  -15.8711   19.6784 C   0  0  2  0  0  0  0  0  0  0  0  0
    8.1238  -16.5616   19.4706 N   0  0  0  0  0  0  0  0  0  0  0  0
    9.4689  -15.5369   21.1127 C   0  0  0  0  0  0  0  0  0  0  0  0
   10.5583  -15.0894   21.6084 O   0  0  0  0  0  0  0  0  0  0  0  0
    7.0695  -11.9096   28.7215 O   0  0  0  0  0  0  0  0  0  0  0  0
    7.0835  -12.5635   27.5066 C   0  0  0  0  0  0  0  0  0  0  0  0
    6.5144  -13.8116   27.3429 C   0  0  0  0  0  0  0  0  0  0  0  0
    6.5495  -14.4332   26.1090 C   0  0  0  0  0  0  0  0  0  0  0  0
    7.1348  -13.8574   25.0173 C   0  0  0  0  0  0  0  0  0  0  0  0
    7.2275  -14.4394   23.6803 C   0  0  0  0  0  0  0  0  0  0  0  0
    8.4929  -15.2038   23.4200 C   0  0  2  0  0  0  0  0  0  0  0  0
    8.4216  -15.6506   22.0448 N   0  0  0  0  0  0  0  0  0  0  0  0
    8.6504  -16.3862   24.2807 C   0  0  0  0  0  0  0  0  0  0  0  0
    8.0747  -17.4545   23.9517 O   0  0  0  0  0  0  0  0  0  0  0  0
    7.6998  -12.5997   25.2121 C   0  0  0  0  0  0  0  0  0  0  0  0
    7.6769  -11.9590   26.4352 C   0  0  0  0  0  0  0  0  0  0  0  0
    9.4276  -16.3746   25.4721 N   0  0  0  0  0  0  0  0  0  0  0  0
    9.8754  -17.6758   25.9871 C   0  0  1  0  0  0  0  0  0  0  0  0
   10.7826  -18.3383   25.0046 C   0  0  0  0  0  0  0  0  0  0  0  0
   11.3974  -19.5489   25.5616 C   0  0  0  0  0  0  0  0  0  0  0  0
   10.8018  -20.2674   26.3975 O   0  0  0  0  0  0  0  0  0  0  0  0
   10.6372  -17.3680   27.2355 C   0  0  0  0  0  0  0  0  0  0  0  0
   11.6982  -16.5008   27.2678 O   0  0  0  0  0  0  0  0  0  0  0  0
   12.6865  -19.9594   25.1823 O   0  0  0  0  0  0  0  0  0  0  0  0
   10.2728  -17.9447   28.3074 O   0  0  0  0  0  0  0  0  0  0  0  0
  2  1  1  6
  2  4  1  0
  3  2  1  0
  5  4  1  0
  5  6  1  1
  7  5  1  0
  7  8  2  0
  9 10  1  0
 10 20  2  0
 10 11  1  0
 11 12  2  0
 12 13  1  0
 13 14  1  0
 15 14  1  1
 15 16  1  0
 16  7  1  0
 17 21  1  0
 17 15  1  0
 18 17  2  0
 19 13  2  0
 20 19  1  0
 22 21  1  0
 22 26  1  0
 23 24  1  0
 22 23  1  6
 24 28  1  0
 25 24  2  0
 26 27  1  0
 29 26  2  0
M  END
$$$$
