LYD.pdb
     RDKit          3D

 29 29  0  0  1  0  0  0  0  0999 V2000
    6.8278  -12.2764   27.8358 C   0  0  0  0  0  0  0  0  0  0  0  0
    7.1518  -12.2929   26.3288 C   0  0  2  0  0  0  0  0  0  0  0  0
    6.6958  -10.9633   25.7837 C   0  0  0  0  0  0  0  0  0  0  0  0
    6.3637  -13.4427   25.7677 C   0  0  0  0  0  0  0  0  0  0  0  0
    6.9460  -14.7938   25.9983 C   0  0  2  0  0  0  0  0  0  0  0  0
    8.1465  -14.5598   26.8376 N   0  0  0  0  0  0  0  0  0  0  0  0
    7.4302  -15.4950   24.7960 C   0  0  0  0  0  0  0  0  0  0  0  0
    6.5802  -16.0262   24.0035 O   0  0  0  0  0  0  0  0  0  0  0  0
    6.0434  -12.7186   19.1530 O   0  0  0  0  0  0  0  0  0  0  0  0
    6.9771  -13.3603   19.9404 C   0  0  0  0  0  0  0  0  0  0  0  0
    7.7557  -12.6762   20.8538 C   0  0  0  0  0  0  0  0  0  0  0  0
    8.6800  -13.3562   21.6240 C   0  0  0  0  0  0  0  0  0  0  0  0
    8.8644  -14.7058   21.5220 C   0  0  0  0  0  0  0  0  0  0  0  0
    9.8193  -15.5064   22.2850 C   0  0  0  0  0  0  0  0  0  0  0  0
    9.1934  -16.4579   23.2628 C   0  0  2  0  0  0  0  0  0  0  0  0
    8.7675  -15.6581   24.3919 N   0  0  0  0  0  0  0  0  0  0  0  0
   10.1215  -17.4887   23.7527 C   0  0  0  0  0  0  0  0  0  0  0  0
   10.4942  -18.3920   22.9614 O   0  0  0  0  0  0  0  0  0  0  0  0
    8.0659  -15.3688   20.5936 C   0  0  0  0  0  0  0  0  0  0  0  0
    7.1358  -14.7109   19.8132 C   0  0  0  0  0  0  0  0  0  0  0  0
   10.6176  -17.5088   25.0858 N   0  0  0  0  0  0  0  0  0  0  0  0
   11.4734  -18.6430   25.4602 C   0  0  1  0  0  0  0  0  0  0  0  0
   12.8879  -18.1951   25.6199 C   0  0  0  0  0  0  0  0  0  0  0  0
   13.5525  -18.0175   24.3235 C   0  0  0  0  0  0  0  0  0  0  0  0
   12.9374  -18.1589   23.2413 O   0  0  0  0  0  0  0  0  0  0  0  0
   10.9516  -19.1160   26.7783 C   0  0  0  0  0  0  0  0  0  0  0  0
    9.8808  -18.5370   27.4085 O   0  0  0  0  0  0  0  0  0  0  0  0
   14.9135  -17.6798   24.2357 O   0  0  0  0  0  0  0  0  0  0  0  0
   11.5382  -20.1004   27.3272 O   0  0  0  0  0  0  0  0  0  0  0  0
  2  1  1  1
  2  4  1  0
  3  2  1  0
  5  4  1  0
  5  6  1  1
  7  5  1  0
  7  8  2  0
  9 10  1  0
 10 20  2  0
 10 11  1  0
 11 12  2  0
 12 13  1  0
 13 14  1  0
 15 14  1  6
 15 16  1  0
 16  7  1  0
 17 21  1  0
 17 15  1  0
 18 17  2  0
 19 13  2  0
 20 19  1  0
 22 21  1  0
 22 26  1  0
 23 24  1  0
 22 23  1  1
 24 28  1  0
 25 24  2  0
 26 27  1  0
 29 26  2  0
M  END
$$$$
