LYD.pdb
     RDKit          3D

 29 29  0  0  1  0  0  0  0  0999 V2000
    8.6731  -12.2264   19.1587 C   0  0  0  0  0  0  0  0  0  0  0  0
    8.0595  -13.5184   19.7338 C   0  0  2  0  0  0  0  0  0  0  0  0
    6.5649  -13.3716   19.6021 C   0  0  0  0  0  0  0  0  0  0  0  0
    8.5065  -13.5639   21.1677 C   0  0  0  0  0  0  0  0  0  0  0  0
    9.1542  -14.8338   21.5986 C   0  0  2  0  0  0  0  0  0  0  0  0
    8.1391  -15.8878   21.3555 N   0  0  0  0  0  0  0  0  0  0  0  0
    9.4905  -14.9262   23.0303 C   0  0  0  0  0  0  0  0  0  0  0  0
    9.7985  -13.8607   23.6649 O   0  0  0  0  0  0  0  0  0  0  0  0
    6.5878  -10.7348   27.3641 O   0  0  0  0  0  0  0  0  0  0  0  0
    6.7952  -11.9773   26.8011 C   0  0  0  0  0  0  0  0  0  0  0  0
    5.9081  -12.5253   25.8949 C   0  0  0  0  0  0  0  0  0  0  0  0
    6.1522  -13.7732   25.3534 C   0  0  0  0  0  0  0  0  0  0  0  0
    7.2562  -14.5081   25.6804 C   0  0  0  0  0  0  0  0  0  0  0  0
    7.5928  -15.8344   25.1679 C   0  0  0  0  0  0  0  0  0  0  0  0
    9.0582  -16.1588   25.1937 C   0  0  2  0  0  0  0  0  0  0  0  0
    9.5137  -16.0890   23.8213 N   0  0  0  0  0  0  0  0  0  0  0  0
    9.3508  -17.5056   25.7080 C   0  0  0  0  0  0  0  0  0  0  0  0
    9.2662  -17.7118   26.9454 O   0  0  0  0  0  0  0  0  0  0  0  0
    8.1324  -13.9306   26.5957 C   0  0  0  0  0  0  0  0  0  0  0  0
    7.9097  -12.6855   27.1498 C   0  0  0  0  0  0  0  0  0  0  0  0
    9.7259  -18.5882   24.8648 N   0  0  0  0  0  0  0  0  0  0  0  0
   11.1285  -19.0220   24.9232 C   0  0  1  0  0  0  0  0  0  0  0  0
   12.0311  -17.9211   24.4755 C   0  0  0  0  0  0  0  0  0  0  0  0
   13.4233  -18.3710   24.3611 C   0  0  0  0  0  0  0  0  0  0  0  0
   13.7503  -19.5639   24.5604 O   0  0  0  0  0  0  0  0  0  0  0  0
   11.3913  -19.3233   26.3633 C   0  0  0  0  0  0  0  0  0  0  0  0
   11.9432  -20.5032   26.7903 O   0  0  0  0  0  0  0  0  0  0  0  0
   14.4572  -17.4821   24.0217 O   0  0  0  0  0  0  0  0  0  0  0  0
   11.0834  -18.4356   27.2185 O   0  0  0  0  0  0  0  0  0  0  0  0
  2  1  1  1
  2  4  1  0
  3  2  1  0
  5  4  1  0
  5  6  1  1
  7  5  1  0
  7  8  2  0
  9 10  1  0
 10 20  2  0
 10 11  1  0
 11 12  2  0
 12 13  1  0
 13 14  1  0
 15 14  1  6
 15 16  1  0
 16  7  1  0
 17 21  1  0
 17 15  1  0
 18 17  2  0
 19 13  2  0
 20 19  1  0
 22 21  1  0
 22 26  1  0
 23 24  1  0
 22 23  1  1
 24 28  1  0
 25 24  2  0
 26 27  1  0
 29 26  2  0
M  END
$$$$
