LYD.pdb
     RDKit          3D

 29 29  0  0  1  0  0  0  0  0999 V2000
    7.8653  -14.3513   17.7697 C   0  0  0  0  0  0  0  0  0  0  0  0
    7.1936  -13.7200   19.0053 C   0  0  2  0  0  0  0  0  0  0  0  0
    6.7143  -12.3567   18.5757 C   0  0  0  0  0  0  0  0  0  0  0  0
    8.2736  -13.6453   20.0474 C   0  0  0  0  0  0  0  0  0  0  0  0
    8.7327  -14.9533   20.5916 C   0  0  2  0  0  0  0  0  0  0  0  0
    7.4904  -15.7188   20.8585 N   0  0  0  0  0  0  0  0  0  0  0  0
    9.4494  -14.8945   21.8778 C   0  0  0  0  0  0  0  0  0  0  0  0
   10.6216  -14.3871   21.9118 O   0  0  0  0  0  0  0  0  0  0  0  0
   10.8065  -15.1286   30.6956 O   0  0  0  0  0  0  0  0  0  0  0  0
   10.2996  -15.0810   29.4132 C   0  0  0  0  0  0  0  0  0  0  0  0
   10.1770  -13.8921   28.7204 C   0  0  0  0  0  0  0  0  0  0  0  0
    9.6643  -13.8872   27.4370 C   0  0  0  0  0  0  0  0  0  0  0  0
    9.2631  -15.0304   26.8062 C   0  0  0  0  0  0  0  0  0  0  0  0
    8.7034  -15.1220   25.4596 C   0  0  0  0  0  0  0  0  0  0  0  0
    9.7257  -15.2366   24.3665 C   0  0  2  0  0  0  0  0  0  0  0  0
    8.9849  -15.3434   23.1273 N   0  0  0  0  0  0  0  0  0  0  0  0
   10.5866  -16.4228   24.4919 C   0  0  0  0  0  0  0  0  0  0  0  0
   10.2064  -17.5033   23.9731 O   0  0  0  0  0  0  0  0  0  0  0  0
    9.3985  -16.2132   27.5286 C   0  0  0  0  0  0  0  0  0  0  0  0
    9.9080  -16.2430   28.8117 C   0  0  0  0  0  0  0  0  0  0  0  0
   11.8338  -16.4015   25.1756 N   0  0  0  0  0  0  0  0  0  0  0  0
   12.5844  -17.6635   25.2300 C   0  0  1  0  0  0  0  0  0  0  0  0
   11.6797  -18.7894   25.6057 C   0  0  0  0  0  0  0  0  0  0  0  0
   11.8080  -19.1405   27.0250 C   0  0  0  0  0  0  0  0  0  0  0  0
   12.6882  -18.6287   27.7549 O   0  0  0  0  0  0  0  0  0  0  0  0
   13.0964  -17.8811   23.8430 C   0  0  0  0  0  0  0  0  0  0  0  0
   12.3094  -18.3450   22.8210 O   0  0  0  0  0  0  0  0  0  0  0  0
   10.9469  -20.0697   27.6326 O   0  0  0  0  0  0  0  0  0  0  0  0
   14.3192  -17.6200   23.6167 O   0  0  0  0  0  0  0  0  0  0  0  0
  2  1  1  6
  2  4  1  0
  3  2  1  0
  5  4  1  0
  5  6  1  1
  7  5  1  0
  7  8  2  0
  9 10  1  0
 10 20  2  0
 10 11  1  0
 11 12  2  0
 12 13  1  0
 13 14  1  0
 15 14  1  1
 15 16  1  0
 16  7  1  0
 17 21  1  0
 17 15  1  0
 18 17  2  0
 19 13  2  0
 20 19  1  0
 22 21  1  0
 22 26  1  0
 23 24  1  0
 22 23  1  6
 24 28  1  0
 25 24  2  0
 26 27  1  0
 29 26  2  0
M  END
$$$$
