LYD.pdb
     RDKit          3D

 29 29  0  0  1  0  0  0  0  0999 V2000
    6.5046  -13.5169   20.5432 C   0  0  0  0  0  0  0  0  0  0  0  0
    8.0021  -13.1556   20.4851 C   0  0  2  0  0  0  0  0  0  0  0  0
    8.0932  -11.8496   19.7374 C   0  0  0  0  0  0  0  0  0  0  0  0
    8.6533  -14.2877   19.7419 C   0  0  0  0  0  0  0  0  0  0  0  0
    8.8805  -15.5288   20.5329 C   0  0  2  0  0  0  0  0  0  0  0  0
    7.5244  -16.0395   20.8499 N   0  0  0  0  0  0  0  0  0  0  0  0
    9.5515  -15.3451   21.8320 C   0  0  0  0  0  0  0  0  0  0  0  0
   10.7638  -14.9418   21.8521 O   0  0  0  0  0  0  0  0  0  0  0  0
   10.8676  -15.3201   30.6653 O   0  0  0  0  0  0  0  0  0  0  0  0
   10.3588  -15.2676   29.3839 C   0  0  0  0  0  0  0  0  0  0  0  0
   10.3109  -14.0887   28.6652 C   0  0  0  0  0  0  0  0  0  0  0  0
    9.7935  -14.0784   27.3837 C   0  0  0  0  0  0  0  0  0  0  0  0
    9.3155  -15.2065   26.7798 C   0  0  0  0  0  0  0  0  0  0  0  0
    8.7446  -15.2908   25.4374 C   0  0  0  0  0  0  0  0  0  0  0  0
    9.7502  -15.5146   24.3457 C   0  0  2  0  0  0  0  0  0  0  0  0
    9.0013  -15.5645   23.1077 N   0  0  0  0  0  0  0  0  0  0  0  0
   10.4945  -16.7759   24.4846 C   0  0  0  0  0  0  0  0  0  0  0  0
    9.9315  -17.8498   24.1519 O   0  0  0  0  0  0  0  0  0  0  0  0
    9.3767  -16.3794   27.5278 C   0  0  0  0  0  0  0  0  0  0  0  0
    9.8892  -16.4144   28.8095 C   0  0  0  0  0  0  0  0  0  0  0  0
   11.8267  -16.8344   24.9799 N   0  0  0  0  0  0  0  0  0  0  0  0
   12.5240  -18.1225   24.8629 C   0  0  1  0  0  0  0  0  0  0  0  0
   13.6698  -18.0078   23.9138 C   0  0  0  0  0  0  0  0  0  0  0  0
   14.4242  -19.2631   23.8168 C   0  0  0  0  0  0  0  0  0  0  0  0
   14.2970  -20.0361   22.8392 O   0  0  0  0  0  0  0  0  0  0  0  0
   13.0430  -18.4190   26.2327 C   0  0  0  0  0  0  0  0  0  0  0  0
   12.9265  -17.5432   27.2808 O   0  0  0  0  0  0  0  0  0  0  0  0
   15.3265  -19.6572   24.8191 O   0  0  0  0  0  0  0  0  0  0  0  0
   13.6161  -19.5377   26.4181 O   0  0  0  0  0  0  0  0  0  0  0  0
  2  1  1  6
  2  4  1  0
  3  2  1  0
  5  4  1  0
  5  6  1  1
  7  5  1  0
  7  8  2  0
  9 10  1  0
 10 20  2  0
 10 11  1  0
 11 12  2  0
 12 13  1  0
 13 14  1  0
 15 14  1  1
 15 16  1  0
 16  7  1  0
 17 21  1  0
 17 15  1  0
 18 17  2  0
 19 13  2  0
 20 19  1  0
 22 21  1  0
 22 26  1  0
 23 24  1  0
 22 23  1  6
 24 28  1  0
 25 24  2  0
 26 27  1  0
 29 26  2  0
M  END
$$$$
