LYD.pdb
     RDKit          3D

 29 29  0  0  1  0  0  0  0  0999 V2000
    6.4819  -13.1101   18.8564 C   0  0  0  0  0  0  0  0  0  0  0  0
    7.6485  -13.3953   19.8229 C   0  0  2  0  0  0  0  0  0  0  0  0
    8.8929  -12.8763   19.1482 C   0  0  0  0  0  0  0  0  0  0  0  0
    7.6676  -14.8885   19.9895 C   0  0  0  0  0  0  0  0  0  0  0  0
    7.0110  -15.4057   21.2220 C   0  0  2  0  0  0  0  0  0  0  0  0
    5.7079  -14.7004   21.2914 N   0  0  0  0  0  0  0  0  0  0  0  0
    7.6984  -15.0997   22.4891 C   0  0  0  0  0  0  0  0  0  0  0  0
    7.6849  -13.8996   22.9277 O   0  0  0  0  0  0  0  0  0  0  0  0
   11.0795  -14.4881   30.4518 O   0  0  0  0  0  0  0  0  0  0  0  0
   10.4275  -14.8450   29.2893 C   0  0  0  0  0  0  0  0  0  0  0  0
   10.3146  -16.1629   28.8909 C   0  0  0  0  0  0  0  0  0  0  0  0
    9.6533  -16.4789   27.7191 C   0  0  0  0  0  0  0  0  0  0  0  0
    9.0926  -15.5259   26.9170 C   0  0  0  0  0  0  0  0  0  0  0  0
    8.3843  -15.7628   25.6612 C   0  0  0  0  0  0  0  0  0  0  0  0
    9.2314  -15.6159   24.4308 C   0  0  2  0  0  0  0  0  0  0  0  0
    8.3952  -16.0014   23.3136 N   0  0  0  0  0  0  0  0  0  0  0  0
   10.4227  -16.4790   24.4335 C   0  0  0  0  0  0  0  0  0  0  0  0
   10.3125  -17.6628   24.0241 O   0  0  0  0  0  0  0  0  0  0  0  0
    9.2219  -14.2068   27.3438 C   0  0  0  0  0  0  0  0  0  0  0  0
    9.8779  -13.8669   28.5105 C   0  0  0  0  0  0  0  0  0  0  0  0
   11.6974  -16.0323   24.8798 N   0  0  0  0  0  0  0  0  0  0  0  0
   12.8392  -16.9228   24.6303 C   0  0  1  0  0  0  0  0  0  0  0  0
   13.5189  -16.5501   23.3551 C   0  0  0  0  0  0  0  0  0  0  0  0
   14.6736  -17.4136   23.0811 C   0  0  0  0  0  0  0  0  0  0  0  0
   14.8023  -18.5359   23.6228 O   0  0  0  0  0  0  0  0  0  0  0  0
   13.7747  -16.6990   25.7741 C   0  0  0  0  0  0  0  0  0  0  0  0
   14.3312  -15.4783   26.0554 O   0  0  0  0  0  0  0  0  0  0  0  0
   15.6914  -17.0203   22.1959 O   0  0  0  0  0  0  0  0  0  0  0  0
   14.0575  -17.6955   26.5099 O   0  0  0  0  0  0  0  0  0  0  0  0
  2  1  1  6
  2  4  1  0
  3  2  1  0
  5  4  1  0
  5  6  1  1
  7  5  1  0
  7  8  2  0
  9 10  1  0
 10 20  2  0
 10 11  1  0
 11 12  2  0
 12 13  1  0
 13 14  1  0
 15 14  1  1
 15 16  1  0
 16  7  1  0
 17 21  1  0
 17 15  1  0
 18 17  2  0
 19 13  2  0
 20 19  1  0
 22 21  1  0
 22 26  1  0
 23 24  1  0
 22 23  1  6
 24 28  1  0
 25 24  2  0
 26 27  1  0
 29 26  2  0
M  END
$$$$
