LSR.pdb
     RDKit          3D

 26 25  0  0  1  0  0  0  0  0999 V2000
   17.8704  -13.7232  -20.4110 C   0  0  0  0  0  0  0  0  0  0  0  0
   19.1997  -13.2594  -19.9098 C   0  0  1  0  0  0  0  0  0  0  0  0
   19.8468  -12.3985  -20.9897 C   0  0  0  0  0  0  0  0  0  0  0  0
   19.1288  -12.5119  -18.5951 C   0  0  0  0  0  0  0  0  0  0  0  0
   20.5357  -12.1430  -18.1868 C   0  0  2  0  0  0  0  0  0  0  0  0
   21.3224  -13.3422  -17.9933 N   0  0  0  0  0  0  0  0  0  0  0  0
   20.5908  -11.3340  -16.9699 C   0  0  0  0  0  0  0  0  0  0  0  0
   19.5758  -11.1835  -16.2703 O   0  0  0  0  0  0  0  0  0  0  0  0
   24.2731  -10.0345  -15.2669 O   0  0  0  0  0  0  0  0  0  0  0  0
   23.1077  -10.0908  -14.5182 C   0  0  0  0  0  0  0  0  0  0  0  0
   21.8724   -9.8607  -15.3471 C   0  0  2  0  0  0  0  0  0  0  0  0
   21.7804  -10.6759  -16.5084 N   0  0  0  0  0  0  0  0  0  0  0  0
   21.8400   -8.4348  -15.7296 C   0  0  0  0  0  0  0  0  0  0  0  0
   22.3270   -8.0827  -16.8347 O   0  0  0  0  0  0  0  0  0  0  0  0
   15.7892   -2.2268  -16.5381 N   0  0  0  0  0  0  0  0  0  0  0  0
   17.0296   -1.5633  -16.7297 C   0  0  0  0  0  0  0  0  0  0  0  0
   17.0902   -0.3358  -17.1745 N   0  0  0  0  0  0  0  0  0  0  0  0
   18.2760   -2.1910  -16.4506 N   0  0  0  0  0  0  0  0  0  0  0  0
   18.3277   -3.5419  -15.9205 C   0  0  0  0  0  0  0  0  0  0  0  0
   19.7082   -4.0523  -15.7466 C   0  0  0  0  0  0  0  0  0  0  0  0
   19.8740   -5.4779  -15.3909 C   0  0  0  0  0  0  0  0  0  0  0  0
   21.2624   -6.0002  -15.2922 C   0  0  2  0  0  0  0  0  0  0  0  0
   21.2890   -7.4155  -14.9254 N   0  0  0  0  0  0  0  0  0  0  0  0
   22.1770   -5.2735  -14.4152 C   0  0  0  0  0  0  0  0  0  0  0  0
   22.3230   -5.5886  -13.1938 O   0  0  0  0  0  0  0  0  0  0  0  0
   22.9245   -4.2075  -14.8873 O   0  0  0  0  0  0  0  0  0  0  0  0
  2  3  1  6
  2  1  1  0
  4  2  1  0
  5  6  1  1
  5  4  1  0
  7  5  1  0
  8  7  2  0
  9 10  1  0
 11 10  1  6
 11 12  1  0
 12  7  1  0
 13 11  1  0
 13 14  2  0
 16 17  2  0
 16 15  1  0
 18 16  1  0
 19 18  1  0
 20 19  1  0
 21 20  1  0
 22 21  1  1
 23 22  1  0
 23 13  1  0
 24 22  1  0
 25 24  2  0
 26 24  1  0
M  END
$$$$
