LSR.pdb
     RDKit          3D

 26 25  0  0  1  0  0  0  0  0999 V2000
   18.8041  -11.8834    3.1397 C   0  0  0  0  0  0  0  0  0  0  0  0
   18.9705  -11.6881    4.6120 C   0  0  1  0  0  0  0  0  0  0  0  0
   17.5921  -11.4684    5.2265 C   0  0  0  0  0  0  0  0  0  0  0  0
   19.6922  -12.8271    5.3004 C   0  0  0  0  0  0  0  0  0  0  0  0
   19.8163  -12.4877    6.7672 C   0  0  2  0  0  0  0  0  0  0  0  0
   20.9761  -11.6493    6.9819 N   0  0  0  0  0  0  0  0  0  0  0  0
   19.9134  -13.6666    7.6269 C   0  0  0  0  0  0  0  0  0  0  0  0
   20.9633  -14.3287    7.6673 O   0  0  0  0  0  0  0  0  0  0  0  0
   18.5046  -16.3221   11.3960 O   0  0  0  0  0  0  0  0  0  0  0  0
   18.4070  -15.1521   10.6587 C   0  0  0  0  0  0  0  0  0  0  0  0
   18.8551  -15.3249    9.2321 C   0  0  2  0  0  0  0  0  0  0  0  0
   18.8402  -14.1313    8.4597 N   0  0  0  0  0  0  0  0  0  0  0  0
   17.9888  -16.3420    8.6029 C   0  0  0  0  0  0  0  0  0  0  0  0
   16.8396  -16.0140    8.2104 O   0  0  0  0  0  0  0  0  0  0  0  0
   17.2335  -20.2907    1.1787 N   0  0  0  0  0  0  0  0  0  0  0  0
   16.2429  -20.8824    2.0060 C   0  0  0  0  0  0  0  0  0  0  0  0
   15.2313  -21.5395    1.5030 N   0  0  0  0  0  0  0  0  0  0  0  0
   16.2909  -20.7965    3.4257 N   0  0  0  0  0  0  0  0  0  0  0  0
   17.1528  -19.8316    4.0851 C   0  0  0  0  0  0  0  0  0  0  0  0
   16.9177  -19.7352    5.5452 C   0  0  0  0  0  0  0  0  0  0  0  0
   17.6857  -18.7215    6.2994 C   0  0  0  0  0  0  0  0  0  0  0  0
   17.5183  -18.6973    7.7764 C   0  0  2  0  0  0  0  0  0  0  0  0
   18.3668  -17.6865    8.4060 N   0  0  0  0  0  0  0  0  0  0  0  0
   17.7022  -19.9646    8.4792 C   0  0  0  0  0  0  0  0  0  0  0  0
   18.7240  -20.1867    9.1998 O   0  0  0  0  0  0  0  0  0  0  0  0
   16.7618  -20.9770    8.3858 O   0  0  0  0  0  0  0  0  0  0  0  0
  2  3  1  1
  2  1  1  0
  4  2  1  0
  5  6  1  6
  5  4  1  0
  7  5  1  0
  8  7  2  0
  9 10  1  0
 11 10  1  1
 11 12  1  0
 12  7  1  0
 13 11  1  0
 13 14  2  0
 16 17  2  0
 16 15  1  0
 18 16  1  0
 19 18  1  0
 20 19  1  0
 21 20  1  0
 22 21  1  6
 23 22  1  0
 23 13  1  0
 24 22  1  0
 25 24  2  0
 26 24  1  0
M  END
$$$$
