LSR.pdb
     RDKit          3D

 26 25  0  0  1  0  0  0  0  0999 V2000
   16.7031  -24.9275    2.1151 C   0  0  0  0  0  0  0  0  0  0  0  0
   16.4507  -23.8960    3.1666 C   0  0  1  0  0  0  0  0  0  0  0  0
   17.6751  -23.8242    4.0731 C   0  0  0  0  0  0  0  0  0  0  0  0
   16.1105  -22.5293    2.6110 C   0  0  0  0  0  0  0  0  0  0  0  0
   14.7246  -22.1599    3.0854 C   0  0  2  0  0  0  0  0  0  0  0  0
   13.9700  -21.5791    1.9958 N   0  0  0  0  0  0  0  0  0  0  0  0
   14.7290  -21.2287    4.2130 C   0  0  0  0  0  0  0  0  0  0  0  0
   14.6867  -20.0035    4.0148 O   0  0  0  0  0  0  0  0  0  0  0  0
   14.4182  -20.6033    9.0921 O   0  0  0  0  0  0  0  0  0  0  0  0
   14.6133  -21.4814    8.0372 C   0  0  0  0  0  0  0  0  0  0  0  0
   14.7388  -20.7790    6.7118 C   0  0  2  0  0  0  0  0  0  0  0  0
   14.7809  -21.6460    5.5857 N   0  0  0  0  0  0  0  0  0  0  0  0
   15.9579  -19.9464    6.7515 C   0  0  0  0  0  0  0  0  0  0  0  0
   17.0308  -20.4033    6.2799 O   0  0  0  0  0  0  0  0  0  0  0  0
   17.8862  -11.4990    4.9757 N   0  0  0  0  0  0  0  0  0  0  0  0
   19.0427  -12.0322    5.6031 C   0  0  0  0  0  0  0  0  0  0  0  0
   20.1445  -11.3381    5.7156 N   0  0  0  0  0  0  0  0  0  0  0  0
   19.0728  -13.3478    6.1448 N   0  0  0  0  0  0  0  0  0  0  0  0
   17.9029  -14.2059    6.0833 C   0  0  0  0  0  0  0  0  0  0  0  0
   18.0917  -15.5066    6.7680 C   0  0  0  0  0  0  0  0  0  0  0  0
   16.9805  -16.4804    6.7118 C   0  0  0  0  0  0  0  0  0  0  0  0
   17.2076  -17.8125    7.3315 C   0  0  2  0  0  0  0  0  0  0  0  0
   16.0061  -18.6451    7.2931 N   0  0  0  0  0  0  0  0  0  0  0  0
   17.7388  -17.8221    8.6922 C   0  0  0  0  0  0  0  0  0  0  0  0
   17.0153  -18.1293    9.6897 O   0  0  0  0  0  0  0  0  0  0  0  0
   19.0605  -17.4954    8.9461 O   0  0  0  0  0  0  0  0  0  0  0  0
  2  3  1  6
  2  1  1  0
  4  2  1  0
  5  6  1  6
  5  4  1  0
  7  5  1  0
  8  7  2  0
  9 10  1  0
 11 10  1  1
 11 12  1  0
 12  7  1  0
 13 11  1  0
 13 14  2  0
 16 17  2  0
 16 15  1  0
 18 16  1  0
 19 18  1  0
 20 19  1  0
 21 20  1  0
 22 21  1  1
 23 22  1  0
 23 13  1  0
 24 22  1  0
 25 24  2  0
 26 24  1  0
M  END
$$$$
