LSR.pdb
     RDKit          3D

 26 25  0  0  1  0  0  0  0  0999 V2000
   14.9737  -12.7548  -12.1572 C   0  0  0  0  0  0  0  0  0  0  0  0
   14.9397  -11.8234  -10.9889 C   0  0  1  0  0  0  0  0  0  0  0  0
   15.9385  -12.3203   -9.9489 C   0  0  0  0  0  0  0  0  0  0  0  0
   15.2132  -10.3793  -11.3521 C   0  0  0  0  0  0  0  0  0  0  0  0
   14.9355   -9.5273  -10.1359 C   0  0  2  0  0  0  0  0  0  0  0  0
   13.5396   -9.6329   -9.7694 N   0  0  0  0  0  0  0  0  0  0  0  0
   15.2734   -8.1176  -10.3287 C   0  0  0  0  0  0  0  0  0  0  0  0
   14.5747   -7.3999  -11.0628 O   0  0  0  0  0  0  0  0  0  0  0  0
   17.6341   -5.8610   -7.7546 O   0  0  0  0  0  0  0  0  0  0  0  0
   17.0183   -5.2586   -8.8408 C   0  0  0  0  0  0  0  0  0  0  0  0
   16.8885   -6.1828  -10.0218 C   0  0  2  0  0  0  0  0  0  0  0  0
   16.3986   -7.4796   -9.7058 N   0  0  0  0  0  0  0  0  0  0  0  0
   18.2138   -6.2886  -10.6647 C   0  0  0  0  0  0  0  0  0  0  0  0
   18.9313   -7.2956  -10.4336 O   0  0  0  0  0  0  0  0  0  0  0  0
   21.3651  -10.7302  -16.4124 N   0  0  0  0  0  0  0  0  0  0  0  0
   22.3353   -9.6938  -16.4100 C   0  0  0  0  0  0  0  0  0  0  0  0
   23.4133   -9.7607  -17.1461 N   0  0  0  0  0  0  0  0  0  0  0  0
   22.1940   -8.5251  -15.6104 N   0  0  0  0  0  0  0  0  0  0  0  0
   21.0511   -8.3582  -14.7302 C   0  0  0  0  0  0  0  0  0  0  0  0
   21.0334   -7.0512  -14.0317 C   0  0  0  0  0  0  0  0  0  0  0  0
   19.9571   -6.8133  -13.0462 C   0  0  0  0  0  0  0  0  0  0  0  0
   19.9541   -5.5048  -12.3407 C   0  0  2  0  0  0  0  0  0  0  0  0
   18.7447   -5.3185  -11.5400 N   0  0  0  0  0  0  0  0  0  0  0  0
   20.1574   -4.3146  -13.1628 C   0  0  0  0  0  0  0  0  0  0  0  0
   19.1810   -3.6420  -13.6175 O   0  0  0  0  0  0  0  0  0  0  0  0
   21.4315   -3.8723  -13.4778 O   0  0  0  0  0  0  0  0  0  0  0  0
  2  3  1  1
  2  1  1  0
  4  2  1  0
  5  6  1  6
  5  4  1  0
  7  5  1  0
  8  7  2  0
  9 10  1  0
 11 10  1  1
 11 12  1  0
 12  7  1  0
 13 11  1  0
 13 14  2  0
 16 17  2  0
 16 15  1  0
 18 16  1  0
 19 18  1  0
 20 19  1  0
 21 20  1  0
 22 21  1  6
 23 22  1  0
 23 13  1  0
 24 22  1  0
 25 24  2  0
 26 24  1  0
M  END
$$$$
