LSR.pdb
     RDKit          3D

 26 25  0  0  1  0  0  0  0  0999 V2000
   33.2618  -21.7500   -9.3499 C   0  0  0  0  0  0  0  0  0  0  0  0
   32.7521  -22.1797  -10.6875 C   0  0  1  0  0  0  0  0  0  0  0  0
   32.5773  -23.6947  -10.6711 C   0  0  0  0  0  0  0  0  0  0  0  0
   31.4672  -21.4932  -11.0997 C   0  0  0  0  0  0  0  0  0  0  0  0
   31.1415  -21.9137  -12.5137 C   0  0  2  0  0  0  0  0  0  0  0  0
   32.3100  -21.7618  -13.3538 N   0  0  0  0  0  0  0  0  0  0  0  0
   30.0317  -21.1624  -13.0988 C   0  0  0  0  0  0  0  0  0  0  0  0
   29.9676  -19.9297  -12.9619 O   0  0  0  0  0  0  0  0  0  0  0  0
   28.3510  -21.2162  -16.6887 O   0  0  0  0  0  0  0  0  0  0  0  0
   27.3978  -21.5133  -15.7270 C   0  0  0  0  0  0  0  0  0  0  0  0
   27.8193  -21.0981  -14.3429 C   0  0  2  0  0  0  0  0  0  0  0  0
   28.9701  -21.7716  -13.8491 N   0  0  0  0  0  0  0  0  0  0  0  0
   26.6774  -21.3204  -13.4333 C   0  0  0  0  0  0  0  0  0  0  0  0
   26.7597  -22.2103  -12.5482 O   0  0  0  0  0  0  0  0  0  0  0  0
   21.0511  -20.6301   -8.8904 N   0  0  0  0  0  0  0  0  0  0  0  0
   21.8086  -21.1394   -7.8031 C   0  0  0  0  0  0  0  0  0  0  0  0
   21.2363  -21.7008   -6.7709 N   0  0  0  0  0  0  0  0  0  0  0  0
   23.2297  -21.0700   -7.7709 N   0  0  0  0  0  0  0  0  0  0  0  0
   23.9603  -20.2944   -8.7574 C   0  0  0  0  0  0  0  0  0  0  0  0
   23.6370  -20.6673  -10.1549 C   0  0  0  0  0  0  0  0  0  0  0  0
   24.7037  -20.5238  -11.1687 C   0  0  0  0  0  0  0  0  0  0  0  0
   24.3414  -20.7961  -12.5845 C   0  0  2  0  0  0  0  0  0  0  0  0
   25.4727  -20.5889  -13.4876 N   0  0  0  0  0  0  0  0  0  0  0  0
   23.1834  -20.0815  -13.1155 C   0  0  0  0  0  0  0  0  0  0  0  0
   23.3120  -19.0688  -13.8709 O   0  0  0  0  0  0  0  0  0  0  0  0
   21.8936  -20.4858  -12.8136 O   0  0  0  0  0  0  0  0  0  0  0  0
  2  3  1  1
  2  1  1  0
  4  2  1  0
  5  6  1  6
  5  4  1  0
  7  5  1  0
  8  7  2  0
  9 10  1  0
 11 10  1  6
 11 12  1  0
 12  7  1  0
 13 11  1  0
 13 14  2  0
 16 17  2  0
 16 15  1  0
 18 16  1  0
 19 18  1  0
 20 19  1  0
 21 20  1  0
 22 21  1  1
 23 22  1  0
 23 13  1  0
 24 22  1  0
 25 24  2  0
 26 24  1  0
M  END
$$$$
