LSR.pdb
     RDKit          3D

 26 25  0  0  1  0  0  0  0  0999 V2000
   17.3684  -16.1557  -19.0883 C   0  0  0  0  0  0  0  0  0  0  0  0
   18.8529  -16.0697  -19.2373 C   0  0  1  0  0  0  0  0  0  0  0  0
   19.2136  -16.4341  -20.6737 C   0  0  0  0  0  0  0  0  0  0  0  0
   19.4261  -14.7192  -18.8637 C   0  0  0  0  0  0  0  0  0  0  0  0
   20.9322  -14.8104  -18.9367 C   0  0  2  0  0  0  0  0  0  0  0  0
   21.4088  -15.8244  -18.0208 N   0  0  0  0  0  0  0  0  0  0  0  0
   21.6028  -13.5453  -18.6397 C   0  0  0  0  0  0  0  0  0  0  0  0
   21.6264  -13.1055  -17.4785 O   0  0  0  0  0  0  0  0  0  0  0  0
   23.3277  -11.0477  -21.7234 O   0  0  0  0  0  0  0  0  0  0  0  0
   23.8742  -11.0723  -20.4496 C   0  0  0  0  0  0  0  0  0  0  0  0
   22.8796  -11.4859  -19.3982 C   0  0  2  0  0  0  0  0  0  0  0  0
   22.2612  -12.7445  -19.6329 N   0  0  0  0  0  0  0  0  0  0  0  0
   21.8514  -10.4301  -19.3038 C   0  0  0  0  0  0  0  0  0  0  0  0
   20.7167  -10.6291  -19.8089 O   0  0  0  0  0  0  0  0  0  0  0  0
   14.8131   -8.5700  -15.9753 N   0  0  0  0  0  0  0  0  0  0  0  0
   15.1293   -7.3271  -16.5843 C   0  0  0  0  0  0  0  0  0  0  0  0
   14.2398   -6.3776  -16.7089 N   0  0  0  0  0  0  0  0  0  0  0  0
   16.4270   -7.0410  -17.0935 N   0  0  0  0  0  0  0  0  0  0  0  0
   17.4028   -8.0994  -17.2839 C   0  0  0  0  0  0  0  0  0  0  0  0
   18.7007   -7.6143  -17.8096 C   0  0  0  0  0  0  0  0  0  0  0  0
   19.7633   -8.6149  -18.0466 C   0  0  0  0  0  0  0  0  0  0  0  0
   21.0527   -8.1238  -18.6002 C   0  0  2  0  0  0  0  0  0  0  0  0
   22.0558   -9.1853  -18.6729 N   0  0  0  0  0  0  0  0  0  0  0  0
   21.6490   -6.9622  -17.9453 C   0  0  0  0  0  0  0  0  0  0  0  0
   22.7646   -7.0345  -17.3429 O   0  0  0  0  0  0  0  0  0  0  0  0
   21.0157   -5.7305  -17.9586 O   0  0  0  0  0  0  0  0  0  0  0  0
  2  3  1  6
  2  1  1  0
  4  2  1  0
  5  6  1  1
  5  4  1  0
  7  5  1  0
  8  7  2  0
  9 10  1  0
 11 10  1  6
 11 12  1  0
 12  7  1  0
 13 11  1  0
 13 14  2  0
 16 17  2  0
 16 15  1  0
 18 16  1  0
 19 18  1  0
 20 19  1  0
 21 20  1  0
 22 21  1  1
 23 22  1  0
 23 13  1  0
 24 22  1  0
 25 24  2  0
 26 24  1  0
M  END
$$$$
