LSR.pdb
     RDKit          3D

 26 25  0  0  1  0  0  0  0  0999 V2000
   23.3905  -17.5335  -20.2332 C   0  0  0  0  0  0  0  0  0  0  0  0
   22.3323  -17.3557  -19.1930 C   0  0  1  0  0  0  0  0  0  0  0  0
   20.9789  -17.2813  -19.8920 C   0  0  0  0  0  0  0  0  0  0  0  0
   22.3325  -18.4359  -18.1321 C   0  0  0  0  0  0  0  0  0  0  0  0
   21.1803  -18.1720  -17.1914 C   0  0  2  0  0  0  0  0  0  0  0  0
   21.4027  -16.9339  -16.4761 N   0  0  0  0  0  0  0  0  0  0  0  0
   20.9642  -19.2491  -16.2261 C   0  0  0  0  0  0  0  0  0  0  0  0
   21.0816  -20.4356  -16.5736 O   0  0  0  0  0  0  0  0  0  0  0  0
   19.6852  -18.5104  -12.1639 O   0  0  0  0  0  0  0  0  0  0  0  0
   20.5312  -19.5701  -12.4525 C   0  0  0  0  0  0  0  0  0  0  0  0
   20.4101  -20.0391  -13.8777 C   0  0  2  0  0  0  0  0  0  0  0  0
   20.6123  -19.0241  -14.8526 N   0  0  0  0  0  0  0  0  0  0  0  0
   19.0717  -20.6398  -14.0471 C   0  0  0  0  0  0  0  0  0  0  0  0
   18.0945  -19.8976  -14.3236 O   0  0  0  0  0  0  0  0  0  0  0  0
   20.9091  -27.9164  -15.2637 N   0  0  0  0  0  0  0  0  0  0  0  0
   21.0621  -26.6845  -14.5748 C   0  0  0  0  0  0  0  0  0  0  0  0
   22.1217  -26.4278  -13.8541 N   0  0  0  0  0  0  0  0  0  0  0  0
   20.0762  -25.6596  -14.6267 N   0  0  0  0  0  0  0  0  0  0  0  0
   18.8439  -25.8481  -15.3715 C   0  0  0  0  0  0  0  0  0  0  0  0
   17.9883  -24.6385  -15.4075 C   0  0  0  0  0  0  0  0  0  0  0  0
   17.5209  -24.0887  -14.1169 C   0  0  0  0  0  0  0  0  0  0  0  0
   17.4685  -22.6090  -13.9836 C   0  0  2  0  0  0  0  0  0  0  0  0
   18.8048  -22.0187  -13.9179 N   0  0  0  0  0  0  0  0  0  0  0  0
   16.6684  -22.0763  -12.8838 C   0  0  0  0  0  0  0  0  0  0  0  0
   15.4487  -21.7581  -13.0380 O   0  0  0  0  0  0  0  0  0  0  0  0
   17.2140  -21.8985  -11.6233 O   0  0  0  0  0  0  0  0  0  0  0  0
  2  3  1  6
  2  1  1  0
  4  2  1  0
  5  6  1  1
  5  4  1  0
  7  5  1  0
  8  7  2  0
  9 10  1  0
 11 10  1  1
 11 12  1  0
 12  7  1  0
 13 11  1  0
 13 14  2  0
 16 17  2  0
 16 15  1  0
 18 16  1  0
 19 18  1  0
 20 19  1  0
 21 20  1  0
 22 21  1  1
 23 22  1  0
 23 13  1  0
 24 22  1  0
 25 24  2  0
 26 24  1  0
M  END
$$$$
