LSR.pdb
     RDKit          3D

 26 25  0  0  1  0  0  0  0  0999 V2000
   29.5011  -15.9078  -16.4727 C   0  0  0  0  0  0  0  0  0  0  0  0
   28.1352  -15.3065  -16.5497 C   0  0  1  0  0  0  0  0  0  0  0  0
   28.2422  -13.9596  -17.2571 C   0  0  0  0  0  0  0  0  0  0  0  0
   27.1157  -16.1940  -17.2317 C   0  0  0  0  0  0  0  0  0  0  0  0
   27.8474  -17.3613  -17.8515 C   0  0  2  0  0  0  0  0  0  0  0  0
   28.5162  -16.9360  -19.0623 N   0  0  0  0  0  0  0  0  0  0  0  0
   26.9737  -18.4925  -18.1606 C   0  0  0  0  0  0  0  0  0  0  0  0
   26.2100  -18.4462  -19.1387 O   0  0  0  0  0  0  0  0  0  0  0  0
   26.5620  -21.8929  -15.5282 O   0  0  0  0  0  0  0  0  0  0  0  0
   26.4506  -22.0650  -16.8992 C   0  0  0  0  0  0  0  0  0  0  0  0
   26.0626  -20.7986  -17.6145 C   0  0  2  0  0  0  0  0  0  0  0  0
   26.9344  -19.6994  -17.3840 N   0  0  0  0  0  0  0  0  0  0  0  0
   24.6889  -20.4461  -17.2030 C   0  0  0  0  0  0  0  0  0  0  0  0
   24.5126  -19.4992  -16.3939 O   0  0  0  0  0  0  0  0  0  0  0  0
   18.3965  -23.3134  -12.1055 N   0  0  0  0  0  0  0  0  0  0  0  0
   18.9659  -22.0974  -12.5664 C   0  0  0  0  0  0  0  0  0  0  0  0
   18.2605  -21.0010  -12.6601 N   0  0  0  0  0  0  0  0  0  0  0  0
   20.3321  -21.9985  -12.9524 N   0  0  0  0  0  0  0  0  0  0  0  0
   20.8703  -20.7555  -13.4759 C   0  0  0  0  0  0  0  0  0  0  0  0
   20.8907  -20.7016  -14.9568 C   0  0  0  0  0  0  0  0  0  0  0  0
   22.1719  -20.9880  -15.6372 C   0  0  0  0  0  0  0  0  0  0  0  0
   22.1913  -20.9016  -17.1212 C   0  0  2  0  0  0  0  0  0  0  0  0
   23.5332  -21.1108  -17.6632 N   0  0  0  0  0  0  0  0  0  0  0  0
   21.6311  -19.6909  -17.7163 C   0  0  0  0  0  0  0  0  0  0  0  0
   22.3647  -18.8270  -18.2890 O   0  0  0  0  0  0  0  0  0  0  0  0
   20.2696  -19.4396  -17.6784 O   0  0  0  0  0  0  0  0  0  0  0  0
  2  3  1  6
  2  1  1  0
  4  2  1  0
  5  6  1  6
  5  4  1  0
  7  5  1  0
  8  7  2  0
  9 10  1  0
 11 10  1  1
 11 12  1  0
 12  7  1  0
 13 11  1  0
 13 14  2  0
 16 17  2  0
 16 15  1  0
 18 16  1  0
 19 18  1  0
 20 19  1  0
 21 20  1  0
 22 21  1  1
 23 22  1  0
 23 13  1  0
 24 22  1  0
 25 24  2  0
 26 24  1  0
M  END
$$$$
