LSR.pdb
     RDKit          3D

 26 25  0  0  1  0  0  0  0  0999 V2000
   15.4160  -25.6292   -5.9980 C   0  0  0  0  0  0  0  0  0  0  0  0
   16.7666  -25.4179   -6.6019 C   0  0  1  0  0  0  0  0  0  0  0  0
   17.3162  -26.7728   -7.0359 C   0  0  0  0  0  0  0  0  0  0  0  0
   16.7717  -24.4392   -7.7570 C   0  0  0  0  0  0  0  0  0  0  0  0
   18.1782  -24.3623   -8.3027 C   0  0  2  0  0  0  0  0  0  0  0  0
   19.0877  -23.9367   -7.2607 N   0  0  0  0  0  0  0  0  0  0  0  0
   18.3058  -23.4596   -9.4461 C   0  0  0  0  0  0  0  0  0  0  0  0
   17.5692  -23.5943  -10.4368 O   0  0  0  0  0  0  0  0  0  0  0  0
   21.6005  -20.8009   -9.9044 O   0  0  0  0  0  0  0  0  0  0  0  0
   20.3608  -20.3408  -10.3208 C   0  0  0  0  0  0  0  0  0  0  0  0
   19.3820  -21.4558  -10.5744 C   0  0  2  0  0  0  0  0  0  0  0  0
   19.2585  -22.3873   -9.5074 N   0  0  0  0  0  0  0  0  0  0  0  0
   19.7979  -22.1549  -11.8069 C   0  0  0  0  0  0  0  0  0  0  0  0
   20.6097  -23.1124  -11.7273 O   0  0  0  0  0  0  0  0  0  0  0  0
   21.8463  -26.8126  -15.9405 N   0  0  0  0  0  0  0  0  0  0  0  0
   21.3897  -27.3302  -14.6999 C   0  0  0  0  0  0  0  0  0  0  0  0
   22.1735  -28.0196  -13.9134 N   0  0  0  0  0  0  0  0  0  0  0  0
   20.0580  -27.1309  -14.2395 N   0  0  0  0  0  0  0  0  0  0  0  0
   19.0959  -26.3930  -15.0387 C   0  0  0  0  0  0  0  0  0  0  0  0
   19.4590  -24.9686  -15.2282 C   0  0  0  0  0  0  0  0  0  0  0  0
   19.2740  -24.0539  -14.0813 C   0  0  0  0  0  0  0  0  0  0  0  0
   19.5892  -22.6171  -14.2959 C   0  0  2  0  0  0  0  0  0  0  0  0
   19.3389  -21.8178  -13.0972 N   0  0  0  0  0  0  0  0  0  0  0  0
   18.9453  -21.9660  -15.4339 C   0  0  0  0  0  0  0  0  0  0  0  0
   17.8520  -21.3319  -15.3100 O   0  0  0  0  0  0  0  0  0  0  0  0
   19.5079  -22.0156  -16.6985 O   0  0  0  0  0  0  0  0  0  0  0  0
  2  3  1  6
  2  1  1  0
  4  2  1  0
  5  6  1  1
  5  4  1  0
  7  5  1  0
  8  7  2  0
  9 10  1  0
 11 10  1  1
 11 12  1  0
 12  7  1  0
 13 11  1  0
 13 14  2  0
 16 17  2  0
 16 15  1  0
 18 16  1  0
 19 18  1  0
 20 19  1  0
 21 20  1  0
 22 21  1  1
 23 22  1  0
 23 13  1  0
 24 22  1  0
 25 24  2  0
 26 24  1  0
M  END
$$$$
