LSR.pdb
     RDKit          3D

 26 25  0  0  1  0  0  0  0  0999 V2000
   26.0910  -19.4785   -9.0955 C   0  0  0  0  0  0  0  0  0  0  0  0
   26.2537  -20.5326  -10.1423 C   0  0  1  0  0  0  0  0  0  0  0  0
   25.7200  -21.8486   -9.5862 C   0  0  0  0  0  0  0  0  0  0  0  0
   25.5864  -20.1934  -11.4582 C   0  0  0  0  0  0  0  0  0  0  0  0
   25.3325  -21.4827  -12.2035 C   0  0  2  0  0  0  0  0  0  0  0  0
   26.5449  -21.9163  -12.8639 N   0  0  0  0  0  0  0  0  0  0  0  0
   24.2612  -21.3767  -13.1932 C   0  0  0  0  0  0  0  0  0  0  0  0
   24.4984  -20.9346  -14.3293 O   0  0  0  0  0  0  0  0  0  0  0  0
   20.0957  -21.8498  -12.2015 O   0  0  0  0  0  0  0  0  0  0  0  0
   20.5556  -22.3323  -13.4171 C   0  0  0  0  0  0  0  0  0  0  0  0
   21.8292  -21.6653  -13.8630 C   0  0  2  0  0  0  0  0  0  0  0  0
   22.9025  -21.7620  -12.9354 N   0  0  0  0  0  0  0  0  0  0  0  0
   21.5278  -20.2459  -14.1373 C   0  0  0  0  0  0  0  0  0  0  0  0
   21.6601  -19.3994  -13.2163 O   0  0  0  0  0  0  0  0  0  0  0  0
   23.3627  -15.6938  -20.2514 N   0  0  0  0  0  0  0  0  0  0  0  0
   23.5623  -17.0742  -19.9868 C   0  0  0  0  0  0  0  0  0  0  0  0
   23.6427  -17.9535  -20.9504 N   0  0  0  0  0  0  0  0  0  0  0  0
   23.6865  -17.5821  -18.6632 N   0  0  0  0  0  0  0  0  0  0  0  0
   23.6205  -16.6949  -17.5154 C   0  0  0  0  0  0  0  0  0  0  0  0
   22.7972  -17.2304  -16.4055 C   0  0  0  0  0  0  0  0  0  0  0  0
   21.4550  -17.7550  -16.7367 C   0  0  0  0  0  0  0  0  0  0  0  0
   20.6756  -18.3807  -15.6362 C   0  0  2  0  0  0  0  0  0  0  0  0
   21.0919  -19.7603  -15.3876 N   0  0  0  0  0  0  0  0  0  0  0  0
   19.2205  -18.3474  -15.7602 C   0  0  0  0  0  0  0  0  0  0  0  0
   18.5523  -19.3828  -16.0669 O   0  0  0  0  0  0  0  0  0  0  0  0
   18.5112  -17.1774  -15.5452 O   0  0  0  0  0  0  0  0  0  0  0  0
  2  3  1  1
  2  1  1  0
  4  2  1  0
  5  6  1  6
  5  4  1  0
  7  5  1  0
  8  7  2  0
  9 10  1  0
 11 10  1  1
 11 12  1  0
 12  7  1  0
 13 11  1  0
 13 14  2  0
 16 17  2  0
 16 15  1  0
 18 16  1  0
 19 18  1  0
 20 19  1  0
 21 20  1  0
 22 21  1  6
 23 22  1  0
 23 13  1  0
 24 22  1  0
 25 24  2  0
 26 24  1  0
M  END
$$$$
