DSI.pdb
     RDKit          3D

 23 22  0  0  1  0  0  0  0  0999 V2000
   17.3281  -16.0144  -18.1143 N   0  0  0  0  0  0  0  0  0  0  0  0
   17.4585  -15.1182  -17.0016 C   0  0  1  0  0  0  0  0  0  0  0  0
   18.1309  -15.8167  -15.8268 C   0  0  0  0  0  0  0  0  0  0  0  0
   17.2160  -16.7803  -15.1894 C   0  0  0  0  0  0  0  0  0  0  0  0
   17.6192  -17.4158  -14.1808 O   0  0  0  0  0  0  0  0  0  0  0  0
   18.2491  -13.8963  -17.3729 C   0  0  0  0  0  0  0  0  0  0  0  0
   19.0283  -13.9072  -18.3592 O   0  0  0  0  0  0  0  0  0  0  0  0
   15.9368  -17.0230  -15.6418 O   0  0  0  0  0  0  0  0  0  0  0  0
   18.5823   -9.3531  -17.9408 O   0  0  0  0  0  0  0  0  0  0  0  0
   17.8714  -10.4763  -17.5181 C   0  0  0  0  0  0  0  0  0  0  0  0
   18.8460  -11.4734  -16.9686 C   0  0  2  0  0  0  0  0  0  0  0  0
   18.1521  -12.6924  -16.6365 N   0  0  0  0  0  0  0  0  0  0  0  0
   19.6244  -10.9545  -15.8173 C   0  0  0  0  0  0  0  0  0  0  0  0
   19.1281  -11.1130  -14.6932 O   0  0  0  0  0  0  0  0  0  0  0  0
   24.9424  -11.7163  -15.2261 C   0  0  0  0  0  0  0  0  0  0  0  0
   23.4399  -11.4819  -15.1021 C   0  0  0  0  0  0  0  0  0  0  0  0
   23.1426  -10.0042  -15.0283 C   0  0  2  0  0  0  0  0  0  0  0  0
   23.7613   -9.5319  -13.7099 C   0  0  0  0  0  0  0  0  0  0  0  0
   21.6716   -9.6828  -14.9922 C   0  0  2  0  0  0  0  0  0  0  0  0
   20.8700  -10.3112  -15.9917 N   0  0  0  0  0  0  0  0  0  0  0  0
   21.3996   -8.2775  -14.7813 C   0  0  0  0  0  0  0  0  0  0  0  0
   21.3418   -7.6148  -13.5757 O   0  0  0  0  0  0  0  0  0  0  0  0
   21.1829   -7.5344  -15.8028 O   0  0  0  0  0  0  0  0  0  0  0  0
  2  1  1  6
  2  3  1  0
  3  4  1  0
  4  8  1  0
  4  5  2  0
  6 12  1  0
  6  2  1  0
  7  6  2  0
  9 10  1  0
 11 13  1  0
 11 10  1  1
 11 12  1  0
 13 20  1  0
 14 13  2  0
 16 15  1  0
 17 18  1  1
 17 16  1  0
 19 17  1  0
 19 20  1  6
 21 22  1  0
 21 19  1  0
 23 21  2  0
M  END
$$$$
