DSI.pdb
     RDKit          3D

 23 22  0  0  1  0  0  0  0  0999 V2000
   15.1308  -10.9386  -14.4812 N   0  0  0  0  0  0  0  0  0  0  0  0
   16.2229  -11.4492  -15.2589 C   0  0  1  0  0  0  0  0  0  0  0  0
   15.7064  -12.2548  -16.4440 C   0  0  0  0  0  0  0  0  0  0  0  0
   14.5473  -11.5934  -17.0691 C   0  0  0  0  0  0  0  0  0  0  0  0
   14.2355  -10.4363  -16.6847 O   0  0  0  0  0  0  0  0  0  0  0  0
   17.1053  -10.3406  -15.7572 C   0  0  0  0  0  0  0  0  0  0  0  0
   18.0461  -10.5750  -16.5571 O   0  0  0  0  0  0  0  0  0  0  0  0
   13.7837  -12.1779  -18.0566 O   0  0  0  0  0  0  0  0  0  0  0  0
   16.3149   -6.4121  -14.6448 O   0  0  0  0  0  0  0  0  0  0  0  0
   16.8953   -6.6577  -15.8891 C   0  0  0  0  0  0  0  0  0  0  0  0
   17.7370   -7.8931  -15.7826 C   0  0  2  0  0  0  0  0  0  0  0  0
   16.9179   -8.9983  -15.3522 N   0  0  0  0  0  0  0  0  0  0  0  0
   18.9231   -7.7170  -14.9092 C   0  0  0  0  0  0  0  0  0  0  0  0
   18.7878   -8.0276  -13.7175 O   0  0  0  0  0  0  0  0  0  0  0  0
   23.3281  -10.2540  -15.3631 C   0  0  0  0  0  0  0  0  0  0  0  0
   22.1401   -9.3919  -14.9468 C   0  0  0  0  0  0  0  0  0  0  0  0
   22.5001   -7.9283  -15.0230 C   0  0  2  0  0  0  0  0  0  0  0  0
   23.5962   -7.7257  -13.9735 C   0  0  0  0  0  0  0  0  0  0  0  0
   21.3588   -7.0050  -14.6867 C   0  0  2  0  0  0  0  0  0  0  0  0
   20.1473   -7.2200  -15.4094 N   0  0  0  0  0  0  0  0  0  0  0  0
   21.7621   -5.6211  -14.5625 C   0  0  0  0  0  0  0  0  0  0  0  0
   22.2870   -5.0059  -13.4480 O   0  0  0  0  0  0  0  0  0  0  0  0
   21.6320   -4.8505  -15.5784 O   0  0  0  0  0  0  0  0  0  0  0  0
  2  1  1  6
  2  3  1  0
  3  4  1  0
  4  8  1  0
  4  5  2  0
  6 12  1  0
  6  2  1  0
  7  6  2  0
  9 10  1  0
 11 13  1  0
 11 10  1  1
 11 12  1  0
 13 20  1  0
 14 13  2  0
 16 15  1  0
 17 18  1  1
 17 16  1  0
 19 17  1  0
 19 20  1  6
 21 22  1  0
 21 19  1  0
 23 21  2  0
M  END
$$$$
