DSI.pdb
     RDKit          3D

 23 22  0  0  1  0  0  0  0  0999 V2000
   17.5396  -12.2989  -15.3123 N   0  0  0  0  0  0  0  0  0  0  0  0
   16.5458  -11.3846  -14.8280 C   0  0  1  0  0  0  0  0  0  0  0  0
   15.5753  -12.0940  -13.8924 C   0  0  0  0  0  0  0  0  0  0  0  0
   14.5065  -12.7686  -14.6503 C   0  0  0  0  0  0  0  0  0  0  0  0
   14.4353  -12.5749  -15.8918 O   0  0  0  0  0  0  0  0  0  0  0  0
   17.1732  -10.2251  -14.1084 C   0  0  0  0  0  0  0  0  0  0  0  0
   18.4019   -9.9850  -14.2203 O   0  0  0  0  0  0  0  0  0  0  0  0
   13.5773  -13.6039  -14.0686 O   0  0  0  0  0  0  0  0  0  0  0  0
   17.9057   -6.0707  -13.2364 O   0  0  0  0  0  0  0  0  0  0  0  0
   17.4242   -7.2471  -13.8106 C   0  0  0  0  0  0  0  0  0  0  0  0
   16.9109   -8.1320  -12.7155 C   0  0  2  0  0  0  0  0  0  0  0  0
   16.4165   -9.3617  -13.2819 N   0  0  0  0  0  0  0  0  0  0  0  0
   15.8921   -7.4727  -11.8623 C   0  0  0  0  0  0  0  0  0  0  0  0
   14.7056   -7.6657  -12.1624 O   0  0  0  0  0  0  0  0  0  0  0  0
   12.4256   -7.2877   -7.6662 C   0  0  0  0  0  0  0  0  0  0  0  0
   13.4648   -6.2967   -8.1820 C   0  0  0  0  0  0  0  0  0  0  0  0
   14.4701   -6.9990   -9.0615 C   0  0  2  0  0  0  0  0  0  0  0  0
   15.3245   -7.8394   -8.1086 C   0  0  0  0  0  0  0  0  0  0  0  0
   15.3867   -6.0616   -9.8026 C   0  0  2  0  0  0  0  0  0  0  0  0
   16.2544   -6.6644  -10.7618 N   0  0  0  0  0  0  0  0  0  0  0  0
   16.0094   -5.0761   -8.9455 C   0  0  0  0  0  0  0  0  0  0  0  0
   17.3574   -4.8947   -8.7318 O   0  0  0  0  0  0  0  0  0  0  0  0
   15.2584   -4.2651   -8.2966 O   0  0  0  0  0  0  0  0  0  0  0  0
  2  1  1  1
  2  3  1  0
  3  4  1  0
  4  8  1  0
  4  5  2  0
  6 12  1  0
  6  2  1  0
  7  6  2  0
  9 10  1  0
 11 13  1  0
 11 10  1  6
 11 12  1  0
 13 20  1  0
 14 13  2  0
 16 15  1  0
 17 18  1  1
 17 16  1  0
 19 17  1  0
 19 20  1  1
 21 22  1  0
 21 19  1  0
 23 21  2  0
M  END
$$$$
