DSI.pdb
     RDKit          3D

 23 22  0  0  1  0  0  0  0  0999 V2000
   15.8120  -13.3367  -16.4287 N   0  0  0  0  0  0  0  0  0  0  0  0
   16.8156  -12.6312  -15.6847 C   0  0  1  0  0  0  0  0  0  0  0  0
   18.1347  -13.3924  -15.7089 C   0  0  0  0  0  0  0  0  0  0  0  0
   18.0050  -14.6984  -15.0385 C   0  0  0  0  0  0  0  0  0  0  0  0
   16.8838  -15.0247  -14.5691 O   0  0  0  0  0  0  0  0  0  0  0  0
   17.0291  -11.2478  -16.2293 C   0  0  0  0  0  0  0  0  0  0  0  0
   16.5012  -10.8927  -17.3134 O   0  0  0  0  0  0  0  0  0  0  0  0
   19.0512  -15.5846  -14.8980 O   0  0  0  0  0  0  0  0  0  0  0  0
   16.1886   -8.0078  -14.7595 O   0  0  0  0  0  0  0  0  0  0  0  0
   16.6380   -8.2677  -16.0541 C   0  0  0  0  0  0  0  0  0  0  0  0
   17.9834   -8.9220  -15.9650 C   0  0  2  0  0  0  0  0  0  0  0  0
   17.8253  -10.2941  -15.5528 N   0  0  0  0  0  0  0  0  0  0  0  0
   18.9301   -8.1915  -15.0871 C   0  0  0  0  0  0  0  0  0  0  0  0
   18.9245   -8.4969  -13.8864 O   0  0  0  0  0  0  0  0  0  0  0  0
   23.7672   -8.9302  -16.3377 C   0  0  0  0  0  0  0  0  0  0  0  0
   22.4450   -8.5844  -15.6594 C   0  0  0  0  0  0  0  0  0  0  0  0
   22.2807   -7.0875  -15.5599 C   0  0  2  0  0  0  0  0  0  0  0  0
   23.3932   -6.6198  -14.6177 C   0  0  0  0  0  0  0  0  0  0  0  0
   20.9625   -6.6602  -14.9700 C   0  0  2  0  0  0  0  0  0  0  0  0
   19.7960   -7.1964  -15.5930 N   0  0  0  0  0  0  0  0  0  0  0  0
   20.9032   -5.2461  -14.6701 C   0  0  0  0  0  0  0  0  0  0  0  0
   20.0583   -4.3135  -15.2289 O   0  0  0  0  0  0  0  0  0  0  0  0
   21.7093   -4.7702  -13.7946 O   0  0  0  0  0  0  0  0  0  0  0  0
  2  1  1  6
  2  3  1  0
  3  4  1  0
  4  8  1  0
  4  5  2  0
  6 12  1  0
  6  2  1  0
  7  6  2  0
  9 10  1  0
 11 13  1  0
 11 10  1  1
 11 12  1  0
 13 20  1  0
 14 13  2  0
 16 15  1  0
 17 18  1  1
 17 16  1  0
 19 17  1  0
 19 20  1  6
 21 22  1  0
 21 19  1  0
 23 21  2  0
M  END
$$$$
