DSI.pdb
     RDKit          3D

 23 22  0  0  1  0  0  0  0  0999 V2000
   17.2182  -12.3394  -15.3056 N   0  0  0  0  0  0  0  0  0  0  0  0
   16.3522  -11.3615  -14.7123 C   0  0  1  0  0  0  0  0  0  0  0  0
   15.2135  -12.0393  -13.9612 C   0  0  0  0  0  0  0  0  0  0  0  0
   14.3525  -12.8030  -14.8817 C   0  0  0  0  0  0  0  0  0  0  0  0
   13.5471  -12.1721  -15.6147 O   0  0  0  0  0  0  0  0  0  0  0  0
   17.1039  -10.4635  -13.7719 C   0  0  0  0  0  0  0  0  0  0  0  0
   18.3508  -10.5603  -13.6459 O   0  0  0  0  0  0  0  0  0  0  0  0
   14.3829  -14.1773  -14.9823 O   0  0  0  0  0  0  0  0  0  0  0  0
   18.4808   -6.5077  -12.7070 O   0  0  0  0  0  0  0  0  0  0  0  0
   17.8900   -7.5933  -13.3535 C   0  0  0  0  0  0  0  0  0  0  0  0
   17.1107   -8.3786  -12.3425 C   0  0  2  0  0  0  0  0  0  0  0  0
   16.4482   -9.4800  -12.9949 N   0  0  0  0  0  0  0  0  0  0  0  0
   16.1578   -7.5472  -11.5670 C   0  0  0  0  0  0  0  0  0  0  0  0
   15.2871   -6.9486  -12.2139 O   0  0  0  0  0  0  0  0  0  0  0  0
   12.9292   -9.1282   -7.9069 C   0  0  0  0  0  0  0  0  0  0  0  0
   13.6509   -8.3122   -8.9753 C   0  0  0  0  0  0  0  0  0  0  0  0
   14.5562   -7.2895   -8.3336 C   0  0  2  0  0  0  0  0  0  0  0  0
   13.6186   -6.2388   -7.7327 C   0  0  0  0  0  0  0  0  0  0  0  0
   15.4704   -6.5933   -9.3072 C   0  0  2  0  0  0  0  0  0  0  0  0
   16.2374   -7.4419  -10.1604 N   0  0  0  0  0  0  0  0  0  0  0  0
   16.2021   -5.4937   -8.7166 C   0  0  0  0  0  0  0  0  0  0  0  0
   17.5658   -5.3965   -8.5529 O   0  0  0  0  0  0  0  0  0  0  0  0
   15.5454   -4.4807   -8.2859 O   0  0  0  0  0  0  0  0  0  0  0  0
  2  1  1  1
  2  3  1  0
  3  4  1  0
  4  8  1  0
  4  5  2  0
  6 12  1  0
  6  2  1  0
  7  6  2  0
  9 10  1  0
 11 13  1  0
 11 10  1  6
 11 12  1  0
 13 20  1  0
 14 13  2  0
 16 15  1  0
 17 18  1  6
 17 16  1  0
 19 17  1  0
 19 20  1  1
 21 22  1  0
 21 19  1  0
 23 21  2  0
M  END
$$$$
