DSI.pdb
     RDKit          3D

 23 22  0  0  1  0  0  0  0  0999 V2000
   21.1549  -15.6202  -19.8298 N   0  0  0  0  0  0  0  0  0  0  0  0
   20.3943  -14.7371  -18.9931 C   0  0  1  0  0  0  0  0  0  0  0  0
   20.1545  -15.3672  -17.6272 C   0  0  0  0  0  0  0  0  0  0  0  0
   19.1802  -16.4693  -17.7160 C   0  0  0  0  0  0  0  0  0  0  0  0
   19.1396  -17.3128  -16.7828 O   0  0  0  0  0  0  0  0  0  0  0  0
   21.0884  -13.4168  -18.8174 C   0  0  0  0  0  0  0  0  0  0  0  0
   22.3422  -13.3368  -18.8575 O   0  0  0  0  0  0  0  0  0  0  0  0
   18.3077  -16.6254  -18.7715 O   0  0  0  0  0  0  0  0  0  0  0  0
   18.9341   -9.8510  -18.0111 O   0  0  0  0  0  0  0  0  0  0  0  0
   19.9732   -9.8741  -18.9413 C   0  0  0  0  0  0  0  0  0  0  0  0
   20.9679  -10.9102  -18.5133 C   0  0  2  0  0  0  0  0  0  0  0  0
   20.3688  -12.2182  -18.6013 N   0  0  0  0  0  0  0  0  0  0  0  0
   21.5320  -10.6551  -17.1652 C   0  0  0  0  0  0  0  0  0  0  0  0
   21.0676  -11.3244  -16.2317 O   0  0  0  0  0  0  0  0  0  0  0  0
   26.5264  -11.1225  -15.7976 C   0  0  0  0  0  0  0  0  0  0  0  0
   25.0120  -10.9687  -15.9018 C   0  0  0  0  0  0  0  0  0  0  0  0
   24.6017   -9.5579  -15.5569 C   0  0  2  0  0  0  0  0  0  0  0  0
   24.9602   -9.3818  -14.0789 C   0  0  0  0  0  0  0  0  0  0  0  0
   23.1256   -9.3012  -15.7103 C   0  0  2  0  0  0  0  0  0  0  0  0
   22.5485   -9.6969  -16.9540 N   0  0  0  0  0  0  0  0  0  0  0  0
   22.7207   -7.9967  -15.2333 C   0  0  0  0  0  0  0  0  0  0  0  0
   22.2763   -7.6756  -13.9703 O   0  0  0  0  0  0  0  0  0  0  0  0
   22.7658   -7.0055  -16.0447 O   0  0  0  0  0  0  0  0  0  0  0  0
  2  1  1  6
  2  3  1  0
  3  4  1  0
  4  8  1  0
  4  5  2  0
  6 12  1  0
  6  2  1  0
  7  6  2  0
  9 10  1  0
 11 13  1  0
 11 10  1  1
 11 12  1  0
 13 20  1  0
 14 13  2  0
 16 15  1  0
 17 18  1  1
 17 16  1  0
 19 17  1  0
 19 20  1  6
 21 22  1  0
 21 19  1  0
 23 21  2  0
M  END
$$$$
