DSI.pdb
     RDKit          3D

 23 22  0  0  1  0  0  0  0  0999 V2000
   15.4274  -11.8991  -17.7530 N   0  0  0  0  0  0  0  0  0  0  0  0
   16.5147  -11.6033  -16.8650 C   0  0  1  0  0  0  0  0  0  0  0  0
   17.4903  -12.7716  -16.8045 C   0  0  0  0  0  0  0  0  0  0  0  0
   16.8615  -13.9554  -16.1921 C   0  0  0  0  0  0  0  0  0  0  0  0
   16.9503  -15.0599  -16.7888 O   0  0  0  0  0  0  0  0  0  0  0  0
   17.2481  -10.3640  -17.2918 C   0  0  0  0  0  0  0  0  0  0  0  0
   17.1965   -9.9613  -18.4814 O   0  0  0  0  0  0  0  0  0  0  0  0
   16.1787  -13.9163  -14.9955 O   0  0  0  0  0  0  0  0  0  0  0  0
   18.1435   -6.1537  -17.4452 O   0  0  0  0  0  0  0  0  0  0  0  0
   17.5621   -7.4026  -17.2261 C   0  0  0  0  0  0  0  0  0  0  0  0
   18.6123   -8.3243  -16.6843 C   0  0  2  0  0  0  0  0  0  0  0  0
   18.0210   -9.6038  -16.3830 N   0  0  0  0  0  0  0  0  0  0  0  0
   19.3327   -7.7642  -15.5148 C   0  0  0  0  0  0  0  0  0  0  0  0
   18.7449   -7.8094  -14.4251 O   0  0  0  0  0  0  0  0  0  0  0  0
   23.3531  -10.4734  -14.5211 C   0  0  0  0  0  0  0  0  0  0  0  0
   22.1851   -9.4921  -14.5486 C   0  0  0  0  0  0  0  0  0  0  0  0
   22.6924   -8.0708  -14.5559 C   0  0  2  0  0  0  0  0  0  0  0  0
   23.4420   -7.9015  -13.2317 C   0  0  0  0  0  0  0  0  0  0  0  0
   21.5985   -7.0369  -14.6057 C   0  0  2  0  0  0  0  0  0  0  0  0
   20.6250   -7.2062  -15.6353 N   0  0  0  0  0  0  0  0  0  0  0  0
   22.0835   -5.6844  -14.4361 C   0  0  0  0  0  0  0  0  0  0  0  0
   22.4179   -5.0644  -13.2530 O   0  0  0  0  0  0  0  0  0  0  0  0
   22.2314   -4.9506  -15.4765 O   0  0  0  0  0  0  0  0  0  0  0  0
  2  1  1  6
  2  3  1  0
  3  4  1  0
  4  8  1  0
  4  5  2  0
  6 12  1  0
  6  2  1  0
  7  6  2  0
  9 10  1  0
 11 13  1  0
 11 10  1  1
 11 12  1  0
 13 20  1  0
 14 13  2  0
 16 15  1  0
 17 18  1  1
 17 16  1  0
 19 17  1  0
 19 20  1  6
 21 22  1  0
 21 19  1  0
 23 21  2  0
M  END
$$$$
