DSI.pdb
     RDKit          3D

 23 22  0  0  1  0  0  0  0  0999 V2000
   20.6153  -12.2346  -19.1794 N   0  0  0  0  0  0  0  0  0  0  0  0
   21.6647  -11.4812  -18.5553 C   0  0  1  0  0  0  0  0  0  0  0  0
   22.6678  -10.9972  -19.5944 C   0  0  0  0  0  0  0  0  0  0  0  0
   23.4164  -12.1265  -20.1741 C   0  0  0  0  0  0  0  0  0  0  0  0
   24.1488  -11.9120  -21.1749 O   0  0  0  0  0  0  0  0  0  0  0  0
   21.1185  -10.3013  -17.8033 C   0  0  0  0  0  0  0  0  0  0  0  0
   20.4739   -9.4001  -18.3970 O   0  0  0  0  0  0  0  0  0  0  0  0
   23.3563  -13.4101  -19.6759 O   0  0  0  0  0  0  0  0  0  0  0  0
   20.0102   -8.4786  -13.4817 O   0  0  0  0  0  0  0  0  0  0  0  0
   20.5807   -9.5247  -14.2069 C   0  0  0  0  0  0  0  0  0  0  0  0
   20.7680   -9.0712  -15.6230 C   0  0  2  0  0  0  0  0  0  0  0  0
   21.3037  -10.1544  -16.4086 N   0  0  0  0  0  0  0  0  0  0  0  0
   21.5983   -7.8473  -15.7383 C   0  0  0  0  0  0  0  0  0  0  0  0
   22.8170   -8.0136  -15.8877 O   0  0  0  0  0  0  0  0  0  0  0  0
   20.8274   -3.8526  -19.1362 C   0  0  0  0  0  0  0  0  0  0  0  0
   21.4484   -4.8295  -18.1423 C   0  0  0  0  0  0  0  0  0  0  0  0
   21.2910   -4.3160  -16.7319 C   0  0  2  0  0  0  0  0  0  0  0  0
   22.2156   -3.0993  -16.6383 C   0  0  0  0  0  0  0  0  0  0  0  0
   21.7146   -5.3033  -15.6764 C   0  0  2  0  0  0  0  0  0  0  0  0
   21.0298   -6.5553  -15.6810 N   0  0  0  0  0  0  0  0  0  0  0  0
   21.8887   -4.7038  -14.3713 C   0  0  0  0  0  0  0  0  0  0  0  0
   23.0424   -4.1567  -13.8561 O   0  0  0  0  0  0  0  0  0  0  0  0
   20.8830   -4.6580  -13.5780 O   0  0  0  0  0  0  0  0  0  0  0  0
  2  1  1  6
  2  3  1  0
  3  4  1  0
  4  8  1  0
  4  5  2  0
  6 12  1  0
  6  2  1  0
  7  6  2  0
  9 10  1  0
 11 13  1  0
 11 10  1  1
 11 12  1  0
 13 20  1  0
 14 13  2  0
 16 15  1  0
 17 18  1  6
 17 16  1  0
 19 17  1  0
 19 20  1  1
 21 22  1  0
 21 19  1  0
 23 21  2  0
M  END
$$$$
