DSI.pdb
     RDKit          3D

 23 22  0  0  1  0  0  0  0  0999 V2000
   16.1796  -12.4602  -17.5293 N   0  0  0  0  0  0  0  0  0  0  0  0
   17.0211  -11.9551  -16.4828 C   0  0  1  0  0  0  0  0  0  0  0  0
   18.2700  -12.8149  -16.3375 C   0  0  0  0  0  0  0  0  0  0  0  0
   17.9271  -14.1749  -15.8850 C   0  0  0  0  0  0  0  0  0  0  0  0
   16.7665  -14.3884  -15.4477 O   0  0  0  0  0  0  0  0  0  0  0  0
   17.4240  -10.5319  -16.7436 C   0  0  0  0  0  0  0  0  0  0  0  0
   17.1121   -9.9597  -17.8184 O   0  0  0  0  0  0  0  0  0  0  0  0
   18.8143  -15.2293  -15.9157 O   0  0  0  0  0  0  0  0  0  0  0  0
   17.2897   -6.2863  -16.0672 O   0  0  0  0  0  0  0  0  0  0  0  0
   17.0555   -7.6579  -15.9691 C   0  0  0  0  0  0  0  0  0  0  0  0
   18.3775   -8.3576  -15.8756 C   0  0  2  0  0  0  0  0  0  0  0  0
   18.1646   -9.7812  -15.8006 N   0  0  0  0  0  0  0  0  0  0  0  0
   19.2178   -7.8692  -14.7549 C   0  0  0  0  0  0  0  0  0  0  0  0
   18.9329   -8.2853  -13.6232 O   0  0  0  0  0  0  0  0  0  0  0  0
   24.5584   -9.4648  -14.5093 C   0  0  0  0  0  0  0  0  0  0  0  0
   23.8100   -8.1921  -14.1246 C   0  0  0  0  0  0  0  0  0  0  0  0
   22.5063   -8.1002  -14.8794 C   0  0  2  0  0  0  0  0  0  0  0  0
   22.8955   -7.7553  -16.3194 C   0  0  0  0  0  0  0  0  0  0  0  0
   21.5885   -7.0181  -14.3746 C   0  0  2  0  0  0  0  0  0  0  0  0
   20.2903   -6.9740  -14.9653 N   0  0  0  0  0  0  0  0  0  0  0  0
   22.2425   -5.7353  -14.2332 C   0  0  0  0  0  0  0  0  0  0  0  0
   21.8910   -4.5523  -14.8439 O   0  0  0  0  0  0  0  0  0  0  0  0
   23.2647   -5.6491  -13.4649 O   0  0  0  0  0  0  0  0  0  0  0  0
  2  1  1  6
  2  3  1  0
  3  4  1  0
  4  8  1  0
  4  5  2  0
  6 12  1  0
  6  2  1  0
  7  6  2  0
  9 10  1  0
 11 13  1  0
 11 10  1  1
 11 12  1  0
 13 20  1  0
 14 13  2  0
 16 15  1  0
 17 18  1  6
 17 16  1  0
 19 17  1  0
 19 20  1  6
 21 22  1  0
 21 19  1  0
 23 21  2  0
M  END
$$$$
