DSI.pdb
     RDKit          3D

 23 22  0  0  1  0  0  0  0  0999 V2000
   19.1273  -14.6852  -18.4976 N   0  0  0  0  0  0  0  0  0  0  0  0
   18.5319  -14.2670  -17.2612 C   0  0  1  0  0  0  0  0  0  0  0  0
   18.3691  -15.4513  -16.3172 C   0  0  0  0  0  0  0  0  0  0  0  0
   17.4423  -16.4512  -16.8768 C   0  0  0  0  0  0  0  0  0  0  0  0
   17.0599  -16.3163  -18.0682 O   0  0  0  0  0  0  0  0  0  0  0  0
   19.3541  -13.2045  -16.5896 C   0  0  0  0  0  0  0  0  0  0  0  0
   19.0690  -12.8030  -15.4331 O   0  0  0  0  0  0  0  0  0  0  0  0
   16.9704  -17.5304  -16.1611 O   0  0  0  0  0  0  0  0  0  0  0  0
   22.2363  -11.0261  -18.7202 O   0  0  0  0  0  0  0  0  0  0  0  0
   22.5559  -11.4368  -17.4260 C   0  0  0  0  0  0  0  0  0  0  0  0
   21.2838  -11.5726  -16.6454 C   0  0  2  0  0  0  0  0  0  0  0  0
   20.4735  -12.6154  -17.2229 N   0  0  0  0  0  0  0  0  0  0  0  0
   20.5339  -10.2982  -16.5263 C   0  0  0  0  0  0  0  0  0  0  0  0
   19.6776  -10.0731  -17.3930 O   0  0  0  0  0  0  0  0  0  0  0  0
   16.6705   -7.0505  -13.9347 C   0  0  0  0  0  0  0  0  0  0  0  0
   18.0712   -6.8757  -14.5137 C   0  0  0  0  0  0  0  0  0  0  0  0
   18.7757   -8.2077  -14.5971 C   0  0  2  0  0  0  0  0  0  0  0  0
   18.9644   -8.6576  -13.1459 C   0  0  0  0  0  0  0  0  0  0  0  0
   20.1352   -8.1351  -15.2412 C   0  0  2  0  0  0  0  0  0  0  0  0
   20.7823   -9.3849  -15.4774 N   0  0  0  0  0  0  0  0  0  0  0  0
   20.9792   -7.1039  -14.6778 C   0  0  0  0  0  0  0  0  0  0  0  0
   20.8230   -5.7418  -14.8047 O   0  0  0  0  0  0  0  0  0  0  0  0
   21.9938   -7.4557  -13.9780 O   0  0  0  0  0  0  0  0  0  0  0  0
  2  1  1  6
  2  3  1  0
  3  4  1  0
  4  8  1  0
  4  5  2  0
  6 12  1  0
  6  2  1  0
  7  6  2  0
  9 10  1  0
 11 13  1  0
 11 10  1  6
 11 12  1  0
 13 20  1  0
 14 13  2  0
 16 15  1  0
 17 18  1  1
 17 16  1  0
 19 17  1  0
 19 20  1  1
 21 22  1  0
 21 19  1  0
 23 21  2  0
M  END
$$$$
