DSI.pdb
     RDKit          3D

 23 22  0  0  1  0  0  0  0  0999 V2000
   17.8349   -9.8385  -15.5971 N   0  0  0  0  0  0  0  0  0  0  0  0
   16.7879  -10.3597  -14.7661 C   0  0  1  0  0  0  0  0  0  0  0  0
   16.7295  -11.8784  -14.8670 C   0  0  0  0  0  0  0  0  0  0  0  0
   16.2643  -12.3032  -16.1993 C   0  0  0  0  0  0  0  0  0  0  0  0
   16.1878  -11.4409  -17.1128 O   0  0  0  0  0  0  0  0  0  0  0  0
   16.9805   -9.9632  -13.3302 C   0  0  0  0  0  0  0  0  0  0  0  0
   16.2363  -10.4244  -12.4283 O   0  0  0  0  0  0  0  0  0  0  0  0
   15.9074  -13.6004  -16.4987 O   0  0  0  0  0  0  0  0  0  0  0  0
   19.5585   -6.8428  -12.4031 O   0  0  0  0  0  0  0  0  0  0  0  0
   19.4922   -7.8806  -11.4735 C   0  0  0  0  0  0  0  0  0  0  0  0
   18.1537   -8.5430  -11.5993 C   0  0  2  0  0  0  0  0  0  0  0  0
   17.9973   -9.0629  -12.9345 N   0  0  0  0  0  0  0  0  0  0  0  0
   17.0264   -7.6562  -11.2206 C   0  0  0  0  0  0  0  0  0  0  0  0
   16.4320   -7.0856  -12.1460 O   0  0  0  0  0  0  0  0  0  0  0  0
   12.7136   -8.6888   -8.4285 C   0  0  0  0  0  0  0  0  0  0  0  0
   13.7500   -8.0422   -9.3426 C   0  0  0  0  0  0  0  0  0  0  0  0
   14.5699   -7.0329   -8.5767 C   0  0  2  0  0  0  0  0  0  0  0  0
   13.6178   -5.8675   -8.2952 C   0  0  0  0  0  0  0  0  0  0  0  0
   15.7459   -6.4955   -9.3491 C   0  0  2  0  0  0  0  0  0  0  0  0
   16.6477   -7.4699   -9.8724 N   0  0  0  0  0  0  0  0  0  0  0  0
   16.3733   -5.3568   -8.7144 C   0  0  0  0  0  0  0  0  0  0  0  0
   16.0427   -4.0299   -8.8754 O   0  0  0  0  0  0  0  0  0  0  0  0
   17.3473   -5.5637   -7.9073 O   0  0  0  0  0  0  0  0  0  0  0  0
  2  1  1  6
  2  3  1  0
  3  4  1  0
  4  8  1  0
  4  5  2  0
  6 12  1  0
  6  2  1  0
  7  6  2  0
  9 10  1  0
 11 13  1  0
 11 10  1  6
 11 12  1  0
 13 20  1  0
 14 13  2  0
 16 15  1  0
 17 18  1  6
 17 16  1  0
 19 17  1  0
 19 20  1  1
 21 22  1  0
 21 19  1  0
 23 21  2  0
M  END
$$$$
