DSI.pdb
     RDKit          3D

 23 22  0  0  1  0  0  0  0  0999 V2000
   28.0148  -20.2536  -17.8172 N   0  0  0  0  0  0  0  0  0  0  0  0
   27.7750  -21.1520  -16.7247 C   0  0  1  0  0  0  0  0  0  0  0  0
   29.0371  -21.9358  -16.3884 C   0  0  0  0  0  0  0  0  0  0  0  0
   29.2029  -23.0866  -17.2939 C   0  0  0  0  0  0  0  0  0  0  0  0
   28.3503  -23.2648  -18.2024 O   0  0  0  0  0  0  0  0  0  0  0  0
   27.3065  -20.4149  -15.5028 C   0  0  0  0  0  0  0  0  0  0  0  0
   28.0790  -19.6447  -14.8783 O   0  0  0  0  0  0  0  0  0  0  0  0
   30.2466  -23.9816  -17.1977 O   0  0  0  0  0  0  0  0  0  0  0  0
   24.0081  -18.3725  -14.8748 O   0  0  0  0  0  0  0  0  0  0  0  0
   24.0462  -19.5052  -14.0617 C   0  0  0  0  0  0  0  0  0  0  0  0
   25.4803  -19.8791  -13.8390 C   0  0  2  0  0  0  0  0  0  0  0  0
   25.9890  -20.5538  -15.0067 N   0  0  0  0  0  0  0  0  0  0  0  0
   25.6897  -20.6802  -12.6082 C   0  0  0  0  0  0  0  0  0  0  0  0
   25.5456  -21.9065  -12.7111 O   0  0  0  0  0  0  0  0  0  0  0  0
   27.6717  -19.9780   -6.6843 C   0  0  0  0  0  0  0  0  0  0  0  0
   26.7804  -20.7031   -7.6882 C   0  0  0  0  0  0  0  0  0  0  0  0
   26.7460  -19.9542   -8.9979 C   0  0  2  0  0  0  0  0  0  0  0  0
   26.0474  -18.6276   -8.6877 C   0  0  0  0  0  0  0  0  0  0  0  0
   25.9588  -20.6527  -10.0752 C   0  0  2  0  0  0  0  0  0  0  0  0
   26.0362  -20.0769  -11.3786 N   0  0  0  0  0  0  0  0  0  0  0  0
   24.6298  -21.0376   -9.6521 C   0  0  0  0  0  0  0  0  0  0  0  0
   24.2765  -22.1696   -8.9525 O   0  0  0  0  0  0  0  0  0  0  0  0
   23.6468  -20.2677   -9.9413 O   0  0  0  0  0  0  0  0  0  0  0  0
  2  1  1  6
  2  3  1  0
  3  4  1  0
  4  8  1  0
  4  5  2  0
  6 12  1  0
  6  2  1  0
  7  6  2  0
  9 10  1  0
 11 13  1  0
 11 10  1  6
 11 12  1  0
 13 20  1  0
 14 13  2  0
 16 15  1  0
 17 18  1  1
 17 16  1  0
 19 17  1  0
 19 20  1  6
 21 22  1  0
 21 19  1  0
 23 21  2  0
M  END
$$$$
