DSI.pdb
     RDKit          3D

 23 22  0  0  1  0  0  0  0  0999 V2000
   13.3466  -24.1984   -8.8398 N   0  0  0  0  0  0  0  0  0  0  0  0
   14.2604  -23.5410   -7.9503 C   0  0  1  0  0  0  0  0  0  0  0  0
   13.6154  -22.3050   -7.3368 C   0  0  0  0  0  0  0  0  0  0  0  0
   13.4372  -21.2449   -8.3449 C   0  0  0  0  0  0  0  0  0  0  0  0
   14.4530  -20.6197   -8.7463 O   0  0  0  0  0  0  0  0  0  0  0  0
   14.7146  -24.4616   -6.8540 C   0  0  0  0  0  0  0  0  0  0  0  0
   13.8818  -25.0412   -6.1119 O   0  0  0  0  0  0  0  0  0  0  0  0
   12.2116  -20.9008   -8.8733 O   0  0  0  0  0  0  0  0  0  0  0  0
   18.5441  -26.3670   -4.5442 O   0  0  0  0  0  0  0  0  0  0  0  0
   18.0837  -25.5791   -5.5991 C   0  0  0  0  0  0  0  0  0  0  0  0
   16.5880  -25.5188   -5.5263 C   0  0  2  0  0  0  0  0  0  0  0  0
   16.0852  -24.7139   -6.6112 N   0  0  0  0  0  0  0  0  0  0  0  0
   16.0868  -25.0440   -4.2133 C   0  0  0  0  0  0  0  0  0  0  0  0
   16.0287  -23.8171   -4.0503 O   0  0  0  0  0  0  0  0  0  0  0  0
   11.8216  -25.8290   -0.0945 C   0  0  0  0  0  0  0  0  0  0  0  0
   13.2782  -25.4174   -0.2860 C   0  0  0  0  0  0  0  0  0  0  0  0
   13.7242  -25.7038   -1.6991 C   0  0  2  0  0  0  0  0  0  0  0  0
   13.2862  -27.1441   -1.9779 C   0  0  0  0  0  0  0  0  0  0  0  0
   15.2159  -25.6266   -1.8914 C   0  0  2  0  0  0  0  0  0  0  0  0
   15.6948  -25.9443   -3.1976 N   0  0  0  0  0  0  0  0  0  0  0  0
   15.9629  -26.2187   -0.8030 C   0  0  0  0  0  0  0  0  0  0  0  0
   16.1341  -25.7048    0.4629 O   0  0  0  0  0  0  0  0  0  0  0  0
   16.5441  -27.3442   -0.9986 O   0  0  0  0  0  0  0  0  0  0  0  0
  2  1  1  6
  2  3  1  0
  3  4  1  0
  4  8  1  0
  4  5  2  0
  6 12  1  0
  6  2  1  0
  7  6  2  0
  9 10  1  0
 11 13  1  0
 11 10  1  1
 11 12  1  0
 13 20  1  0
 14 13  2  0
 16 15  1  0
 17 18  1  1
 17 16  1  0
 19 17  1  0
 19 20  1  6
 21 22  1  0
 21 19  1  0
 23 21  2  0
M  END
$$$$
