DSI.pdb
     RDKit          3D

 23 22  0  0  1  0  0  0  0  0999 V2000
   16.3525  -13.0492  -17.3066 N   0  0  0  0  0  0  0  0  0  0  0  0
   16.1268  -11.8885  -16.4941 C   0  0  1  0  0  0  0  0  0  0  0  0
   16.2076  -12.2454  -15.0155 C   0  0  0  0  0  0  0  0  0  0  0  0
   15.1307  -13.1770  -14.6358 C   0  0  0  0  0  0  0  0  0  0  0  0
   14.0764  -13.1897  -15.3231 O   0  0  0  0  0  0  0  0  0  0  0  0
   17.1208  -10.8048  -16.7997 C   0  0  0  0  0  0  0  0  0  0  0  0
   18.2370  -11.0783  -17.3089 O   0  0  0  0  0  0  0  0  0  0  0  0
   15.2178  -14.0385  -13.5635 O   0  0  0  0  0  0  0  0  0  0  0  0
   17.6140   -6.3110  -18.1538 O   0  0  0  0  0  0  0  0  0  0  0  0
   16.7926   -7.3032  -17.6186 C   0  0  0  0  0  0  0  0  0  0  0  0
   17.6623   -8.3421  -16.9779 C   0  0  2  0  0  0  0  0  0  0  0  0
   16.8471   -9.4433  -16.5305 N   0  0  0  0  0  0  0  0  0  0  0  0
   18.5044   -7.8027  -15.8822 C   0  0  0  0  0  0  0  0  0  0  0  0
   18.0152   -7.8205  -14.7440 O   0  0  0  0  0  0  0  0  0  0  0  0
   21.8178   -9.2337  -13.7905 C   0  0  0  0  0  0  0  0  0  0  0  0
   22.2584   -8.7432  -15.1664 C   0  0  0  0  0  0  0  0  0  0  0  0
   22.1308   -7.2421  -15.2553 C   0  0  2  0  0  0  0  0  0  0  0  0
   22.8945   -6.6984  -14.0449 C   0  0  0  0  0  0  0  0  0  0  0  0
   20.7107   -6.7482  -15.1685 C   0  0  2  0  0  0  0  0  0  0  0  0
   19.8000   -7.2934  -16.1224 N   0  0  0  0  0  0  0  0  0  0  0  0
   20.6150   -5.3174  -14.9766 C   0  0  0  0  0  0  0  0  0  0  0  0
   20.7735   -4.6253  -13.7969 O   0  0  0  0  0  0  0  0  0  0  0  0
   20.3550   -4.5783  -15.9910 O   0  0  0  0  0  0  0  0  0  0  0  0
  2  1  1  6
  2  3  1  0
  3  4  1  0
  4  8  1  0
  4  5  2  0
  6 12  1  0
  6  2  1  0
  7  6  2  0
  9 10  1  0
 11 13  1  0
 11 10  1  1
 11 12  1  0
 13 20  1  0
 14 13  2  0
 16 15  1  0
 17 18  1  1
 17 16  1  0
 19 17  1  0
 19 20  1  6
 21 22  1  0
 21 19  1  0
 23 21  2  0
M  END
$$$$
