TDE.pdb
     RDKit          3D

 25 24  0  0  1  0  0  0  0  0999 V2000
   15.0461   -9.0669  -16.4194 C   0  0  0  0  0  0  0  0  0  0  0  0
   14.7911  -10.1154  -15.3816 C   0  0  1  0  0  0  0  0  0  0  0  0
   13.6264  -10.8129  -15.6760 O   0  0  0  0  0  0  0  0  0  0  0  0
   15.9804  -11.0475  -15.2100 C   0  0  2  0  0  0  0  0  0  0  0  0
   15.7046  -12.0638  -14.2217 N   0  0  0  0  0  0  0  0  0  0  0  0
   17.1826  -10.2970  -14.8002 C   0  0  0  0  0  0  0  0  0  0  0  0
   17.3317   -9.8348  -13.6303 O   0  0  0  0  0  0  0  0  0  0  0  0
   18.2150  -10.0841  -15.7514 N   0  0  0  0  0  0  0  0  0  0  0  0
   19.3961   -9.2678  -15.4228 C   0  0  1  0  0  0  0  0  0  0  0  0
   20.6383  -10.0186  -15.7727 C   0  0  0  0  0  0  0  0  0  0  0  0
   21.8830   -9.2509  -15.6196 C   0  0  0  0  0  0  0  0  0  0  0  0
   22.1609   -8.2519  -16.3621 O   0  0  0  0  0  0  0  0  0  0  0  0
   19.2479   -7.9568  -16.0828 C   0  0  0  0  0  0  0  0  0  0  0  0
   18.8755   -7.9359  -17.2956 O   0  0  0  0  0  0  0  0  0  0  0  0
   22.8379   -9.5697  -14.6502 O   0  0  0  0  0  0  0  0  0  0  0  0
   19.4823   -6.7097  -15.4760 N   0  0  0  0  0  0  0  0  0  0  0  0
   19.3070   -5.4634  -16.3009 C   0  0  1  0  0  0  0  0  0  0  0  0
   17.8600   -5.1494  -16.3322 C   0  0  0  0  0  0  0  0  0  0  0  0
   17.2563   -4.7437  -15.0580 C   0  0  0  0  0  0  0  0  0  0  0  0
   15.8570   -4.3267  -15.0275 C   0  0  0  0  0  0  0  0  0  0  0  0
   15.5287   -3.1690  -14.6113 O   0  0  0  0  0  0  0  0  0  0  0  0
   20.1659   -4.4618  -15.7056 C   0  0  0  0  0  0  0  0  0  0  0  0
   20.2902   -3.2594  -16.1293 O   0  0  0  0  0  0  0  0  0  0  0  0
   14.8136   -5.1508  -15.4472 O   0  0  0  0  0  0  0  0  0  0  0  0
   20.9499   -4.7475  -14.5806 O   0  0  0  0  0  0  0  0  0  0  0  0
  2  4  1  0
  2  1  1  6
  3  2  1  0
  4  6  1  0
  4  5  1  1
  6  7  2  0
  8  9  1  0
  8  6  1  0
  9 13  1  0
  9 10  1  6
 11 15  1  0
 11 10  1  0
 12 11  2  0
 13 16  1  0
 13 14  2  0
 16 17  1  0
 17 22  1  0
 17 18  1  1
 19 18  1  0
 20 19  1  0
 21 20  2  0
 22 23  2  0
 22 25  1  0
 24 20  1  0
M  END
$$$$
