TDE.pdb
     RDKit          3D

 25 24  0  0  1  0  0  0  0  0999 V2000
   18.6626  -13.2042  -14.3043 C   0  0  0  0  0  0  0  0  0  0  0  0
   17.8104  -14.2584  -14.9398 C   0  0  1  0  0  0  0  0  0  0  0  0
   18.3544  -15.5173  -14.7182 O   0  0  0  0  0  0  0  0  0  0  0  0
   16.3645  -14.1775  -14.4759 C   0  0  2  0  0  0  0  0  0  0  0  0
   15.5712  -15.2312  -15.0642 N   0  0  0  0  0  0  0  0  0  0  0  0
   15.7691  -12.8757  -14.8330 C   0  0  0  0  0  0  0  0  0  0  0  0
   15.3917  -12.5988  -16.0101 O   0  0  0  0  0  0  0  0  0  0  0  0
   15.6102  -11.8936  -13.8201 N   0  0  0  0  0  0  0  0  0  0  0  0
   15.0633  -10.5619  -14.1303 C   0  0  1  0  0  0  0  0  0  0  0  0
   13.7089  -10.4203  -13.5180 C   0  0  0  0  0  0  0  0  0  0  0  0
   13.0436   -9.1374  -13.7897 C   0  0  0  0  0  0  0  0  0  0  0  0
   13.1689   -8.1301  -13.0177 O   0  0  0  0  0  0  0  0  0  0  0  0
   16.0509   -9.5493  -13.7110 C   0  0  0  0  0  0  0  0  0  0  0  0
   16.9093   -9.8770  -12.8359 O   0  0  0  0  0  0  0  0  0  0  0  0
   12.2329   -8.9442  -14.9116 O   0  0  0  0  0  0  0  0  0  0  0  0
   16.1284   -8.2350  -14.2060 N   0  0  0  0  0  0  0  0  0  0  0  0
   17.2492   -7.3513  -13.7295 C   0  0  1  0  0  0  0  0  0  0  0  0
   18.5211   -7.9640  -14.1772 C   0  0  0  0  0  0  0  0  0  0  0  0
   19.7429   -7.2019  -13.8961 C   0  0  0  0  0  0  0  0  0  0  0  0
   21.0211   -7.6765  -14.4194 C   0  0  0  0  0  0  0  0  0  0  0  0
   21.3160   -8.9151  -14.4003 O   0  0  0  0  0  0  0  0  0  0  0  0
   16.9632   -6.0271  -14.2394 C   0  0  0  0  0  0  0  0  0  0  0  0
   16.0795   -5.7604  -15.1276 O   0  0  0  0  0  0  0  0  0  0  0  0
   21.9781   -6.8223  -14.9655 O   0  0  0  0  0  0  0  0  0  0  0  0
   17.6577   -4.9014  -13.7786 O   0  0  0  0  0  0  0  0  0  0  0  0
  2  4  1  0
  2  1  1  1
  3  2  1  0
  4  6  1  0
  4  5  1  6
  6  7  2  0
  8  9  1  0
  8  6  1  0
  9 13  1  0
  9 10  1  1
 11 15  1  0
 11 10  1  0
 12 11  2  0
 13 16  1  0
 13 14  2  0
 16 17  1  0
 17 22  1  0
 17 18  1  6
 19 18  1  0
 20 19  1  0
 21 20  2  0
 22 23  2  0
 22 25  1  0
 24 20  1  0
M  END
$$$$
