TDE.pdb
     RDKit          3D

 25 24  0  0  1  0  0  0  0  0999 V2000
   12.9611   -9.5728  -14.2886 C   0  0  0  0  0  0  0  0  0  0  0  0
   12.7244  -10.9475  -13.7447 C   0  0  1  0  0  0  0  0  0  0  0  0
   11.3697  -11.2529  -13.7774 O   0  0  0  0  0  0  0  0  0  0  0  0
   13.5581  -11.9958  -14.4649 C   0  0  2  0  0  0  0  0  0  0  0  0
   13.3397  -13.3081  -13.9028 N   0  0  0  0  0  0  0  0  0  0  0  0
   14.9954  -11.6739  -14.3813 C   0  0  0  0  0  0  0  0  0  0  0  0
   15.6827  -11.8894  -13.3393 O   0  0  0  0  0  0  0  0  0  0  0  0
   15.6365  -11.1017  -15.5116 N   0  0  0  0  0  0  0  0  0  0  0  0
   17.0494  -10.6893  -15.4574 C   0  0  1  0  0  0  0  0  0  0  0  0
   17.8700  -11.5952  -16.3147 C   0  0  0  0  0  0  0  0  0  0  0  0
   19.3042  -11.2729  -16.3513 C   0  0  0  0  0  0  0  0  0  0  0  0
   19.9008  -10.7166  -15.3710 O   0  0  0  0  0  0  0  0  0  0  0  0
   17.1248   -9.2575  -15.8048 C   0  0  0  0  0  0  0  0  0  0  0  0
   16.3763   -8.8270  -16.7346 O   0  0  0  0  0  0  0  0  0  0  0  0
   20.1011  -11.5568  -17.4637 O   0  0  0  0  0  0  0  0  0  0  0  0
   17.9623   -8.3131  -15.1843 N   0  0  0  0  0  0  0  0  0  0  0  0
   17.8993   -6.8821  -15.6454 C   0  0  1  0  0  0  0  0  0  0  0  0
   16.8901   -6.1892  -14.8119 C   0  0  0  0  0  0  0  0  0  0  0  0
   16.8049   -4.7333  -14.9720 C   0  0  0  0  0  0  0  0  0  0  0  0
   15.8482   -3.9776  -14.1680 C   0  0  0  0  0  0  0  0  0  0  0  0
   15.1338   -4.5560  -13.2869 O   0  0  0  0  0  0  0  0  0  0  0  0
   19.2521   -6.3732  -15.5666 C   0  0  0  0  0  0  0  0  0  0  0  0
   20.1984   -6.9127  -14.8926 O   0  0  0  0  0  0  0  0  0  0  0  0
   15.6628   -2.6029  -14.3081 O   0  0  0  0  0  0  0  0  0  0  0  0
   19.6363   -5.2119  -16.2490 O   0  0  0  0  0  0  0  0  0  0  0  0
  2  4  1  0
  2  1  1  6
  3  2  1  0
  4  6  1  0
  4  5  1  1
  6  7  2  0
  8  9  1  0
  8  6  1  0
  9 13  1  0
  9 10  1  6
 11 15  1  0
 11 10  1  0
 12 11  2  0
 13 16  1  0
 13 14  2  0
 16 17  1  0
 17 22  1  0
 17 18  1  1
 19 18  1  0
 20 19  1  0
 21 20  2  0
 22 23  2  0
 22 25  1  0
 24 20  1  0
M  END
$$$$
