TDE.pdb
     RDKit          3D

 25 24  0  0  1  0  0  0  0  0999 V2000
   20.8903  -10.3045  -18.1150 C   0  0  0  0  0  0  0  0  0  0  0  0
   19.5007  -10.8584  -18.0528 C   0  0  1  0  0  0  0  0  0  0  0  0
   19.4104  -12.0213  -18.8071 O   0  0  0  0  0  0  0  0  0  0  0  0
   19.0383  -11.0759  -16.6205 C   0  0  2  0  0  0  0  0  0  0  0  0
   17.7384  -11.7041  -16.5849 N   0  0  0  0  0  0  0  0  0  0  0  0
   18.9704   -9.7965  -15.8892 C   0  0  0  0  0  0  0  0  0  0  0  0
   18.1739   -8.8668  -16.2146 O   0  0  0  0  0  0  0  0  0  0  0  0
   19.8287   -9.5969  -14.7759 N   0  0  0  0  0  0  0  0  0  0  0  0
   19.8266   -8.3261  -14.0314 C   0  0  1  0  0  0  0  0  0  0  0  0
   19.7309   -8.6022  -12.5672 C   0  0  0  0  0  0  0  0  0  0  0  0
   18.3633   -8.8160  -12.0711 C   0  0  0  0  0  0  0  0  0  0  0  0
   17.3372   -8.4130  -12.7123 O   0  0  0  0  0  0  0  0  0  0  0  0
   21.0081   -7.5467  -14.4475 C   0  0  0  0  0  0  0  0  0  0  0  0
   22.1249   -8.1448  -14.5187 O   0  0  0  0  0  0  0  0  0  0  0  0
   18.1049   -9.4743  -10.8657 O   0  0  0  0  0  0  0  0  0  0  0  0
   21.0046   -6.1803  -14.7811 N   0  0  0  0  0  0  0  0  0  0  0  0
   22.2897   -5.5492  -15.2442 C   0  0  1  0  0  0  0  0  0  0  0  0
   22.3855   -5.7554  -16.7076 C   0  0  0  0  0  0  0  0  0  0  0  0
   21.3320   -5.1373  -17.5205 C   0  0  0  0  0  0  0  0  0  0  0  0
   21.4347   -5.1740  -18.9768 C   0  0  0  0  0  0  0  0  0  0  0  0
   22.5680   -5.1124  -19.5541 O   0  0  0  0  0  0  0  0  0  0  0  0
   22.2488   -4.1742  -14.7936 C   0  0  0  0  0  0  0  0  0  0  0  0
   23.2144   -3.3395  -14.9031 O   0  0  0  0  0  0  0  0  0  0  0  0
   20.3222   -5.2808  -19.8104 O   0  0  0  0  0  0  0  0  0  0  0  0
   21.1066   -3.6390  -14.1847 O   0  0  0  0  0  0  0  0  0  0  0  0
  2  4  1  0
  2  1  1  1
  3  2  1  0
  4  6  1  0
  4  5  1  6
  6  7  2  0
  8  9  1  0
  8  6  1  0
  9 13  1  0
  9 10  1  1
 11 15  1  0
 11 10  1  0
 12 11  2  0
 13 16  1  0
 13 14  2  0
 16 17  1  0
 17 22  1  0
 17 18  1  6
 19 18  1  0
 20 19  1  0
 21 20  2  0
 22 23  2  0
 22 25  1  0
 24 20  1  0
M  END
$$$$
