TDE.pdb
     RDKit          3D

 25 24  0  0  1  0  0  0  0  0999 V2000
   17.0632   -7.6762  -17.6647 C   0  0  0  0  0  0  0  0  0  0  0  0
   16.3409   -8.7375  -16.8943 C   0  0  1  0  0  0  0  0  0  0  0  0
   15.1307   -9.0389  -17.5061 O   0  0  0  0  0  0  0  0  0  0  0  0
   17.1976   -9.9778  -16.6938 C   0  0  2  0  0  0  0  0  0  0  0  0
   16.4602  -11.0120  -16.0064 N   0  0  0  0  0  0  0  0  0  0  0  0
   18.4107   -9.6598  -15.9167 C   0  0  0  0  0  0  0  0  0  0  0  0
   18.4026   -9.5505  -14.6547 O   0  0  0  0  0  0  0  0  0  0  0  0
   19.6367   -9.4697  -16.6071 N   0  0  0  0  0  0  0  0  0  0  0  0
   20.8756   -9.1411  -15.8816 C   0  0  1  0  0  0  0  0  0  0  0  0
   21.9927   -9.9955  -16.3830 C   0  0  0  0  0  0  0  0  0  0  0  0
   23.3068   -9.6942  -15.7963 C   0  0  0  0  0  0  0  0  0  0  0  0
   23.9767   -8.6599  -16.1250 O   0  0  0  0  0  0  0  0  0  0  0  0
   21.1003   -7.6870  -15.9892 C   0  0  0  0  0  0  0  0  0  0  0  0
   21.0242   -7.1530  -17.1377 O   0  0  0  0  0  0  0  0  0  0  0  0
   23.9020  -10.5237  -14.8420 O   0  0  0  0  0  0  0  0  0  0  0  0
   21.3916   -6.8274  -14.9147 N   0  0  0  0  0  0  0  0  0  0  0  0
   21.5561   -5.3577  -15.1927 C   0  0  1  0  0  0  0  0  0  0  0  0
   20.2234   -4.8199  -15.5508 C   0  0  0  0  0  0  0  0  0  0  0  0
   19.2314   -4.7718  -14.4709 C   0  0  0  0  0  0  0  0  0  0  0  0
   17.8948   -4.2521  -14.7470 C   0  0  0  0  0  0  0  0  0  0  0  0
   17.7180   -3.0259  -15.0416 O   0  0  0  0  0  0  0  0  0  0  0  0
   22.1784   -4.7918  -14.0146 C   0  0  0  0  0  0  0  0  0  0  0  0
   22.4369   -5.4405  -12.9407 O   0  0  0  0  0  0  0  0  0  0  0  0
   16.7516   -5.0493  -14.7105 O   0  0  0  0  0  0  0  0  0  0  0  0
   22.5575   -3.4443  -13.9650 O   0  0  0  0  0  0  0  0  0  0  0  0
  2  4  1  0
  2  1  1  6
  3  2  1  0
  4  6  1  0
  4  5  1  1
  6  7  2  0
  8  9  1  0
  8  6  1  0
  9 13  1  0
  9 10  1  6
 11 15  1  0
 11 10  1  0
 12 11  2  0
 13 16  1  0
 13 14  2  0
 16 17  1  0
 17 22  1  0
 17 18  1  1
 19 18  1  0
 20 19  1  0
 21 20  2  0
 22 23  2  0
 22 25  1  0
 24 20  1  0
M  END
$$$$
