TDE.pdb
     RDKit          3D

 25 24  0  0  1  0  0  0  0  0999 V2000
   17.4886  -10.9545  -13.1785 C   0  0  0  0  0  0  0  0  0  0  0  0
   16.2763  -11.8051  -12.9587 C   0  0  1  0  0  0  0  0  0  0  0  0
   16.5540  -13.1305  -13.2681 O   0  0  0  0  0  0  0  0  0  0  0  0
   15.7250  -11.6569  -11.5492 C   0  0  2  0  0  0  0  0  0  0  0  0
   14.6103  -12.5490  -11.3318 N   0  0  0  0  0  0  0  0  0  0  0  0
   15.2835  -10.2715  -11.2995 C   0  0  0  0  0  0  0  0  0  0  0  0
   14.2553   -9.7746  -11.8476 O   0  0  0  0  0  0  0  0  0  0  0  0
   16.0374   -9.4617  -10.4097 N   0  0  0  0  0  0  0  0  0  0  0  0
   15.6967   -8.0449  -10.1962 C   0  0  1  0  0  0  0  0  0  0  0  0
   15.9204   -7.6850   -8.7645 C   0  0  0  0  0  0  0  0  0  0  0  0
   15.5953   -6.2921   -8.4238 C   0  0  0  0  0  0  0  0  0  0  0  0
   15.0929   -5.4843   -9.2732 O   0  0  0  0  0  0  0  0  0  0  0  0
   16.4528   -7.2372  -11.1721 C   0  0  0  0  0  0  0  0  0  0  0  0
   17.7108   -7.3925  -11.2308 O   0  0  0  0  0  0  0  0  0  0  0  0
   15.8175   -5.7685   -7.1472 O   0  0  0  0  0  0  0  0  0  0  0  0
   15.8934   -6.2997  -12.0590 N   0  0  0  0  0  0  0  0  0  0  0  0
   16.8012   -5.6014  -13.0350 C   0  0  1  0  0  0  0  0  0  0  0  0
   16.2396   -5.8050  -14.3902 C   0  0  0  0  0  0  0  0  0  0  0  0
   16.8926   -5.0715  -15.4803 C   0  0  0  0  0  0  0  0  0  0  0  0
   16.3770   -5.1989  -16.8407 C   0  0  0  0  0  0  0  0  0  0  0  0
   17.1379   -5.5554  -17.7975 O   0  0  0  0  0  0  0  0  0  0  0  0
   16.8998   -4.2297  -12.5833 C   0  0  0  0  0  0  0  0  0  0  0  0
   15.9966   -3.6121  -11.9173 O   0  0  0  0  0  0  0  0  0  0  0  0
   15.0460   -4.9476  -17.1711 O   0  0  0  0  0  0  0  0  0  0  0  0
   18.0337   -3.4524  -12.8516 O   0  0  0  0  0  0  0  0  0  0  0  0
  2  4  1  0
  2  1  1  1
  3  2  1  0
  4  6  1  0
  4  5  1  6
  6  7  2  0
  8  9  1  0
  8  6  1  0
  9 13  1  0
  9 10  1  1
 11 15  1  0
 11 10  1  0
 12 11  2  0
 13 16  1  0
 13 14  2  0
 16 17  1  0
 17 22  1  0
 17 18  1  6
 19 18  1  0
 20 19  1  0
 21 20  2  0
 22 23  2  0
 22 25  1  0
 24 20  1  0
M  END
$$$$
