TDE.pdb
     RDKit          3D

 25 24  0  0  1  0  0  0  0  0999 V2000
   14.1934  -14.5048  -16.2880 C   0  0  0  0  0  0  0  0  0  0  0  0
   15.6465  -14.2176  -16.5061 C   0  0  1  0  0  0  0  0  0  0  0  0
   15.8421  -13.6378  -17.7531 O   0  0  0  0  0  0  0  0  0  0  0  0
   16.2326  -13.3682  -15.3891 C   0  0  2  0  0  0  0  0  0  0  0  0
   15.5298  -12.1122  -15.2693 N   0  0  0  0  0  0  0  0  0  0  0  0
   17.6619  -13.0942  -15.6308 C   0  0  0  0  0  0  0  0  0  0  0  0
   18.5324  -14.0128  -15.6846 O   0  0  0  0  0  0  0  0  0  0  0  0
   18.0810  -11.7498  -15.8120 N   0  0  0  0  0  0  0  0  0  0  0  0
   19.4527  -11.4319  -16.2441 C   0  0  1  0  0  0  0  0  0  0  0  0
   19.7554  -12.1461  -17.5198 C   0  0  0  0  0  0  0  0  0  0  0  0
   21.0862  -11.8661  -18.0790 C   0  0  0  0  0  0  0  0  0  0  0  0
   22.1601  -12.1904  -17.4723 O   0  0  0  0  0  0  0  0  0  0  0  0
   19.5898   -9.9640  -16.2985 C   0  0  0  0  0  0  0  0  0  0  0  0
   18.7104   -9.3037  -16.9316 O   0  0  0  0  0  0  0  0  0  0  0  0
   21.2550  -11.2272  -19.3104 O   0  0  0  0  0  0  0  0  0  0  0  0
   20.6221   -9.2209  -15.6981 N   0  0  0  0  0  0  0  0  0  0  0  0
   20.4543   -7.7312  -15.5669 C   0  0  1  0  0  0  0  0  0  0  0  0
   21.3556   -7.2748  -14.4840 C   0  0  0  0  0  0  0  0  0  0  0  0
   21.3028   -5.8459  -14.1548 C   0  0  0  0  0  0  0  0  0  0  0  0
   22.1789   -5.3168  -13.1130 C   0  0  0  0  0  0  0  0  0  0  0  0
   22.8479   -6.0979  -12.3623 O   0  0  0  0  0  0  0  0  0  0  0  0
   20.7046   -7.1801  -16.8818 C   0  0  0  0  0  0  0  0  0  0  0  0
   21.4754   -7.7045  -17.7603 O   0  0  0  0  0  0  0  0  0  0  0  0
   22.3384   -3.9512  -12.8814 O   0  0  0  0  0  0  0  0  0  0  0  0
   20.0969   -5.9903  -17.3026 O   0  0  0  0  0  0  0  0  0  0  0  0
  2  4  1  0
  2  1  1  1
  3  2  1  0
  4  6  1  0
  4  5  1  6
  6  7  2  0
  8  9  1  0
  8  6  1  0
  9 13  1  0
  9 10  1  6
 11 15  1  0
 11 10  1  0
 12 11  2  0
 13 16  1  0
 13 14  2  0
 16 17  1  0
 17 22  1  0
 17 18  1  1
 19 18  1  0
 20 19  1  0
 21 20  2  0
 22 23  2  0
 22 25  1  0
 24 20  1  0
M  END
$$$$
