TDE.pdb
     RDKit          3D

 25 24  0  0  1  0  0  0  0  0999 V2000
   19.8967  -12.9072  -15.1651 C   0  0  0  0  0  0  0  0  0  0  0  0
   19.3906  -11.4996  -15.2288 C   0  0  1  0  0  0  0  0  0  0  0  0
   20.4427  -10.6019  -15.0992 O   0  0  0  0  0  0  0  0  0  0  0  0
   18.5801  -11.2428  -16.4897 C   0  0  2  0  0  0  0  0  0  0  0  0
   19.3896  -11.4223  -17.6722 N   0  0  0  0  0  0  0  0  0  0  0  0
   18.0290   -9.8743  -16.4917 C   0  0  0  0  0  0  0  0  0  0  0  0
   18.4512   -8.9706  -17.2726 O   0  0  0  0  0  0  0  0  0  0  0  0
   16.9838   -9.5549  -15.5854 N   0  0  0  0  0  0  0  0  0  0  0  0
   16.2777   -8.2647  -15.6621 C   0  0  1  0  0  0  0  0  0  0  0  0
   14.8871   -8.4218  -15.1416 C   0  0  0  0  0  0  0  0  0  0  0  0
   14.0044   -9.2401  -15.9861 C   0  0  0  0  0  0  0  0  0  0  0  0
   13.4736  -10.3212  -15.5667 O   0  0  0  0  0  0  0  0  0  0  0  0
   17.0959   -7.2501  -14.9711 C   0  0  0  0  0  0  0  0  0  0  0  0
   17.7247   -7.5988  -13.9256 O   0  0  0  0  0  0  0  0  0  0  0  0
   13.6934   -8.8824  -17.3008 O   0  0  0  0  0  0  0  0  0  0  0  0
   17.2459   -5.9119  -15.3775 N   0  0  0  0  0  0  0  0  0  0  0  0
   18.2051   -5.0331  -14.6212 C   0  0  1  0  0  0  0  0  0  0  0  0
   19.5500   -5.6436  -14.7306 C   0  0  0  0  0  0  0  0  0  0  0  0
   20.6605   -4.8741  -14.1584 C   0  0  0  0  0  0  0  0  0  0  0  0
   22.0259   -5.3736  -14.2966 C   0  0  0  0  0  0  0  0  0  0  0  0
   23.0073   -4.7442  -13.7847 O   0  0  0  0  0  0  0  0  0  0  0  0
   18.0588   -3.7047  -15.1771 C   0  0  0  0  0  0  0  0  0  0  0  0
   18.2648   -2.6159  -14.5344 O   0  0  0  0  0  0  0  0  0  0  0  0
   22.3351   -6.5488  -14.9800 O   0  0  0  0  0  0  0  0  0  0  0  0
   17.6688   -3.5090  -16.5081 O   0  0  0  0  0  0  0  0  0  0  0  0
  2  4  1  0
  2  1  1  6
  3  2  1  0
  4  6  1  0
  4  5  1  6
  6  7  2  0
  8  9  1  0
  8  6  1  0
  9 13  1  0
  9 10  1  1
 11 15  1  0
 11 10  1  0
 12 11  2  0
 13 16  1  0
 13 14  2  0
 16 17  1  0
 17 22  1  0
 17 18  1  6
 19 18  1  0
 20 19  1  0
 21 20  2  0
 22 23  2  0
 22 25  1  0
 24 20  1  0
M  END
$$$$
