TDE.pdb
     RDKit          3D

 25 24  0  0  1  0  0  0  0  0999 V2000
   15.1280   -7.7498  -13.6551 C   0  0  0  0  0  0  0  0  0  0  0  0
   15.1307   -8.3566  -12.2864 C   0  0  1  0  0  0  0  0  0  0  0  0
   13.8339   -8.4508  -11.7975 O   0  0  0  0  0  0  0  0  0  0  0  0
   15.8437   -9.6995  -12.2606 C   0  0  2  0  0  0  0  0  0  0  0  0
   15.8539  -10.2560  -10.9279 N   0  0  0  0  0  0  0  0  0  0  0  0
   17.2351   -9.5660  -12.7327 C   0  0  0  0  0  0  0  0  0  0  0  0
   18.2001   -9.3217  -11.9494 O   0  0  0  0  0  0  0  0  0  0  0  0
   17.5064   -9.7181  -14.1180 N   0  0  0  0  0  0  0  0  0  0  0  0
   18.8894   -9.7570  -14.6228 C   0  0  1  0  0  0  0  0  0  0  0  0
   19.0229  -10.8434  -15.6383 C   0  0  0  0  0  0  0  0  0  0  0  0
   20.3695  -10.9857  -16.2115 C   0  0  0  0  0  0  0  0  0  0  0  0
   21.4252  -10.8013  -15.5201 O   0  0  0  0  0  0  0  0  0  0  0  0
   19.2442   -8.4062  -15.0982 C   0  0  0  0  0  0  0  0  0  0  0  0
   18.3874   -7.7684  -15.7831 O   0  0  0  0  0  0  0  0  0  0  0  0
   20.5742  -11.3319  -17.5499 O   0  0  0  0  0  0  0  0  0  0  0  0
   20.4648   -7.7519  -14.8519 N   0  0  0  0  0  0  0  0  0  0  0  0
   20.6540   -6.3572  -15.3840 C   0  0  1  0  0  0  0  0  0  0  0  0
   21.2415   -5.5411  -14.2967 C   0  0  0  0  0  0  0  0  0  0  0  0
   21.5542   -4.1465  -14.6283 C   0  0  0  0  0  0  0  0  0  0  0  0
   22.2340   -3.3097  -13.6432 C   0  0  0  0  0  0  0  0  0  0  0  0
   22.4972   -2.0891  -13.8924 O   0  0  0  0  0  0  0  0  0  0  0  0
   21.4498   -6.4888  -16.5860 C   0  0  0  0  0  0  0  0  0  0  0  0
   22.3081   -7.4160  -16.7971 O   0  0  0  0  0  0  0  0  0  0  0  0
   22.6263   -3.7829  -12.3918 O   0  0  0  0  0  0  0  0  0  0  0  0
   21.3315   -5.5780  -17.6435 O   0  0  0  0  0  0  0  0  0  0  0  0
  2  4  1  0
  2  1  1  6
  3  2  1  0
  4  6  1  0
  4  5  1  1
  6  7  2  0
  8  9  1  0
  8  6  1  0
  9 13  1  0
  9 10  1  6
 11 15  1  0
 11 10  1  0
 12 11  2  0
 13 16  1  0
 13 14  2  0
 16 17  1  0
 17 22  1  0
 17 18  1  1
 19 18  1  0
 20 19  1  0
 21 20  2  0
 22 23  2  0
 22 25  1  0
 24 20  1  0
M  END
$$$$
