TDE.pdb
     RDKit          3D

 25 24  0  0  1  0  0  0  0  0999 V2000
   12.0133   -7.4541  -10.8589 C   0  0  0  0  0  0  0  0  0  0  0  0
   11.7296   -8.4181   -9.7490 C   0  0  1  0  0  0  0  0  0  0  0  0
   10.4058   -8.3098   -9.3422 O   0  0  0  0  0  0  0  0  0  0  0  0
   12.0894   -9.8458  -10.1294 C   0  0  2  0  0  0  0  0  0  0  0  0
   11.8215  -10.7559   -9.0405 N   0  0  0  0  0  0  0  0  0  0  0  0
   13.5141   -9.9492  -10.4984 C   0  0  0  0  0  0  0  0  0  0  0  0
   14.4399   -9.9982   -9.6352 O   0  0  0  0  0  0  0  0  0  0  0  0
   13.8643   -9.9973  -11.8735 N   0  0  0  0  0  0  0  0  0  0  0  0
   15.2734  -10.0498  -12.2987 C   0  0  1  0  0  0  0  0  0  0  0  0
   15.4267  -11.0374  -13.4079 C   0  0  0  0  0  0  0  0  0  0  0  0
   16.7774  -11.1079  -13.9846 C   0  0  0  0  0  0  0  0  0  0  0  0
   17.8280  -11.0148  -13.2676 O   0  0  0  0  0  0  0  0  0  0  0  0
   15.7102   -8.6768  -12.6157 C   0  0  0  0  0  0  0  0  0  0  0  0
   14.9637   -7.9674  -13.3571 O   0  0  0  0  0  0  0  0  0  0  0  0
   16.9920  -11.2814  -15.3546 O   0  0  0  0  0  0  0  0  0  0  0  0
   16.8962   -8.0747  -12.1583 N   0  0  0  0  0  0  0  0  0  0  0  0
   17.1765   -6.6487  -12.5486 C   0  0  1  0  0  0  0  0  0  0  0  0
   16.9224   -5.8030  -11.3597 C   0  0  0  0  0  0  0  0  0  0  0  0
   17.3029   -4.3907  -11.4745 C   0  0  0  0  0  0  0  0  0  0  0  0
   17.2402   -3.5323  -10.2946 C   0  0  0  0  0  0  0  0  0  0  0  0
   17.4865   -2.2859  -10.3789 O   0  0  0  0  0  0  0  0  0  0  0  0
   18.5272   -6.6312  -13.0687 C   0  0  0  0  0  0  0  0  0  0  0  0
   19.4280   -7.4997  -12.7946 O   0  0  0  0  0  0  0  0  0  0  0  0
   16.9096   -4.0120   -9.0279 O   0  0  0  0  0  0  0  0  0  0  0  0
   18.9600   -5.6260  -13.9429 O   0  0  0  0  0  0  0  0  0  0  0  0
  2  4  1  0
  2  1  1  6
  3  2  1  0
  4  6  1  0
  4  5  1  1
  6  7  2  0
  8  9  1  0
  8  6  1  0
  9 13  1  0
  9 10  1  6
 11 15  1  0
 11 10  1  0
 12 11  2  0
 13 16  1  0
 13 14  2  0
 16 17  1  0
 17 22  1  0
 17 18  1  1
 19 18  1  0
 20 19  1  0
 21 20  2  0
 22 23  2  0
 22 25  1  0
 24 20  1  0
M  END
$$$$
