TDE.pdb
     RDKit          3D

 25 24  0  0  1  0  0  0  0  0999 V2000
   26.6899  -13.0483  -15.6425 C   0  0  0  0  0  0  0  0  0  0  0  0
   25.6022  -12.0977  -16.0358 C   0  0  1  0  0  0  0  0  0  0  0  0
   26.0725  -11.1876  -16.9740 O   0  0  0  0  0  0  0  0  0  0  0  0
   24.3604  -12.8254  -16.5268 C   0  0  2  0  0  0  0  0  0  0  0  0
   24.6205  -13.5155  -17.7685 N   0  0  0  0  0  0  0  0  0  0  0  0
   23.2436  -11.8831  -16.7293 C   0  0  0  0  0  0  0  0  0  0  0  0
   22.9382  -11.4229  -17.8693 O   0  0  0  0  0  0  0  0  0  0  0  0
   22.4783  -11.4753  -15.6050 N   0  0  0  0  0  0  0  0  0  0  0  0
   21.3989  -10.4823  -15.7387 C   0  0  1  0  0  0  0  0  0  0  0  0
   20.1587  -10.9981  -15.0867 C   0  0  0  0  0  0  0  0  0  0  0  0
   19.0292  -10.0566  -15.0851 C   0  0  0  0  0  0  0  0  0  0  0  0
   18.7744   -9.2992  -16.0790 O   0  0  0  0  0  0  0  0  0  0  0  0
   21.8921   -9.1930  -15.2182 C   0  0  0  0  0  0  0  0  0  0  0  0
   22.7416   -9.2136  -14.2759 O   0  0  0  0  0  0  0  0  0  0  0  0
   18.1655   -9.9347  -13.9931 O   0  0  0  0  0  0  0  0  0  0  0  0
   21.5012   -7.9248  -15.6843 N   0  0  0  0  0  0  0  0  0  0  0  0
   22.1606   -6.7069  -15.0958 C   0  0  1  0  0  0  0  0  0  0  0  0
   22.6819   -5.8954  -16.2197 C   0  0  0  0  0  0  0  0  0  0  0  0
   23.3598   -4.6454  -15.8579 C   0  0  0  0  0  0  0  0  0  0  0  0
   23.8817   -3.7808  -16.9128 C   0  0  0  0  0  0  0  0  0  0  0  0
   23.5543   -2.5517  -16.9726 O   0  0  0  0  0  0  0  0  0  0  0  0
   21.1640   -6.0738  -14.2584 C   0  0  0  0  0  0  0  0  0  0  0  0
   19.9012   -6.1089  -14.4704 O   0  0  0  0  0  0  0  0  0  0  0  0
   24.7565   -4.2353  -17.8987 O   0  0  0  0  0  0  0  0  0  0  0  0
   21.5241   -5.3525  -13.1130 O   0  0  0  0  0  0  0  0  0  0  0  0
  2  4  1  0
  2  1  1  6
  3  2  1  0
  4  6  1  0
  4  5  1  6
  6  7  2  0
  8  9  1  0
  8  6  1  0
  9 13  1  0
  9 10  1  1
 11 15  1  0
 11 10  1  0
 12 11  2  0
 13 16  1  0
 13 14  2  0
 16 17  1  0
 17 22  1  0
 17 18  1  6
 19 18  1  0
 20 19  1  0
 21 20  2  0
 22 23  2  0
 22 25  1  0
 24 20  1  0
M  END
$$$$
