TDE.pdb
     RDKit          3D

 25 24  0  0  1  0  0  0  0  0999 V2000
   14.4262   -8.9381  -15.8180 C   0  0  0  0  0  0  0  0  0  0  0  0
   14.5142  -10.2904  -15.1814 C   0  0  1  0  0  0  0  0  0  0  0  0
   13.4421  -11.0805  -15.5763 O   0  0  0  0  0  0  0  0  0  0  0  0
   15.8477  -10.9655  -15.4615 C   0  0  2  0  0  0  0  0  0  0  0  0
   15.9229  -12.2542  -14.8138 N   0  0  0  0  0  0  0  0  0  0  0  0
   16.9696  -10.1298  -14.9932 C   0  0  0  0  0  0  0  0  0  0  0  0
   17.7009  -10.4579  -14.0123 O   0  0  0  0  0  0  0  0  0  0  0  0
   17.2438   -8.9104  -15.6669 N   0  0  0  0  0  0  0  0  0  0  0  0
   18.4249   -8.1002  -15.3236 C   0  0  1  0  0  0  0  0  0  0  0  0
   19.6482   -8.9554  -15.3598 C   0  0  0  0  0  0  0  0  0  0  0  0
   20.8997   -8.2501  -15.0462 C   0  0  0  0  0  0  0  0  0  0  0  0
   20.9322   -6.9978  -14.8070 O   0  0  0  0  0  0  0  0  0  0  0  0
   18.4531   -6.9260  -16.2163 C   0  0  0  0  0  0  0  0  0  0  0  0
   18.4474   -7.1264  -17.4692 O   0  0  0  0  0  0  0  0  0  0  0  0
   22.1304   -8.9099  -14.9913 O   0  0  0  0  0  0  0  0  0  0  0  0
   18.4817   -5.5844  -15.7946 N   0  0  0  0  0  0  0  0  0  0  0  0
   18.4162   -4.5008  -16.8367 C   0  0  1  0  0  0  0  0  0  0  0  0
   17.1511   -3.7591  -16.6295 C   0  0  0  0  0  0  0  0  0  0  0  0
   17.0676   -2.9460  -15.4111 C   0  0  0  0  0  0  0  0  0  0  0  0
   15.8473   -2.1935  -15.1328 C   0  0  0  0  0  0  0  0  0  0  0  0
   14.8891   -2.1685  -15.9710 O   0  0  0  0  0  0  0  0  0  0  0  0
   19.6365   -3.7346  -16.6988 C   0  0  0  0  0  0  0  0  0  0  0  0
   20.5442   -3.9560  -15.8224 O   0  0  0  0  0  0  0  0  0  0  0  0
   15.6559   -1.4730  -13.9546 O   0  0  0  0  0  0  0  0  0  0  0  0
   19.9222   -2.6574  -17.5473 O   0  0  0  0  0  0  0  0  0  0  0  0
  2  4  1  0
  2  1  1  6
  3  2  1  0
  4  6  1  0
  4  5  1  1
  6  7  2  0
  8  9  1  0
  8  6  1  0
  9 13  1  0
  9 10  1  6
 11 15  1  0
 11 10  1  0
 12 11  2  0
 13 16  1  0
 13 14  2  0
 16 17  1  0
 17 22  1  0
 17 18  1  1
 19 18  1  0
 20 19  1  0
 21 20  2  0
 22 23  2  0
 22 25  1  0
 24 20  1  0
M  END
$$$$
