TDE.pdb
     RDKit          3D

 25 24  0  0  1  0  0  0  0  0999 V2000
   17.1297   -8.8561  -18.3322 C   0  0  0  0  0  0  0  0  0  0  0  0
   16.8801  -10.0505  -17.4647 C   0  0  1  0  0  0  0  0  0  0  0  0
   15.6711  -10.6467  -17.8003 O   0  0  0  0  0  0  0  0  0  0  0  0
   18.0326  -11.0414  -17.5151 C   0  0  2  0  0  0  0  0  0  0  0  0
   17.7422  -12.2154  -16.7258 N   0  0  0  0  0  0  0  0  0  0  0  0
   19.2775  -10.4268  -17.0163 C   0  0  0  0  0  0  0  0  0  0  0  0
   19.5126  -10.2689  -15.7816 O   0  0  0  0  0  0  0  0  0  0  0  0
   20.2527   -9.9957  -17.9539 N   0  0  0  0  0  0  0  0  0  0  0  0
   21.5164   -9.3831  -17.5104 C   0  0  1  0  0  0  0  0  0  0  0  0
   22.5743   -9.6140  -18.5384 C   0  0  0  0  0  0  0  0  0  0  0  0
   23.8793   -9.0153  -18.2214 C   0  0  0  0  0  0  0  0  0  0  0  0
   24.0588   -7.7530  -18.1925 O   0  0  0  0  0  0  0  0  0  0  0  0
   21.2535   -7.9679  -17.1870 C   0  0  0  0  0  0  0  0  0  0  0  0
   20.5635   -7.2854  -18.0043 O   0  0  0  0  0  0  0  0  0  0  0  0
   25.0032   -9.7940  -17.9322 O   0  0  0  0  0  0  0  0  0  0  0  0
   21.7033   -7.3001  -16.0336 N   0  0  0  0  0  0  0  0  0  0  0  0
   21.2810   -5.8720  -15.8179 C   0  0  1  0  0  0  0  0  0  0  0  0
   19.8010   -5.8471  -15.7710 C   0  0  0  0  0  0  0  0  0  0  0  0
   19.1859   -4.5788  -15.3636 C   0  0  0  0  0  0  0  0  0  0  0  0
   17.7304   -4.4599  -15.3472 C   0  0  0  0  0  0  0  0  0  0  0  0
   17.1148   -4.1109  -14.2885 O   0  0  0  0  0  0  0  0  0  0  0  0
   21.9662   -5.4250  -14.6237 C   0  0  0  0  0  0  0  0  0  0  0  0
   22.7065   -6.1647  -13.8850 O   0  0  0  0  0  0  0  0  0  0  0  0
   16.9389   -4.7114  -16.4671 O   0  0  0  0  0  0  0  0  0  0  0  0
   21.8653   -4.1016  -14.1761 O   0  0  0  0  0  0  0  0  0  0  0  0
  2  4  1  0
  2  1  1  6
  3  2  1  0
  4  6  1  0
  4  5  1  1
  6  7  2  0
  8  9  1  0
  8  6  1  0
  9 13  1  0
  9 10  1  6
 11 15  1  0
 11 10  1  0
 12 11  2  0
 13 16  1  0
 13 14  2  0
 16 17  1  0
 17 22  1  0
 17 18  1  1
 19 18  1  0
 20 19  1  0
 21 20  2  0
 22 23  2  0
 22 25  1  0
 24 20  1  0
M  END
$$$$
