EWG.pdb
     RDKit          3D

 28 29  0  0  1  0  0  0  0  0999 V2000
   26.0449  -29.6403  -18.9943 N   0  0  0  0  0  0  0  0  0  0  0  0
   26.0328  -29.9716  -17.5838 C   0  0  1  0  0  0  0  0  0  0  0  0
   24.6185  -29.9985  -17.0847 C   0  0  0  0  0  0  0  0  0  0  0  0
   24.0195  -28.5860  -17.0506 C   0  0  0  0  0  0  0  0  0  0  0  0
   22.6390  -28.5891  -17.5747 C   0  0  0  0  0  0  0  0  0  0  0  0
   22.1190  -29.6502  -17.9861 O   0  0  0  0  0  0  0  0  0  0  0  0
   26.7630  -31.2326  -17.3015 C   0  0  0  0  0  0  0  0  0  0  0  0
   26.7341  -32.2217  -18.0708 O   0  0  0  0  0  0  0  0  0  0  0  0
   21.9077  -27.4279  -17.6177 O   0  0  0  0  0  0  0  0  0  0  0  0
   27.5195  -31.3341  -16.1290 N   0  0  0  0  0  0  0  0  0  0  0  0
   28.2592  -32.4708  -15.6825 C   0  0  1  0  0  0  0  0  0  0  0  0
   29.6951  -32.1522  -15.5672 C   0  0  0  0  0  0  0  0  0  0  0  0
   30.3927  -32.0660  -16.8718 C   0  0  0  0  0  0  0  0  0  0  0  0
   30.5817  -30.8378  -17.5131 C   0  0  0  0  0  0  0  0  0  0  0  0
   31.2645  -31.0868  -18.6408 N   0  0  0  0  0  0  0  0  0  0  0  0
   31.5265  -32.3851  -18.7698 C   0  0  0  0  0  0  0  0  0  0  0  0
   32.1760  -33.1723  -19.7141 C   0  0  0  0  0  0  0  0  0  0  0  0
   32.2831  -34.5385  -19.5684 C   0  0  0  0  0  0  0  0  0  0  0  0
   31.7417  -35.1644  -18.4691 C   0  0  0  0  0  0  0  0  0  0  0  0
   31.0878  -34.3702  -17.5180 C   0  0  0  0  0  0  0  0  0  0  0  0
   30.9805  -33.0064  -17.6607 C   0  0  0  0  0  0  0  0  0  0  0  0
   27.6528  -33.1594  -14.5381 C   0  0  0  0  0  0  0  0  0  0  0  0
   27.5216  -32.4873  -13.4813 O   0  0  0  0  0  0  0  0  0  0  0  0
   27.2152  -34.4860  -14.5292 N   0  0  0  0  0  0  0  0  0  0  0  0
   26.6843  -35.1737  -13.3619 C   0  0  0  0  0  0  0  0  0  0  0  0
   26.1594  -36.5033  -13.6936 C   0  0  0  0  0  0  0  0  0  0  0  0
   26.0889  -36.8870  -14.8797 O   0  0  0  0  0  0  0  0  0  0  0  0
   25.7349  -37.3504  -12.6899 O   0  0  0  0  0  0  0  0  0  0  0  0
  2  1  1  6
  3  4  1  0
  3  2  1  0
  5  6  2  0
  5  4  1  0
  7  2  1  0
  7 10  1  0
  8  7  2  0
  9  5  1  0
 11 10  1  0
 11 12  1  1
 13 14  2  0
 13 12  1  0
 15 14  1  0
 16 21  2  0
 16 15  1  0
 17 16  1  0
 18 19  1  0
 18 17  2  0
 19 20  2  0
 20 21  1  0
 21 13  1  0
 22 11  1  0
 23 22  2  0
 24 22  1  0
 25 24  1  0
 26 25  1  0
 27 26  2  0
 28 26  1  0
M  END
$$$$
