EWG.pdb
     RDKit          3D

 28 29  0  0  1  0  0  0  0  0999 V2000
   29.0744  -21.0964  -12.7462 N   0  0  0  0  0  0  0  0  0  0  0  0
   27.6717  -20.7630  -12.8909 C   0  0  1  0  0  0  0  0  0  0  0  0
   27.1534  -21.3159  -14.1855 C   0  0  0  0  0  0  0  0  0  0  0  0
   27.8908  -20.6996  -15.3819 C   0  0  0  0  0  0  0  0  0  0  0  0
   27.2680  -19.4212  -15.7799 C   0  0  0  0  0  0  0  0  0  0  0  0
   26.1291  -19.1135  -15.3628 O   0  0  0  0  0  0  0  0  0  0  0  0
   26.8713  -21.2018  -11.7204 C   0  0  0  0  0  0  0  0  0  0  0  0
   26.5368  -22.3953  -11.5346 O   0  0  0  0  0  0  0  0  0  0  0  0
   27.9299  -18.5533  -16.6126 O   0  0  0  0  0  0  0  0  0  0  0  0
   26.4664  -20.2514  -10.7770 N   0  0  0  0  0  0  0  0  0  0  0  0
   25.6158  -20.4702   -9.6513 C   0  0  1  0  0  0  0  0  0  0  0  0
   26.0633  -19.6761   -8.4912 C   0  0  0  0  0  0  0  0  0  0  0  0
   27.3386  -20.1484   -7.9024 C   0  0  0  0  0  0  0  0  0  0  0  0
   28.2242  -20.9451   -8.6346 C   0  0  0  0  0  0  0  0  0  0  0  0
   29.2853  -21.1756   -7.8468 N   0  0  0  0  0  0  0  0  0  0  0  0
   29.1445  -20.5854   -6.6624 C   0  0  0  0  0  0  0  0  0  0  0  0
   29.9088  -20.5012   -5.5040 C   0  0  0  0  0  0  0  0  0  0  0  0
   29.4773  -19.7970   -4.4008 C   0  0  0  0  0  0  0  0  0  0  0  0
   28.2623  -19.1514   -4.4203 C   0  0  0  0  0  0  0  0  0  0  0  0
   27.4931  -19.2366   -5.5882 C   0  0  0  0  0  0  0  0  0  0  0  0
   27.9220  -19.9381   -6.6908 C   0  0  0  0  0  0  0  0  0  0  0  0
   24.1853  -20.4065   -9.9690 C   0  0  0  0  0  0  0  0  0  0  0  0
   23.8461  -19.6085  -10.8821 O   0  0  0  0  0  0  0  0  0  0  0  0
   23.1823  -21.1527   -9.3453 N   0  0  0  0  0  0  0  0  0  0  0  0
   22.0785  -21.7976  -10.0401 C   0  0  0  0  0  0  0  0  0  0  0  0
   21.2414  -20.8340  -10.7642 C   0  0  0  0  0  0  0  0  0  0  0  0
   21.7528  -19.9797  -11.5175 O   0  0  0  0  0  0  0  0  0  0  0  0
   19.8690  -20.8625  -10.6190 O   0  0  0  0  0  0  0  0  0  0  0  0
  2  1  1  1
  3  4  1  0
  3  2  1  0
  5  6  2  0
  5  4  1  0
  7  2  1  0
  7 10  1  0
  8  7  2  0
  9  5  1  0
 11 10  1  0
 11 12  1  1
 13 14  2  0
 13 12  1  0
 15 14  1  0
 16 21  2  0
 16 15  1  0
 17 16  1  0
 18 19  1  0
 18 17  2  0
 19 20  2  0
 20 21  1  0
 21 13  1  0
 22 11  1  0
 23 22  2  0
 24 22  1  0
 25 24  1  0
 26 25  1  0
 27 26  2  0
 28 26  1  0
M  END
$$$$
