EWG.pdb
     RDKit          3D

 28 29  0  0  1  0  0  0  0  0999 V2000
   25.8535  -23.6848  -14.4807 N   0  0  0  0  0  0  0  0  0  0  0  0
   26.0204  -22.3500  -13.9422 C   0  0  1  0  0  0  0  0  0  0  0  0
   25.1072  -21.3999  -14.6588 C   0  0  0  0  0  0  0  0  0  0  0  0
   25.7085  -20.9657  -16.0023 C   0  0  0  0  0  0  0  0  0  0  0  0
   26.5808  -19.7868  -15.8298 C   0  0  0  0  0  0  0  0  0  0  0  0
   27.7790  -19.8264  -16.1882 O   0  0  0  0  0  0  0  0  0  0  0  0
   25.8388  -22.3166  -12.4695 C   0  0  0  0  0  0  0  0  0  0  0  0
   24.9714  -22.9995  -11.8759 O   0  0  0  0  0  0  0  0  0  0  0  0
   26.0891  -18.6317  -15.2741 O   0  0  0  0  0  0  0  0  0  0  0  0
   26.6652  -21.4910  -11.6996 N   0  0  0  0  0  0  0  0  0  0  0  0
   26.4936  -21.1510  -10.3235 C   0  0  1  0  0  0  0  0  0  0  0  0
   27.6595  -20.4021   -9.8171 C   0  0  0  0  0  0  0  0  0  0  0  0
   27.5334  -19.9914   -8.3989 C   0  0  0  0  0  0  0  0  0  0  0  0
   26.3811  -19.3543   -7.9282 C   0  0  0  0  0  0  0  0  0  0  0  0
   26.5593  -19.1441   -6.6152 N   0  0  0  0  0  0  0  0  0  0  0  0
   27.7422  -19.5993   -6.2097 C   0  0  0  0  0  0  0  0  0  0  0  0
   28.4229  -19.6376   -4.9979 C   0  0  0  0  0  0  0  0  0  0  0  0
   29.6821  -20.1875   -4.8912 C   0  0  0  0  0  0  0  0  0  0  0  0
   30.3040  -20.7191   -5.9976 C   0  0  0  0  0  0  0  0  0  0  0  0
   29.6170  -20.6804   -7.2180 C   0  0  0  0  0  0  0  0  0  0  0  0
   28.3599  -20.1329   -7.3268 C   0  0  0  0  0  0  0  0  0  0  0  0
   25.1753  -20.5882  -10.0127 C   0  0  0  0  0  0  0  0  0  0  0  0
   24.9900  -20.2096   -8.8260 O   0  0  0  0  0  0  0  0  0  0  0  0
   24.1223  -20.4414  -10.9190 N   0  0  0  0  0  0  0  0  0  0  0  0
   22.8552  -19.7933  -10.6162 C   0  0  0  0  0  0  0  0  0  0  0  0
   21.7296  -20.4241  -11.3153 C   0  0  0  0  0  0  0  0  0  0  0  0
   21.9174  -21.3659  -12.1133 O   0  0  0  0  0  0  0  0  0  0  0  0
   20.4414  -19.9794  -11.0962 O   0  0  0  0  0  0  0  0  0  0  0  0
  2  1  1  6
  3  4  1  0
  3  2  1  0
  5  6  2  0
  5  4  1  0
  7  2  1  0
  7 10  1  0
  8  7  2  0
  9  5  1  0
 11 10  1  0
 11 12  1  6
 13 14  2  0
 13 12  1  0
 15 14  1  0
 16 21  2  0
 16 15  1  0
 17 16  1  0
 18 19  1  0
 18 17  2  0
 19 20  2  0
 20 21  1  0
 21 13  1  0
 22 11  1  0
 23 22  2  0
 24 22  1  0
 25 24  1  0
 26 25  1  0
 27 26  2  0
 28 26  1  0
M  END
$$$$
