EWG.pdb
     RDKit          3D

 28 29  0  0  1  0  0  0  0  0999 V2000
   25.9706  -18.9417  -15.5115 N   0  0  0  0  0  0  0  0  0  0  0  0
   24.8368  -19.8178  -15.2955 C   0  0  1  0  0  0  0  0  0  0  0  0
   24.7320  -20.7947  -16.4291 C   0  0  0  0  0  0  0  0  0  0  0  0
   24.7086  -20.0689  -17.7811 C   0  0  0  0  0  0  0  0  0  0  0  0
   23.3447  -19.6031  -18.1026 C   0  0  0  0  0  0  0  0  0  0  0  0
   22.4784  -20.4092  -18.5091 O   0  0  0  0  0  0  0  0  0  0  0  0
   24.8918  -20.4836  -13.9701 C   0  0  0  0  0  0  0  0  0  0  0  0
   24.2963  -21.5588  -13.7243 O   0  0  0  0  0  0  0  0  0  0  0  0
   23.0090  -18.2795  -17.9600 O   0  0  0  0  0  0  0  0  0  0  0  0
   25.6371  -19.8954  -12.9425 N   0  0  0  0  0  0  0  0  0  0  0  0
   25.7338  -20.3431  -11.5902 C   0  0  1  0  0  0  0  0  0  0  0  0
   26.9873  -19.8745  -10.9690 C   0  0  0  0  0  0  0  0  0  0  0  0
   27.2546  -20.4749   -9.6408 C   0  0  0  0  0  0  0  0  0  0  0  0
   27.4932  -21.8454   -9.4994 C   0  0  0  0  0  0  0  0  0  0  0  0
   27.7300  -22.0686   -8.1979 N   0  0  0  0  0  0  0  0  0  0  0  0
   27.6601  -20.9413   -7.4942 C   0  0  0  0  0  0  0  0  0  0  0  0
   27.8085  -20.6031   -6.1538 C   0  0  0  0  0  0  0  0  0  0  0  0
   27.6642  -19.3051   -5.7137 C   0  0  0  0  0  0  0  0  0  0  0  0
   27.3655  -18.2990   -6.6035 C   0  0  0  0  0  0  0  0  0  0  0  0
   27.2164  -18.6408   -7.9541 C   0  0  0  0  0  0  0  0  0  0  0  0
   27.3609  -19.9354   -8.3958 C   0  0  0  0  0  0  0  0  0  0  0  0
   24.5077  -20.1412  -10.8108 C   0  0  0  0  0  0  0  0  0  0  0  0
   24.3205  -18.9866  -10.3443 O   0  0  0  0  0  0  0  0  0  0  0  0
   23.5437  -21.1178  -10.5487 N   0  0  0  0  0  0  0  0  0  0  0  0
   22.3069  -20.8837   -9.8188 C   0  0  0  0  0  0  0  0  0  0  0  0
   21.1678  -21.5875  -10.4193 C   0  0  0  0  0  0  0  0  0  0  0  0
   21.0934  -21.7491  -11.6552 O   0  0  0  0  0  0  0  0  0  0  0  0
   20.1589  -22.0824   -9.6178 O   0  0  0  0  0  0  0  0  0  0  0  0
  2  1  1  6
  3  4  1  0
  3  2  1  0
  5  6  2  0
  5  4  1  0
  7  2  1  0
  7 10  1  0
  8  7  2  0
  9  5  1  0
 11 10  1  0
 11 12  1  1
 13 14  2  0
 13 12  1  0
 15 14  1  0
 16 21  2  0
 16 15  1  0
 17 16  1  0
 18 19  1  0
 18 17  2  0
 19 20  2  0
 20 21  1  0
 21 13  1  0
 22 11  1  0
 23 22  2  0
 24 22  1  0
 25 24  1  0
 26 25  1  0
 27 26  2  0
 28 26  1  0
M  END
$$$$
