EWG.pdb
     RDKit          3D

 28 29  0  0  1  0  0  0  0  0999 V2000
   27.1269  -18.7911  -13.0040 N   0  0  0  0  0  0  0  0  0  0  0  0
   27.2940  -20.2301  -13.0373 C   0  0  1  0  0  0  0  0  0  0  0  0
   28.7122  -20.5644  -13.3937 C   0  0  0  0  0  0  0  0  0  0  0  0
   29.1358  -19.8584  -14.6887 C   0  0  0  0  0  0  0  0  0  0  0  0
   28.4058  -20.4083  -15.8486 C   0  0  0  0  0  0  0  0  0  0  0  0
   28.6733  -21.5509  -16.2828 O   0  0  0  0  0  0  0  0  0  0  0  0
   26.8558  -20.8713  -11.7725 C   0  0  0  0  0  0  0  0  0  0  0  0
   26.9811  -22.0991  -11.5537 O   0  0  0  0  0  0  0  0  0  0  0  0
   27.4242  -19.6734  -16.4661 O   0  0  0  0  0  0  0  0  0  0  0  0
   26.2761  -20.0817  -10.7735 N   0  0  0  0  0  0  0  0  0  0  0  0
   25.4940  -20.5359   -9.6687 C   0  0  1  0  0  0  0  0  0  0  0  0
   25.8984  -19.8567   -8.4230 C   0  0  0  0  0  0  0  0  0  0  0  0
   27.2590  -20.2197   -7.9614 C   0  0  0  0  0  0  0  0  0  0  0  0
   28.1514  -20.8981   -8.7974 C   0  0  0  0  0  0  0  0  0  0  0  0
   29.2933  -21.0490   -8.1097 N   0  0  0  0  0  0  0  0  0  0  0  0
   29.1982  -20.5176   -6.8934 C   0  0  0  0  0  0  0  0  0  0  0  0
   30.0472  -20.3981   -5.7988 C   0  0  0  0  0  0  0  0  0  0  0  0
   29.6458  -19.7795   -4.6346 C   0  0  0  0  0  0  0  0  0  0  0  0
   28.3770  -19.2581   -4.5267 C   0  0  0  0  0  0  0  0  0  0  0  0
   27.5224  -19.3786   -5.6304 C   0  0  0  0  0  0  0  0  0  0  0  0
   27.9210  -19.9948   -6.7937 C   0  0  0  0  0  0  0  0  0  0  0  0
   24.0540  -20.5854   -9.9434 C   0  0  0  0  0  0  0  0  0  0  0  0
   23.4998  -19.4947  -10.2419 O   0  0  0  0  0  0  0  0  0  0  0  0
   23.2594  -21.7336   -9.9001 N   0  0  0  0  0  0  0  0  0  0  0  0
   22.1601  -22.0130  -10.8115 C   0  0  0  0  0  0  0  0  0  0  0  0
   21.0751  -21.0327  -10.6875 C   0  0  0  0  0  0  0  0  0  0  0  0
   21.3183  -19.8085  -10.6533 O   0  0  0  0  0  0  0  0  0  0  0  0
   19.7642  -21.4571  -10.6068 O   0  0  0  0  0  0  0  0  0  0  0  0
  2  1  1  1
  3  4  1  0
  3  2  1  0
  5  6  2  0
  5  4  1  0
  7  2  1  0
  7 10  1  0
  8  7  2  0
  9  5  1  0
 11 10  1  0
 11 12  1  1
 13 14  2  0
 13 12  1  0
 15 14  1  0
 16 21  2  0
 16 15  1  0
 17 16  1  0
 18 19  1  0
 18 17  2  0
 19 20  2  0
 20 21  1  0
 21 13  1  0
 22 11  1  0
 23 22  2  0
 24 22  1  0
 25 24  1  0
 26 25  1  0
 27 26  2  0
 28 26  1  0
M  END
$$$$
