EWG.pdb
     RDKit          3D

 28 29  0  0  1  0  0  0  0  0999 V2000
   27.2874  -22.3920  -16.2932 N   0  0  0  0  0  0  0  0  0  0  0  0
   26.1424  -21.5659  -15.9675 C   0  0  1  0  0  0  0  0  0  0  0  0
   25.0758  -21.7511  -17.0059 C   0  0  0  0  0  0  0  0  0  0  0  0
   25.5219  -21.1846  -18.3606 C   0  0  0  0  0  0  0  0  0  0  0  0
   25.5235  -19.7081  -18.3367 C   0  0  0  0  0  0  0  0  0  0  0  0
   26.5934  -19.0773  -18.1851 O   0  0  0  0  0  0  0  0  0  0  0  0
   25.6490  -21.8156  -14.5901 C   0  0  0  0  0  0  0  0  0  0  0  0
   25.6496  -22.9531  -14.0636 O   0  0  0  0  0  0  0  0  0  0  0  0
   24.3514  -19.0078  -18.4804 O   0  0  0  0  0  0  0  0  0  0  0  0
   25.1594  -20.7432  -13.8368 N   0  0  0  0  0  0  0  0  0  0  0  0
   24.5262  -20.8124  -12.5589 C   0  0  1  0  0  0  0  0  0  0  0  0
   25.4377  -20.3514  -11.4943 C   0  0  0  0  0  0  0  0  0  0  0  0
   26.8598  -20.3017  -11.9079 C   0  0  0  0  0  0  0  0  0  0  0  0
   27.2570  -19.6107  -13.0569 C   0  0  0  0  0  0  0  0  0  0  0  0
   28.5911  -19.7243  -13.1397 N   0  0  0  0  0  0  0  0  0  0  0  0
   29.0785  -20.4383  -12.1280 C   0  0  0  0  0  0  0  0  0  0  0  0
   30.3447  -20.8569  -11.7345 C   0  0  0  0  0  0  0  0  0  0  0  0
   30.5366  -21.6191  -10.6025 C   0  0  0  0  0  0  0  0  0  0  0  0
   29.4640  -21.9889   -9.8239 C   0  0  0  0  0  0  0  0  0  0  0  0
   28.1886  -21.5662  -10.2211 C   0  0  0  0  0  0  0  0  0  0  0  0
   27.9947  -20.8048  -11.3500 C   0  0  0  0  0  0  0  0  0  0  0  0
   23.1699  -20.2544  -12.5393 C   0  0  0  0  0  0  0  0  0  0  0  0
   23.0505  -19.0515  -12.8923 O   0  0  0  0  0  0  0  0  0  0  0  0
   22.0147  -20.9446  -12.1642 N   0  0  0  0  0  0  0  0  0  0  0  0
   21.5198  -22.1458  -12.8194 C   0  0  0  0  0  0  0  0  0  0  0  0
   20.3327  -21.8799  -13.6401 C   0  0  0  0  0  0  0  0  0  0  0  0
   19.7188  -22.8118  -14.2003 O   0  0  0  0  0  0  0  0  0  0  0  0
   19.8787  -20.5865  -13.8026 O   0  0  0  0  0  0  0  0  0  0  0  0
  2  1  1  6
  3  4  1  0
  3  2  1  0
  5  6  2  0
  5  4  1  0
  7  2  1  0
  7 10  1  0
  8  7  2  0
  9  5  1  0
 11 10  1  0
 11 12  1  1
 13 14  2  0
 13 12  1  0
 15 14  1  0
 16 21  2  0
 16 15  1  0
 17 16  1  0
 18 19  1  0
 18 17  2  0
 19 20  2  0
 20 21  1  0
 21 13  1  0
 22 11  1  0
 23 22  2  0
 24 22  1  0
 25 24  1  0
 26 25  1  0
 27 26  2  0
 28 26  1  0
M  END
$$$$
