EWG.pdb
     RDKit          3D

 28 29  0  0  1  0  0  0  0  0999 V2000
   28.1061  -22.8189  -16.8995 N   0  0  0  0  0  0  0  0  0  0  0  0
   27.7554  -21.5798  -16.2353 C   0  0  1  0  0  0  0  0  0  0  0  0
   27.0194  -20.6872  -17.1901 C   0  0  0  0  0  0  0  0  0  0  0  0
   27.0080  -21.2837  -18.6040 C   0  0  0  0  0  0  0  0  0  0  0  0
   27.9448  -20.5594  -19.4863 C   0  0  0  0  0  0  0  0  0  0  0  0
   27.6517  -19.4264  -19.9291 O   0  0  0  0  0  0  0  0  0  0  0  0
   27.0036  -21.8153  -14.9774 C   0  0  0  0  0  0  0  0  0  0  0  0
   26.0911  -22.6692  -14.8806 O   0  0  0  0  0  0  0  0  0  0  0  0
   29.1496  -21.1193  -19.8324 O   0  0  0  0  0  0  0  0  0  0  0  0
   27.3173  -21.0576  -13.8440 N   0  0  0  0  0  0  0  0  0  0  0  0
   26.6615  -21.1006  -12.5764 C   0  0  1  0  0  0  0  0  0  0  0  0
   27.4977  -20.4822  -11.5300 C   0  0  0  0  0  0  0  0  0  0  0  0
   26.8949  -20.5350  -10.1773 C   0  0  0  0  0  0  0  0  0  0  0  0
   25.5106  -20.6283  -10.0035 C   0  0  0  0  0  0  0  0  0  0  0  0
   25.2857  -20.6888   -8.6823 N   0  0  0  0  0  0  0  0  0  0  0  0
   26.4249  -20.6405   -7.9960 C   0  0  0  0  0  0  0  0  0  0  0  0
   26.7676  -20.6606   -6.6487 C   0  0  0  0  0  0  0  0  0  0  0  0
   28.0796  -20.5855   -6.2336 C   0  0  0  0  0  0  0  0  0  0  0  0
   29.0956  -20.4873   -7.1563 C   0  0  0  0  0  0  0  0  0  0  0  0
   28.7492  -20.4674   -8.5137 C   0  0  0  0  0  0  0  0  0  0  0  0
   27.4406  -20.5432   -8.9304 C   0  0  0  0  0  0  0  0  0  0  0  0
   25.2581  -20.6764  -12.6213 C   0  0  0  0  0  0  0  0  0  0  0  0
   25.0188  -19.4854  -12.2898 O   0  0  0  0  0  0  0  0  0  0  0  0
   24.1799  -21.4806  -12.9983 N   0  0  0  0  0  0  0  0  0  0  0  0
   23.0617  -21.8234  -12.1325 C   0  0  0  0  0  0  0  0  0  0  0  0
   21.8944  -20.9664  -12.3702 C   0  0  0  0  0  0  0  0  0  0  0  0
   21.8569  -19.7982  -11.9310 O   0  0  0  0  0  0  0  0  0  0  0  0
   20.8172  -21.4467  -13.0873 O   0  0  0  0  0  0  0  0  0  0  0  0
  2  1  1  6
  3  4  1  0
  3  2  1  0
  5  6  2  0
  5  4  1  0
  7  2  1  0
  7 10  1  0
  8  7  2  0
  9  5  1  0
 11 10  1  0
 11 12  1  1
 13 14  2  0
 13 12  1  0
 15 14  1  0
 16 21  2  0
 16 15  1  0
 17 16  1  0
 18 19  1  0
 18 17  2  0
 19 20  2  0
 20 21  1  0
 21 13  1  0
 22 11  1  0
 23 22  2  0
 24 22  1  0
 25 24  1  0
 26 25  1  0
 27 26  2  0
 28 26  1  0
M  END
$$$$
