EWG.pdb
     RDKit          3D

 28 29  0  0  1  0  0  0  0  0999 V2000
   37.8210  -26.5757    3.5429 N   0  0  0  0  0  0  0  0  0  0  0  0
   37.7829  -26.3863    4.9790 C   0  0  1  0  0  0  0  0  0  0  0  0
   39.1457  -26.6317    5.5559 C   0  0  0  0  0  0  0  0  0  0  0  0
   39.4667  -28.1319    5.5915 C   0  0  0  0  0  0  0  0  0  0  0  0
   38.9462  -28.7503    6.8273 C   0  0  0  0  0  0  0  0  0  0  0  0
   39.7319  -29.1997    7.6913 O   0  0  0  0  0  0  0  0  0  0  0  0
   37.2350  -25.0581    5.3514 C   0  0  0  0  0  0  0  0  0  0  0  0
   37.5326  -24.0046    4.7409 O   0  0  0  0  0  0  0  0  0  0  0  0
   37.5936  -28.8405    7.0449 O   0  0  0  0  0  0  0  0  0  0  0  0
   36.3473  -24.9648    6.4287 N   0  0  0  0  0  0  0  0  0  0  0  0
   35.7775  -23.7721    6.9683 C   0  0  1  0  0  0  0  0  0  0  0  0
   34.3037  -23.8379    6.9500 C   0  0  0  0  0  0  0  0  0  0  0  0
   33.7139  -23.6108    5.6097 C   0  0  0  0  0  0  0  0  0  0  0  0
   33.6661  -24.6325    4.6561 C   0  0  0  0  0  0  0  0  0  0  0  0
   33.0527  -24.1290    3.5744 N   0  0  0  0  0  0  0  0  0  0  0  0
   32.7043  -22.8589    3.7644 C   0  0  0  0  0  0  0  0  0  0  0  0
   32.0698  -21.8843    3.0022 C   0  0  0  0  0  0  0  0  0  0  0  0
   31.8499  -20.6136    3.4882 C   0  0  0  0  0  0  0  0  0  0  0  0
   32.2591  -20.2748    4.7575 C   0  0  0  0  0  0  0  0  0  0  0  0
   32.8980  -21.2577    5.5248 C   0  0  0  0  0  0  0  0  0  0  0  0
   33.1178  -22.5268    5.0423 C   0  0  0  0  0  0  0  0  0  0  0  0
   36.3927  -23.3393    8.2276 C   0  0  0  0  0  0  0  0  0  0  0  0
   36.5810  -24.2299    9.0977 O   0  0  0  0  0  0  0  0  0  0  0  0
   36.7809  -22.0326    8.5331 N   0  0  0  0  0  0  0  0  0  0  0  0
   37.3959  -21.6247    9.7872 C   0  0  0  0  0  0  0  0  0  0  0  0
   36.4441  -21.6475   10.9039 C   0  0  0  0  0  0  0  0  0  0  0  0
   35.2653  -22.0225   10.7338 O   0  0  0  0  0  0  0  0  0  0  0  0
   36.8452  -21.2515   12.1638 O   0  0  0  0  0  0  0  0  0  0  0  0
  2  1  1  6
  3  4  1  0
  3  2  1  0
  5  6  2  0
  5  4  1  0
  7  2  1  0
  7 10  1  0
  8  7  2  0
  9  5  1  0
 11 10  1  0
 11 12  1  1
 13 14  2  0
 13 12  1  0
 15 14  1  0
 16 21  2  0
 16 15  1  0
 17 16  1  0
 18 19  1  0
 18 17  2  0
 19 20  2  0
 20 21  1  0
 21 13  1  0
 22 11  1  0
 23 22  2  0
 24 22  1  0
 25 24  1  0
 26 25  1  0
 27 26  2  0
 28 26  1  0
M  END
$$$$
