EWG.pdb
     RDKit          3D

 28 29  0  0  1  0  0  0  0  0999 V2000
   30.6770  -31.3016  -22.1788 N   0  0  0  0  0  0  0  0  0  0  0  0
   31.9831  -31.3832  -21.5568 C   0  0  1  0  0  0  0  0  0  0  0  0
   32.9925  -31.8493  -22.5639 C   0  0  0  0  0  0  0  0  0  0  0  0
   32.7394  -33.3096  -22.9620 C   0  0  0  0  0  0  0  0  0  0  0  0
   33.7740  -33.7834  -23.9030 C   0  0  0  0  0  0  0  0  0  0  0  0
   33.9551  -33.1982  -24.9941 O   0  0  0  0  0  0  0  0  0  0  0  0
   32.3713  -30.1067  -20.9067 C   0  0  0  0  0  0  0  0  0  0  0  0
   31.8214  -29.0127  -21.1746 O   0  0  0  0  0  0  0  0  0  0  0  0
   34.5510  -34.8723  -23.5937 O   0  0  0  0  0  0  0  0  0  0  0  0
   33.3942  -30.1116  -19.9522 N   0  0  0  0  0  0  0  0  0  0  0  0
   33.9036  -28.9858  -19.2368 C   0  0  1  0  0  0  0  0  0  0  0  0
   33.6594  -29.1281  -17.7888 C   0  0  0  0  0  0  0  0  0  0  0  0
   32.2408  -29.3854  -17.4464 C   0  0  0  0  0  0  0  0  0  0  0  0
   31.2248  -28.5227  -17.8693 C   0  0  0  0  0  0  0  0  0  0  0  0
   30.0663  -29.0398  -17.4331 N   0  0  0  0  0  0  0  0  0  0  0  0
   30.2652  -30.1708  -16.7608 C   0  0  0  0  0  0  0  0  0  0  0  0
   29.4492  -31.0884  -16.1085 C   0  0  0  0  0  0  0  0  0  0  0  0
   29.9676  -32.1973  -15.4753 C   0  0  0  0  0  0  0  0  0  0  0  0
   31.3246  -32.4254  -15.4739 C   0  0  0  0  0  0  0  0  0  0  0  0
   32.1459  -31.5004  -16.1317 C   0  0  0  0  0  0  0  0  0  0  0  0
   31.6307  -30.3935  -16.7651 C   0  0  0  0  0  0  0  0  0  0  0  0
   35.2624  -28.5992  -19.6314 C   0  0  0  0  0  0  0  0  0  0  0  0
   36.0618  -29.5368  -19.8912 O   0  0  0  0  0  0  0  0  0  0  0  0
   35.7329  -27.2883  -19.7399 N   0  0  0  0  0  0  0  0  0  0  0  0
   36.0757  -26.6341  -20.9937 C   0  0  0  0  0  0  0  0  0  0  0  0
   37.1903  -27.2990  -21.6785 C   0  0  0  0  0  0  0  0  0  0  0  0
   37.0061  -28.3432  -22.3379 O   0  0  0  0  0  0  0  0  0  0  0  0
   38.4639  -26.7727  -21.6004 O   0  0  0  0  0  0  0  0  0  0  0  0
  2  1  1  6
  3  4  1  0
  3  2  1  0
  5  6  2  0
  5  4  1  0
  7  2  1  0
  7 10  1  0
  8  7  2  0
  9  5  1  0
 11 10  1  0
 11 12  1  1
 13 14  2  0
 13 12  1  0
 15 14  1  0
 16 21  2  0
 16 15  1  0
 17 16  1  0
 18 19  1  0
 18 17  2  0
 19 20  2  0
 20 21  1  0
 21 13  1  0
 22 11  1  0
 23 22  2  0
 24 22  1  0
 25 24  1  0
 26 25  1  0
 27 26  2  0
 28 26  1  0
M  END
$$$$
