EWG.pdb
     RDKit          3D

 28 29  0  0  1  0  0  0  0  0999 V2000
   26.1280  -20.4737  -16.2529 N   0  0  0  0  0  0  0  0  0  0  0  0
   26.1641  -21.8431  -15.7805 C   0  0  1  0  0  0  0  0  0  0  0  0
   27.4539  -22.4858  -16.1970 C   0  0  0  0  0  0  0  0  0  0  0  0
   27.6319  -22.4271  -17.7201 C   0  0  0  0  0  0  0  0  0  0  0  0
   26.4475  -22.9790  -18.4081 C   0  0  0  0  0  0  0  0  0  0  0  0
   25.7541  -22.2549  -19.1567 O   0  0  0  0  0  0  0  0  0  0  0  0
   25.9256  -21.9345  -14.3184 C   0  0  0  0  0  0  0  0  0  0  0  0
   26.0637  -22.9997  -13.6724 O   0  0  0  0  0  0  0  0  0  0  0  0
   26.0914  -24.2936  -18.2356 O   0  0  0  0  0  0  0  0  0  0  0  0
   25.5287  -20.7891  -13.6199 N   0  0  0  0  0  0  0  0  0  0  0  0
   25.2222  -20.6977  -12.2283 C   0  0  1  0  0  0  0  0  0  0  0  0
   26.0896  -19.7073  -11.5624 C   0  0  0  0  0  0  0  0  0  0  0  0
   27.1759  -20.3131  -10.7568 C   0  0  0  0  0  0  0  0  0  0  0  0
   28.2420  -20.9834  -11.3647 C   0  0  0  0  0  0  0  0  0  0  0  0
   29.0635  -21.3830  -10.3823 N   0  0  0  0  0  0  0  0  0  0  0  0
   28.6019  -21.0183   -9.1887 C   0  0  0  0  0  0  0  0  0  0  0  0
   29.0321  -21.1694   -7.8752 C   0  0  0  0  0  0  0  0  0  0  0  0
   28.3087  -20.6701   -6.8137 C   0  0  0  0  0  0  0  0  0  0  0  0
   27.1264  -20.0009   -7.0324 C   0  0  0  0  0  0  0  0  0  0  0  0
   26.6940  -19.8489   -8.3563 C   0  0  0  0  0  0  0  0  0  0  0  0
   27.4147  -20.3455   -9.4173 C   0  0  0  0  0  0  0  0  0  0  0  0
   23.7867  -20.5994  -11.9436 C   0  0  0  0  0  0  0  0  0  0  0  0
   23.4666  -20.1566  -10.8090 O   0  0  0  0  0  0  0  0  0  0  0  0
   22.7599  -20.9545  -12.8217 N   0  0  0  0  0  0  0  0  0  0  0  0
   21.8636  -22.0850  -12.6318 C   0  0  0  0  0  0  0  0  0  0  0  0
   20.8489  -22.1707  -13.6884 C   0  0  0  0  0  0  0  0  0  0  0  0
   21.1164  -22.6866  -14.7936 O   0  0  0  0  0  0  0  0  0  0  0  0
   19.5782  -21.6781  -13.4698 O   0  0  0  0  0  0  0  0  0  0  0  0
  2  1  1  1
  3  4  1  0
  3  2  1  0
  5  6  2  0
  5  4  1  0
  7  2  1  0
  7 10  1  0
  8  7  2  0
  9  5  1  0
 11 10  1  0
 11 12  1  6
 13 14  2  0
 13 12  1  0
 15 14  1  0
 16 21  2  0
 16 15  1  0
 17 16  1  0
 18 19  1  0
 18 17  2  0
 19 20  2  0
 20 21  1  0
 21 13  1  0
 22 11  1  0
 23 22  2  0
 24 22  1  0
 25 24  1  0
 26 25  1  0
 27 26  2  0
 28 26  1  0
M  END
$$$$
