EWG.pdb
     RDKit          3D

 28 29  0  0  1  0  0  0  0  0999 V2000
   20.2048  -12.1921  -18.4924 N   0  0  0  0  0  0  0  0  0  0  0  0
   20.1655  -12.2496  -17.0451 C   0  0  1  0  0  0  0  0  0  0  0  0
   20.2222  -13.6798  -16.5960 C   0  0  0  0  0  0  0  0  0  0  0  0
   19.0099  -14.4672  -17.1111 C   0  0  0  0  0  0  0  0  0  0  0  0
   17.9351  -14.4965  -16.0989 C   0  0  0  0  0  0  0  0  0  0  0  0
   18.1026  -15.0952  -15.0130 O   0  0  0  0  0  0  0  0  0  0  0  0
   21.2236  -11.4133  -16.4254 C   0  0  0  0  0  0  0  0  0  0  0  0
   21.6139  -11.5750  -15.2454 O   0  0  0  0  0  0  0  0  0  0  0  0
   16.7379  -13.8676  -16.3357 O   0  0  0  0  0  0  0  0  0  0  0  0
   21.8185  -10.3970  -17.1808 N   0  0  0  0  0  0  0  0  0  0  0  0
   22.8832   -9.5377  -16.7727 C   0  0  1  0  0  0  0  0  0  0  0  0
   24.0798   -9.7484  -17.6096 C   0  0  0  0  0  0  0  0  0  0  0  0
   24.7398  -11.0563  -17.3866 C   0  0  0  0  0  0  0  0  0  0  0  0
   24.3438  -12.1977  -18.0906 C   0  0  0  0  0  0  0  0  0  0  0  0
   25.1436  -13.1989  -17.6935 N   0  0  0  0  0  0  0  0  0  0  0  0
   26.0232  -12.7830  -16.7857 C   0  0  0  0  0  0  0  0  0  0  0  0
   27.0470  -13.3786  -16.0573 C   0  0  0  0  0  0  0  0  0  0  0  0
   27.8053  -12.6638  -15.1555 C   0  0  0  0  0  0  0  0  0  0  0  0
   27.5634  -11.3246  -14.9520 C   0  0  0  0  0  0  0  0  0  0  0  0
   26.5318  -10.7254  -15.6867 C   0  0  0  0  0  0  0  0  0  0  0  0
   25.7743  -11.4365  -16.5879 C   0  0  0  0  0  0  0  0  0  0  0  0
   22.4732   -8.1448  -16.5648 C   0  0  0  0  0  0  0  0  0  0  0  0
   22.7652   -7.3293  -17.4788 O   0  0  0  0  0  0  0  0  0  0  0  0
   21.7927   -7.6585  -15.4458 N   0  0  0  0  0  0  0  0  0  0  0  0
   21.5611   -6.2493  -15.1670 C   0  0  0  0  0  0  0  0  0  0  0  0
   20.6860   -6.0511  -14.0058 C   0  0  0  0  0  0  0  0  0  0  0  0
   20.1078   -7.0175  -13.4666 O   0  0  0  0  0  0  0  0  0  0  0  0
   20.4914   -4.7842  -13.4935 O   0  0  0  0  0  0  0  0  0  0  0  0
  2  1  1  6
  3  4  1  0
  3  2  1  0
  5  6  2  0
  5  4  1  0
  7  2  1  0
  7 10  1  0
  8  7  2  0
  9  5  1  0
 11 10  1  0
 11 12  1  6
 13 14  2  0
 13 12  1  0
 15 14  1  0
 16 21  2  0
 16 15  1  0
 17 16  1  0
 18 19  1  0
 18 17  2  0
 19 20  2  0
 20 21  1  0
 21 13  1  0
 22 11  1  0
 23 22  2  0
 24 22  1  0
 25 24  1  0
 26 25  1  0
 27 26  2  0
 28 26  1  0
M  END
$$$$
