EWG.pdb
     RDKit          3D

 28 29  0  0  1  0  0  0  0  0999 V2000
   14.8624  -21.8673    1.3136 N   0  0  0  0  0  0  0  0  0  0  0  0
   14.7815  -21.9825    2.7557 C   0  0  1  0  0  0  0  0  0  0  0  0
   14.8236  -23.4295    3.1487 C   0  0  0  0  0  0  0  0  0  0  0  0
   13.6607  -23.7794    4.0870 C   0  0  0  0  0  0  0  0  0  0  0  0
   12.4564  -24.1462    3.3153 C   0  0  0  0  0  0  0  0  0  0  0  0
   12.4972  -24.2060    2.0661 O   0  0  0  0  0  0  0  0  0  0  0  0
   15.8222  -21.1740    3.4384 C   0  0  0  0  0  0  0  0  0  0  0  0
   17.0448  -21.4420    3.3700 O   0  0  0  0  0  0  0  0  0  0  0  0
   11.2759  -24.4263    3.9578 O   0  0  0  0  0  0  0  0  0  0  0  0
   15.4346  -20.0623    4.1942 N   0  0  0  0  0  0  0  0  0  0  0  0
   16.2897  -19.1833    4.9256 C   0  0  1  0  0  0  0  0  0  0  0  0
   16.0650  -17.7801    4.5293 C   0  0  0  0  0  0  0  0  0  0  0  0
   16.9465  -17.3234    3.4291 C   0  0  0  0  0  0  0  0  0  0  0  0
   17.3397  -18.1926    2.4067 C   0  0  0  0  0  0  0  0  0  0  0  0
   18.0969  -17.4809    1.5583 N   0  0  0  0  0  0  0  0  0  0  0  0
   18.2186  -16.2188    1.9623 C   0  0  0  0  0  0  0  0  0  0  0  0
   18.8712  -15.0878    1.4848 C   0  0  0  0  0  0  0  0  0  0  0  0
   18.8150  -13.8831    2.1517 C   0  0  0  0  0  0  0  0  0  0  0  0
   18.1015  -13.7701    3.3229 C   0  0  0  0  0  0  0  0  0  0  0  0
   17.4440  -14.9103    3.8029 C   0  0  0  0  0  0  0  0  0  0  0  0
   17.4978  -16.1135    3.1385 C   0  0  0  0  0  0  0  0  0  0  0  0
   16.3233  -19.4537    6.3668 C   0  0  0  0  0  0  0  0  0  0  0  0
   15.2480  -19.2777    6.9981 O   0  0  0  0  0  0  0  0  0  0  0  0
   17.4411  -19.8857    7.0847 N   0  0  0  0  0  0  0  0  0  0  0  0
   17.4877  -20.0345    8.5315 C   0  0  0  0  0  0  0  0  0  0  0  0
   17.1146  -21.3872    8.9613 C   0  0  0  0  0  0  0  0  0  0  0  0
   16.6821  -22.2237    8.1415 O   0  0  0  0  0  0  0  0  0  0  0  0
   17.2391  -21.7516   10.2868 O   0  0  0  0  0  0  0  0  0  0  0  0
  2  1  1  6
  3  4  1  0
  3  2  1  0
  5  6  2  0
  5  4  1  0
  7  2  1  0
  7 10  1  0
  8  7  2  0
  9  5  1  0
 11 10  1  0
 11 12  1  1
 13 14  2  0
 13 12  1  0
 15 14  1  0
 16 21  2  0
 16 15  1  0
 17 16  1  0
 18 19  1  0
 18 17  2  0
 19 20  2  0
 20 21  1  0
 21 13  1  0
 22 11  1  0
 23 22  2  0
 24 22  1  0
 25 24  1  0
 26 25  1  0
 27 26  2  0
 28 26  1  0
M  END
$$$$
