EWG.pdb
     RDKit          3D

 28 29  0  0  1  0  0  0  0  0999 V2000
   16.1436  -19.0908    2.7762 N   0  0  0  0  0  0  0  0  0  0  0  0
   16.1082  -19.0932    4.2247 C   0  0  1  0  0  0  0  0  0  0  0  0
   16.0988  -20.5069    4.7261 C   0  0  0  0  0  0  0  0  0  0  0  0
   14.9609  -21.3116    4.0837 C   0  0  0  0  0  0  0  0  0  0  0  0
   15.4983  -22.3919    3.2323 C   0  0  0  0  0  0  0  0  0  0  0  0
   16.1960  -23.3038    3.7296 O   0  0  0  0  0  0  0  0  0  0  0  0
   17.2076  -18.2860    4.8102 C   0  0  0  0  0  0  0  0  0  0  0  0
   18.3022  -18.1042    4.2272 O   0  0  0  0  0  0  0  0  0  0  0  0
   15.2396  -22.4102    1.8841 O   0  0  0  0  0  0  0  0  0  0  0  0
   17.0266  -17.6978    6.0666 N   0  0  0  0  0  0  0  0  0  0  0  0
   17.9599  -16.8789    6.7715 C   0  0  1  0  0  0  0  0  0  0  0  0
   17.3642  -15.5717    7.1077 C   0  0  0  0  0  0  0  0  0  0  0  0
   17.8940  -14.4496    6.2976 C   0  0  0  0  0  0  0  0  0  0  0  0
   17.1990  -13.9679    5.1839 C   0  0  0  0  0  0  0  0  0  0  0  0
   17.9119  -12.9438    4.6913 N   0  0  0  0  0  0  0  0  0  0  0  0
   19.0137  -12.7339    5.4075 C   0  0  0  0  0  0  0  0  0  0  0  0
   20.0766  -11.8397    5.3451 C   0  0  0  0  0  0  0  0  0  0  0  0
   21.1091  -11.8767    6.2571 C   0  0  0  0  0  0  0  0  0  0  0  0
   21.1123  -12.8132    7.2653 C   0  0  0  0  0  0  0  0  0  0  0  0
   20.0407  -13.7136    7.3274 C   0  0  0  0  0  0  0  0  0  0  0  0
   19.0086  -13.6780    6.4189 C   0  0  0  0  0  0  0  0  0  0  0  0
   18.6546  -17.5751    7.8596 C   0  0  0  0  0  0  0  0  0  0  0  0
   17.9296  -18.1085    8.7404 O   0  0  0  0  0  0  0  0  0  0  0  0
   20.0403  -17.6911    7.9935 N   0  0  0  0  0  0  0  0  0  0  0  0
   20.7126  -18.3097    9.1261 C   0  0  0  0  0  0  0  0  0  0  0  0
   20.7209  -19.7742    9.0327 C   0  0  0  0  0  0  0  0  0  0  0  0
   20.0678  -20.3637    8.1466 O   0  0  0  0  0  0  0  0  0  0  0  0
   21.4566  -20.5212    9.9305 O   0  0  0  0  0  0  0  0  0  0  0  0
  2  1  1  6
  3  4  1  0
  3  2  1  0
  5  6  2  0
  5  4  1  0
  7  2  1  0
  7 10  1  0
  8  7  2  0
  9  5  1  0
 11 10  1  0
 11 12  1  1
 13 14  2  0
 13 12  1  0
 15 14  1  0
 16 21  2  0
 16 15  1  0
 17 16  1  0
 18 19  1  0
 18 17  2  0
 19 20  2  0
 20 21  1  0
 21 13  1  0
 22 11  1  0
 23 22  2  0
 24 22  1  0
 25 24  1  0
 26 25  1  0
 27 26  2  0
 28 26  1  0
M  END
$$$$
