HFE.pdb
     RDKit          3D

 31 32  0  0  1  0  0  0  0  0999 V2000
    8.3897  -17.3808   19.9374 N   0  0  0  0  0  0  0  0  0  0  0  0
    9.6944  -16.7495   20.0196 C   0  0  1  0  0  0  0  0  0  0  0  0
   10.0718  -16.0553   18.7519 C   0  0  0  0  0  0  0  0  0  0  0  0
    9.9984  -16.9985   17.5953 C   0  0  0  0  0  0  0  0  0  0  0  0
   11.0120  -17.7583   17.0600 C   0  0  0  0  0  0  0  0  0  0  0  0
   10.5335  -18.4721   16.0311 N   0  0  0  0  0  0  0  0  0  0  0  0
    9.2497  -18.1681   15.9223 C   0  0  0  0  0  0  0  0  0  0  0  0
    8.8953  -17.2789   16.8544 N   0  0  0  0  0  0  0  0  0  0  0  0
    9.7090  -15.8335   21.1804 C   0  0  0  0  0  0  0  0  0  0  0  0
   10.7852  -15.2443   21.5385 O   0  0  0  0  0  0  0  0  0  0  0  0
    8.5464  -15.5445   21.9684 N   0  0  0  0  0  0  0  0  0  0  0  0
    8.6273  -14.9816   23.2980 C   0  0  1  0  0  0  0  0  0  0  0  0
    7.3172  -14.2350   23.5609 C   0  0  0  0  0  0  0  0  0  0  0  0
    7.3090  -13.5725   24.8895 C   0  0  0  0  0  0  0  0  0  0  0  0
    6.5012  -14.0561   25.9180 C   0  0  0  0  0  0  0  0  0  0  0  0
    6.4529  -13.4842   27.1612 C   0  0  0  0  0  0  0  0  0  0  0  0
    7.2301  -12.3820   27.4248 C   0  0  0  0  0  0  0  0  0  0  0  0
    8.0332  -11.8927   26.4193 C   0  0  0  0  0  0  0  0  0  0  0  0
    8.0805  -12.4690   25.1695 C   0  0  0  0  0  0  0  0  0  0  0  0
    8.7726  -15.9868   24.3672 C   0  0  0  0  0  0  0  0  0  0  0  0
    7.8903  -16.8456   24.5773 O   0  0  0  0  0  0  0  0  0  0  0  0
    9.9524  -15.9452   25.1525 N   0  0  0  0  0  0  0  0  0  0  0  0
   10.3214  -17.0426   26.0725 C   0  0  1  0  0  0  0  0  0  0  0  0
   11.7391  -17.3865   25.7329 C   0  0  0  0  0  0  0  0  0  0  0  0
   12.4201  -18.3861   26.5973 C   0  0  0  0  0  0  0  0  0  0  0  0
   13.8171  -18.6819   26.2408 C   0  0  0  0  0  0  0  0  0  0  0  0
   14.4498  -19.5327   26.9340 O   0  0  0  0  0  0  0  0  0  0  0  0
   10.0555  -16.7612   27.4580 C   0  0  0  0  0  0  0  0  0  0  0  0
    9.6625  -17.6467   28.2711 O   0  0  0  0  0  0  0  0  0  0  0  0
   14.4501  -18.0643   25.1832 O   0  0  0  0  0  0  0  0  0  0  0  0
   10.2408  -15.4453   27.9248 O   0  0  0  0  0  0  0  0  0  0  0  0
  2  1  1  6
  3  2  1  0
  3  4  1  0
  4  8  1  0
  4  5  2  0
  5  6  1  0
  7  6  1  0
  8  7  2  0
  9  2  1  0
 10  9  2  0
 11  9  1  0
 12 11  1  0
 13 14  1  0
 12 13  1  1
 14 15  2  0
 15 16  1  0
 17 16  2  0
 18 17  1  0
 19 14  1  0
 19 18  2  0
 20 22  1  0
 20 12  1  0
 21 20  2  0
 23 24  1  1
 23 22  1  0
 25 24  1  0
 26 25  1  0
 27 26  2  0
 28 23  1  0
 29 28  2  0
 30 26  1  0
 31 28  1  0
M  END
$$$$
