HFE.pdb
     RDKit          3D

 31 32  0  0  1  0  0  0  0  0999 V2000
 1029.7299 2126.8105-1133.8629 N   0  0  0  0  0  0  0  0  0  0  0  0
 1030.1864 2127.7498-1132.8539 C   0  0  1  0  0  0  0  0  0  0  0  0
 1029.9452 2127.2561-1131.4652 C   0  0  0  0  0  0  0  0  0  0  0  0
 1031.2107 2127.2852-1130.6702 C   0  0  0  0  0  0  0  0  0  0  0  0
 1031.6877 2128.3062-1129.8816 C   0  0  0  0  0  0  0  0  0  0  0  0
 1032.8557 2127.9353-1129.3381 N   0  0  0  0  0  0  0  0  0  0  0  0
 1033.1072 2126.7122-1129.7751 C   0  0  0  0  0  0  0  0  0  0  0  0
 1032.1302 2126.2898-1130.5833 N   0  0  0  0  0  0  0  0  0  0  0  0
 1031.6134 2128.0532-1133.0959 C   0  0  0  0  0  0  0  0  0  0  0  0
 1032.4148 2128.2620-1132.1224 O   0  0  0  0  0  0  0  0  0  0  0  0
 1032.1896 2128.1306-1134.4069 N   0  0  0  0  0  0  0  0  0  0  0  0
 1033.4889 2128.7161-1134.6531 C   0  0  1  0  0  0  0  0  0  0  0  0
 1033.4403 2130.1648-1134.1621 C   0  0  0  0  0  0  0  0  0  0  0  0
 1034.7780 2130.6597-1133.7495 C   0  0  0  0  0  0  0  0  0  0  0  0
 1035.0365 2130.9768-1132.4165 C   0  0  0  0  0  0  0  0  0  0  0  0
 1036.2499 2131.4377-1131.9812 C   0  0  0  0  0  0  0  0  0  0  0  0
 1037.2710 2131.6025-1132.8859 C   0  0  0  0  0  0  0  0  0  0  0  0
 1037.0309 2131.2939-1134.2053 C   0  0  0  0  0  0  0  0  0  0  0  0
 1035.8099 2130.8301-1134.6422 C   0  0  0  0  0  0  0  0  0  0  0  0
 1034.5916 2128.0537-1133.9321 C   0  0  0  0  0  0  0  0  0  0  0  0
 1035.1593 2128.6021-1132.9646 O   0  0  0  0  0  0  0  0  0  0  0  0
 1034.9879 2126.7666-1134.3770 N   0  0  0  0  0  0  0  0  0  0  0  0
 1036.3871 2126.2979-1134.2738 C   0  0  1  0  0  0  0  0  0  0  0  0
 1036.2950 2124.8264-1134.0084 C   0  0  0  0  0  0  0  0  0  0  0  0
 1035.7782 2124.4082-1132.6786 C   0  0  0  0  0  0  0  0  0  0  0  0
 1036.7526 2123.7324-1131.8069 C   0  0  0  0  0  0  0  0  0  0  0  0
 1036.5126 2122.5435-1131.4413 O   0  0  0  0  0  0  0  0  0  0  0  0
 1037.2191 2126.6880-1135.3807 C   0  0  0  0  0  0  0  0  0  0  0  0
 1037.7966 2125.8484-1136.1294 O   0  0  0  0  0  0  0  0  0  0  0  0
 1037.9083 2124.3511-1131.3812 O   0  0  0  0  0  0  0  0  0  0  0  0
 1037.3965 2128.0610-1135.6381 O   0  0  0  0  0  0  0  0  0  0  0  0
  2  1  1  6
  3  2  1  0
  3  4  1  0
  4  8  1  0
  4  5  2  0
  5  6  1  0
  7  6  1  0
  8  7  2  0
  9  2  1  0
 10  9  2  0
 11  9  1  0
 12 11  1  0
 13 14  1  0
 12 13  1  1
 14 15  2  0
 15 16  1  0
 17 16  2  0
 18 17  1  0
 19 14  1  0
 19 18  2  0
 20 22  1  0
 20 12  1  0
 21 20  2  0
 23 24  1  6
 23 22  1  0
 25 24  1  0
 26 25  1  0
 27 26  2  0
 28 23  1  0
 29 28  2  0
 30 26  1  0
 31 28  1  0
M  END
$$$$
