HFE.pdb
     RDKit          3D

 31 32  0  0  1  0  0  0  0  0999 V2000
    8.1500  -17.0510   19.7174 N   0  0  0  0  0  0  0  0  0  0  0  0
    9.5083  -16.6148   19.9868 C   0  0  1  0  0  0  0  0  0  0  0  0
   10.0837  -15.8177   18.8621 C   0  0  0  0  0  0  0  0  0  0  0  0
    9.1650  -14.7006   18.4869 C   0  0  0  0  0  0  0  0  0  0  0  0
    9.0374  -13.4728   19.0930 C   0  0  0  0  0  0  0  0  0  0  0  0
    8.1032  -12.7574   18.4505 N   0  0  0  0  0  0  0  0  0  0  0  0
    7.6544  -13.5176   17.4641 C   0  0  0  0  0  0  0  0  0  0  0  0
    8.2770  -14.6997   17.4594 N   0  0  0  0  0  0  0  0  0  0  0  0
    9.5255  -15.8682   21.2630 C   0  0  0  0  0  0  0  0  0  0  0  0
   10.6248  -15.4539   21.7666 O   0  0  0  0  0  0  0  0  0  0  0  0
    8.3408  -15.5600   22.0096 N   0  0  0  0  0  0  0  0  0  0  0  0
    8.3834  -15.0500   23.3621 C   0  0  1  0  0  0  0  0  0  0  0  0
    7.1007  -14.2466   23.5904 C   0  0  0  0  0  0  0  0  0  0  0  0
    7.0650  -13.6225   24.9370 C   0  0  0  0  0  0  0  0  0  0  0  0
    7.9117  -12.5593   25.2485 C   0  0  0  0  0  0  0  0  0  0  0  0
    7.9225  -11.9475   26.4735 C   0  0  0  0  0  0  0  0  0  0  0  0
    7.0655  -12.3888   27.4528 C   0  0  0  0  0  0  0  0  0  0  0  0
    6.2231  -13.4377   27.1605 C   0  0  0  0  0  0  0  0  0  0  0  0
    6.2137  -14.0520   25.9281 C   0  0  0  0  0  0  0  0  0  0  0  0
    8.4251  -16.0989   24.3978 C   0  0  0  0  0  0  0  0  0  0  0  0
    7.5083  -16.9399   24.5095 O   0  0  0  0  0  0  0  0  0  0  0  0
    9.5453  -16.1206   25.2667 N   0  0  0  0  0  0  0  0  0  0  0  0
    9.7959  -17.2436   26.1955 C   0  0  1  0  0  0  0  0  0  0  0  0
   10.9988  -17.9502   25.6500 C   0  0  0  0  0  0  0  0  0  0  0  0
   11.4869  -19.1366   26.4011 C   0  0  0  0  0  0  0  0  0  0  0  0
   12.7742  -19.6862   25.9462 C   0  0  0  0  0  0  0  0  0  0  0  0
   13.4029  -19.0741   25.0325 O   0  0  0  0  0  0  0  0  0  0  0  0
    9.8660  -16.8562   27.5792 C   0  0  0  0  0  0  0  0  0  0  0  0
    9.9110  -17.6979   28.5223 O   0  0  0  0  0  0  0  0  0  0  0  0
   13.3097  -20.8381   26.4820 O   0  0  0  0  0  0  0  0  0  0  0  0
    9.8847  -15.4833   27.8933 O   0  0  0  0  0  0  0  0  0  0  0  0
  2  1  1  6
  3  2  1  0
  3  4  1  0
  4  8  1  0
  4  5  2  0
  5  6  1  0
  7  6  1  0
  8  7  2  0
  9  2  1  0
 10  9  2  0
 11  9  1  0
 12 11  1  0
 13 14  1  0
 12 13  1  1
 14 15  2  0
 15 16  1  0
 17 16  2  0
 18 17  1  0
 19 14  1  0
 19 18  2  0
 20 22  1  0
 20 12  1  0
 21 20  2  0
 23 24  1  6
 23 22  1  0
 25 24  1  0
 26 25  1  0
 27 26  2  0
 28 23  1  0
 29 28  2  0
 30 26  1  0
 31 28  1  0
M  END
$$$$
