HFE.pdb
     RDKit          3D

 31 32  0  0  1  0  0  0  0  0999 V2000
    7.8726  -16.5618   20.3351 N   0  0  0  0  0  0  0  0  0  0  0  0
    9.1406  -16.9015   20.9552 C   0  0  1  0  0  0  0  0  0  0  0  0
   10.3089  -16.5350   20.0996 C   0  0  0  0  0  0  0  0  0  0  0  0
   10.1332  -17.0684   18.7150 C   0  0  0  0  0  0  0  0  0  0  0  0
   10.2108  -18.3766   18.2980 C   0  0  0  0  0  0  0  0  0  0  0  0
    9.9900  -18.4336   16.9770 N   0  0  0  0  0  0  0  0  0  0  0  0
    9.7785  -17.1907   16.5732 C   0  0  0  0  0  0  0  0  0  0  0  0
    9.8586  -16.3412   17.6013 N   0  0  0  0  0  0  0  0  0  0  0  0
    9.2060  -16.2641   22.2878 C   0  0  0  0  0  0  0  0  0  0  0  0
   10.2100  -15.5485   22.6249 O   0  0  0  0  0  0  0  0  0  0  0  0
    8.1738  -16.3966   23.2742 N   0  0  0  0  0  0  0  0  0  0  0  0
    8.3940  -16.1119   24.6748 C   0  0  1  0  0  0  0  0  0  0  0  0
    7.0600  -15.6467   25.2640 C   0  0  0  0  0  0  0  0  0  0  0  0
    7.1091  -14.2308   25.7077 C   0  0  0  0  0  0  0  0  0  0  0  0
    6.4122  -13.2446   25.0105 C   0  0  0  0  0  0  0  0  0  0  0  0
    6.4231  -11.9244   25.3736 C   0  0  0  0  0  0  0  0  0  0  0  0
    7.1492  -11.5358   26.4736 C   0  0  0  0  0  0  0  0  0  0  0  0
    7.8426  -12.4980   27.1726 C   0  0  0  0  0  0  0  0  0  0  0  0
    7.8307  -13.8253   26.8060 C   0  0  0  0  0  0  0  0  0  0  0  0
    8.8294  -17.2797   25.4631 C   0  0  0  0  0  0  0  0  0  0  0  0
    8.1640  -18.3366   25.4825 O   0  0  0  0  0  0  0  0  0  0  0  0
   10.0338  -17.1618   26.2020 N   0  0  0  0  0  0  0  0  0  0  0  0
   10.5209  -18.2428   27.0857 C   0  0  1  0  0  0  0  0  0  0  0  0
   11.9513  -18.4596   26.6978 C   0  0  0  0  0  0  0  0  0  0  0  0
   12.2279  -18.7625   25.2689 C   0  0  0  0  0  0  0  0  0  0  0  0
   13.6451  -18.9703   24.9303 C   0  0  0  0  0  0  0  0  0  0  0  0
   14.1874  -18.1873   24.0951 O   0  0  0  0  0  0  0  0  0  0  0  0
   10.2749  -18.0130   28.4844 C   0  0  0  0  0  0  0  0  0  0  0  0
    9.8131  -16.9213   28.9258 O   0  0  0  0  0  0  0  0  0  0  0  0
   14.3917  -19.9843   25.4917 O   0  0  0  0  0  0  0  0  0  0  0  0
   10.5613  -19.0472   29.3966 O   0  0  0  0  0  0  0  0  0  0  0  0
  2  1  1  6
  3  2  1  0
  3  4  1  0
  4  8  1  0
  4  5  2  0
  5  6  1  0
  7  6  1  0
  8  7  2  0
  9  2  1  0
 10  9  2  0
 11  9  1  0
 12 11  1  0
 13 14  1  0
 12 13  1  1
 14 15  2  0
 15 16  1  0
 17 16  2  0
 18 17  1  0
 19 14  1  0
 19 18  2  0
 20 22  1  0
 20 12  1  0
 21 20  2  0
 23 24  1  1
 23 22  1  0
 25 24  1  0
 26 25  1  0
 27 26  2  0
 28 23  1  0
 29 28  2  0
 30 26  1  0
 31 28  1  0
M  END
$$$$
