HFE.pdb
     RDKit          3D

 31 32  0  0  1  0  0  0  0  0999 V2000
    8.8320  -17.2239   20.0858 N   0  0  0  0  0  0  0  0  0  0  0  0
   10.1771  -16.9436   20.5548 C   0  0  1  0  0  0  0  0  0  0  0  0
   11.0456  -16.3702   19.4833 C   0  0  0  0  0  0  0  0  0  0  0  0
   10.9226  -17.1673   18.2255 C   0  0  0  0  0  0  0  0  0  0  0  0
   11.4224  -18.4226   17.9692 C   0  0  0  0  0  0  0  0  0  0  0  0
   11.0919  -18.7839   16.7213 N   0  0  0  0  0  0  0  0  0  0  0  0
   10.4008  -17.7796   16.2054 C   0  0  0  0  0  0  0  0  0  0  0  0
   10.2810  -16.7861   17.0908 N   0  0  0  0  0  0  0  0  0  0  0  0
   10.0957  -16.0590   21.7369 C   0  0  0  0  0  0  0  0  0  0  0  0
   11.1540  -15.6537   22.3280 O   0  0  0  0  0  0  0  0  0  0  0  0
    8.8555  -15.6006   22.2919 N   0  0  0  0  0  0  0  0  0  0  0  0
    8.7528  -15.0637   23.6306 C   0  0  1  0  0  0  0  0  0  0  0  0
    7.4362  -14.2874   23.7142 C   0  0  0  0  0  0  0  0  0  0  0  0
    7.2856  -13.5815   25.0115 C   0  0  0  0  0  0  0  0  0  0  0  0
    8.0529  -12.4531   25.2981 C   0  0  0  0  0  0  0  0  0  0  0  0
    7.9566  -11.7644   26.4777 C   0  0  0  0  0  0  0  0  0  0  0  0
    7.0675  -12.1912   27.4345 C   0  0  0  0  0  0  0  0  0  0  0  0
    6.3024  -13.3040   27.1663 C   0  0  0  0  0  0  0  0  0  0  0  0
    6.4007  -13.9955   25.9795 C   0  0  0  0  0  0  0  0  0  0  0  0
    8.7153  -16.0910   24.6879 C   0  0  0  0  0  0  0  0  0  0  0  0
    7.7755  -16.9102   24.7663 O   0  0  0  0  0  0  0  0  0  0  0  0
    9.7860  -16.1176   25.6169 N   0  0  0  0  0  0  0  0  0  0  0  0
    9.9184  -17.1858   26.6310 C   0  0  1  0  0  0  0  0  0  0  0  0
   11.1678  -17.9273   26.2670 C   0  0  0  0  0  0  0  0  0  0  0  0
   11.5688  -19.0546   27.1494 C   0  0  0  0  0  0  0  0  0  0  0  0
   13.0102  -19.3505   27.1803 C   0  0  0  0  0  0  0  0  0  0  0  0
   13.7611  -18.7839   26.3319 O   0  0  0  0  0  0  0  0  0  0  0  0
    9.8354  -16.7189   27.9892 C   0  0  0  0  0  0  0  0  0  0  0  0
   10.2074  -15.5610   28.3369 O   0  0  0  0  0  0  0  0  0  0  0  0
   13.5605  -20.2191   28.0986 O   0  0  0  0  0  0  0  0  0  0  0  0
    9.3190  -17.5888   28.9692 O   0  0  0  0  0  0  0  0  0  0  0  0
  2  1  1  6
  3  2  1  0
  3  4  1  0
  4  8  1  0
  4  5  2  0
  5  6  1  0
  7  6  1  0
  8  7  2  0
  9  2  1  0
 10  9  2  0
 11  9  1  0
 12 11  1  0
 13 14  1  0
 12 13  1  6
 14 15  2  0
 15 16  1  0
 17 16  2  0
 18 17  1  0
 19 14  1  0
 19 18  2  0
 20 22  1  0
 20 12  1  0
 21 20  2  0
 23 24  1  1
 23 22  1  0
 25 24  1  0
 26 25  1  0
 27 26  2  0
 28 23  1  0
 29 28  2  0
 30 26  1  0
 31 28  1  0
M  END
$$$$
