HFE.pdb
     RDKit          3D

 31 32  0  0  1  0  0  0  0  0999 V2000
   10.0706  -16.5802   19.1006 N   0  0  0  0  0  0  0  0  0  0  0  0
    8.9076  -16.8350   19.9314 C   0  0  1  0  0  0  0  0  0  0  0  0
    8.6254  -18.2939   20.0836 C   0  0  0  0  0  0  0  0  0  0  0  0
    8.3885  -18.9245   18.7499 C   0  0  0  0  0  0  0  0  0  0  0  0
    7.3665  -18.6705   17.8655 C   0  0  0  0  0  0  0  0  0  0  0  0
    7.5161  -19.4459   16.7822 N   0  0  0  0  0  0  0  0  0  0  0  0
    8.6062  -20.1701   16.9811 C   0  0  0  0  0  0  0  0  0  0  0  0
    9.1570  -19.8780   18.1627 N   0  0  0  0  0  0  0  0  0  0  0  0
    9.0981  -16.1666   21.2366 C   0  0  0  0  0  0  0  0  0  0  0  0
   10.1902  -16.2966   21.8878 O   0  0  0  0  0  0  0  0  0  0  0  0
    8.0982  -15.3431   21.8515 N   0  0  0  0  0  0  0  0  0  0  0  0
    8.2306  -14.8316   23.1975 C   0  0  1  0  0  0  0  0  0  0  0  0
    7.0723  -13.8596   23.4354 C   0  0  0  0  0  0  0  0  0  0  0  0
    7.0973  -13.2854   24.8042 C   0  0  0  0  0  0  0  0  0  0  0  0
    7.9906  -12.2652   25.1291 C   0  0  0  0  0  0  0  0  0  0  0  0
    8.0580  -11.7004   26.3747 C   0  0  0  0  0  0  0  0  0  0  0  0
    7.2135  -12.1475   27.3621 C   0  0  0  0  0  0  0  0  0  0  0  0
    6.3255  -13.1543   27.0568 C   0  0  0  0  0  0  0  0  0  0  0  0
    6.2591  -13.7214   25.8036 C   0  0  0  0  0  0  0  0  0  0  0  0
    8.1459  -15.8672   24.2440 C   0  0  0  0  0  0  0  0  0  0  0  0
    7.1560  -16.6238   24.3322 O   0  0  0  0  0  0  0  0  0  0  0  0
    9.2304  -15.9754   25.1509 N   0  0  0  0  0  0  0  0  0  0  0  0
    9.3076  -17.0576   26.1557 C   0  0  1  0  0  0  0  0  0  0  0  0
   10.1829  -18.1075   25.5432 C   0  0  0  0  0  0  0  0  0  0  0  0
   11.6441  -17.8360   25.5076 C   0  0  0  0  0  0  0  0  0  0  0  0
   12.4661  -18.8842   24.8818 C   0  0  0  0  0  0  0  0  0  0  0  0
   11.8970  -19.9486   24.4972 O   0  0  0  0  0  0  0  0  0  0  0  0
    9.6840  -16.6117   27.4707 C   0  0  0  0  0  0  0  0  0  0  0  0
    9.6381  -17.3647   28.4860 O   0  0  0  0  0  0  0  0  0  0  0  0
   13.8258  -18.7410   24.7043 O   0  0  0  0  0  0  0  0  0  0  0  0
   10.1203  -15.2821   27.6308 O   0  0  0  0  0  0  0  0  0  0  0  0
  2  1  1  6
  3  2  1  0
  3  4  1  0
  4  8  1  0
  4  5  2  0
  5  6  1  0
  7  6  1  0
  8  7  2  0
  9  2  1  0
 10  9  2  0
 11  9  1  0
 12 11  1  0
 13 14  1  0
 12 13  1  1
 14 15  2  0
 15 16  1  0
 17 16  2  0
 18 17  1  0
 19 14  1  0
 19 18  2  0
 20 22  1  0
 20 12  1  0
 21 20  2  0
 23 24  1  6
 23 22  1  0
 25 24  1  0
 26 25  1  0
 27 26  2  0
 28 23  1  0
 29 28  2  0
 30 26  1  0
 31 28  1  0
M  END
$$$$
