HFE.pdb
     RDKit          3D

 31 32  0  0  1  0  0  0  0  0999 V2000
    9.0601  -17.2615   19.9166 N   0  0  0  0  0  0  0  0  0  0  0  0
   10.3647  -17.0590   20.5206 C   0  0  1  0  0  0  0  0  0  0  0  0
   11.3898  -16.6193   19.5271 C   0  0  0  0  0  0  0  0  0  0  0  0
   11.0444  -17.1171   18.1613 C   0  0  0  0  0  0  0  0  0  0  0  0
    9.8402  -17.6175   17.7247 C   0  0  0  0  0  0  0  0  0  0  0  0
    9.9436  -17.9528   16.4309 N   0  0  0  0  0  0  0  0  0  0  0  0
   11.1833  -17.6698   16.0630 C   0  0  0  0  0  0  0  0  0  0  0  0
   11.8747  -17.1626   17.0876 N   0  0  0  0  0  0  0  0  0  0  0  0
   10.2290  -16.1022   21.6398 C   0  0  0  0  0  0  0  0  0  0  0  0
   11.2603  -15.5898   22.1943 O   0  0  0  0  0  0  0  0  0  0  0  0
    8.9632  -15.6876   22.1706 N   0  0  0  0  0  0  0  0  0  0  0  0
    8.8261  -15.0902   23.4804 C   0  0  1  0  0  0  0  0  0  0  0  0
    7.4393  -14.4458   23.5482 C   0  0  0  0  0  0  0  0  0  0  0  0
    7.2169  -13.7332   24.8315 C   0  0  0  0  0  0  0  0  0  0  0  0
    6.3299  -14.2409   25.7800 C   0  0  0  0  0  0  0  0  0  0  0  0
    6.0853  -13.6254   26.9785 C   0  0  0  0  0  0  0  0  0  0  0  0
    6.7356  -12.4522   27.2766 C   0  0  0  0  0  0  0  0  0  0  0  0
    7.6148  -11.9382   26.3502 C   0  0  0  0  0  0  0  0  0  0  0  0
    7.8595  -12.5585   25.1453 C   0  0  0  0  0  0  0  0  0  0  0  0
    8.9073  -16.0560   24.5918 C   0  0  0  0  0  0  0  0  0  0  0  0
    8.0968  -17.0009   24.6934 O   0  0  0  0  0  0  0  0  0  0  0  0
    9.9406  -15.8750   25.5457 N   0  0  0  0  0  0  0  0  0  0  0  0
   10.2143  -16.8708   26.6041 C   0  0  1  0  0  0  0  0  0  0  0  0
   11.5905  -17.3878   26.3175 C   0  0  0  0  0  0  0  0  0  0  0  0
   11.7023  -18.7931   25.8454 C   0  0  0  0  0  0  0  0  0  0  0  0
   13.0683  -19.2518   25.5458 C   0  0  0  0  0  0  0  0  0  0  0  0
   14.0303  -18.4505   25.7390 O   0  0  0  0  0  0  0  0  0  0  0  0
    9.9887  -16.3850   27.9393 C   0  0  0  0  0  0  0  0  0  0  0  0
    9.9049  -17.1538   28.9403 O   0  0  0  0  0  0  0  0  0  0  0  0
   13.3274  -20.5178   25.0653 O   0  0  0  0  0  0  0  0  0  0  0  0
    9.8557  -14.9968   28.1366 O   0  0  0  0  0  0  0  0  0  0  0  0
  2  1  1  6
  3  2  1  0
  3  4  1  0
  4  8  1  0
  4  5  2  0
  5  6  1  0
  7  6  1  0
  8  7  2  0
  9  2  1  0
 10  9  2  0
 11  9  1  0
 12 11  1  0
 13 14  1  0
 12 13  1  6
 14 15  2  0
 15 16  1  0
 17 16  2  0
 18 17  1  0
 19 14  1  0
 19 18  2  0
 20 22  1  0
 20 12  1  0
 21 20  2  0
 23 24  1  1
 23 22  1  0
 25 24  1  0
 26 25  1  0
 27 26  2  0
 28 23  1  0
 29 28  2  0
 30 26  1  0
 31 28  1  0
M  END
$$$$
