HFE.pdb
     RDKit          3D

 31 32  0  0  1  0  0  0  0  0999 V2000
    9.2262  -15.9929   18.7374 N   0  0  0  0  0  0  0  0  0  0  0  0
    8.3671  -16.5475   19.7681 C   0  0  1  0  0  0  0  0  0  0  0  0
    8.4145  -18.0400   19.8063 C   0  0  0  0  0  0  0  0  0  0  0  0
    7.8886  -18.6145   18.5311 C   0  0  0  0  0  0  0  0  0  0  0  0
    8.5353  -19.4515   17.6523 C   0  0  0  0  0  0  0  0  0  0  0  0
    7.7157  -19.7394   16.6313 N   0  0  0  0  0  0  0  0  0  0  0  0
    6.5808  -19.0985   16.8629 C   0  0  0  0  0  0  0  0  0  0  0  0
    6.6537  -18.4087   18.0048 N   0  0  0  0  0  0  0  0  0  0  0  0
    8.7330  -15.9464   21.0686 C   0  0  0  0  0  0  0  0  0  0  0  0
    9.8361  -16.2430   21.6420 O   0  0  0  0  0  0  0  0  0  0  0  0
    7.8997  -15.0090   21.7636 N   0  0  0  0  0  0  0  0  0  0  0  0
    8.1896  -14.5554   23.1058 C   0  0  1  0  0  0  0  0  0  0  0  0
    7.0235  -13.6707   23.5533 C   0  0  0  0  0  0  0  0  0  0  0  0
    7.2244  -13.1323   24.9222 C   0  0  0  0  0  0  0  0  0  0  0  0
    6.4124  -13.5517   25.9754 C   0  0  0  0  0  0  0  0  0  0  0  0
    6.5518  -13.0879   27.2562 C   0  0  0  0  0  0  0  0  0  0  0  0
    7.5322  -12.1662   27.5343 C   0  0  0  0  0  0  0  0  0  0  0  0
    8.3422  -11.7423   26.5049 C   0  0  0  0  0  0  0  0  0  0  0  0
    8.2006  -12.2097   25.2174 C   0  0  0  0  0  0  0  0  0  0  0  0
    8.3092  -15.6433   24.0941 C   0  0  0  0  0  0  0  0  0  0  0  0
    7.4002  -16.4862   24.2472 O   0  0  0  0  0  0  0  0  0  0  0  0
    9.4956  -15.7004   24.8685 N   0  0  0  0  0  0  0  0  0  0  0  0
    9.7881  -16.8331   25.7730 C   0  0  1  0  0  0  0  0  0  0  0  0
   11.0152  -17.4836   25.2119 C   0  0  0  0  0  0  0  0  0  0  0  0
   11.5891  -18.6220   25.9765 C   0  0  0  0  0  0  0  0  0  0  0  0
   12.8074  -19.2171   25.4039 C   0  0  0  0  0  0  0  0  0  0  0  0
   12.7228  -19.8084   24.2868 O   0  0  0  0  0  0  0  0  0  0  0  0
    9.8458  -16.4730   27.1646 C   0  0  0  0  0  0  0  0  0  0  0  0
   10.1785  -15.3176   27.5575 O   0  0  0  0  0  0  0  0  0  0  0  0
   14.0267  -19.1493   26.0437 O   0  0  0  0  0  0  0  0  0  0  0  0
    9.5185  -17.4488   28.1261 O   0  0  0  0  0  0  0  0  0  0  0  0
  2  1  1  6
  3  2  1  0
  3  4  1  0
  4  8  1  0
  4  5  2  0
  5  6  1  0
  7  6  1  0
  8  7  2  0
  9  2  1  0
 10  9  2  0
 11  9  1  0
 12 11  1  0
 13 14  1  0
 12 13  1  1
 14 15  2  0
 15 16  1  0
 17 16  2  0
 18 17  1  0
 19 14  1  0
 19 18  2  0
 20 22  1  0
 20 12  1  0
 21 20  2  0
 23 24  1  6
 23 22  1  0
 25 24  1  0
 26 25  1  0
 27 26  2  0
 28 23  1  0
 29 28  2  0
 30 26  1  0
 31 28  1  0
M  END
$$$$
