HFE.pdb
     RDKit          3D

 31 32  0  0  1  0  0  0  0  0999 V2000
    9.3612  -12.9242   18.6797 N   0  0  0  0  0  0  0  0  0  0  0  0
    8.4277  -13.8821   19.2444 C   0  0  1  0  0  0  0  0  0  0  0  0
    8.5015  -15.2135   18.5713 C   0  0  0  0  0  0  0  0  0  0  0  0
    8.3268  -15.0655   17.0948 C   0  0  0  0  0  0  0  0  0  0  0  0
    7.5253  -14.1710   16.4250 C   0  0  0  0  0  0  0  0  0  0  0  0
    7.6550  -14.3634   15.1047 N   0  0  0  0  0  0  0  0  0  0  0  0
    8.5176  -15.3554   14.9483 C   0  0  0  0  0  0  0  0  0  0  0  0
    8.9423  -15.8018   16.1338 N   0  0  0  0  0  0  0  0  0  0  0  0
    8.6679  -13.9812   20.7001 C   0  0  0  0  0  0  0  0  0  0  0  0
    9.8080  -14.3377   21.1548 O   0  0  0  0  0  0  0  0  0  0  0  0
    7.6660  -13.6904   21.6838 N   0  0  0  0  0  0  0  0  0  0  0  0
    7.9047  -13.8304   23.1032 C   0  0  1  0  0  0  0  0  0  0  0  0
    6.7053  -13.2203   23.8327 C   0  0  0  0  0  0  0  0  0  0  0  0
    6.9226  -13.1459   25.2994 C   0  0  0  0  0  0  0  0  0  0  0  0
    7.7372  -12.1551   25.8463 C   0  0  0  0  0  0  0  0  0  0  0  0
    7.9737  -12.0404   27.1901 C   0  0  0  0  0  0  0  0  0  0  0  0
    7.3891  -12.9347   28.0543 C   0  0  0  0  0  0  0  0  0  0  0  0
    6.5820  -13.9188   27.5295 C   0  0  0  0  0  0  0  0  0  0  0  0
    6.3453  -14.0328   26.1778 C   0  0  0  0  0  0  0  0  0  0  0  0
    8.0196  -15.2287   23.5572 C   0  0  0  0  0  0  0  0  0  0  0  0
    7.1380  -16.0732   23.2931 O   0  0  0  0  0  0  0  0  0  0  0  0
    9.1691  -15.5838   24.3074 N   0  0  0  0  0  0  0  0  0  0  0  0
    9.3282  -16.9240   24.9118 C   0  0  1  0  0  0  0  0  0  0  0  0
   10.3520  -17.6212   24.0698 C   0  0  0  0  0  0  0  0  0  0  0  0
   11.7606  -17.5815   24.5434 C   0  0  0  0  0  0  0  0  0  0  0  0
   12.7513  -17.1520   23.5433 C   0  0  0  0  0  0  0  0  0  0  0  0
   13.2286  -18.0208   22.7545 O   0  0  0  0  0  0  0  0  0  0  0  0
    9.5845  -16.9026   26.3273 C   0  0  0  0  0  0  0  0  0  0  0  0
    9.7656  -15.8296   26.9720 O   0  0  0  0  0  0  0  0  0  0  0  0
   13.1703  -15.8424   23.4422 O   0  0  0  0  0  0  0  0  0  0  0  0
    9.6358  -18.1278   27.0202 O   0  0  0  0  0  0  0  0  0  0  0  0
  2  1  1  6
  3  2  1  0
  3  4  1  0
  4  8  1  0
  4  5  2  0
  5  6  1  0
  7  6  1  0
  8  7  2  0
  9  2  1  0
 10  9  2  0
 11  9  1  0
 12 11  1  0
 13 14  1  0
 12 13  1  1
 14 15  2  0
 15 16  1  0
 17 16  2  0
 18 17  1  0
 19 14  1  0
 19 18  2  0
 20 22  1  0
 20 12  1  0
 21 20  2  0
 23 24  1  6
 23 22  1  0
 25 24  1  0
 26 25  1  0
 27 26  2  0
 28 23  1  0
 29 28  2  0
 30 26  1  0
 31 28  1  0
M  END
$$$$
