HFE.pdb
     RDKit          3D

 31 32  0  0  1  0  0  0  0  0999 V2000
    9.9873  -16.4527   19.2668 N   0  0  0  0  0  0  0  0  0  0  0  0
    8.7632  -16.5032   20.0457 C   0  0  1  0  0  0  0  0  0  0  0  0
    8.2119  -17.8875   20.1506 C   0  0  0  0  0  0  0  0  0  0  0  0
    7.6445  -18.3270   18.8401 C   0  0  0  0  0  0  0  0  0  0  0  0
    7.1342  -17.5399   17.8345 C   0  0  0  0  0  0  0  0  0  0  0  0
    6.7281  -18.3215   16.8239 N   0  0  0  0  0  0  0  0  0  0  0  0
    6.9772  -19.5703   17.1858 C   0  0  0  0  0  0  0  0  0  0  0  0
    7.5316  -19.6071   18.4008 N   0  0  0  0  0  0  0  0  0  0  0  0
    9.0176  -15.9042   21.3735 C   0  0  0  0  0  0  0  0  0  0  0  0
   10.1131  -16.1240   21.9941 O   0  0  0  0  0  0  0  0  0  0  0  0
    8.0791  -15.0529   22.0448 N   0  0  0  0  0  0  0  0  0  0  0  0
    8.2677  -14.6082   23.4078 C   0  0  1  0  0  0  0  0  0  0  0  0
    7.1193  -13.6532   23.7423 C   0  0  0  0  0  0  0  0  0  0  0  0
    7.1859  -13.1690   25.1441 C   0  0  0  0  0  0  0  0  0  0  0  0
    6.2460  -13.5886   26.0847 C   0  0  0  0  0  0  0  0  0  0  0  0
    6.2586  -13.1734   27.3895 C   0  0  0  0  0  0  0  0  0  0  0  0
    7.2359  -12.3030   27.8085 C   0  0  0  0  0  0  0  0  0  0  0  0
    8.1714  -11.8796   26.8914 C   0  0  0  0  0  0  0  0  0  0  0  0
    8.1572  -12.2981   25.5796 C   0  0  0  0  0  0  0  0  0  0  0  0
    8.2288  -15.6947   24.4042 C   0  0  0  0  0  0  0  0  0  0  0  0
    7.2058  -16.3929   24.5660 O   0  0  0  0  0  0  0  0  0  0  0  0
    9.3964  -15.9208   25.1761 N   0  0  0  0  0  0  0  0  0  0  0  0
    9.4672  -16.9881   26.1972 C   0  0  1  0  0  0  0  0  0  0  0  0
   10.2041  -18.1162   25.5430 C   0  0  0  0  0  0  0  0  0  0  0  0
   11.5759  -17.8319   25.0455 C   0  0  0  0  0  0  0  0  0  0  0  0
   12.2566  -18.9605   24.3905 C   0  0  0  0  0  0  0  0  0  0  0  0
   11.6436  -20.0655   24.3008 O   0  0  0  0  0  0  0  0  0  0  0  0
    9.9819  -16.5515   27.4677 C   0  0  0  0  0  0  0  0  0  0  0  0
    9.9902  -17.2934   28.4921 O   0  0  0  0  0  0  0  0  0  0  0  0
   13.5310  -18.8493   23.8765 O   0  0  0  0  0  0  0  0  0  0  0  0
   10.4962  -15.2445   27.5719 O   0  0  0  0  0  0  0  0  0  0  0  0
  2  1  1  6
  3  2  1  0
  3  4  1  0
  4  8  1  0
  4  5  2  0
  5  6  1  0
  7  6  1  0
  8  7  2  0
  9  2  1  0
 10  9  2  0
 11  9  1  0
 12 11  1  0
 13 14  1  0
 12 13  1  1
 14 15  2  0
 15 16  1  0
 17 16  2  0
 18 17  1  0
 19 14  1  0
 19 18  2  0
 20 22  1  0
 20 12  1  0
 21 20  2  0
 23 24  1  6
 23 22  1  0
 25 24  1  0
 26 25  1  0
 27 26  2  0
 28 23  1  0
 29 28  2  0
 30 26  1  0
 31 28  1  0
M  END
$$$$
