WDA.pdb
     RDKit          3D

 28 29  0  0  1  0  0  0  0  0999 V2000
    6.6645  -17.6589   24.7860 N   0  0  0  0  0  0  0  0  0  0  0  0
    7.6532  -16.7169   24.3502 C   0  0  1  0  0  0  0  0  0  0  0  0
    8.2085  -15.8861   25.4658 C   0  0  0  0  0  0  0  0  0  0  0  0
    7.1588  -14.9670   25.9525 C   0  0  0  0  0  0  0  0  0  0  0  0
    5.8911  -15.2892   26.3782 C   0  0  0  0  0  0  0  0  0  0  0  0
    5.2141  -14.1879   26.7093 N   0  0  0  0  0  0  0  0  0  0  0  0
    6.0396  -13.1299   26.5020 C   0  0  0  0  0  0  0  0  0  0  0  0
    5.8479  -11.7816   26.6882 C   0  0  0  0  0  0  0  0  0  0  0  0
    6.8649  -10.8999   26.4070 C   0  0  0  0  0  0  0  0  0  0  0  0
    8.0837  -11.3478   25.9378 C   0  0  0  0  0  0  0  0  0  0  0  0
    8.2760  -12.7137   25.7498 C   0  0  0  0  0  0  0  0  0  0  0  0
    7.2641  -13.5996   26.0279 C   0  0  0  0  0  0  0  0  0  0  0  0
    8.8201  -17.4658   23.7564 C   0  0  0  0  0  0  0  0  0  0  0  0
    9.0114  -18.6702   24.0763 O   0  0  0  0  0  0  0  0  0  0  0  0
    9.6918  -16.8185   22.8455 N   0  0  0  0  0  0  0  0  0  0  0  0
   10.9880  -17.5013   22.5764 C   0  0  1  0  0  0  0  0  0  0  0  0
   11.6234  -16.6317   21.5087 C   0  0  0  0  0  0  0  0  0  0  0  0
   12.9105  -17.0502   20.9764 C   0  0  0  0  0  0  0  0  0  0  0  0
   13.2174  -18.2127   20.6536 O   0  0  0  0  0  0  0  0  0  0  0  0
   11.7407  -17.5853   23.8269 C   0  0  0  0  0  0  0  0  0  0  0  0
   12.1771  -16.4686   24.3045 O   0  0  0  0  0  0  0  0  0  0  0  0
   13.9611  -16.1129   20.7781 O   0  0  0  0  0  0  0  0  0  0  0  0
   12.4435  -19.6199   26.8708 C   0  0  0  0  0  0  0  0  0  0  0  0
   12.8465  -18.6269   25.8357 C   0  0  2  0  0  0  0  0  0  0  0  0
   12.0658  -18.6991   24.6059 N   0  0  0  0  0  0  0  0  0  0  0  0
   14.2652  -18.8860   25.4531 C   0  0  0  0  0  0  0  0  0  0  0  0
   14.6287  -19.7078   24.3972 O   0  0  0  0  0  0  0  0  0  0  0  0
   15.2237  -18.3593   26.0840 O   0  0  0  0  0  0  0  0  0  0  0  0
  2  1  1  1
  2  3  1  0
  2 13  1  0
  3  4  1  0
  4  5  2  0
  5  6  1  0
  7  6  1  0
  8  7  2  0
  9  8  1  0
 10 11  1  0
 10  9  2  0
 11 12  2  0
 12  4  1  0
 12  7  1  0
 13 15  1  0
 13 14  2  0
 15 16  1  0
 16 17  1  6
 18 22  1  0
 18 17  1  0
 19 18  2  0
 20 16  1  0
 20 21  2  0
 24 23  1  1
 24 25  1  0
 25 20  1  0
 26 24  1  0
 27 26  1  0
 28 26  2  0
M  END
$$$$
