WDA.pdb
     RDKit          3D

 28 29  0  0  1  0  0  0  0  0999 V2000
    6.8323  -17.3391   24.0242 N   0  0  0  0  0  0  0  0  0  0  0  0
    7.8762  -16.3567   24.0344 C   0  0  1  0  0  0  0  0  0  0  0  0
    8.0094  -15.6513   25.3489 C   0  0  0  0  0  0  0  0  0  0  0  0
    6.8851  -14.7053   25.5056 C   0  0  0  0  0  0  0  0  0  0  0  0
    5.5485  -15.0030   25.6368 C   0  0  0  0  0  0  0  0  0  0  0  0
    4.8255  -13.8844   25.7195 N   0  0  0  0  0  0  0  0  0  0  0  0
    5.6894  -12.8396   25.6433 C   0  0  0  0  0  0  0  0  0  0  0  0
    5.4751  -11.4825   25.6847 C   0  0  0  0  0  0  0  0  0  0  0  0
    6.5406  -10.6178   25.5949 C   0  0  0  0  0  0  0  0  0  0  0  0
    7.8306  -11.0917   25.4630 C   0  0  0  0  0  0  0  0  0  0  0  0
    8.0457  -12.4665   25.4211 C   0  0  0  0  0  0  0  0  0  0  0  0
    6.9859  -13.3355   25.5095 C   0  0  0  0  0  0  0  0  0  0  0  0
    9.1977  -17.0386   23.7822 C   0  0  0  0  0  0  0  0  0  0  0  0
    9.3143  -18.2715   24.0183 O   0  0  0  0  0  0  0  0  0  0  0  0
   10.2972  -16.2970   23.2824 N   0  0  0  0  0  0  0  0  0  0  0  0
   11.6509  -16.7966   23.6520 C   0  0  1  0  0  0  0  0  0  0  0  0
   12.5664  -16.0609   22.6927 C   0  0  0  0  0  0  0  0  0  0  0  0
   13.9528  -16.4942   22.6178 C   0  0  0  0  0  0  0  0  0  0  0  0
   14.9378  -15.8412   23.0090 O   0  0  0  0  0  0  0  0  0  0  0  0
   11.8855  -16.5087   25.0660 C   0  0  0  0  0  0  0  0  0  0  0  0
   12.9784  -16.9766   25.5683 O   0  0  0  0  0  0  0  0  0  0  0  0
   14.2965  -17.7578   22.0640 O   0  0  0  0  0  0  0  0  0  0  0  0
   10.8701  -14.2772   27.9197 C   0  0  0  0  0  0  0  0  0  0  0  0
   11.5321  -15.4778   27.3367 C   0  0  2  0  0  0  0  0  0  0  0  0
   11.1060  -15.7911   25.9775 N   0  0  0  0  0  0  0  0  0  0  0  0
   11.1889  -16.6649   28.1728 C   0  0  0  0  0  0  0  0  0  0  0  0
   10.5519  -17.7891   27.6698 O   0  0  0  0  0  0  0  0  0  0  0  0
   11.4669  -16.7056   29.4036 O   0  0  0  0  0  0  0  0  0  0  0  0
  2  1  1  1
  2  3  1  0
  2 13  1  0
  3  4  1  0
  4  5  2  0
  5  6  1  0
  7  6  1  0
  8  7  2  0
  9  8  1  0
 10 11  1  0
 10  9  2  0
 11 12  2  0
 12  4  1  0
 12  7  1  0
 13 15  1  0
 13 14  2  0
 15 16  1  0
 16 17  1  6
 18 22  1  0
 18 17  1  0
 19 18  2  0
 20 16  1  0
 20 21  2  0
 24 23  1  1
 24 25  1  0
 25 20  1  0
 26 24  1  0
 27 26  1  0
 28 26  2  0
M  END
$$$$
