WDA.pdb
     RDKit          3D

 28 29  0  0  1  0  0  0  0  0999 V2000
    6.9654  -16.7573   23.3319 N   0  0  0  0  0  0  0  0  0  0  0  0
    8.1459  -16.1693   22.7703 C   0  0  1  0  0  0  0  0  0  0  0  0
    8.4414  -14.8053   23.3141 C   0  0  0  0  0  0  0  0  0  0  0  0
    7.4928  -14.5049   24.4066 C   0  0  0  0  0  0  0  0  0  0  0  0
    6.8112  -15.4004   25.1977 C   0  0  0  0  0  0  0  0  0  0  0  0
    6.0156  -14.7573   26.0545 N   0  0  0  0  0  0  0  0  0  0  0  0
    6.1723  -13.4274   25.8295 C   0  0  0  0  0  0  0  0  0  0  0  0
    5.5994  -12.3332   26.4327 C   0  0  0  0  0  0  0  0  0  0  0  0
    5.9395  -11.0666   26.0191 C   0  0  0  0  0  0  0  0  0  0  0  0
    6.8526  -10.8731   25.0017 C   0  0  0  0  0  0  0  0  0  0  0  0
    7.4317  -11.9825   24.3918 C   0  0  0  0  0  0  0  0  0  0  0  0
    7.0957  -13.2501   24.7996 C   0  0  0  0  0  0  0  0  0  0  0  0
    9.3363  -17.0301   23.1123 C   0  0  0  0  0  0  0  0  0  0  0  0
    9.6114  -18.0241   22.3872 O   0  0  0  0  0  0  0  0  0  0  0  0
   10.1381  -16.7205   24.2392 N   0  0  0  0  0  0  0  0  0  0  0  0
   11.5949  -17.0022   24.1080 C   0  0  1  0  0  0  0  0  0  0  0  0
   12.0185  -16.1111   22.9563 C   0  0  0  0  0  0  0  0  0  0  0  0
   12.6758  -16.7418   21.8225 C   0  0  0  0  0  0  0  0  0  0  0  0
   12.2475  -16.7570   20.6537 O   0  0  0  0  0  0  0  0  0  0  0  0
   12.2451  -16.7061   25.3836 C   0  0  0  0  0  0  0  0  0  0  0  0
   13.1293  -15.7662   25.3670 O   0  0  0  0  0  0  0  0  0  0  0  0
   13.9159  -17.4195   21.9786 O   0  0  0  0  0  0  0  0  0  0  0  0
   10.5122  -15.6720   27.7087 C   0  0  0  0  0  0  0  0  0  0  0  0
   11.7291  -16.5213   27.8418 C   0  0  2  0  0  0  0  0  0  0  0  0
   12.0570  -17.2835   26.6424 N   0  0  0  0  0  0  0  0  0  0  0  0
   11.4984  -17.5181   28.9277 C   0  0  0  0  0  0  0  0  0  0  0  0
   11.5036  -17.1884   30.2745 O   0  0  0  0  0  0  0  0  0  0  0  0
   11.2828  -18.7349   28.6692 O   0  0  0  0  0  0  0  0  0  0  0  0
  2  1  1  1
  2  3  1  0
  2 13  1  0
  3  4  1  0
  4  5  2  0
  5  6  1  0
  7  6  1  0
  8  7  2  0
  9  8  1  0
 10 11  1  0
 10  9  2  0
 11 12  2  0
 12  4  1  0
 12  7  1  0
 13 15  1  0
 13 14  2  0
 15 16  1  0
 16 17  1  6
 18 22  1  0
 18 17  1  0
 19 18  2  0
 20 16  1  0
 20 21  2  0
 24 23  1  6
 24 25  1  0
 25 20  1  0
 26 24  1  0
 27 26  1  0
 28 26  2  0
M  END
$$$$
