WDA.pdb
     RDKit          3D

 28 29  0  0  1  0  0  0  0  0999 V2000
    7.0932  -17.3571   24.4074 N   0  0  0  0  0  0  0  0  0  0  0  0
    8.1014  -16.3422   24.3178 C   0  0  1  0  0  0  0  0  0  0  0  0
    8.2470  -15.5427   25.5759 C   0  0  0  0  0  0  0  0  0  0  0  0
    7.0578  -14.6812   25.7412 C   0  0  0  0  0  0  0  0  0  0  0  0
    5.7715  -15.0715   26.0332 C   0  0  0  0  0  0  0  0  0  0  0  0
    4.9577  -14.0145   26.0678 N   0  0  0  0  0  0  0  0  0  0  0  0
    5.7107  -12.9172   25.7976 C   0  0  0  0  0  0  0  0  0  0  0  0
    5.3758  -11.5866   25.7165 C   0  0  0  0  0  0  0  0  0  0  0  0
    6.3442  -10.6527   25.4322 C   0  0  0  0  0  0  0  0  0  0  0  0
    7.6561  -11.0302   25.2255 C   0  0  0  0  0  0  0  0  0  0  0  0
    7.9934  -12.3783   25.3080 C   0  0  0  0  0  0  0  0  0  0  0  0
    7.0309  -13.3163   25.5908 C   0  0  0  0  0  0  0  0  0  0  0  0
    9.4386  -16.9955   24.0723 C   0  0  0  0  0  0  0  0  0  0  0  0
    9.6136  -18.1967   24.4129 O   0  0  0  0  0  0  0  0  0  0  0  0
   10.4873  -16.2629   23.4622 N   0  0  0  0  0  0  0  0  0  0  0  0
   11.8725  -16.7153   23.7707 C   0  0  1  0  0  0  0  0  0  0  0  0
   12.7300  -15.8459   22.8715 C   0  0  0  0  0  0  0  0  0  0  0  0
   14.1369  -16.1913   22.7423 C   0  0  0  0  0  0  0  0  0  0  0  0
   15.0781  -15.6275   23.3306 O   0  0  0  0  0  0  0  0  0  0  0  0
   12.1132  -16.5416   25.2023 C   0  0  0  0  0  0  0  0  0  0  0  0
   13.2355  -16.9952   25.6497 O   0  0  0  0  0  0  0  0  0  0  0  0
   14.5561  -17.2504   21.8914 O   0  0  0  0  0  0  0  0  0  0  0  0
   11.1545  -14.6949   28.3088 C   0  0  0  0  0  0  0  0  0  0  0  0
   11.6652  -15.8994   27.5960 C   0  0  2  0  0  0  0  0  0  0  0  0
   11.3121  -15.9483   26.1818 N   0  0  0  0  0  0  0  0  0  0  0  0
   11.0683  -17.1140   28.2243 C   0  0  0  0  0  0  0  0  0  0  0  0
   11.1953  -17.4116   29.5726 O   0  0  0  0  0  0  0  0  0  0  0  0
   10.4050  -17.9473   27.5462 O   0  0  0  0  0  0  0  0  0  0  0  0
  2  1  1  1
  2  3  1  0
  2 13  1  0
  3  4  1  0
  4  5  2  0
  5  6  1  0
  7  6  1  0
  8  7  2  0
  9  8  1  0
 10 11  1  0
 10  9  2  0
 11 12  2  0
 12  4  1  0
 12  7  1  0
 13 15  1  0
 13 14  2  0
 15 16  1  0
 16 17  1  6
 18 22  1  0
 18 17  1  0
 19 18  2  0
 20 16  1  0
 20 21  2  0
 24 23  1  1
 24 25  1  0
 25 20  1  0
 26 24  1  0
 27 26  1  0
 28 26  2  0
M  END
$$$$
