WDA.pdb
     RDKit          3D

 28 29  0  0  1  0  0  0  0  0999 V2000
    6.6606  -17.4466   24.2696 N   0  0  0  0  0  0  0  0  0  0  0  0
    7.7034  -16.5075   23.9775 C   0  0  1  0  0  0  0  0  0  0  0  0
    8.2184  -15.8009   25.1936 C   0  0  0  0  0  0  0  0  0  0  0  0
    7.1641  -14.9067   25.7155 C   0  0  0  0  0  0  0  0  0  0  0  0
    5.9166  -15.2580   26.1769 C   0  0  0  0  0  0  0  0  0  0  0  0
    5.2263  -14.1730   26.5332 N   0  0  0  0  0  0  0  0  0  0  0  0
    6.0224  -13.0966   26.3068 C   0  0  0  0  0  0  0  0  0  0  0  0
    5.8075  -11.7535   26.5052 C   0  0  0  0  0  0  0  0  0  0  0  0
    6.7966  -10.8489   26.1984 C   0  0  0  0  0  0  0  0  0  0  0  0
    8.0103  -11.2684   25.6913 C   0  0  0  0  0  0  0  0  0  0  0  0
    8.2262  -12.6290   25.4910 C   0  0  0  0  0  0  0  0  0  0  0  0
    7.2422  -13.5377   25.7945 C   0  0  0  0  0  0  0  0  0  0  0  0
    8.8786  -17.2439   23.3845 C   0  0  0  0  0  0  0  0  0  0  0  0
    9.0159  -18.4767   23.6103 O   0  0  0  0  0  0  0  0  0  0  0  0
    9.8183  -16.5533   22.5790 N   0  0  0  0  0  0  0  0  0  0  0  0
   11.0970  -17.2652   22.3019 C   0  0  1  0  0  0  0  0  0  0  0  0
   11.7660  -16.3858   21.2634 C   0  0  0  0  0  0  0  0  0  0  0  0
   13.0106  -16.8602   20.6791 C   0  0  0  0  0  0  0  0  0  0  0  0
   13.8630  -16.1497   20.1151 O   0  0  0  0  0  0  0  0  0  0  0  0
   11.8360  -17.4041   23.5557 C   0  0  0  0  0  0  0  0  0  0  0  0
   12.4671  -16.3548   23.9635 O   0  0  0  0  0  0  0  0  0  0  0  0
   13.3571  -18.2387   20.7129 O   0  0  0  0  0  0  0  0  0  0  0  0
   12.0115  -18.8445   26.8530 C   0  0  0  0  0  0  0  0  0  0  0  0
   12.7731  -18.5041   25.6186 C   0  0  2  0  0  0  0  0  0  0  0  0
   11.9680  -18.5082   24.4025 N   0  0  0  0  0  0  0  0  0  0  0  0
   13.8434  -19.5249   25.4218 C   0  0  0  0  0  0  0  0  0  0  0  0
   14.8702  -19.7329   26.3302 O   0  0  0  0  0  0  0  0  0  0  0  0
   13.8676  -20.2644   24.3989 O   0  0  0  0  0  0  0  0  0  0  0  0
  2  1  1  1
  2  3  1  0
  2 13  1  0
  3  4  1  0
  4  5  2  0
  5  6  1  0
  7  6  1  0
  8  7  2  0
  9  8  1  0
 10 11  1  0
 10  9  2  0
 11 12  2  0
 12  4  1  0
 12  7  1  0
 13 15  1  0
 13 14  2  0
 15 16  1  0
 16 17  1  6
 18 22  1  0
 18 17  1  0
 19 18  2  0
 20 16  1  0
 20 21  2  0
 24 23  1  1
 24 25  1  0
 25 20  1  0
 26 24  1  0
 27 26  1  0
 28 26  2  0
M  END
$$$$
