WDA.pdb
     RDKit          3D

 28 29  0  0  1  0  0  0  0  0999 V2000
    6.6033  -17.7280   24.8316 N   0  0  0  0  0  0  0  0  0  0  0  0
    7.5320  -16.6513   24.6496 C   0  0  1  0  0  0  0  0  0  0  0  0
    7.7355  -15.8324   25.8870 C   0  0  0  0  0  0  0  0  0  0  0  0
    6.6884  -14.7920   25.9554 C   0  0  0  0  0  0  0  0  0  0  0  0
    5.3308  -14.9732   26.0837 C   0  0  0  0  0  0  0  0  0  0  0  0
    4.6983  -13.7983   26.0731 N   0  0  0  0  0  0  0  0  0  0  0  0
    5.6437  -12.8330   25.9375 C   0  0  0  0  0  0  0  0  0  0  0  0
    5.5379  -11.4638   25.8777 C   0  0  0  0  0  0  0  0  0  0  0  0
    6.6699  -10.6945   25.7451 C   0  0  0  0  0  0  0  0  0  0  0  0
    7.9196  -11.2767   25.6707 C   0  0  0  0  0  0  0  0  0  0  0  0
    8.0247  -12.6636   25.7314 C   0  0  0  0  0  0  0  0  0  0  0  0
    6.8981  -13.4378   25.8629 C   0  0  0  0  0  0  0  0  0  0  0  0
    8.8819  -17.2198   24.2895 C   0  0  0  0  0  0  0  0  0  0  0  0
    9.1525  -18.4136   24.5913 O   0  0  0  0  0  0  0  0  0  0  0  0
    9.8357  -16.4165   23.6160 N   0  0  0  0  0  0  0  0  0  0  0  0
   11.2599  -16.8307   23.7535 C   0  0  1  0  0  0  0  0  0  0  0  0
   11.9564  -16.0483   22.6569 C   0  0  0  0  0  0  0  0  0  0  0  0
   13.3638  -16.3278   22.4192 C   0  0  0  0  0  0  0  0  0  0  0  0
   13.8878  -17.4569   22.4180 O   0  0  0  0  0  0  0  0  0  0  0  0
   11.7089  -16.5185   25.1094 C   0  0  0  0  0  0  0  0  0  0  0  0
   12.9094  -16.8848   25.4097 O   0  0  0  0  0  0  0  0  0  0  0  0
   14.2856  -15.2770   22.1589 O   0  0  0  0  0  0  0  0  0  0  0  0
   10.9797  -14.4972   28.2069 C   0  0  0  0  0  0  0  0  0  0  0  0
   11.6327  -15.6056   27.4555 C   0  0  2  0  0  0  0  0  0  0  0  0
   11.0379  -15.8711   26.1505 N   0  0  0  0  0  0  0  0  0  0  0  0
   11.4970  -16.8631   28.2469 C   0  0  0  0  0  0  0  0  0  0  0  0
   11.9958  -17.0085   29.5325 O   0  0  0  0  0  0  0  0  0  0  0  0
   10.9097  -17.8768   27.7764 O   0  0  0  0  0  0  0  0  0  0  0  0
  2  1  1  1
  2  3  1  0
  2 13  1  0
  3  4  1  0
  4  5  2  0
  5  6  1  0
  7  6  1  0
  8  7  2  0
  9  8  1  0
 10 11  1  0
 10  9  2  0
 11 12  2  0
 12  4  1  0
 12  7  1  0
 13 15  1  0
 13 14  2  0
 15 16  1  0
 16 17  1  6
 18 22  1  0
 18 17  1  0
 19 18  2  0
 20 16  1  0
 20 21  2  0
 24 23  1  1
 24 25  1  0
 25 20  1  0
 26 24  1  0
 27 26  1  0
 28 26  2  0
M  END
$$$$
