WDA.pdb
     RDKit          3D

 28 29  0  0  1  0  0  0  0  0999 V2000
    6.7768  -17.4257   25.0747 N   0  0  0  0  0  0  0  0  0  0  0  0
    7.9219  -16.6067   24.8050 C   0  0  1  0  0  0  0  0  0  0  0  0
    8.1995  -15.6068   25.8851 C   0  0  0  0  0  0  0  0  0  0  0  0
    7.0576  -14.6743   25.9854 C   0  0  0  0  0  0  0  0  0  0  0  0
    5.7799  -14.9532   26.4120 C   0  0  0  0  0  0  0  0  0  0  0  0
    5.0109  -13.8657   26.3302 N   0  0  0  0  0  0  0  0  0  0  0  0
    5.7850  -12.8603   25.8467 C   0  0  0  0  0  0  0  0  0  0  0  0
    5.4959  -11.5434   25.5790 C   0  0  0  0  0  0  0  0  0  0  0  0
    6.4777  -10.7116   25.0941 C   0  0  0  0  0  0  0  0  0  0  0  0
    7.7574  -11.1786   24.8700 C   0  0  0  0  0  0  0  0  0  0  0  0
    8.0483  -12.5126   25.1417 C   0  0  0  0  0  0  0  0  0  0  0  0
    7.0722  -13.3490   25.6253 C   0  0  0  0  0  0  0  0  0  0  0  0
    9.1453  -17.4840   24.7134 C   0  0  0  0  0  0  0  0  0  0  0  0
    9.1361  -18.6199   25.2603 O   0  0  0  0  0  0  0  0  0  0  0  0
   10.2939  -17.0330   24.0162 N   0  0  0  0  0  0  0  0  0  0  0  0
   11.5989  -17.5932   24.4655 C   0  0  1  0  0  0  0  0  0  0  0  0
   12.5594  -17.1506   23.3785 C   0  0  0  0  0  0  0  0  0  0  0  0
   12.4952  -15.7635   22.9460 C   0  0  0  0  0  0  0  0  0  0  0  0
   11.6027  -15.2674   22.2341 O   0  0  0  0  0  0  0  0  0  0  0  0
   11.8981  -17.0709   25.7979 C   0  0  0  0  0  0  0  0  0  0  0  0
   13.0150  -17.4515   26.3207 O   0  0  0  0  0  0  0  0  0  0  0  0
   13.4989  -14.8307   23.3254 O   0  0  0  0  0  0  0  0  0  0  0  0
   10.6668  -14.8303   28.6061 C   0  0  0  0  0  0  0  0  0  0  0  0
   11.5147  -15.8881   27.9881 C   0  0  2  0  0  0  0  0  0  0  0  0
   11.1591  -16.2062   26.6100 N   0  0  0  0  0  0  0  0  0  0  0  0
   11.3504  -17.1482   28.7700 C   0  0  0  0  0  0  0  0  0  0  0  0
   10.5404  -18.1961   28.3596 O   0  0  0  0  0  0  0  0  0  0  0  0
   11.9525  -17.3264   29.8653 O   0  0  0  0  0  0  0  0  0  0  0  0
  2  1  1  1
  2  3  1  0
  2 13  1  0
  3  4  1  0
  4  5  2  0
  5  6  1  0
  7  6  1  0
  8  7  2  0
  9  8  1  0
 10 11  1  0
 10  9  2  0
 11 12  2  0
 12  4  1  0
 12  7  1  0
 13 15  1  0
 13 14  2  0
 15 16  1  0
 16 17  1  6
 18 22  1  0
 18 17  1  0
 19 18  2  0
 20 16  1  0
 20 21  2  0
 24 23  1  1
 24 25  1  0
 25 20  1  0
 26 24  1  0
 27 26  1  0
 28 26  2  0
M  END
$$$$
