WDA.pdb
     RDKit          3D

 28 29  0  0  1  0  0  0  0  0999 V2000
    6.6386  -17.5624   24.0578 N   0  0  0  0  0  0  0  0  0  0  0  0
    7.6226  -16.5699   24.3766 C   0  0  1  0  0  0  0  0  0  0  0  0
    7.5355  -16.0862   25.7915 C   0  0  0  0  0  0  0  0  0  0  0  0
    6.6264  -14.9227   25.8492 C   0  0  0  0  0  0  0  0  0  0  0  0
    5.2990  -14.9106   26.2103 C   0  0  0  0  0  0  0  0  0  0  0  0
    4.7966  -13.6788   26.1061 N   0  0  0  0  0  0  0  0  0  0  0  0
    5.7982  -12.8702   25.6738 C   0  0  0  0  0  0  0  0  0  0  0  0
    5.8233  -11.5215   25.4100 C   0  0  0  0  0  0  0  0  0  0  0  0
    6.9885  -10.9285   24.9839 C   0  0  0  0  0  0  0  0  0  0  0  0
    8.1417  -11.6687   24.8153 C   0  0  0  0  0  0  0  0  0  0  0  0
    8.1143  -13.0346   25.0829 C   0  0  0  0  0  0  0  0  0  0  0  0
    6.9537  -13.6332   25.5079 C   0  0  0  0  0  0  0  0  0  0  0  0
    8.9975  -17.1690   24.2162 C   0  0  0  0  0  0  0  0  0  0  0  0
    9.2477  -18.2932   24.7291 O   0  0  0  0  0  0  0  0  0  0  0  0
    9.9974  -16.4722   23.4928 N   0  0  0  0  0  0  0  0  0  0  0  0
   11.3988  -16.9347   23.6946 C   0  0  1  0  0  0  0  0  0  0  0  0
   12.1617  -16.2210   22.5953 C   0  0  0  0  0  0  0  0  0  0  0  0
   13.5356  -16.6315   22.3523 C   0  0  0  0  0  0  0  0  0  0  0  0
   14.1219  -17.5714   22.9202 O   0  0  0  0  0  0  0  0  0  0  0  0
   11.8143  -16.5892   25.0531 C   0  0  0  0  0  0  0  0  0  0  0  0
   12.2695  -15.3935   25.2221 O   0  0  0  0  0  0  0  0  0  0  0  0
   14.3457  -15.9529   21.4011 O   0  0  0  0  0  0  0  0  0  0  0  0
   11.0079  -15.7572   27.9370 C   0  0  0  0  0  0  0  0  0  0  0  0
   11.9957  -16.8053   27.5558 C   0  0  2  0  0  0  0  0  0  0  0  0
   11.7931  -17.3567   26.2209 N   0  0  0  0  0  0  0  0  0  0  0  0
   11.8720  -17.9464   28.5091 C   0  0  0  0  0  0  0  0  0  0  0  0
   12.6082  -18.0404   29.6804 O   0  0  0  0  0  0  0  0  0  0  0  0
   11.0754  -18.9016   28.2924 O   0  0  0  0  0  0  0  0  0  0  0  0
  2  1  1  1
  2  3  1  0
  2 13  1  0
  3  4  1  0
  4  5  2  0
  5  6  1  0
  7  6  1  0
  8  7  2  0
  9  8  1  0
 10 11  1  0
 10  9  2  0
 11 12  2  0
 12  4  1  0
 12  7  1  0
 13 15  1  0
 13 14  2  0
 15 16  1  0
 16 17  1  6
 18 22  1  0
 18 17  1  0
 19 18  2  0
 20 16  1  0
 20 21  2  0
 24 23  1  1
 24 25  1  0
 25 20  1  0
 26 24  1  0
 27 26  1  0
 28 26  2  0
M  END
$$$$
