WDA.pdb
     RDKit          3D

 28 29  0  0  1  0  0  0  0  0999 V2000
    7.2939  -17.3205   24.3567 N   0  0  0  0  0  0  0  0  0  0  0  0
    8.3414  -16.3441   24.2919 C   0  0  1  0  0  0  0  0  0  0  0  0
    8.4497  -15.5121   25.5327 C   0  0  0  0  0  0  0  0  0  0  0  0
    7.2074  -14.7295   25.6995 C   0  0  0  0  0  0  0  0  0  0  0  0
    5.9424  -15.2054   25.9558 C   0  0  0  0  0  0  0  0  0  0  0  0
    5.0651  -14.2011   26.0046 N   0  0  0  0  0  0  0  0  0  0  0  0
    5.7542  -13.0529   25.7798 C   0  0  0  0  0  0  0  0  0  0  0  0
    5.3400  -11.7432   25.7297 C   0  0  0  0  0  0  0  0  0  0  0  0
    6.2542  -10.7443   25.4902 C   0  0  0  0  0  0  0  0  0  0  0  0
    7.5901  -11.0354   25.2980 C   0  0  0  0  0  0  0  0  0  0  0  0
    8.0077  -12.3625   25.3490 C   0  0  0  0  0  0  0  0  0  0  0  0
    7.0996  -13.3649   25.5869 C   0  0  0  0  0  0  0  0  0  0  0  0
    9.6652  -17.0503   24.1371 C   0  0  0  0  0  0  0  0  0  0  0  0
    9.8046  -18.2149   24.5996 O   0  0  0  0  0  0  0  0  0  0  0  0
   10.7413  -16.4080   23.4751 N   0  0  0  0  0  0  0  0  0  0  0  0
   12.1107  -16.8115   23.9001 C   0  0  1  0  0  0  0  0  0  0  0  0
   13.0068  -16.1003   22.9047 C   0  0  0  0  0  0  0  0  0  0  0  0
   12.9305  -16.5148   21.5128 C   0  0  0  0  0  0  0  0  0  0  0  0
   12.8025  -15.7534   20.5363 O   0  0  0  0  0  0  0  0  0  0  0  0
   12.3043  -16.4129   25.2934 C   0  0  0  0  0  0  0  0  0  0  0  0
   13.2423  -15.5546   25.5146 O   0  0  0  0  0  0  0  0  0  0  0  0
   12.9998  -17.8885   21.1526 O   0  0  0  0  0  0  0  0  0  0  0  0
   11.4359  -15.0767   28.1959 C   0  0  0  0  0  0  0  0  0  0  0  0
   11.9934  -16.3982   27.7927 C   0  0  2  0  0  0  0  0  0  0  0  0
   11.6221  -16.8146   26.4452 N   0  0  0  0  0  0  0  0  0  0  0  0
   11.4653  -17.4415   28.7194 C   0  0  0  0  0  0  0  0  0  0  0  0
   11.6788  -17.4185   30.0892 O   0  0  0  0  0  0  0  0  0  0  0  0
   10.7843  -18.4158   28.2941 O   0  0  0  0  0  0  0  0  0  0  0  0
  2  1  1  1
  2  3  1  0
  2 13  1  0
  3  4  1  0
  4  5  2  0
  5  6  1  0
  7  6  1  0
  8  7  2  0
  9  8  1  0
 10 11  1  0
 10  9  2  0
 11 12  2  0
 12  4  1  0
 12  7  1  0
 13 15  1  0
 13 14  2  0
 15 16  1  0
 16 17  1  6
 18 22  1  0
 18 17  1  0
 19 18  2  0
 20 16  1  0
 20 21  2  0
 24 23  1  1
 24 25  1  0
 25 20  1  0
 26 24  1  0
 27 26  1  0
 28 26  2  0
M  END
$$$$
