WDA.pdb
     RDKit          3D

 28 29  0  0  1  0  0  0  0  0999 V2000
    6.2649  -17.3990   24.3516 N   0  0  0  0  0  0  0  0  0  0  0  0
    7.3721  -16.5473   24.0300 C   0  0  1  0  0  0  0  0  0  0  0  0
    7.9803  -15.8915   25.2314 C   0  0  0  0  0  0  0  0  0  0  0  0
    7.0669  -14.8382   25.7211 C   0  0  0  0  0  0  0  0  0  0  0  0
    5.8360  -15.0019   26.3131 C   0  0  0  0  0  0  0  0  0  0  0  0
    5.2876  -13.8171   26.5889 N   0  0  0  0  0  0  0  0  0  0  0  0
    6.1617  -12.8629   26.1774 C   0  0  0  0  0  0  0  0  0  0  0  0
    6.0960  -11.4910   26.2306 C   0  0  0  0  0  0  0  0  0  0  0  0
    7.1378  -10.7359   25.7453 C   0  0  0  0  0  0  0  0  0  0  0  0
    8.2565  -11.3355   25.2020 C   0  0  0  0  0  0  0  0  0  0  0  0
    8.3213  -12.7251   25.1489 C   0  0  0  0  0  0  0  0  0  0  0  0
    7.2839  -13.4850   25.6310 C   0  0  0  0  0  0  0  0  0  0  0  0
    8.4641  -17.3748   23.3992 C   0  0  0  0  0  0  0  0  0  0  0  0
    8.5387  -18.6059   23.6607 O   0  0  0  0  0  0  0  0  0  0  0  0
    9.3962  -16.7709   22.5188 N   0  0  0  0  0  0  0  0  0  0  0  0
   10.7372  -17.4141   22.4375 C   0  0  1  0  0  0  0  0  0  0  0  0
   11.4963  -16.5148   21.4812 C   0  0  0  0  0  0  0  0  0  0  0  0
   12.7401  -17.0215   20.9229 C   0  0  0  0  0  0  0  0  0  0  0  0
   13.2292  -16.6920   19.8267 O   0  0  0  0  0  0  0  0  0  0  0  0
   11.3010  -17.4917   23.7843 C   0  0  0  0  0  0  0  0  0  0  0  0
   11.6892  -16.3760   24.3038 O   0  0  0  0  0  0  0  0  0  0  0  0
   13.5230  -17.9774   21.6263 O   0  0  0  0  0  0  0  0  0  0  0  0
   10.9102  -18.6463   27.0230 C   0  0  0  0  0  0  0  0  0  0  0  0
   11.9738  -18.5065   25.9890 C   0  0  2  0  0  0  0  0  0  0  0  0
   11.4862  -18.5984   24.6176 N   0  0  0  0  0  0  0  0  0  0  0  0
   12.9577  -19.6143   26.1642 C   0  0  0  0  0  0  0  0  0  0  0  0
   13.2610  -20.5255   25.1640 O   0  0  0  0  0  0  0  0  0  0  0  0
   13.5752  -19.7803   27.2529 O   0  0  0  0  0  0  0  0  0  0  0  0
  2  1  1  1
  2  3  1  0
  2 13  1  0
  3  4  1  0
  4  5  2  0
  5  6  1  0
  7  6  1  0
  8  7  2  0
  9  8  1  0
 10 11  1  0
 10  9  2  0
 11 12  2  0
 12  4  1  0
 12  7  1  0
 13 15  1  0
 13 14  2  0
 15 16  1  0
 16 17  1  6
 18 22  1  0
 18 17  1  0
 19 18  2  0
 20 16  1  0
 20 21  2  0
 24 23  1  1
 24 25  1  0
 25 20  1  0
 26 24  1  0
 27 26  1  0
 28 26  2  0
M  END
$$$$
