WDA.pdb
     RDKit          3D

 28 29  0  0  1  0  0  0  0  0999 V2000
    6.3141  -17.5173   24.1864 N   0  0  0  0  0  0  0  0  0  0  0  0
    7.4429  -16.6501   24.0174 C   0  0  1  0  0  0  0  0  0  0  0  0
    7.9257  -16.0531   25.3034 C   0  0  0  0  0  0  0  0  0  0  0  0
    6.9828  -14.9987   25.7306 C   0  0  0  0  0  0  0  0  0  0  0  0
    5.7350  -15.1619   26.2864 C   0  0  0  0  0  0  0  0  0  0  0  0
    5.1623  -13.9772   26.5079 N   0  0  0  0  0  0  0  0  0  0  0  0
    6.0371  -13.0235   26.0967 C   0  0  0  0  0  0  0  0  0  0  0  0
    5.9516  -11.6517   26.1061 C   0  0  0  0  0  0  0  0  0  0  0  0
    6.9991  -10.8969   25.6328 C   0  0  0  0  0  0  0  0  0  0  0  0
    8.1431  -11.4965   25.1451 C   0  0  0  0  0  0  0  0  0  0  0  0
    8.2278  -12.8861   25.1363 C   0  0  0  0  0  0  0  0  0  0  0  0
    7.1849  -13.6458   25.6067 C   0  0  0  0  0  0  0  0  0  0  0  0
    8.5964  -17.4451   23.4585 C   0  0  0  0  0  0  0  0  0  0  0  0
    8.6648  -18.6831   23.6870 O   0  0  0  0  0  0  0  0  0  0  0  0
    9.5930  -16.8031   22.6817 N   0  0  0  0  0  0  0  0  0  0  0  0
   10.8768  -17.5406   22.5181 C   0  0  1  0  0  0  0  0  0  0  0  0
   11.6141  -16.7264   21.4725 C   0  0  0  0  0  0  0  0  0  0  0  0
   12.9095  -17.2155   21.0273 C   0  0  0  0  0  0  0  0  0  0  0  0
   13.2413  -18.4122   20.9415 O   0  0  0  0  0  0  0  0  0  0  0  0
   11.5419  -17.6157   23.8179 C   0  0  0  0  0  0  0  0  0  0  0  0
   12.1783  -16.5576   24.1934 O   0  0  0  0  0  0  0  0  0  0  0  0
   13.9391  -16.3146   20.6402 O   0  0  0  0  0  0  0  0  0  0  0  0
   11.4891  -19.0200   27.1849 C   0  0  0  0  0  0  0  0  0  0  0  0
   12.3019  -18.5884   26.0132 C   0  0  2  0  0  0  0  0  0  0  0  0
   11.5968  -18.6655   24.7389 N   0  0  0  0  0  0  0  0  0  0  0  0
   13.4866  -19.4880   25.8972 C   0  0  0  0  0  0  0  0  0  0  0  0
   13.7614  -20.2392   24.7646 O   0  0  0  0  0  0  0  0  0  0  0  0
   14.3138  -19.6123   26.8429 O   0  0  0  0  0  0  0  0  0  0  0  0
  2  1  1  1
  2  3  1  0
  2 13  1  0
  3  4  1  0
  4  5  2  0
  5  6  1  0
  7  6  1  0
  8  7  2  0
  9  8  1  0
 10 11  1  0
 10  9  2  0
 11 12  2  0
 12  4  1  0
 12  7  1  0
 13 15  1  0
 13 14  2  0
 15 16  1  0
 16 17  1  6
 18 22  1  0
 18 17  1  0
 19 18  2  0
 20 16  1  0
 20 21  2  0
 24 23  1  1
 24 25  1  0
 25 20  1  0
 26 24  1  0
 27 26  1  0
 28 26  2  0
M  END
$$$$
