KAS.pdb
     RDKit          3D

 21 20  0  0  1  0  0  0  0  0999 V2000
    8.5368  -18.0281   16.7278 N   0  0  0  0  0  0  0  0  0  0  0  0
    7.7637  -18.0309   17.9473 C   0  0  1  0  0  0  0  0  0  0  0  0
    7.3835  -19.3832   18.4378 C   0  0  0  0  0  0  0  0  0  0  0  0
    8.3343  -20.4873   18.1947 C   0  0  0  0  0  0  0  0  0  0  0  0
    7.8748  -21.8589   18.5435 C   0  0  0  0  0  0  0  0  0  0  0  0
    8.9880  -22.8719   18.2341 C   0  0  0  0  0  0  0  0  0  0  0  0
    8.6016  -24.1764   18.6928 N   0  0  0  0  0  0  0  0  0  0  0  0
    8.5573  -17.3862   19.0306 C   0  0  0  0  0  0  0  0  0  0  0  0
    9.7924  -17.6091   19.0573 O   0  0  0  0  0  0  0  0  0  0  0  0
    7.7319  -14.9490   21.7484 C   0  0  0  0  0  0  0  0  0  0  0  0
    8.7412  -15.8534   21.0304 C   0  0  2  0  0  0  0  0  0  0  0  0
    7.9959  -16.5548   20.0064 N   0  0  0  0  0  0  0  0  0  0  0  0
    9.3369  -16.8277   21.9756 C   0  0  0  0  0  0  0  0  0  0  0  0
    9.0408  -18.0563   21.8913 O   0  0  0  0  0  0  0  0  0  0  0  0
   12.8221  -18.4891   21.8338 O   0  0  0  0  0  0  0  0  0  0  0  0
   12.3037  -17.2210   22.0288 C   0  0  0  0  0  0  0  0  0  0  0  0
   11.4696  -17.1585   23.2864 C   0  0  2  0  0  0  0  0  0  0  0  0
   10.2375  -16.4415   22.9860 N   0  0  0  0  0  0  0  0  0  0  0  0
   12.1708  -16.4835   24.3954 C   0  0  0  0  0  0  0  0  0  0  0  0
   12.8114  -17.2067   25.3834 O   0  0  0  0  0  0  0  0  0  0  0  0
   12.1983  -15.2322   24.4620 O   0  0  0  0  0  0  0  0  0  0  0  0
  2  1  1  6
  3  2  1  0
  4  3  1  0
  5  6  1  0
  5  4  1  0
  7  6  1  0
  8  2  1  0
  8  9  2  0
 11 10  1  1
 11 12  1  0
 12  8  1  0
 13 11  1  0
 14 13  2  0
 15 16  1  0
 17 18  1  0
 17 16  1  6
 18 13  1  0
 19 17  1  0
 20 19  1  0
 21 19  2  0
M  END
$$$$
