KAS.pdb
     RDKit          3D

 21 20  0  0  1  0  0  0  0  0999 V2000
    6.6087  -15.4038   21.9586 N   0  0  0  0  0  0  0  0  0  0  0  0
    7.8663  -14.6945   21.9472 C   0  0  1  0  0  0  0  0  0  0  0  0
    7.9396  -13.5773   20.9671 C   0  0  0  0  0  0  0  0  0  0  0  0
    7.6338  -13.8891   19.5559 C   0  0  0  0  0  0  0  0  0  0  0  0
    8.5036  -13.2604   18.5251 C   0  0  0  0  0  0  0  0  0  0  0  0
    7.9820  -13.6126   17.1233 C   0  0  0  0  0  0  0  0  0  0  0  0
    8.7878  -12.9659   16.1264 N   0  0  0  0  0  0  0  0  0  0  0  0
    8.1068  -14.1041   23.2934 C   0  0  0  0  0  0  0  0  0  0  0  0
    9.2524  -13.6495   23.5321 O   0  0  0  0  0  0  0  0  0  0  0  0
    6.0341  -12.9099   26.0859 C   0  0  0  0  0  0  0  0  0  0  0  0
    7.3478  -13.5651   25.6420 C   0  0  2  0  0  0  0  0  0  0  0  0
    7.1271  -14.0342   24.2903 N   0  0  0  0  0  0  0  0  0  0  0  0
    7.6870  -14.7085   26.5225 C   0  0  0  0  0  0  0  0  0  0  0  0
    7.9464  -14.5118   27.7465 O   0  0  0  0  0  0  0  0  0  0  0  0
    7.8888  -18.6643   25.0275 O   0  0  0  0  0  0  0  0  0  0  0  0
    7.3802  -18.4021   26.2875 C   0  0  0  0  0  0  0  0  0  0  0  0
    8.0298  -17.1820   26.8964 C   0  0  2  0  0  0  0  0  0  0  0  0
    7.7353  -16.0334   26.0500 N   0  0  0  0  0  0  0  0  0  0  0  0
    9.4918  -17.3290   27.0307 C   0  0  0  0  0  0  0  0  0  0  0  0
   10.3606  -16.5873   26.2533 O   0  0  0  0  0  0  0  0  0  0  0  0
    9.9759  -18.1356   27.8589 O   0  0  0  0  0  0  0  0  0  0  0  0
  2  1  1  1
  3  2  1  0
  4  3  1  0
  5  6  1  0
  5  4  1  0
  7  6  1  0
  8  2  1  0
  8  9  2  0
 11 10  1  1
 11 12  1  0
 12  8  1  0
 13 11  1  0
 14 13  2  0
 15 16  1  0
 17 18  1  0
 17 16  1  6
 18 13  1  0
 19 17  1  0
 20 19  1  0
 21 19  2  0
M  END
$$$$
