KAS.pdb
     RDKit          3D

 21 20  0  0  1  0  0  0  0  0999 V2000
    6.5517  -18.1575   20.0042 N   0  0  0  0  0  0  0  0  0  0  0  0
    6.4692  -18.4065   21.4241 C   0  0  1  0  0  0  0  0  0  0  0  0
    6.7012  -19.8217   21.8204 C   0  0  0  0  0  0  0  0  0  0  0  0
    5.6842  -20.8157   21.4205 C   0  0  0  0  0  0  0  0  0  0  0  0
    5.2921  -21.8242   22.4420 C   0  0  0  0  0  0  0  0  0  0  0  0
    4.3348  -22.8500   21.8156 C   0  0  0  0  0  0  0  0  0  0  0  0
    3.9903  -23.8512   22.7852 N   0  0  0  0  0  0  0  0  0  0  0  0
    7.4978  -17.5879   22.1245 C   0  0  0  0  0  0  0  0  0  0  0  0
    8.6572  -17.5757   21.6431 O   0  0  0  0  0  0  0  0  0  0  0  0
    7.4076  -15.2440   25.0393 C   0  0  0  0  0  0  0  0  0  0  0  0
    8.1958  -16.0084   23.9686 C   0  0  2  0  0  0  0  0  0  0  0  0
    7.2339  -16.8422   23.2790 N   0  0  0  0  0  0  0  0  0  0  0  0
    9.2407  -16.8555   24.5918 C   0  0  0  0  0  0  0  0  0  0  0  0
    8.9351  -17.9832   25.0809 O   0  0  0  0  0  0  0  0  0  0  0  0
   13.0484  -16.7718   23.3418 O   0  0  0  0  0  0  0  0  0  0  0  0
   12.9755  -16.7546   24.7235 C   0  0  0  0  0  0  0  0  0  0  0  0
   11.6500  -17.2928   25.2080 C   0  0  2  0  0  0  0  0  0  0  0  0
   10.5879  -16.4551   24.6668 N   0  0  0  0  0  0  0  0  0  0  0  0
   11.5541  -17.3146   26.6802 C   0  0  0  0  0  0  0  0  0  0  0  0
   12.3493  -18.1537   27.4373 O   0  0  0  0  0  0  0  0  0  0  0  0
   10.7435  -16.5667   27.2754 O   0  0  0  0  0  0  0  0  0  0  0  0
  2  1  1  6
  3  2  1  0
  4  3  1  0
  5  6  1  0
  5  4  1  0
  7  6  1  0
  8  2  1  0
  8  9  2  0
 11 10  1  1
 11 12  1  0
 12  8  1  0
 13 11  1  0
 14 13  2  0
 15 16  1  0
 17 18  1  0
 17 16  1  1
 18 13  1  0
 19 17  1  0
 20 19  1  0
 21 19  2  0
M  END
$$$$
