KAS.pdb
     RDKit          3D

 21 20  0  0  1  0  0  0  0  0999 V2000
    7.9423  -13.2122   20.0566 N   0  0  0  0  0  0  0  0  0  0  0  0
    7.2516  -14.0392   21.0178 C   0  0  1  0  0  0  0  0  0  0  0  0
    7.2299  -15.4896   20.6864 C   0  0  0  0  0  0  0  0  0  0  0  0
    6.6132  -15.8852   19.4037 C   0  0  0  0  0  0  0  0  0  0  0  0
    6.6506  -17.3320   19.0580 C   0  0  0  0  0  0  0  0  0  0  0  0
    6.0824  -17.5415   17.6458 C   0  0  0  0  0  0  0  0  0  0  0  0
    6.2228  -18.9181   17.2628 N   0  0  0  0  0  0  0  0  0  0  0  0
    7.9187  -13.9093   22.3433 C   0  0  0  0  0  0  0  0  0  0  0  0
    9.1542  -14.1259   22.3956 O   0  0  0  0  0  0  0  0  0  0  0  0
    6.8284  -12.7797   25.7308 C   0  0  0  0  0  0  0  0  0  0  0  0
    7.8290  -13.5246   24.8386 C   0  0  2  0  0  0  0  0  0  0  0  0
    7.2399  -13.5615   23.5166 N   0  0  0  0  0  0  0  0  0  0  0  0
    8.0443  -14.9058   25.3323 C   0  0  0  0  0  0  0  0  0  0  0  0
    7.1203  -15.7663   25.2335 O   0  0  0  0  0  0  0  0  0  0  0  0
   11.7240  -16.5568   25.4888 O   0  0  0  0  0  0  0  0  0  0  0  0
   10.5535  -17.2950   25.4858 C   0  0  0  0  0  0  0  0  0  0  0  0
    9.5113  -16.6715   26.3837 C   0  0  2  0  0  0  0  0  0  0  0  0
    9.2565  -15.3143   25.9194 N   0  0  0  0  0  0  0  0  0  0  0  0
    9.9339  -16.6341   27.7970 C   0  0  0  0  0  0  0  0  0  0  0  0
   10.0497  -15.4375   28.4784 O   0  0  0  0  0  0  0  0  0  0  0  0
   10.1976  -17.6951   28.4098 O   0  0  0  0  0  0  0  0  0  0  0  0
  2  1  1  6
  3  2  1  0
  4  3  1  0
  5  6  1  0
  5  4  1  0
  7  6  1  0
  8  2  1  0
  8  9  2  0
 11 10  1  1
 11 12  1  0
 12  8  1  0
 13 11  1  0
 14 13  2  0
 15 16  1  0
 17 18  1  0
 17 16  1  6
 18 13  1  0
 19 17  1  0
 20 19  1  0
 21 19  2  0
M  END
$$$$
