KAS.pdb
     RDKit          3D

 21 20  0  0  1  0  0  0  0  0999 V2000
    6.4815  -16.1511   20.0139 N   0  0  0  0  0  0  0  0  0  0  0  0
    7.6563  -15.4173   20.4217 C   0  0  1  0  0  0  0  0  0  0  0  0
    7.5881  -13.9512   20.1774 C   0  0  0  0  0  0  0  0  0  0  0  0
    7.4679  -13.4999   18.7759 C   0  0  0  0  0  0  0  0  0  0  0  0
    8.2906  -14.2187   17.7656 C   0  0  0  0  0  0  0  0  0  0  0  0
    7.9677  -13.6854   16.3611 C   0  0  0  0  0  0  0  0  0  0  0  0
    8.6119  -14.5004   15.3700 N   0  0  0  0  0  0  0  0  0  0  0  0
    7.8643  -15.6018   21.8851 C   0  0  0  0  0  0  0  0  0  0  0  0
    6.8746  -15.4318   22.6385 O   0  0  0  0  0  0  0  0  0  0  0  0
   10.6679  -16.9775   23.9194 C   0  0  0  0  0  0  0  0  0  0  0  0
    9.3108  -16.2669   23.8467 C   0  0  2  0  0  0  0  0  0  0  0  0
    9.0960  -15.9511   22.4502 N   0  0  0  0  0  0  0  0  0  0  0  0
    9.3286  -15.0197   24.6477 C   0  0  0  0  0  0  0  0  0  0  0  0
   10.1789  -14.1154   24.3953 O   0  0  0  0  0  0  0  0  0  0  0  0
    6.1640  -13.9630   27.0583 O   0  0  0  0  0  0  0  0  0  0  0  0
    7.0942  -13.0222   26.6528 C   0  0  0  0  0  0  0  0  0  0  0  0
    8.4782  -13.6216   26.5707 C   0  0  2  0  0  0  0  0  0  0  0  0
    8.4232  -14.7886   25.7002 N   0  0  0  0  0  0  0  0  0  0  0  0
    8.9993  -14.0208   27.8921 C   0  0  0  0  0  0  0  0  0  0  0  0
    9.2320  -13.0857   28.8825 O   0  0  0  0  0  0  0  0  0  0  0  0
    9.2423  -15.2246   28.1422 O   0  0  0  0  0  0  0  0  0  0  0  0
  2  1  1  1
  3  2  1  0
  4  3  1  0
  5  6  1  0
  5  4  1  0
  7  6  1  0
  8  2  1  0
  8  9  2  0
 11 10  1  6
 11 12  1  0
 12  8  1  0
 13 11  1  0
 14 13  2  0
 15 16  1  0
 17 18  1  0
 17 16  1  1
 18 13  1  0
 19 17  1  0
 20 19  1  0
 21 19  2  0
M  END
$$$$
