KAS.pdb
     RDKit          3D

 21 20  0  0  1  0  0  0  0  0999 V2000
    1.5855  -22.3989   17.7702 N   0  0  0  0  0  0  0  0  0  0  0  0
    1.5940  -22.4578   19.2129 C   0  0  1  0  0  0  0  0  0  0  0  0
    2.3829  -23.5830   19.7834 C   0  0  0  0  0  0  0  0  0  0  0  0
    3.8366  -23.5964   19.5210 C   0  0  0  0  0  0  0  0  0  0  0  0
    4.6059  -24.7510   20.0589 C   0  0  0  0  0  0  0  0  0  0  0  0
    6.0852  -24.6151   19.6661 C   0  0  0  0  0  0  0  0  0  0  0  0
    6.8361  -25.7133   20.2062 N   0  0  0  0  0  0  0  0  0  0  0  0
    2.1850  -21.2003   19.7500 C   0  0  0  0  0  0  0  0  0  0  0  0
    3.0430  -20.6144   19.0452 O   0  0  0  0  0  0  0  0  0  0  0  0
    1.5114  -19.0915   22.7624 C   0  0  0  0  0  0  0  0  0  0  0  0
    2.3716  -19.4244   21.5371 C   0  0  2  0  0  0  0  0  0  0  0  0
    1.8320  -20.6503   20.9874 N   0  0  0  0  0  0  0  0  0  0  0  0
    3.7864  -19.6289   21.9298 C   0  0  0  0  0  0  0  0  0  0  0  0
    4.1917  -20.7809   22.2654 O   0  0  0  0  0  0  0  0  0  0  0  0
    8.2573  -17.7276   22.1073 O   0  0  0  0  0  0  0  0  0  0  0  0
    6.9309  -17.6490   21.7210 C   0  0  0  0  0  0  0  0  0  0  0  0
    6.1070  -18.7361   22.3696 C   0  0  2  0  0  0  0  0  0  0  0  0
    4.7217  -18.5773   21.9473 N   0  0  0  0  0  0  0  0  0  0  0  0
    6.1775  -18.6943   23.8428 C   0  0  0  0  0  0  0  0  0  0  0  0
    7.1800  -19.3510   24.5307 O   0  0  0  0  0  0  0  0  0  0  0  0
    5.3227  -18.0575   24.5021 O   0  0  0  0  0  0  0  0  0  0  0  0
  2  1  1  6
  3  2  1  0
  4  3  1  0
  5  6  1  0
  5  4  1  0
  7  6  1  0
  8  2  1  0
  8  9  2  0
 11 10  1  1
 11 12  1  0
 12  8  1  0
 13 11  1  0
 14 13  2  0
 15 16  1  0
 17 18  1  0
 17 16  1  6
 18 13  1  0
 19 17  1  0
 20 19  1  0
 21 19  2  0
M  END
$$$$
