KAS.pdb
     RDKit          3D

 21 20  0  0  1  0  0  0  0  0999 V2000
    5.6314  -18.1140   18.5107 N   0  0  0  0  0  0  0  0  0  0  0  0
    5.3784  -17.1316   19.5382 C   0  0  1  0  0  0  0  0  0  0  0  0
    4.6998  -17.6631   20.7511 C   0  0  0  0  0  0  0  0  0  0  0  0
    3.6821  -18.7158   20.5550 C   0  0  0  0  0  0  0  0  0  0  0  0
    2.8537  -19.0780   21.7369 C   0  0  0  0  0  0  0  0  0  0  0  0
    1.7945  -20.1136   21.3285 C   0  0  0  0  0  0  0  0  0  0  0  0
    0.9584  -20.4256   22.4532 N   0  0  0  0  0  0  0  0  0  0  0  0
    6.6738  -16.5502   19.9883 C   0  0  0  0  0  0  0  0  0  0  0  0
    7.6576  -17.3246   20.0798 O   0  0  0  0  0  0  0  0  0  0  0  0
    7.7654  -13.1183   21.0181 C   0  0  0  0  0  0  0  0  0  0  0  0
    8.0710  -14.6037   20.7893 C   0  0  2  0  0  0  0  0  0  0  0  0
    6.8413  -15.1983   20.3093 N   0  0  0  0  0  0  0  0  0  0  0  0
    8.4843  -15.2549   22.0553 C   0  0  0  0  0  0  0  0  0  0  0  0
    7.6608  -15.3632   23.0115 O   0  0  0  0  0  0  0  0  0  0  0  0
    9.1823  -18.4685   22.9388 O   0  0  0  0  0  0  0  0  0  0  0  0
   10.3918  -17.8721   23.2489 C   0  0  0  0  0  0  0  0  0  0  0  0
   10.2253  -16.3902   23.4890 C   0  0  2  0  0  0  0  0  0  0  0  0
    9.7797  -15.7704   22.2481 N   0  0  0  0  0  0  0  0  0  0  0  0
   11.4759  -15.7471   23.9357 C   0  0  0  0  0  0  0  0  0  0  0  0
   11.9940  -15.9858   25.1943 O   0  0  0  0  0  0  0  0  0  0  0  0
   12.0958  -14.9666   23.1758 O   0  0  0  0  0  0  0  0  0  0  0  0
  2  1  1  6
  3  2  1  0
  4  3  1  0
  5  6  1  0
  5  4  1  0
  7  6  1  0
  8  2  1  0
  8  9  2  0
 11 10  1  1
 11 12  1  0
 12  8  1  0
 13 11  1  0
 14 13  2  0
 15 16  1  0
 17 18  1  0
 17 16  1  6
 18 13  1  0
 19 17  1  0
 20 19  1  0
 21 19  2  0
M  END
$$$$
