KAS.pdb
     RDKit          3D

 21 20  0  0  1  0  0  0  0  0999 V2000
    5.9524  -15.7296   21.0725 N   0  0  0  0  0  0  0  0  0  0  0  0
    7.3001  -15.3078   21.3734 C   0  0  1  0  0  0  0  0  0  0  0  0
    7.5313  -13.8423   21.2614 C   0  0  0  0  0  0  0  0  0  0  0  0
    7.7415  -13.2882   19.9082 C   0  0  0  0  0  0  0  0  0  0  0  0
    9.1488  -13.0336   19.4974 C   0  0  0  0  0  0  0  0  0  0  0  0
    9.1777  -12.4828   18.0633 C   0  0  0  0  0  0  0  0  0  0  0  0
   10.5355  -12.3760   17.6091 N   0  0  0  0  0  0  0  0  0  0  0  0
    7.6310  -15.6911   22.7743 C   0  0  0  0  0  0  0  0  0  0  0  0
    6.7585  -15.4875   23.6538 O   0  0  0  0  0  0  0  0  0  0  0  0
   10.3117  -17.7380   24.3205 C   0  0  0  0  0  0  0  0  0  0  0  0
    9.1877  -16.7075   24.4848 C   0  0  2  0  0  0  0  0  0  0  0  0
    8.8534  -16.2599   23.1492 N   0  0  0  0  0  0  0  0  0  0  0  0
    9.6459  -15.5578   25.3009 C   0  0  0  0  0  0  0  0  0  0  0  0
   10.4343  -14.7005   24.8033 O   0  0  0  0  0  0  0  0  0  0  0  0
    7.4540  -14.0259   28.1610 O   0  0  0  0  0  0  0  0  0  0  0  0
    8.5921  -13.3457   27.7650 C   0  0  0  0  0  0  0  0  0  0  0  0
    9.7305  -14.2991   27.4882 C   0  0  2  0  0  0  0  0  0  0  0  0
    9.2357  -15.3708   26.6342 N   0  0  0  0  0  0  0  0  0  0  0  0
   10.2944  -14.8779   28.7228 C   0  0  0  0  0  0  0  0  0  0  0  0
   10.8904  -14.0798   29.6806 O   0  0  0  0  0  0  0  0  0  0  0  0
   10.2427  -16.1134   28.9267 O   0  0  0  0  0  0  0  0  0  0  0  0
  2  1  1  1
  3  2  1  0
  4  3  1  0
  5  6  1  0
  5  4  1  0
  7  6  1  0
  8  2  1  0
  8  9  2  0
 11 10  1  6
 11 12  1  0
 12  8  1  0
 13 11  1  0
 14 13  2  0
 15 16  1  0
 17 18  1  0
 17 16  1  1
 18 13  1  0
 19 17  1  0
 20 19  1  0
 21 19  2  0
M  END
$$$$
