KAS.pdb
     RDKit          3D

 21 20  0  0  1  0  0  0  0  0999 V2000
    9.4157  -17.8176   19.0662 N   0  0  0  0  0  0  0  0  0  0  0  0
   10.3359  -18.5614   19.8938 C   0  0  1  0  0  0  0  0  0  0  0  0
   11.2208  -19.4985   19.1504 C   0  0  0  0  0  0  0  0  0  0  0  0
   11.1859  -20.9224   19.5422 C   0  0  0  0  0  0  0  0  0  0  0  0
   12.1017  -21.8422   18.8145 C   0  0  0  0  0  0  0  0  0  0  0  0
   12.0321  -23.2438   19.4404 C   0  0  0  0  0  0  0  0  0  0  0  0
   12.8781  -24.1461   18.7114 N   0  0  0  0  0  0  0  0  0  0  0  0
   11.2252  -17.6082   20.6145 C   0  0  0  0  0  0  0  0  0  0  0  0
   12.1993  -17.1312   19.9824 O   0  0  0  0  0  0  0  0  0  0  0  0
   11.0460  -15.9035   23.9296 C   0  0  0  0  0  0  0  0  0  0  0  0
   11.8344  -16.2625   22.6640 C   0  0  2  0  0  0  0  0  0  0  0  0
   11.0265  -17.2257   21.9460 N   0  0  0  0  0  0  0  0  0  0  0  0
   13.1427  -16.8649   23.0148 C   0  0  0  0  0  0  0  0  0  0  0  0
   13.1933  -18.0325   23.5031 O   0  0  0  0  0  0  0  0  0  0  0  0
   16.7780  -14.8697   22.1688 O   0  0  0  0  0  0  0  0  0  0  0  0
   16.6415  -16.2426   22.0625 C   0  0  0  0  0  0  0  0  0  0  0  0
   15.6652  -16.7760   23.0841 C   0  0  2  0  0  0  0  0  0  0  0  0
   14.3596  -16.1834   22.8258 N   0  0  0  0  0  0  0  0  0  0  0  0
   16.0754  -16.4724   24.4686 C   0  0  0  0  0  0  0  0  0  0  0  0
   17.1953  -17.0572   25.0283 O   0  0  0  0  0  0  0  0  0  0  0  0
   15.4102  -15.6724   25.1674 O   0  0  0  0  0  0  0  0  0  0  0  0
  2  1  1  6
  3  2  1  0
  4  3  1  0
  5  6  1  0
  5  4  1  0
  7  6  1  0
  8  2  1  0
  8  9  2  0
 11 10  1  1
 11 12  1  0
 12  8  1  0
 13 11  1  0
 14 13  2  0
 15 16  1  0
 17 18  1  0
 17 16  1  6
 18 13  1  0
 19 17  1  0
 20 19  1  0
 21 19  2  0
M  END
$$$$
