KAS.pdb
     RDKit          3D

 21 20  0  0  1  0  0  0  0  0999 V2000
    6.2327  -15.9464   20.7995 N   0  0  0  0  0  0  0  0  0  0  0  0
    7.5427  -15.4640   21.1683 C   0  0  1  0  0  0  0  0  0  0  0  0
    7.6766  -13.9822   21.1840 C   0  0  0  0  0  0  0  0  0  0  0  0
    8.2354  -13.3367   19.9785 C   0  0  0  0  0  0  0  0  0  0  0  0
    7.7435  -13.8293   18.6633 C   0  0  0  0  0  0  0  0  0  0  0  0
    8.4616  -13.0815   17.5292 C   0  0  0  0  0  0  0  0  0  0  0  0
    8.1032  -13.6555   16.2630 N   0  0  0  0  0  0  0  0  0  0  0  0
    7.8712  -15.9416   22.5405 C   0  0  0  0  0  0  0  0  0  0  0  0
    7.0096  -15.7695   23.4372 O   0  0  0  0  0  0  0  0  0  0  0  0
   10.4923  -18.1836   23.9040 C   0  0  0  0  0  0  0  0  0  0  0  0
    9.3906  -17.1475   24.1590 C   0  0  2  0  0  0  0  0  0  0  0  0
    9.0799  -16.5649   22.8706 N   0  0  0  0  0  0  0  0  0  0  0  0
    9.8668  -16.0936   25.0863 C   0  0  0  0  0  0  0  0  0  0  0  0
   10.5553  -15.1254   24.6469 O   0  0  0  0  0  0  0  0  0  0  0  0
    9.0005  -13.1676   28.5129 O   0  0  0  0  0  0  0  0  0  0  0  0
    8.7183  -14.2098   27.6474 C   0  0  0  0  0  0  0  0  0  0  0  0
    9.9459  -15.0496   27.3840 C   0  0  2  0  0  0  0  0  0  0  0  0
    9.5826  -16.1196   26.4645 N   0  0  0  0  0  0  0  0  0  0  0  0
   10.5053  -15.6336   28.6182 C   0  0  0  0  0  0  0  0  0  0  0  0
   11.1802  -14.8535   29.5376 O   0  0  0  0  0  0  0  0  0  0  0  0
   10.3774  -16.8573   28.8568 O   0  0  0  0  0  0  0  0  0  0  0  0
  2  1  1  1
  3  2  1  0
  4  3  1  0
  5  6  1  0
  5  4  1  0
  7  6  1  0
  8  2  1  0
  8  9  2  0
 11 10  1  6
 11 12  1  0
 12  8  1  0
 13 11  1  0
 14 13  2  0
 15 16  1  0
 17 18  1  0
 17 16  1  1
 18 13  1  0
 19 17  1  0
 20 19  1  0
 21 19  2  0
M  END
$$$$
