KAS.pdb
     RDKit          3D

 21 20  0  0  1  0  0  0  0  0999 V2000
    6.5381  -17.0663   21.4597 N   0  0  0  0  0  0  0  0  0  0  0  0
    7.9126  -16.6421   21.5846 C   0  0  1  0  0  0  0  0  0  0  0  0
    8.1580  -15.2193   21.2248 C   0  0  0  0  0  0  0  0  0  0  0  0
    7.9996  -14.8393   19.8061 C   0  0  0  0  0  0  0  0  0  0  0  0
    8.2795  -13.4205   19.4552 C   0  0  0  0  0  0  0  0  0  0  0  0
    8.1212  -13.2214   17.9398 C   0  0  0  0  0  0  0  0  0  0  0  0
    8.5133  -11.8881   17.5795 N   0  0  0  0  0  0  0  0  0  0  0  0
    8.3499  -16.8114   22.9984 C   0  0  0  0  0  0  0  0  0  0  0  0
    7.5096  -16.5699   23.8993 O   0  0  0  0  0  0  0  0  0  0  0  0
   11.4426  -18.1129   24.6394 C   0  0  0  0  0  0  0  0  0  0  0  0
   10.1165  -17.3470   24.7232 C   0  0  2  0  0  0  0  0  0  0  0  0
    9.6373  -17.2218   23.3628 N   0  0  0  0  0  0  0  0  0  0  0  0
   10.3245  -16.0014   25.3094 C   0  0  0  0  0  0  0  0  0  0  0  0
   10.7902  -15.0637   24.5966 O   0  0  0  0  0  0  0  0  0  0  0  0
    7.8419  -14.1903   27.6990 O   0  0  0  0  0  0  0  0  0  0  0  0
    8.9053  -13.6119   27.0284 C   0  0  0  0  0  0  0  0  0  0  0  0
   10.1801  -14.3912   27.2490 C   0  0  2  0  0  0  0  0  0  0  0  0
   10.0214  -15.7111   26.6528 N   0  0  0  0  0  0  0  0  0  0  0  0
   10.5118  -14.5370   28.6794 C   0  0  0  0  0  0  0  0  0  0  0  0
   10.6576  -15.7837   29.2573 O   0  0  0  0  0  0  0  0  0  0  0  0
   10.6685  -13.5248   29.4017 O   0  0  0  0  0  0  0  0  0  0  0  0
  2  1  1  1
  3  2  1  0
  4  3  1  0
  5  6  1  0
  5  4  1  0
  7  6  1  0
  8  2  1  0
  8  9  2  0
 11 10  1  6
 11 12  1  0
 12  8  1  0
 13 11  1  0
 14 13  2  0
 15 16  1  0
 17 18  1  0
 17 16  1  1
 18 13  1  0
 19 17  1  0
 20 19  1  0
 21 19  2  0
M  END
$$$$
