KAS.pdb
     RDKit          3D

 21 20  0  0  1  0  0  0  0  0999 V2000
   11.3308  -16.4999   12.8183 N   0  0  0  0  0  0  0  0  0  0  0  0
   11.3896  -17.7917   13.4606 C   0  0  1  0  0  0  0  0  0  0  0  0
   12.4985  -18.6670   12.9935 C   0  0  0  0  0  0  0  0  0  0  0  0
   12.3300  -19.3414   11.6901 C   0  0  0  0  0  0  0  0  0  0  0  0
   13.4145  -20.2689   11.2682 C   0  0  0  0  0  0  0  0  0  0  0  0
   13.1123  -20.8134    9.8635 C   0  0  0  0  0  0  0  0  0  0  0  0
   14.2294  -21.5790    9.3864 N   0  0  0  0  0  0  0  0  0  0  0  0
   11.5781  -17.6010   14.9258 C   0  0  0  0  0  0  0  0  0  0  0  0
   12.5671  -16.9251   15.3012 O   0  0  0  0  0  0  0  0  0  0  0  0
    9.5764  -18.5173   17.9488 C   0  0  0  0  0  0  0  0  0  0  0  0
   10.8675  -17.9781   17.3207 C   0  0  2  0  0  0  0  0  0  0  0  0
   10.7144  -18.1339   15.8895 N   0  0  0  0  0  0  0  0  0  0  0  0
   12.0414  -18.7530   17.7886 C   0  0  0  0  0  0  0  0  0  0  0  0
   12.3276  -19.8612   17.2461 O   0  0  0  0  0  0  0  0  0  0  0  0
   16.4184  -18.8304   19.4592 O   0  0  0  0  0  0  0  0  0  0  0  0
   15.2639  -18.1751   19.0685 C   0  0  0  0  0  0  0  0  0  0  0  0
   14.0425  -19.0322   19.3030 C   0  0  2  0  0  0  0  0  0  0  0  0
   12.8720  -18.3036   18.8322 N   0  0  0  0  0  0  0  0  0  0  0  0
   13.8627  -19.3809   20.7254 C   0  0  0  0  0  0  0  0  0  0  0  0
   14.6406  -20.3504   21.3290 O   0  0  0  0  0  0  0  0  0  0  0  0
   12.9942  -18.7996   21.4173 O   0  0  0  0  0  0  0  0  0  0  0  0
  2  1  1  6
  3  2  1  0
  4  3  1  0
  5  6  1  0
  5  4  1  0
  7  6  1  0
  8  2  1  0
  8  9  2  0
 11 10  1  1
 11 12  1  0
 12  8  1  0
 13 11  1  0
 14 13  2  0
 15 16  1  0
 17 18  1  0
 17 16  1  1
 18 13  1  0
 19 17  1  0
 20 19  1  0
 21 19  2  0
M  END
$$$$
