KAS.pdb
     RDKit          3D

 21 20  0  0  1  0  0  0  0  0999 V2000
    9.8599  -17.4364   18.8966 N   0  0  0  0  0  0  0  0  0  0  0  0
   10.4905  -18.0972   20.0148 C   0  0  1  0  0  0  0  0  0  0  0  0
   11.3903  -19.2226   19.6435 C   0  0  0  0  0  0  0  0  0  0  0  0
   10.8859  -20.2001   18.6576 C   0  0  0  0  0  0  0  0  0  0  0  0
   11.6355  -20.3108   17.3769 C   0  0  0  0  0  0  0  0  0  0  0  0
   11.0201  -21.4213   16.5114 C   0  0  0  0  0  0  0  0  0  0  0  0
   11.6771  -21.4659   15.2356 N   0  0  0  0  0  0  0  0  0  0  0  0
   11.3193  -17.1103   20.7619 C   0  0  0  0  0  0  0  0  0  0  0  0
   12.0483  -16.3385   20.0919 O   0  0  0  0  0  0  0  0  0  0  0  0
   11.6000  -16.1491   24.3645 C   0  0  0  0  0  0  0  0  0  0  0  0
   12.1036  -16.0547   22.9190 C   0  0  2  0  0  0  0  0  0  0  0  0
   11.3220  -17.0062   22.1575 N   0  0  0  0  0  0  0  0  0  0  0  0
   13.5413  -16.4075   22.8407 C   0  0  0  0  0  0  0  0  0  0  0  0
   13.8971  -17.6230   22.8339 O   0  0  0  0  0  0  0  0  0  0  0  0
   18.0400  -14.6983   22.0297 O   0  0  0  0  0  0  0  0  0  0  0  0
   16.6897  -14.4677   22.2256 C   0  0  0  0  0  0  0  0  0  0  0  0
   15.9638  -15.7423   22.5856 C   0  0  2  0  0  0  0  0  0  0  0  0
   14.5528  -15.4311   22.7722 N   0  0  0  0  0  0  0  0  0  0  0  0
   16.4940  -16.3661   23.8132 C   0  0  0  0  0  0  0  0  0  0  0  0
   17.4883  -17.3240   23.7578 O   0  0  0  0  0  0  0  0  0  0  0  0
   16.0485  -16.0358   24.9372 O   0  0  0  0  0  0  0  0  0  0  0  0
  2  1  1  6
  3  2  1  0
  4  3  1  0
  5  6  1  0
  5  4  1  0
  7  6  1  0
  8  2  1  0
  8  9  2  0
 11 10  1  1
 11 12  1  0
 12  8  1  0
 13 11  1  0
 14 13  2  0
 15 16  1  0
 17 18  1  0
 17 16  1  1
 18 13  1  0
 19 17  1  0
 20 19  1  0
 21 19  2  0
M  END
$$$$
