KAS.pdb
     RDKit          3D

 21 20  0  0  1  0  0  0  0  0999 V2000
    5.7769  -17.1002   19.3568 N   0  0  0  0  0  0  0  0  0  0  0  0
    5.5047  -16.3773   20.5766 C   0  0  1  0  0  0  0  0  0  0  0  0
    4.5258  -17.0361   21.4832 C   0  0  0  0  0  0  0  0  0  0  0  0
    3.9763  -18.3400   21.0588 C   0  0  0  0  0  0  0  0  0  0  0  0
    2.8805  -18.9096   21.8888 C   0  0  0  0  0  0  0  0  0  0  0  0
    2.4403  -20.2620   21.3071 C   0  0  0  0  0  0  0  0  0  0  0  0
    1.3715  -20.8074   22.0956 N   0  0  0  0  0  0  0  0  0  0  0  0
    6.7705  -16.2236   21.3467 C   0  0  0  0  0  0  0  0  0  0  0  0
    7.6495  -17.1082   21.2020 O   0  0  0  0  0  0  0  0  0  0  0  0
    8.0494  -13.6664   23.7663 C   0  0  0  0  0  0  0  0  0  0  0  0
    8.2235  -14.9833   22.9998 C   0  0  2  0  0  0  0  0  0  0  0  0
    7.0206  -15.1526   22.2121 N   0  0  0  0  0  0  0  0  0  0  0  0
    8.3744  -16.1203   23.9389 C   0  0  0  0  0  0  0  0  0  0  0  0
    7.3583  -16.5990   24.5244 O   0  0  0  0  0  0  0  0  0  0  0  0
   10.3413  -19.1863   23.1495 O   0  0  0  0  0  0  0  0  0  0  0  0
   10.7788  -18.8093   24.4070 C   0  0  0  0  0  0  0  0  0  0  0  0
    9.7958  -17.8739   25.0704 C   0  0  2  0  0  0  0  0  0  0  0  0
    9.6237  -16.7063   24.2162 N   0  0  0  0  0  0  0  0  0  0  0  0
   10.2441  -17.4403   26.4076 C   0  0  0  0  0  0  0  0  0  0  0  0
   10.3288  -18.3331   27.4589 O   0  0  0  0  0  0  0  0  0  0  0  0
   10.5586  -16.2451   26.6158 O   0  0  0  0  0  0  0  0  0  0  0  0
  2  1  1  6
  3  2  1  0
  4  3  1  0
  5  6  1  0
  5  4  1  0
  7  6  1  0
  8  2  1  0
  8  9  2  0
 11 10  1  1
 11 12  1  0
 12  8  1  0
 13 11  1  0
 14 13  2  0
 15 16  1  0
 17 18  1  0
 17 16  1  6
 18 13  1  0
 19 17  1  0
 20 19  1  0
 21 19  2  0
M  END
$$$$
