KAS.pdb
     RDKit          3D

 21 20  0  0  1  0  0  0  0  0999 V2000
    7.8276  -17.0846   21.7457 N   0  0  0  0  0  0  0  0  0  0  0  0
    7.0322  -16.6568   22.8723 C   0  0  1  0  0  0  0  0  0  0  0  0
    6.3455  -17.7576   23.6008 C   0  0  0  0  0  0  0  0  0  0  0  0
    5.6929  -18.8063   22.7905 C   0  0  0  0  0  0  0  0  0  0  0  0
    5.0113  -19.9016   23.5320 C   0  0  0  0  0  0  0  0  0  0  0  0
    4.3133  -20.8429   22.5381 C   0  0  0  0  0  0  0  0  0  0  0  0
    3.6287  -21.8843   23.2512 N   0  0  0  0  0  0  0  0  0  0  0  0
    7.9116  -15.9692   23.8586 C   0  0  0  0  0  0  0  0  0  0  0  0
    9.0604  -16.4415   24.0409 O   0  0  0  0  0  0  0  0  0  0  0  0
    7.4651  -13.0197   26.1238 C   0  0  0  0  0  0  0  0  0  0  0  0
    8.2984  -14.2079   25.6279 C   0  0  2  0  0  0  0  0  0  0  0  0
    7.5204  -14.8363   24.5812 N   0  0  0  0  0  0  0  0  0  0  0  0
    8.5381  -15.1744   26.7261 C   0  0  0  0  0  0  0  0  0  0  0  0
    7.6267  -15.9844   27.0689 O   0  0  0  0  0  0  0  0  0  0  0  0
   11.3100  -18.1484   28.9561 O   0  0  0  0  0  0  0  0  0  0  0  0
   11.0551  -17.1793   28.0018 C   0  0  0  0  0  0  0  0  0  0  0  0
   10.0326  -16.1825   28.4941 C   0  0  2  0  0  0  0  0  0  0  0  0
    9.7603  -15.2350   27.4214 N   0  0  0  0  0  0  0  0  0  0  0  0
   10.4898  -15.4495   29.6903 C   0  0  0  0  0  0  0  0  0  0  0  0
   10.6357  -14.0755   29.6760 O   0  0  0  0  0  0  0  0  0  0  0  0
   10.7562  -16.0646   30.7493 O   0  0  0  0  0  0  0  0  0  0  0  0
  2  1  1  6
  3  2  1  0
  4  3  1  0
  5  6  1  0
  5  4  1  0
  7  6  1  0
  8  2  1  0
  8  9  2  0
 11 10  1  1
 11 12  1  0
 12  8  1  0
 13 11  1  0
 14 13  2  0
 15 16  1  0
 17 18  1  0
 17 16  1  6
 18 13  1  0
 19 17  1  0
 20 19  1  0
 21 19  2  0
M  END
$$$$
