KAS.pdb
     RDKit          3D

 21 20  0  0  1  0  0  0  0  0999 V2000
    8.9453  -16.3860   15.8438 N   0  0  0  0  0  0  0  0  0  0  0  0
    7.9197  -16.1850   16.8401 C   0  0  1  0  0  0  0  0  0  0  0  0
    7.1169  -17.3969   17.1576 C   0  0  0  0  0  0  0  0  0  0  0  0
    7.5917  -18.6878   16.6187 C   0  0  0  0  0  0  0  0  0  0  0  0
    6.7048  -19.8660   16.8175 C   0  0  0  0  0  0  0  0  0  0  0  0
    7.3617  -21.1161   16.2120 C   0  0  0  0  0  0  0  0  0  0  0  0
    6.5610  -22.2737   16.4956 N   0  0  0  0  0  0  0  0  0  0  0  0
    8.5547  -15.7423   18.1128 C   0  0  0  0  0  0  0  0  0  0  0  0
    9.6896  -16.2035   18.3869 O   0  0  0  0  0  0  0  0  0  0  0  0
    7.5468  -13.3759   20.8352 C   0  0  0  0  0  0  0  0  0  0  0  0
    8.5483  -14.3693   20.2335 C   0  0  2  0  0  0  0  0  0  0  0  0
    7.9515  -14.8480   19.0044 N   0  0  0  0  0  0  0  0  0  0  0  0
    8.7785  -15.5058   21.1571 C   0  0  0  0  0  0  0  0  0  0  0  0
    7.9116  -16.4232   21.2629 O   0  0  0  0  0  0  0  0  0  0  0  0
   12.5843  -16.1577   22.6657 O   0  0  0  0  0  0  0  0  0  0  0  0
   11.7041  -17.1909   22.3965 C   0  0  0  0  0  0  0  0  0  0  0  0
   10.2825  -16.7970   22.7212 C   0  0  2  0  0  0  0  0  0  0  0  0
    9.9429  -15.6150   21.9400 N   0  0  0  0  0  0  0  0  0  0  0  0
   10.0909  -16.5076   24.1553 C   0  0  0  0  0  0  0  0  0  0  0  0
   10.2655  -17.4880   25.1133 O   0  0  0  0  0  0  0  0  0  0  0  0
    9.7637  -15.3584   24.5335 O   0  0  0  0  0  0  0  0  0  0  0  0
  2  1  1  6
  3  2  1  0
  4  3  1  0
  5  6  1  0
  5  4  1  0
  7  6  1  0
  8  2  1  0
  8  9  2  0
 11 10  1  1
 11 12  1  0
 12  8  1  0
 13 11  1  0
 14 13  2  0
 15 16  1  0
 17 18  1  0
 17 16  1  1
 18 13  1  0
 19 17  1  0
 20 19  1  0
 21 19  2  0
M  END
$$$$
