NWK.pdb
     RDKit          3D

 32 33  0  0  1  0  0  0  0  0999 V2000
   22.7848  -14.9268  -20.1690 N   0  0  0  0  0  0  0  0  0  0  0  0
   23.9694  -15.1430  -19.4327 C   0  0  0  0  0  0  0  0  0  0  0  0
   24.4432  -16.2896  -19.3464 O   0  0  0  0  0  0  0  0  0  0  0  0
   24.6378  -14.0114  -18.7710 C   0  0  0  0  0  0  0  0  0  0  0  0
   23.8878  -12.7503  -19.0743 C   0  0  2  0  0  0  0  0  0  0  0  0
   24.3672  -12.1092  -20.2799 N   0  0  0  0  0  0  0  0  0  0  0  0
   23.8933  -11.8060  -17.9174 C   0  0  0  0  0  0  0  0  0  0  0  0
   23.3400  -12.2319  -16.8476 O   0  0  0  0  0  0  0  0  0  0  0  0
   24.4460  -10.5262  -17.9254 N   0  0  0  0  0  0  0  0  0  0  0  0
   24.4290   -9.6866  -16.7320 C   0  0  1  0  0  0  0  0  0  0  0  0
   25.7450   -8.9510  -16.6107 C   0  0  0  0  0  0  0  0  0  0  0  0
   26.9374   -9.8089  -16.7129 C   0  0  0  0  0  0  0  0  0  0  0  0
   28.1048   -9.3522  -17.3421 C   0  0  0  0  0  0  0  0  0  0  0  0
   29.0158  -10.3277  -17.2362 N   0  0  0  0  0  0  0  0  0  0  0  0
   28.5508  -11.3957  -16.5895 C   0  0  0  0  0  0  0  0  0  0  0  0
   29.0691  -12.6234  -16.2393 C   0  0  0  0  0  0  0  0  0  0  0  0
   28.2937  -13.5609  -15.5522 C   0  0  0  0  0  0  0  0  0  0  0  0
   27.0026  -13.2229  -15.2373 C   0  0  0  0  0  0  0  0  0  0  0  0
   26.4846  -11.9907  -15.5889 C   0  0  0  0  0  0  0  0  0  0  0  0
   27.2361  -11.0634  -16.2614 C   0  0  0  0  0  0  0  0  0  0  0  0
   23.3090   -8.7586  -16.6715 C   0  0  0  0  0  0  0  0  0  0  0  0
   23.0025   -8.0691  -17.6766 O   0  0  0  0  0  0  0  0  0  0  0  0
   22.4982   -8.5648  -15.5046 N   0  0  0  0  0  0  0  0  0  0  0  0
   21.3868   -7.6365  -15.4677 C   0  0  1  0  0  0  0  0  0  0  0  0
   20.0684   -8.3754  -15.4528 C   0  0  0  0  0  0  0  0  0  0  0  0
   18.8983   -7.4212  -15.5739 C   0  0  0  0  0  0  0  0  0  0  0  0
   17.5891   -8.1406  -15.7160 C   0  0  0  0  0  0  0  0  0  0  0  0
   16.4648   -7.1715  -15.9754 C   0  0  0  0  0  0  0  0  0  0  0  0
   15.1893   -7.8588  -16.0462 N   0  0  0  0  0  0  0  0  0  0  0  0
   21.4447   -6.8698  -14.1797 C   0  0  0  0  0  0  0  0  0  0  0  0
   21.9758   -7.3503  -13.1535 O   0  0  0  0  0  0  0  0  0  0  0  0
   20.9021   -5.6013  -14.1114 O   0  0  0  0  0  0  0  0  0  0  0  0
  2  1  1  0
  3  2  2  0
  4  2  1  0
  5  6  1  6
  5  4  1  0
  7  9  1  0
  7  5  1  0
  8  7  2  0
 10  9  1  0
 10 11  1  6
 11 12  1  0
 12 20  1  0
 13 12  2  0
 13 14  1  0
 14 15  1  0
 15 16  1  0
 16 17  2  0
 18 17  1  0
 19 18  2  0
 20 15  2  0
 20 19  1  0
 21 10  1  0
 22 21  2  0
 23 21  1  0
 24 30  1  0
 24 23  1  0
 24 25  1  1
 26 25  1  0
 26 27  1  0
 27 28  1  0
 29 28  1  0
 30 32  1  0
 31 30  2  0
M  END
$$$$
