NWK.pdb
     RDKit          3D

 32 33  0  0  1  0  0  0  0  0999 V2000
   29.0698  -23.7009  -17.8854 N   0  0  0  0  0  0  0  0  0  0  0  0
   28.1277  -22.7082  -17.5404 C   0  0  0  0  0  0  0  0  0  0  0  0
   27.9963  -21.7033  -18.2612 O   0  0  0  0  0  0  0  0  0  0  0  0
   27.3059  -22.8668  -16.3302 C   0  0  0  0  0  0  0  0  0  0  0  0
   27.4025  -21.6218  -15.5022 C   0  0  2  0  0  0  0  0  0  0  0  0
   28.7692  -21.3159  -15.1380 N   0  0  0  0  0  0  0  0  0  0  0  0
   26.5197  -21.6820  -14.2992 C   0  0  0  0  0  0  0  0  0  0  0  0
   25.7264  -22.6816  -14.2394 O   0  0  0  0  0  0  0  0  0  0  0  0
   26.5029  -20.7470  -13.2653 N   0  0  0  0  0  0  0  0  0  0  0  0
   25.5454  -20.8478  -12.1688 C   0  0  1  0  0  0  0  0  0  0  0  0
   26.0007  -19.9799  -11.0167 C   0  0  0  0  0  0  0  0  0  0  0  0
   27.1664  -20.4995  -10.2824 C   0  0  0  0  0  0  0  0  0  0  0  0
   28.1810  -21.2066  -10.9440 C   0  0  0  0  0  0  0  0  0  0  0  0
   29.1133  -21.5037  -10.0300 N   0  0  0  0  0  0  0  0  0  0  0  0
   28.8023  -21.0536   -8.8152 C   0  0  0  0  0  0  0  0  0  0  0  0
   29.4014  -21.1052   -7.5755 C   0  0  0  0  0  0  0  0  0  0  0  0
   28.7913  -20.5286   -6.4584 C   0  0  0  0  0  0  0  0  0  0  0  0
   27.5797  -19.9108   -6.6329 C   0  0  0  0  0  0  0  0  0  0  0  0
   26.9806  -19.8596   -7.8772 C   0  0  0  0  0  0  0  0  0  0  0  0
   27.5702  -20.4202   -8.9796 C   0  0  0  0  0  0  0  0  0  0  0  0
   24.1741  -20.5343  -12.5436 C   0  0  0  0  0  0  0  0  0  0  0  0
   23.9316  -19.5659  -13.3071 O   0  0  0  0  0  0  0  0  0  0  0  0
   23.0350  -21.2771  -12.0882 N   0  0  0  0  0  0  0  0  0  0  0  0
   21.7151  -21.1193  -12.6639 C   0  0  1  0  0  0  0  0  0  0  0  0
   21.3732  -22.2909  -13.5554 C   0  0  0  0  0  0  0  0  0  0  0  0
   21.2549  -21.8669  -15.0048 C   0  0  0  0  0  0  0  0  0  0  0  0
   20.1005  -22.5277  -15.6992 C   0  0  0  0  0  0  0  0  0  0  0  0
   19.9795  -22.0487  -17.1226 C   0  0  0  0  0  0  0  0  0  0  0  0
   18.9017  -22.7312  -17.8132 N   0  0  0  0  0  0  0  0  0  0  0  0
   20.7036  -21.1346  -11.5563 C   0  0  0  0  0  0  0  0  0  0  0  0
   20.7685  -21.9624  -10.6200 O   0  0  0  0  0  0  0  0  0  0  0  0
   19.6703  -20.2179  -11.5582 O   0  0  0  0  0  0  0  0  0  0  0  0
  2  1  1  0
  3  2  2  0
  4  2  1  0
  5  6  1  1
  5  4  1  0
  7  9  1  0
  7  5  1  0
  8  7  2  0
 10  9  1  0
 10 11  1  1
 11 12  1  0
 12 20  1  0
 13 12  2  0
 13 14  1  0
 14 15  1  0
 15 16  1  0
 16 17  2  0
 18 17  1  0
 19 18  2  0
 20 15  2  0
 20 19  1  0
 21 10  1  0
 22 21  2  0
 23 21  1  0
 24 30  1  0
 24 23  1  0
 24 25  1  6
 26 25  1  0
 26 27  1  0
 27 28  1  0
 29 28  1  0
 30 32  1  0
 31 30  2  0
M  END
$$$$
