NWK.pdb
     RDKit          3D

 32 33  0  0  1  0  0  0  0  0999 V2000
   30.3554  -22.3893  -16.5173 N   0  0  0  0  0  0  0  0  0  0  0  0
   28.9477  -22.3739  -16.6188 C   0  0  0  0  0  0  0  0  0  0  0  0
   28.4094  -22.1591  -17.7192 O   0  0  0  0  0  0  0  0  0  0  0  0
   28.1241  -22.6119  -15.4229 C   0  0  0  0  0  0  0  0  0  0  0  0
   27.1777  -21.4648  -15.2400 C   0  0  2  0  0  0  0  0  0  0  0  0
   27.8687  -20.1949  -15.1753 N   0  0  0  0  0  0  0  0  0  0  0  0
   26.2867  -21.6598  -14.0576 C   0  0  0  0  0  0  0  0  0  0  0  0
   25.7298  -22.8057  -13.9622 O   0  0  0  0  0  0  0  0  0  0  0  0
   26.0281  -20.7026  -13.0777 N   0  0  0  0  0  0  0  0  0  0  0  0
   25.1495  -20.9923  -11.9493 C   0  0  1  0  0  0  0  0  0  0  0  0
   25.5856  -20.1850  -10.7468 C   0  0  0  0  0  0  0  0  0  0  0  0
   26.8266  -20.6570  -10.1101 C   0  0  0  0  0  0  0  0  0  0  0  0
   27.7761  -21.3925  -10.8344 C   0  0  0  0  0  0  0  0  0  0  0  0
   28.8008  -21.6341  -10.0070 N   0  0  0  0  0  0  0  0  0  0  0  0
   28.6109  -21.1210   -8.7922 C   0  0  0  0  0  0  0  0  0  0  0  0
   29.3347  -21.1019   -7.6199 C   0  0  0  0  0  0  0  0  0  0  0  0
   28.8359  -20.4696   -6.4780 C   0  0  0  0  0  0  0  0  0  0  0  0
   27.6056  -19.8696   -6.5591 C   0  0  0  0  0  0  0  0  0  0  0  0
   26.8812  -19.8894   -7.7360 C   0  0  0  0  0  0  0  0  0  0  0  0
   27.3611  -20.5050   -8.8619 C   0  0  0  0  0  0  0  0  0  0  0  0
   23.7352  -20.7868  -12.2263 C   0  0  0  0  0  0  0  0  0  0  0  0
   23.3090  -19.6448  -12.5325 O   0  0  0  0  0  0  0  0  0  0  0  0
   22.7539  -21.8313  -12.1732 N   0  0  0  0  0  0  0  0  0  0  0  0
   21.3564  -21.6103  -12.4839 C   0  0  1  0  0  0  0  0  0  0  0  0
   20.5676  -22.8933  -12.3582 C   0  0  0  0  0  0  0  0  0  0  0  0
   19.1069  -22.6801  -12.6978 C   0  0  0  0  0  0  0  0  0  0  0  0
   18.2998  -23.9372  -12.5565 C   0  0  0  0  0  0  0  0  0  0  0  0
   16.8710  -23.7130  -12.9789 C   0  0  0  0  0  0  0  0  0  0  0  0
   16.1064  -24.9437  -12.9074 N   0  0  0  0  0  0  0  0  0  0  0  0
   20.7813  -20.6707  -11.4658 C   0  0  0  0  0  0  0  0  0  0  0  0
   21.0540  -20.7752  -10.2489 O   0  0  0  0  0  0  0  0  0  0  0  0
   19.9285  -19.6613  -11.8682 O   0  0  0  0  0  0  0  0  0  0  0  0
  2  1  1  0
  3  2  2  0
  4  2  1  0
  5  6  1  1
  5  4  1  0
  7  9  1  0
  7  5  1  0
  8  7  2  0
 10  9  1  0
 10 11  1  1
 11 12  1  0
 12 20  1  0
 13 12  2  0
 13 14  1  0
 14 15  1  0
 15 16  1  0
 16 17  2  0
 18 17  1  0
 19 18  2  0
 20 15  2  0
 20 19  1  0
 21 10  1  0
 22 21  2  0
 23 21  1  0
 24 30  1  0
 24 23  1  0
 24 25  1  1
 26 25  1  0
 26 27  1  0
 27 28  1  0
 29 28  1  0
 30 32  1  0
 31 30  2  0
M  END
$$$$
