NWK.pdb
     RDKit          3D

 32 33  0  0  1  0  0  0  0  0999 V2000
   29.9080  -18.5620  -14.0819 N   0  0  0  0  0  0  0  0  0  0  0  0
   28.7636  -19.0133  -14.7738 C   0  0  0  0  0  0  0  0  0  0  0  0
   28.5559  -18.6332  -15.9396 O   0  0  0  0  0  0  0  0  0  0  0  0
   27.8222  -19.9310  -14.1130 C   0  0  0  0  0  0  0  0  0  0  0  0
   28.3623  -20.3057  -12.7666 C   0  0  2  0  0  0  0  0  0  0  0  0
   29.4546  -21.2502  -12.8626 N   0  0  0  0  0  0  0  0  0  0  0  0
   27.2904  -20.8051  -11.8546 C   0  0  0  0  0  0  0  0  0  0  0  0
   27.0457  -22.0576  -11.9154 O   0  0  0  0  0  0  0  0  0  0  0  0
   26.5585  -20.0190  -10.9660 N   0  0  0  0  0  0  0  0  0  0  0  0
   25.3938  -20.5514  -10.2665 C   0  0  1  0  0  0  0  0  0  0  0  0
   25.2354  -19.8478   -8.9369 C   0  0  0  0  0  0  0  0  0  0  0  0
   26.4818  -19.7102   -8.1650 C   0  0  0  0  0  0  0  0  0  0  0  0
   27.4394  -18.7433   -8.5047 C   0  0  0  0  0  0  0  0  0  0  0  0
   28.4251  -18.8325   -7.6028 N   0  0  0  0  0  0  0  0  0  0  0  0
   28.2028  -19.7791   -6.6920 C   0  0  0  0  0  0  0  0  0  0  0  0
   28.8907  -20.2584   -5.5987 C   0  0  0  0  0  0  0  0  0  0  0  0
   28.3769  -21.3055   -4.8292 C   0  0  0  0  0  0  0  0  0  0  0  0
   27.1688  -21.8413   -5.1946 C   0  0  0  0  0  0  0  0  0  0  0  0
   26.4799  -21.3589   -6.2914 C   0  0  0  0  0  0  0  0  0  0  0  0
   26.9734  -20.3319   -7.0521 C   0  0  0  0  0  0  0  0  0  0  0  0
   24.1584  -20.4927  -11.0343 C   0  0  0  0  0  0  0  0  0  0  0  0
   23.9422  -19.5310  -11.8141 O   0  0  0  0  0  0  0  0  0  0  0  0
   23.1296  -21.4893  -10.9641 N   0  0  0  0  0  0  0  0  0  0  0  0
   21.9387  -21.4459  -11.7877 C   0  0  1  0  0  0  0  0  0  0  0  0
   21.2426  -22.7874  -11.7986 C   0  0  0  0  0  0  0  0  0  0  0  0
   19.9410  -22.7289  -12.5711 C   0  0  0  0  0  0  0  0  0  0  0  0
   19.2806  -24.0721  -12.6771 C   0  0  0  0  0  0  0  0  0  0  0  0
   18.0035  -23.9856  -13.4720 C   0  0  0  0  0  0  0  0  0  0  0  0
   17.4099  -25.2972  -13.6504 N   0  0  0  0  0  0  0  0  0  0  0  0
   20.9666  -20.4816  -11.1752 C   0  0  0  0  0  0  0  0  0  0  0  0
   20.9596  -20.2492   -9.9455 O   0  0  0  0  0  0  0  0  0  0  0  0
   20.0516  -19.8275  -11.9770 O   0  0  0  0  0  0  0  0  0  0  0  0
  2  1  1  0
  3  2  2  0
  4  2  1  0
  5  6  1  6
  5  4  1  0
  7  9  1  0
  7  5  1  0
  8  7  2  0
 10  9  1  0
 10 11  1  1
 11 12  1  0
 12 20  1  0
 13 12  2  0
 13 14  1  0
 14 15  1  0
 15 16  1  0
 16 17  2  0
 18 17  1  0
 19 18  2  0
 20 15  2  0
 20 19  1  0
 21 10  1  0
 22 21  2  0
 23 21  1  0
 24 30  1  0
 24 23  1  0
 24 25  1  1
 26 25  1  0
 26 27  1  0
 27 28  1  0
 29 28  1  0
 30 32  1  0
 31 30  2  0
M  END
$$$$
