NWK.pdb
     RDKit          3D

 32 33  0  0  1  0  0  0  0  0999 V2000
   28.9703  -17.7419  -14.3788 N   0  0  0  0  0  0  0  0  0  0  0  0
   27.9006  -18.3476  -15.0722 C   0  0  0  0  0  0  0  0  0  0  0  0
   27.4668  -17.8280  -16.1156 O   0  0  0  0  0  0  0  0  0  0  0  0
   27.3039  -19.5903  -14.5577 C   0  0  0  0  0  0  0  0  0  0  0  0
   28.0051  -19.9876  -13.2946 C   0  0  2  0  0  0  0  0  0  0  0  0
   29.1019  -20.8979  -13.5449 N   0  0  0  0  0  0  0  0  0  0  0  0
   27.0583  -20.5424  -12.2817 C   0  0  0  0  0  0  0  0  0  0  0  0
   26.5042  -21.6527  -12.5861 O   0  0  0  0  0  0  0  0  0  0  0  0
   26.7465  -19.9476  -11.0602 N   0  0  0  0  0  0  0  0  0  0  0  0
   25.7501  -20.5294  -10.1671 C   0  0  1  0  0  0  0  0  0  0  0  0
   25.9528  -19.9974   -8.7657 C   0  0  0  0  0  0  0  0  0  0  0  0
   27.1934  -20.4485   -8.1134 C   0  0  0  0  0  0  0  0  0  0  0  0
   28.1068  -21.2718   -8.7880 C   0  0  0  0  0  0  0  0  0  0  0  0
   29.1416  -21.4705   -7.9618 N   0  0  0  0  0  0  0  0  0  0  0  0
   28.9917  -20.8483   -6.7933 C   0  0  0  0  0  0  0  0  0  0  0  0
   29.7402  -20.7484   -5.6408 C   0  0  0  0  0  0  0  0  0  0  0  0
   29.2833  -20.0048   -4.5497 C   0  0  0  0  0  0  0  0  0  0  0  0
   28.0686  -19.3782   -4.6601 C   0  0  0  0  0  0  0  0  0  0  0  0
   27.3193  -19.4791   -5.8170 C   0  0  0  0  0  0  0  0  0  0  0  0
   27.7581  -20.2042   -6.8935 C   0  0  0  0  0  0  0  0  0  0  0  0
   24.3741  -20.3354  -10.6011 C   0  0  0  0  0  0  0  0  0  0  0  0
   23.9189  -19.1753  -10.7642 O   0  0  0  0  0  0  0  0  0  0  0  0
   23.4640  -21.4115  -10.8663 N   0  0  0  0  0  0  0  0  0  0  0  0
   22.3267  -21.2756  -11.7532 C   0  0  1  0  0  0  0  0  0  0  0  0
   22.1520  -22.5163  -12.5984 C   0  0  0  0  0  0  0  0  0  0  0  0
   20.9151  -22.4236  -13.4678 C   0  0  0  0  0  0  0  0  0  0  0  0
   21.2510  -22.2338  -14.9179 C   0  0  0  0  0  0  0  0  0  0  0  0
   20.0015  -22.1173  -15.7519 C   0  0  0  0  0  0  0  0  0  0  0  0
   20.3215  -21.7932  -17.1291 N   0  0  0  0  0  0  0  0  0  0  0  0
   21.0821  -21.1628  -10.9235 C   0  0  0  0  0  0  0  0  0  0  0  0
   20.1696  -20.3577  -11.2158 O   0  0  0  0  0  0  0  0  0  0  0  0
   20.9270  -21.9614   -9.8072 O   0  0  0  0  0  0  0  0  0  0  0  0
  2  1  1  0
  3  2  2  0
  4  2  1  0
  5  6  1  6
  5  4  1  0
  7  9  1  0
  7  5  1  0
  8  7  2  0
 10  9  1  0
 10 11  1  1
 11 12  1  0
 12 20  1  0
 13 12  2  0
 13 14  1  0
 14 15  1  0
 15 16  1  0
 16 17  2  0
 18 17  1  0
 19 18  2  0
 20 15  2  0
 20 19  1  0
 21 10  1  0
 22 21  2  0
 23 21  1  0
 24 30  1  0
 24 23  1  0
 24 25  1  6
 26 25  1  0
 26 27  1  0
 27 28  1  0
 29 28  1  0
 30 32  1  0
 31 30  2  0
M  END
$$$$
