NWK.pdb
     RDKit          3D

 32 33  0  0  1  0  0  0  0  0999 V2000
   29.5158  -20.2393  -16.8205 N   0  0  0  0  0  0  0  0  0  0  0  0
   28.1475  -19.8941  -16.7930 C   0  0  0  0  0  0  0  0  0  0  0  0
   27.6410  -19.2969  -17.7593 O   0  0  0  0  0  0  0  0  0  0  0  0
   27.3272  -20.2423  -15.6222 C   0  0  0  0  0  0  0  0  0  0  0  0
   28.1632  -21.0127  -14.6462 C   0  0  2  0  0  0  0  0  0  0  0  0
   28.5254  -22.3189  -15.1531 N   0  0  0  0  0  0  0  0  0  0  0  0
   27.5093  -21.1113  -13.3073 C   0  0  0  0  0  0  0  0  0  0  0  0
   26.2508  -21.3316  -13.3165 O   0  0  0  0  0  0  0  0  0  0  0  0
   28.1608  -20.9826  -12.0816 N   0  0  0  0  0  0  0  0  0  0  0  0
   27.4250  -21.0427  -10.8230 C   0  0  1  0  0  0  0  0  0  0  0  0
   28.3350  -20.6402   -9.6838 C   0  0  0  0  0  0  0  0  0  0  0  0
   27.6672  -20.5317   -8.3760 C   0  0  0  0  0  0  0  0  0  0  0  0
   26.3183  -20.8837   -8.2218 C   0  0  0  0  0  0  0  0  0  0  0  0
   26.0157  -20.7230   -6.9274 N   0  0  0  0  0  0  0  0  0  0  0  0
   27.0513  -20.2924   -6.2082 C   0  0  0  0  0  0  0  0  0  0  0  0
   27.2501  -19.9734   -4.8826 C   0  0  0  0  0  0  0  0  0  0  0  0
   28.4930  -19.5223   -4.4309 C   0  0  0  0  0  0  0  0  0  0  0  0
   29.5079  -19.4066   -5.3457 C   0  0  0  0  0  0  0  0  0  0  0  0
   29.3068  -19.7275   -6.6749 C   0  0  0  0  0  0  0  0  0  0  0  0
   28.0929  -20.1721   -7.1285 C   0  0  0  0  0  0  0  0  0  0  0  0
   26.1998  -20.2567  -10.8101 C   0  0  0  0  0  0  0  0  0  0  0  0
   26.2464  -19.0084  -10.9491 O   0  0  0  0  0  0  0  0  0  0  0  0
   24.8927  -20.8228  -10.6437 N   0  0  0  0  0  0  0  0  0  0  0  0
   23.6854  -20.1472  -11.0731 C   0  0  1  0  0  0  0  0  0  0  0  0
   23.3796  -20.4591  -12.5200 C   0  0  0  0  0  0  0  0  0  0  0  0
   22.0860  -19.8084  -12.9646 C   0  0  0  0  0  0  0  0  0  0  0  0
   21.7884  -20.0636  -14.4130 C   0  0  0  0  0  0  0  0  0  0  0  0
   20.5089  -19.3858  -14.8299 C   0  0  0  0  0  0  0  0  0  0  0  0
   20.1451  -19.7470  -16.1870 N   0  0  0  0  0  0  0  0  0  0  0  0
   22.5287  -20.6827  -10.2822 C   0  0  0  0  0  0  0  0  0  0  0  0
   22.4926  -21.8727   -9.8965 O   0  0  0  0  0  0  0  0  0  0  0  0
   21.4713  -19.8524   -9.9652 O   0  0  0  0  0  0  0  0  0  0  0  0
  2  1  1  0
  3  2  2  0
  4  2  1  0
  5  6  1  6
  5  4  1  0
  7  9  1  0
  7  5  1  0
  8  7  2  0
 10  9  1  0
 10 11  1  1
 11 12  1  0
 12 20  1  0
 13 12  2  0
 13 14  1  0
 14 15  1  0
 15 16  1  0
 16 17  2  0
 18 17  1  0
 19 18  2  0
 20 15  2  0
 20 19  1  0
 21 10  1  0
 22 21  2  0
 23 21  1  0
 24 30  1  0
 24 23  1  0
 24 25  1  6
 26 25  1  0
 26 27  1  0
 27 28  1  0
 29 28  1  0
 30 32  1  0
 31 30  2  0
M  END
$$$$
