NWK.pdb
     RDKit          3D

 32 33  0  0  1  0  0  0  0  0999 V2000
   20.9219  -30.9462  -12.9478 N   0  0  0  0  0  0  0  0  0  0  0  0
   20.0502  -29.8374  -12.8928 C   0  0  0  0  0  0  0  0  0  0  0  0
   19.1918  -29.6812  -13.7790 O   0  0  0  0  0  0  0  0  0  0  0  0
   20.1613  -28.8721  -11.7879 C   0  0  0  0  0  0  0  0  0  0  0  0
   20.1455  -27.4813  -12.3451 C   0  0  2  0  0  0  0  0  0  0  0  0
   21.3949  -27.1402  -12.9908 N   0  0  0  0  0  0  0  0  0  0  0  0
   19.7742  -26.4701  -11.3109 C   0  0  0  0  0  0  0  0  0  0  0  0
   20.4738  -26.4834  -10.2419 O   0  0  0  0  0  0  0  0  0  0  0  0
   18.7443  -25.5382  -11.4293 N   0  0  0  0  0  0  0  0  0  0  0  0
   18.4645  -24.5796  -10.3653 C   0  0  1  0  0  0  0  0  0  0  0  0
   18.0294  -23.2632  -10.9702 C   0  0  0  0  0  0  0  0  0  0  0  0
   19.1360  -22.3771  -11.3682 C   0  0  0  0  0  0  0  0  0  0  0  0
   19.6369  -22.3898  -12.6782 C   0  0  0  0  0  0  0  0  0  0  0  0
   20.5936  -21.4551  -12.7423 N   0  0  0  0  0  0  0  0  0  0  0  0
   20.7711  -20.8226  -11.5833 C   0  0  0  0  0  0  0  0  0  0  0  0
   21.6082  -19.8227  -11.1385 C   0  0  0  0  0  0  0  0  0  0  0  0
   21.5541  -19.3759   -9.8157 C   0  0  0  0  0  0  0  0  0  0  0  0
   20.6439  -19.9622   -8.9742 C   0  0  0  0  0  0  0  0  0  0  0  0
   19.8046  -20.9647   -9.4222 C   0  0  0  0  0  0  0  0  0  0  0  0
   19.8480  -21.4095  -10.7173 C   0  0  0  0  0  0  0  0  0  0  0  0
   17.4954  -25.0442   -9.3834 C   0  0  0  0  0  0  0  0  0  0  0  0
   16.3947  -25.5224   -9.7567 O   0  0  0  0  0  0  0  0  0  0  0  0
   17.7117  -24.9945   -7.9665 N   0  0  0  0  0  0  0  0  0  0  0  0
   16.6687  -25.2836   -7.0038 C   0  0  1  0  0  0  0  0  0  0  0  0
   17.2232  -25.2996   -5.5979 C   0  0  0  0  0  0  0  0  0  0  0  0
   17.6020  -26.7020   -5.1687 C   0  0  0  0  0  0  0  0  0  0  0  0
   18.2636  -26.7264   -3.8221 C   0  0  0  0  0  0  0  0  0  0  0  0
   18.4602  -28.1408   -3.3416 C   0  0  0  0  0  0  0  0  0  0  0  0
   19.2260  -28.1720   -2.1099 N   0  0  0  0  0  0  0  0  0  0  0  0
   15.6626  -24.1715   -7.0380 C   0  0  0  0  0  0  0  0  0  0  0  0
   15.9401  -23.0504   -7.5199 O   0  0  0  0  0  0  0  0  0  0  0  0
   14.3953  -24.3769   -6.5282 O   0  0  0  0  0  0  0  0  0  0  0  0
  2  1  1  0
  3  2  2  0
  4  2  1  0
  5  6  1  1
  5  4  1  0
  7  9  1  0
  7  5  1  0
  8  7  2  0
 10  9  1  0
 10 11  1  6
 11 12  1  0
 12 20  1  0
 13 12  2  0
 13 14  1  0
 14 15  1  0
 15 16  1  0
 16 17  2  0
 18 17  1  0
 19 18  2  0
 20 15  2  0
 20 19  1  0
 21 10  1  0
 22 21  2  0
 23 21  1  0
 24 30  1  0
 24 23  1  0
 24 25  1  1
 26 25  1  0
 26 27  1  0
 27 28  1  0
 29 28  1  0
 30 32  1  0
 31 30  2  0
M  END
$$$$
