NWK.pdb
     RDKit          3D

 32 33  0  0  1  0  0  0  0  0999 V2000
   29.1558  -26.1660  -17.4127 N   0  0  0  0  0  0  0  0  0  0  0  0
   28.2297  -25.1180  -17.6027 C   0  0  0  0  0  0  0  0  0  0  0  0
   28.1664  -24.5405  -18.7024 O   0  0  0  0  0  0  0  0  0  0  0  0
   27.3439  -24.7138  -16.4995 C   0  0  0  0  0  0  0  0  0  0  0  0
   27.4920  -23.2418  -16.2625 C   0  0  2  0  0  0  0  0  0  0  0  0
   28.8772  -22.8530  -16.1062 N   0  0  0  0  0  0  0  0  0  0  0  0
   26.6633  -22.7759  -15.1109 C   0  0  0  0  0  0  0  0  0  0  0  0
   25.9190  -23.6599  -14.5661 O   0  0  0  0  0  0  0  0  0  0  0  0
   26.6470  -21.4775  -14.6039 N   0  0  0  0  0  0  0  0  0  0  0  0
   25.8949  -21.1446  -13.3986 C   0  0  1  0  0  0  0  0  0  0  0  0
   26.6012  -20.0362  -12.6500 C   0  0  0  0  0  0  0  0  0  0  0  0
   27.5858  -20.4986  -11.6575 C   0  0  0  0  0  0  0  0  0  0  0  0
   28.8546  -20.9470  -12.0527 C   0  0  0  0  0  0  0  0  0  0  0  0
   29.5288  -21.2520  -10.9368 N   0  0  0  0  0  0  0  0  0  0  0  0
   28.8132  -21.0445   -9.8323 C   0  0  0  0  0  0  0  0  0  0  0  0
   29.0377  -21.2061   -8.4825 C   0  0  0  0  0  0  0  0  0  0  0  0
   28.0452  -20.9008   -7.5476 C   0  0  0  0  0  0  0  0  0  0  0  0
   26.8421  -20.4362   -8.0134 C   0  0  0  0  0  0  0  0  0  0  0  0
   26.6189  -20.2742   -9.3676 C   0  0  0  0  0  0  0  0  0  0  0  0
   27.5852  -20.5690  -10.2931 C   0  0  0  0  0  0  0  0  0  0  0  0
   24.5014  -20.8002  -13.6410 C   0  0  0  0  0  0  0  0  0  0  0  0
   24.2043  -19.9197  -14.4871 O   0  0  0  0  0  0  0  0  0  0  0  0
   23.3995  -21.4148  -12.9591 N   0  0  0  0  0  0  0  0  0  0  0  0
   22.0198  -21.0572  -13.2178 C   0  0  1  0  0  0  0  0  0  0  0  0
   21.1346  -22.2822  -13.2046 C   0  0  0  0  0  0  0  0  0  0  0  0
   19.7138  -21.9422  -13.6048 C   0  0  0  0  0  0  0  0  0  0  0  0
   18.8032  -23.1331  -13.5395 C   0  0  0  0  0  0  0  0  0  0  0  0
   17.4276  -22.7907  -14.0502 C   0  0  0  0  0  0  0  0  0  0  0  0
   16.5399  -23.9349  -13.9661 N   0  0  0  0  0  0  0  0  0  0  0  0
   21.5328  -20.1840  -12.0996 C   0  0  0  0  0  0  0  0  0  0  0  0
   20.4767  -19.5198  -12.1982 O   0  0  0  0  0  0  0  0  0  0  0  0
   22.2585  -20.1022  -10.9270 O   0  0  0  0  0  0  0  0  0  0  0  0
  2  1  1  0
  3  2  2  0
  4  2  1  0
  5  6  1  1
  5  4  1  0
  7  9  1  0
  7  5  1  0
  8  7  2  0
 10  9  1  0
 10 11  1  6
 11 12  1  0
 12 20  1  0
 13 12  2  0
 13 14  1  0
 14 15  1  0
 15 16  1  0
 16 17  2  0
 18 17  1  0
 19 18  2  0
 20 15  2  0
 20 19  1  0
 21 10  1  0
 22 21  2  0
 23 21  1  0
 24 30  1  0
 24 23  1  0
 24 25  1  1
 26 25  1  0
 26 27  1  0
 27 28  1  0
 29 28  1  0
 30 32  1  0
 31 30  2  0
M  END
$$$$
