NWK.pdb
     RDKit          3D

 32 33  0  0  1  0  0  0  0  0999 V2000
   28.6975  -18.5928  -16.5839 N   0  0  0  0  0  0  0  0  0  0  0  0
   27.6042  -19.4367  -16.8746 C   0  0  0  0  0  0  0  0  0  0  0  0
   27.2894  -19.6555  -18.0577 O   0  0  0  0  0  0  0  0  0  0  0  0
   26.8424  -20.0534  -15.7771 C   0  0  0  0  0  0  0  0  0  0  0  0
   27.7774  -20.3876  -14.6551 C   0  0  2  0  0  0  0  0  0  0  0  0
   28.6882  -21.4560  -15.0063 N   0  0  0  0  0  0  0  0  0  0  0  0
   27.0446  -20.6918  -13.3900 C   0  0  0  0  0  0  0  0  0  0  0  0
   26.1509  -21.6015  -13.4684 O   0  0  0  0  0  0  0  0  0  0  0  0
   27.2633  -20.0677  -12.1628 N   0  0  0  0  0  0  0  0  0  0  0  0
   26.5477  -20.4865  -10.9621 C   0  0  1  0  0  0  0  0  0  0  0  0
   27.1894  -19.8592   -9.7445 C   0  0  0  0  0  0  0  0  0  0  0  0
   26.6473  -20.3266   -8.4577 C   0  0  0  0  0  0  0  0  0  0  0  0
   25.5124  -21.1492   -8.4075 C   0  0  0  0  0  0  0  0  0  0  0  0
   25.2946  -21.4402   -7.1187 N   0  0  0  0  0  0  0  0  0  0  0  0
   26.1900  -20.8784   -6.3077 C   0  0  0  0  0  0  0  0  0  0  0  0
   26.3931  -20.8613   -4.9450 C   0  0  0  0  0  0  0  0  0  0  0  0
   27.4516  -20.1410   -4.3855 C   0  0  0  0  0  0  0  0  0  0  0  0
   28.2812  -19.4520   -5.2325 C   0  0  0  0  0  0  0  0  0  0  0  0
   28.0763  -19.4707   -6.5991 C   0  0  0  0  0  0  0  0  0  0  0  0
   27.0426  -20.1746   -7.1588 C   0  0  0  0  0  0  0  0  0  0  0  0
   25.1182  -20.2129  -10.9936 C   0  0  0  0  0  0  0  0  0  0  0  0
   24.7015  -19.0368  -11.1445 O   0  0  0  0  0  0  0  0  0  0  0  0
   24.1110  -21.2249  -10.8595 N   0  0  0  0  0  0  0  0  0  0  0  0
   22.7401  -21.0276  -11.2840 C   0  0  1  0  0  0  0  0  0  0  0  0
   22.1000  -22.3426  -11.6651 C   0  0  0  0  0  0  0  0  0  0  0  0
   20.6689  -22.1491  -12.1223 C   0  0  0  0  0  0  0  0  0  0  0  0
   19.9919  -23.4498  -12.4408 C   0  0  0  0  0  0  0  0  0  0  0  0
   18.5727  -23.2242  -12.8939 C   0  0  0  0  0  0  0  0  0  0  0  0
   17.9309  -24.4772  -13.2434 N   0  0  0  0  0  0  0  0  0  0  0  0
   21.9487  -20.5048  -10.1219 C   0  0  0  0  0  0  0  0  0  0  0  0
   22.0721  -20.9875   -8.9739 O   0  0  0  0  0  0  0  0  0  0  0  0
   21.0585  -19.4654  -10.3102 O   0  0  0  0  0  0  0  0  0  0  0  0
  2  1  1  0
  3  2  2  0
  4  2  1  0
  5  6  1  6
  5  4  1  0
  7  9  1  0
  7  5  1  0
  8  7  2  0
 10  9  1  0
 10 11  1  1
 11 12  1  0
 12 20  1  0
 13 12  2  0
 13 14  1  0
 14 15  1  0
 15 16  1  0
 16 17  2  0
 18 17  1  0
 19 18  2  0
 20 15  2  0
 20 19  1  0
 21 10  1  0
 22 21  2  0
 23 21  1  0
 24 30  1  0
 24 23  1  0
 24 25  1  1
 26 25  1  0
 26 27  1  0
 27 28  1  0
 29 28  1  0
 30 32  1  0
 31 30  2  0
M  END
$$$$
