NWK.pdb
     RDKit          3D

 32 33  0  0  1  0  0  0  0  0999 V2000
   28.6458  -16.5518  -15.9291 N   0  0  0  0  0  0  0  0  0  0  0  0
   27.5030  -16.7711  -16.7279 C   0  0  0  0  0  0  0  0  0  0  0  0
   27.3939  -16.1923  -17.8233 O   0  0  0  0  0  0  0  0  0  0  0  0
   26.4467  -17.6830  -16.2613 C   0  0  0  0  0  0  0  0  0  0  0  0
   27.0040  -19.0698  -16.1559 C   0  0  2  0  0  0  0  0  0  0  0  0
   27.4307  -19.5833  -17.4398 N   0  0  0  0  0  0  0  0  0  0  0  0
   26.0513  -20.0045  -15.4860 C   0  0  0  0  0  0  0  0  0  0  0  0
   25.0226  -20.3351  -16.1676 O   0  0  0  0  0  0  0  0  0  0  0  0
   26.2040  -20.5266  -14.2024 N   0  0  0  0  0  0  0  0  0  0  0  0
   25.1933  -21.3997  -13.6150 C   0  0  1  0  0  0  0  0  0  0  0  0
   25.7321  -22.0148  -12.3425 C   0  0  0  0  0  0  0  0  0  0  0  0
   26.3659  -21.0574  -11.4206 C   0  0  0  0  0  0  0  0  0  0  0  0
   27.3628  -20.1769  -11.8658 C   0  0  0  0  0  0  0  0  0  0  0  0
   27.7053  -19.4109  -10.8223 N   0  0  0  0  0  0  0  0  0  0  0  0
   27.0194  -19.7096   -9.7199 C   0  0  0  0  0  0  0  0  0  0  0  0
   27.0049  -19.2384   -8.4251 C   0  0  0  0  0  0  0  0  0  0  0  0
   26.1492  -19.7915   -7.4690 C   0  0  0  0  0  0  0  0  0  0  0  0
   25.3253  -20.8164   -7.8575 C   0  0  0  0  0  0  0  0  0  0  0  0
   25.3408  -21.2873   -9.1567 C   0  0  0  0  0  0  0  0  0  0  0  0
   26.1745  -20.7517  -10.1028 C   0  0  0  0  0  0  0  0  0  0  0  0
   23.9118  -20.7521  -13.3753 C   0  0  0  0  0  0  0  0  0  0  0  0
   23.8673  -19.5463  -13.0236 O   0  0  0  0  0  0  0  0  0  0  0  0
   22.6471  -21.4136  -13.5157 N   0  0  0  0  0  0  0  0  0  0  0  0
   21.3869  -20.6995  -13.5359 C   0  0  1  0  0  0  0  0  0  0  0  0
   20.6996  -20.8580  -14.8726 C   0  0  0  0  0  0  0  0  0  0  0  0
   19.3806  -20.1142  -14.9080 C   0  0  0  0  0  0  0  0  0  0  0  0
   18.5949  -20.4067  -16.1525 C   0  0  0  0  0  0  0  0  0  0  0  0
   17.5952  -19.3141  -16.4303 C   0  0  0  0  0  0  0  0  0  0  0  0
   16.5003  -19.3543  -15.4795 N   0  0  0  0  0  0  0  0  0  0  0  0
   20.4687  -21.3180  -12.5238 C   0  0  0  0  0  0  0  0  0  0  0  0
   19.7598  -20.6177  -11.7666 O   0  0  0  0  0  0  0  0  0  0  0  0
   20.3944  -22.6931  -12.4147 O   0  0  0  0  0  0  0  0  0  0  0  0
  2  1  1  0
  3  2  2  0
  4  2  1  0
  5  6  1  6
  5  4  1  0
  7  9  1  0
  7  5  1  0
  8  7  2  0
 10  9  1  0
 10 11  1  1
 11 12  1  0
 12 20  1  0
 13 12  2  0
 13 14  1  0
 14 15  1  0
 15 16  1  0
 16 17  2  0
 18 17  1  0
 19 18  2  0
 20 15  2  0
 20 19  1  0
 21 10  1  0
 22 21  2  0
 23 21  1  0
 24 30  1  0
 24 23  1  0
 24 25  1  6
 26 25  1  0
 26 27  1  0
 27 28  1  0
 29 28  1  0
 30 32  1  0
 31 30  2  0
M  END
$$$$
