NWK.pdb
     RDKit          3D

 32 33  0  0  1  0  0  0  0  0999 V2000
   26.8193  -20.7877  -17.1706 N   0  0  0  0  0  0  0  0  0  0  0  0
   26.8550  -20.1606  -15.9066 C   0  0  0  0  0  0  0  0  0  0  0  0
   27.4693  -19.0885  -15.7654 O   0  0  0  0  0  0  0  0  0  0  0  0
   26.1657  -20.7779  -14.7626 C   0  0  0  0  0  0  0  0  0  0  0  0
   27.1317  -20.9266  -13.6270 C   0  0  2  0  0  0  0  0  0  0  0  0
   28.1725  -21.8882  -13.9209 N   0  0  0  0  0  0  0  0  0  0  0  0
   26.4392  -21.2503  -12.3441 C   0  0  0  0  0  0  0  0  0  0  0  0
   25.9862  -22.4403  -12.2400 O   0  0  0  0  0  0  0  0  0  0  0  0
   26.2582  -20.3662  -11.2815 N   0  0  0  0  0  0  0  0  0  0  0  0
   25.5783  -20.7810  -10.0589 C   0  0  1  0  0  0  0  0  0  0  0  0
   26.0074  -19.8914   -8.9133 C   0  0  0  0  0  0  0  0  0  0  0  0
   27.2728  -20.2866   -8.2723 C   0  0  0  0  0  0  0  0  0  0  0  0
   28.2048  -21.0891   -8.9465 C   0  0  0  0  0  0  0  0  0  0  0  0
   29.2581  -21.2362   -8.1330 N   0  0  0  0  0  0  0  0  0  0  0  0
   29.1034  -20.5988   -6.9733 C   0  0  0  0  0  0  0  0  0  0  0  0
   29.8648  -20.4518   -5.8344 C   0  0  0  0  0  0  0  0  0  0  0  0
   29.3979  -19.7053   -4.7495 C   0  0  0  0  0  0  0  0  0  0  0  0
   28.1602  -19.1242   -4.8521 C   0  0  0  0  0  0  0  0  0  0  0  0
   27.3980  -19.2722   -5.9954 C   0  0  0  0  0  0  0  0  0  0  0  0
   27.8463  -20.0006   -7.0657 C   0  0  0  0  0  0  0  0  0  0  0  0
   24.1272  -20.8221  -10.1678 C   0  0  0  0  0  0  0  0  0  0  0  0
   23.5395  -20.1570  -11.0577 O   0  0  0  0  0  0  0  0  0  0  0  0
   23.2856  -21.5949   -9.3010 N   0  0  0  0  0  0  0  0  0  0  0  0
   21.8703  -21.7830   -9.5459 C   0  0  1  0  0  0  0  0  0  0  0  0
   21.2387  -22.6066   -8.4473 C   0  0  0  0  0  0  0  0  0  0  0  0
   19.7708  -22.8610   -8.7211 C   0  0  0  0  0  0  0  0  0  0  0  0
   19.1379  -23.7285   -7.6731 C   0  0  0  0  0  0  0  0  0  0  0  0
   17.7192  -24.0761   -8.0431 C   0  0  0  0  0  0  0  0  0  0  0  0
   17.1105  -24.9254   -7.0369 N   0  0  0  0  0  0  0  0  0  0  0  0
   21.1935  -20.4451   -9.4998 C   0  0  0  0  0  0  0  0  0  0  0  0
   20.1312  -20.2254  -10.1239 O   0  0  0  0  0  0  0  0  0  0  0  0
   21.7460  -19.4221   -8.7539 O   0  0  0  0  0  0  0  0  0  0  0  0
  2  1  1  0
  3  2  2  0
  4  2  1  0
  5  6  1  6
  5  4  1  0
  7  9  1  0
  7  5  1  0
  8  7  2  0
 10  9  1  0
 10 11  1  1
 11 12  1  0
 12 20  1  0
 13 12  2  0
 13 14  1  0
 14 15  1  0
 15 16  1  0
 16 17  2  0
 18 17  1  0
 19 18  2  0
 20 15  2  0
 20 19  1  0
 21 10  1  0
 22 21  2  0
 23 21  1  0
 24 30  1  0
 24 23  1  0
 24 25  1  1
 26 25  1  0
 26 27  1  0
 27 28  1  0
 29 28  1  0
 30 32  1  0
 31 30  2  0
M  END
$$$$
