NWK.pdb
     RDKit          3D

 32 33  0  0  1  0  0  0  0  0999 V2000
   42.9536  -11.9917   -6.0077 N   0  0  0  0  0  0  0  0  0  0  0  0
   43.6939  -10.9130   -6.5373 C   0  0  0  0  0  0  0  0  0  0  0  0
   44.8988  -11.0631   -6.8065 O   0  0  0  0  0  0  0  0  0  0  0  0
   43.0371   -9.6168   -6.7683 C   0  0  0  0  0  0  0  0  0  0  0  0
   41.9442   -9.7911   -7.7784 C   0  0  2  0  0  0  0  0  0  0  0  0
   42.4540  -10.2248   -9.0614 N   0  0  0  0  0  0  0  0  0  0  0  0
   41.1078   -8.5614   -7.9132 C   0  0  0  0  0  0  0  0  0  0  0  0
   41.5993   -7.6294   -8.6358 O   0  0  0  0  0  0  0  0  0  0  0  0
   39.8613   -8.3664   -7.3202 N   0  0  0  0  0  0  0  0  0  0  0  0
   39.2400   -7.0468   -7.2799 C   0  0  1  0  0  0  0  0  0  0  0  0
   37.8173   -7.1711   -6.7816 C   0  0  0  0  0  0  0  0  0  0  0  0
   37.1288   -5.8870   -6.5690 C   0  0  0  0  0  0  0  0  0  0  0  0
   36.8235   -5.0433   -7.6471 C   0  0  0  0  0  0  0  0  0  0  0  0
   36.1663   -3.9891   -7.1474 N   0  0  0  0  0  0  0  0  0  0  0  0
   36.0102   -4.0613   -5.8262 C   0  0  0  0  0  0  0  0  0  0  0  0
   35.4336   -3.2554   -4.8689 C   0  0  0  0  0  0  0  0  0  0  0  0
   35.4484   -3.6191   -3.5199 C   0  0  0  0  0  0  0  0  0  0  0  0
   36.0536   -4.8010   -3.1777 C   0  0  0  0  0  0  0  0  0  0  0  0
   36.6310   -5.6084   -4.1394 C   0  0  0  0  0  0  0  0  0  0  0  0
   36.6211   -5.2625   -5.4650 C   0  0  0  0  0  0  0  0  0  0  0  0
   39.9781   -6.0635   -6.5004 C   0  0  0  0  0  0  0  0  0  0  0  0
   40.3705   -6.3407   -5.3390 O   0  0  0  0  0  0  0  0  0  0  0  0
   40.3030   -4.7507   -6.9777 N   0  0  0  0  0  0  0  0  0  0  0  0
   40.9696   -3.7609   -6.1566 C   0  0  1  0  0  0  0  0  0  0  0  0
   42.3083   -3.3838   -6.7482 C   0  0  0  0  0  0  0  0  0  0  0  0
   43.0007   -2.3228   -5.9181 C   0  0  0  0  0  0  0  0  0  0  0  0
   44.3215   -1.9149   -6.5018 C   0  0  0  0  0  0  0  0  0  0  0  0
   45.0413   -0.9536   -5.5918 C   0  0  0  0  0  0  0  0  0  0  0  0
   46.3139   -0.5508   -6.1598 N   0  0  0  0  0  0  0  0  0  0  0  0
   40.1492   -2.5050   -6.1582 C   0  0  0  0  0  0  0  0  0  0  0  0
   39.4477   -2.1810   -7.1426 O   0  0  0  0  0  0  0  0  0  0  0  0
   40.1597   -1.6773   -5.0524 O   0  0  0  0  0  0  0  0  0  0  0  0
  2  1  1  0
  3  2  2  0
  4  2  1  0
  5  6  1  6
  5  4  1  0
  7  9  1  0
  7  5  1  0
  8  7  2  0
 10  9  1  0
 10 11  1  1
 11 12  1  0
 12 20  1  0
 13 12  2  0
 13 14  1  0
 14 15  1  0
 15 16  1  0
 16 17  2  0
 18 17  1  0
 19 18  2  0
 20 15  2  0
 20 19  1  0
 21 10  1  0
 22 21  2  0
 23 21  1  0
 24 30  1  0
 24 23  1  0
 24 25  1  6
 26 25  1  0
 26 27  1  0
 27 28  1  0
 29 28  1  0
 30 32  1  0
 31 30  2  0
M  END
$$$$
