PHG.pdb
     RDKit          3D

 22 23  0  0  1  0  0  0  0  0999 V2000
   25.9426  -16.8317  -15.5408 N   0  0  0  0  0  0  0  0  0  0  0  0
   27.0325  -15.8778  -15.5258 C   0  0  0  0  0  0  0  0  0  0  0  0
   27.9722  -16.2595  -16.6200 C   0  0  0  0  0  0  0  0  0  0  0  0
   27.4026  -17.5191  -17.1755 C   0  0  0  0  0  0  0  0  0  0  0  0
   25.9280  -17.4408  -16.8341 C   0  0  1  0  0  0  0  0  0  0  0  0
   25.4229  -18.8352  -16.7808 C   0  0  0  0  0  0  0  0  0  0  0  0
   25.3790  -19.5063  -17.8141 O   0  0  0  0  0  0  0  0  0  0  0  0
   24.9742  -19.4600  -15.5755 N   0  0  0  0  0  0  0  0  0  0  0  0
   24.5666  -20.8088  -15.4745 C   0  0  1  0  0  0  0  0  0  0  0  0
   25.4481  -21.8080  -14.8655 C   0  0  0  0  0  0  0  0  0  0  0  0
   26.7564  -22.0416  -15.4976 C   0  0  0  0  0  0  0  0  0  0  0  0
   27.2065  -22.9197  -16.4413 C   0  0  0  0  0  0  0  0  0  0  0  0
   28.5338  -22.6641  -16.6581 N   0  0  0  0  0  0  0  0  0  0  0  0
   28.9002  -21.6498  -15.8672 C   0  0  0  0  0  0  0  0  0  0  0  0
   27.8466  -21.2751  -15.1742 N   0  0  0  0  0  0  0  0  0  0  0  0
   23.2559  -20.8292  -14.7209 C   0  0  0  0  0  0  0  0  0  0  0  0
   22.6022  -21.8905  -14.5830 O   0  0  0  0  0  0  0  0  0  0  0  0
   22.7125  -19.6476  -14.1401 N   0  0  0  0  0  0  0  0  0  0  0  0
   21.4561  -19.6490  -13.4219 C   0  0  0  0  0  0  0  0  0  0  0  0
   20.3616  -19.2370  -14.3111 C   0  0  0  0  0  0  0  0  0  0  0  0
   20.5859  -19.0562  -15.5370 O   0  0  0  0  0  0  0  0  0  0  0  0
   19.0634  -19.0306  -13.8668 O   0  0  0  0  0  0  0  0  0  0  0  0
  1  5  1  0
  2  3  1  0
  2  1  1  0
  3  4  1  0
  4  5  1  0
  5  6  1  1
  6  7  2  0
  8  9  1  0
  8  6  1  0
  9 16  1  0
  9 10  1  1
 11 10  1  0
 11 15  1  0
 12 13  1  0
 12 11  2  0
 13 14  1  0
 14 15  2  0
 16 17  2  0
 18 16  1  0
 18 19  1  0
 19 20  1  0
 20 21  2  0
 20 22  1  0
M  END
$$$$
