PHG.pdb
     RDKit          3D

 22 23  0  0  1  0  0  0  0  0999 V2000
   25.6967  -17.0003  -18.0241 N   0  0  0  0  0  0  0  0  0  0  0  0
   26.8138  -16.3444  -18.6721 C   0  0  0  0  0  0  0  0  0  0  0  0
   27.5978  -17.3979  -19.3801 C   0  0  0  0  0  0  0  0  0  0  0  0
   26.9195  -18.6732  -19.0153 C   0  0  0  0  0  0  0  0  0  0  0  0
   25.5017  -18.2557  -18.6798 C   0  0  1  0  0  0  0  0  0  0  0  0
   24.9571  -19.2812  -17.7558 C   0  0  0  0  0  0  0  0  0  0  0  0
   24.8153  -20.4409  -18.1495 O   0  0  0  0  0  0  0  0  0  0  0  0
   24.5789  -18.9977  -16.4064 N   0  0  0  0  0  0  0  0  0  0  0  0
   24.0249  -19.9415  -15.5130 C   0  0  1  0  0  0  0  0  0  0  0  0
   24.8748  -20.6308  -14.5389 C   0  0  0  0  0  0  0  0  0  0  0  0
   26.1022  -21.2728  -15.0357 C   0  0  0  0  0  0  0  0  0  0  0  0
   26.4072  -22.5397  -15.4438 C   0  0  0  0  0  0  0  0  0  0  0  0
   27.7228  -22.5570  -15.8222 N   0  0  0  0  0  0  0  0  0  0  0  0
   28.2239  -21.3286  -15.6533 C   0  0  0  0  0  0  0  0  0  0  0  0
   27.2641  -20.5600  -15.1856 N   0  0  0  0  0  0  0  0  0  0  0  0
   22.9191  -19.2469  -14.7509 C   0  0  0  0  0  0  0  0  0  0  0  0
   23.1705  -18.3316  -13.9313 O   0  0  0  0  0  0  0  0  0  0  0  0
   21.5521  -19.6038  -14.9319 N   0  0  0  0  0  0  0  0  0  0  0  0
   20.4803  -18.9322  -14.2288 C   0  0  0  0  0  0  0  0  0  0  0  0
   19.7651  -19.8815  -13.3653 C   0  0  0  0  0  0  0  0  0  0  0  0
   20.1051  -21.0940  -13.3526 O   0  0  0  0  0  0  0  0  0  0  0  0
   18.7111  -19.5098  -12.5432 O   0  0  0  0  0  0  0  0  0  0  0  0
  1  5  1  0
  2  3  1  0
  2  1  1  0
  3  4  1  0
  4  5  1  0
  5  6  1  1
  6  7  2  0
  8  9  1  0
  8  6  1  0
  9 16  1  0
  9 10  1  1
 11 10  1  0
 11 15  1  0
 12 13  1  0
 12 11  2  0
 13 14  1  0
 14 15  2  0
 16 17  2  0
 18 16  1  0
 18 19  1  0
 19 20  1  0
 20 21  2  0
 20 22  1  0
M  END
$$$$
