PHG.pdb
     RDKit          3D

 22 23  0  0  1  0  0  0  0  0999 V2000
   28.3854  -26.5235  -21.4008 N   0  0  0  0  0  0  0  0  0  0  0  0
   28.3418  -25.4139  -22.3307 C   0  0  0  0  0  0  0  0  0  0  0  0
   29.2151  -24.3373  -21.7792 C   0  0  0  0  0  0  0  0  0  0  0  0
   29.6649  -24.8639  -20.4601 C   0  0  0  0  0  0  0  0  0  0  0  0
   29.5656  -26.3690  -20.6089 C   0  0  1  0  0  0  0  0  0  0  0  0
   29.3910  -26.9267  -19.2449 C   0  0  0  0  0  0  0  0  0  0  0  0
   30.3007  -26.8140  -18.4204 O   0  0  0  0  0  0  0  0  0  0  0  0
   28.2040  -27.6019  -18.8210 N   0  0  0  0  0  0  0  0  0  0  0  0
   27.9673  -28.0594  -17.5056 C   0  0  1  0  0  0  0  0  0  0  0  0
   26.8869  -27.4832  -16.7013 C   0  0  0  0  0  0  0  0  0  0  0  0
   26.8762  -26.0233  -16.5161 C   0  0  0  0  0  0  0  0  0  0  0  0
   27.7100  -25.0151  -16.9069 C   0  0  0  0  0  0  0  0  0  0  0  0
   27.1842  -23.8334  -16.4584 N   0  0  0  0  0  0  0  0  0  0  0  0
   26.0490  -24.1012  -15.8039 C   0  0  0  0  0  0  0  0  0  0  0  0
   25.8605  -25.4028  -15.8351 N   0  0  0  0  0  0  0  0  0  0  0  0
   27.7408  -29.5525  -17.5807 C   0  0  0  0  0  0  0  0  0  0  0  0
   27.1916  -30.0769  -18.5787 O   0  0  0  0  0  0  0  0  0  0  0  0
   28.1401  -30.4203  -16.5241 N   0  0  0  0  0  0  0  0  0  0  0  0
   27.9638  -31.8548  -16.5963 C   0  0  0  0  0  0  0  0  0  0  0  0
   28.3677  -32.4812  -15.3302 C   0  0  0  0  0  0  0  0  0  0  0  0
   28.7889  -31.7646  -14.3842 O   0  0  0  0  0  0  0  0  0  0  0  0
   28.3104  -33.8502  -15.1119 O   0  0  0  0  0  0  0  0  0  0  0  0
  1  5  1  0
  2  3  1  0
  2  1  1  0
  3  4  1  0
  4  5  1  0
  5  6  1  1
  6  7  2  0
  8  9  1  0
  8  6  1  0
  9 16  1  0
  9 10  1  6
 11 10  1  0
 11 15  1  0
 12 13  1  0
 12 11  2  0
 13 14  1  0
 14 15  2  0
 16 17  2  0
 18 16  1  0
 18 19  1  0
 19 20  1  0
 20 21  2  0
 20 22  1  0
M  END
$$$$
