PHG.pdb
     RDKit          3D

 22 23  0  0  1  0  0  0  0  0999 V2000
   18.5323  -15.1910    3.9236 N   0  0  0  0  0  0  0  0  0  0  0  0
   18.6162  -14.4413    2.6871 C   0  0  0  0  0  0  0  0  0  0  0  0
   17.2421  -14.3825    2.1090 C   0  0  0  0  0  0  0  0  0  0  0  0
   16.4163  -15.2126    3.0301 C   0  0  0  0  0  0  0  0  0  0  0  0
   17.1667  -15.1637    4.3460 C   0  0  1  0  0  0  0  0  0  0  0  0
   16.7980  -16.3883    5.0987 C   0  0  0  0  0  0  0  0  0  0  0  0
   15.6572  -16.5037    5.5516 O   0  0  0  0  0  0  0  0  0  0  0  0
   17.7077  -17.4659    5.3348 N   0  0  0  0  0  0  0  0  0  0  0  0
   17.3834  -18.6521    6.0300 C   0  0  1  0  0  0  0  0  0  0  0  0
   17.1295  -19.8962    5.2992 C   0  0  0  0  0  0  0  0  0  0  0  0
   16.3556  -19.8100    4.0505 C   0  0  0  0  0  0  0  0  0  0  0  0
   16.6845  -19.8890    2.7276 C   0  0  0  0  0  0  0  0  0  0  0  0
   15.5349  -19.7527    1.9970 N   0  0  0  0  0  0  0  0  0  0  0  0
   14.5145  -19.5929    2.8466 C   0  0  0  0  0  0  0  0  0  0  0  0
   14.9968  -19.6262    4.0701 N   0  0  0  0  0  0  0  0  0  0  0  0
   18.4978  -18.9160    7.0173 C   0  0  0  0  0  0  0  0  0  0  0  0
   19.7005  -18.7689    6.6939 O   0  0  0  0  0  0  0  0  0  0  0  0
   18.2272  -19.3417    8.3493 N   0  0  0  0  0  0  0  0  0  0  0  0
   19.2820  -19.5952    9.3070 C   0  0  0  0  0  0  0  0  0  0  0  0
   19.8398  -18.3273    9.7968 C   0  0  0  0  0  0  0  0  0  0  0  0
   19.4103  -17.2362    9.3377 O   0  0  0  0  0  0  0  0  0  0  0  0
   20.8368  -18.2617   10.7595 O   0  0  0  0  0  0  0  0  0  0  0  0
  1  5  1  0
  2  3  1  0
  2  1  1  0
  3  4  1  0
  4  5  1  0
  5  6  1  1
  6  7  2  0
  8  9  1  0
  8  6  1  0
  9 16  1  0
  9 10  1  6
 11 10  1  0
 11 15  1  0
 12 13  1  0
 12 11  2  0
 13 14  1  0
 14 15  2  0
 16 17  2  0
 18 16  1  0
 18 19  1  0
 19 20  1  0
 20 21  2  0
 20 22  1  0
M  END
$$$$
