PHG.pdb
     RDKit          3D

 22 23  0  0  1  0  0  0  0  0999 V2000
   25.8169  -10.6132  -15.6114 N   0  0  0  0  0  0  0  0  0  0  0  0
   26.8235  -11.6545  -15.6337 C   0  0  0  0  0  0  0  0  0  0  0  0
   26.8333  -12.2336  -17.0086 C   0  0  0  0  0  0  0  0  0  0  0  0
   25.7242  -11.5327  -17.7144 C   0  0  0  0  0  0  0  0  0  0  0  0
   25.5784  -10.2228  -16.9660 C   0  0  1  0  0  0  0  0  0  0  0  0
   24.1822   -9.7629  -17.1692 C   0  0  0  0  0  0  0  0  0  0  0  0
   23.8128   -9.4183  -18.2938 O   0  0  0  0  0  0  0  0  0  0  0  0
   23.2190   -9.6943  -16.1147 N   0  0  0  0  0  0  0  0  0  0  0  0
   21.8587   -9.3563  -16.2912 C   0  0  1  0  0  0  0  0  0  0  0  0
   20.8092  -10.3515  -16.0578 C   0  0  0  0  0  0  0  0  0  0  0  0
   20.8231  -11.5671  -16.8871 C   0  0  0  0  0  0  0  0  0  0  0  0
   20.7293  -11.7960  -18.2299 C   0  0  0  0  0  0  0  0  0  0  0  0
   20.8201  -13.1463  -18.4363 N   0  0  0  0  0  0  0  0  0  0  0  0
   20.9672  -13.7431  -17.2485 C   0  0  0  0  0  0  0  0  0  0  0  0
   20.9698  -12.8083  -16.3228 N   0  0  0  0  0  0  0  0  0  0  0  0
   21.5707   -8.1655  -15.4050 C   0  0  0  0  0  0  0  0  0  0  0  0
   20.4527   -7.5976  -15.4229 O   0  0  0  0  0  0  0  0  0  0  0  0
   22.5547   -7.6422  -14.5180 N   0  0  0  0  0  0  0  0  0  0  0  0
   22.2955   -6.5025  -13.6648 C   0  0  0  0  0  0  0  0  0  0  0  0
   22.6476   -5.2566  -14.3594 C   0  0  0  0  0  0  0  0  0  0  0  0
   23.0275   -5.2954  -15.5593 O   0  0  0  0  0  0  0  0  0  0  0  0
   22.5840   -4.0097  -13.7543 O   0  0  0  0  0  0  0  0  0  0  0  0
  1  5  1  0
  2  3  1  0
  2  1  1  0
  3  4  1  0
  4  5  1  0
  5  6  1  1
  6  7  2  0
  8  9  1  0
  8  6  1  0
  9 16  1  0
  9 10  1  1
 11 10  1  0
 11 15  1  0
 12 13  1  0
 12 11  2  0
 13 14  1  0
 14 15  2  0
 16 17  2  0
 18 16  1  0
 18 19  1  0
 19 20  1  0
 20 21  2  0
 20 22  1  0
M  END
$$$$
