PHG.pdb
     RDKit          3D

 22 23  0  0  1  0  0  0  0  0999 V2000
   22.3292  -10.5766  -16.1642 N   0  0  0  0  0  0  0  0  0  0  0  0
   22.4871  -11.9935  -16.4204 C   0  0  0  0  0  0  0  0  0  0  0  0
   21.1677  -12.5104  -16.8870 C   0  0  0  0  0  0  0  0  0  0  0  0
   20.2532  -11.3387  -16.7853 C   0  0  0  0  0  0  0  0  0  0  0  0
   21.1749  -10.1398  -16.8859 C   0  0  1  0  0  0  0  0  0  0  0  0
   20.4924   -9.0125  -16.2036 C   0  0  0  0  0  0  0  0  0  0  0  0
   19.4611   -8.5423  -16.6887 O   0  0  0  0  0  0  0  0  0  0  0  0
   20.9707   -8.4265  -14.9902 N   0  0  0  0  0  0  0  0  0  0  0  0
   20.2979   -7.4164  -14.2672 C   0  0  1  0  0  0  0  0  0  0  0  0
   19.9521   -7.6161  -12.8576 C   0  0  0  0  0  0  0  0  0  0  0  0
   18.9123   -8.6087  -12.5426 C   0  0  0  0  0  0  0  0  0  0  0  0
   18.1644   -9.4659  -13.2979 C   0  0  0  0  0  0  0  0  0  0  0  0
   17.3541  -10.1764  -12.4538 N   0  0  0  0  0  0  0  0  0  0  0  0
   17.5931   -9.7702  -11.2023 C   0  0  0  0  0  0  0  0  0  0  0  0
   18.5196   -8.8374  -11.2488 N   0  0  0  0  0  0  0  0  0  0  0  0
   21.1328   -6.1595  -14.3639 C   0  0  0  0  0  0  0  0  0  0  0  0
   22.2736   -6.0959  -13.8470 O   0  0  0  0  0  0  0  0  0  0  0  0
   20.6582   -5.0008  -15.0431 N   0  0  0  0  0  0  0  0  0  0  0  0
   21.4749   -3.8185  -15.2136 C   0  0  0  0  0  0  0  0  0  0  0  0
   20.9987   -2.7405  -14.3362 C   0  0  0  0  0  0  0  0  0  0  0  0
   20.0578   -2.9609  -13.5288 O   0  0  0  0  0  0  0  0  0  0  0  0
   21.5393   -1.4627  -14.3466 O   0  0  0  0  0  0  0  0  0  0  0  0
  1  5  1  0
  2  3  1  0
  2  1  1  0
  3  4  1  0
  4  5  1  0
  5  6  1  1
  6  7  2  0
  8  9  1  0
  8  6  1  0
  9 16  1  0
  9 10  1  1
 11 10  1  0
 11 15  1  0
 12 13  1  0
 12 11  2  0
 13 14  1  0
 14 15  2  0
 16 17  2  0
 18 16  1  0
 18 19  1  0
 19 20  1  0
 20 21  2  0
 20 22  1  0
M  END
$$$$
