PHG.pdb
     RDKit          3D

 22 23  0  0  1  0  0  0  0  0999 V2000
   33.0999  -35.1656   -5.9123 N   0  0  0  0  0  0  0  0  0  0  0  0
   34.0435  -35.5567   -6.9392 C   0  0  0  0  0  0  0  0  0  0  0  0
   34.0676  -34.4677   -7.9586 C   0  0  0  0  0  0  0  0  0  0  0  0
   33.0272  -33.5057   -7.4984 C   0  0  0  0  0  0  0  0  0  0  0  0
   32.9326  -33.7488   -6.0054 C   0  0  1  0  0  0  0  0  0  0  0  0
   31.5739  -33.3255   -5.5847 C   0  0  0  0  0  0  0  0  0  0  0  0
   31.2980  -32.1248   -5.5378 O   0  0  0  0  0  0  0  0  0  0  0  0
   30.5433  -34.2481   -5.2225 N   0  0  0  0  0  0  0  0  0  0  0  0
   29.2091  -33.8869   -4.9311 C   0  0  1  0  0  0  0  0  0  0  0  0
   28.1081  -34.3722   -5.7670 C   0  0  0  0  0  0  0  0  0  0  0  0
   27.5524  -33.4493   -6.7694 C   0  0  0  0  0  0  0  0  0  0  0  0
   27.8861  -32.1917   -7.1837 C   0  0  0  0  0  0  0  0  0  0  0  0
   27.0139  -31.8271   -8.1739 N   0  0  0  0  0  0  0  0  0  0  0  0
   26.1578  -32.8355   -8.3708 C   0  0  0  0  0  0  0  0  0  0  0  0
   26.4734  -33.8037   -7.5379 N   0  0  0  0  0  0  0  0  0  0  0  0
   28.9278  -34.3090   -3.5067 C   0  0  0  0  0  0  0  0  0  0  0  0
   27.8303  -34.0512   -2.9573 O   0  0  0  0  0  0  0  0  0  0  0  0
   29.8951  -35.0134   -2.7340 N   0  0  0  0  0  0  0  0  0  0  0  0
   29.6230  -35.4697   -1.3880 C   0  0  0  0  0  0  0  0  0  0  0  0
   30.8039  -36.1430   -0.8307 C   0  0  0  0  0  0  0  0  0  0  0  0
   31.8202  -36.3226   -1.5523 O   0  0  0  0  0  0  0  0  0  0  0  0
   30.8650  -36.6034    0.4768 O   0  0  0  0  0  0  0  0  0  0  0  0
  1  5  1  0
  2  3  1  0
  2  1  1  0
  3  4  1  0
  4  5  1  0
  5  6  1  6
  6  7  2  0
  8  9  1  0
  8  6  1  0
  9 16  1  0
  9 10  1  6
 11 10  1  0
 11 15  1  0
 12 13  1  0
 12 11  2  0
 13 14  1  0
 14 15  2  0
 16 17  2  0
 18 16  1  0
 18 19  1  0
 19 20  1  0
 20 21  2  0
 20 22  1  0
M  END
$$$$
