PHG.pdb
     RDKit          3D

 22 23  0  0  1  0  0  0  0  0999 V2000
   25.7981  -20.7669   -8.1948 N   0  0  0  0  0  0  0  0  0  0  0  0
   26.2333  -20.9644   -6.8275 C   0  0  0  0  0  0  0  0  0  0  0  0
   27.0969  -19.8035   -6.4639 C   0  0  0  0  0  0  0  0  0  0  0  0
   27.1964  -19.0077   -7.7194 C   0  0  0  0  0  0  0  0  0  0  0  0
   25.9453  -19.3762   -8.4916 C   0  0  1  0  0  0  0  0  0  0  0  0
   26.2416  -19.1474   -9.9275 C   0  0  0  0  0  0  0  0  0  0  0  0
   26.5074  -18.0094  -10.3202 O   0  0  0  0  0  0  0  0  0  0  0  0
   26.2369  -20.1919  -10.9041 N   0  0  0  0  0  0  0  0  0  0  0  0
   26.4956  -20.0049  -12.2802 C   0  0  1  0  0  0  0  0  0  0  0  0
   27.4332  -20.8819  -12.9861 C   0  0  0  0  0  0  0  0  0  0  0  0
   28.7290  -21.1553  -12.3445 C   0  0  0  0  0  0  0  0  0  0  0  0
   29.3366  -20.6991  -11.2099 C   0  0  0  0  0  0  0  0  0  0  0  0
   30.5503  -21.3227  -11.1001 N   0  0  0  0  0  0  0  0  0  0  0  0
   30.6936  -22.1480  -12.1426 C   0  0  0  0  0  0  0  0  0  0  0  0
   29.6129  -22.0528  -12.8866 N   0  0  0  0  0  0  0  0  0  0  0  0
   25.1688  -20.0713  -13.0023 C   0  0  0  0  0  0  0  0  0  0  0  0
   25.0732  -19.7669  -14.2151 O   0  0  0  0  0  0  0  0  0  0  0  0
   23.9781  -20.4800  -12.3359 N   0  0  0  0  0  0  0  0  0  0  0  0
   22.7034  -20.5623  -13.0160 C   0  0  0  0  0  0  0  0  0  0  0  0
   22.6747  -21.7336  -13.9025 C   0  0  0  0  0  0  0  0  0  0  0  0
   23.4505  -22.7015  -13.6854 O   0  0  0  0  0  0  0  0  0  0  0  0
   21.8212  -21.8369  -14.9915 O   0  0  0  0  0  0  0  0  0  0  0  0
  1  5  1  0
  2  3  1  0
  2  1  1  0
  3  4  1  0
  4  5  1  0
  5  6  1  6
  6  7  2  0
  8  9  1  0
  8  6  1  0
  9 16  1  0
  9 10  1  6
 11 10  1  0
 11 15  1  0
 12 13  1  0
 12 11  2  0
 13 14  1  0
 14 15  2  0
 16 17  2  0
 18 16  1  0
 18 19  1  0
 19 20  1  0
 20 21  2  0
 20 22  1  0
M  END
$$$$
