PHG.pdb
     RDKit          3D

 22 23  0  0  1  0  0  0  0  0999 V2000
   34.7770  -37.8046   -3.3370 N   0  0  0  0  0  0  0  0  0  0  0  0
   35.5633  -38.2863   -4.4539 C   0  0  0  0  0  0  0  0  0  0  0  0
   35.5691  -37.2122   -5.4893 C   0  0  0  0  0  0  0  0  0  0  0  0
   34.6740  -36.1580   -4.9353 C   0  0  0  0  0  0  0  0  0  0  0  0
   34.7245  -36.3793   -3.4367 C   0  0  1  0  0  0  0  0  0  0  0  0
   33.4630  -35.8338   -2.8772 C   0  0  0  0  0  0  0  0  0  0  0  0
   33.2791  -34.6147   -2.8668 O   0  0  0  0  0  0  0  0  0  0  0  0
   32.4254  -36.6565   -2.3377 N   0  0  0  0  0  0  0  0  0  0  0  0
   31.1628  -36.1827   -1.9168 C   0  0  1  0  0  0  0  0  0  0  0  0
   29.9912  -36.3166   -2.7861 C   0  0  0  0  0  0  0  0  0  0  0  0
   29.9010  -35.4262   -3.9543 C   0  0  0  0  0  0  0  0  0  0  0  0
   29.8993  -34.0697   -4.1105 C   0  0  0  0  0  0  0  0  0  0  0  0
   29.8071  -33.7982   -5.4491 N   0  0  0  0  0  0  0  0  0  0  0  0
   29.7531  -34.9597   -6.1098 C   0  0  0  0  0  0  0  0  0  0  0  0
   29.8087  -35.9321   -5.2255 N   0  0  0  0  0  0  0  0  0  0  0  0
   30.8421  -36.8583   -0.6027 C   0  0  0  0  0  0  0  0  0  0  0  0
   31.3000  -37.9927   -0.3267 O   0  0  0  0  0  0  0  0  0  0  0  0
   30.0092  -36.2359    0.3707 N   0  0  0  0  0  0  0  0  0  0  0  0
   29.6890  -36.8710    1.6310 C   0  0  0  0  0  0  0  0  0  0  0  0
   28.8263  -35.9963    2.4366 C   0  0  0  0  0  0  0  0  0  0  0  0
   28.3300  -36.4253    3.5116 O   0  0  0  0  0  0  0  0  0  0  0  0
   28.5195  -34.6932    2.0721 O   0  0  0  0  0  0  0  0  0  0  0  0
  1  5  1  0
  2  3  1  0
  2  1  1  0
  3  4  1  0
  4  5  1  0
  5  6  1  1
  6  7  2  0
  8  9  1  0
  8  6  1  0
  9 16  1  0
  9 10  1  6
 11 10  1  0
 11 15  1  0
 12 13  1  0
 12 11  2  0
 13 14  1  0
 14 15  2  0
 16 17  2  0
 18 16  1  0
 18 19  1  0
 19 20  1  0
 20 21  2  0
 20 22  1  0
M  END
$$$$
