WSM.pdb
     RDKit          3D

 29 30  0  0  1  0  0  0  0  0999 V2000
    6.3407  -17.9354   25.0985 N   0  0  0  0  0  0  0  0  0  0  0  0
    7.3982  -17.1024   24.6408 C   0  0  1  0  0  0  0  0  0  0  0  0
    7.8845  -16.0917   25.6442 C   0  0  0  0  0  0  0  0  0  0  0  0
    7.0774  -14.8607   25.7042 C   0  0  0  0  0  0  0  0  0  0  0  0
    6.1113  -14.5915   26.6604 C   0  0  0  0  0  0  0  0  0  0  0  0
    5.5763  -13.3870   26.4523 N   0  0  0  0  0  0  0  0  0  0  0  0
    6.1823  -12.8636   25.3679 C   0  0  0  0  0  0  0  0  0  0  0  0
    5.9998  -11.6529   24.7289 C   0  0  0  0  0  0  0  0  0  0  0  0
    6.7608  -11.3526   23.6070 C   0  0  0  0  0  0  0  0  0  0  0  0
    7.6785  -12.2428   23.1401 C   0  0  0  0  0  0  0  0  0  0  0  0
    7.8682  -13.4460   23.7654 C   0  0  0  0  0  0  0  0  0  0  0  0
    7.1255  -13.7628   24.8782 C   0  0  0  0  0  0  0  0  0  0  0  0
    8.5438  -17.9164   24.1106 C   0  0  0  0  0  0  0  0  0  0  0  0
    8.9167  -18.9735   24.6502 O   0  0  0  0  0  0  0  0  0  0  0  0
   10.1227  -16.2481   20.8787 O   0  0  0  0  0  0  0  0  0  0  0  0
   11.0577  -17.2150   21.3160 C   0  0  0  0  0  0  0  0  0  0  0  0
   10.6087  -17.6666   22.6667 C   0  0  2  0  0  0  0  0  0  0  0  0
    9.2222  -17.4494   22.9439 N   0  0  0  0  0  0  0  0  0  0  0  0
   11.4367  -16.9555   23.6873 C   0  0  0  0  0  0  0  0  0  0  0  0
   11.5253  -15.6980   23.6183 O   0  0  0  0  0  0  0  0  0  0  0  0
   10.2231  -14.0249   28.1995 C   0  0  0  0  0  0  0  0  0  0  0  0
   10.2549  -15.8080   28.5662 S   0  0  0  0  0  0  0  0  0  0  0  0
   10.7906  -16.7641   27.1404 C   0  0  0  0  0  0  0  0  0  0  0  0
   12.2549  -16.9925   27.0822 C   0  0  0  0  0  0  0  0  0  0  0  0
   12.8732  -16.8554   25.7092 C   0  0  2  0  0  0  0  0  0  0  0  0
   12.1217  -17.6049   24.7182 N   0  0  0  0  0  0  0  0  0  0  0  0
   14.2756  -17.3024   25.6372 C   0  0  0  0  0  0  0  0  0  0  0  0
   14.5753  -18.3539   25.0274 O   0  0  0  0  0  0  0  0  0  0  0  0
   15.2854  -16.5784   26.2358 O   0  0  0  0  0  0  0  0  0  0  0  0
  2  1  1  1
  2 13  1  0
  2  3  1  0
  3  4  1  0
  4  5  2  0
  4 12  1  0
  5  6  1  0
  6  7  1  0
  7  8  2  0
  8  9  1  0
 10  9  2  0
 11 10  1  0
 12 11  2  0
 12  7  1  0
 13 18  1  0
 14 13  2  0
 17 16  1  6
 16 15  1  0
 17 19  1  0
 18 17  1  0
 19 26  1  0
 19 20  2  0
 21 22  1  0
 23 24  1  0
 23 22  1  0
 25 24  1  1
 25 27  1  0
 26 25  1  0
 27 29  1  0
 28 27  2  0
M  END
$$$$
