WSM.pdb
     RDKit          3D

 29 30  0  0  1  0  0  0  0  0999 V2000
    6.6298  -17.5223   24.4335 N   0  0  0  0  0  0  0  0  0  0  0  0
    7.6150  -16.6432   23.9059 C   0  0  1  0  0  0  0  0  0  0  0  0
    8.1234  -15.6106   24.8755 C   0  0  0  0  0  0  0  0  0  0  0  0
    7.0745  -14.7492   25.4483 C   0  0  0  0  0  0  0  0  0  0  0  0
    5.9325  -15.2071   26.0857 C   0  0  0  0  0  0  0  0  0  0  0  0
    5.1946  -14.1794   26.5096 N   0  0  0  0  0  0  0  0  0  0  0  0
    5.8420  -13.0511   26.1557 C   0  0  0  0  0  0  0  0  0  0  0  0
    5.5120  -11.7239   26.3472 C   0  0  0  0  0  0  0  0  0  0  0  0
    6.3621  -10.7344   25.8715 C   0  0  0  0  0  0  0  0  0  0  0  0
    7.5106  -11.0685   25.2220 C   0  0  0  0  0  0  0  0  0  0  0  0
    7.8483  -12.3809   25.0265 C   0  0  0  0  0  0  0  0  0  0  0  0
    7.0208  -13.3762   25.4901 C   0  0  0  0  0  0  0  0  0  0  0  0
    8.7567  -17.4056   23.2964 C   0  0  0  0  0  0  0  0  0  0  0  0
    9.1785  -18.4724   23.7778 O   0  0  0  0  0  0  0  0  0  0  0  0
   10.0638  -15.7325   19.9773 O   0  0  0  0  0  0  0  0  0  0  0  0
   11.1120  -16.5824   20.4006 C   0  0  0  0  0  0  0  0  0  0  0  0
   10.7427  -17.0749   21.7611 C   0  0  2  0  0  0  0  0  0  0  0  0
    9.3728  -16.8762   22.1218 N   0  0  0  0  0  0  0  0  0  0  0  0
   11.6226  -16.3863   22.7533 C   0  0  0  0  0  0  0  0  0  0  0  0
   11.3694  -15.1852   23.0485 O   0  0  0  0  0  0  0  0  0  0  0  0
   11.1957  -13.1847   27.4811 C   0  0  0  0  0  0  0  0  0  0  0  0
   11.8079  -14.8169   28.0065 S   0  0  0  0  0  0  0  0  0  0  0  0
   12.9977  -15.4827   26.8338 C   0  0  0  0  0  0  0  0  0  0  0  0
   12.3984  -15.9265   25.5518 C   0  0  0  0  0  0  0  0  0  0  0  0
   13.3884  -16.3685   24.4979 C   0  0  2  0  0  0  0  0  0  0  0  0
   12.7145  -16.9976   23.3760 N   0  0  0  0  0  0  0  0  0  0  0  0
   14.4072  -17.3117   24.9921 C   0  0  0  0  0  0  0  0  0  0  0  0
   14.2813  -18.5415   24.7947 O   0  0  0  0  0  0  0  0  0  0  0  0
   15.5167  -16.8657   25.6794 O   0  0  0  0  0  0  0  0  0  0  0  0
  2  1  1  1
  2 13  1  0
  2  3  1  0
  3  4  1  0
  4  5  2  0
  4 12  1  0
  5  6  1  0
  6  7  1  0
  7  8  2  0
  8  9  1  0
 10  9  2  0
 11 10  1  0
 12 11  2  0
 12  7  1  0
 13 18  1  0
 14 13  2  0
 17 16  1  6
 16 15  1  0
 17 19  1  0
 18 17  1  0
 19 26  1  0
 19 20  2  0
 21 22  1  0
 23 24  1  0
 23 22  1  0
 25 24  1  1
 25 27  1  0
 26 25  1  0
 27 29  1  0
 28 27  2  0
M  END
$$$$
