WSM.pdb
     RDKit          3D

 29 30  0  0  1  0  0  0  0  0999 V2000
   10.1977  -16.4712   21.4989 N   0  0  0  0  0  0  0  0  0  0  0  0
    9.2317  -15.9995   22.4295 C   0  0  1  0  0  0  0  0  0  0  0  0
    7.8128  -16.0149   21.9282 C   0  0  0  0  0  0  0  0  0  0  0  0
    7.5968  -15.2359   20.6966 C   0  0  0  0  0  0  0  0  0  0  0  0
    7.1951  -15.7681   19.4818 C   0  0  0  0  0  0  0  0  0  0  0  0
    7.0695  -14.8010   18.5711 N   0  0  0  0  0  0  0  0  0  0  0  0
    7.3854  -13.6391   19.1772 C   0  0  0  0  0  0  0  0  0  0  0  0
    7.4227  -12.3478   18.6889 C   0  0  0  0  0  0  0  0  0  0  0  0
    7.7941  -11.3100   19.5332 C   0  0  0  0  0  0  0  0  0  0  0  0
    8.1190  -11.5619   20.8308 C   0  0  0  0  0  0  0  0  0  0  0  0
    8.0855  -12.8379   21.3261 C   0  0  0  0  0  0  0  0  0  0  0  0
    7.7198  -13.8799   20.5070 C   0  0  0  0  0  0  0  0  0  0  0  0
    9.3384  -16.7235   23.7412 C   0  0  0  0  0  0  0  0  0  0  0  0
    8.4603  -16.6457   24.6190 O   0  0  0  0  0  0  0  0  0  0  0  0
   13.1121  -18.1012   24.9225 O   0  0  0  0  0  0  0  0  0  0  0  0
   12.0491  -18.9877   25.2129 C   0  0  0  0  0  0  0  0  0  0  0  0
   10.7985  -18.1715   25.2183 C   0  0  2  0  0  0  0  0  0  0  0  0
   10.4950  -17.5271   23.9778 N   0  0  0  0  0  0  0  0  0  0  0  0
   10.9262  -17.1428   26.2945 C   0  0  0  0  0  0  0  0  0  0  0  0
   11.3204  -15.9864   25.9759 O   0  0  0  0  0  0  0  0  0  0  0  0
    6.9716  -12.9839   27.1598 C   0  0  0  0  0  0  0  0  0  0  0  0
    8.7069  -13.2396   26.6716 S   0  0  0  0  0  0  0  0  0  0  0  0
    9.6607  -13.9896   27.9989 C   0  0  0  0  0  0  0  0  0  0  0  0
    9.3280  -15.4126   28.2520 C   0  0  0  0  0  0  0  0  0  0  0  0
   10.5058  -16.2981   28.5905 C   0  0  2  0  0  0  0  0  0  0  0  0
   10.6335  -17.3877   27.6391 N   0  0  0  0  0  0  0  0  0  0  0  0
   10.4421  -16.8889   29.9391 C   0  0  0  0  0  0  0  0  0  0  0  0
   10.3766  -16.1541   30.9507 O   0  0  0  0  0  0  0  0  0  0  0  0
   10.4529  -18.2563   30.1187 O   0  0  0  0  0  0  0  0  0  0  0  0
  2  1  1  6
  2 13  1  0
  2  3  1  0
  3  4  1  0
  4  5  2  0
  4 12  1  0
  5  6  1  0
  6  7  1  0
  7  8  2  0
  8  9  1  0
 10  9  2  0
 11 10  1  0
 12 11  2  0
 12  7  1  0
 13 18  1  0
 14 13  2  0
 17 16  1  6
 16 15  1  0
 17 19  1  0
 18 17  1  0
 19 26  1  0
 19 20  2  0
 21 22  1  0
 23 24  1  0
 23 22  1  0
 25 24  1  6
 25 27  1  0
 26 25  1  0
 27 29  1  0
 28 27  2  0
M  END
$$$$
