WSM.pdb
     RDKit          3D

 29 30  0  0  1  0  0  0  0  0999 V2000
    7.6288  -17.8613   21.2938 N   0  0  0  0  0  0  0  0  0  0  0  0
    8.5639  -17.0223   21.9597 C   0  0  1  0  0  0  0  0  0  0  0  0
    8.0191  -15.6868   22.3891 C   0  0  0  0  0  0  0  0  0  0  0  0
    7.6050  -14.8151   21.2760 C   0  0  0  0  0  0  0  0  0  0  0  0
    6.2967  -14.6279   20.8595 C   0  0  0  0  0  0  0  0  0  0  0  0
    6.2528  -13.7638   19.8438 N   0  0  0  0  0  0  0  0  0  0  0  0
    7.5206  -13.3825   19.5898 C   0  0  0  0  0  0  0  0  0  0  0  0
    8.0291  -12.5137   18.6442 C   0  0  0  0  0  0  0  0  0  0  0  0
    9.3990  -12.2947   18.5862 C   0  0  0  0  0  0  0  0  0  0  0  0
   10.2343  -12.9302   19.4530 C   0  0  0  0  0  0  0  0  0  0  0  0
    9.7416  -13.7935   20.3946 C   0  0  0  0  0  0  0  0  0  0  0  0
    8.3883  -14.0240   20.4695 C   0  0  0  0  0  0  0  0  0  0  0  0
    9.2044  -17.7311   23.1188 C   0  0  0  0  0  0  0  0  0  0  0  0
    8.5408  -18.2197   24.0508 O   0  0  0  0  0  0  0  0  0  0  0  0
   13.3272  -17.5338   23.2038 O   0  0  0  0  0  0  0  0  0  0  0  0
   12.8196  -18.6154   23.9606 C   0  0  0  0  0  0  0  0  0  0  0  0
   11.3920  -18.2967   24.2613 C   0  0  2  0  0  0  0  0  0  0  0  0
   10.6282  -17.8413   23.1409 N   0  0  0  0  0  0  0  0  0  0  0  0
   11.3698  -17.2564   25.3337 C   0  0  0  0  0  0  0  0  0  0  0  0
   11.5330  -16.0490   25.0024 O   0  0  0  0  0  0  0  0  0  0  0  0
    9.1735  -12.0936   26.6609 C   0  0  0  0  0  0  0  0  0  0  0  0
    8.6417  -13.2027   28.0032 S   0  0  0  0  0  0  0  0  0  0  0  0
    9.9143  -14.4085   28.4042 C   0  0  0  0  0  0  0  0  0  0  0  0
   10.0860  -15.4681   27.3807 C   0  0  0  0  0  0  0  0  0  0  0  0
   11.1601  -16.4879   27.6847 C   0  0  2  0  0  0  0  0  0  0  0  0
   11.1782  -17.5438   26.6881 N   0  0  0  0  0  0  0  0  0  0  0  0
   11.0235  -17.1248   29.0067 C   0  0  0  0  0  0  0  0  0  0  0  0
   11.3178  -16.4944   30.0475 O   0  0  0  0  0  0  0  0  0  0  0  0
   10.5711  -18.4219   29.1288 O   0  0  0  0  0  0  0  0  0  0  0  0
  2  1  1  1
  2 13  1  0
  2  3  1  0
  3  4  1  0
  4  5  2  0
  4 12  1  0
  5  6  1  0
  6  7  1  0
  7  8  2  0
  8  9  1  0
 10  9  2  0
 11 10  1  0
 12 11  2  0
 12  7  1  0
 13 18  1  0
 14 13  2  0
 17 16  1  6
 16 15  1  0
 17 19  1  0
 18 17  1  0
 19 26  1  0
 19 20  2  0
 21 22  1  0
 23 24  1  0
 23 22  1  0
 25 24  1  6
 25 27  1  0
 26 25  1  0
 27 29  1  0
 28 27  2  0
M  END
$$$$
