WSM.pdb
     RDKit          3D

 29 30  0  0  1  0  0  0  0  0999 V2000
    6.4774  -17.6759   24.7727 N   0  0  0  0  0  0  0  0  0  0  0  0
    7.3198  -16.7605   24.0842 C   0  0  1  0  0  0  0  0  0  0  0  0
    7.9715  -15.7231   24.9582 C   0  0  0  0  0  0  0  0  0  0  0  0
    7.0474  -14.6979   25.4735 C   0  0  0  0  0  0  0  0  0  0  0  0
    5.8225  -14.9600   26.0660 C   0  0  0  0  0  0  0  0  0  0  0  0
    5.2375  -13.8219   26.4439 N   0  0  0  0  0  0  0  0  0  0  0  0
    6.0673  -12.8153   26.1043 C   0  0  0  0  0  0  0  0  0  0  0  0
    5.9411  -11.4493   26.2640 C   0  0  0  0  0  0  0  0  0  0  0  0
    6.9543  -10.6136   25.8134 C   0  0  0  0  0  0  0  0  0  0  0  0
    8.0623  -11.1350   25.2192 C   0  0  0  0  0  0  0  0  0  0  0  0
    8.1985  -12.4875   25.0555 C   0  0  0  0  0  0  0  0  0  0  0  0
    7.2072  -13.3327   25.4952 C   0  0  0  0  0  0  0  0  0  0  0  0
    8.3481  -17.4799   23.2588 C   0  0  0  0  0  0  0  0  0  0  0  0
    8.8353  -18.5714   23.6036 O   0  0  0  0  0  0  0  0  0  0  0  0
    9.3163  -15.3984   19.9877 O   0  0  0  0  0  0  0  0  0  0  0  0
   10.2176  -16.4847   20.0770 C   0  0  0  0  0  0  0  0  0  0  0  0
   10.0666  -17.0565   21.4482 C   0  0  2  0  0  0  0  0  0  0  0  0
    8.7745  -16.8786   22.0356 N   0  0  0  0  0  0  0  0  0  0  0  0
   11.1014  -16.4284   22.3242 C   0  0  0  0  0  0  0  0  0  0  0  0
   11.4870  -15.2571   22.0530 O   0  0  0  0  0  0  0  0  0  0  0  0
    9.2558  -13.6007   27.5820 C   0  0  0  0  0  0  0  0  0  0  0  0
   10.7262  -14.6696   27.4818 S   0  0  0  0  0  0  0  0  0  0  0  0
   10.9430  -15.3378   25.8263 C   0  0  0  0  0  0  0  0  0  0  0  0
   12.1216  -16.2268   25.6836 C   0  0  0  0  0  0  0  0  0  0  0  0
   12.6396  -16.3865   24.2721 C   0  0  2  0  0  0  0  0  0  0  0  0
   11.6697  -17.0652   23.4311 N   0  0  0  0  0  0  0  0  0  0  0  0
   13.9078  -17.1316   24.1809 C   0  0  0  0  0  0  0  0  0  0  0  0
   14.9749  -16.6189   24.5880 O   0  0  0  0  0  0  0  0  0  0  0  0
   13.9498  -18.4032   23.6485 O   0  0  0  0  0  0  0  0  0  0  0  0
  2  1  1  1
  2 13  1  0
  2  3  1  0
  3  4  1  0
  4  5  2  0
  4 12  1  0
  5  6  1  0
  6  7  1  0
  7  8  2  0
  8  9  1  0
 10  9  2  0
 11 10  1  0
 12 11  2  0
 12  7  1  0
 13 18  1  0
 14 13  2  0
 17 16  1  6
 16 15  1  0
 17 19  1  0
 18 17  1  0
 19 26  1  0
 19 20  2  0
 21 22  1  0
 23 24  1  0
 23 22  1  0
 25 24  1  1
 25 27  1  0
 26 25  1  0
 27 29  1  0
 28 27  2  0
M  END
$$$$
