WSM.pdb
     RDKit          3D

 29 30  0  0  1  0  0  0  0  0999 V2000
    6.2578  -17.5251   24.4683 N   0  0  0  0  0  0  0  0  0  0  0  0
    7.5463  -16.9456   24.3084 C   0  0  1  0  0  0  0  0  0  0  0  0
    7.7987  -15.7261   25.1533 C   0  0  0  0  0  0  0  0  0  0  0  0
    7.1160  -14.5094   24.6802 C   0  0  0  0  0  0  0  0  0  0  0  0
    6.0475  -13.9004   25.3187 C   0  0  0  0  0  0  0  0  0  0  0  0
    5.6703  -12.8082   24.6514 N   0  0  0  0  0  0  0  0  0  0  0  0
    6.4814  -12.6952   23.5806 C   0  0  0  0  0  0  0  0  0  0  0  0
    6.5167  -11.7535   22.5711 C   0  0  0  0  0  0  0  0  0  0  0  0
    7.4641  -11.8701   21.5627 C   0  0  0  0  0  0  0  0  0  0  0  0
    8.3505  -12.9031   21.5681 C   0  0  0  0  0  0  0  0  0  0  0  0
    8.3251  -13.8425   22.5638 C   0  0  0  0  0  0  0  0  0  0  0  0
    7.3954  -13.7453   23.5721 C   0  0  0  0  0  0  0  0  0  0  0  0
    8.6317  -17.9641   24.5101 C   0  0  0  0  0  0  0  0  0  0  0  0
    8.6087  -18.7873   25.4425 O   0  0  0  0  0  0  0  0  0  0  0  0
   12.1870  -17.2048   22.3589 O   0  0  0  0  0  0  0  0  0  0  0  0
   11.9505  -18.5558   22.7041 C   0  0  0  0  0  0  0  0  0  0  0  0
   11.0100  -18.5445   23.8640 C   0  0  2  0  0  0  0  0  0  0  0  0
    9.7252  -17.9778   23.5915 N   0  0  0  0  0  0  0  0  0  0  0  0
   11.6612  -17.7877   24.9758 C   0  0  0  0  0  0  0  0  0  0  0  0
   11.9135  -16.5629   24.8012 O   0  0  0  0  0  0  0  0  0  0  0  0
    9.8593  -13.6900   26.8884 C   0  0  0  0  0  0  0  0  0  0  0  0
   10.8165  -13.8198   28.4317 S   0  0  0  0  0  0  0  0  0  0  0  0
   11.7269  -15.3685   28.5137 C   0  0  0  0  0  0  0  0  0  0  0  0
   11.5715  -16.2246   27.3126 C   0  0  0  0  0  0  0  0  0  0  0  0
   12.3282  -17.5330   27.3532 C   0  0  2  0  0  0  0  0  0  0  0  0
   12.0087  -18.3596   26.2028 N   0  0  0  0  0  0  0  0  0  0  0  0
   12.0727  -18.3346   28.5631 C   0  0  0  0  0  0  0  0  0  0  0  0
   11.4347  -19.4093   28.4886 O   0  0  0  0  0  0  0  0  0  0  0  0
   12.5271  -17.9236   29.7987 O   0  0  0  0  0  0  0  0  0  0  0  0
  2  1  1  1
  2 13  1  0
  2  3  1  0
  3  4  1  0
  4  5  2  0
  4 12  1  0
  5  6  1  0
  6  7  1  0
  7  8  2  0
  8  9  1  0
 10  9  2  0
 11 10  1  0
 12 11  2  0
 12  7  1  0
 13 18  1  0
 14 13  2  0
 17 16  1  6
 16 15  1  0
 17 19  1  0
 18 17  1  0
 19 26  1  0
 19 20  2  0
 21 22  1  0
 23 24  1  0
 23 22  1  0
 25 24  1  1
 25 27  1  0
 26 25  1  0
 27 29  1  0
 28 27  2  0
M  END
$$$$
