WSM.pdb
     RDKit          3D

 29 30  0  0  1  0  0  0  0  0999 V2000
    6.6513  -17.5329   25.0549 N   0  0  0  0  0  0  0  0  0  0  0  0
    7.4076  -16.6813   24.2037 C   0  0  1  0  0  0  0  0  0  0  0  0
    8.0080  -15.4809   24.8844 C   0  0  0  0  0  0  0  0  0  0  0  0
    7.0208  -14.5741   25.4954 C   0  0  0  0  0  0  0  0  0  0  0  0
    5.9428  -14.9786   26.2664 C   0  0  0  0  0  0  0  0  0  0  0  0
    5.2515  -13.9184   26.6890 N   0  0  0  0  0  0  0  0  0  0  0  0
    5.8660  -12.8219   26.2020 C   0  0  0  0  0  0  0  0  0  0  0  0
    5.5597  -11.4819   26.3356 C   0  0  0  0  0  0  0  0  0  0  0  0
    6.3641  -10.5337   25.7177 C   0  0  0  0  0  0  0  0  0  0  0  0
    7.4450  -10.9203   24.9863 C   0  0  0  0  0  0  0  0  0  0  0  0
    7.7585  -12.2458   24.8470 C   0  0  0  0  0  0  0  0  0  0  0  0
    6.9755  -13.2008   25.4512 C   0  0  0  0  0  0  0  0  0  0  0  0
    8.4611  -17.4503   23.4587 C   0  0  0  0  0  0  0  0  0  0  0  0
    9.0177  -18.4544   23.9378 O   0  0  0  0  0  0  0  0  0  0  0  0
    8.9971  -16.6035   19.6468 O   0  0  0  0  0  0  0  0  0  0  0  0
   10.2888  -16.5493   20.2201 C   0  0  0  0  0  0  0  0  0  0  0  0
   10.1571  -17.0433   21.6232 C   0  0  2  0  0  0  0  0  0  0  0  0
    8.8291  -17.0023   22.1535 N   0  0  0  0  0  0  0  0  0  0  0  0
   11.0618  -16.2240   22.4853 C   0  0  0  0  0  0  0  0  0  0  0  0
   10.6009  -15.1723   23.0102 O   0  0  0  0  0  0  0  0  0  0  0  0
   10.5677  -16.2803   28.4352 C   0  0  0  0  0  0  0  0  0  0  0  0
   11.4397  -14.9258   27.5869 S   0  0  0  0  0  0  0  0  0  0  0  0
   12.6284  -15.5538   26.3925 C   0  0  0  0  0  0  0  0  0  0  0  0
   12.0460  -15.8549   25.0621 C   0  0  0  0  0  0  0  0  0  0  0  0
   13.0518  -16.1239   23.9657 C   0  0  2  0  0  0  0  0  0  0  0  0
   12.3944  -16.5560   22.7452 N   0  0  0  0  0  0  0  0  0  0  0  0
   14.0589  -17.1418   24.3142 C   0  0  0  0  0  0  0  0  0  0  0  0
   15.1845  -16.7994   24.7422 O   0  0  0  0  0  0  0  0  0  0  0  0
   13.7879  -18.4873   24.1785 O   0  0  0  0  0  0  0  0  0  0  0  0
  2  1  1  1
  2 13  1  0
  2  3  1  0
  3  4  1  0
  4  5  2  0
  4 12  1  0
  5  6  1  0
  6  7  1  0
  7  8  2  0
  8  9  1  0
 10  9  2  0
 11 10  1  0
 12 11  2  0
 12  7  1  0
 13 18  1  0
 14 13  2  0
 17 16  1  6
 16 15  1  0
 17 19  1  0
 18 17  1  0
 19 26  1  0
 19 20  2  0
 21 22  1  0
 23 24  1  0
 23 22  1  0
 25 24  1  1
 25 27  1  0
 26 25  1  0
 27 29  1  0
 28 27  2  0
M  END
$$$$
