WSM.pdb
     RDKit          3D

 29 30  0  0  1  0  0  0  0  0999 V2000
    7.2500  -17.5517   22.0921 N   0  0  0  0  0  0  0  0  0  0  0  0
    8.3014  -16.7749   22.6515 C   0  0  1  0  0  0  0  0  0  0  0  0
    7.9234  -15.3610   23.0021 C   0  0  0  0  0  0  0  0  0  0  0  0
    7.4432  -14.5618   21.8615 C   0  0  0  0  0  0  0  0  0  0  0  0
    6.1462  -14.0991   21.7073 C   0  0  0  0  0  0  0  0  0  0  0  0
    6.0377  -13.3899   20.5823 N   0  0  0  0  0  0  0  0  0  0  0  0
    7.2519  -13.3832   19.9967 C   0  0  0  0  0  0  0  0  0  0  0  0
    7.6828  -12.8027   18.8200 C   0  0  0  0  0  0  0  0  0  0  0  0
    9.0071  -12.9528   18.4306 C   0  0  0  0  0  0  0  0  0  0  0  0
    9.8738  -13.6656   19.2009 C   0  0  0  0  0  0  0  0  0  0  0  0
    9.4581  -14.2455   20.3696 C   0  0  0  0  0  0  0  0  0  0  0  0
    8.1511  -14.1085   20.7737 C   0  0  0  0  0  0  0  0  0  0  0  0
    8.9220  -17.4659   23.8320 C   0  0  0  0  0  0  0  0  0  0  0  0
    8.2575  -17.8206   24.8221 O   0  0  0  0  0  0  0  0  0  0  0  0
   12.8523  -18.1880   23.3834 O   0  0  0  0  0  0  0  0  0  0  0  0
   12.3777  -18.8859   24.5183 C   0  0  0  0  0  0  0  0  0  0  0  0
   11.0787  -18.2548   24.8983 C   0  0  2  0  0  0  0  0  0  0  0  0
   10.3272  -17.7190   23.8053 N   0  0  0  0  0  0  0  0  0  0  0  0
   11.3667  -17.1684   25.8831 C   0  0  0  0  0  0  0  0  0  0  0  0
   12.2674  -16.3287   25.6044 O   0  0  0  0  0  0  0  0  0  0  0  0
    8.7502  -11.9191   25.3838 C   0  0  0  0  0  0  0  0  0  0  0  0
    8.9209  -12.7582   26.9905 S   0  0  0  0  0  0  0  0  0  0  0  0
   10.0355  -14.1653   26.8836 C   0  0  0  0  0  0  0  0  0  0  0  0
   10.2352  -14.8766   28.1696 C   0  0  0  0  0  0  0  0  0  0  0  0
   11.1469  -16.0810   28.1037 C   0  0  2  0  0  0  0  0  0  0  0  0
   10.6938  -17.0277   27.1001 N   0  0  0  0  0  0  0  0  0  0  0  0
   11.2704  -16.8085   29.3794 C   0  0  0  0  0  0  0  0  0  0  0  0
   10.8009  -17.9629   29.4988 O   0  0  0  0  0  0  0  0  0  0  0  0
   11.9019  -16.2393   30.4654 O   0  0  0  0  0  0  0  0  0  0  0  0
  2  1  1  1
  2 13  1  0
  2  3  1  0
  3  4  1  0
  4  5  2  0
  4 12  1  0
  5  6  1  0
  6  7  1  0
  7  8  2  0
  8  9  1  0
 10  9  2  0
 11 10  1  0
 12 11  2  0
 12  7  1  0
 13 18  1  0
 14 13  2  0
 17 16  1  6
 16 15  1  0
 17 19  1  0
 18 17  1  0
 19 26  1  0
 19 20  2  0
 21 22  1  0
 23 24  1  0
 23 22  1  0
 25 24  1  1
 25 27  1  0
 26 25  1  0
 27 29  1  0
 28 27  2  0
M  END
$$$$
