WSM.pdb
     RDKit          3D

 29 30  0  0  1  0  0  0  0  0999 V2000
   10.2497  -15.9576   21.8345 N   0  0  0  0  0  0  0  0  0  0  0  0
    9.4529  -15.8148   23.0035 C   0  0  1  0  0  0  0  0  0  0  0  0
    7.9807  -15.6385   22.7458 C   0  0  0  0  0  0  0  0  0  0  0  0
    7.5779  -14.2509   22.4586 C   0  0  0  0  0  0  0  0  0  0  0  0
    7.8161  -13.5865   21.2661 C   0  0  0  0  0  0  0  0  0  0  0  0
    7.3094  -12.3530   21.3136 N   0  0  0  0  0  0  0  0  0  0  0  0
    6.7410  -12.2020   22.5266 C   0  0  0  0  0  0  0  0  0  0  0  0
    6.0858  -11.1236   23.0878 C   0  0  0  0  0  0  0  0  0  0  0  0
    5.5900  -11.2245   24.3809 C   0  0  0  0  0  0  0  0  0  0  0  0
    5.7480  -12.3756   25.0900 C   0  0  0  0  0  0  0  0  0  0  0  0
    6.3957  -13.4512   24.5439 C   0  0  0  0  0  0  0  0  0  0  0  0
    6.8936  -13.3724   23.2648 C   0  0  0  0  0  0  0  0  0  0  0  0
    9.6911  -16.9419   23.9674 C   0  0  0  0  0  0  0  0  0  0  0  0
    8.9589  -17.1422   24.9531 O   0  0  0  0  0  0  0  0  0  0  0  0
   12.8307  -19.1195   22.9499 O   0  0  0  0  0  0  0  0  0  0  0  0
   12.2530  -19.7729   24.0633 C   0  0  0  0  0  0  0  0  0  0  0  0
   11.2314  -18.8403   24.6261 C   0  0  2  0  0  0  0  0  0  0  0  0
   10.8021  -17.8082   23.7336 N   0  0  0  0  0  0  0  0  0  0  0  0
   11.8038  -18.2231   25.8608 C   0  0  0  0  0  0  0  0  0  0  0  0
   12.9485  -17.6949   25.7927 O   0  0  0  0  0  0  0  0  0  0  0  0
   11.2511  -12.5088   27.2383 C   0  0  0  0  0  0  0  0  0  0  0  0
   11.0948  -13.8086   28.5036 S   0  0  0  0  0  0  0  0  0  0  0  0
   11.5068  -15.4279   27.8386 C   0  0  0  0  0  0  0  0  0  0  0  0
   11.4694  -16.5198   28.8416 C   0  0  0  0  0  0  0  0  0  0  0  0
   11.8528  -17.8861   28.3196 C   0  0  2  0  0  0  0  0  0  0  0  0
   11.1424  -18.1969   27.0919 N   0  0  0  0  0  0  0  0  0  0  0  0
   11.5999  -18.9827   29.2710 C   0  0  0  0  0  0  0  0  0  0  0  0
   12.1827  -19.0080   30.3787 O   0  0  0  0  0  0  0  0  0  0  0  0
   10.7209  -20.0009   28.9666 O   0  0  0  0  0  0  0  0  0  0  0  0
  2  1  1  6
  2 13  1  0
  2  3  1  0
  3  4  1  0
  4  5  2  0
  4 12  1  0
  5  6  1  0
  6  7  1  0
  7  8  2  0
  8  9  1  0
 10  9  2  0
 11 10  1  0
 12 11  2  0
 12  7  1  0
 13 18  1  0
 14 13  2  0
 17 16  1  6
 16 15  1  0
 17 19  1  0
 18 17  1  0
 19 26  1  0
 19 20  2  0
 21 22  1  0
 23 24  1  0
 23 22  1  0
 25 24  1  1
 25 27  1  0
 26 25  1  0
 27 29  1  0
 28 27  2  0
M  END
$$$$
