WSM.pdb
     RDKit          3D

 29 30  0  0  1  0  0  0  0  0999 V2000
    8.5113  -17.6092   24.9188 N   0  0  0  0  0  0  0  0  0  0  0  0
    7.7128  -17.9763   23.8011 C   0  0  1  0  0  0  0  0  0  0  0  0
    6.5122  -17.0992   23.5682 C   0  0  0  0  0  0  0  0  0  0  0  0
    6.4023  -15.9629   24.4995 C   0  0  0  0  0  0  0  0  0  0  0  0
    5.7466  -15.9982   25.7198 C   0  0  0  0  0  0  0  0  0  0  0  0
    5.8451  -14.8172   26.3331 N   0  0  0  0  0  0  0  0  0  0  0  0
    6.5592  -14.0073   25.5261 C   0  0  0  0  0  0  0  0  0  0  0  0
    6.9422  -12.6895   25.6807 C   0  0  0  0  0  0  0  0  0  0  0  0
    7.6821  -12.0726   24.6807 C   0  0  0  0  0  0  0  0  0  0  0  0
    8.0274  -12.7597   23.5576 C   0  0  0  0  0  0  0  0  0  0  0  0
    7.6535  -14.0665   23.3933 C   0  0  0  0  0  0  0  0  0  0  0  0
    6.9210  -14.6963   24.3717 C   0  0  0  0  0  0  0  0  0  0  0  0
    8.5396  -18.0857   22.5520 C   0  0  0  0  0  0  0  0  0  0  0  0
    8.5435  -19.1075   21.8423 O   0  0  0  0  0  0  0  0  0  0  0  0
   10.6751  -14.8355   21.1536 O   0  0  0  0  0  0  0  0  0  0  0  0
   11.2727  -16.0941   20.9108 C   0  0  0  0  0  0  0  0  0  0  0  0
   10.7607  -17.0227   21.9623 C   0  0  2  0  0  0  0  0  0  0  0  0
    9.3472  -16.9696   22.1757 N   0  0  0  0  0  0  0  0  0  0  0  0
   11.4683  -16.7051   23.2395 C   0  0  0  0  0  0  0  0  0  0  0  0
   12.7251  -16.5873   23.2163 O   0  0  0  0  0  0  0  0  0  0  0  0
    8.9087  -13.1910   28.0979 C   0  0  0  0  0  0  0  0  0  0  0  0
   10.1360  -14.1577   29.0328 S   0  0  0  0  0  0  0  0  0  0  0  0
   11.2231  -15.0788   27.9356 C   0  0  0  0  0  0  0  0  0  0  0  0
   10.6433  -15.3478   26.5973 C   0  0  0  0  0  0  0  0  0  0  0  0
   11.5427  -16.1059   25.6472 C   0  0  2  0  0  0  0  0  0  0  0  0
   10.8165  -16.5303   24.4635 N   0  0  0  0  0  0  0  0  0  0  0  0
   12.1667  -17.3020   26.2403 C   0  0  0  0  0  0  0  0  0  0  0  0
   11.6455  -18.4302   26.0886 O   0  0  0  0  0  0  0  0  0  0  0  0
   13.3322  -17.2086   26.9718 O   0  0  0  0  0  0  0  0  0  0  0  0
  2  1  1  1
  2 13  1  0
  2  3  1  0
  3  4  1  0
  4  5  2  0
  4 12  1  0
  5  6  1  0
  6  7  1  0
  7  8  2  0
  8  9  1  0
 10  9  2  0
 11 10  1  0
 12 11  2  0
 12  7  1  0
 13 18  1  0
 14 13  2  0
 17 16  1  6
 16 15  1  0
 17 19  1  0
 18 17  1  0
 19 26  1  0
 19 20  2  0
 21 22  1  0
 23 24  1  0
 23 22  1  0
 25 24  1  1
 25 27  1  0
 26 25  1  0
 27 29  1  0
 28 27  2  0
M  END
$$$$
