WSM.pdb
     RDKit          3D

 29 30  0  0  1  0  0  0  0  0999 V2000
    6.5365  -17.7443   24.1413 N   0  0  0  0  0  0  0  0  0  0  0  0
    7.4607  -16.7209   23.7942 C   0  0  1  0  0  0  0  0  0  0  0  0
    7.9157  -15.8650   24.9454 C   0  0  0  0  0  0  0  0  0  0  0  0
    6.8799  -14.9608   25.4745 C   0  0  0  0  0  0  0  0  0  0  0  0
    5.7745  -15.3633   26.2068 C   0  0  0  0  0  0  0  0  0  0  0  0
    5.0401  -14.3055   26.5566 N   0  0  0  0  0  0  0  0  0  0  0  0
    5.6536  -13.2126   26.0602 C   0  0  0  0  0  0  0  0  0  0  0  0
    5.3117  -11.8764   26.1299 C   0  0  0  0  0  0  0  0  0  0  0  0
    6.1244  -10.9318   25.5173 C   0  0  0  0  0  0  0  0  0  0  0  0
    7.2482  -11.3182   24.8537 C   0  0  0  0  0  0  0  0  0  0  0  0
    7.5973  -12.6400   24.7780 C   0  0  0  0  0  0  0  0  0  0  0  0
    6.8067  -13.5914   25.3782 C   0  0  0  0  0  0  0  0  0  0  0  0
    8.6400  -17.2797   23.0506 C   0  0  0  0  0  0  0  0  0  0  0  0
    9.1536  -18.3750   23.3413 O   0  0  0  0  0  0  0  0  0  0  0  0
   10.2124  -16.2079   19.2843 O   0  0  0  0  0  0  0  0  0  0  0  0
   10.8829  -15.6642   20.4046 C   0  0  0  0  0  0  0  0  0  0  0  0
   10.5552  -16.5407   21.5684 C   0  0  2  0  0  0  0  0  0  0  0  0
    9.1832  -16.5164   21.9727 N   0  0  0  0  0  0  0  0  0  0  0  0
   11.4184  -16.1239   22.7147 C   0  0  0  0  0  0  0  0  0  0  0  0
   11.2128  -14.9952   23.2417 O   0  0  0  0  0  0  0  0  0  0  0  0
   11.4533  -13.4441   27.4057 C   0  0  0  0  0  0  0  0  0  0  0  0
   12.4772  -14.8277   27.9989 S   0  0  0  0  0  0  0  0  0  0  0  0
   13.4042  -15.5839   26.6562 C   0  0  0  0  0  0  0  0  0  0  0  0
   12.5685  -15.9944   25.5017 C   0  0  0  0  0  0  0  0  0  0  0  0
   13.3364  -16.4042   24.2653 C   0  0  2  0  0  0  0  0  0  0  0  0
   12.4447  -16.9146   23.2392 N   0  0  0  0  0  0  0  0  0  0  0  0
   14.3653  -17.4299   24.5126 C   0  0  0  0  0  0  0  0  0  0  0  0
   14.2386  -18.5819   24.0391 O   0  0  0  0  0  0  0  0  0  0  0  0
   15.4852  -17.1478   25.2664 O   0  0  0  0  0  0  0  0  0  0  0  0
  2  1  1  1
  2 13  1  0
  2  3  1  0
  3  4  1  0
  4  5  2  0
  4 12  1  0
  5  6  1  0
  6  7  1  0
  7  8  2  0
  8  9  1  0
 10  9  2  0
 11 10  1  0
 12 11  2  0
 12  7  1  0
 13 18  1  0
 14 13  2  0
 17 16  1  6
 16 15  1  0
 17 19  1  0
 18 17  1  0
 19 26  1  0
 19 20  2  0
 21 22  1  0
 23 24  1  0
 23 22  1  0
 25 24  1  1
 25 27  1  0
 26 25  1  0
 27 29  1  0
 28 27  2  0
M  END
$$$$
