WSM.pdb
     RDKit          3D

 29 30  0  0  1  0  0  0  0  0999 V2000
    6.5903  -18.1820   24.7286 N   0  0  0  0  0  0  0  0  0  0  0  0
    7.1002  -17.6587   23.5088 C   0  0  1  0  0  0  0  0  0  0  0  0
    6.6348  -16.2668   23.1760 C   0  0  0  0  0  0  0  0  0  0  0  0
    6.5116  -15.3742   24.3416 C   0  0  0  0  0  0  0  0  0  0  0  0
    5.9976  -15.7452   25.5738 C   0  0  0  0  0  0  0  0  0  0  0  0
    6.0421  -14.7170   26.4230 N   0  0  0  0  0  0  0  0  0  0  0  0
    6.5803  -13.6745   25.7590 C   0  0  0  0  0  0  0  0  0  0  0  0
    6.8430  -12.3823   26.1693 C   0  0  0  0  0  0  0  0  0  0  0  0
    7.4055  -11.4834   25.2729 C   0  0  0  0  0  0  0  0  0  0  0  0
    7.6956  -11.8711   24.0009 C   0  0  0  0  0  0  0  0  0  0  0  0
    7.4396  -13.1496   23.5829 C   0  0  0  0  0  0  0  0  0  0  0  0
    6.8835  -14.0556   24.4548 C   0  0  0  0  0  0  0  0  0  0  0  0
    8.5993  -17.7413   23.4638 C   0  0  0  0  0  0  0  0  0  0  0  0
    9.2737  -18.1506   24.4257 O   0  0  0  0  0  0  0  0  0  0  0  0
   10.1595  -16.1164   20.1731 O   0  0  0  0  0  0  0  0  0  0  0  0
   11.1300  -17.0047   20.6919 C   0  0  0  0  0  0  0  0  0  0  0  0
   10.6787  -17.3795   22.0652 C   0  0  2  0  0  0  0  0  0  0  0  0
    9.2635  -17.3316   22.2677 N   0  0  0  0  0  0  0  0  0  0  0  0
   11.3507  -16.4629   23.0355 C   0  0  0  0  0  0  0  0  0  0  0  0
   11.4329  -15.2370   22.7451 O   0  0  0  0  0  0  0  0  0  0  0  0
   10.0230  -13.9007   28.8684 C   0  0  0  0  0  0  0  0  0  0  0  0
    9.7803  -15.5801   28.2086 S   0  0  0  0  0  0  0  0  0  0  0  0
   10.4613  -15.7416   26.5521 C   0  0  0  0  0  0  0  0  0  0  0  0
   11.9252  -15.9780   26.5214 C   0  0  0  0  0  0  0  0  0  0  0  0
   12.5525  -15.9501   25.1460 C   0  0  2  0  0  0  0  0  0  0  0  0
   11.8959  -16.8862   24.2509 N   0  0  0  0  0  0  0  0  0  0  0  0
   13.9928  -16.2620   25.1390 C   0  0  0  0  0  0  0  0  0  0  0  0
   14.8152  -15.4716   25.6550 O   0  0  0  0  0  0  0  0  0  0  0  0
   14.4669  -17.4244   24.5677 O   0  0  0  0  0  0  0  0  0  0  0  0
  2  1  1  1
  2 13  1  0
  2  3  1  0
  3  4  1  0
  4  5  2  0
  4 12  1  0
  5  6  1  0
  6  7  1  0
  7  8  2  0
  8  9  1  0
 10  9  2  0
 11 10  1  0
 12 11  2  0
 12  7  1  0
 13 18  1  0
 14 13  2  0
 17 16  1  6
 16 15  1  0
 17 19  1  0
 18 17  1  0
 19 26  1  0
 19 20  2  0
 21 22  1  0
 23 24  1  0
 23 22  1  0
 25 24  1  1
 25 27  1  0
 26 25  1  0
 27 29  1  0
 28 27  2  0
M  END
$$$$
