SRT.pdb
     RDKit          3D

 25 24  0  0  1  0  0  0  0  0999 V2000
    7.7690  -13.0117   20.4189 O   0  0  0  0  0  0  0  0  0  0  0  0
    8.6870  -12.4129   19.5739 C   0  0  0  0  0  0  0  0  0  0  0  0
    9.0999  -13.3620   18.4437 C   0  0  2  0  0  0  0  0  0  0  0  0
    7.8892  -13.7980   17.7831 N   0  0  0  0  0  0  0  0  0  0  0  0
    9.7917  -14.5011   19.1016 C   0  0  0  0  0  0  0  0  0  0  0  0
    9.1188  -15.5208   19.3891 O   0  0  0  0  0  0  0  0  0  0  0  0
   15.4203  -13.6120   16.5454 N   0  0  0  0  0  0  0  0  0  0  0  0
   15.8056  -14.9202   16.2094 C   0  0  0  0  0  0  0  0  0  0  0  0
   16.2876  -15.1329   15.0314 N   0  0  0  0  0  0  0  0  0  0  0  0
   15.6705  -15.9820   17.1362 N   0  0  0  0  0  0  0  0  0  0  0  0
   15.1904  -15.7415   18.4705 C   0  0  0  0  0  0  0  0  0  0  0  0
   13.6789  -15.7701   18.5503 C   0  0  0  0  0  0  0  0  0  0  0  0
   13.2814  -15.5194   19.9599 C   0  0  0  0  0  0  0  0  0  0  0  0
   11.8083  -15.5263   20.2133 C   0  0  2  0  0  0  0  0  0  0  0  0
   11.1787  -14.4890   19.4197 N   0  0  0  0  0  0  0  0  0  0  0  0
   11.4579  -15.4181   21.6461 C   0  0  0  0  0  0  0  0  0  0  0  0
   11.9287  -14.5295   22.4072 O   0  0  0  0  0  0  0  0  0  0  0  0
   16.6007  -16.0883   14.7725 C   0  0  0  0  0  0  0  0  0  0  0  0
    8.1914  -14.8558   23.1267 C   0  0  2  0  0  0  0  0  0  0  0  0
    8.6222  -16.1800   23.7322 O   0  0  0  0  0  0  0  0  0  0  0  0
    7.9649  -17.2453   23.1228 C   0  0  2  0  0  0  0  0  0  0  0  0
   10.1282  -16.3085   23.5921 N   0  0  0  0  0  0  0  0  0  0  0  0
   10.5474  -16.3524   22.2114 C   0  0  0  0  0  0  0  0  0  0  0  0
   10.6705  -17.4135   24.3992 O   0  0  0  0  0  0  0  0  0  0  0  0
   10.5601  -17.5328   25.6364 O   0  0  0  0  0  0  0  0  0  0  0  0
  1  2  1  0
  3  2  1  0
  3  4  1  1
  5  3  1  0
  5  6  2  0
  7  8  1  0
  8  9  2  0
  8 10  1  0
 10 11  1  0
 11 12  1  0
 12 13  1  0
 14 13  1  1
 14 15  1  0
 15  5  1  0
 16 17  2  0
 16 14  1  0
 19 18  1  1
 19 21  1  0
 20 19  1  0
 21 22  1  1
 21 23  1  0
 22 16  1  0
 23 24  2  0
 23 25  1  0
M  END
$$$$
