SRT.pdb
     RDKit          3D

 25 24  0  0  1  0  0  0  0  0999 V2000
    5.0512  -22.2279   25.4992 O   0  0  0  0  0  0  0  0  0  0  0  0
    6.0362  -21.4668   24.8943 C   0  0  0  0  0  0  0  0  0  0  0  0
    5.8672  -21.4524   23.3711 C   0  0  2  0  0  0  0  0  0  0  0  0
    6.1536  -22.7873   22.8931 N   0  0  0  0  0  0  0  0  0  0  0  0
    6.8634  -20.4748   22.8606 C   0  0  0  0  0  0  0  0  0  0  0  0
    8.0384  -20.8696   22.6637 O   0  0  0  0  0  0  0  0  0  0  0  0
    8.0468  -12.7066   21.2611 N   0  0  0  0  0  0  0  0  0  0  0  0
    7.9964  -12.8536   19.8651 C   0  0  0  0  0  0  0  0  0  0  0  0
    8.2534  -11.8235   19.1315 N   0  0  0  0  0  0  0  0  0  0  0  0
    7.6724  -14.0983   19.2732 N   0  0  0  0  0  0  0  0  0  0  0  0
    6.8757  -15.0665   19.9778 C   0  0  0  0  0  0  0  0  0  0  0  0
    7.7220  -16.0274   20.7855 C   0  0  0  0  0  0  0  0  0  0  0  0
    6.8298  -17.0720   21.3517 C   0  0  0  0  0  0  0  0  0  0  0  0
    7.5277  -18.1687   22.0897 C   0  0  2  0  0  0  0  0  0  0  0  0
    6.5472  -19.1149   22.5853 N   0  0  0  0  0  0  0  0  0  0  0  0
    8.4190  -17.6798   23.1640 C   0  0  0  0  0  0  0  0  0  0  0  0
    8.0230  -16.9443   24.1089 O   0  0  0  0  0  0  0  0  0  0  0  0
    8.1388  -11.8885   18.1017 C   0  0  0  0  0  0  0  0  0  0  0  0
   10.6587  -19.3841   25.6781 C   0  0  2  0  0  0  0  0  0  0  0  0
   11.5733  -18.6048   24.7496 O   0  0  0  0  0  0  0  0  0  0  0  0
   12.1671  -19.4456   23.8120 C   0  0  2  0  0  0  0  0  0  0  0  0
   10.7618  -17.5134   24.0756 N   0  0  0  0  0  0  0  0  0  0  0  0
    9.7926  -18.0460   23.1477 C   0  0  0  0  0  0  0  0  0  0  0  0
   11.6146  -16.4674   23.4881 O   0  0  0  0  0  0  0  0  0  0  0  0
   11.7115  -16.2063   22.2718 O   0  0  0  0  0  0  0  0  0  0  0  0
  1  2  1  0
  3  2  1  0
  3  4  1  6
  5  3  1  0
  5  6  2  0
  7  8  1  0
  8  9  2  0
  8 10  1  0
 10 11  1  0
 11 12  1  0
 12 13  1  0
 14 13  1  1
 14 15  1  0
 15  5  1  0
 16 17  2  0
 16 14  1  0
 19 18  1  1
 19 21  1  0
 20 19  1  0
 21 22  1  1
 21 23  1  0
 22 16  1  0
 23 24  2  0
 23 25  1  0
M  END
$$$$
