SRT.pdb
     RDKit          3D

 25 24  0  0  1  0  0  0  0  0999 V2000
   14.1304  -18.1653   15.0788 O   0  0  0  0  0  0  0  0  0  0  0  0
   13.5915  -18.1599   16.3535 C   0  0  0  0  0  0  0  0  0  0  0  0
   12.4393  -19.1636   16.4714 C   0  0  2  0  0  0  0  0  0  0  0  0
   11.3388  -18.6505   15.6852 N   0  0  0  0  0  0  0  0  0  0  0  0
   12.0894  -19.2135   17.9150 C   0  0  0  0  0  0  0  0  0  0  0  0
   11.0270  -18.6606   18.2898 O   0  0  0  0  0  0  0  0  0  0  0  0
   14.2665  -25.3993   23.7303 N   0  0  0  0  0  0  0  0  0  0  0  0
   13.2736  -24.6554   24.3888 C   0  0  0  0  0  0  0  0  0  0  0  0
   12.7934  -25.1183   25.4935 N   0  0  0  0  0  0  0  0  0  0  0  0
   12.8081  -23.4282   23.8579 N   0  0  0  0  0  0  0  0  0  0  0  0
   13.1699  -23.0133   22.5291 C   0  0  0  0  0  0  0  0  0  0  0  0
   12.6450  -21.6329   22.1961 C   0  0  0  0  0  0  0  0  0  0  0  0
   13.0408  -21.3074   20.8014 C   0  0  0  0  0  0  0  0  0  0  0  0
   12.4846  -20.0266   20.2679 C   0  0  2  0  0  0  0  0  0  0  0  0
   12.9018  -19.8581   18.8896 N   0  0  0  0  0  0  0  0  0  0  0  0
   12.8211  -18.8491   21.0972 C   0  0  0  0  0  0  0  0  0  0  0  0
   13.9772  -18.3475   21.1480 O   0  0  0  0  0  0  0  0  0  0  0  0
   12.0012  -24.6278   25.9513 C   0  0  0  0  0  0  0  0  0  0  0  0
   10.1970  -15.7610   21.7540 C   0  0  2  0  0  0  0  0  0  0  0  0
   10.7586  -16.3385   23.0411 O   0  0  0  0  0  0  0  0  0  0  0  0
    9.8311  -17.1714   23.6613 C   0  0  2  0  0  0  0  0  0  0  0  0
   12.0401  -17.0849   22.7175 N   0  0  0  0  0  0  0  0  0  0  0  0
   11.8051  -18.2389   21.8824 C   0  0  0  0  0  0  0  0  0  0  0  0
   12.8263  -17.3911   23.9236 O   0  0  0  0  0  0  0  0  0  0  0  0
   13.1530  -18.5323   24.3084 O   0  0  0  0  0  0  0  0  0  0  0  0
  1  2  1  0
  3  2  1  0
  3  4  1  6
  5  3  1  0
  5  6  2  0
  7  8  1  0
  8  9  2  0
  8 10  1  0
 10 11  1  0
 11 12  1  0
 12 13  1  0
 14 13  1  1
 14 15  1  0
 15  5  1  0
 16 17  2  0
 16 14  1  0
 19 18  1  1
 19 21  1  0
 20 19  1  0
 21 22  1  1
 21 23  1  0
 22 16  1  0
 23 24  2  0
 23 25  1  0
M  END
$$$$
