SRT.pdb
     RDKit          3D

 25 24  0  0  1  0  0  0  0  0999 V2000
   13.7943  -17.9991   18.3234 O   0  0  0  0  0  0  0  0  0  0  0  0
   13.4530  -17.4385   19.5418 C   0  0  0  0  0  0  0  0  0  0  0  0
   13.1114  -15.9521   19.3907 C   0  0  2  0  0  0  0  0  0  0  0  0
   14.3586  -15.2379   19.2264 N   0  0  0  0  0  0  0  0  0  0  0  0
   12.4317  -15.5606   20.6530 C   0  0  0  0  0  0  0  0  0  0  0  0
   13.1414  -15.2281   21.6333 O   0  0  0  0  0  0  0  0  0  0  0  0
    8.1762  -11.9933   18.0838 N   0  0  0  0  0  0  0  0  0  0  0  0
    7.6243  -13.2693   17.8838 C   0  0  0  0  0  0  0  0  0  0  0  0
    7.8655  -13.8727   16.7690 N   0  0  0  0  0  0  0  0  0  0  0  0
    6.8230  -13.8821   18.8773 N   0  0  0  0  0  0  0  0  0  0  0  0
    7.2753  -13.9722   20.2397 C   0  0  0  0  0  0  0  0  0  0  0  0
    8.7307  -14.3777   20.3354 C   0  0  0  0  0  0  0  0  0  0  0  0
    9.0917  -14.4842   21.7728 C   0  0  0  0  0  0  0  0  0  0  0  0
   10.3646  -15.2158   22.0536 C   0  0  2  0  0  0  0  0  0  0  0  0
   11.0164  -15.5454   20.8011 N   0  0  0  0  0  0  0  0  0  0  0  0
   10.1815  -16.4052   22.9134 C   0  0  0  0  0  0  0  0  0  0  0  0
    9.1904  -17.1795   22.8195 O   0  0  0  0  0  0  0  0  0  0  0  0
    7.5502  -14.8535   16.6405 C   0  0  0  0  0  0  0  0  0  0  0  0
   12.0627  -19.2859   22.9624 C   0  0  1  0  0  0  0  0  0  0  0  0
   10.9073  -19.1531   23.9388 O   0  0  0  0  0  0  0  0  0  0  0  0
   10.8257  -20.2666   24.7705 C   0  0  1  0  0  0  0  0  0  0  0  0
   11.0964  -17.8784   24.7410 N   0  0  0  0  0  0  0  0  0  0  0  0
   11.1599  -16.7069   23.8998 C   0  0  0  0  0  0  0  0  0  0  0  0
   12.2207  -17.9765   25.6859 O   0  0  0  0  0  0  0  0  0  0  0  0
   12.4154  -18.9105   26.4901 O   0  0  0  0  0  0  0  0  0  0  0  0
  1  2  1  0
  3  2  1  0
  3  4  1  1
  5  3  1  0
  5  6  2  0
  7  8  1  0
  8  9  2  0
  8 10  1  0
 10 11  1  0
 11 12  1  0
 12 13  1  0
 14 13  1  6
 14 15  1  0
 15  5  1  0
 16 17  2  0
 16 14  1  0
 19 18  1  6
 19 21  1  0
 20 19  1  0
 21 22  1  6
 21 23  1  0
 22 16  1  0
 23 24  2  0
 23 25  1  0
M  END
$$$$
