SRT.pdb
     RDKit          3D

 25 24  0  0  1  0  0  0  0  0999 V2000
   10.5316  -22.4949   20.0497 O   0  0  0  0  0  0  0  0  0  0  0  0
    9.4019  -22.1842   19.3131 C   0  0  0  0  0  0  0  0  0  0  0  0
    9.6233  -20.9280   18.4637 C   0  0  2  0  0  0  0  0  0  0  0  0
   10.7282  -21.2008   17.5708 N   0  0  0  0  0  0  0  0  0  0  0  0
    9.9634  -19.8438   19.4217 C   0  0  0  0  0  0  0  0  0  0  0  0
   11.1661  -19.6914   19.7462 O   0  0  0  0  0  0  0  0  0  0  0  0
    8.1809  -11.8608   21.2811 N   0  0  0  0  0  0  0  0  0  0  0  0
    8.1366  -12.6665   20.1314 C   0  0  0  0  0  0  0  0  0  0  0  0
    8.6505  -12.2058   19.0410 N   0  0  0  0  0  0  0  0  0  0  0  0
    7.5444  -13.9520   20.1631 N   0  0  0  0  0  0  0  0  0  0  0  0
    7.3663  -14.6532   21.4062 C   0  0  0  0  0  0  0  0  0  0  0  0
    8.4770  -15.6479   21.6681 C   0  0  0  0  0  0  0  0  0  0  0  0
    8.2865  -16.8093   20.7611 C   0  0  0  0  0  0  0  0  0  0  0  0
    9.3416  -17.8641   20.8526 C   0  0  2  0  0  0  0  0  0  0  0  0
    8.9903  -18.9726   19.9867 N   0  0  0  0  0  0  0  0  0  0  0  0
    9.6118  -18.3064   22.2379 C   0  0  0  0  0  0  0  0  0  0  0  0
    8.8089  -19.0125   22.9066 O   0  0  0  0  0  0  0  0  0  0  0  0
    8.5388  -12.7404   18.1581 C   0  0  0  0  0  0  0  0  0  0  0  0
   13.0457  -18.8794   25.7564 C   0  0  2  0  0  0  0  0  0  0  0  0
   12.7137  -18.2599   24.4104 O   0  0  0  0  0  0  0  0  0  0  0  0
   13.4376  -18.8681   23.3884 C   0  0  1  0  0  0  0  0  0  0  0  0
   11.2190  -18.3838   24.1766 N   0  0  0  0  0  0  0  0  0  0  0  0
   10.8310  -17.9271   22.8632 C   0  0  0  0  0  0  0  0  0  0  0  0
   10.4330  -17.7716   25.2601 O   0  0  0  0  0  0  0  0  0  0  0  0
    9.7950  -16.7022   25.1810 O   0  0  0  0  0  0  0  0  0  0  0  0
  1  2  1  0
  3  2  1  0
  3  4  1  6
  5  3  1  0
  5  6  2  0
  7  8  1  0
  8  9  2  0
  8 10  1  0
 10 11  1  0
 11 12  1  0
 12 13  1  0
 14 13  1  1
 14 15  1  0
 15  5  1  0
 16 17  2  0
 16 14  1  0
 19 18  1  1
 19 21  1  0
 20 19  1  0
 21 22  1  1
 21 23  1  0
 22 16  1  0
 23 24  2  0
 23 25  1  0
M  END
$$$$
