SRT.pdb
     RDKit          3D

 25 24  0  0  1  0  0  0  0  0999 V2000
   10.2195  -20.2221   22.6794 O   0  0  0  0  0  0  0  0  0  0  0  0
    8.9667  -20.4356   22.1314 C   0  0  0  0  0  0  0  0  0  0  0  0
    8.9697  -20.1668   20.6226 C   0  0  2  0  0  0  0  0  0  0  0  0
    9.8805  -21.1142   20.0179 N   0  0  0  0  0  0  0  0  0  0  0  0
    9.4590  -18.7731   20.4586 C   0  0  0  0  0  0  0  0  0  0  0  0
   10.6584  -18.5973   20.1336 O   0  0  0  0  0  0  0  0  0  0  0  0
    7.6217  -15.1959   17.0133 N   0  0  0  0  0  0  0  0  0  0  0  0
    7.6695  -13.8165   16.7528 C   0  0  0  0  0  0  0  0  0  0  0  0
    7.9924  -13.4287   15.5652 N   0  0  0  0  0  0  0  0  0  0  0  0
    7.3718  -12.8717   17.7644 N   0  0  0  0  0  0  0  0  0  0  0  0
    7.1916  -13.2839   19.1306 C   0  0  0  0  0  0  0  0  0  0  0  0
    8.4046  -14.0065   19.6767 C   0  0  0  0  0  0  0  0  0  0  0  0
    8.0165  -15.4094   19.9751 C   0  0  0  0  0  0  0  0  0  0  0  0
    9.1200  -16.2756   20.4911 C   0  0  2  0  0  0  0  0  0  0  0  0
    8.6321  -17.6313   20.6527 N   0  0  0  0  0  0  0  0  0  0  0  0
    9.7428  -15.7590   21.7292 C   0  0  0  0  0  0  0  0  0  0  0  0
   10.3181  -14.6387   21.7976 O   0  0  0  0  0  0  0  0  0  0  0  0
    8.0271  -12.4134   15.3512 C   0  0  0  0  0  0  0  0  0  0  0  0
    8.3442  -14.8407   24.9373 C   0  0  2  0  0  0  0  0  0  0  0  0
    9.2661  -16.0011   25.2680 O   0  0  0  0  0  0  0  0  0  0  0  0
    8.5450  -17.1807   25.4324 C   0  0  2  0  0  0  0  0  0  0  0  0
   10.2939  -16.1332   24.1589 N   0  0  0  0  0  0  0  0  0  0  0  0
    9.7010  -16.5494   22.9102 C   0  0  0  0  0  0  0  0  0  0  0  0
   11.4434  -16.9605   24.5603 O   0  0  0  0  0  0  0  0  0  0  0  0
   11.7944  -18.0290   24.0198 O   0  0  0  0  0  0  0  0  0  0  0  0
  1  2  1  0
  3  2  1  0
  3  4  1  6
  5  3  1  0
  5  6  2  0
  7  8  1  0
  8  9  2  0
  8 10  1  0
 10 11  1  0
 11 12  1  0
 12 13  1  0
 14 13  1  1
 14 15  1  0
 15  5  1  0
 16 17  2  0
 16 14  1  0
 19 18  1  1
 19 21  1  0
 20 19  1  0
 21 22  1  1
 21 23  1  0
 22 16  1  0
 23 24  2  0
 23 25  1  0
M  END
$$$$
