SRT.pdb
     RDKit          3D

 25 24  0  0  1  0  0  0  0  0999 V2000
    9.8847  -11.5562   17.7338 O   0  0  0  0  0  0  0  0  0  0  0  0
    9.1143  -12.2816   18.6259 C   0  0  0  0  0  0  0  0  0  0  0  0
    8.6876  -13.6247   18.0237 C   0  0  2  0  0  0  0  0  0  0  0  0
    7.6258  -13.3556   17.0790 N   0  0  0  0  0  0  0  0  0  0  0  0
    8.1971  -14.4437   19.1627 C   0  0  0  0  0  0  0  0  0  0  0  0
    7.0561  -14.1987   19.6246 O   0  0  0  0  0  0  0  0  0  0  0  0
    6.5920  -22.2898   20.6214 N   0  0  0  0  0  0  0  0  0  0  0  0
    7.8507  -22.0066   20.0662 C   0  0  0  0  0  0  0  0  0  0  0  0
    8.3526  -22.8480   19.2264 N   0  0  0  0  0  0  0  0  0  0  0  0
    8.5547  -20.8291   20.4160 N   0  0  0  0  0  0  0  0  0  0  0  0
    8.0237  -19.9119   21.3883 C   0  0  0  0  0  0  0  0  0  0  0  0
    7.5665  -18.6121   20.7611 C   0  0  0  0  0  0  0  0  0  0  0  0
    8.7469  -17.7202   20.6233 C   0  0  0  0  0  0  0  0  0  0  0  0
    8.4789  -16.2714   20.8755 C   0  0  2  0  0  0  0  0  0  0  0  0
    8.9597  -15.4905   19.7525 N   0  0  0  0  0  0  0  0  0  0  0  0
    9.0255  -15.7879   22.1619 C   0  0  0  0  0  0  0  0  0  0  0  0
   10.2613  -15.6987   22.3975 O   0  0  0  0  0  0  0  0  0  0  0  0
    9.3108  -22.6923   18.8583 C   0  0  0  0  0  0  0  0  0  0  0  0
    7.3409  -12.9658   24.6757 C   0  0  2  0  0  0  0  0  0  0  0  0
    7.5144  -14.3287   25.3223 O   0  0  0  0  0  0  0  0  0  0  0  0
    6.3049  -15.0166   25.3698 C   0  0  2  0  0  0  0  0  0  0  0  0
    8.5598  -15.1046   24.5418 N   0  0  0  0  0  0  0  0  0  0  0  0
    8.1299  -15.4000   23.1957 C   0  0  0  0  0  0  0  0  0  0  0  0
    9.0347  -16.2904   25.2732 O   0  0  0  0  0  0  0  0  0  0  0  0
    8.9787  -17.4678   24.8641 O   0  0  0  0  0  0  0  0  0  0  0  0
  1  2  1  0
  3  2  1  0
  3  4  1  6
  5  3  1  0
  5  6  2  0
  7  8  1  0
  8  9  2  0
  8 10  1  0
 10 11  1  0
 11 12  1  0
 12 13  1  0
 14 13  1  6
 14 15  1  0
 15  5  1  0
 16 17  2  0
 16 14  1  0
 19 18  1  1
 19 21  1  0
 20 19  1  0
 21 22  1  1
 21 23  1  0
 22 16  1  0
 23 24  2  0
 23 25  1  0
M  END
$$$$
