SRT.pdb
     RDKit          3D

 25 24  0  0  1  0  0  0  0  0999 V2000
    7.0950  -14.4388   27.3436 O   0  0  0  0  0  0  0  0  0  0  0  0
    7.4767  -15.7218   26.9921 C   0  0  0  0  0  0  0  0  0  0  0  0
    6.4797  -16.3461   26.0097 C   0  0  2  0  0  0  0  0  0  0  0  0
    6.0308  -17.5945   26.5864 N   0  0  0  0  0  0  0  0  0  0  0  0
    7.2382  -16.5782   24.7529 C   0  0  0  0  0  0  0  0  0  0  0  0
    7.4648  -17.7623   24.4041 O   0  0  0  0  0  0  0  0  0  0  0  0
    6.8692  -12.4605   19.2977 N   0  0  0  0  0  0  0  0  0  0  0  0
    7.5218  -13.3747   18.4545 C   0  0  0  0  0  0  0  0  0  0  0  0
    6.8873  -13.8144   17.4205 N   0  0  0  0  0  0  0  0  0  0  0  0
    8.8424  -13.8058   18.7280 N   0  0  0  0  0  0  0  0  0  0  0  0
    9.4984  -13.4444   19.9559 C   0  0  0  0  0  0  0  0  0  0  0  0
    9.7122  -14.6363   20.8645 C   0  0  0  0  0  0  0  0  0  0  0  0
    8.7511  -14.5405   21.9935 C   0  0  0  0  0  0  0  0  0  0  0  0
    8.7256  -15.7244   22.9057 C   0  0  2  0  0  0  0  0  0  0  0  0
    7.7182  -15.5221   23.9286 N   0  0  0  0  0  0  0  0  0  0  0  0
   10.0472  -16.0485   23.4852 C   0  0  0  0  0  0  0  0  0  0  0  0
   10.7937  -15.1883   24.0268 O   0  0  0  0  0  0  0  0  0  0  0  0
    7.3756  -14.4368   16.7482 C   0  0  0  0  0  0  0  0  0  0  0  0
   11.2684  -18.4991   26.1818 C   0  0  2  0  0  0  0  0  0  0  0  0
   11.7833  -18.9707   24.8334 O   0  0  0  0  0  0  0  0  0  0  0  0
   10.9844  -19.9899   24.3222 C   0  0  2  0  0  0  0  0  0  0  0  0
   11.8302  -17.7817   23.8910 N   0  0  0  0  0  0  0  0  0  0  0  0
   10.5163  -17.3897   23.4389 C   0  0  0  0  0  0  0  0  0  0  0  0
   12.7877  -17.9801   22.7908 O   0  0  0  0  0  0  0  0  0  0  0  0
   14.0172  -18.1502   22.9187 O   0  0  0  0  0  0  0  0  0  0  0  0
  1  2  1  0
  3  2  1  0
  3  4  1  1
  5  3  1  0
  5  6  2  0
  7  8  1  0
  8  9  2  0
  8 10  1  0
 10 11  1  0
 11 12  1  0
 12 13  1  0
 14 13  1  1
 14 15  1  0
 15  5  1  0
 16 17  2  0
 16 14  1  0
 19 18  1  1
 19 21  1  0
 20 19  1  0
 21 22  1  6
 21 23  1  0
 22 16  1  0
 23 24  2  0
 23 25  1  0
M  END
$$$$
