SRT.pdb
     RDKit          3D

 25 24  0  0  1  0  0  0  0  0999 V2000
    7.1319  -15.1756   18.6477 O   0  0  0  0  0  0  0  0  0  0  0  0
    7.7529  -13.9717   18.9311 C   0  0  0  0  0  0  0  0  0  0  0  0
    8.7956  -14.1352   20.0424 C   0  0  2  0  0  0  0  0  0  0  0  0
    9.6044  -15.2870   19.7084 N   0  0  0  0  0  0  0  0  0  0  0  0
    8.0252  -14.3652   21.2924 C   0  0  0  0  0  0  0  0  0  0  0  0
    7.2910  -13.4407   21.7181 O   0  0  0  0  0  0  0  0  0  0  0  0
    7.3680  -20.5918   27.5911 N   0  0  0  0  0  0  0  0  0  0  0  0
    8.3442  -19.9571   26.8057 C   0  0  0  0  0  0  0  0  0  0  0  0
    9.5198  -19.7870   27.3098 N   0  0  0  0  0  0  0  0  0  0  0  0
    8.0505  -19.5134   25.4937 N   0  0  0  0  0  0  0  0  0  0  0  0
    6.7473  -19.0046   25.1600 C   0  0  0  0  0  0  0  0  0  0  0  0
    6.7480  -17.5021   24.9748 C   0  0  0  0  0  0  0  0  0  0  0  0
    7.3515  -17.1955   23.6520 C   0  0  0  0  0  0  0  0  0  0  0  0
    7.4618  -15.7404   23.3283 C   0  0  2  0  0  0  0  0  0  0  0  0
    8.0817  -15.5826   22.0271 N   0  0  0  0  0  0  0  0  0  0  0  0
    8.1572  -14.9571   24.3725 C   0  0  0  0  0  0  0  0  0  0  0  0
    9.4113  -14.9421   24.5046 O   0  0  0  0  0  0  0  0  0  0  0  0
   10.2642  -19.3494   26.7334 C   0  0  0  0  0  0  0  0  0  0  0  0
    6.7919  -11.2861   25.6274 C   0  0  2  0  0  0  0  0  0  0  0  0
    7.0367  -12.2531   26.7723 O   0  0  0  0  0  0  0  0  0  0  0  0
    5.8398  -12.7951   27.2328 C   0  0  2  0  0  0  0  0  0  0  0  0
    7.9854  -13.3375   26.2947 N   0  0  0  0  0  0  0  0  0  0  0  0
    7.3915  -14.1766   25.2812 C   0  0  0  0  0  0  0  0  0  0  0  0
    8.5680  -14.0993   27.4113 O   0  0  0  0  0  0  0  0  0  0  0  0
    8.5254  -15.3391   27.5463 O   0  0  0  0  0  0  0  0  0  0  0  0
  1  2  1  0
  3  2  1  0
  3  4  1  6
  5  3  1  0
  5  6  2  0
  7  8  1  0
  8  9  2  0
  8 10  1  0
 10 11  1  0
 11 12  1  0
 12 13  1  0
 14 13  1  1
 14 15  1  0
 15  5  1  0
 16 17  2  0
 16 14  1  0
 19 18  1  1
 19 21  1  0
 20 19  1  0
 21 22  1  1
 21 23  1  0
 22 16  1  0
 23 24  2  0
 23 25  1  0
M  END
$$$$
