SRT.pdb
     RDKit          3D

 25 24  0  0  1  0  0  0  0  0999 V2000
   12.6994  -21.9349   17.8362 O   0  0  0  0  0  0  0  0  0  0  0  0
   12.2491  -21.2215   18.9334 C   0  0  0  0  0  0  0  0  0  0  0  0
   10.9134  -20.5319   18.6347 C   0  0  2  0  0  0  0  0  0  0  0  0
   11.2144  -19.2127   18.1233 N   0  0  0  0  0  0  0  0  0  0  0  0
   10.1971  -20.4525   19.9345 C   0  0  0  0  0  0  0  0  0  0  0  0
   10.4194  -19.4659   20.6777 O   0  0  0  0  0  0  0  0  0  0  0  0
    2.5050  -23.9278   22.3260 N   0  0  0  0  0  0  0  0  0  0  0  0
    2.9382  -23.3041   23.5076 C   0  0  0  0  0  0  0  0  0  0  0  0
    2.1521  -23.3181   24.5308 N   0  0  0  0  0  0  0  0  0  0  0  0
    4.2045  -22.6748   23.5790 N   0  0  0  0  0  0  0  0  0  0  0  0
    5.0589  -22.6006   22.4244 C   0  0  0  0  0  0  0  0  0  0  0  0
    6.4093  -21.9974   22.7477 C   0  0  0  0  0  0  0  0  0  0  0  0
    7.2080  -21.9439   21.4959 C   0  0  0  0  0  0  0  0  0  0  0  0
    8.5716  -21.3487   21.6398 C   0  0  2  0  0  0  0  0  0  0  0  0
    9.2729  -21.4413   20.3742 N   0  0  0  0  0  0  0  0  0  0  0  0
    9.3535  -21.9325   22.7512 C   0  0  0  0  0  0  0  0  0  0  0  0
    9.8259  -23.1015   22.7241 O   0  0  0  0  0  0  0  0  0  0  0  0
    2.5001  -22.9752   25.4469 C   0  0  0  0  0  0  0  0  0  0  0  0
   12.4833  -20.7793   24.2087 C   0  0  2  0  0  0  0  0  0  0  0  0
   11.5264  -20.7654   25.3878 O   0  0  0  0  0  0  0  0  0  0  0  0
   11.1275  -19.4666   25.6919 C   0  0  2  0  0  0  0  0  0  0  0  0
   10.3348  -21.6442   25.0537 N   0  0  0  0  0  0  0  0  0  0  0  0
    9.5948  -21.1532   23.9156 C   0  0  0  0  0  0  0  0  0  0  0  0
    9.4876  -21.9045   26.2290 O   0  0  0  0  0  0  0  0  0  0  0  0
    8.2956  -21.5586   26.3571 O   0  0  0  0  0  0  0  0  0  0  0  0
  1  2  1  0
  3  2  1  0
  3  4  1  1
  5  3  1  0
  5  6  2  0
  7  8  1  0
  8  9  2  0
  8 10  1  0
 10 11  1  0
 11 12  1  0
 12 13  1  0
 14 13  1  6
 14 15  1  0
 15  5  1  0
 16 17  2  0
 16 14  1  0
 19 18  1  1
 19 21  1  0
 20 19  1  0
 21 22  1  1
 21 23  1  0
 22 16  1  0
 23 24  2  0
 23 25  1  0
M  END
$$$$
