SRT.pdb
     RDKit          3D

 25 24  0  0  1  0  0  0  0  0999 V2000
    8.6903  -11.9105   18.5741 O   0  0  0  0  0  0  0  0  0  0  0  0
    8.1764  -12.5435   19.6922 C   0  0  0  0  0  0  0  0  0  0  0  0
    8.3732  -14.0611   19.6084 C   0  0  2  0  0  0  0  0  0  0  0  0
    7.4984  -14.5522   18.5663 N   0  0  0  0  0  0  0  0  0  0  0  0
    7.9776  -14.5966   20.9371 C   0  0  0  0  0  0  0  0  0  0  0  0
    6.7554  -14.7487   21.1781 O   0  0  0  0  0  0  0  0  0  0  0  0
   11.0728  -21.3867   20.8000 N   0  0  0  0  0  0  0  0  0  0  0  0
   10.3780  -21.2517   22.0133 C   0  0  0  0  0  0  0  0  0  0  0  0
   10.6079  -22.1100   22.9490 N   0  0  0  0  0  0  0  0  0  0  0  0
    9.4482  -20.2022   22.2093 N   0  0  0  0  0  0  0  0  0  0  0  0
    9.8320  -18.8294   22.0174 C   0  0  0  0  0  0  0  0  0  0  0  0
    8.6905  -17.8717   22.2848 C   0  0  0  0  0  0  0  0  0  0  0  0
    9.1281  -16.9029   23.3229 C   0  0  0  0  0  0  0  0  0  0  0  0
    8.5273  -15.5388   23.2095 C   0  0  2  0  0  0  0  0  0  0  0  0
    8.9188  -14.9442   21.9464 N   0  0  0  0  0  0  0  0  0  0  0  0
    8.8422  -14.6606   24.3572 C   0  0  0  0  0  0  0  0  0  0  0  0
    9.9674  -14.1153   24.5215 O   0  0  0  0  0  0  0  0  0  0  0  0
   10.0939  -22.0355   23.8479 C   0  0  0  0  0  0  0  0  0  0  0  0
    6.6907  -11.6760   25.6354 C   0  0  2  0  0  0  0  0  0  0  0  0
    6.8486  -12.6736   26.7692 O   0  0  0  0  0  0  0  0  0  0  0  0
    5.6941  -13.4351   26.9289 C   0  0  2  0  0  0  0  0  0  0  0  0
    8.0520  -13.5513   26.4768 N   0  0  0  0  0  0  0  0  0  0  0  0
    7.8403  -14.4069   25.3334 C   0  0  0  0  0  0  0  0  0  0  0  0
    8.5134  -14.2797   27.6698 O   0  0  0  0  0  0  0  0  0  0  0  0
    8.6709  -15.5148   27.7520 O   0  0  0  0  0  0  0  0  0  0  0  0
  1  2  1  0
  3  2  1  0
  3  4  1  6
  5  3  1  0
  5  6  2  0
  7  8  1  0
  8  9  2  0
  8 10  1  0
 10 11  1  0
 11 12  1  0
 12 13  1  0
 14 13  1  1
 14 15  1  0
 15  5  1  0
 16 17  2  0
 16 14  1  0
 19 18  1  1
 19 21  1  0
 20 19  1  0
 21 22  1  1
 21 23  1  0
 22 16  1  0
 23 24  2  0
 23 25  1  0
M  END
$$$$
