SRT.pdb
     RDKit          3D

 25 24  0  0  1  0  0  0  0  0999 V2000
   13.2589  -20.0282   16.4466 O   0  0  0  0  0  0  0  0  0  0  0  0
   11.9878  -20.1178   15.9065 C   0  0  0  0  0  0  0  0  0  0  0  0
   11.5097  -18.7572   15.3881 C   0  0  2  0  0  0  0  0  0  0  0  0
   12.3088  -18.4336   14.2265 N   0  0  0  0  0  0  0  0  0  0  0  0
   11.7536  -17.7926   16.4921 C   0  0  0  0  0  0  0  0  0  0  0  0
   12.6757  -16.9523   16.3560 O   0  0  0  0  0  0  0  0  0  0  0  0
    8.6216  -13.1591   18.4281 N   0  0  0  0  0  0  0  0  0  0  0  0
    8.4866  -12.7058   19.7507 C   0  0  0  0  0  0  0  0  0  0  0  0
    8.6828  -11.4533   19.9915 N   0  0  0  0  0  0  0  0  0  0  0  0
    8.1440  -13.5967   20.7964 N   0  0  0  0  0  0  0  0  0  0  0  0
    8.4042  -15.0065   20.6810 C   0  0  0  0  0  0  0  0  0  0  0  0
    9.8325  -15.2947   20.2703 C   0  0  0  0  0  0  0  0  0  0  0  0
    9.8160  -16.3801   19.2556 C   0  0  0  0  0  0  0  0  0  0  0  0
   11.1559  -16.7591   18.7121 C   0  0  2  0  0  0  0  0  0  0  0  0
   10.9913  -17.7780   17.6938 N   0  0  0  0  0  0  0  0  0  0  0  0
   12.1192  -17.1694   19.7567 C   0  0  0  0  0  0  0  0  0  0  0  0
   11.9523  -18.1807   20.4916 O   0  0  0  0  0  0  0  0  0  0  0  0
    8.5059  -11.0828   20.9451 C   0  0  0  0  0  0  0  0  0  0  0  0
   15.8254  -17.4913   19.1598 C   0  0  2  0  0  0  0  0  0  0  0  0
   15.7088  -16.6098   20.3908 O   0  0  0  0  0  0  0  0  0  0  0  0
   16.0210  -15.2869   20.0892 C   0  0  2  0  0  0  0  0  0  0  0  0
   14.2995  -16.7321   20.9411 N   0  0  0  0  0  0  0  0  0  0  0  0
   13.2970  -16.3988   19.9572 C   0  0  0  0  0  0  0  0  0  0  0  0
   14.1319  -16.0053   22.2101 O   0  0  0  0  0  0  0  0  0  0  0  0
   13.2817  -15.1199   22.4343 O   0  0  0  0  0  0  0  0  0  0  0  0
  1  2  1  0
  3  2  1  0
  3  4  1  6
  5  3  1  0
  5  6  2  0
  7  8  1  0
  8  9  2  0
  8 10  1  0
 10 11  1  0
 11 12  1  0
 12 13  1  0
 14 13  1  1
 14 15  1  0
 15  5  1  0
 16 17  2  0
 16 14  1  0
 19 18  1  1
 19 21  1  0
 20 19  1  0
 21 22  1  1
 21 23  1  0
 22 16  1  0
 23 24  2  0
 23 25  1  0
M  END
$$$$
