SRT.pdb
     RDKit          3D

 25 24  0  0  1  0  0  0  0  0999 V2000
    8.9714  -21.0866   24.8938 O   0  0  0  0  0  0  0  0  0  0  0  0
    8.5146  -21.9975   23.9574 C   0  0  0  0  0  0  0  0  0  0  0  0
    7.4888  -21.3565   23.0164 C   0  0  2  0  0  0  0  0  0  0  0  0
    7.1195  -22.3548   22.0369 N   0  0  0  0  0  0  0  0  0  0  0  0
    8.1845  -20.2094   22.3768 C   0  0  0  0  0  0  0  0  0  0  0  0
    9.3042  -20.4122   21.8473 O   0  0  0  0  0  0  0  0  0  0  0  0
    9.0254  -12.9958   21.0407 N   0  0  0  0  0  0  0  0  0  0  0  0
    8.3913  -12.7915   19.8041 C   0  0  0  0  0  0  0  0  0  0  0  0
    8.8972  -11.9250   18.9927 N   0  0  0  0  0  0  0  0  0  0  0  0
    7.2266  -13.5155   19.4525 N   0  0  0  0  0  0  0  0  0  0  0  0
    6.7825  -14.6309   20.2446 C   0  0  0  0  0  0  0  0  0  0  0  0
    7.9133  -15.5770   20.5882 C   0  0  0  0  0  0  0  0  0  0  0  0
    7.3438  -16.7383   21.3195 C   0  0  0  0  0  0  0  0  0  0  0  0
    8.3366  -17.7788   21.7268 C   0  0  2  0  0  0  0  0  0  0  0  0
    7.6409  -18.8949   22.3372 N   0  0  0  0  0  0  0  0  0  0  0  0
    9.4140  -17.2554   22.5945 C   0  0  0  0  0  0  0  0  0  0  0  0
    9.1962  -16.5504   23.6172 O   0  0  0  0  0  0  0  0  0  0  0  0
    8.4868  -11.8116   18.0458 C   0  0  0  0  0  0  0  0  0  0  0  0
   11.8501  -18.7059   24.8354 C   0  0  2  0  0  0  0  0  0  0  0  0
   12.6843  -18.1293   23.7051 O   0  0  0  0  0  0  0  0  0  0  0  0
   13.0513  -19.1207   22.7992 C   0  0  2  0  0  0  0  0  0  0  0  0
   11.8859  -17.0308   23.0269 N   0  0  0  0  0  0  0  0  0  0  0  0
   10.7678  -17.5509   22.2762 C   0  0  0  0  0  0  0  0  0  0  0  0
   12.7403  -16.1240   22.2431 O   0  0  0  0  0  0  0  0  0  0  0  0
   12.6719  -15.9449   21.0101 O   0  0  0  0  0  0  0  0  0  0  0  0
  1  2  1  0
  3  2  1  0
  3  4  1  6
  5  3  1  0
  5  6  2  0
  7  8  1  0
  8  9  2  0
  8 10  1  0
 10 11  1  0
 11 12  1  0
 12 13  1  0
 14 13  1  1
 14 15  1  0
 15  5  1  0
 16 17  2  0
 16 14  1  0
 19 18  1  1
 19 21  1  0
 20 19  1  0
 21 22  1  1
 21 23  1  0
 22 16  1  0
 23 24  2  0
 23 25  1  0
M  END
$$$$
