QGS.pdb
     RDKit          3D

 20 19  0  0  1  0  0  0  0  0999 V2000
   20.1573  -23.6730  -16.9495 N   0  0  0  0  0  0  0  0  0  0  0  0
   20.9010  -24.5972  -16.1573 C   0  0  0  0  0  0  0  0  0  0  0  0
   21.9268  -25.0833  -16.6667 O   0  0  0  0  0  0  0  0  0  0  0  0
   20.4403  -24.9277  -14.8201 C   0  0  0  0  0  0  0  0  0  0  0  0
   19.2124  -24.2775  -14.3181 C   0  0  0  0  0  0  0  0  0  0  0  0
   19.3378  -23.3351  -13.1770 C   0  0  2  0  0  0  0  0  0  0  0  0
   20.5612  -23.3876  -12.4356 N   0  0  0  0  0  0  0  0  0  0  0  0
   18.2095  -23.6148  -12.2479 C   0  0  0  0  0  0  0  0  0  0  0  0
   17.0636  -23.7010  -12.7898 O   0  0  0  0  0  0  0  0  0  0  0  0
   18.3019  -23.7859  -10.8634 N   0  0  0  0  0  0  0  0  0  0  0  0
   17.1287  -24.0737  -10.0446 C   0  0  0  0  0  0  0  0  0  0  0  0
   17.5561  -24.1548   -8.6250 C   0  0  0  0  0  0  0  0  0  0  0  0
   18.7853  -24.0350   -8.2957 O   0  0  0  0  0  0  0  0  0  0  0  0
   16.3953  -24.3707   -3.9308 O   0  0  0  0  0  0  0  0  0  0  0  0
   15.8877  -24.4297   -5.2282 C   0  0  0  0  0  0  0  0  0  0  0  0
   17.0715  -24.4238   -6.1733 C   0  0  2  0  0  0  0  0  0  0  0  0
   16.6536  -24.3661   -7.5567 N   0  0  0  0  0  0  0  0  0  0  0  0
   17.9188  -25.6127   -5.9837 C   0  0  0  0  0  0  0  0  0  0  0  0
   17.7016  -26.6406   -6.6573 O   0  0  0  0  0  0  0  0  0  0  0  0
   18.9468  -25.5982   -5.0705 O   0  0  0  0  0  0  0  0  0  0  0  0
  2  3  2  0
  2  1  1  0
  4  2  1  0
  5  4  1  0
  6  5  1  0
  6  7  1  1
  8  6  1  0
  8  9  2  0
 10  8  1  0
 11 10  1  0
 11 12  1  0
 12 17  1  0
 13 12  2  0
 14 15  1  0
 16 15  1  1
 16 18  1  0
 17 16  1  0
 18 20  1  0
 19 18  2  0
M  END
$$$$
