QGS.pdb
     RDKit          3D

 20 19  0  0  1  0  0  0  0  0999 V2000
   29.8160  -20.5369  -12.5407 N   0  0  0  0  0  0  0  0  0  0  0  0
   28.9262  -19.9477  -13.4873 C   0  0  0  0  0  0  0  0  0  0  0  0
   29.0814  -20.2600  -14.6816 O   0  0  0  0  0  0  0  0  0  0  0  0
   27.9005  -19.0269  -13.0297 C   0  0  0  0  0  0  0  0  0  0  0  0
   26.5055  -19.2581  -13.4577 C   0  0  0  0  0  0  0  0  0  0  0  0
   26.2487  -19.4992  -14.9006 C   0  0  2  0  0  0  0  0  0  0  0  0
   26.6426  -18.4600  -15.8028 N   0  0  0  0  0  0  0  0  0  0  0  0
   24.7870  -19.7312  -15.0556 C   0  0  0  0  0  0  0  0  0  0  0  0
   24.3071  -20.6796  -14.3595 O   0  0  0  0  0  0  0  0  0  0  0  0
   23.9191  -19.0118  -15.8826 N   0  0  0  0  0  0  0  0  0  0  0  0
   22.4775  -19.2379  -15.8657 C   0  0  0  0  0  0  0  0  0  0  0  0
   21.8244  -18.1594  -16.6499 C   0  0  0  0  0  0  0  0  0  0  0  0
   22.3127  -16.9788  -16.6864 O   0  0  0  0  0  0  0  0  0  0  0  0
   18.5508  -16.8593  -19.9621 O   0  0  0  0  0  0  0  0  0  0  0  0
   18.9055  -17.8601  -19.0582 C   0  0  0  0  0  0  0  0  0  0  0  0
   20.0514  -17.3254  -18.2243 C   0  0  2  0  0  0  0  0  0  0  0  0
   20.6400  -18.3558  -17.3975 N   0  0  0  0  0  0  0  0  0  0  0  0
   19.6176  -16.2152  -17.3604 C   0  0  0  0  0  0  0  0  0  0  0  0
   19.1553  -16.4579  -16.2270 O   0  0  0  0  0  0  0  0  0  0  0  0
   19.7183  -14.9139  -17.7935 O   0  0  0  0  0  0  0  0  0  0  0  0
  2  3  2  0
  2  1  1  0
  4  2  1  0
  5  4  1  0
  6  5  1  0
  6  7  1  6
  8  6  1  0
  8  9  2  0
 10  8  1  0
 11 10  1  0
 11 12  1  0
 12 17  1  0
 13 12  2  0
 14 15  1  0
 16 15  1  1
 16 18  1  0
 17 16  1  0
 18 20  1  0
 19 18  2  0
M  END
$$$$
