QGS.pdb
     RDKit          3D

 20 19  0  0  1  0  0  0  0  0999 V2000
   18.4855  -24.5222   -9.8377 N   0  0  0  0  0  0  0  0  0  0  0  0
   17.5457  -23.8624  -10.6840 C   0  0  0  0  0  0  0  0  0  0  0  0
   16.3393  -24.0706  -10.4620 O   0  0  0  0  0  0  0  0  0  0  0  0
   18.0237  -22.9963  -11.7474 C   0  0  0  0  0  0  0  0  0  0  0  0
   19.4819  -22.8386  -11.9246 C   0  0  0  0  0  0  0  0  0  0  0  0
   20.0323  -21.4606  -11.9904 C   0  0  2  0  0  0  0  0  0  0  0  0
   19.2590  -20.4968  -12.7129 N   0  0  0  0  0  0  0  0  0  0  0  0
   21.3786  -21.5530  -12.6177 C   0  0  0  0  0  0  0  0  0  0  0  0
   21.9415  -22.6893  -12.5393 O   0  0  0  0  0  0  0  0  0  0  0  0
   22.0594  -20.5202  -13.2692 N   0  0  0  0  0  0  0  0  0  0  0  0
   23.3901  -20.7145  -13.8360 C   0  0  0  0  0  0  0  0  0  0  0  0
   23.7933  -19.4631  -14.5259 C   0  0  0  0  0  0  0  0  0  0  0  0
   23.0349  -18.4343  -14.5279 O   0  0  0  0  0  0  0  0  0  0  0  0
   27.0756  -16.9716  -17.0800 O   0  0  0  0  0  0  0  0  0  0  0  0
   26.7962  -18.1985  -16.4792 C   0  0  0  0  0  0  0  0  0  0  0  0
   25.3889  -18.1160  -15.9249 C   0  0  2  0  0  0  0  0  0  0  0  0
   25.0195  -19.3214  -15.2162 N   0  0  0  0  0  0  0  0  0  0  0  0
   24.4029  -17.8722  -16.9907 C   0  0  0  0  0  0  0  0  0  0  0  0
   23.8758  -18.8389  -17.5782 O   0  0  0  0  0  0  0  0  0  0  0  0
   24.0594  -16.5882  -17.3427 O   0  0  0  0  0  0  0  0  0  0  0  0
  2  3  2  0
  2  1  1  0
  4  2  1  0
  5  4  1  0
  6  5  1  0
  6  7  1  6
  8  6  1  0
  8  9  2  0
 10  8  1  0
 11 10  1  0
 11 12  1  0
 12 17  1  0
 13 12  2  0
 14 15  1  0
 16 15  1  6
 16 18  1  0
 17 16  1  0
 18 20  1  0
 19 18  2  0
M  END
$$$$
