QGS.pdb
     RDKit          3D

 20 19  0  0  1  0  0  0  0  0999 V2000
   16.1229  -13.9615  -16.6494 N   0  0  0  0  0  0  0  0  0  0  0  0
   16.5911  -13.7699  -15.3156 C   0  0  0  0  0  0  0  0  0  0  0  0
   15.7841  -13.9897  -14.3946 O   0  0  0  0  0  0  0  0  0  0  0  0
   17.9583  -13.3338  -15.0919 C   0  0  0  0  0  0  0  0  0  0  0  0
   18.7993  -13.0241  -16.2663 C   0  0  0  0  0  0  0  0  0  0  0  0
   18.5335  -11.7615  -17.0020 C   0  0  2  0  0  0  0  0  0  0  0  0
   18.2632  -11.8820  -18.4025 N   0  0  0  0  0  0  0  0  0  0  0  0
   19.7250  -10.8879  -16.8238 C   0  0  0  0  0  0  0  0  0  0  0  0
   20.8172  -11.3542  -17.2752 O   0  0  0  0  0  0  0  0  0  0  0  0
   19.7432   -9.6290  -16.2159 N   0  0  0  0  0  0  0  0  0  0  0  0
   20.9719   -8.8507  -16.0971 C   0  0  0  0  0  0  0  0  0  0  0  0
   20.6614   -7.5914  -15.3744 C   0  0  0  0  0  0  0  0  0  0  0  0
   19.4589   -7.2801  -15.0734 O   0  0  0  0  0  0  0  0  0  0  0  0
   22.3218   -6.5106  -12.3031 O   0  0  0  0  0  0  0  0  0  0  0  0
   22.3408   -5.3264  -13.0391 C   0  0  0  0  0  0  0  0  0  0  0  0
   21.3588   -5.4923  -14.1805 C   0  0  2  0  0  0  0  0  0  0  0  0
   21.6523   -6.6646  -14.9751 N   0  0  0  0  0  0  0  0  0  0  0  0
   21.3514   -4.3128  -15.0613 C   0  0  0  0  0  0  0  0  0  0  0  0
   21.8781   -4.3811  -16.1906 O   0  0  0  0  0  0  0  0  0  0  0  0
   20.7687   -3.1376  -14.6486 O   0  0  0  0  0  0  0  0  0  0  0  0
  2  3  2  0
  2  1  1  0
  4  2  1  0
  5  4  1  0
  6  5  1  0
  6  7  1  6
  8  6  1  0
  8  9  2  0
 10  8  1  0
 11 10  1  0
 11 12  1  0
 12 17  1  0
 13 12  2  0
 14 15  1  0
 16 15  1  1
 16 18  1  0
 17 16  1  0
 18 20  1  0
 19 18  2  0
M  END
$$$$
