QGS.pdb
     RDKit          3D

 20 19  0  0  1  0  0  0  0  0999 V2000
   28.2546  -21.9476  -15.7925 N   0  0  0  0  0  0  0  0  0  0  0  0
   27.4323  -20.8376  -16.1480 C   0  0  0  0  0  0  0  0  0  0  0  0
   27.9760  -19.7192  -16.1880 O   0  0  0  0  0  0  0  0  0  0  0  0
   26.0258  -21.0522  -16.4399 C   0  0  0  0  0  0  0  0  0  0  0  0
   25.0203  -20.4216  -15.5602 C   0  0  0  0  0  0  0  0  0  0  0  0
   24.7185  -21.0776  -14.2623 C   0  0  2  0  0  0  0  0  0  0  0  0
   24.8806  -22.4989  -14.2110 N   0  0  0  0  0  0  0  0  0  0  0  0
   23.3079  -20.7498  -13.9199 C   0  0  0  0  0  0  0  0  0  0  0  0
   22.9568  -19.5488  -14.1399 O   0  0  0  0  0  0  0  0  0  0  0  0
   22.3603  -21.6302  -13.3892 N   0  0  0  0  0  0  0  0  0  0  0  0
   20.9964  -21.2040  -13.0928 C   0  0  0  0  0  0  0  0  0  0  0  0
   20.2111  -22.3958  -12.6836 C   0  0  0  0  0  0  0  0  0  0  0  0
   20.7374  -23.5604  -12.6632 O   0  0  0  0  0  0  0  0  0  0  0  0
   16.3907  -21.9408  -11.4380 O   0  0  0  0  0  0  0  0  0  0  0  0
   16.9805  -23.0857  -10.9034 C   0  0  0  0  0  0  0  0  0  0  0  0
   18.1111  -23.4820  -11.8303 C   0  0  2  0  0  0  0  0  0  0  0  0
   18.8528  -22.3306  -12.2950 N   0  0  0  0  0  0  0  0  0  0  0  0
   17.6147  -24.2285  -12.9980 C   0  0  0  0  0  0  0  0  0  0  0  0
   17.5509  -23.6658  -14.1101 O   0  0  0  0  0  0  0  0  0  0  0  0
   17.2213  -25.5400  -12.8717 O   0  0  0  0  0  0  0  0  0  0  0  0
  2  3  2  0
  2  1  1  0
  4  2  1  0
  5  4  1  0
  6  5  1  0
  6  7  1  6
  8  6  1  0
  8  9  2  0
 10  8  1  0
 11 10  1  0
 11 12  1  0
 12 17  1  0
 13 12  2  0
 14 15  1  0
 16 15  1  1
 16 18  1  0
 17 16  1  0
 18 20  1  0
 19 18  2  0
M  END
$$$$
