QGS.pdb
     RDKit          3D

 20 19  0  0  1  0  0  0  0  0999 V2000
   13.5902  -14.0543  -17.5242 N   0  0  0  0  0  0  0  0  0  0  0  0
   14.7609  -14.7954  -17.1851 C   0  0  0  0  0  0  0  0  0  0  0  0
   14.8995  -15.9111  -17.7179 O   0  0  0  0  0  0  0  0  0  0  0  0
   15.7204  -14.2318  -16.2517 C   0  0  0  0  0  0  0  0  0  0  0  0
   15.3737  -12.9731  -15.5603 C   0  0  0  0  0  0  0  0  0  0  0  0
   16.3497  -12.4192  -14.5874 C   0  0  2  0  0  0  0  0  0  0  0  0
   16.7042  -13.2625  -13.4864 N   0  0  0  0  0  0  0  0  0  0  0  0
   15.7696  -11.1586  -14.0499 C   0  0  0  0  0  0  0  0  0  0  0  0
   15.5364  -10.2535  -14.9105 O   0  0  0  0  0  0  0  0  0  0  0  0
   15.4678  -10.8928  -12.7108 N   0  0  0  0  0  0  0  0  0  0  0  0
   14.7073   -9.7121  -12.3142 C   0  0  0  0  0  0  0  0  0  0  0  0
   15.6153   -8.7937  -11.5816 C   0  0  0  0  0  0  0  0  0  0  0  0
   16.8142   -9.1345  -11.2985 O   0  0  0  0  0  0  0  0  0  0  0  0
   16.8723   -4.3636  -10.3350 O   0  0  0  0  0  0  0  0  0  0  0  0
   15.9766   -5.1707  -11.0356 C   0  0  0  0  0  0  0  0  0  0  0  0
   16.1380   -6.5817  -10.5086 C   0  0  2  0  0  0  0  0  0  0  0  0
   15.2280   -7.5028  -11.1530 N   0  0  0  0  0  0  0  0  0  0  0  0
   15.9214   -6.6420   -9.0537 C   0  0  0  0  0  0  0  0  0  0  0  0
   14.8039   -6.9738   -8.6081 O   0  0  0  0  0  0  0  0  0  0  0  0
   16.9410   -6.3356   -8.1834 O   0  0  0  0  0  0  0  0  0  0  0  0
  2  3  2  0
  2  1  1  0
  4  2  1  0
  5  4  1  0
  6  5  1  0
  6  7  1  1
  8  6  1  0
  8  9  2  0
 10  8  1  0
 11 10  1  0
 11 12  1  0
 12 17  1  0
 13 12  2  0
 14 15  1  0
 16 15  1  6
 16 18  1  0
 17 16  1  0
 18 20  1  0
 19 18  2  0
M  END
$$$$
