QGS.pdb
     RDKit          3D

 20 19  0  0  1  0  0  0  0  0999 V2000
   16.3029  -22.8544    3.6181 N   0  0  0  0  0  0  0  0  0  0  0  0
   16.8307  -21.5960    4.0336 C   0  0  0  0  0  0  0  0  0  0  0  0
   18.0154  -21.3537    3.7406 O   0  0  0  0  0  0  0  0  0  0  0  0
   15.9846  -20.6709    4.7667 C   0  0  0  0  0  0  0  0  0  0  0  0
   16.5843  -19.4199    5.2745 C   0  0  0  0  0  0  0  0  0  0  0  0
   15.7165  -18.4911    6.0428 C   0  0  2  0  0  0  0  0  0  0  0  0
   14.5173  -18.0530    5.3954 N   0  0  0  0  0  0  0  0  0  0  0  0
   16.5372  -17.2957    6.3773 C   0  0  0  0  0  0  0  0  0  0  0  0
   16.1509  -16.2037    5.8552 O   0  0  0  0  0  0  0  0  0  0  0  0
   17.6697  -17.2737    7.1969 N   0  0  0  0  0  0  0  0  0  0  0  0
   18.3901  -16.0365    7.4793 C   0  0  0  0  0  0  0  0  0  0  0  0
   19.5607  -16.3599    8.3335 C   0  0  0  0  0  0  0  0  0  0  0  0
   19.7487  -17.5431    8.7787 O   0  0  0  0  0  0  0  0  0  0  0  0
   23.8286  -15.0813   10.2049 O   0  0  0  0  0  0  0  0  0  0  0  0
   22.7150  -14.6192    9.5043 C   0  0  0  0  0  0  0  0  0  0  0  0
   21.6815  -15.7264    9.5246 C   0  0  2  0  0  0  0  0  0  0  0  0
   20.5320  -15.4028    8.7087 N   0  0  0  0  0  0  0  0  0  0  0  0
   21.2245  -16.0124   10.8945 C   0  0  0  0  0  0  0  0  0  0  0  0
   20.2802  -15.3573   11.3807 O   0  0  0  0  0  0  0  0  0  0  0  0
   21.8305  -16.9955   11.6410 O   0  0  0  0  0  0  0  0  0  0  0  0
  2  3  2  0
  2  1  1  0
  4  2  1  0
  5  4  1  0
  6  5  1  0
  6  7  1  6
  8  6  1  0
  8  9  2  0
 10  8  1  0
 11 10  1  0
 11 12  1  0
 12 17  1  0
 13 12  2  0
 14 15  1  0
 16 15  1  1
 16 18  1  0
 17 16  1  0
 18 20  1  0
 19 18  2  0
M  END
$$$$
