QGS.pdb
     RDKit          3D

 20 19  0  0  1  0  0  0  0  0999 V2000
   18.4585  -15.5411  -14.9692 N   0  0  0  0  0  0  0  0  0  0  0  0
   18.0805  -14.6791  -16.0410 C   0  0  0  0  0  0  0  0  0  0  0  0
   16.9246  -14.2194  -16.0178 O   0  0  0  0  0  0  0  0  0  0  0  0
   19.0369  -14.3817  -17.0927 C   0  0  0  0  0  0  0  0  0  0  0  0
   20.0487  -13.3334  -16.8479 C   0  0  0  0  0  0  0  0  0  0  0  0
   20.2697  -12.3154  -17.9066 C   0  0  2  0  0  0  0  0  0  0  0  0
   20.7467  -12.7970  -19.1675 N   0  0  0  0  0  0  0  0  0  0  0  0
   21.2510  -11.3314  -17.3743 C   0  0  0  0  0  0  0  0  0  0  0  0
   22.4206  -11.7825  -17.1679 O   0  0  0  0  0  0  0  0  0  0  0  0
   21.0001   -9.9859  -17.0888 N   0  0  0  0  0  0  0  0  0  0  0  0
   22.0526   -9.0907  -16.6192 C   0  0  0  0  0  0  0  0  0  0  0  0
   21.4528   -7.7577  -16.3586 C   0  0  0  0  0  0  0  0  0  0  0  0
   20.3988   -7.3747  -16.9717 O   0  0  0  0  0  0  0  0  0  0  0  0
   19.4808   -5.3203  -13.2861 O   0  0  0  0  0  0  0  0  0  0  0  0
   20.0944   -6.3836  -13.9474 C   0  0  0  0  0  0  0  0  0  0  0  0
   21.2025   -5.8013  -14.8004 C   0  0  2  0  0  0  0  0  0  0  0  0
   21.9925   -6.8347  -15.4328 N   0  0  0  0  0  0  0  0  0  0  0  0
   22.0961   -4.9396  -14.0091 C   0  0  0  0  0  0  0  0  0  0  0  0
   23.1848   -5.3901  -13.5976 O   0  0  0  0  0  0  0  0  0  0  0  0
   21.7397   -3.6432  -13.7206 O   0  0  0  0  0  0  0  0  0  0  0  0
  2  3  2  0
  2  1  1  0
  4  2  1  0
  5  4  1  0
  6  5  1  0
  6  7  1  6
  8  6  1  0
  8  9  2  0
 10  8  1  0
 11 10  1  0
 11 12  1  0
 12 17  1  0
 13 12  2  0
 14 15  1  0
 16 15  1  1
 16 18  1  0
 17 16  1  0
 18 20  1  0
 19 18  2  0
M  END
$$$$
