QGS.pdb
     RDKit          3D

 20 19  0  0  1  0  0  0  0  0999 V2000
   15.8457  -14.0017  -16.1748 N   0  0  0  0  0  0  0  0  0  0  0  0
   16.9238  -14.4890  -15.3778 C   0  0  0  0  0  0  0  0  0  0  0  0
   16.7043  -15.4974  -14.6829 O   0  0  0  0  0  0  0  0  0  0  0  0
   18.2037  -13.8031  -15.4073 C   0  0  0  0  0  0  0  0  0  0  0  0
   18.3105  -12.5452  -16.1747 C   0  0  0  0  0  0  0  0  0  0  0  0
   19.6333  -12.1866  -16.7469 C   0  0  2  0  0  0  0  0  0  0  0  0
   20.7830  -12.5389  -15.9703 N   0  0  0  0  0  0  0  0  0  0  0  0
   19.6381  -10.7135  -16.9574 C   0  0  0  0  0  0  0  0  0  0  0  0
   18.8601  -10.2886  -17.8676 O   0  0  0  0  0  0  0  0  0  0  0  0
   20.4078   -9.7809  -16.2556 N   0  0  0  0  0  0  0  0  0  0  0  0
   20.4408   -8.3717  -16.6333 C   0  0  0  0  0  0  0  0  0  0  0  0
   21.3475   -7.6570  -15.6997 C   0  0  0  0  0  0  0  0  0  0  0  0
   21.8542   -8.2483  -14.6862 O   0  0  0  0  0  0  0  0  0  0  0  0
   23.4785   -4.4562  -16.8270 O   0  0  0  0  0  0  0  0  0  0  0  0
   23.0334   -4.2639  -15.5196 C   0  0  0  0  0  0  0  0  0  0  0  0
   22.6328   -5.6208  -14.9784 C   0  0  2  0  0  0  0  0  0  0  0  0
   21.7087   -6.2990  -15.8604 N   0  0  0  0  0  0  0  0  0  0  0  0
   22.0196   -5.5099  -13.6446 C   0  0  0  0  0  0  0  0  0  0  0  0
   20.7767   -5.5209  -13.5326 O   0  0  0  0  0  0  0  0  0  0  0  0
   22.8061   -5.3944  -12.5227 O   0  0  0  0  0  0  0  0  0  0  0  0
  2  3  2  0
  2  1  1  0
  4  2  1  0
  5  4  1  0
  6  5  1  0
  6  7  1  1
  8  6  1  0
  8  9  2  0
 10  8  1  0
 11 10  1  0
 11 12  1  0
 12 17  1  0
 13 12  2  0
 14 15  1  0
 16 15  1  6
 16 18  1  0
 17 16  1  0
 18 20  1  0
 19 18  2  0
M  END
$$$$
