QGS.pdb
     RDKit          3D

 20 19  0  0  1  0  0  0  0  0999 V2000
   17.3700  -14.5506  -19.2337 N   0  0  0  0  0  0  0  0  0  0  0  0
   17.2264  -13.1329  -19.1676 C   0  0  0  0  0  0  0  0  0  0  0  0
   16.2308  -12.6375  -19.7256 O   0  0  0  0  0  0  0  0  0  0  0  0
   18.2260  -12.3432  -18.4701 C   0  0  0  0  0  0  0  0  0  0  0  0
   19.3891  -13.0397  -17.8830 C   0  0  0  0  0  0  0  0  0  0  0  0
   19.7891  -12.6848  -16.4973 C   0  0  2  0  0  0  0  0  0  0  0  0
   18.7351  -12.3145  -15.6023 N   0  0  0  0  0  0  0  0  0  0  0  0
   20.7491  -11.5518  -16.5919 C   0  0  0  0  0  0  0  0  0  0  0  0
   21.7839  -11.7693  -17.2962 O   0  0  0  0  0  0  0  0  0  0  0  0
   20.6119  -10.2995  -15.9856 N   0  0  0  0  0  0  0  0  0  0  0  0
   21.6492   -9.2781  -16.0882 C   0  0  0  0  0  0  0  0  0  0  0  0
   21.2080   -8.0833  -15.3250 C   0  0  0  0  0  0  0  0  0  0  0  0
   20.0384   -8.0191  -14.8136 O   0  0  0  0  0  0  0  0  0  0  0  0
   22.2664   -4.0137  -12.9861 O   0  0  0  0  0  0  0  0  0  0  0  0
   22.7839   -5.0521  -13.7596 C   0  0  0  0  0  0  0  0  0  0  0  0
   21.6068   -5.8016  -14.3489 C   0  0  2  0  0  0  0  0  0  0  0  0
   22.0321   -6.9537  -15.1129 N   0  0  0  0  0  0  0  0  0  0  0  0
   20.7932   -4.9328  -15.2151 C   0  0  0  0  0  0  0  0  0  0  0  0
   21.1047   -4.7900  -16.4151 O   0  0  0  0  0  0  0  0  0  0  0  0
   19.6937   -4.2784  -14.7116 O   0  0  0  0  0  0  0  0  0  0  0  0
  2  3  2  0
  2  1  1  0
  4  2  1  0
  5  4  1  0
  6  5  1  0
  6  7  1  1
  8  6  1  0
  8  9  2  0
 10  8  1  0
 11 10  1  0
 11 12  1  0
 12 17  1  0
 13 12  2  0
 14 15  1  0
 16 15  1  6
 16 18  1  0
 17 16  1  0
 18 20  1  0
 19 18  2  0
M  END
$$$$
