QGS.pdb
     RDKit          3D

 20 19  0  0  1  0  0  0  0  0999 V2000
   17.2120  -15.0898  -18.6739 N   0  0  0  0  0  0  0  0  0  0  0  0
   16.0655  -14.4270  -18.1439 C   0  0  0  0  0  0  0  0  0  0  0  0
   14.9732  -14.6575  -18.6931 O   0  0  0  0  0  0  0  0  0  0  0  0
   16.2163  -13.5289  -17.0124 C   0  0  0  0  0  0  0  0  0  0  0  0
   17.5749  -13.2785  -16.4889 C   0  0  0  0  0  0  0  0  0  0  0  0
   17.7296  -12.2860  -15.3948 C   0  0  2  0  0  0  0  0  0  0  0  0
   16.5684  -11.5201  -15.0571 N   0  0  0  0  0  0  0  0  0  0  0  0
   18.8130  -11.3493  -15.7989 C   0  0  0  0  0  0  0  0  0  0  0  0
   19.9256  -11.8914  -16.0862 O   0  0  0  0  0  0  0  0  0  0  0  0
   18.7122   -9.9576  -15.8864 N   0  0  0  0  0  0  0  0  0  0  0  0
   19.8193   -9.1354  -16.3638 C   0  0  0  0  0  0  0  0  0  0  0  0
   20.0088   -8.0081  -15.4163 C   0  0  0  0  0  0  0  0  0  0  0  0
   19.1107   -7.7062  -14.5584 O   0  0  0  0  0  0  0  0  0  0  0  0
   22.7859   -4.4759  -13.6107 O   0  0  0  0  0  0  0  0  0  0  0  0
   22.7501   -5.5631  -14.4831 C   0  0  0  0  0  0  0  0  0  0  0  0
   21.3182   -6.0552  -14.5274 C   0  0  2  0  0  0  0  0  0  0  0  0
   21.1718   -7.2036  -15.3945 N   0  0  0  0  0  0  0  0  0  0  0  0
   20.3987   -4.9989  -14.9811 C   0  0  0  0  0  0  0  0  0  0  0  0
   20.1856   -4.8468  -16.2013 O   0  0  0  0  0  0  0  0  0  0  0  0
   19.7737   -4.1797  -14.0705 O   0  0  0  0  0  0  0  0  0  0  0  0
  2  3  2  0
  2  1  1  0
  4  2  1  0
  5  4  1  0
  6  5  1  0
  6  7  1  6
  8  6  1  0
  8  9  2  0
 10  8  1  0
 11 10  1  0
 11 12  1  0
 12 17  1  0
 13 12  2  0
 14 15  1  0
 16 15  1  6
 16 18  1  0
 17 16  1  0
 18 20  1  0
 19 18  2  0
M  END
$$$$
