QGS.pdb
     RDKit          3D

 20 19  0  0  1  0  0  0  0  0999 V2000
   24.8993  -20.8365   -9.2458 N   0  0  0  0  0  0  0  0  0  0  0  0
   26.2919  -20.7900   -9.5513 C   0  0  0  0  0  0  0  0  0  0  0  0
   27.0783  -21.1877   -8.6730 O   0  0  0  0  0  0  0  0  0  0  0  0
   26.7256  -20.2897  -10.8439 C   0  0  0  0  0  0  0  0  0  0  0  0
   25.6962  -19.8931  -11.8265 C   0  0  0  0  0  0  0  0  0  0  0  0
   25.5523  -20.7130  -13.0566 C   0  0  2  0  0  0  0  0  0  0  0  0
   26.6957  -20.7849  -13.9148 N   0  0  0  0  0  0  0  0  0  0  0  0
   24.4139  -20.1493  -13.8317 C   0  0  0  0  0  0  0  0  0  0  0  0
   23.2697  -20.2782  -13.2947 O   0  0  0  0  0  0  0  0  0  0  0  0
   24.4955  -19.5063  -15.0705 N   0  0  0  0  0  0  0  0  0  0  0  0
   23.3522  -18.8100  -15.6517 C   0  0  0  0  0  0  0  0  0  0  0  0
   23.2288  -19.2171  -17.0742 C   0  0  0  0  0  0  0  0  0  0  0  0
   24.2626  -19.3887  -17.8059 O   0  0  0  0  0  0  0  0  0  0  0  0
   20.7678  -21.8472  -18.4747 O   0  0  0  0  0  0  0  0  0  0  0  0
   20.6429  -20.7327  -19.3033 C   0  0  0  0  0  0  0  0  0  0  0  0
   21.8701  -19.8720  -19.0850 C   0  0  2  0  0  0  0  0  0  0  0  0
   21.9850  -19.4400  -17.7095 N   0  0  0  0  0  0  0  0  0  0  0  0
   21.8577  -18.6845  -19.9550 C   0  0  0  0  0  0  0  0  0  0  0  0
   21.4193  -17.6014  -19.5166 O   0  0  0  0  0  0  0  0  0  0  0  0
   22.3255  -18.7606  -21.2458 O   0  0  0  0  0  0  0  0  0  0  0  0
  2  3  2  0
  2  1  1  0
  4  2  1  0
  5  4  1  0
  6  5  1  0
  6  7  1  6
  8  6  1  0
  8  9  2  0
 10  8  1  0
 11 10  1  0
 11 12  1  0
 12 17  1  0
 13 12  2  0
 14 15  1  0
 16 15  1  1
 16 18  1  0
 17 16  1  0
 18 20  1  0
 19 18  2  0
M  END
$$$$
