QGS.pdb
     RDKit          3D

 20 19  0  0  1  0  0  0  0  0999 V2000
   25.4149  -20.3482  -19.1833 N   0  0  0  0  0  0  0  0  0  0  0  0
   24.1446  -20.6802  -18.6256 C   0  0  0  0  0  0  0  0  0  0  0  0
   23.9794  -21.8555  -18.2521 O   0  0  0  0  0  0  0  0  0  0  0  0
   23.1186  -19.6576  -18.5209 C   0  0  0  0  0  0  0  0  0  0  0  0
   22.2821  -19.6221  -17.3036 C   0  0  0  0  0  0  0  0  0  0  0  0
   22.7189  -18.7526  -16.1814 C   0  0  2  0  0  0  0  0  0  0  0  0
   23.1841  -17.4444  -16.5294 N   0  0  0  0  0  0  0  0  0  0  0  0
   23.8110  -19.4687  -15.4680 C   0  0  0  0  0  0  0  0  0  0  0  0
   23.4959  -20.5981  -14.9787 O   0  0  0  0  0  0  0  0  0  0  0  0
   25.1218  -19.0143  -15.2946 N   0  0  0  0  0  0  0  0  0  0  0  0
   26.1462  -19.8437  -14.6683 C   0  0  0  0  0  0  0  0  0  0  0  0
   26.8801  -20.5688  -15.7361 C   0  0  0  0  0  0  0  0  0  0  0  0
   26.5263  -20.4788  -16.9610 O   0  0  0  0  0  0  0  0  0  0  0  0
   29.0331  -24.0528  -17.7354 O   0  0  0  0  0  0  0  0  0  0  0  0
   28.2000  -23.4594  -16.7876 C   0  0  0  0  0  0  0  0  0  0  0  0
   28.7365  -22.0668  -16.5284 C   0  0  2  0  0  0  0  0  0  0  0  0
   28.0000  -21.3940  -15.4812 N   0  0  0  0  0  0  0  0  0  0  0  0
   28.6947  -21.2379  -17.7443 C   0  0  0  0  0  0  0  0  0  0  0  0
   29.7585  -20.8148  -18.2411 O   0  0  0  0  0  0  0  0  0  0  0  0
   27.4929  -20.9270  -18.3357 O   0  0  0  0  0  0  0  0  0  0  0  0
  2  3  2  0
  2  1  1  0
  4  2  1  0
  5  4  1  0
  6  5  1  0
  6  7  1  6
  8  6  1  0
  8  9  2  0
 10  8  1  0
 11 10  1  0
 11 12  1  0
 12 17  1  0
 13 12  2  0
 14 15  1  0
 16 15  1  6
 16 18  1  0
 17 16  1  0
 18 20  1  0
 19 18  2  0
M  END
$$$$
