QGS.pdb
     RDKit          3D

 20 19  0  0  1  0  0  0  0  0999 V2000
   13.9216  -11.5423  -10.9420 N   0  0  0  0  0  0  0  0  0  0  0  0
   13.2634  -11.3778   -9.6872 C   0  0  0  0  0  0  0  0  0  0  0  0
   12.5185  -12.3012   -9.3126 O   0  0  0  0  0  0  0  0  0  0  0  0
   13.4822  -10.1663   -8.9166 C   0  0  0  0  0  0  0  0  0  0  0  0
   14.3231   -9.1021   -9.5022 C   0  0  0  0  0  0  0  0  0  0  0  0
   14.6370   -7.9183   -8.6618 C   0  0  2  0  0  0  0  0  0  0  0  0
   13.5231   -7.2368   -8.0754 N   0  0  0  0  0  0  0  0  0  0  0  0
   15.3835   -6.9559   -9.5168 C   0  0  0  0  0  0  0  0  0  0  0  0
   14.6933   -6.0056  -10.0013 O   0  0  0  0  0  0  0  0  0  0  0  0
   16.7463   -7.0085   -9.8245 N   0  0  0  0  0  0  0  0  0  0  0  0
   17.3686   -6.0434  -10.7251 C   0  0  0  0  0  0  0  0  0  0  0  0
   18.7831   -6.4428  -10.9356 C   0  0  0  0  0  0  0  0  0  0  0  0
   19.3475   -7.3040  -10.1783 O   0  0  0  0  0  0  0  0  0  0  0  0
   20.4575   -7.2766  -14.1562 O   0  0  0  0  0  0  0  0  0  0  0  0
   21.1829   -7.4758  -12.9821 C   0  0  0  0  0  0  0  0  0  0  0  0
   20.9902   -6.2442  -12.1217 C   0  0  2  0  0  0  0  0  0  0  0  0
   19.5914   -5.9109  -11.9670 N   0  0  0  0  0  0  0  0  0  0  0  0
   21.6955   -5.0795  -12.6815 C   0  0  0  0  0  0  0  0  0  0  0  0
   21.0409   -4.1407  -13.1792 O   0  0  0  0  0  0  0  0  0  0  0  0
   23.0691   -5.0191  -12.6598 O   0  0  0  0  0  0  0  0  0  0  0  0
  2  3  2  0
  2  1  1  0
  4  2  1  0
  5  4  1  0
  6  5  1  0
  6  7  1  6
  8  6  1  0
  8  9  2  0
 10  8  1  0
 11 10  1  0
 11 12  1  0
 12 17  1  0
 13 12  2  0
 14 15  1  0
 16 15  1  6
 16 18  1  0
 17 16  1  0
 18 20  1  0
 19 18  2  0
M  END
$$$$
