QGS.pdb
     RDKit          3D

 20 19  0  0  1  0  0  0  0  0999 V2000
   23.6528  -20.1432  -10.1263 N   0  0  0  0  0  0  0  0  0  0  0  0
   24.3837  -20.7423   -9.0577 C   0  0  0  0  0  0  0  0  0  0  0  0
   23.7356  -21.0968   -8.0566 O   0  0  0  0  0  0  0  0  0  0  0  0
   25.8216  -20.9084   -9.1777 C   0  0  0  0  0  0  0  0  0  0  0  0
   26.4830  -20.4428  -10.4140 C   0  0  0  0  0  0  0  0  0  0  0  0
   25.8727  -20.8163  -11.7155 C   0  0  2  0  0  0  0  0  0  0  0  0
   25.7605  -22.2165  -11.9910 N   0  0  0  0  0  0  0  0  0  0  0  0
   26.6955  -20.1884  -12.7847 C   0  0  0  0  0  0  0  0  0  0  0  0
   26.9119  -18.9439  -12.6483 O   0  0  0  0  0  0  0  0  0  0  0  0
   27.2364  -20.8364  -13.8993 N   0  0  0  0  0  0  0  0  0  0  0  0
   28.1022  -20.1421  -14.8469 C   0  0  0  0  0  0  0  0  0  0  0  0
   27.2465  -19.4322  -15.8308 C   0  0  0  0  0  0  0  0  0  0  0  0
   25.9715  -19.4794  -15.7551 O   0  0  0  0  0  0  0  0  0  0  0  0
   29.0542  -17.5511  -18.7470 O   0  0  0  0  0  0  0  0  0  0  0  0
   27.7464  -17.0676  -18.7578 C   0  0  0  0  0  0  0  0  0  0  0  0
   26.9318  -17.9578  -17.8421 C   0  0  2  0  0  0  0  0  0  0  0  0
   27.7686  -18.6684  -16.9005 N   0  0  0  0  0  0  0  0  0  0  0  0
   26.1408  -18.9370  -18.6056 C   0  0  0  0  0  0  0  0  0  0  0  0
   26.5232  -20.1230  -18.6729 O   0  0  0  0  0  0  0  0  0  0  0  0
   24.9849  -18.5540  -19.2443 O   0  0  0  0  0  0  0  0  0  0  0  0
  2  3  2  0
  2  1  1  0
  4  2  1  0
  5  4  1  0
  6  5  1  0
  6  7  1  6
  8  6  1  0
  8  9  2  0
 10  8  1  0
 11 10  1  0
 11 12  1  0
 12 17  1  0
 13 12  2  0
 14 15  1  0
 16 15  1  6
 16 18  1  0
 17 16  1  0
 18 20  1  0
 19 18  2  0
M  END
$$$$
