QGS.pdb
     RDKit          3D

 20 19  0  0  1  0  0  0  0  0999 V2000
   22.4083  -20.4078  -13.2501 N   0  0  0  0  0  0  0  0  0  0  0  0
   22.2688  -20.2091  -11.8444 C   0  0  0  0  0  0  0  0  0  0  0  0
   21.2952  -19.5359  -11.4611 O   0  0  0  0  0  0  0  0  0  0  0  0
   23.2471  -20.7851  -10.9387 C   0  0  0  0  0  0  0  0  0  0  0  0
   24.4192  -21.4754  -11.5153 C   0  0  0  0  0  0  0  0  0  0  0  0
   25.7345  -21.2918  -10.8503 C   0  0  2  0  0  0  0  0  0  0  0  0
   25.7453  -20.4908   -9.6640 N   0  0  0  0  0  0  0  0  0  0  0  0
   26.6500  -20.6730  -11.8471 C   0  0  0  0  0  0  0  0  0  0  0  0
   27.0857  -19.5180  -11.5463 O   0  0  0  0  0  0  0  0  0  0  0  0
   27.0603  -21.2412  -13.0569 N   0  0  0  0  0  0  0  0  0  0  0  0
   27.9827  -20.5541  -13.9550 C   0  0  0  0  0  0  0  0  0  0  0  0
   27.1986  -19.6389  -14.8223 C   0  0  0  0  0  0  0  0  0  0  0  0
   25.9294  -19.5420  -14.7060 O   0  0  0  0  0  0  0  0  0  0  0  0
   28.6393  -16.2650  -16.3434 O   0  0  0  0  0  0  0  0  0  0  0  0
   27.9025  -16.9052  -17.3393 C   0  0  0  0  0  0  0  0  0  0  0  0
   27.0197  -17.9288  -16.6557 C   0  0  2  0  0  0  0  0  0  0  0  0
   27.7862  -18.8253  -15.8187 N   0  0  0  0  0  0  0  0  0  0  0  0
   26.2615  -18.7261  -17.6338 C   0  0  0  0  0  0  0  0  0  0  0  0
   26.5905  -19.9094  -17.8549 O   0  0  0  0  0  0  0  0  0  0  0  0
   25.1944  -18.1764  -18.3046 O   0  0  0  0  0  0  0  0  0  0  0  0
  2  3  2  0
  2  1  1  0
  4  2  1  0
  5  4  1  0
  6  5  1  0
  6  7  1  1
  8  6  1  0
  8  9  2  0
 10  8  1  0
 11 10  1  0
 11 12  1  0
 12 17  1  0
 13 12  2  0
 14 15  1  0
 16 15  1  6
 16 18  1  0
 17 16  1  0
 18 20  1  0
 19 18  2  0
M  END
$$$$
