TKR.pdb
     RDKit          3D

 28 27  0  0  1  0  0  0  0  0999 V2000
   10.1939  -13.3106   16.7217 C   0  0  0  0  0  0  0  0  0  0  0  0
    9.7798  -14.0595   17.9557 C   0  0  1  0  0  0  0  0  0  0  0  0
   10.3912  -13.4602   19.0557 O   0  0  0  0  0  0  0  0  0  0  0  0
    8.2898  -14.0470   18.1809 C   0  0  2  0  0  0  0  0  0  0  0  0
    7.8986  -12.6571   18.3241 N   0  0  0  0  0  0  0  0  0  0  0  0
    7.8934  -14.8041   19.3873 C   0  0  0  0  0  0  0  0  0  0  0  0
    7.8268  -14.2913   20.5321 O   0  0  0  0  0  0  0  0  0  0  0  0
    7.5627  -16.1843   19.2898 N   0  0  0  0  0  0  0  0  0  0  0  0
    7.1208  -16.9251   20.4941 C   0  0  1  0  0  0  0  0  0  0  0  0
    6.9257  -18.3729   20.1389 C   0  0  0  0  0  0  0  0  0  0  0  0
    6.4913  -19.1526   21.3432 C   0  0  0  0  0  0  0  0  0  0  0  0
    6.3595  -20.6338   21.0048 C   0  0  0  0  0  0  0  0  0  0  0  0
    5.1792  -21.1843   21.7364 C   0  0  0  0  0  0  0  0  0  0  0  0
    4.9672  -22.5905   21.4848 N   0  0  0  0  0  0  0  0  0  0  0  0
    8.1525  -16.7725   21.5590 C   0  0  0  0  0  0  0  0  0  0  0  0
    9.3769  -16.8600   21.2986 O   0  0  0  0  0  0  0  0  0  0  0  0
    7.0969  -11.4820   28.1689 N   0  0  0  0  0  0  0  0  0  0  0  0
    6.4087  -12.1684   27.1091 C   0  0  0  0  0  0  0  0  0  0  0  0
    5.1953  -11.8247   26.8616 N   0  0  0  0  0  0  0  0  0  0  0  0
    7.0775  -13.1704   26.3981 N   0  0  0  0  0  0  0  0  0  0  0  0
    8.5452  -13.3657   26.6505 C   0  0  0  0  0  0  0  0  0  0  0  0
    9.0360  -14.4519   25.7913 C   0  0  0  0  0  0  0  0  0  0  0  0
    8.2790  -14.9958   24.6693 C   0  0  0  0  0  0  0  0  0  0  0  0
    8.8652  -16.0620   23.8362 C   0  0  2  0  0  0  0  0  0  0  0  0
    7.7849  -16.5248   22.8929 N   0  0  0  0  0  0  0  0  0  0  0  0
    9.2363  -17.3261   24.5307 C   0  0  0  0  0  0  0  0  0  0  0  0
   10.4043  -17.6963   25.0944 O   0  0  0  0  0  0  0  0  0  0  0  0
    8.2980  -18.2232   24.6097 O   0  0  0  0  0  0  0  0  0  0  0  0
  2  1  1  6
  2  4  1  0
  3  2  1  0
  4  6  1  0
  4  5  1  1
  6  7  2  0
  8  6  1  0
  8  9  1  0
  9 10  1  6
 10 11  1  0
 11 12  1  0
 12 13  1  0
 13 14  1  0
 15  9  1  0
 15 25  1  0
 16 15  2  0
 17 18  1  0
 18 20  1  0
 19 18  2  0
 21 20  1  0
 21 22  1  0
 22 23  1  0
 24 25  1  0
 24 23  1  1
 26 24  1  0
 27 26  1  0
 28 26  2  0
M  END
$$$$
