TKR.pdb
     RDKit          3D

 28 27  0  0  1  0  0  0  0  0999 V2000
    6.8270  -14.9550   16.8404 C   0  0  0  0  0  0  0  0  0  0  0  0
    7.4516  -14.9407   18.2059 C   0  0  1  0  0  0  0  0  0  0  0  0
    8.7696  -15.3791   18.0876 O   0  0  0  0  0  0  0  0  0  0  0  0
    7.4662  -13.5707   18.8334 C   0  0  2  0  0  0  0  0  0  0  0  0
    8.1844  -12.6993   17.9223 N   0  0  0  0  0  0  0  0  0  0  0  0
    8.1251  -13.5613   20.1569 C   0  0  0  0  0  0  0  0  0  0  0  0
    9.3714  -13.5122   20.3061 O   0  0  0  0  0  0  0  0  0  0  0  0
    7.3449  -13.6090   21.3454 N   0  0  0  0  0  0  0  0  0  0  0  0
    8.0049  -13.5036   22.6674 C   0  0  1  0  0  0  0  0  0  0  0  0
    6.9689  -13.1982   23.7133 C   0  0  0  0  0  0  0  0  0  0  0  0
    7.6140  -13.0376   25.0568 C   0  0  0  0  0  0  0  0  0  0  0  0
    6.5909  -12.5839   26.0927 C   0  0  0  0  0  0  0  0  0  0  0  0
    7.3101  -12.2708   27.3640 C   0  0  0  0  0  0  0  0  0  0  0  0
    6.4357  -11.7604   28.3939 N   0  0  0  0  0  0  0  0  0  0  0  0
    8.6978  -14.7896   22.9638 C   0  0  0  0  0  0  0  0  0  0  0  0
    8.1537  -15.8944   22.7231 O   0  0  0  0  0  0  0  0  0  0  0  0
   16.6548  -14.6877   21.1503 N   0  0  0  0  0  0  0  0  0  0  0  0
   15.4606  -14.9144   20.3817 C   0  0  0  0  0  0  0  0  0  0  0  0
   15.5106  -14.6904   19.1172 N   0  0  0  0  0  0  0  0  0  0  0  0
   14.3062  -15.3636   21.0315 N   0  0  0  0  0  0  0  0  0  0  0  0
   14.4459  -16.4351   22.0748 C   0  0  0  0  0  0  0  0  0  0  0  0
   13.1227  -16.7179   22.6477 C   0  0  0  0  0  0  0  0  0  0  0  0
   12.0632  -15.7213   22.7577 C   0  0  0  0  0  0  0  0  0  0  0  0
   10.7834  -16.0781   23.3975 C   0  0  2  0  0  0  0  0  0  0  0  0
    9.9869  -14.8050   23.5238 N   0  0  0  0  0  0  0  0  0  0  0  0
   10.8490  -16.5470   24.8095 C   0  0  0  0  0  0  0  0  0  0  0  0
   10.2991  -16.0239   25.9244 O   0  0  0  0  0  0  0  0  0  0  0  0
   11.5452  -17.6263   25.0141 O   0  0  0  0  0  0  0  0  0  0  0  0
  2  1  1  6
  2  4  1  0
  3  2  1  0
  4  6  1  0
  4  5  1  6
  6  7  2  0
  8  6  1  0
  8  9  1  0
  9 10  1  1
 10 11  1  0
 11 12  1  0
 12 13  1  0
 13 14  1  0
 15  9  1  0
 15 25  1  0
 16 15  2  0
 17 18  1  0
 18 20  1  0
 19 18  2  0
 21 20  1  0
 21 22  1  0
 22 23  1  0
 24 25  1  0
 24 23  1  1
 26 24  1  0
 27 26  1  0
 28 26  2  0
M  END
$$$$
