TKR.pdb
     RDKit          3D

 28 27  0  0  1  0  0  0  0  0999 V2000
    4.8570  -19.1865   20.4991 C   0  0  0  0  0  0  0  0  0  0  0  0
    4.5969  -20.5622   21.0421 C   0  0  1  0  0  0  0  0  0  0  0  0
    5.8109  -21.2448   21.1011 O   0  0  0  0  0  0  0  0  0  0  0  0
    3.9981  -20.5468   22.4249 C   0  0  2  0  0  0  0  0  0  0  0  0
    2.6886  -19.9329   22.3084 N   0  0  0  0  0  0  0  0  0  0  0  0
    4.8215  -19.7872   23.3898 C   0  0  0  0  0  0  0  0  0  0  0  0
    4.7435  -18.5416   23.5322 O   0  0  0  0  0  0  0  0  0  0  0  0
    5.7609  -20.4631   24.2171 N   0  0  0  0  0  0  0  0  0  0  0  0
    6.5983  -19.6931   25.1659 C   0  0  1  0  0  0  0  0  0  0  0  0
    7.2120  -20.6379   26.1614 C   0  0  0  0  0  0  0  0  0  0  0  0
    8.0003  -19.8785   27.1856 C   0  0  0  0  0  0  0  0  0  0  0  0
    8.5429  -20.8223   28.2535 C   0  0  0  0  0  0  0  0  0  0  0  0
    9.1556  -20.0040   29.3428 C   0  0  0  0  0  0  0  0  0  0  0  0
    9.6177  -20.8023   30.4540 N   0  0  0  0  0  0  0  0  0  0  0  0
    7.6518  -18.9685   24.4000 C   0  0  0  0  0  0  0  0  0  0  0  0
    8.1799  -19.4728   23.3794 O   0  0  0  0  0  0  0  0  0  0  0  0
    7.1505  -11.9456   19.8799 N   0  0  0  0  0  0  0  0  0  0  0  0
    8.1236  -12.8368   19.3079 C   0  0  0  0  0  0  0  0  0  0  0  0
    8.4555  -12.6530   18.0800 N   0  0  0  0  0  0  0  0  0  0  0  0
    8.6637  -13.8559   20.0994 N   0  0  0  0  0  0  0  0  0  0  0  0
    8.0643  -14.1000   21.4549 C   0  0  0  0  0  0  0  0  0  0  0  0
    8.7436  -15.2446   22.0772 C   0  0  0  0  0  0  0  0  0  0  0  0
    8.3825  -15.7820   23.3844 C   0  0  0  0  0  0  0  0  0  0  0  0
    9.0669  -16.9823   23.8993 C   0  0  2  0  0  0  0  0  0  0  0  0
    8.0882  -17.6930   24.7981 N   0  0  0  0  0  0  0  0  0  0  0  0
   10.2212  -16.7543   24.8125 C   0  0  0  0  0  0  0  0  0  0  0  0
   11.5227  -16.5412   24.5300 O   0  0  0  0  0  0  0  0  0  0  0  0
    9.9458  -16.7635   26.0835 O   0  0  0  0  0  0  0  0  0  0  0  0
  2  1  1  1
  2  4  1  0
  3  2  1  0
  4  6  1  0
  4  5  1  6
  6  7  2  0
  8  6  1  0
  8  9  1  0
  9 10  1  1
 10 11  1  0
 11 12  1  0
 12 13  1  0
 13 14  1  0
 15  9  1  0
 15 25  1  0
 16 15  2  0
 17 18  1  0
 18 20  1  0
 19 18  2  0
 21 20  1  0
 21 22  1  0
 22 23  1  0
 24 25  1  0
 24 23  1  1
 26 24  1  0
 27 26  1  0
 28 26  2  0
M  END
$$$$
