TKR.pdb
     RDKit          3D

 28 27  0  0  1  0  0  0  0  0999 V2000
    7.0989  -15.0940   16.6345 C   0  0  0  0  0  0  0  0  0  0  0  0
    7.7295  -15.1073   17.9974 C   0  0  1  0  0  0  0  0  0  0  0  0
    9.0287  -15.5968   17.8723 O   0  0  0  0  0  0  0  0  0  0  0  0
    7.8005  -13.7403   18.6276 C   0  0  2  0  0  0  0  0  0  0  0  0
    8.5656  -12.9009   17.7245 N   0  0  0  0  0  0  0  0  0  0  0  0
    8.4474  -13.7627   19.9568 C   0  0  0  0  0  0  0  0  0  0  0  0
    9.6910  -13.6919   20.1196 O   0  0  0  0  0  0  0  0  0  0  0  0
    7.6579  -13.8687   21.1354 N   0  0  0  0  0  0  0  0  0  0  0  0
    8.2976  -13.7512   22.4663 C   0  0  1  0  0  0  0  0  0  0  0  0
    7.2926  -13.2232   23.4521 C   0  0  0  0  0  0  0  0  0  0  0  0
    7.9295  -13.0300   24.7952 C   0  0  0  0  0  0  0  0  0  0  0  0
    6.9066  -12.5231   25.8063 C   0  0  0  0  0  0  0  0  0  0  0  0
    7.6198  -12.1894   27.0758 C   0  0  0  0  0  0  0  0  0  0  0  0
    6.7453  -11.6374   28.0839 N   0  0  0  0  0  0  0  0  0  0  0  0
    8.7962  -15.0931   22.8814 C   0  0  0  0  0  0  0  0  0  0  0  0
    8.1262  -16.1326   22.6683 O   0  0  0  0  0  0  0  0  0  0  0  0
   15.4048  -14.3937   20.8296 N   0  0  0  0  0  0  0  0  0  0  0  0
   14.4390  -14.5641   19.7777 C   0  0  0  0  0  0  0  0  0  0  0  0
   14.5113  -13.7764   18.7648 N   0  0  0  0  0  0  0  0  0  0  0  0
   13.4711  -15.5669   19.8963 N   0  0  0  0  0  0  0  0  0  0  0  0
   13.4909  -16.4363   21.1209 C   0  0  0  0  0  0  0  0  0  0  0  0
   12.1631  -16.4045   21.7495 C   0  0  0  0  0  0  0  0  0  0  0  0
   11.9386  -16.6487   23.1700 C   0  0  0  0  0  0  0  0  0  0  0  0
   10.5662  -16.6359   23.7091 C   0  0  2  0  0  0  0  0  0  0  0  0
   10.0368  -15.2368   23.5263 N   0  0  0  0  0  0  0  0  0  0  0  0
   10.4224  -16.8350   25.1781 C   0  0  0  0  0  0  0  0  0  0  0  0
   10.5282  -17.9588   25.9162 O   0  0  0  0  0  0  0  0  0  0  0  0
   10.1484  -15.7674   25.8683 O   0  0  0  0  0  0  0  0  0  0  0  0
  2  1  1  6
  2  4  1  0
  3  2  1  0
  4  6  1  0
  4  5  1  6
  6  7  2  0
  8  6  1  0
  8  9  1  0
  9 10  1  1
 10 11  1  0
 11 12  1  0
 12 13  1  0
 13 14  1  0
 15  9  1  0
 15 25  1  0
 16 15  2  0
 17 18  1  0
 18 20  1  0
 19 18  2  0
 21 20  1  0
 21 22  1  0
 22 23  1  0
 24 25  1  0
 24 23  1  1
 26 24  1  0
 27 26  1  0
 28 26  2  0
M  END
$$$$
