TKR.pdb
     RDKit          3D

 28 27  0  0  1  0  0  0  0  0999 V2000
    6.9430  -14.2126   16.4857 C   0  0  0  0  0  0  0  0  0  0  0  0
    6.9679  -13.0763   17.4671 C   0  0  1  0  0  0  0  0  0  0  0  0
    5.9436  -13.2753   18.3914 O   0  0  0  0  0  0  0  0  0  0  0  0
    8.2690  -12.9767   18.2210 C   0  0  2  0  0  0  0  0  0  0  0  0
    9.3116  -12.7691   17.2334 N   0  0  0  0  0  0  0  0  0  0  0  0
    8.5617  -14.1937   19.0078 C   0  0  0  0  0  0  0  0  0  0  0  0
    7.8096  -14.6243   19.9171 O   0  0  0  0  0  0  0  0  0  0  0  0
    9.7438  -14.9433   18.7536 N   0  0  0  0  0  0  0  0  0  0  0  0
    9.9366  -16.2612   19.4018 C   0  0  1  0  0  0  0  0  0  0  0  0
   10.9497  -17.0516   18.6212 C   0  0  0  0  0  0  0  0  0  0  0  0
   10.2895  -17.7657   17.4805 C   0  0  0  0  0  0  0  0  0  0  0  0
   11.2934  -18.6486   16.7468 C   0  0  0  0  0  0  0  0  0  0  0  0
   10.5812  -19.3606   15.6434 C   0  0  0  0  0  0  0  0  0  0  0  0
   11.3656  -19.4512   14.4342 N   0  0  0  0  0  0  0  0  0  0  0  0
   10.3946  -16.0462   20.8038 C   0  0  0  0  0  0  0  0  0  0  0  0
   11.3935  -15.3317   21.0616 O   0  0  0  0  0  0  0  0  0  0  0  0
    7.0038  -19.1821   26.2279 N   0  0  0  0  0  0  0  0  0  0  0  0
    8.0493  -19.1526   27.2149 C   0  0  0  0  0  0  0  0  0  0  0  0
    8.3144  -20.2442   27.8394 N   0  0  0  0  0  0  0  0  0  0  0  0
    8.7281  -17.9532   27.4541 N   0  0  0  0  0  0  0  0  0  0  0  0
    8.3388  -16.7418   26.6559 C   0  0  0  0  0  0  0  0  0  0  0  0
    9.3741  -16.4839   25.6456 C   0  0  0  0  0  0  0  0  0  0  0  0
    9.1435  -16.5959   24.2095 C   0  0  0  0  0  0  0  0  0  0  0  0
   10.2563  -16.3739   23.2679 C   0  0  2  0  0  0  0  0  0  0  0  0
    9.7193  -16.6386   21.8849 N   0  0  0  0  0  0  0  0  0  0  0  0
   11.3994  -17.3253   23.3466 C   0  0  0  0  0  0  0  0  0  0  0  0
   11.5909  -18.5058   22.7230 O   0  0  0  0  0  0  0  0  0  0  0  0
   12.3696  -16.9776   24.1398 O   0  0  0  0  0  0  0  0  0  0  0  0
  2  1  1  6
  2  4  1  0
  3  2  1  0
  4  6  1  0
  4  5  1  6
  6  7  2  0
  8  6  1  0
  8  9  1  0
  9 10  1  6
 10 11  1  0
 11 12  1  0
 12 13  1  0
 13 14  1  0
 15  9  1  0
 15 25  1  0
 16 15  2  0
 17 18  1  0
 18 20  1  0
 19 18  2  0
 21 20  1  0
 21 22  1  0
 22 23  1  0
 24 25  1  0
 24 23  1  1
 26 24  1  0
 27 26  1  0
 28 26  2  0
M  END
$$$$
