TKR.pdb
     RDKit          3D

 28 27  0  0  1  0  0  0  0  0999 V2000
    8.3001  -19.4752   20.0950 C   0  0  0  0  0  0  0  0  0  0  0  0
    8.7010  -18.8515   18.7892 C   0  0  1  0  0  0  0  0  0  0  0  0
    8.2497  -19.6723   17.7568 O   0  0  0  0  0  0  0  0  0  0  0  0
    8.1158  -17.4775   18.5877 C   0  0  2  0  0  0  0  0  0  0  0  0
    8.4077  -17.0934   17.2193 N   0  0  0  0  0  0  0  0  0  0  0  0
    8.6832  -16.4787   19.5185 C   0  0  0  0  0  0  0  0  0  0  0  0
    9.8041  -15.9375   19.3495 O   0  0  0  0  0  0  0  0  0  0  0  0
    7.9552  -16.0832   20.6750 N   0  0  0  0  0  0  0  0  0  0  0  0
    8.5683  -15.1539   21.6520 C   0  0  1  0  0  0  0  0  0  0  0  0
    7.4867  -14.5475   22.5022 C   0  0  0  0  0  0  0  0  0  0  0  0
    8.0850  -13.6881   23.5748 C   0  0  0  0  0  0  0  0  0  0  0  0
    7.0016  -13.1727   24.5163 C   0  0  0  0  0  0  0  0  0  0  0  0
    7.6497  -12.3431   25.5762 C   0  0  0  0  0  0  0  0  0  0  0  0
    6.7166  -11.8777   26.5753 N   0  0  0  0  0  0  0  0  0  0  0  0
    9.5430  -15.9093   22.4893 C   0  0  0  0  0  0  0  0  0  0  0  0
    9.2912  -17.0689   22.8976 O   0  0  0  0  0  0  0  0  0  0  0  0
   11.7183  -15.9738   30.1759 N   0  0  0  0  0  0  0  0  0  0  0  0
   12.1365  -17.2715   29.7185 C   0  0  0  0  0  0  0  0  0  0  0  0
   12.7408  -18.0360   30.5565 N   0  0  0  0  0  0  0  0  0  0  0  0
   11.8732  -17.6465   28.3968 N   0  0  0  0  0  0  0  0  0  0  0  0
   11.2993  -16.6182   27.4644 C   0  0  0  0  0  0  0  0  0  0  0  0
   11.2060  -17.1963   26.1168 C   0  0  0  0  0  0  0  0  0  0  0  0
   10.6914  -16.4683   24.9621 C   0  0  0  0  0  0  0  0  0  0  0  0
   11.6057  -16.0783   23.8730 C   0  0  2  0  0  0  0  0  0  0  0  0
   10.7791  -15.3447   22.8486 N   0  0  0  0  0  0  0  0  0  0  0  0
   12.1950  -17.1828   23.0663 C   0  0  0  0  0  0  0  0  0  0  0  0
   13.4699  -17.6159   22.9879 O   0  0  0  0  0  0  0  0  0  0  0  0
   11.3619  -17.8378   22.3124 O   0  0  0  0  0  0  0  0  0  0  0  0
  2  1  1  1
  2  4  1  0
  3  2  1  0
  4  6  1  0
  4  5  1  6
  6  7  2  0
  8  6  1  0
  8  9  1  0
  9 10  1  1
 10 11  1  0
 11 12  1  0
 12 13  1  0
 13 14  1  0
 15  9  1  0
 15 25  1  0
 16 15  2  0
 17 18  1  0
 18 20  1  0
 19 18  2  0
 21 20  1  0
 21 22  1  0
 22 23  1  0
 24 25  1  0
 24 23  1  1
 26 24  1  0
 27 26  1  0
 28 26  2  0
M  END
$$$$
