TKR.pdb
     RDKit          3D

 28 27  0  0  1  0  0  0  0  0999 V2000
   14.7575  -19.9521   17.5504 C   0  0  0  0  0  0  0  0  0  0  0  0
   13.9341  -19.3122   16.4699 C   0  0  1  0  0  0  0  0  0  0  0  0
   14.6540  -19.3744   15.2779 O   0  0  0  0  0  0  0  0  0  0  0  0
   12.6087  -19.9965   16.2553 C   0  0  2  0  0  0  0  0  0  0  0  0
   12.0168  -19.4030   15.0708 N   0  0  0  0  0  0  0  0  0  0  0  0
   11.6945  -19.8329   17.4056 C   0  0  0  0  0  0  0  0  0  0  0  0
   11.1105  -18.7536   17.6742 O   0  0  0  0  0  0  0  0  0  0  0  0
   11.4362  -20.9280   18.2761 N   0  0  0  0  0  0  0  0  0  0  0  0
   10.6251  -20.7247   19.4988 C   0  0  1  0  0  0  0  0  0  0  0  0
   10.2117  -22.0631   20.0450 C   0  0  0  0  0  0  0  0  0  0  0  0
    9.0147  -22.5818   19.3067 C   0  0  0  0  0  0  0  0  0  0  0  0
    8.5530  -23.9095   19.8983 C   0  0  0  0  0  0  0  0  0  0  0  0
    7.3799  -24.3966   19.1121 C   0  0  0  0  0  0  0  0  0  0  0  0
    6.8449  -25.6411   19.6127 N   0  0  0  0  0  0  0  0  0  0  0  0
   11.4372  -19.9707   20.4957 C   0  0  0  0  0  0  0  0  0  0  0  0
   12.6914  -20.0089   20.4785 O   0  0  0  0  0  0  0  0  0  0  0  0
    9.9199  -17.1596   27.3957 N   0  0  0  0  0  0  0  0  0  0  0  0
   10.8930  -16.1084   27.5226 C   0  0  0  0  0  0  0  0  0  0  0  0
   11.2883  -15.7977   28.7054 N   0  0  0  0  0  0  0  0  0  0  0  0
   11.3651  -15.4729   26.3694 N   0  0  0  0  0  0  0  0  0  0  0  0
   10.6795  -15.7614   25.0645 C   0  0  0  0  0  0  0  0  0  0  0  0
   11.3605  -16.8851   24.4067 C   0  0  0  0  0  0  0  0  0  0  0  0
   10.9343  -17.4494   23.1308 C   0  0  0  0  0  0  0  0  0  0  0  0
   11.7151  -18.5362   22.5114 C   0  0  2  0  0  0  0  0  0  0  0  0
   10.8214  -19.1902   21.4893 N   0  0  0  0  0  0  0  0  0  0  0  0
   12.0780  -19.6835   23.3890 C   0  0  0  0  0  0  0  0  0  0  0  0
   11.3562  -20.7654   23.7463 O   0  0  0  0  0  0  0  0  0  0  0  0
   13.2733  -19.6472   23.9002 O   0  0  0  0  0  0  0  0  0  0  0  0
  2  1  1  1
  2  4  1  0
  3  2  1  0
  4  6  1  0
  4  5  1  6
  6  7  2  0
  8  6  1  0
  8  9  1  0
  9 10  1  1
 10 11  1  0
 11 12  1  0
 12 13  1  0
 13 14  1  0
 15  9  1  0
 15 25  1  0
 16 15  2  0
 17 18  1  0
 18 20  1  0
 19 18  2  0
 21 20  1  0
 21 22  1  0
 22 23  1  0
 24 25  1  0
 24 23  1  1
 26 24  1  0
 27 26  1  0
 28 26  2  0
M  END
$$$$
