TKR.pdb
     RDKit          3D

 28 27  0  0  1  0  0  0  0  0999 V2000
    9.0288  -19.0333   16.7061 C   0  0  0  0  0  0  0  0  0  0  0  0
    9.5490  -18.2367   17.8679 C   0  0  1  0  0  0  0  0  0  0  0  0
   10.9375  -18.3566   17.8926 O   0  0  0  0  0  0  0  0  0  0  0  0
    9.2048  -16.7721   17.7799 C   0  0  2  0  0  0  0  0  0  0  0  0
   10.1402  -16.1767   16.8440 N   0  0  0  0  0  0  0  0  0  0  0  0
    9.3028  -16.0882   19.0870 C   0  0  0  0  0  0  0  0  0  0  0  0
   10.3805  -15.9615   19.7197 O   0  0  0  0  0  0  0  0  0  0  0  0
    8.1420  -15.5319   19.6926 N   0  0  0  0  0  0  0  0  0  0  0  0
    8.2424  -14.8729   21.0155 C   0  0  1  0  0  0  0  0  0  0  0  0
    6.9486  -14.1684   21.3154 C   0  0  0  0  0  0  0  0  0  0  0  0
    7.1796  -12.6957   21.4729 C   0  0  0  0  0  0  0  0  0  0  0  0
    6.7266  -12.2257   22.8512 C   0  0  0  0  0  0  0  0  0  0  0  0
    6.9256  -10.7477   22.9374 C   0  0  0  0  0  0  0  0  0  0  0  0
    6.5652  -10.2058   24.2266 N   0  0  0  0  0  0  0  0  0  0  0  0
    8.5372  -15.9071   22.0476 C   0  0  0  0  0  0  0  0  0  0  0  0
    8.1250  -17.0861   21.9263 O   0  0  0  0  0  0  0  0  0  0  0  0
   11.9052  -18.6280   30.4165 N   0  0  0  0  0  0  0  0  0  0  0  0
   11.9450  -17.5753   29.4375 C   0  0  0  0  0  0  0  0  0  0  0  0
   11.6816  -16.3807   29.8315 N   0  0  0  0  0  0  0  0  0  0  0  0
   12.2642  -17.8880   28.1120 N   0  0  0  0  0  0  0  0  0  0  0  0
   12.1435  -16.8080   27.0753 C   0  0  0  0  0  0  0  0  0  0  0  0
   11.0143  -17.1220   26.1891 C   0  0  0  0  0  0  0  0  0  0  0  0
   10.6042  -16.2735   25.0757 C   0  0  0  0  0  0  0  0  0  0  0  0
    9.4718  -16.6783   24.2224 C   0  0  2  0  0  0  0  0  0  0  0  0
    9.2890  -15.5930   23.1930 N   0  0  0  0  0  0  0  0  0  0  0  0
    8.1307  -16.7255   24.8684 C   0  0  0  0  0  0  0  0  0  0  0  0
    7.5423  -17.7112   25.5764 O   0  0  0  0  0  0  0  0  0  0  0  0
    7.4011  -15.6574   24.7332 O   0  0  0  0  0  0  0  0  0  0  0  0
  2  1  1  6
  2  4  1  0
  3  2  1  0
  4  6  1  0
  4  5  1  6
  6  7  2  0
  8  6  1  0
  8  9  1  0
  9 10  1  1
 10 11  1  0
 11 12  1  0
 12 13  1  0
 13 14  1  0
 15  9  1  0
 15 25  1  0
 16 15  2  0
 17 18  1  0
 18 20  1  0
 19 18  2  0
 21 20  1  0
 21 22  1  0
 22 23  1  0
 24 25  1  0
 24 23  1  1
 26 24  1  0
 27 26  1  0
 28 26  2  0
M  END
$$$$
