TKR.pdb
     RDKit          3D

 28 27  0  0  1  0  0  0  0  0999 V2000
    6.8900  -14.7044   17.2899 C   0  0  0  0  0  0  0  0  0  0  0  0
    7.4150  -14.7738   18.6951 C   0  0  1  0  0  0  0  0  0  0  0  0
    8.6824  -15.3531   18.6594 O   0  0  0  0  0  0  0  0  0  0  0  0
    7.5346  -13.4205   19.3474 C   0  0  2  0  0  0  0  0  0  0  0  0
    8.4152  -12.6274   18.5102 N   0  0  0  0  0  0  0  0  0  0  0  0
    8.0852  -13.4992   20.7172 C   0  0  0  0  0  0  0  0  0  0  0  0
    9.3127  -13.6059   20.9618 O   0  0  0  0  0  0  0  0  0  0  0  0
    7.2154  -13.4551   21.8420 N   0  0  0  0  0  0  0  0  0  0  0  0
    7.7762  -13.5037   23.2122 C   0  0  1  0  0  0  0  0  0  0  0  0
    6.7662  -12.9503   24.1787 C   0  0  0  0  0  0  0  0  0  0  0  0
    7.3293  -12.9287   25.5678 C   0  0  0  0  0  0  0  0  0  0  0  0
    6.3184  -12.3424   26.5477 C   0  0  0  0  0  0  0  0  0  0  0  0
    6.9447  -12.2945   27.9031 C   0  0  0  0  0  0  0  0  0  0  0  0
    6.0850  -11.6991   28.8991 N   0  0  0  0  0  0  0  0  0  0  0  0
    8.1129  -14.9170   23.5450 C   0  0  0  0  0  0  0  0  0  0  0  0
    7.3088  -15.8517   23.3115 O   0  0  0  0  0  0  0  0  0  0  0  0
   13.0251  -21.1536   23.3499 N   0  0  0  0  0  0  0  0  0  0  0  0
   13.9049  -20.0181   23.4182 C   0  0  0  0  0  0  0  0  0  0  0  0
   15.0407  -20.1744   23.9989 N   0  0  0  0  0  0  0  0  0  0  0  0
   13.4958  -18.8035   22.8578 N   0  0  0  0  0  0  0  0  0  0  0  0
   12.1924  -18.7649   22.1124 C   0  0  0  0  0  0  0  0  0  0  0  0
   11.1216  -18.3851   23.0442 C   0  0  0  0  0  0  0  0  0  0  0  0
   10.7849  -17.0022   23.3636 C   0  0  0  0  0  0  0  0  0  0  0  0
    9.6712  -16.7119   24.2855 C   0  0  2  0  0  0  0  0  0  0  0  0
    9.3461  -15.2484   24.1325 N   0  0  0  0  0  0  0  0  0  0  0  0
    9.9638  -16.8165   25.7420 C   0  0  0  0  0  0  0  0  0  0  0  0
   10.0701  -17.9059   26.5300 O   0  0  0  0  0  0  0  0  0  0  0  0
   10.1431  -15.6886   26.3642 O   0  0  0  0  0  0  0  0  0  0  0  0
  2  1  1  6
  2  4  1  0
  3  2  1  0
  4  6  1  0
  4  5  1  6
  6  7  2  0
  8  6  1  0
  8  9  1  0
  9 10  1  1
 10 11  1  0
 11 12  1  0
 12 13  1  0
 13 14  1  0
 15  9  1  0
 15 25  1  0
 16 15  2  0
 17 18  1  0
 18 20  1  0
 19 18  2  0
 21 20  1  0
 21 22  1  0
 22 23  1  0
 24 25  1  0
 24 23  1  6
 26 24  1  0
 27 26  1  0
 28 26  2  0
M  END
$$$$
