TKR.pdb
     RDKit          3D

 28 27  0  0  1  0  0  0  0  0999 V2000
    8.0369  -21.1635   18.1029 C   0  0  0  0  0  0  0  0  0  0  0  0
    8.7882  -20.0913   18.8385 C   0  0  1  0  0  0  0  0  0  0  0  0
   10.1194  -20.4893   18.9500 O   0  0  0  0  0  0  0  0  0  0  0  0
    8.7529  -18.7586   18.1358 C   0  0  2  0  0  0  0  0  0  0  0  0
    9.4304  -18.9361   16.8650 N   0  0  0  0  0  0  0  0  0  0  0  0
    9.4195  -17.6916   18.9123 C   0  0  0  0  0  0  0  0  0  0  0  0
   10.6423  -17.4238   18.8072 O   0  0  0  0  0  0  0  0  0  0  0  0
    8.6746  -16.9058   19.8350 N   0  0  0  0  0  0  0  0  0  0  0  0
    9.3578  -15.8688   20.6425 C   0  0  1  0  0  0  0  0  0  0  0  0
    8.3970  -14.7458   20.9186 C   0  0  0  0  0  0  0  0  0  0  0  0
    8.0672  -14.0166   19.6511 C   0  0  0  0  0  0  0  0  0  0  0  0
    6.9589  -12.9969   19.8914 C   0  0  0  0  0  0  0  0  0  0  0  0
    6.5443  -12.4279   18.5738 C   0  0  0  0  0  0  0  0  0  0  0  0
    5.4153  -11.5333   18.6777 N   0  0  0  0  0  0  0  0  0  0  0  0
    9.8358  -16.4848   21.9128 C   0  0  0  0  0  0  0  0  0  0  0  0
    9.1473  -17.3375   22.5240 O   0  0  0  0  0  0  0  0  0  0  0  0
   12.4287  -22.4968   25.4161 N   0  0  0  0  0  0  0  0  0  0  0  0
   13.6380  -22.4072   24.6431 C   0  0  0  0  0  0  0  0  0  0  0  0
   14.5474  -23.2917   24.8490 N   0  0  0  0  0  0  0  0  0  0  0  0
   13.7761  -21.3745   23.7098 N   0  0  0  0  0  0  0  0  0  0  0  0
   12.6583  -20.3803   23.5753 C   0  0  0  0  0  0  0  0  0  0  0  0
   13.0557  -19.3438   22.6126 C   0  0  0  0  0  0  0  0  0  0  0  0
   12.1930  -18.2341   22.2221 C   0  0  0  0  0  0  0  0  0  0  0  0
   11.8383  -17.1976   23.2091 C   0  0  2  0  0  0  0  0  0  0  0  0
   11.0773  -16.1289   22.4677 N   0  0  0  0  0  0  0  0  0  0  0  0
   12.9648  -16.4248   23.8021 C   0  0  0  0  0  0  0  0  0  0  0  0
   13.5903  -15.3180   23.3516 O   0  0  0  0  0  0  0  0  0  0  0  0
   13.4302  -16.8793   24.9282 O   0  0  0  0  0  0  0  0  0  0  0  0
  2  1  1  6
  2  4  1  0
  3  2  1  0
  4  6  1  0
  4  5  1  6
  6  7  2  0
  8  6  1  0
  8  9  1  0
  9 10  1  1
 10 11  1  0
 11 12  1  0
 12 13  1  0
 13 14  1  0
 15  9  1  0
 15 25  1  0
 16 15  2  0
 17 18  1  0
 18 20  1  0
 19 18  2  0
 21 20  1  0
 21 22  1  0
 22 23  1  0
 24 25  1  0
 24 23  1  6
 26 24  1  0
 27 26  1  0
 28 26  2  0
M  END
$$$$
