TKR.pdb
     RDKit          3D

 28 27  0  0  1  0  0  0  0  0999 V2000
    6.3891  -21.5325   20.6108 C   0  0  0  0  0  0  0  0  0  0  0  0
    5.2947  -20.5084   20.7034 C   0  0  1  0  0  0  0  0  0  0  0  0
    4.9723  -20.0961   19.4115 O   0  0  0  0  0  0  0  0  0  0  0  0
    4.0434  -21.0396   21.3537 C   0  0  2  0  0  0  0  0  0  0  0  0
    3.0203  -20.0243   21.1872 N   0  0  0  0  0  0  0  0  0  0  0  0
    4.2314  -21.3278   22.7916 C   0  0  0  0  0  0  0  0  0  0  0  0
    4.4540  -20.4378   23.6497 O   0  0  0  0  0  0  0  0  0  0  0  0
    4.1642  -22.6665   23.2681 N   0  0  0  0  0  0  0  0  0  0  0  0
    4.3240  -22.9449   24.7142 C   0  0  1  0  0  0  0  0  0  0  0  0
    3.5107  -24.1565   25.0763 C   0  0  0  0  0  0  0  0  0  0  0  0
    2.0597  -23.7975   25.1892 C   0  0  0  0  0  0  0  0  0  0  0  0
    1.2176  -25.0420   25.4498 C   0  0  0  0  0  0  0  0  0  0  0  0
   -0.2242  -24.6516   25.4301 C   0  0  0  0  0  0  0  0  0  0  0  0
   -1.1121  -25.7667   25.6622 N   0  0  0  0  0  0  0  0  0  0  0  0
    5.7688  -23.1671   25.0053 C   0  0  0  0  0  0  0  0  0  0  0  0
    6.5314  -23.6935   24.1592 O   0  0  0  0  0  0  0  0  0  0  0  0
   12.1224  -18.7604   29.2610 N   0  0  0  0  0  0  0  0  0  0  0  0
   12.7417  -19.8539   28.5617 C   0  0  0  0  0  0  0  0  0  0  0  0
   14.0257  -19.8844   28.5147 N   0  0  0  0  0  0  0  0  0  0  0  0
   11.9335  -20.8287   27.9675 N   0  0  0  0  0  0  0  0  0  0  0  0
   10.4595  -20.5623   27.8558 C   0  0  0  0  0  0  0  0  0  0  0  0
    9.8017  -21.7502   27.2945 C   0  0  0  0  0  0  0  0  0  0  0  0
    8.3865  -21.7970   26.9439 C   0  0  0  0  0  0  0  0  0  0  0  0
    7.7939  -23.0532   26.4490 C   0  0  2  0  0  0  0  0  0  0  0  0
    6.3243  -22.7923   26.2409 N   0  0  0  0  0  0  0  0  0  0  0  0
    7.7761  -24.2031   27.3954 C   0  0  0  0  0  0  0  0  0  0  0  0
    8.7425  -25.0945   27.6965 O   0  0  0  0  0  0  0  0  0  0  0  0
    6.6594  -24.3906   28.0350 O   0  0  0  0  0  0  0  0  0  0  0  0
  2  1  1  6
  2  4  1  0
  3  2  1  0
  4  6  1  0
  4  5  1  1
  6  7  2  0
  8  6  1  0
  8  9  1  0
  9 10  1  6
 10 11  1  0
 11 12  1  0
 12 13  1  0
 13 14  1  0
 15  9  1  0
 15 25  1  0
 16 15  2  0
 17 18  1  0
 18 20  1  0
 19 18  2  0
 21 20  1  0
 21 22  1  0
 22 23  1  0
 24 25  1  0
 24 23  1  1
 26 24  1  0
 27 26  1  0
 28 26  2  0
M  END
$$$$
