CRA.pdb
     RDKit          3D

 23 22  0  0  1  0  0  0  0  0999 V2000
   18.7070  -25.1514   -6.2021 N   0  0  0  0  0  0  0  0  0  0  0  0
   18.3754  -25.8898   -7.4012 C   0  0  1  0  0  0  0  0  0  0  0  0
   16.8851  -26.1742   -7.3795 C   0  0  0  0  0  0  0  0  0  0  0  0
   16.4998  -27.4731   -6.1547 S   0  0  0  0  0  0  0  0  0  0  0  0
   18.7695  -25.1752   -8.6406 C   0  0  0  0  0  0  0  0  0  0  0  0
   18.7375  -23.9196   -8.6449 O   0  0  0  0  0  0  0  0  0  0  0  0
   24.5137  -25.0802  -13.8256 N   0  0  0  0  0  0  0  0  0  0  0  0
   23.7440  -25.2731  -14.9986 C   0  0  0  0  0  0  0  0  0  0  0  0
   24.1279  -24.8564  -16.1664 N   0  0  0  0  0  0  0  0  0  0  0  0
   22.4701  -25.9488  -14.9909 N   0  0  0  0  0  0  0  0  0  0  0  0
   21.8983  -26.4065  -13.7643 C   0  0  0  0  0  0  0  0  0  0  0  0
   21.0178  -25.3604  -13.0907 C   0  0  0  0  0  0  0  0  0  0  0  0
   20.4670  -26.0067  -11.8505 C   0  0  0  0  0  0  0  0  0  0  0  0
   19.6107  -25.1382  -10.9928 C   0  0  2  0  0  0  0  0  0  0  0  0
   19.1737  -25.8693   -9.7976 N   0  0  0  0  0  0  0  0  0  0  0  0
   18.4145  -24.6940  -11.7430 C   0  0  0  0  0  0  0  0  0  0  0  0
   17.4523  -25.4531  -11.9799 O   0  0  0  0  0  0  0  0  0  0  0  0
   23.5346  -25.1364  -16.9772 C   0  0  0  0  0  0  0  0  0  0  0  0
   16.4766  -21.7379  -12.2922 C   0  0  1  0  0  0  0  0  0  0  0  0
   17.2239  -22.8510  -12.9469 N   0  0  0  0  0  0  0  0  0  0  0  0
   18.3451  -23.3444  -12.2221 C   0  0  0  0  0  0  0  0  0  0  0  0
   17.4877  -22.5642  -14.3848 O   0  0  0  0  0  0  0  0  0  0  0  0
   16.4356  -22.3365  -15.2449 O   0  0  0  0  0  0  0  0  0  0  0  0
  2  1  1  1
  2  3  1  0
  4  3  1  0
  5  2  1  0
  5  6  2  0
  7  8  1  0
  8  9  2  0
  8 10  1  0
 10 11  1  0
 11 12  1  0
 12 13  1  0
 14 13  1  6
 14 15  1  0
 15  5  1  0
 16 14  1  0
 16 20  1  0
 17 16  2  0
 19 18  1  1
 19 21  1  0
 20 19  1  0
 21 23  2  0
 21 22  1  0
M  END
$$$$
