CRA.pdb
     RDKit          3D

 23 22  0  0  1  0  0  0  0  0999 V2000
   26.1536  -11.2807  -18.1001 N   0  0  0  0  0  0  0  0  0  0  0  0
   25.6640  -10.6415  -16.8981 C   0  0  1  0  0  0  0  0  0  0  0  0
   26.8624  -10.1571  -16.1034 C   0  0  0  0  0  0  0  0  0  0  0  0
   27.7099  -11.5632  -15.3033 S   0  0  0  0  0  0  0  0  0  0  0  0
   24.7222   -9.5309  -17.1836 C   0  0  0  0  0  0  0  0  0  0  0  0
   24.8755   -8.8715  -18.2415 O   0  0  0  0  0  0  0  0  0  0  0  0
   16.8834  -11.6019  -16.3847 N   0  0  0  0  0  0  0  0  0  0  0  0
   17.9227  -12.3881  -16.9391 C   0  0  0  0  0  0  0  0  0  0  0  0
   17.7258  -13.5830  -17.4064 N   0  0  0  0  0  0  0  0  0  0  0  0
   19.2852  -11.9248  -17.0297 N   0  0  0  0  0  0  0  0  0  0  0  0
   19.6270  -10.5938  -16.6388 C   0  0  0  0  0  0  0  0  0  0  0  0
   21.0580  -10.2152  -17.0028 C   0  0  0  0  0  0  0  0  0  0  0  0
   21.2778   -8.8285  -16.4660 C   0  0  0  0  0  0  0  0  0  0  0  0
   22.6323   -8.2505  -16.6991 C   0  0  2  0  0  0  0  0  0  0  0  0
   23.6729   -9.2062  -16.3019 N   0  0  0  0  0  0  0  0  0  0  0  0
   22.8029   -7.0073  -15.9140 C   0  0  0  0  0  0  0  0  0  0  0  0
   22.9841   -7.0146  -14.6789 O   0  0  0  0  0  0  0  0  0  0  0  0
   18.5628  -14.0771  -17.7846 C   0  0  0  0  0  0  0  0  0  0  0  0
   23.2100   -3.3238  -16.7708 C   0  0  1  0  0  0  0  0  0  0  0  0
   22.9686   -4.5101  -15.8987 N   0  0  0  0  0  0  0  0  0  0  0  0
   22.7600   -5.7403  -16.5837 C   0  0  0  0  0  0  0  0  0  0  0  0
   21.9724   -4.2136  -14.8315 O   0  0  0  0  0  0  0  0  0  0  0  0
   20.7984   -4.9320  -14.7680 O   0  0  0  0  0  0  0  0  0  0  0  0
  2  1  1  6
  2  3  1  0
  4  3  1  0
  5  2  1  0
  5  6  2  0
  7  8  1  0
  8  9  2  0
  8 10  1  0
 10 11  1  0
 11 12  1  0
 12 13  1  0
 14 13  1  1
 14 15  1  0
 15  5  1  0
 16 14  1  0
 16 20  1  0
 17 16  2  0
 19 18  1  1
 19 21  1  0
 20 19  1  0
 21 23  2  0
 21 22  1  0
M  END
$$$$
