CRA.pdb
     RDKit          3D

 23 22  0  0  1  0  0  0  0  0999 V2000
   26.9361  -21.1472  -13.6726 N   0  0  0  0  0  0  0  0  0  0  0  0
   25.7325  -20.3449  -13.7011 C   0  0  1  0  0  0  0  0  0  0  0  0
   26.0590  -19.0346  -14.3931 C   0  0  0  0  0  0  0  0  0  0  0  0
   27.1873  -18.0320  -13.3648 S   0  0  0  0  0  0  0  0  0  0  0  0
   24.5993  -21.0366  -14.3639 C   0  0  0  0  0  0  0  0  0  0  0  0
   24.8512  -21.8578  -15.2803 O   0  0  0  0  0  0  0  0  0  0  0  0
   20.9959  -22.5247   -8.9769 N   0  0  0  0  0  0  0  0  0  0  0  0
   20.2007  -21.5989   -9.6954 C   0  0  0  0  0  0  0  0  0  0  0  0
   19.7812  -20.4846   -9.1785 N   0  0  0  0  0  0  0  0  0  0  0  0
   19.7924  -21.8190  -11.0607 N   0  0  0  0  0  0  0  0  0  0  0  0
   20.2160  -22.9870  -11.7660 C   0  0  0  0  0  0  0  0  0  0  0  0
   21.4723  -22.7574  -12.5980 C   0  0  0  0  0  0  0  0  0  0  0  0
   21.0799  -21.8214  -13.7067 C   0  0  0  0  0  0  0  0  0  0  0  0
   22.1595  -21.4752  -14.6751 C   0  0  2  0  0  0  0  0  0  0  0  0
   23.2635  -20.7928  -13.9898 N   0  0  0  0  0  0  0  0  0  0  0  0
   21.6339  -20.5849  -15.7344 C   0  0  0  0  0  0  0  0  0  0  0  0
   21.4509  -19.3635  -15.5531 O   0  0  0  0  0  0  0  0  0  0  0  0
   19.1692  -19.8943   -9.7825 C   0  0  0  0  0  0  0  0  0  0  0  0
   21.0987  -20.8792  -19.4637 C   0  0  1  0  0  0  0  0  0  0  0  0
   20.8577  -20.3251  -18.0996 N   0  0  0  0  0  0  0  0  0  0  0  0
   21.3182  -21.1323  -17.0214 C   0  0  0  0  0  0  0  0  0  0  0  0
   19.4640  -19.8204  -17.9500 O   0  0  0  0  0  0  0  0  0  0  0  0
   19.0332  -18.7551  -18.7102 O   0  0  0  0  0  0  0  0  0  0  0  0
  2  1  1  6
  2  3  1  0
  4  3  1  0
  5  2  1  0
  5  6  2  0
  7  8  1  0
  8  9  2  0
  8 10  1  0
 10 11  1  0
 11 12  1  0
 12 13  1  0
 14 13  1  1
 14 15  1  0
 15  5  1  0
 16 14  1  0
 16 20  1  0
 17 16  2  0
 19 18  1  6
 19 21  1  0
 20 19  1  0
 21 23  2  0
 21 22  1  0
M  END
$$$$
