CRA.pdb
     RDKit          3D

 23 22  0  0  1  0  0  0  0  0999 V2000
   23.6692  -16.8694  -18.4972 N   0  0  0  0  0  0  0  0  0  0  0  0
   22.9095  -16.7827  -17.2690 C   0  0  1  0  0  0  0  0  0  0  0  0
   21.6014  -16.0776  -17.5759 C   0  0  0  0  0  0  0  0  0  0  0  0
   21.8312  -14.2659  -17.5545 S   0  0  0  0  0  0  0  0  0  0  0  0
   22.6735  -18.1093  -16.6473 C   0  0  0  0  0  0  0  0  0  0  0  0
   22.1827  -19.0241  -17.3542 O   0  0  0  0  0  0  0  0  0  0  0  0
   27.0203  -21.1523  -10.0012 N   0  0  0  0  0  0  0  0  0  0  0  0
   27.1203  -21.2330  -11.4115 C   0  0  0  0  0  0  0  0  0  0  0  0
   28.2542  -21.3729  -12.0278 N   0  0  0  0  0  0  0  0  0  0  0  0
   25.9699  -21.1663  -12.2783 N   0  0  0  0  0  0  0  0  0  0  0  0
   24.6489  -21.1884  -11.7347 C   0  0  0  0  0  0  0  0  0  0  0  0
   23.5640  -21.1779  -12.8053 C   0  0  0  0  0  0  0  0  0  0  0  0
   23.7287  -19.8894  -13.5615 C   0  0  0  0  0  0  0  0  0  0  0  0
   22.8183  -19.7011  -14.7272 C   0  0  2  0  0  0  0  0  0  0  0  0
   22.9855  -18.3589  -15.2967 N   0  0  0  0  0  0  0  0  0  0  0  0
   21.4080  -19.8693  -14.3106 C   0  0  0  0  0  0  0  0  0  0  0  0
   20.8032  -19.0133  -13.6325 O   0  0  0  0  0  0  0  0  0  0  0  0
   28.2158  -21.3999  -13.0697 C   0  0  0  0  0  0  0  0  0  0  0  0
   18.3971  -21.5243  -15.4427 C   0  0  1  0  0  0  0  0  0  0  0  0
   19.3449  -21.2861  -14.3153 N   0  0  0  0  0  0  0  0  0  0  0  0
   20.6979  -21.0550  -14.6922 C   0  0  0  0  0  0  0  0  0  0  0  0
   19.1630  -22.2844  -13.2246 O   0  0  0  0  0  0  0  0  0  0  0  0
   17.9481  -22.3881  -12.5829 O   0  0  0  0  0  0  0  0  0  0  0  0
  2  1  1  6
  2  3  1  0
  4  3  1  0
  5  2  1  0
  5  6  2  0
  7  8  1  0
  8  9  2  0
  8 10  1  0
 10 11  1  0
 11 12  1  0
 12 13  1  0
 14 13  1  1
 14 15  1  0
 15  5  1  0
 16 14  1  0
 16 20  1  0
 17 16  2  0
 19 18  1  6
 19 21  1  0
 20 19  1  0
 21 23  2  0
 21 22  1  0
M  END
$$$$
