CRA.pdb
     RDKit          3D

 23 22  0  0  1  0  0  0  0  0999 V2000
   28.3300  -19.2389  -17.6805 N   0  0  0  0  0  0  0  0  0  0  0  0
   27.7948  -18.5711  -16.5139 C   0  0  1  0  0  0  0  0  0  0  0  0
   27.2370  -17.2310  -16.9558 C   0  0  0  0  0  0  0  0  0  0  0  0
   26.7764  -16.2206  -15.5057 S   0  0  0  0  0  0  0  0  0  0  0  0
   26.7654  -19.3789  -15.8142 C   0  0  0  0  0  0  0  0  0  0  0  0
   26.1015  -20.2116  -16.4802 O   0  0  0  0  0  0  0  0  0  0  0  0
   22.1824  -20.0246  -10.2823 N   0  0  0  0  0  0  0  0  0  0  0  0
   22.7035  -20.8281   -9.2390 C   0  0  0  0  0  0  0  0  0  0  0  0
   21.9527  -21.3725   -8.3308 N   0  0  0  0  0  0  0  0  0  0  0  0
   24.1114  -21.1071   -9.1008 N   0  0  0  0  0  0  0  0  0  0  0  0
   25.0562  -20.5437  -10.0123 C   0  0  0  0  0  0  0  0  0  0  0  0
   24.6587  -20.7285  -11.4721 C   0  0  0  0  0  0  0  0  0  0  0  0
   25.7135  -20.0355  -12.2885 C   0  0  0  0  0  0  0  0  0  0  0  0
   25.5039  -20.0496  -13.7646 C   0  0  2  0  0  0  0  0  0  0  0  0
   26.5216  -19.2316  -14.4348 N   0  0  0  0  0  0  0  0  0  0  0  0
   24.1657  -19.5127  -14.0990 C   0  0  0  0  0  0  0  0  0  0  0  0
   23.8119  -18.3558  -13.7911 O   0  0  0  0  0  0  0  0  0  0  0  0
   22.4397  -21.9474   -7.6095 C   0  0  0  0  0  0  0  0  0  0  0  0
   21.4250  -20.4540  -16.4769 C   0  0  1  0  0  0  0  0  0  0  0  0
   21.9511  -19.8684  -15.2094 N   0  0  0  0  0  0  0  0  0  0  0  0
   23.2302  -20.3414  -14.8018 C   0  0  0  0  0  0  0  0  0  0  0  0
   20.9174  -19.8622  -14.1367 O   0  0  0  0  0  0  0  0  0  0  0  0
   19.9896  -18.8451  -14.0816 O   0  0  0  0  0  0  0  0  0  0  0  0
  2  1  1  6
  2  3  1  0
  4  3  1  0
  5  2  1  0
  5  6  2  0
  7  8  1  0
  8  9  2  0
  8 10  1  0
 10 11  1  0
 11 12  1  0
 12 13  1  0
 14 13  1  1
 14 15  1  0
 15  5  1  0
 16 14  1  0
 16 20  1  0
 17 16  2  0
 19 18  1  6
 19 21  1  0
 20 19  1  0
 21 23  2  0
 21 22  1  0
M  END
$$$$
