CRA.pdb
     RDKit          3D

 23 22  0  0  1  0  0  0  0  0999 V2000
   17.7344  -12.6179  -15.2741 N   0  0  0  0  0  0  0  0  0  0  0  0
   18.1711  -11.2982  -14.8730 C   0  0  1  0  0  0  0  0  0  0  0  0
   19.1146  -10.7728  -15.9389 C   0  0  0  0  0  0  0  0  0  0  0  0
   20.7636  -11.5390  -15.7673 S   0  0  0  0  0  0  0  0  0  0  0  0
   17.0396  -10.3651  -14.6475 C   0  0  0  0  0  0  0  0  0  0  0  0
   16.0636  -10.4040  -15.4370 O   0  0  0  0  0  0  0  0  0  0  0  0
   11.5135   -9.5394   -8.5155 N   0  0  0  0  0  0  0  0  0  0  0  0
   11.1980   -8.3872   -9.2762 C   0  0  0  0  0  0  0  0  0  0  0  0
   10.1317   -7.6776   -9.0656 N   0  0  0  0  0  0  0  0  0  0  0  0
   12.0362   -7.9084  -10.3473 N   0  0  0  0  0  0  0  0  0  0  0  0
   13.1978   -8.6400  -10.7429 C   0  0  0  0  0  0  0  0  0  0  0  0
   13.9332   -8.0015  -11.9154 C   0  0  0  0  0  0  0  0  0  0  0  0
   15.1048   -8.8938  -12.2160 C   0  0  0  0  0  0  0  0  0  0  0  0
   15.9254   -8.5092  -13.4000 C   0  0  2  0  0  0  0  0  0  0  0  0
   17.0394   -9.4480  -13.5785 N   0  0  0  0  0  0  0  0  0  0  0  0
   16.4751   -7.1463  -13.2239 C   0  0  0  0  0  0  0  0  0  0  0  0
   17.3055   -6.8687  -12.3341 O   0  0  0  0  0  0  0  0  0  0  0  0
   10.0104   -6.8329   -9.6653 C   0  0  0  0  0  0  0  0  0  0  0  0
   16.6422   -4.0061  -15.2646 C   0  0  1  0  0  0  0  0  0  0  0  0
   16.5300   -4.7621  -13.9832 N   0  0  0  0  0  0  0  0  0  0  0  0
   16.0461   -6.0956  -14.1001 C   0  0  0  0  0  0  0  0  0  0  0  0
   15.8708   -3.9500  -12.9223 O   0  0  0  0  0  0  0  0  0  0  0  0
   16.4660   -2.7910  -12.4741 O   0  0  0  0  0  0  0  0  0  0  0  0
  2  1  1  6
  2  3  1  0
  4  3  1  0
  5  2  1  0
  5  6  2  0
  7  8  1  0
  8  9  2  0
  8 10  1  0
 10 11  1  0
 11 12  1  0
 12 13  1  0
 14 13  1  1
 14 15  1  0
 15  5  1  0
 16 14  1  0
 16 20  1  0
 17 16  2  0
 19 18  1  6
 19 21  1  0
 20 19  1  0
 21 23  2  0
 21 22  1  0
M  END
$$$$
