CRA.pdb
     RDKit          3D

 23 22  0  0  1  0  0  0  0  0999 V2000
   28.5697  -20.4702  -15.9455 N   0  0  0  0  0  0  0  0  0  0  0  0
   27.9191  -19.6122  -14.9793 C   0  0  1  0  0  0  0  0  0  0  0  0
   27.3160  -18.4375  -15.7267 C   0  0  0  0  0  0  0  0  0  0  0  0
   28.6242  -17.2820  -16.2644 S   0  0  0  0  0  0  0  0  0  0  0  0
   26.8931  -20.3260  -14.1794 C   0  0  0  0  0  0  0  0  0  0  0  0
   26.3700  -21.3611  -14.6616 O   0  0  0  0  0  0  0  0  0  0  0  0
   20.6796  -19.8716   -8.9723 N   0  0  0  0  0  0  0  0  0  0  0  0
   21.2866  -21.0126   -8.3933 C   0  0  0  0  0  0  0  0  0  0  0  0
   20.6661  -21.7908   -7.5600 N   0  0  0  0  0  0  0  0  0  0  0  0
   22.6442  -21.4030   -8.6826 N   0  0  0  0  0  0  0  0  0  0  0  0
   23.4078  -20.7012   -9.6651 C   0  0  0  0  0  0  0  0  0  0  0  0
   24.8407  -21.2082   -9.7796 C   0  0  0  0  0  0  0  0  0  0  0  0
   25.5527  -20.2585  -10.7017 C   0  0  0  0  0  0  0  0  0  0  0  0
   25.4462  -20.5656  -12.1568 C   0  0  2  0  0  0  0  0  0  0  0  0
   26.4997  -19.8707  -12.9060 N   0  0  0  0  0  0  0  0  0  0  0  0
   24.1291  -20.1361  -12.6779 C   0  0  0  0  0  0  0  0  0  0  0  0
   23.7629  -18.9427  -12.6714 O   0  0  0  0  0  0  0  0  0  0  0  0
   21.2138  -22.5916   -7.1772 C   0  0  0  0  0  0  0  0  0  0  0  0
   21.7368  -21.2435  -15.1699 C   0  0  1  0  0  0  0  0  0  0  0  0
   21.9700  -20.7669  -13.7755 N   0  0  0  0  0  0  0  0  0  0  0  0
   23.2297  -21.1165  -13.2123 C   0  0  0  0  0  0  0  0  0  0  0  0
   20.7972  -21.0398  -12.8983 O   0  0  0  0  0  0  0  0  0  0  0  0
   19.6525  -20.2836  -13.0257 O   0  0  0  0  0  0  0  0  0  0  0  0
  2  1  1  6
  2  3  1  0
  4  3  1  0
  5  2  1  0
  5  6  2  0
  7  8  1  0
  8  9  2  0
  8 10  1  0
 10 11  1  0
 11 12  1  0
 12 13  1  0
 14 13  1  1
 14 15  1  0
 15  5  1  0
 16 14  1  0
 16 20  1  0
 17 16  2  0
 19 18  1  6
 19 21  1  0
 20 19  1  0
 21 23  2  0
 21 22  1  0
M  END
$$$$
