CRA.pdb
     RDKit          3D

 23 22  0  0  1  0  0  0  0  0999 V2000
   30.2137  -22.5083  -11.8456 N   0  0  0  0  0  0  0  0  0  0  0  0
   29.4725  -21.2715  -11.7275 C   0  0  1  0  0  0  0  0  0  0  0  0
   30.3820  -20.1368  -12.1604 C   0  0  0  0  0  0  0  0  0  0  0  0
   31.5992  -19.7584  -10.8524 S   0  0  0  0  0  0  0  0  0  0  0  0
   28.2132  -21.2821  -12.5125 C   0  0  0  0  0  0  0  0  0  0  0  0
   28.2740  -21.5391  -13.7403 O   0  0  0  0  0  0  0  0  0  0  0  0
   21.4896  -21.0457   -8.0499 N   0  0  0  0  0  0  0  0  0  0  0  0
   21.0739  -20.9410   -9.3997 C   0  0  0  0  0  0  0  0  0  0  0  0
   19.8408  -21.1078   -9.7692 N   0  0  0  0  0  0  0  0  0  0  0  0
   21.9874  -20.6401  -10.4741 N   0  0  0  0  0  0  0  0  0  0  0  0
   22.1925  -21.5739  -11.5357 C   0  0  0  0  0  0  0  0  0  0  0  0
   23.2149  -21.0959  -12.5602 C   0  0  0  0  0  0  0  0  0  0  0  0
   24.5378  -21.0513  -11.8480 C   0  0  0  0  0  0  0  0  0  0  0  0
   25.7427  -20.9754  -12.7230 C   0  0  2  0  0  0  0  0  0  0  0  0
   26.9668  -21.0126  -11.9143 N   0  0  0  0  0  0  0  0  0  0  0  0
   25.7292  -19.7211  -13.5089 C   0  0  0  0  0  0  0  0  0  0  0  0
   25.8541  -18.5976  -12.9794 O   0  0  0  0  0  0  0  0  0  0  0  0
   19.6799  -21.2780  -10.7855 C   0  0  0  0  0  0  0  0  0  0  0  0
   26.6881  -18.4935  -16.7081 C   0  0  1  0  0  0  0  0  0  0  0  0
   25.5525  -18.6178  -15.7484 N   0  0  0  0  0  0  0  0  0  0  0  0
   25.5666  -19.7838  -14.9320 C   0  0  0  0  0  0  0  0  0  0  0  0
   24.2457  -18.3307  -16.4035 O   0  0  0  0  0  0  0  0  0  0  0  0
   24.0805  -17.1714  -17.1295 O   0  0  0  0  0  0  0  0  0  0  0  0
  2  1  1  6
  2  3  1  0
  4  3  1  0
  5  2  1  0
  5  6  2  0
  7  8  1  0
  8  9  2  0
  8 10  1  0
 10 11  1  0
 11 12  1  0
 12 13  1  0
 14 13  1  1
 14 15  1  0
 15  5  1  0
 16 14  1  0
 16 20  1  0
 17 16  2  0
 19 18  1  1
 19 21  1  0
 20 19  1  0
 21 23  2  0
 21 22  1  0
M  END
$$$$
