CRA.pdb
     RDKit          3D

 23 22  0  0  1  0  0  0  0  0999 V2000
   24.9251  -11.1109  -17.2216 N   0  0  0  0  0  0  0  0  0  0  0  0
   24.5838  -10.0176  -16.3378 C   0  0  1  0  0  0  0  0  0  0  0  0
   25.8671   -9.3001  -15.9627 C   0  0  0  0  0  0  0  0  0  0  0  0
   26.7448  -10.2076  -14.6429 S   0  0  0  0  0  0  0  0  0  0  0  0
   23.5995   -9.0830  -16.9375 C   0  0  0  0  0  0  0  0  0  0  0  0
   23.6745   -8.8411  -18.1677 O   0  0  0  0  0  0  0  0  0  0  0  0
   18.7763  -12.0027  -14.5067 N   0  0  0  0  0  0  0  0  0  0  0  0
   18.1169  -12.0808  -15.7576 C   0  0  0  0  0  0  0  0  0  0  0  0
   17.7182  -13.2040  -16.2718 N   0  0  0  0  0  0  0  0  0  0  0  0
   17.8345  -10.9181  -16.5624 N   0  0  0  0  0  0  0  0  0  0  0  0
   18.3878   -9.6462  -16.2199 C   0  0  0  0  0  0  0  0  0  0  0  0
   19.7847   -9.4312  -16.7907 C   0  0  0  0  0  0  0  0  0  0  0  0
   20.2092   -8.0545  -16.3618 C   0  0  0  0  0  0  0  0  0  0  0  0
   21.5710   -7.6313  -16.7970 C   0  0  2  0  0  0  0  0  0  0  0  0
   22.5954   -8.4697  -16.1632 N   0  0  0  0  0  0  0  0  0  0  0  0
   21.8142   -6.2195  -16.4247 C   0  0  0  0  0  0  0  0  0  0  0  0
   22.0783   -5.8710  -15.2555 O   0  0  0  0  0  0  0  0  0  0  0  0
   17.1858  -13.1418  -17.1665 C   0  0  0  0  0  0  0  0  0  0  0  0
   22.0863   -2.9313  -18.3275 C   0  0  1  0  0  0  0  0  0  0  0  0
   21.9462   -3.8251  -17.1411 N   0  0  0  0  0  0  0  0  0  0  0  0
   21.7463   -5.2036  -17.4342 C   0  0  0  0  0  0  0  0  0  0  0  0
   21.0052   -3.2585  -16.1346 O   0  0  0  0  0  0  0  0  0  0  0  0
   21.4127   -2.2278  -15.3161 O   0  0  0  0  0  0  0  0  0  0  0  0
  2  1  1  6
  2  3  1  0
  4  3  1  0
  5  2  1  0
  5  6  2  0
  7  8  1  0
  8  9  2  0
  8 10  1  0
 10 11  1  0
 11 12  1  0
 12 13  1  0
 14 13  1  1
 14 15  1  0
 15  5  1  0
 16 14  1  0
 16 20  1  0
 17 16  2  0
 19 18  1  1
 19 21  1  0
 20 19  1  0
 21 23  2  0
 21 22  1  0
M  END
$$$$
