CRA.pdb
     RDKit          3D

 23 22  0  0  1  0  0  0  0  0999 V2000
   25.6817  -26.6530  -17.0381 N   0  0  0  0  0  0  0  0  0  0  0  0
   26.5345  -25.6918  -16.3732 C   0  0  1  0  0  0  0  0  0  0  0  0
   27.8593  -25.6509  -17.1117 C   0  0  0  0  0  0  0  0  0  0  0  0
   28.9234  -27.0419  -16.5937 S   0  0  0  0  0  0  0  0  0  0  0  0
   25.9212  -24.3430  -16.2915 C   0  0  0  0  0  0  0  0  0  0  0  0
   25.2451  -23.9315  -17.2668 O   0  0  0  0  0  0  0  0  0  0  0  0
   22.4310  -20.4869   -9.8588 N   0  0  0  0  0  0  0  0  0  0  0  0
   23.8357  -20.6636   -9.8917 C   0  0  0  0  0  0  0  0  0  0  0  0
   24.5448  -20.8509   -8.8206 N   0  0  0  0  0  0  0  0  0  0  0  0
   24.5932  -20.6499  -11.1186 N   0  0  0  0  0  0  0  0  0  0  0  0
   23.9648  -20.3117  -12.3562 C   0  0  0  0  0  0  0  0  0  0  0  0
   24.9379  -20.2788  -13.5289 C   0  0  0  0  0  0  0  0  0  0  0  0
   25.4359  -21.6861  -13.7045 C   0  0  0  0  0  0  0  0  0  0  0  0
   25.4807  -22.1873  -15.1080 C   0  0  2  0  0  0  0  0  0  0  0  0
   26.0809  -23.5258  -15.1556 N   0  0  0  0  0  0  0  0  0  0  0  0
   26.2827  -21.2756  -15.9543 C   0  0  0  0  0  0  0  0  0  0  0  0
   27.4945  -21.0601  -15.7454 O   0  0  0  0  0  0  0  0  0  0  0  0
   25.5719  -20.9686   -8.9587 C   0  0  0  0  0  0  0  0  0  0  0  0
   27.0908  -20.3146  -19.0425 C   0  0  2  0  0  0  0  0  0  0  0  0
   26.3630  -19.6977  -17.8954 N   0  0  0  0  0  0  0  0  0  0  0  0
   25.6576  -20.6074  -17.0582 C   0  0  0  0  0  0  0  0  0  0  0  0
   25.5786  -18.5046  -18.3204 O   0  0  0  0  0  0  0  0  0  0  0  0
   24.2613  -18.3758  -17.9378 O   0  0  0  0  0  0  0  0  0  0  0  0
  2  1  1  6
  2  3  1  0
  4  3  1  0
  5  2  1  0
  5  6  2  0
  7  8  1  0
  8  9  2  0
  8 10  1  0
 10 11  1  0
 11 12  1  0
 12 13  1  0
 14 13  1  1
 14 15  1  0
 15  5  1  0
 16 14  1  0
 16 20  1  0
 17 16  2  0
 19 18  1  1
 19 21  1  0
 20 19  1  0
 21 23  2  0
 21 22  1  0
M  END
$$$$
