CRA.pdb
     RDKit          3D

 23 22  0  0  1  0  0  0  0  0999 V2000
   26.8332  -25.3853  -16.3602 N   0  0  0  0  0  0  0  0  0  0  0  0
   27.0009  -26.3838  -17.3936 C   0  0  1  0  0  0  0  0  0  0  0  0
   27.5920  -25.7015  -18.6131 C   0  0  0  0  0  0  0  0  0  0  0  0
   26.4457  -24.4325  -19.2544 S   0  0  0  0  0  0  0  0  0  0  0  0
   27.8408  -27.5257  -16.9549 C   0  0  0  0  0  0  0  0  0  0  0  0
   28.6782  -27.3370  -16.0381 O   0  0  0  0  0  0  0  0  0  0  0  0
   26.6800  -35.0711  -13.7954 N   0  0  0  0  0  0  0  0  0  0  0  0
   25.8929  -33.9176  -14.0310 C   0  0  0  0  0  0  0  0  0  0  0  0
   24.9236  -33.5572  -13.2465 N   0  0  0  0  0  0  0  0  0  0  0  0
   26.1045  -33.0490  -15.1624 N   0  0  0  0  0  0  0  0  0  0  0  0
   27.0401  -33.4009  -16.1830 C   0  0  0  0  0  0  0  0  0  0  0  0
   28.1670  -32.3856  -16.3338 C   0  0  0  0  0  0  0  0  0  0  0  0
   27.5319  -31.1216  -16.8422 C   0  0  0  0  0  0  0  0  0  0  0  0
   28.4433  -29.9502  -16.9845 C   0  0  2  0  0  0  0  0  0  0  0  0
   27.7186  -28.8012  -17.5398 N   0  0  0  0  0  0  0  0  0  0  0  0
   29.5706  -30.2822  -17.8844 C   0  0  0  0  0  0  0  0  0  0  0  0
   29.4229  -30.4360  -19.1144 O   0  0  0  0  0  0  0  0  0  0  0  0
   24.4195  -32.6811  -13.5039 C   0  0  0  0  0  0  0  0  0  0  0  0
   33.3463  -30.3929  -17.4962 C   0  0  1  0  0  0  0  0  0  0  0  0
   32.0320  -30.6453  -18.1558 N   0  0  0  0  0  0  0  0  0  0  0  0
   30.8866  -30.4367  -17.3368 C   0  0  0  0  0  0  0  0  0  0  0  0
   32.0338  -31.9298  -18.9103 O   0  0  0  0  0  0  0  0  0  0  0  0
   31.0303  -32.8508  -18.7024 O   0  0  0  0  0  0  0  0  0  0  0  0
  2  1  1  1
  2  3  1  0
  4  3  1  0
  5  2  1  0
  5  6  2  0
  7  8  1  0
  8  9  2  0
  8 10  1  0
 10 11  1  0
 11 12  1  0
 12 13  1  0
 14 13  1  6
 14 15  1  0
 15  5  1  0
 16 14  1  0
 16 20  1  0
 17 16  2  0
 19 18  1  6
 19 21  1  0
 20 19  1  0
 21 23  2  0
 21 22  1  0
M  END
$$$$
