CRA.pdb
     RDKit          3D

 23 22  0  0  1  0  0  0  0  0999 V2000
   27.5600  -21.1277  -18.1468 N   0  0  0  0  0  0  0  0  0  0  0  0
   27.2362  -20.1501  -17.1306 C   0  0  1  0  0  0  0  0  0  0  0  0
   26.7263  -18.9019  -17.8265 C   0  0  0  0  0  0  0  0  0  0  0  0
   27.9349  -17.5420  -17.6671 S   0  0  0  0  0  0  0  0  0  0  0  0
   26.2516  -20.6565  -16.1426 C   0  0  0  0  0  0  0  0  0  0  0  0
   25.3401  -21.4224  -16.5426 O   0  0  0  0  0  0  0  0  0  0  0  0
   25.6120  -19.5912   -7.6322 N   0  0  0  0  0  0  0  0  0  0  0  0
   24.7946  -20.7346   -7.8056 C   0  0  0  0  0  0  0  0  0  0  0  0
   23.8702  -21.0714   -6.9589 N   0  0  0  0  0  0  0  0  0  0  0  0
   24.9227  -21.6183   -8.9379 N   0  0  0  0  0  0  0  0  0  0  0  0
   25.7062  -21.2383  -10.0705 C   0  0  0  0  0  0  0  0  0  0  0  0
   24.9032  -21.2032  -11.3655 C   0  0  0  0  0  0  0  0  0  0  0  0
   25.8724  -20.8361  -12.4541 C   0  0  0  0  0  0  0  0  0  0  0  0
   25.3074  -20.7785  -13.8327 C   0  0  2  0  0  0  0  0  0  0  0  0
   26.3189  -20.2991  -14.7819 N   0  0  0  0  0  0  0  0  0  0  0  0
   24.1445  -19.8637  -13.8740 C   0  0  0  0  0  0  0  0  0  0  0  0
   24.2427  -18.6439  -13.6277 O   0  0  0  0  0  0  0  0  0  0  0  0
   23.3081  -21.9170   -7.1974 C   0  0  0  0  0  0  0  0  0  0  0  0
   21.3083  -18.9899  -15.5311 C   0  0  2  0  0  0  0  0  0  0  0  0
   21.6814  -19.5727  -14.2093 N   0  0  0  0  0  0  0  0  0  0  0  0
   22.8507  -20.3844  -14.2069 C   0  0  0  0  0  0  0  0  0  0  0  0
   20.5040  -20.1730  -13.5217 O   0  0  0  0  0  0  0  0  0  0  0  0
   20.5596  -21.4745  -13.0729 O   0  0  0  0  0  0  0  0  0  0  0  0
  2  1  1  6
  2  3  1  0
  4  3  1  0
  5  2  1  0
  5  6  2  0
  7  8  1  0
  8  9  2  0
  8 10  1  0
 10 11  1  0
 11 12  1  0
 12 13  1  0
 14 13  1  1
 14 15  1  0
 15  5  1  0
 16 14  1  0
 16 20  1  0
 17 16  2  0
 19 18  1  1
 19 21  1  0
 20 19  1  0
 21 23  2  0
 21 22  1  0
M  END
$$$$
