CRA.pdb
     RDKit          3D

 23 22  0  0  1  0  0  0  0  0999 V2000
   26.0985  -20.8272   -6.8622 N   0  0  0  0  0  0  0  0  0  0  0  0
   26.1836  -19.8796   -7.9521 C   0  0  1  0  0  0  0  0  0  0  0  0
   27.4116  -19.0169   -7.7282 C   0  0  0  0  0  0  0  0  0  0  0  0
   27.1749  -17.9316   -6.2785 S   0  0  0  0  0  0  0  0  0  0  0  0
   26.2230  -20.5383   -9.2813 C   0  0  0  0  0  0  0  0  0  0  0  0
   27.1220  -21.3866   -9.5038 O   0  0  0  0  0  0  0  0  0  0  0  0
   23.6202  -24.9853  -13.4204 N   0  0  0  0  0  0  0  0  0  0  0  0
   22.9386  -24.5781  -14.5932 C   0  0  0  0  0  0  0  0  0  0  0  0
   22.7143  -25.3803  -15.5888 N   0  0  0  0  0  0  0  0  0  0  0  0
   22.4380  -23.2384  -14.7768 N   0  0  0  0  0  0  0  0  0  0  0  0
   22.5600  -22.2685  -13.7349 C   0  0  0  0  0  0  0  0  0  0  0  0
   24.0002  -21.8313  -13.4938 C   0  0  0  0  0  0  0  0  0  0  0  0
   24.0501  -21.2960  -12.0901 C   0  0  0  0  0  0  0  0  0  0  0  0
   25.3892  -20.8426  -11.6167 C   0  0  2  0  0  0  0  0  0  0  0  0
   25.2833  -20.2340  -10.2853 N   0  0  0  0  0  0  0  0  0  0  0  0
   25.9547  -19.8449  -12.5525 C   0  0  0  0  0  0  0  0  0  0  0  0
   25.5512  -18.6645  -12.5974 O   0  0  0  0  0  0  0  0  0  0  0  0
   22.1152  -25.0093  -16.3577 C   0  0  0  0  0  0  0  0  0  0  0  0
   29.1011  -19.4635  -14.4904 C   0  0  1  0  0  0  0  0  0  0  0  0
   27.6240  -19.3161  -14.3407 N   0  0  0  0  0  0  0  0  0  0  0  0
   27.0051  -20.2350  -13.4471 C   0  0  0  0  0  0  0  0  0  0  0  0
   26.9489  -19.1799  -15.6618 O   0  0  0  0  0  0  0  0  0  0  0  0
   27.2804  -18.1371  -16.4991 O   0  0  0  0  0  0  0  0  0  0  0  0
  2  1  1  1
  2  3  1  0
  4  3  1  0
  5  2  1  0
  5  6  2  0
  7  8  1  0
  8  9  2  0
  8 10  1  0
 10 11  1  0
 11 12  1  0
 12 13  1  0
 14 13  1  6
 14 15  1  0
 15  5  1  0
 16 14  1  0
 16 20  1  0
 17 16  2  0
 19 18  1  1
 19 21  1  0
 20 19  1  0
 21 23  2  0
 21 22  1  0
M  END
$$$$
