IVC.pdb
     RDKit          3D

 22 21  0  0  1  0  0  0  0  0999 V2000
   17.3064  -16.1032  -17.0631 C   0  0  0  0  0  0  0  0  0  0  0  0
   18.2946  -15.3914  -17.9765 C   0  0  0  0  0  0  0  0  0  0  0  0
   19.1035  -14.3651  -17.2095 C   0  0  2  0  0  0  0  0  0  0  0  0
   18.1244  -13.3513  -16.6541 C   0  0  0  0  0  0  0  0  0  0  0  0
   19.9957  -13.6450  -18.1822 C   0  0  2  0  0  0  0  0  0  0  0  0
   20.8757  -14.5855  -18.8114 N   0  0  0  0  0  0  0  0  0  0  0  0
   20.7701  -12.5525  -17.5323 C   0  0  0  0  0  0  0  0  0  0  0  0
   21.6593  -12.8495  -16.6791 O   0  0  0  0  0  0  0  0  0  0  0  0
   22.8168   -9.9396  -19.2012 C   0  0  0  0  0  0  0  0  0  0  0  0
   21.8078   -9.2540  -18.3437 C   0  0  1  0  0  0  0  0  0  0  0  0
   20.6566   -8.7999  -19.2040 C   0  0  0  0  0  0  0  0  0  0  0  0
   21.3182  -10.1081  -17.1742 C   0  0  2  0  0  0  0  0  0  0  0  0
   20.5664  -11.1980  -17.8165 N   0  0  0  0  0  0  0  0  0  0  0  0
   20.3998   -9.3835  -16.2897 C   0  0  0  0  0  0  0  0  0  0  0  0
   19.1607   -9.2984  -16.5956 O   0  0  0  0  0  0  0  0  0  0  0  0
   20.7459   -8.7405  -15.0828 N   0  0  0  0  0  0  0  0  0  0  0  0
   19.8153   -7.9792  -14.2719 C   0  0  1  0  0  0  0  0  0  0  0  0
   19.3775   -8.8761  -13.1378 C   0  0  0  0  0  0  0  0  0  0  0  0
   18.4711   -7.9655  -11.8623 S   0  0  0  0  0  0  0  0  0  0  0  0
   20.3582   -6.7025  -13.8191 C   0  0  0  0  0  0  0  0  0  0  0  0
   19.4994   -5.6936  -13.4194 O   0  0  0  0  0  0  0  0  0  0  0  0
   21.5869   -6.4656  -13.7716 O   0  0  0  0  0  0  0  0  0  0  0  0
  1  2  1  0
  2  3  1  0
  3  4  1  6
  5  3  1  0
  5  6  1  1
  7  8  2  0
  7  5  1  0
 10  9  1  6
 10 12  1  0
 11 10  1  0
 12 13  1  6
 13  7  1  0
 14 12  1  0
 14 16  1  0
 15 14  2  0
 17 16  1  0
 17 20  1  0
 17 18  1  1
 19 18  1  0
 20 22  2  0
 20 21  1  0
M  END
$$$$
