IVC.pdb
     RDKit          3D

 22 21  0  0  1  0  0  0  0  0999 V2000
   29.4393  -21.0924  -10.5040 C   0  0  0  0  0  0  0  0  0  0  0  0
   28.7925  -21.0743  -11.8819 C   0  0  0  0  0  0  0  0  0  0  0  0
   27.3446  -20.6354  -11.7984 C   0  0  2  0  0  0  0  0  0  0  0  0
   26.5877  -21.7325  -11.0788 C   0  0  0  0  0  0  0  0  0  0  0  0
   26.7963  -20.5503  -13.1958 C   0  0  2  0  0  0  0  0  0  0  0  0
   27.6208  -19.6800  -13.9817 N   0  0  0  0  0  0  0  0  0  0  0  0
   25.3794  -20.0946  -13.2171 C   0  0  0  0  0  0  0  0  0  0  0  0
   25.0824  -18.9778  -12.6961 O   0  0  0  0  0  0  0  0  0  0  0  0
   23.0935  -21.2538  -16.2277 C   0  0  0  0  0  0  0  0  0  0  0  0
   22.7238  -20.1079  -15.3481 C   0  0  1  0  0  0  0  0  0  0  0  0
   21.2927  -19.7205  -15.6185 C   0  0  0  0  0  0  0  0  0  0  0  0
   22.9490  -20.3814  -13.8610 C   0  0  2  0  0  0  0  0  0  0  0  0
   24.3446  -20.8425  -13.7888 N   0  0  0  0  0  0  0  0  0  0  0  0
   22.0902  -21.4530  -13.3463 C   0  0  0  0  0  0  0  0  0  0  0  0
   22.3565  -22.6709  -13.6325 O   0  0  0  0  0  0  0  0  0  0  0  0
   20.9505  -21.2831  -12.5325 N   0  0  0  0  0  0  0  0  0  0  0  0
   20.0996  -22.3703  -12.0888 C   0  0  1  0  0  0  0  0  0  0  0  0
   19.8603  -22.1722  -10.6103 C   0  0  0  0  0  0  0  0  0  0  0  0
   18.7570  -23.4336   -9.9254 S   0  0  0  0  0  0  0  0  0  0  0  0
   18.8665  -22.4871  -12.8605 C   0  0  0  0  0  0  0  0  0  0  0  0
   18.3940  -23.7385  -13.2154 O   0  0  0  0  0  0  0  0  0  0  0  0
   18.1981  -21.4937  -13.2271 O   0  0  0  0  0  0  0  0  0  0  0  0
  1  2  1  0
  2  3  1  0
  3  4  1  1
  5  3  1  0
  5  6  1  6
  7  8  2  0
  7  5  1  0
 10  9  1  6
 10 12  1  0
 11 10  1  0
 12 13  1  6
 13  7  1  0
 14 12  1  0
 14 16  1  0
 15 14  2  0
 17 16  1  0
 17 20  1  0
 17 18  1  1
 19 18  1  0
 20 22  2  0
 20 21  1  0
M  END
$$$$
