IVC.pdb
     RDKit          3D

 22 21  0  0  1  0  0  0  0  0999 V2000
   19.7795  -18.1455  -17.6700 C   0  0  0  0  0  0  0  0  0  0  0  0
   21.2609  -18.1456  -18.0201 C   0  0  0  0  0  0  0  0  0  0  0  0
   22.0306  -19.1021  -17.1320 C   0  0  2  0  0  0  0  0  0  0  0  0
   21.8491  -18.6280  -15.7048 C   0  0  0  0  0  0  0  0  0  0  0  0
   23.4919  -18.9826  -17.4651 C   0  0  2  0  0  0  0  0  0  0  0  0
   23.7084  -19.3886  -18.8228 N   0  0  0  0  0  0  0  0  0  0  0  0
   24.3466  -19.7721  -16.5367 C   0  0  0  0  0  0  0  0  0  0  0  0
   24.2819  -21.0378  -16.5640 O   0  0  0  0  0  0  0  0  0  0  0  0
   27.9238  -19.8864  -16.3561 C   0  0  0  0  0  0  0  0  0  0  0  0
   27.4795  -19.5256  -14.9792 C   0  0  1  0  0  0  0  0  0  0  0  0
   27.6629  -18.0438  -14.7744 C   0  0  0  0  0  0  0  0  0  0  0  0
   26.0445  -19.9513  -14.6688 C   0  0  2  0  0  0  0  0  0  0  0  0
   25.2288  -19.1844  -15.6239 N   0  0  0  0  0  0  0  0  0  0  0  0
   25.6246  -19.5803  -13.3136 C   0  0  0  0  0  0  0  0  0  0  0  0
   24.8710  -18.5613  -13.1404 O   0  0  0  0  0  0  0  0  0  0  0  0
   25.9745  -20.2531  -12.1240 N   0  0  0  0  0  0  0  0  0  0  0  0
   25.1954  -20.2014  -10.9021 C   0  0  1  0  0  0  0  0  0  0  0  0
   23.8300  -20.7634  -11.2217 C   0  0  0  0  0  0  0  0  0  0  0  0
   22.7332  -20.7447   -9.7814 S   0  0  0  0  0  0  0  0  0  0  0  0
   25.8437  -20.8692   -9.7781 C   0  0  0  0  0  0  0  0  0  0  0  0
   25.8046  -20.2925   -8.5206 O   0  0  0  0  0  0  0  0  0  0  0  0
   26.4471  -21.9605   -9.8928 O   0  0  0  0  0  0  0  0  0  0  0  0
  1  2  1  0
  2  3  1  0
  3  4  1  1
  5  3  1  0
  5  6  1  6
  7  8  2  0
  7  5  1  0
 10  9  1  6
 10 12  1  0
 11 10  1  0
 12 13  1  6
 13  7  1  0
 14 12  1  0
 14 16  1  0
 15 14  2  0
 17 16  1  0
 17 20  1  0
 17 18  1  6
 19 18  1  0
 20 22  2  0
 20 21  1  0
M  END
$$$$
