IVC.pdb
     RDKit          3D

 22 21  0  0  1  0  0  0  0  0999 V2000
   14.3610  -13.7684  -16.5412 C   0  0  0  0  0  0  0  0  0  0  0  0
   15.6646  -13.6441  -17.3174 C   0  0  0  0  0  0  0  0  0  0  0  0
   16.7393  -12.9867  -16.4755 C   0  0  2  0  0  0  0  0  0  0  0  0
   16.2876  -11.5659  -16.2071 C   0  0  0  0  0  0  0  0  0  0  0  0
   17.9993  -12.9130  -17.2927 C   0  0  2  0  0  0  0  0  0  0  0  0
   18.4249  -14.2379  -17.6371 N   0  0  0  0  0  0  0  0  0  0  0  0
   19.0846  -12.1778  -16.5876 C   0  0  0  0  0  0  0  0  0  0  0  0
   19.6829  -12.7386  -15.6208 O   0  0  0  0  0  0  0  0  0  0  0  0
   22.3282   -8.4998  -16.7704 C   0  0  0  0  0  0  0  0  0  0  0  0
   21.4733   -9.6342  -17.2240 C   0  0  1  0  0  0  0  0  0  0  0  0
   22.3576  -10.7716  -17.6665 C   0  0  0  0  0  0  0  0  0  0  0  0
   20.4644  -10.0974  -16.1731 C   0  0  2  0  0  0  0  0  0  0  0  0
   19.4849  -10.8844  -16.9392 N   0  0  0  0  0  0  0  0  0  0  0  0
   19.7539   -8.9815  -15.5400 C   0  0  0  0  0  0  0  0  0  0  0  0
   18.9993   -8.2284  -16.2468 O   0  0  0  0  0  0  0  0  0  0  0  0
   19.8118   -8.6296  -14.1752 N   0  0  0  0  0  0  0  0  0  0  0  0
   19.1338   -7.4828  -13.6023 C   0  0  1  0  0  0  0  0  0  0  0  0
   18.9657   -7.7577  -12.1263 C   0  0  0  0  0  0  0  0  0  0  0  0
   18.0163   -9.2686  -11.8203 S   0  0  0  0  0  0  0  0  0  0  0  0
   19.8085   -6.2187  -13.8789 C   0  0  0  0  0  0  0  0  0  0  0  0
   19.0815   -5.0412  -13.8959 O   0  0  0  0  0  0  0  0  0  0  0  0
   21.0373   -6.1404  -14.1067 O   0  0  0  0  0  0  0  0  0  0  0  0
  1  2  1  0
  2  3  1  0
  3  4  1  6
  5  3  1  0
  5  6  1  1
  7  8  2  0
  7  5  1  0
 10  9  1  1
 10 12  1  0
 11 10  1  0
 12 13  1  6
 13  7  1  0
 14 12  1  0
 14 16  1  0
 15 14  2  0
 17 16  1  0
 17 20  1  0
 17 18  1  1
 19 18  1  0
 20 22  2  0
 20 21  1  0
M  END
$$$$
