IVC.pdb
     RDKit          3D

 22 21  0  0  1  0  0  0  0  0999 V2000
   21.6614  -20.4068   -9.4313 C   0  0  0  0  0  0  0  0  0  0  0  0
   23.0633  -20.9825   -9.5749 C   0  0  0  0  0  0  0  0  0  0  0  0
   23.9239  -20.1060  -10.4620 C   0  0  2  0  0  0  0  0  0  0  0  0
   23.2870  -20.1024  -11.8365 C   0  0  0  0  0  0  0  0  0  0  0  0
   25.2760  -20.7506  -10.5927 C   0  0  2  0  0  0  0  0  0  0  0  0
   25.8915  -20.8383   -9.3010 N   0  0  0  0  0  0  0  0  0  0  0  0
   26.1561  -20.0225  -11.5471 C   0  0  0  0  0  0  0  0  0  0  0  0
   26.7754  -18.9899  -11.1508 O   0  0  0  0  0  0  0  0  0  0  0  0
   26.8296  -21.7184  -15.3009 C   0  0  0  0  0  0  0  0  0  0  0  0
   27.8118  -20.7756  -14.6927 C   0  0  1  0  0  0  0  0  0  0  0  0
   28.6656  -20.1817  -15.7835 C   0  0  0  0  0  0  0  0  0  0  0  0
   27.1641  -19.6821  -13.8432 C   0  0  2  0  0  0  0  0  0  0  0  0
   26.3388  -20.4221  -12.8753 N   0  0  0  0  0  0  0  0  0  0  0  0
   26.2781  -18.8108  -14.6219 C   0  0  0  0  0  0  0  0  0  0  0  0
   25.1382  -19.2463  -15.0056 O   0  0  0  0  0  0  0  0  0  0  0  0
   26.5547  -17.4839  -15.0130 N   0  0  0  0  0  0  0  0  0  0  0  0
   25.6501  -16.6612  -15.7926 C   0  0  1  0  0  0  0  0  0  0  0  0
   25.7144  -15.2647  -15.2199 C   0  0  0  0  0  0  0  0  0  0  0  0
   24.7780  -14.0779  -16.2161 S   0  0  0  0  0  0  0  0  0  0  0  0
   25.9207  -16.7083  -17.2258 C   0  0  0  0  0  0  0  0  0  0  0  0
   27.2214  -16.5921  -17.6837 O   0  0  0  0  0  0  0  0  0  0  0  0
   25.0189  -16.8514  -18.0828 O   0  0  0  0  0  0  0  0  0  0  0  0
  1  2  1  0
  2  3  1  0
  3  4  1  6
  5  3  1  0
  5  6  1  1
  7  8  2  0
  7  5  1  0
 10  9  1  6
 10 12  1  0
 11 10  1  0
 12 13  1  1
 13  7  1  0
 14 12  1  0
 14 16  1  0
 15 14  2  0
 17 16  1  0
 17 20  1  0
 17 18  1  1
 19 18  1  0
 20 22  2  0
 20 21  1  0
M  END
$$$$
