IVC.pdb
     RDKit          3D

 22 21  0  0  1  0  0  0  0  0999 V2000
   16.6836  -23.2919  -16.0525 C   0  0  0  0  0  0  0  0  0  0  0  0
   17.6365  -22.3367  -15.3476 C   0  0  0  0  0  0  0  0  0  0  0  0
   18.3213  -23.0146  -14.1781 C   0  0  2  0  0  0  0  0  0  0  0  0
   17.2392  -23.3967  -13.1893 C   0  0  0  0  0  0  0  0  0  0  0  0
   19.2126  -22.0078  -13.5054 C   0  0  2  0  0  0  0  0  0  0  0  0
   20.2330  -21.5853  -14.4192 N   0  0  0  0  0  0  0  0  0  0  0  0
   19.8150  -22.5389  -12.2520 C   0  0  0  0  0  0  0  0  0  0  0  0
   20.7130  -23.4302  -12.3284 O   0  0  0  0  0  0  0  0  0  0  0  0
   21.0055  -21.6359   -7.6184 C   0  0  0  0  0  0  0  0  0  0  0  0
   20.4691  -21.3591   -8.9818 C   0  0  1  0  0  0  0  0  0  0  0  0
   21.4982  -20.5901   -9.7697 C   0  0  0  0  0  0  0  0  0  0  0  0
   20.0275  -22.6160   -9.7316 C   0  0  2  0  0  0  0  0  0  0  0  0
   19.4381  -22.1012  -10.9779 N   0  0  0  0  0  0  0  0  0  0  0  0
   18.9907  -23.3669   -9.0161 C   0  0  0  0  0  0  0  0  0  0  0  0
   17.8070  -22.8895   -8.9316 O   0  0  0  0  0  0  0  0  0  0  0  0
   19.1605  -24.6154   -8.3815 N   0  0  0  0  0  0  0  0  0  0  0  0
   18.1288  -25.2818   -7.6104 C   0  0  1  0  0  0  0  0  0  0  0  0
   18.4628  -26.7551   -7.6015 C   0  0  0  0  0  0  0  0  0  0  0  0
   17.2520  -27.7207   -6.6638 S   0  0  0  0  0  0  0  0  0  0  0  0
   17.9584  -24.7224   -6.2734 C   0  0  0  0  0  0  0  0  0  0  0  0
   16.6958  -24.6605   -5.7102 O   0  0  0  0  0  0  0  0  0  0  0  0
   18.9147  -24.2855   -5.5931 O   0  0  0  0  0  0  0  0  0  0  0  0
  1  2  1  0
  2  3  1  0
  3  4  1  1
  5  3  1  0
  5  6  1  6
  7  8  2  0
  7  5  1  0
 10  9  1  1
 10 12  1  0
 11 10  1  0
 12 13  1  6
 13  7  1  0
 14 12  1  0
 14 16  1  0
 15 14  2  0
 17 16  1  0
 17 20  1  0
 17 18  1  1
 19 18  1  0
 20 22  2  0
 20 21  1  0
M  END
$$$$
