IVC.pdb
     RDKit          3D

 22 21  0  0  1  0  0  0  0  0999 V2000
   26.5847  -13.8145  -17.5730 C   0  0  0  0  0  0  0  0  0  0  0  0
   26.7852  -12.3064  -17.6251 C   0  0  0  0  0  0  0  0  0  0  0  0
   28.2575  -11.9507  -17.5809 C   0  0  2  0  0  0  0  0  0  0  0  0
   28.7874  -12.4149  -16.2398 C   0  0  0  0  0  0  0  0  0  0  0  0
   28.3822  -10.4529  -17.6217 C   0  0  2  0  0  0  0  0  0  0  0  0
   27.8044   -9.9571  -18.8362 N   0  0  0  0  0  0  0  0  0  0  0  0
   29.7947  -10.0025  -17.4883 C   0  0  0  0  0  0  0  0  0  0  0  0
   30.4456  -10.3128  -16.4457 O   0  0  0  0  0  0  0  0  0  0  0  0
   31.4358   -7.9434  -20.6911 C   0  0  0  0  0  0  0  0  0  0  0  0
   32.3319   -8.7456  -19.8096 C   0  0  1  0  0  0  0  0  0  0  0  0
   33.7311   -8.1918  -19.8942 C   0  0  0  0  0  0  0  0  0  0  0  0
   31.8555   -8.8199  -18.3590 C   0  0  2  0  0  0  0  0  0  0  0  0
   30.4507   -9.2452  -18.4646 N   0  0  0  0  0  0  0  0  0  0  0  0
   31.8856   -7.5172  -17.6860 C   0  0  0  0  0  0  0  0  0  0  0  0
   30.9164   -6.6982  -17.8475 O   0  0  0  0  0  0  0  0  0  0  0  0
   32.9111   -7.0445  -16.8405 N   0  0  0  0  0  0  0  0  0  0  0  0
   32.9123   -5.7344  -16.2188 C   0  0  1  0  0  0  0  0  0  0  0  0
   32.9448   -5.9520  -14.7242 C   0  0  0  0  0  0  0  0  0  0  0  0
   33.0319   -4.3906  -13.8118 S   0  0  0  0  0  0  0  0  0  0  0  0
   33.9871   -4.8714  -16.6980 C   0  0  0  0  0  0  0  0  0  0  0  0
   33.8313   -3.4967  -16.6644 O   0  0  0  0  0  0  0  0  0  0  0  0
   35.0670   -5.3180  -17.1481 O   0  0  0  0  0  0  0  0  0  0  0  0
  1  2  1  0
  2  3  1  0
  3  4  1  1
  5  3  1  0
  5  6  1  6
  7  8  2  0
  7  5  1  0
 10  9  1  6
 10 12  1  0
 11 10  1  0
 12 13  1  6
 13  7  1  0
 14 12  1  0
 14 16  1  0
 15 14  2  0
 17 16  1  0
 17 20  1  0
 17 18  1  1
 19 18  1  0
 20 22  2  0
 20 21  1  0
M  END
$$$$
