IVC.pdb
     RDKit          3D

 22 21  0  0  1  0  0  0  0  0999 V2000
   28.5519  -12.7243  -15.6661 C   0  0  0  0  0  0  0  0  0  0  0  0
   27.0658  -13.0310  -15.7877 C   0  0  0  0  0  0  0  0  0  0  0  0
   26.2943  -11.8125  -16.2525 C   0  0  2  0  0  0  0  0  0  0  0  0
   26.3599  -10.7913  -15.1356 C   0  0  0  0  0  0  0  0  0  0  0  0
   24.8525  -12.2037  -16.4225 C   0  0  2  0  0  0  0  0  0  0  0  0
   24.7636  -13.3378  -17.2948 N   0  0  0  0  0  0  0  0  0  0  0  0
   24.0214  -11.0796  -16.9338 C   0  0  0  0  0  0  0  0  0  0  0  0
   24.2228  -10.6478  -18.1085 O   0  0  0  0  0  0  0  0  0  0  0  0
   20.9308  -10.9372  -18.1793 C   0  0  0  0  0  0  0  0  0  0  0  0
   20.8541  -10.0048  -17.0183 C   0  0  1  0  0  0  0  0  0  0  0  0
   20.2828  -10.7395  -15.8328 C   0  0  0  0  0  0  0  0  0  0  0  0
   22.1915   -9.3518  -16.6694 C   0  0  2  0  0  0  0  0  0  0  0  0
   23.0170  -10.4663  -16.1775 N   0  0  0  0  0  0  0  0  0  0  0  0
   22.0750   -8.3638  -15.5920 C   0  0  0  0  0  0  0  0  0  0  0  0
   22.0945   -8.7506  -14.3729 O   0  0  0  0  0  0  0  0  0  0  0  0
   21.9380   -6.9695  -15.7571 N   0  0  0  0  0  0  0  0  0  0  0  0
   21.8679   -6.0243  -14.6595 C   0  0  1  0  0  0  0  0  0  0  0  0
   22.9114   -4.9633  -14.9195 C   0  0  0  0  0  0  0  0  0  0  0  0
   22.8540   -3.6374  -13.6880 S   0  0  0  0  0  0  0  0  0  0  0  0
   20.5302   -5.4779  -14.4557 C   0  0  0  0  0  0  0  0  0  0  0  0
   19.7124   -5.2380  -15.5462 O   0  0  0  0  0  0  0  0  0  0  0  0
   20.0721   -5.2084  -13.3218 O   0  0  0  0  0  0  0  0  0  0  0  0
  1  2  1  0
  2  3  1  0
  3  4  1  1
  5  3  1  0
  5  6  1  6
  7  8  2  0
  7  5  1  0
 10  9  1  6
 10 12  1  0
 11 10  1  0
 12 13  1  1
 13  7  1  0
 14 12  1  0
 14 16  1  0
 15 14  2  0
 17 16  1  0
 17 20  1  0
 17 18  1  6
 19 18  1  0
 20 22  2  0
 20 21  1  0
M  END
$$$$
