IVC.pdb
     RDKit          3D

 22 21  0  0  1  0  0  0  0  0999 V2000
   29.5384  -20.2918  -19.7108 C   0  0  0  0  0  0  0  0  0  0  0  0
   29.0064  -20.9673  -18.4546 C   0  0  0  0  0  0  0  0  0  0  0  0
   27.9831  -20.0934  -17.7579 C   0  0  2  0  0  0  0  0  0  0  0  0
   28.7000  -18.8342  -17.3163 C   0  0  0  0  0  0  0  0  0  0  0  0
   27.5193  -20.8071  -16.5184 C   0  0  2  0  0  0  0  0  0  0  0  0
   27.0828  -22.1286  -16.8618 N   0  0  0  0  0  0  0  0  0  0  0  0
   26.4409  -20.0633  -15.8116 C   0  0  0  0  0  0  0  0  0  0  0  0
   26.7088  -18.9433  -15.2818 O   0  0  0  0  0  0  0  0  0  0  0  0
   22.5815  -21.1773  -16.4818 C   0  0  0  0  0  0  0  0  0  0  0  0
   22.8755  -19.8468  -15.8764 C   0  0  1  0  0  0  0  0  0  0  0  0
   21.6402  -19.3390  -15.1782 C   0  0  0  0  0  0  0  0  0  0  0  0
   24.0773  -19.8574  -14.9316 C   0  0  2  0  0  0  0  0  0  0  0  0
   25.1306  -20.5403  -15.6994 N   0  0  0  0  0  0  0  0  0  0  0  0
   23.8309  -20.6323  -13.7111 C   0  0  0  0  0  0  0  0  0  0  0  0
   23.7566  -21.9077  -13.7746 O   0  0  0  0  0  0  0  0  0  0  0  0
   23.6592  -20.1041  -12.4144 N   0  0  0  0  0  0  0  0  0  0  0  0
   23.3254  -20.9014  -11.2499 C   0  0  1  0  0  0  0  0  0  0  0  0
   24.2820  -20.5039  -10.1503 C   0  0  0  0  0  0  0  0  0  0  0  0
   24.7736  -21.9185   -9.1330 S   0  0  0  0  0  0  0  0  0  0  0  0
   21.9233  -20.7913  -10.8604 C   0  0  0  0  0  0  0  0  0  0  0  0
   21.2558  -21.9021  -10.3747 O   0  0  0  0  0  0  0  0  0  0  0  0
   21.2772  -19.7218  -10.9439 O   0  0  0  0  0  0  0  0  0  0  0  0
  1  2  1  0
  2  3  1  0
  3  4  1  1
  5  3  1  0
  5  6  1  6
  7  8  2  0
  7  5  1  0
 10  9  1  1
 10 12  1  0
 11 10  1  0
 12 13  1  6
 13  7  1  0
 14 12  1  0
 14 16  1  0
 15 14  2  0
 17 16  1  0
 17 20  1  0
 17 18  1  1
 19 18  1  0
 20 22  2  0
 20 21  1  0
M  END
$$$$
