IVC.pdb
     RDKit          3D

 22 21  0  0  1  0  0  0  0  0999 V2000
   25.8211  -17.1479  -16.6270 C   0  0  0  0  0  0  0  0  0  0  0  0
   24.5291  -16.4022  -16.3239 C   0  0  0  0  0  0  0  0  0  0  0  0
   24.7269  -14.9037  -16.4311 C   0  0  2  0  0  0  0  0  0  0  0  0
   25.6655  -14.4975  -15.3136 C   0  0  0  0  0  0  0  0  0  0  0  0
   23.4051  -14.2341  -16.1762 C   0  0  2  0  0  0  0  0  0  0  0  0
   22.4121  -14.7860  -17.0505 N   0  0  0  0  0  0  0  0  0  0  0  0
   23.4836  -12.7561  -16.3349 C   0  0  0  0  0  0  0  0  0  0  0  0
   24.3011  -12.1013  -15.6208 O   0  0  0  0  0  0  0  0  0  0  0  0
   22.2161   -8.9367  -19.2432 C   0  0  0  0  0  0  0  0  0  0  0  0
   22.4997  -10.3579  -18.8923 C   0  0  1  0  0  0  0  0  0  0  0  0
   23.6595  -10.8483  -19.7205 C   0  0  0  0  0  0  0  0  0  0  0  0
   22.7543  -10.5803  -17.4014 C   0  0  2  0  0  0  0  0  0  0  0  0
   22.6932  -12.0418  -17.2415 N   0  0  0  0  0  0  0  0  0  0  0  0
   21.7138   -9.9875  -16.5550 C   0  0  0  0  0  0  0  0  0  0  0  0
   20.5338  -10.4813  -16.5621 O   0  0  0  0  0  0  0  0  0  0  0  0
   21.8761   -8.8826  -15.6930 N   0  0  0  0  0  0  0  0  0  0  0  0
   20.7992   -8.2831  -14.9289 C   0  0  1  0  0  0  0  0  0  0  0  0
   20.6799   -9.0642  -13.6413 C   0  0  0  0  0  0  0  0  0  0  0  0
   19.5036   -8.3058  -12.4928 S   0  0  0  0  0  0  0  0  0  0  0  0
   20.9724   -6.8495  -14.7181 C   0  0  0  0  0  0  0  0  0  0  0  0
   19.8648   -6.0203  -14.6907 O   0  0  0  0  0  0  0  0  0  0  0  0
   22.0945   -6.3175  -14.5573 O   0  0  0  0  0  0  0  0  0  0  0  0
  1  2  1  0
  2  3  1  0
  3  4  1  1
  5  3  1  0
  5  6  1  6
  7  8  2  0
  7  5  1  0
 10  9  1  1
 10 12  1  0
 11 10  1  0
 12 13  1  6
 13  7  1  0
 14 12  1  0
 14 16  1  0
 15 14  2  0
 17 16  1  0
 17 20  1  0
 17 18  1  1
 19 18  1  0
 20 22  2  0
 20 21  1  0
M  END
$$$$
