IVC.pdb
     RDKit          3D

 22 21  0  0  1  0  0  0  0  0999 V2000
   24.6053  -20.0903   -6.7049 C   0  0  0  0  0  0  0  0  0  0  0  0
   25.2418  -20.4871   -8.0296 C   0  0  0  0  0  0  0  0  0  0  0  0
   24.2234  -20.4659   -9.1513 C   0  0  2  0  0  0  0  0  0  0  0  0
   23.1673  -21.4979   -8.8133 C   0  0  0  0  0  0  0  0  0  0  0  0
   24.9041  -20.9138  -10.4149 C   0  0  2  0  0  0  0  0  0  0  0  0
   26.0130  -20.0492  -10.6938 N   0  0  0  0  0  0  0  0  0  0  0  0
   23.9685  -20.9600  -11.5717 C   0  0  0  0  0  0  0  0  0  0  0  0
   23.1776  -21.9439  -11.6868 O   0  0  0  0  0  0  0  0  0  0  0  0
   21.1968  -19.1261  -12.8803 C   0  0  0  0  0  0  0  0  0  0  0  0
   22.2404  -19.0340  -13.9413 C   0  0  1  0  0  0  0  0  0  0  0  0
   22.8890  -17.6750  -13.8783 C   0  0  0  0  0  0  0  0  0  0  0  0
   23.2856  -20.1471  -13.8688 C   0  0  2  0  0  0  0  0  0  0  0  0
   23.9146  -19.9627  -12.5513 N   0  0  0  0  0  0  0  0  0  0  0  0
   24.3278  -20.0124  -14.8918 C   0  0  0  0  0  0  0  0  0  0  0  0
   24.8093  -18.8575  -15.1575 O   0  0  0  0  0  0  0  0  0  0  0  0
   24.8853  -21.0630  -15.6505 N   0  0  0  0  0  0  0  0  0  0  0  0
   26.0345  -20.9144  -16.5224 C   0  0  1  0  0  0  0  0  0  0  0  0
   27.0246  -21.9893  -16.1394 C   0  0  0  0  0  0  0  0  0  0  0  0
   27.4046  -21.9637  -14.3695 S   0  0  0  0  0  0  0  0  0  0  0  0
   25.6869  -20.9310  -17.9397 C   0  0  0  0  0  0  0  0  0  0  0  0
   26.6277  -20.5548  -18.8823 O   0  0  0  0  0  0  0  0  0  0  0  0
   24.5579  -21.2750  -18.3580 O   0  0  0  0  0  0  0  0  0  0  0  0
  1  2  1  0
  2  3  1  0
  3  4  1  1
  5  3  1  0
  5  6  1  6
  7  8  2  0
  7  5  1  0
 10  9  1  1
 10 12  1  0
 11 10  1  0
 12 13  1  1
 13  7  1  0
 14 12  1  0
 14 16  1  0
 15 14  2  0
 17 16  1  0
 17 20  1  0
 17 18  1  6
 19 18  1  0
 20 22  2  0
 20 21  1  0
M  END
$$$$
