IVC.pdb
     RDKit          3D

 22 21  0  0  1  0  0  0  0  0999 V2000
   25.8550  -13.7954  -15.5841 C   0  0  0  0  0  0  0  0  0  0  0  0
   24.3332  -13.8257  -15.6104 C   0  0  0  0  0  0  0  0  0  0  0  0
   23.7703  -12.5044  -16.0934 C   0  0  2  0  0  0  0  0  0  0  0  0
   24.1112  -11.4655  -15.0450 C   0  0  0  0  0  0  0  0  0  0  0  0
   22.2721  -12.6203  -16.1436 C   0  0  2  0  0  0  0  0  0  0  0  0
   21.9058  -13.7528  -16.9424 N   0  0  0  0  0  0  0  0  0  0  0  0
   21.6293  -11.3812  -16.6607 C   0  0  0  0  0  0  0  0  0  0  0  0
   21.3031  -11.3195  -17.8841 O   0  0  0  0  0  0  0  0  0  0  0  0
   19.2720  -10.5897  -17.7970 C   0  0  0  0  0  0  0  0  0  0  0  0
   19.2674   -9.5704  -16.7087 C   0  0  1  0  0  0  0  0  0  0  0  0
   18.5579  -10.1368  -15.5057 C   0  0  0  0  0  0  0  0  0  0  0  0
   20.6619   -9.0652  -16.3386 C   0  0  2  0  0  0  0  0  0  0  0  0
   21.3625  -10.2668  -15.8582 N   0  0  0  0  0  0  0  0  0  0  0  0
   20.6380   -8.0870  -15.2462 C   0  0  0  0  0  0  0  0  0  0  0  0
   20.9307   -8.4576  -14.0574 O   0  0  0  0  0  0  0  0  0  0  0  0
   20.3139   -6.7192  -15.3652 N   0  0  0  0  0  0  0  0  0  0  0  0
   20.6083   -5.7234  -14.3530 C   0  0  1  0  0  0  0  0  0  0  0  0
   22.0972   -5.7719  -14.1019 C   0  0  0  0  0  0  0  0  0  0  0  0
   22.6262   -4.5181  -12.9077 S   0  0  0  0  0  0  0  0  0  0  0  0
   20.1266   -4.3904  -14.7005 C   0  0  0  0  0  0  0  0  0  0  0  0
   19.8656   -3.4714  -13.6992 O   0  0  0  0  0  0  0  0  0  0  0  0
   19.9323   -4.0253  -15.8825 O   0  0  0  0  0  0  0  0  0  0  0  0
  1  2  1  0
  2  3  1  0
  3  4  1  1
  5  3  1  0
  5  6  1  6
  7  8  2  0
  7  5  1  0
 10  9  1  6
 10 12  1  0
 11 10  1  0
 12 13  1  1
 13  7  1  0
 14 12  1  0
 14 16  1  0
 15 14  2  0
 17 16  1  0
 17 20  1  0
 17 18  1  6
 19 18  1  0
 20 22  2  0
 20 21  1  0
M  END
$$$$
