IVC.pdb
     RDKit          3D

 22 21  0  0  1  0  0  0  0  0999 V2000
   27.5325  -11.6937  -15.5207 C   0  0  0  0  0  0  0  0  0  0  0  0
   26.1019  -12.1733  -15.7223 C   0  0  0  0  0  0  0  0  0  0  0  0
   25.1835  -11.0182  -16.0665 C   0  0  2  0  0  0  0  0  0  0  0  0
   25.1346  -10.1118  -14.8538 C   0  0  0  0  0  0  0  0  0  0  0  0
   23.7986  -11.5638  -16.2785 C   0  0  2  0  0  0  0  0  0  0  0  0
   23.8413  -12.6129  -17.2545 N   0  0  0  0  0  0  0  0  0  0  0  0
   22.8334  -10.5058  -16.6845 C   0  0  0  0  0  0  0  0  0  0  0  0
   23.0247   -9.8796  -17.7700 O   0  0  0  0  0  0  0  0  0  0  0  0
   18.2287   -8.9137  -16.2762 C   0  0  0  0  0  0  0  0  0  0  0  0
   19.3965   -9.8407  -16.2873 C   0  0  1  0  0  0  0  0  0  0  0  0
   19.2611  -10.7905  -17.4496 C   0  0  0  0  0  0  0  0  0  0  0  0
   20.7461   -9.1233  -16.3164 C   0  0  2  0  0  0  0  0  0  0  0  0
   21.7121  -10.1611  -15.9223 N   0  0  0  0  0  0  0  0  0  0  0  0
   20.8285   -8.0327  -15.3394 C   0  0  0  0  0  0  0  0  0  0  0  0
   21.2713   -8.2683  -14.1627 O   0  0  0  0  0  0  0  0  0  0  0  0
   20.4574   -6.6901  -15.5627 N   0  0  0  0  0  0  0  0  0  0  0  0
   20.6878   -5.6154  -14.6167 C   0  0  1  0  0  0  0  0  0  0  0  0
   22.1824   -5.5029  -14.4276 C   0  0  0  0  0  0  0  0  0  0  0  0
   22.6272   -4.1354  -13.3276 S   0  0  0  0  0  0  0  0  0  0  0  0
   20.0616   -4.3577  -15.0114 C   0  0  0  0  0  0  0  0  0  0  0  0
   19.5946   -3.4884  -14.0412 O   0  0  0  0  0  0  0  0  0  0  0  0
   19.9209   -4.0153  -16.2077 O   0  0  0  0  0  0  0  0  0  0  0  0
  1  2  1  0
  2  3  1  0
  3  4  1  1
  5  3  1  0
  5  6  1  6
  7  8  2  0
  7  5  1  0
 10  9  1  6
 10 12  1  0
 11 10  1  0
 12 13  1  1
 13  7  1  0
 14 12  1  0
 14 16  1  0
 15 14  2  0
 17 16  1  0
 17 20  1  0
 17 18  1  6
 19 18  1  0
 20 22  2  0
 20 21  1  0
M  END
$$$$
