RSW.pdb
     RDKit          3D

 32 33  0  0  1  0  0  0  0  0999 V2000
   14.6532  -19.6542   14.6334 N   0  0  0  0  0  0  0  0  0  0  0  0
   15.0404  -19.7438   15.9791 C   0  0  0  0  0  0  0  0  0  0  0  0
   16.1577  -20.2926   16.3041 N   0  0  0  0  0  0  0  0  0  0  0  0
   14.2488  -19.2483   17.0610 N   0  0  0  0  0  0  0  0  0  0  0  0
   12.9548  -18.6205   16.8057 C   0  0  0  0  0  0  0  0  0  0  0  0
   11.8295  -19.4574   17.3808 C   0  0  0  0  0  0  0  0  0  0  0  0
   11.3093  -18.7709   18.6225 C   0  0  0  0  0  0  0  0  0  0  0  0
    9.8361  -18.9265   18.8099 C   0  0  2  0  0  0  0  0  0  0  0  0
    9.1870  -18.7293   17.5290 N   0  0  0  0  0  0  0  0  0  0  0  0
    9.2891  -18.0214   19.8505 C   0  0  0  0  0  0  0  0  0  0  0  0
    8.9401  -16.8623   19.5127 O   0  0  0  0  0  0  0  0  0  0  0  0
   16.4561  -20.3623   17.3067 O   0  0  0  0  0  0  0  0  0  0  0  0
    7.2919  -19.4221   23.0582 C   0  0  0  0  0  0  0  0  0  0  0  0
    7.2030  -18.1241   22.5886 C   0  0  1  0  0  0  0  0  0  0  0  0
    8.5565  -17.5642   22.2180 N   0  0  0  0  0  0  0  0  0  0  0  0
    9.1352  -18.3829   21.2039 C   0  0  0  0  0  0  0  0  0  0  0  0
    9.3974  -17.4098   23.4271 O   0  0  0  0  0  0  0  0  0  0  0  0
   10.3558  -18.1855   23.6242 N   0  0  0  0  0  0  0  0  0  0  0  0
    9.1450  -16.4004   24.3734 C   0  0  1  0  0  0  0  0  0  0  0  0
    9.9254  -16.4066   25.6209 C   0  0  0  0  0  0  0  0  0  0  0  0
    9.6195  -15.1583   26.4096 C   0  0  0  0  0  0  0  0  0  0  0  0
    8.2184  -14.7242   26.3731 C   0  0  0  0  0  0  0  0  0  0  0  0
    7.1733  -15.6257   26.5220 N   0  0  0  0  0  0  0  0  0  0  0  0
    6.0389  -14.9397   26.5050 C   0  0  0  0  0  0  0  0  0  0  0  0
    6.2683  -13.6256   26.3513 C   0  0  0  0  0  0  0  0  0  0  0  0
    5.4143  -12.5410   26.2639 C   0  0  0  0  0  0  0  0  0  0  0  0
    5.9838  -11.3013   26.0854 C   0  0  0  0  0  0  0  0  0  0  0  0
    7.3311  -11.1285   25.9953 C   0  0  0  0  0  0  0  0  0  0  0  0
    8.1753  -12.2243   26.0850 C   0  0  0  0  0  0  0  0  0  0  0  0
    7.6506  -13.4957   26.2672 C   0  0  0  0  0  0  0  0  0  0  0  0
    9.5360  -17.6040   26.3713 O   0  0  0  0  0  0  0  0  0  0  0  0
    8.5204  -18.2949   26.1060 O   0  0  0  0  0  0  0  0  0  0  0  0
  2  3  2  0
  2  1  1  0
  4  2  1  0
  5  4  1  0
  6  5  1  0
  7  6  1  0
  7  8  1  0
  8  9  1  6
 10  8  1  0
 10 11  2  0
 13 12  1  0
 14 13  1  6
 14 15  1  0
 15 10  1  0
 16 18  1  0
 16 14  1  0
 17 16  2  0
 19 18  1  0
 19 30  1  0
 20 21  1  0
 19 20  1  1
 21 29  1  0
 22 23  1  0
 22 21  2  0
 23 24  1  0
 24 29  2  0
 24 25  1  0
 25 26  2  0
 26 27  1  0
 28 27  2  0
 29 28  1  0
 30 31  2  0
 30 32  1  0
M  END
$$$$
