RSW.pdb
     RDKit          3D

 32 33  0  0  1  0  0  0  0  0999 V2000
    6.8245  -14.3111   13.7651 N   0  0  0  0  0  0  0  0  0  0  0  0
    7.9733  -13.5063   13.8020 C   0  0  0  0  0  0  0  0  0  0  0  0
    8.5321  -13.1120   12.7123 N   0  0  0  0  0  0  0  0  0  0  0  0
    8.5941  -13.0750   15.0149 N   0  0  0  0  0  0  0  0  0  0  0  0
    8.6209  -13.9487   16.1852 C   0  0  0  0  0  0  0  0  0  0  0  0
    7.3091  -13.8738   16.9408 C   0  0  0  0  0  0  0  0  0  0  0  0
    7.6117  -13.6329   18.4017 C   0  0  0  0  0  0  0  0  0  0  0  0
    8.7427  -14.4617   18.9150 C   0  0  2  0  0  0  0  0  0  0  0  0
    9.0559  -15.4739   17.9259 N   0  0  0  0  0  0  0  0  0  0  0  0
    8.4629  -15.0578   20.2445 C   0  0  0  0  0  0  0  0  0  0  0  0
    7.5117  -14.5923   20.9213 O   0  0  0  0  0  0  0  0  0  0  0  0
    8.0608  -13.2393   11.7845 O   0  0  0  0  0  0  0  0  0  0  0  0
   10.1084  -18.7391   21.2712 C   0  0  0  0  0  0  0  0  0  0  0  0
    8.8804  -18.2996   21.7317 C   0  0  1  0  0  0  0  0  0  0  0  0
    8.8787  -16.8135   22.0039 N   0  0  0  0  0  0  0  0  0  0  0  0
    9.2024  -16.1211   20.7999 C   0  0  0  0  0  0  0  0  0  0  0  0
    9.7701  -16.4987   23.1437 O   0  0  0  0  0  0  0  0  0  0  0  0
   10.9542  -16.1614   22.9357 N   0  0  0  0  0  0  0  0  0  0  0  0
    9.3157  -16.5691   24.4728 C   0  0  1  0  0  0  0  0  0  0  0  0
   10.3032  -16.4204   25.5536 C   0  0  0  0  0  0  0  0  0  0  0  0
    9.9701  -15.1986   26.3722 C   0  0  0  0  0  0  0  0  0  0  0  0
    8.5603  -14.7927   26.3430 C   0  0  0  0  0  0  0  0  0  0  0  0
    7.5348  -15.7275   26.3028 N   0  0  0  0  0  0  0  0  0  0  0  0
    6.3839  -15.0706   26.3440 C   0  0  0  0  0  0  0  0  0  0  0  0
    6.5837  -13.7443   26.4086 C   0  0  0  0  0  0  0  0  0  0  0  0
    5.7050  -12.6771   26.4552 C   0  0  0  0  0  0  0  0  0  0  0  0
    6.2475  -11.4135   26.4985 C   0  0  0  0  0  0  0  0  0  0  0  0
    7.5922  -11.2013   26.4956 C   0  0  0  0  0  0  0  0  0  0  0  0
    8.4614  -12.2801   26.4491 C   0  0  0  0  0  0  0  0  0  0  0  0
    7.9643  -13.5747   26.4065 C   0  0  0  0  0  0  0  0  0  0  0  0
   10.2335  -17.6318   26.3758 O   0  0  0  0  0  0  0  0  0  0  0  0
    9.3343  -18.5022   26.2622 O   0  0  0  0  0  0  0  0  0  0  0  0
  2  3  2  0
  2  1  1  0
  4  2  1  0
  5  4  1  0
  6  5  1  0
  7  6  1  0
  7  8  1  0
  8  9  1  6
 10  8  1  0
 10 11  2  0
 13 12  1  0
 14 13  1  6
 14 15  1  0
 15 10  1  0
 16 18  1  0
 16 14  1  0
 17 16  2  0
 19 18  1  0
 19 30  1  0
 20 21  1  0
 19 20  1  1
 21 29  1  0
 22 23  1  0
 22 21  2  0
 23 24  1  0
 24 29  2  0
 24 25  1  0
 25 26  2  0
 26 27  1  0
 28 27  2  0
 29 28  1  0
 30 31  2  0
 30 32  1  0
M  END
$$$$
