RSW.pdb
     RDKit          3D

 32 33  0  0  1  0  0  0  0  0999 V2000
    7.9736  -13.1487   14.6366 N   0  0  0  0  0  0  0  0  0  0  0  0
    8.8251  -14.2201   14.9465 C   0  0  0  0  0  0  0  0  0  0  0  0
    9.6563  -14.6698   14.0735 N   0  0  0  0  0  0  0  0  0  0  0  0
    8.8355  -14.8760   16.2162 N   0  0  0  0  0  0  0  0  0  0  0  0
    7.5974  -15.0472   16.9721 C   0  0  0  0  0  0  0  0  0  0  0  0
    7.1736  -13.7398   17.6110 C   0  0  0  0  0  0  0  0  0  0  0  0
    6.9501  -13.9787   19.0863 C   0  0  0  0  0  0  0  0  0  0  0  0
    8.2131  -13.9778   19.8827 C   0  0  2  0  0  0  0  0  0  0  0  0
    9.3300  -14.1350   18.9723 N   0  0  0  0  0  0  0  0  0  0  0  0
    8.2221  -15.0087   20.9497 C   0  0  0  0  0  0  0  0  0  0  0  0
    7.2660  -15.0349   21.7650 O   0  0  0  0  0  0  0  0  0  0  0  0
   10.3023  -15.4642   14.2989 O   0  0  0  0  0  0  0  0  0  0  0  0
   11.3712  -17.7469   21.2206 C   0  0  0  0  0  0  0  0  0  0  0  0
   10.1068  -18.1361   21.6245 C   0  0  1  0  0  0  0  0  0  0  0  0
    9.2889  -16.9675   22.1226 N   0  0  0  0  0  0  0  0  0  0  0  0
    9.2430  -15.9672   21.1072 C   0  0  0  0  0  0  0  0  0  0  0  0
    9.8137  -16.4897   23.4223 O   0  0  0  0  0  0  0  0  0  0  0  0
   10.7337  -15.6461   23.4521 N   0  0  0  0  0  0  0  0  0  0  0  0
    9.2985  -16.9647   24.6418 C   0  0  1  0  0  0  0  0  0  0  0  0
    9.9924  -16.5870   25.8834 C   0  0  0  0  0  0  0  0  0  0  0  0
    8.9745  -16.2603   26.9468 C   0  0  0  0  0  0  0  0  0  0  0  0
    7.9554  -15.2798   26.5556 C   0  0  0  0  0  0  0  0  0  0  0  0
    6.7337  -15.6722   26.0257 N   0  0  0  0  0  0  0  0  0  0  0  0
    6.0072  -14.5810   25.8272 C   0  0  0  0  0  0  0  0  0  0  0  0
    6.6779  -13.4775   26.1952 C   0  0  0  0  0  0  0  0  0  0  0  0
    6.3418  -12.1361   26.1625 C   0  0  0  0  0  0  0  0  0  0  0  0
    7.2847  -11.2376   26.6057 C   0  0  0  0  0  0  0  0  0  0  0  0
    8.5052  -11.6327   27.0612 C   0  0  0  0  0  0  0  0  0  0  0  0
    8.8287  -12.9804   27.0888 C   0  0  0  0  0  0  0  0  0  0  0  0
    7.9116  -13.9266   26.6546 C   0  0  0  0  0  0  0  0  0  0  0  0
   10.8161  -17.7306   26.2860 O   0  0  0  0  0  0  0  0  0  0  0  0
   10.8337  -18.8284   25.6747 O   0  0  0  0  0  0  0  0  0  0  0  0
  2  3  2  0
  2  1  1  0
  4  2  1  0
  5  4  1  0
  6  5  1  0
  7  6  1  0
  7  8  1  0
  8  9  1  6
 10  8  1  0
 10 11  2  0
 13 12  1  0
 14 13  1  6
 14 15  1  0
 15 10  1  0
 16 18  1  0
 16 14  1  0
 17 16  2  0
 19 18  1  0
 19 30  1  0
 20 21  1  0
 19 20  1  1
 21 29  1  0
 22 23  1  0
 22 21  2  0
 23 24  1  0
 24 29  2  0
 24 25  1  0
 25 26  2  0
 26 27  1  0
 28 27  2  0
 29 28  1  0
 30 31  2  0
 30 32  1  0
M  END
$$$$
