RSW.pdb
     RDKit          3D

 32 33  0  0  1  0  0  0  0  0999 V2000
    9.4920  -12.7693   15.3967 N   0  0  0  0  0  0  0  0  0  0  0  0
    8.7382  -13.7354   14.7132 C   0  0  0  0  0  0  0  0  0  0  0  0
    8.9127  -13.9319   13.4538 N   0  0  0  0  0  0  0  0  0  0  0  0
    7.7479  -14.5515   15.3424 N   0  0  0  0  0  0  0  0  0  0  0  0
    7.7014  -14.6712   16.7974 C   0  0  0  0  0  0  0  0  0  0  0  0
    7.9535  -13.3288   17.4546 C   0  0  0  0  0  0  0  0  0  0  0  0
    7.9016  -13.5128   18.9536 C   0  0  0  0  0  0  0  0  0  0  0  0
    9.1542  -14.0951   19.5207 C   0  0  2  0  0  0  0  0  0  0  0  0
    9.8235  -14.8478   18.4785 N   0  0  0  0  0  0  0  0  0  0  0  0
    8.9097  -14.9222   20.7280 C   0  0  0  0  0  0  0  0  0  0  0  0
    8.2682  -14.4144   21.6819 O   0  0  0  0  0  0  0  0  0  0  0  0
    8.3800  -14.6761   12.9423 O   0  0  0  0  0  0  0  0  0  0  0  0
   10.7936  -18.6386   21.2922 C   0  0  0  0  0  0  0  0  0  0  0  0
    9.4605  -18.5140   21.6391 C   0  0  1  0  0  0  0  0  0  0  0  0
    9.1012  -17.0908   21.9972 N   0  0  0  0  0  0  0  0  0  0  0  0
    9.3551  -16.2514   20.8728 C   0  0  0  0  0  0  0  0  0  0  0  0
    9.8045  -16.6788   23.2336 O   0  0  0  0  0  0  0  0  0  0  0  0
   10.9576  -16.2044   23.1674 N   0  0  0  0  0  0  0  0  0  0  0  0
    9.2031  -16.8077   24.4984 C   0  0  1  0  0  0  0  0  0  0  0  0
   10.0172  -16.5125   25.6883 C   0  0  0  0  0  0  0  0  0  0  0  0
    9.6947  -15.1256   26.1846 C   0  0  0  0  0  0  0  0  0  0  0  0
    8.2840  -14.7364   26.0776 C   0  0  0  0  0  0  0  0  0  0  0  0
    7.2916  -15.6668   25.8006 N   0  0  0  0  0  0  0  0  0  0  0  0
    6.1252  -15.0367   25.8251 C   0  0  0  0  0  0  0  0  0  0  0  0
    6.2835  -13.7325   26.1029 C   0  0  0  0  0  0  0  0  0  0  0  0
    5.3768  -12.6944   26.2196 C   0  0  0  0  0  0  0  0  0  0  0  0
    5.8797  -11.4451   26.5007 C   0  0  0  0  0  0  0  0  0  0  0  0
    7.2126  -11.2190   26.6604 C   0  0  0  0  0  0  0  0  0  0  0  0
    8.1101  -12.2687   26.5412 C   0  0  0  0  0  0  0  0  0  0  0  0
    7.6531  -13.5484   26.2606 C   0  0  0  0  0  0  0  0  0  0  0  0
    9.6854  -17.5177   26.7021 O   0  0  0  0  0  0  0  0  0  0  0  0
    8.7991  -18.3956   26.5515 O   0  0  0  0  0  0  0  0  0  0  0  0
  2  3  2  0
  2  1  1  0
  4  2  1  0
  5  4  1  0
  6  5  1  0
  7  6  1  0
  7  8  1  0
  8  9  1  6
 10  8  1  0
 10 11  2  0
 13 12  1  0
 14 13  1  6
 14 15  1  0
 15 10  1  0
 16 18  1  0
 16 14  1  0
 17 16  2  0
 19 18  1  0
 19 30  1  0
 20 21  1  0
 19 20  1  1
 21 29  1  0
 22 23  1  0
 22 21  2  0
 23 24  1  0
 24 29  2  0
 24 25  1  0
 25 26  2  0
 26 27  1  0
 28 27  2  0
 29 28  1  0
 30 31  2  0
 30 32  1  0
M  END
$$$$
