RSW.pdb
     RDKit          3D

 32 33  0  0  1  0  0  0  0  0999 V2000
    9.2816  -14.6975   13.7575 N   0  0  0  0  0  0  0  0  0  0  0  0
    8.5113  -13.8129   14.5275 C   0  0  0  0  0  0  0  0  0  0  0  0
    7.3292  -13.4739   14.1491 N   0  0  0  0  0  0  0  0  0  0  0  0
    8.9649  -13.2363   15.7540 N   0  0  0  0  0  0  0  0  0  0  0  0
    8.9824  -14.0263   16.9824 C   0  0  0  0  0  0  0  0  0  0  0  0
    7.5833  -14.4798   17.3487 C   0  0  0  0  0  0  0  0  0  0  0  0
    7.6599  -15.2824   18.6268 C   0  0  0  0  0  0  0  0  0  0  0  0
    8.4674  -16.5311   18.4924 C   0  0  2  0  0  0  0  0  0  0  0  0
    7.6823  -17.5097   17.7666 N   0  0  0  0  0  0  0  0  0  0  0  0
    8.9350  -17.0581   19.7982 C   0  0  0  0  0  0  0  0  0  0  0  0
    8.0790  -17.4885   20.6114 O   0  0  0  0  0  0  0  0  0  0  0  0
    6.7517  -12.8032   14.7110 O   0  0  0  0  0  0  0  0  0  0  0  0
   12.9786  -16.6878   21.0744 C   0  0  0  0  0  0  0  0  0  0  0  0
   12.2501  -17.8317   21.3461 C   0  0  1  0  0  0  0  0  0  0  0  0
   10.7705  -17.5460   21.4546 N   0  0  0  0  0  0  0  0  0  0  0  0
   10.2889  -17.1064   20.1863 C   0  0  0  0  0  0  0  0  0  0  0  0
   10.5096  -16.6005   22.5640 O   0  0  0  0  0  0  0  0  0  0  0  0
   10.5098  -15.3705   22.3493 N   0  0  0  0  0  0  0  0  0  0  0  0
   10.2577  -17.0538   23.8714 C   0  0  1  0  0  0  0  0  0  0  0  0
    9.9980  -16.0509   24.9166 C   0  0  0  0  0  0  0  0  0  0  0  0
    8.5338  -15.6907   24.9128 C   0  0  0  0  0  0  0  0  0  0  0  0
    8.0989  -14.8329   26.0211 C   0  0  0  0  0  0  0  0  0  0  0  0
    8.2697  -15.2127   27.3453 N   0  0  0  0  0  0  0  0  0  0  0  0
    7.8394  -14.2201   28.1118 C   0  0  0  0  0  0  0  0  0  0  0  0
    7.3881  -13.1951   27.3711 C   0  0  0  0  0  0  0  0  0  0  0  0
    6.8413  -11.9728   27.7179 C   0  0  0  0  0  0  0  0  0  0  0  0
    6.4555  -11.1397   26.6932 C   0  0  0  0  0  0  0  0  0  0  0  0
    6.5971  -11.4865   25.3844 C   0  0  0  0  0  0  0  0  0  0  0  0
    7.1470  -12.7145   25.0511 C   0  0  0  0  0  0  0  0  0  0  0  0
    7.5540  -13.5899   26.0477 C   0  0  0  0  0  0  0  0  0  0  0  0
   10.3829  -16.6491   26.1981 O   0  0  0  0  0  0  0  0  0  0  0  0
   10.2759  -17.8741   26.4573 O   0  0  0  0  0  0  0  0  0  0  0  0
  2  3  2  0
  2  1  1  0
  4  2  1  0
  5  4  1  0
  6  5  1  0
  7  6  1  0
  7  8  1  0
  8  9  1  1
 10  8  1  0
 10 11  2  0
 13 12  1  0
 14 13  1  6
 14 15  1  0
 15 10  1  0
 16 18  1  0
 16 14  1  0
 17 16  2  0
 19 18  1  0
 19 30  1  0
 20 21  1  0
 19 20  1  1
 21 29  1  0
 22 23  1  0
 22 21  2  0
 23 24  1  0
 24 29  2  0
 24 25  1  0
 25 26  2  0
 26 27  1  0
 28 27  2  0
 29 28  1  0
 30 31  2  0
 30 32  1  0
M  END
$$$$
