RSW.pdb
     RDKit          3D

 32 33  0  0  1  0  0  0  0  0999 V2000
   10.6659  -19.5903   14.7038 N   0  0  0  0  0  0  0  0  0  0  0  0
   11.8399  -19.4652   15.4622 C   0  0  0  0  0  0  0  0  0  0  0  0
   12.8485  -20.2321   15.2393 N   0  0  0  0  0  0  0  0  0  0  0  0
   12.0025  -18.5064   16.5095 N   0  0  0  0  0  0  0  0  0  0  0  0
   11.1677  -18.5678   17.7066 C   0  0  0  0  0  0  0  0  0  0  0  0
   11.3659  -19.8837   18.4321 C   0  0  0  0  0  0  0  0  0  0  0  0
   10.5482  -19.8574   19.7026 C   0  0  0  0  0  0  0  0  0  0  0  0
    9.3214  -19.0127   19.5979 C   0  0  2  0  0  0  0  0  0  0  0  0
    8.9337  -18.9372   18.2033 N   0  0  0  0  0  0  0  0  0  0  0  0
    9.4965  -17.6660   20.1953 C   0  0  0  0  0  0  0  0  0  0  0  0
   10.6643  -17.2380   20.3754 O   0  0  0  0  0  0  0  0  0  0  0  0
   13.7011  -20.1974   15.8484 O   0  0  0  0  0  0  0  0  0  0  0  0
    6.2842  -15.1932   20.5932 C   0  0  0  0  0  0  0  0  0  0  0  0
    7.5353  -14.6165   20.7168 C   0  0  1  0  0  0  0  0  0  0  0  0
    8.5532  -15.5888   21.2658 N   0  0  0  0  0  0  0  0  0  0  0  0
    8.4274  -16.8306   20.5761 C   0  0  0  0  0  0  0  0  0  0  0  0
    8.4210  -15.6951   22.7369 O   0  0  0  0  0  0  0  0  0  0  0  0
    7.4599  -15.1500   23.3185 N   0  0  0  0  0  0  0  0  0  0  0  0
    9.3594  -16.4027   23.5094 C   0  0  1  0  0  0  0  0  0  0  0  0
    9.8504  -15.7795   24.7488 C   0  0  0  0  0  0  0  0  0  0  0  0
    8.8546  -16.0145   25.8565 C   0  0  0  0  0  0  0  0  0  0  0  0
    7.6677  -15.1525   25.8224 C   0  0  0  0  0  0  0  0  0  0  0  0
    6.4148  -15.6523   25.4943 N   0  0  0  0  0  0  0  0  0  0  0  0
    5.5402  -14.6620   25.6050 C   0  0  0  0  0  0  0  0  0  0  0  0
    6.1409  -13.5242   25.9890 C   0  0  0  0  0  0  0  0  0  0  0  0
    5.6513  -12.2512   26.2193 C   0  0  0  0  0  0  0  0  0  0  0  0
    6.5561  -11.2842   26.5923 C   0  0  0  0  0  0  0  0  0  0  0  0
    7.8838  -11.5495   26.7339 C   0  0  0  0  0  0  0  0  0  0  0  0
    8.3608  -12.8299   26.5004 C   0  0  0  0  0  0  0  0  0  0  0  0
    7.4885  -13.8411   26.1239 C   0  0  0  0  0  0  0  0  0  0  0  0
   11.1387  -16.4017   25.0673 O   0  0  0  0  0  0  0  0  0  0  0  0
   11.6210  -17.3732   24.4328 O   0  0  0  0  0  0  0  0  0  0  0  0
  2  3  2  0
  2  1  1  0
  4  2  1  0
  5  4  1  0
  6  5  1  0
  7  6  1  0
  7  8  1  0
  8  9  1  6
 10  8  1  0
 10 11  2  0
 13 12  1  0
 14 13  1  6
 14 15  1  0
 15 10  1  0
 16 18  1  0
 16 14  1  0
 17 16  2  0
 19 18  1  0
 19 30  1  0
 20 21  1  0
 19 20  1  6
 21 29  1  0
 22 23  1  0
 22 21  2  0
 23 24  1  0
 24 29  2  0
 24 25  1  0
 25 26  2  0
 26 27  1  0
 28 27  2  0
 29 28  1  0
 30 31  2  0
 30 32  1  0
M  END
$$$$
