DNR.pdb
     RDKit          3D

 28 27  0  0  1  0  0  0  0  0999 V2000
   20.7683  -17.5065  -16.9849 N   0  0  0  0  0  0  0  0  0  0  0  0
   20.7506  -18.3354  -15.8005 C   0  0  1  0  0  0  0  0  0  0  0  0
   19.3803  -19.0169  -15.6724 C   0  0  0  0  0  0  0  0  0  0  0  0
   18.3148  -18.0422  -15.4284 C   0  0  0  0  0  0  0  0  0  0  0  0
   18.5208  -16.8030  -15.3936 O   0  0  0  0  0  0  0  0  0  0  0  0
   21.7204  -19.4574  -15.9480 C   0  0  0  0  0  0  0  0  0  0  0  0
   21.7773  -20.3789  -15.1109 O   0  0  0  0  0  0  0  0  0  0  0  0
   17.0012  -18.4770  -15.2214 O   0  0  0  0  0  0  0  0  0  0  0  0
   25.7535  -22.4173  -17.6541 N   0  0  0  0  0  0  0  0  0  0  0  0
   25.1410  -21.7799  -18.7450 C   0  0  0  0  0  0  0  0  0  0  0  0
   25.5041  -22.1292  -19.9013 O   0  0  0  0  0  0  0  0  0  0  0  0
   24.1274  -20.7563  -18.5873 C   0  0  0  0  0  0  0  0  0  0  0  0
   23.6293  -20.5110  -17.2054 C   0  0  2  0  0  0  0  0  0  0  0  0
   22.6226  -19.5087  -17.0675 N   0  0  0  0  0  0  0  0  0  0  0  0
   24.7936  -20.1753  -16.3280 C   0  0  0  0  0  0  0  0  0  0  0  0
   25.4163  -19.1078  -16.5568 O   0  0  0  0  0  0  0  0  0  0  0  0
   24.8566  -21.2535   -8.0666 N   0  0  0  0  0  0  0  0  0  0  0  0
   24.1207  -21.0396   -9.2739 C   0  0  0  0  0  0  0  0  0  0  0  0
   22.8198  -21.0433   -9.1939 N   0  0  0  0  0  0  0  0  0  0  0  0
   24.8087  -20.8358  -10.4755 N   0  0  0  0  0  0  0  0  0  0  0  0
   26.2578  -21.1510  -10.5342 C   0  0  0  0  0  0  0  0  0  0  0  0
   26.7130  -20.6991  -11.8621 C   0  0  0  0  0  0  0  0  0  0  0  0
   25.9271  -20.8861  -13.0658 C   0  0  0  0  0  0  0  0  0  0  0  0
   26.3600  -20.5463  -14.4363 C   0  0  2  0  0  0  0  0  0  0  0  0
   25.2097  -20.9984  -15.2734 N   0  0  0  0  0  0  0  0  0  0  0  0
   27.5214  -21.2418  -14.9978 C   0  0  0  0  0  0  0  0  0  0  0  0
   28.8046  -20.6391  -15.0086 O   0  0  0  0  0  0  0  0  0  0  0  0
   27.4493  -22.3735  -15.4860 O   0  0  0  0  0  0  0  0  0  0  0  0
  2  1  1  6
  2  3  1  0
  3  4  1  0
  4  8  1  0
  4  5  2  0
  6 14  1  0
  6  2  1  0
  7  6  2  0
  9 10  1  0
 10 11  2  0
 12 10  1  0
 13 12  1  6
 13 14  1  0
 15 16  2  0
 15 13  1  0
 18 17  1  0
 19 18  2  0
 20 18  1  0
 21 20  1  0
 22 21  1  0
 22 23  1  0
 24 23  1  1
 24 26  1  0
 24 25  1  0
 25 15  1  0
 26 27  1  0
 28 26  2  0
M  END
$$$$
