DNR.pdb
     RDKit          3D

 28 27  0  0  1  0  0  0  0  0999 V2000
   18.1881  -24.4635   -7.3758 N   0  0  0  0  0  0  0  0  0  0  0  0
   17.9637  -25.2282   -8.5820 C   0  0  1  0  0  0  0  0  0  0  0  0
   16.4728  -25.5777   -8.6973 C   0  0  0  0  0  0  0  0  0  0  0  0
   16.0495  -26.4901   -7.6328 C   0  0  0  0  0  0  0  0  0  0  0  0
   16.8088  -27.3638   -7.1433 O   0  0  0  0  0  0  0  0  0  0  0  0
   18.2508  -24.3889   -9.7795 C   0  0  0  0  0  0  0  0  0  0  0  0
   17.8775  -23.2015   -9.8432 O   0  0  0  0  0  0  0  0  0  0  0  0
   14.7512  -26.4114   -7.1174 O   0  0  0  0  0  0  0  0  0  0  0  0
   20.2285  -22.6544  -14.3406 N   0  0  0  0  0  0  0  0  0  0  0  0
   20.9213  -23.8099  -13.9450 C   0  0  0  0  0  0  0  0  0  0  0  0
   21.9208  -24.1530  -14.6335 O   0  0  0  0  0  0  0  0  0  0  0  0
   20.5325  -24.6026  -12.7958 C   0  0  0  0  0  0  0  0  0  0  0  0
   19.3348  -24.1451  -12.0380 C   0  0  2  0  0  0  0  0  0  0  0  0
   18.9716  -24.9285  -10.9016 N   0  0  0  0  0  0  0  0  0  0  0  0
   18.1750  -24.0601  -12.9790 C   0  0  0  0  0  0  0  0  0  0  0  0
   17.3702  -25.0250  -13.0122 O   0  0  0  0  0  0  0  0  0  0  0  0
   13.7904  -20.3211   -9.9887 N   0  0  0  0  0  0  0  0  0  0  0  0
   15.1325  -20.8059  -10.0814 C   0  0  0  0  0  0  0  0  0  0  0  0
   15.6564  -21.3338   -9.0111 N   0  0  0  0  0  0  0  0  0  0  0  0
   15.8229  -20.7007  -11.2942 N   0  0  0  0  0  0  0  0  0  0  0  0
   15.1605  -20.0297  -12.4403 C   0  0  0  0  0  0  0  0  0  0  0  0
   15.6394  -20.7300  -13.6465 C   0  0  0  0  0  0  0  0  0  0  0  0
   15.7714  -22.1720  -13.7153 C   0  0  0  0  0  0  0  0  0  0  0  0
   16.6911  -22.9093  -14.6050 C   0  0  2  0  0  0  0  0  0  0  0  0
   17.9566  -22.9570  -13.8146 N   0  0  0  0  0  0  0  0  0  0  0  0
   17.0748  -22.2972  -15.8801 C   0  0  0  0  0  0  0  0  0  0  0  0
   16.2053  -22.3244  -16.9996 O   0  0  0  0  0  0  0  0  0  0  0  0
   18.1597  -21.7327  -16.0493 O   0  0  0  0  0  0  0  0  0  0  0  0
  2  1  1  1
  2  3  1  0
  3  4  1  0
  4  8  1  0
  4  5  2  0
  6 14  1  0
  6  2  1  0
  7  6  2  0
  9 10  1  0
 10 11  2  0
 12 10  1  0
 13 12  1  6
 13 14  1  0
 15 16  2  0
 15 13  1  0
 18 17  1  0
 19 18  2  0
 20 18  1  0
 21 20  1  0
 22 21  1  0
 22 23  1  0
 24 23  1  1
 24 26  1  0
 24 25  1  0
 25 15  1  0
 26 27  1  0
 28 26  2  0
M  END
$$$$
