DNR.pdb
     RDKit          3D

 28 27  0  0  1  0  0  0  0  0999 V2000
   27.8911  -19.5089  -18.8090 N   0  0  0  0  0  0  0  0  0  0  0  0
   27.3447  -20.4177  -19.7916 C   0  0  1  0  0  0  0  0  0  0  0  0
   28.4905  -21.1474  -20.5079 C   0  0  0  0  0  0  0  0  0  0  0  0
   29.7914  -20.8088  -19.9267 C   0  0  0  0  0  0  0  0  0  0  0  0
   29.9374  -19.9065  -19.0641 O   0  0  0  0  0  0  0  0  0  0  0  0
   26.5716  -21.4971  -19.1145 C   0  0  0  0  0  0  0  0  0  0  0  0
   26.7731  -22.6992  -19.3745 O   0  0  0  0  0  0  0  0  0  0  0  0
   30.9396  -21.5004  -20.3276 O   0  0  0  0  0  0  0  0  0  0  0  0
   25.3221  -24.2773  -14.4950 N   0  0  0  0  0  0  0  0  0  0  0  0
   25.1181  -24.1846  -15.8811 C   0  0  0  0  0  0  0  0  0  0  0  0
   24.3255  -25.0118  -16.4087 O   0  0  0  0  0  0  0  0  0  0  0  0
   25.7748  -23.1904  -16.7059 C   0  0  0  0  0  0  0  0  0  0  0  0
   24.9018  -22.1748  -17.3575 C   0  0  2  0  0  0  0  0  0  0  0  0
   25.5659  -21.1798  -18.1359 N   0  0  0  0  0  0  0  0  0  0  0  0
   24.0674  -21.5138  -16.3064 C   0  0  0  0  0  0  0  0  0  0  0  0
   24.5804  -20.5710  -15.6523 O   0  0  0  0  0  0  0  0  0  0  0  0
   25.9305  -20.5679   -9.5370 N   0  0  0  0  0  0  0  0  0  0  0  0
   24.5044  -20.6443   -9.4639 C   0  0  0  0  0  0  0  0  0  0  0  0
   23.9700  -20.7964   -8.2849 N   0  0  0  0  0  0  0  0  0  0  0  0
   23.7466  -20.5532  -10.6370 N   0  0  0  0  0  0  0  0  0  0  0  0
   24.4450  -20.3169  -11.9250 C   0  0  0  0  0  0  0  0  0  0  0  0
   23.3829  -20.1962  -12.9409 C   0  0  0  0  0  0  0  0  0  0  0  0
   22.9885  -21.2972  -13.7974 C   0  0  0  0  0  0  0  0  0  0  0  0
   22.0298  -21.2139  -14.9177 C   0  0  2  0  0  0  0  0  0  0  0  0
   22.7507  -21.9034  -16.0283 N   0  0  0  0  0  0  0  0  0  0  0  0
   21.6954  -19.8933  -15.4581 C   0  0  0  0  0  0  0  0  0  0  0  0
   20.8061  -19.0242  -14.7771 O   0  0  0  0  0  0  0  0  0  0  0  0
   22.1612  -19.4697  -16.5202 O   0  0  0  0  0  0  0  0  0  0  0  0
  2  1  1  1
  2  3  1  0
  3  4  1  0
  4  8  1  0
  4  5  2  0
  6 14  1  0
  6  2  1  0
  7  6  2  0
  9 10  1  0
 10 11  2  0
 12 10  1  0
 13 12  1  1
 13 14  1  0
 15 16  2  0
 15 13  1  0
 18 17  1  0
 19 18  2  0
 20 18  1  0
 21 20  1  0
 22 21  1  0
 22 23  1  0
 24 23  1  1
 24 26  1  0
 24 25  1  0
 25 15  1  0
 26 27  1  0
 28 26  2  0
M  END
$$$$
