DNR.pdb
     RDKit          3D

 28 27  0  0  1  0  0  0  0  0999 V2000
   20.4262  -22.0608  -13.2833 N   0  0  0  0  0  0  0  0  0  0  0  0
   20.9284  -21.2195  -14.3463 C   0  0  1  0  0  0  0  0  0  0  0  0
   20.0522  -19.9637  -14.4634 C   0  0  0  0  0  0  0  0  0  0  0  0
   18.7860  -20.1215  -13.7445 C   0  0  0  0  0  0  0  0  0  0  0  0
   18.6709  -20.8367  -12.7176 O   0  0  0  0  0  0  0  0  0  0  0  0
   22.2826  -20.7063  -13.9948 C   0  0  0  0  0  0  0  0  0  0  0  0
   22.7846  -19.7370  -14.5963 O   0  0  0  0  0  0  0  0  0  0  0  0
   17.6375  -19.4614  -14.1948 O   0  0  0  0  0  0  0  0  0  0  0  0
   27.1362  -20.3513  -11.9613 N   0  0  0  0  0  0  0  0  0  0  0  0
   26.2592  -20.8597  -10.9898 C   0  0  0  0  0  0  0  0  0  0  0  0
   26.7125  -21.0191   -9.8236 O   0  0  0  0  0  0  0  0  0  0  0  0
   24.8802  -21.1992  -11.2786 C   0  0  0  0  0  0  0  0  0  0  0  0
   24.4080  -20.9646  -12.6715 C   0  0  2  0  0  0  0  0  0  0  0  0
   23.0526  -21.3183  -12.9448 N   0  0  0  0  0  0  0  0  0  0  0  0
   25.3147  -21.6905  -13.6143 C   0  0  0  0  0  0  0  0  0  0  0  0
   25.4055  -22.9391  -13.5020 O   0  0  0  0  0  0  0  0  0  0  0  0
   28.3764  -27.0453  -16.6277 N   0  0  0  0  0  0  0  0  0  0  0  0
   26.9855  -26.9481  -16.9450 C   0  0  0  0  0  0  0  0  0  0  0  0
   26.3018  -28.0566  -16.9976 N   0  0  0  0  0  0  0  0  0  0  0  0
   26.4169  -25.6914  -17.1817 N   0  0  0  0  0  0  0  0  0  0  0  0
   27.2851  -24.4891  -17.1224 C   0  0  0  0  0  0  0  0  0  0  0  0
   26.4208  -23.3518  -17.4885 C   0  0  0  0  0  0  0  0  0  0  0  0
   26.1464  -22.2527  -16.5841 C   0  0  0  0  0  0  0  0  0  0  0  0
   26.9902  -21.8489  -15.4412 C   0  0  2  0  0  0  0  0  0  0  0  0
   26.0574  -21.0362  -14.6059 N   0  0  0  0  0  0  0  0  0  0  0  0
   28.1308  -20.9628  -15.6898 C   0  0  0  0  0  0  0  0  0  0  0  0
   27.9556  -19.5640  -15.8405 O   0  0  0  0  0  0  0  0  0  0  0  0
   29.2901  -21.3775  -15.7812 O   0  0  0  0  0  0  0  0  0  0  0  0
  2  1  1  1
  2  3  1  0
  3  4  1  0
  4  8  1  0
  4  5  2  0
  6 14  1  0
  6  2  1  0
  7  6  2  0
  9 10  1  0
 10 11  2  0
 12 10  1  0
 13 12  1  1
 13 14  1  0
 15 16  2  0
 15 13  1  0
 18 17  1  0
 19 18  2  0
 20 18  1  0
 21 20  1  0
 22 21  1  0
 22 23  1  0
 24 23  1  6
 24 26  1  0
 24 25  1  0
 25 15  1  0
 26 27  1  0
 28 26  2  0
M  END
$$$$
