DNR.pdb
     RDKit          3D

 28 27  0  0  1  0  0  0  0  0999 V2000
   17.9717  -11.3082  -14.7657 N   0  0  0  0  0  0  0  0  0  0  0  0
   17.4172   -9.9835  -14.5990 C   0  0  1  0  0  0  0  0  0  0  0  0
   15.8868  -10.0760  -14.5097 C   0  0  0  0  0  0  0  0  0  0  0  0
   15.2906  -10.4050  -15.8064 C   0  0  0  0  0  0  0  0  0  0  0  0
   15.9783  -10.6421  -16.8312 O   0  0  0  0  0  0  0  0  0  0  0  0
   17.8403   -9.4142  -13.2883 C   0  0  0  0  0  0  0  0  0  0  0  0
   17.8912  -10.1190  -12.2617 O   0  0  0  0  0  0  0  0  0  0  0  0
   13.8996  -10.4657  -15.9429 O   0  0  0  0  0  0  0  0  0  0  0  0
   21.5323   -8.7422  -11.7180 N   0  0  0  0  0  0  0  0  0  0  0  0
   21.1427   -7.5929  -12.4242 C   0  0  0  0  0  0  0  0  0  0  0  0
   21.8199   -7.2774  -13.4404 O   0  0  0  0  0  0  0  0  0  0  0  0
   20.0119   -6.7764  -12.0309 C   0  0  0  0  0  0  0  0  0  0  0  0
   18.6876   -7.4537  -11.9564 C   0  0  2  0  0  0  0  0  0  0  0  0
   18.2045   -8.0273  -13.1708 N   0  0  0  0  0  0  0  0  0  0  0  0
   17.6808   -6.4824  -11.4262 C   0  0  0  0  0  0  0  0  0  0  0  0
   17.2059   -5.6322  -12.2207 O   0  0  0  0  0  0  0  0  0  0  0  0
   11.7937   -9.7759   -6.7082 N   0  0  0  0  0  0  0  0  0  0  0  0
   11.6266   -9.5520   -8.1106 C   0  0  0  0  0  0  0  0  0  0  0  0
   10.5541  -10.0340   -8.6729 N   0  0  0  0  0  0  0  0  0  0  0  0
   12.5998   -8.8358   -8.8167 N   0  0  0  0  0  0  0  0  0  0  0  0
   13.5726   -8.0098   -8.0590 C   0  0  0  0  0  0  0  0  0  0  0  0
   14.3610   -7.2866   -9.0740 C   0  0  0  0  0  0  0  0  0  0  0  0
   15.3792   -6.3141   -8.7291 C   0  0  0  0  0  0  0  0  0  0  0  0
   16.1799   -5.5302   -9.6911 C   0  0  2  0  0  0  0  0  0  0  0  0
   17.2538   -6.4866  -10.0919 N   0  0  0  0  0  0  0  0  0  0  0  0
   16.8993   -4.3488   -9.2067 C   0  0  0  0  0  0  0  0  0  0  0  0
   16.2539   -3.0919   -9.0902 O   0  0  0  0  0  0  0  0  0  0  0  0
   18.0890   -4.3805   -8.8784 O   0  0  0  0  0  0  0  0  0  0  0  0
  2  1  1  1
  2  3  1  0
  3  4  1  0
  4  8  1  0
  4  5  2  0
  6 14  1  0
  6  2  1  0
  7  6  2  0
  9 10  1  0
 10 11  2  0
 12 10  1  0
 13 12  1  6
 13 14  1  0
 15 16  2  0
 15 13  1  0
 18 17  1  0
 19 18  2  0
 20 18  1  0
 21 20  1  0
 22 21  1  0
 22 23  1  0
 24 23  1  1
 24 26  1  0
 24 25  1  0
 25 15  1  0
 26 27  1  0
 28 26  2  0
M  END
$$$$
