DNR.pdb
     RDKit          3D

 28 27  0  0  1  0  0  0  0  0999 V2000
   19.1624  -23.1149  -12.6814 N   0  0  0  0  0  0  0  0  0  0  0  0
   18.1902  -22.3783  -13.4576 C   0  0  1  0  0  0  0  0  0  0  0  0
   16.9233  -22.1594  -12.6177 C   0  0  0  0  0  0  0  0  0  0  0  0
   16.3697  -23.4274  -12.1375 C   0  0  0  0  0  0  0  0  0  0  0  0
   16.1246  -24.3955  -12.9006 O   0  0  0  0  0  0  0  0  0  0  0  0
   18.6982  -21.0067  -13.7432 C   0  0  0  0  0  0  0  0  0  0  0  0
   17.9792  -20.1512  -14.2951 O   0  0  0  0  0  0  0  0  0  0  0  0
   16.0907  -23.6002  -10.7775 O   0  0  0  0  0  0  0  0  0  0  0  0
   20.2581  -19.0846  -10.1468 N   0  0  0  0  0  0  0  0  0  0  0  0
   20.1422  -18.3948  -11.3642 C   0  0  0  0  0  0  0  0  0  0  0  0
   19.1813  -17.5869  -11.4857 O   0  0  0  0  0  0  0  0  0  0  0  0
   21.0717  -18.5777  -12.4609 C   0  0  0  0  0  0  0  0  0  0  0  0
   20.5737  -19.3309  -13.6453 C   0  0  2  0  0  0  0  0  0  0  0  0
   20.0401  -20.6292  -13.3871 N   0  0  0  0  0  0  0  0  0  0  0  0
   21.6791  -19.4342  -14.6480 C   0  0  0  0  0  0  0  0  0  0  0  0
   22.7338  -20.0252  -14.3046 O   0  0  0  0  0  0  0  0  0  0  0  0
   24.0245  -25.7240  -17.5555 N   0  0  0  0  0  0  0  0  0  0  0  0
   24.7241  -24.8120  -16.7049 C   0  0  0  0  0  0  0  0  0  0  0  0
   25.5489  -25.3169  -15.8310 N   0  0  0  0  0  0  0  0  0  0  0  0
   24.5051  -23.4362  -16.8384 N   0  0  0  0  0  0  0  0  0  0  0  0
   23.4761  -22.9639  -17.7980 C   0  0  0  0  0  0  0  0  0  0  0  0
   23.5542  -21.4914  -17.7773 C   0  0  0  0  0  0  0  0  0  0  0  0
   22.7351  -20.6751  -16.9032 C   0  0  0  0  0  0  0  0  0  0  0  0
   22.6765  -19.1994  -16.9108 C   0  0  2  0  0  0  0  0  0  0  0  0
   21.5819  -18.9020  -15.9404 N   0  0  0  0  0  0  0  0  0  0  0  0
   22.2714  -18.5198  -18.1444 C   0  0  0  0  0  0  0  0  0  0  0  0
   23.1986  -18.2791  -19.1895 O   0  0  0  0  0  0  0  0  0  0  0  0
   21.1183  -18.1241  -18.3401 O   0  0  0  0  0  0  0  0  0  0  0  0
  2  1  1  1
  2  3  1  0
  3  4  1  0
  4  8  1  0
  4  5  2  0
  6 14  1  0
  6  2  1  0
  7  6  2  0
  9 10  1  0
 10 11  2  0
 12 10  1  0
 13 12  1  1
 13 14  1  0
 15 16  2  0
 15 13  1  0
 18 17  1  0
 19 18  2  0
 20 18  1  0
 21 20  1  0
 22 21  1  0
 22 23  1  0
 24 23  1  6
 24 26  1  0
 24 25  1  0
 25 15  1  0
 26 27  1  0
 28 26  2  0
M  END
$$$$
