DNR.pdb
     RDKit          3D

 28 27  0  0  1  0  0  0  0  0999 V2000
   16.7750  -14.4305    2.5641 N   0  0  0  0  0  0  0  0  0  0  0  0
   16.5922  -15.6235    3.3599 C   0  0  1  0  0  0  0  0  0  0  0  0
   17.7382  -16.6068    3.0801 C   0  0  0  0  0  0  0  0  0  0  0  0
   17.5962  -17.2398    1.7671 C   0  0  0  0  0  0  0  0  0  0  0  0
   16.6007  -17.0499    1.0240 O   0  0  0  0  0  0  0  0  0  0  0  0
   16.7184  -15.2955    4.8082 C   0  0  0  0  0  0  0  0  0  0  0  0
   16.8036  -14.1155    5.2003 O   0  0  0  0  0  0  0  0  0  0  0  0
   18.5936  -18.0978    1.2911 O   0  0  0  0  0  0  0  0  0  0  0  0
   13.7633  -16.3032    8.0792 N   0  0  0  0  0  0  0  0  0  0  0  0
   14.7000  -17.3396    7.9387 C   0  0  0  0  0  0  0  0  0  0  0  0
   14.2568  -18.4946    7.6932 O   0  0  0  0  0  0  0  0  0  0  0  0
   16.1283  -17.1282    8.0637 C   0  0  0  0  0  0  0  0  0  0  0  0
   16.7293  -16.0725    7.2022 C   0  0  2  0  0  0  0  0  0  0  0  0
   16.7449  -16.3375    5.7998 N   0  0  0  0  0  0  0  0  0  0  0  0
   18.1222  -15.8017    7.6760 C   0  0  0  0  0  0  0  0  0  0  0  0
   19.0662  -16.4095    7.1111 O   0  0  0  0  0  0  0  0  0  0  0  0
   22.2249   -8.3889    8.3269 N   0  0  0  0  0  0  0  0  0  0  0  0
   23.2122   -9.4129    8.4743 C   0  0  0  0  0  0  0  0  0  0  0  0
   24.4639   -9.0542    8.4159 N   0  0  0  0  0  0  0  0  0  0  0  0
   22.8087  -10.7380    8.6741 N   0  0  0  0  0  0  0  0  0  0  0  0
   21.3612  -11.0618    8.6246 C   0  0  0  0  0  0  0  0  0  0  0  0
   21.2690  -12.5192    8.8300 C   0  0  0  0  0  0  0  0  0  0  0  0
   20.0037  -13.2245    8.8858 C   0  0  0  0  0  0  0  0  0  0  0  0
   19.8386  -14.6795    9.0777 C   0  0  2  0  0  0  0  0  0  0  0  0
   18.4085  -14.9058    8.7144 N   0  0  0  0  0  0  0  0  0  0  0  0
   19.9672  -15.2277   10.4308 C   0  0  0  0  0  0  0  0  0  0  0  0
   21.2391  -15.4854   11.0016 O   0  0  0  0  0  0  0  0  0  0  0  0
   18.9909  -15.4925   11.1387 O   0  0  0  0  0  0  0  0  0  0  0  0
  2  1  1  6
  2  3  1  0
  3  4  1  0
  4  8  1  0
  4  5  2  0
  6 14  1  0
  6  2  1  0
  7  6  2  0
  9 10  1  0
 10 11  2  0
 12 10  1  0
 13 12  1  1
 13 14  1  0
 15 16  2  0
 15 13  1  0
 18 17  1  0
 19 18  2  0
 20 18  1  0
 21 20  1  0
 22 21  1  0
 22 23  1  0
 24 23  1  1
 24 26  1  0
 24 25  1  0
 25 15  1  0
 26 27  1  0
 28 26  2  0
M  END
$$$$
