DNR.pdb
     RDKit          3D

 28 27  0  0  1  0  0  0  0  0999 V2000
   12.9311  -10.6644  -10.1566 N   0  0  0  0  0  0  0  0  0  0  0  0
   14.2598  -10.2407   -9.7758 C   0  0  1  0  0  0  0  0  0  0  0  0
   15.2654  -10.6800  -10.8501 C   0  0  0  0  0  0  0  0  0  0  0  0
   15.3883  -12.1382  -10.9086 C   0  0  0  0  0  0  0  0  0  0  0  0
   15.2869  -12.8712   -9.8928 O   0  0  0  0  0  0  0  0  0  0  0  0
   14.3384   -8.7524   -9.7679 C   0  0  0  0  0  0  0  0  0  0  0  0
   13.7889   -8.0698  -10.6542 O   0  0  0  0  0  0  0  0  0  0  0  0
   15.6287  -12.7727  -12.1321 O   0  0  0  0  0  0  0  0  0  0  0  0
   14.9783   -3.7896   -8.1366 N   0  0  0  0  0  0  0  0  0  0  0  0
   14.8117   -4.6732   -7.0582 C   0  0  0  0  0  0  0  0  0  0  0  0
   14.6305   -4.1693   -5.9163 O   0  0  0  0  0  0  0  0  0  0  0  0
   14.8407   -6.1138   -7.2129 C   0  0  0  0  0  0  0  0  0  0  0  0
   15.0339   -6.6377   -8.5936 C   0  0  2  0  0  0  0  0  0  0  0  0
   15.0543   -8.0581   -8.7310 N   0  0  0  0  0  0  0  0  0  0  0  0
   16.2965   -6.0623   -9.1529 C   0  0  0  0  0  0  0  0  0  0  0  0
   17.3794   -6.3521   -8.5845 O   0  0  0  0  0  0  0  0  0  0  0  0
   21.6980   -9.2815  -13.4594 N   0  0  0  0  0  0  0  0  0  0  0  0
   21.7707   -8.0060  -14.1018 C   0  0  0  0  0  0  0  0  0  0  0  0
   22.4813   -7.9209  -15.1912 N   0  0  0  0  0  0  0  0  0  0  0  0
   21.0886   -6.9151  -13.5509 N   0  0  0  0  0  0  0  0  0  0  0  0
   20.2615   -7.1257  -12.3368 C   0  0  0  0  0  0  0  0  0  0  0  0
   19.0202   -6.3613  -12.5596 C   0  0  0  0  0  0  0  0  0  0  0  0
   18.0093   -6.1918  -11.5346 C   0  0  0  0  0  0  0  0  0  0  0  0
   17.6327   -4.9114  -10.9022 C   0  0  2  0  0  0  0  0  0  0  0  0
   16.3147   -5.2222  -10.2739 N   0  0  0  0  0  0  0  0  0  0  0  0
   17.3682   -3.7550  -11.7628 C   0  0  0  0  0  0  0  0  0  0  0  0
   16.0767   -3.5161  -12.2964 O   0  0  0  0  0  0  0  0  0  0  0  0
   18.2411   -2.9367  -12.0673 O   0  0  0  0  0  0  0  0  0  0  0  0
  2  1  1  6
  2  3  1  0
  3  4  1  0
  4  8  1  0
  4  5  2  0
  6 14  1  0
  6  2  1  0
  7  6  2  0
  9 10  1  0
 10 11  2  0
 12 10  1  0
 13 12  1  1
 13 14  1  0
 15 16  2  0
 15 13  1  0
 18 17  1  0
 19 18  2  0
 20 18  1  0
 21 20  1  0
 22 21  1  0
 22 23  1  0
 24 23  1  6
 24 26  1  0
 24 25  1  0
 25 15  1  0
 26 27  1  0
 28 26  2  0
M  END
$$$$
