DNR.pdb
     RDKit          3D

 28 27  0  0  1  0  0  0  0  0999 V2000
   20.5365  -10.6875  -16.1054 N   0  0  0  0  0  0  0  0  0  0  0  0
   19.4829  -10.1047  -15.3053 C   0  0  1  0  0  0  0  0  0  0  0  0
   18.7139  -11.2190  -14.5803 C   0  0  0  0  0  0  0  0  0  0  0  0
   17.4993  -11.5957  -15.3067 C   0  0  0  0  0  0  0  0  0  0  0  0
   17.3891  -11.4824  -16.5535 O   0  0  0  0  0  0  0  0  0  0  0  0
   20.0693   -9.2762  -14.2141 C   0  0  0  0  0  0  0  0  0  0  0  0
   21.2258   -9.4793  -13.7964 O   0  0  0  0  0  0  0  0  0  0  0  0
   16.3973  -12.1063  -14.6123 O   0  0  0  0  0  0  0  0  0  0  0  0
   21.7693   -4.1135  -12.8157 N   0  0  0  0  0  0  0  0  0  0  0  0
   21.6250   -5.4573  -12.4351 C   0  0  0  0  0  0  0  0  0  0  0  0
   22.0348   -5.7839  -11.2879 O   0  0  0  0  0  0  0  0  0  0  0  0
   21.0328   -6.4582  -13.2998 C   0  0  0  0  0  0  0  0  0  0  0  0
   19.8978   -7.2433  -12.7399 C   0  0  2  0  0  0  0  0  0  0  0  0
   19.3129   -8.2122  -13.6095 N   0  0  0  0  0  0  0  0  0  0  0  0
   18.8434   -6.2929  -12.2678 C   0  0  0  0  0  0  0  0  0  0  0  0
   18.3179   -5.5268  -13.1143 O   0  0  0  0  0  0  0  0  0  0  0  0
   12.3559   -9.0705   -7.7774 N   0  0  0  0  0  0  0  0  0  0  0  0
   13.1180   -9.6415   -8.8442 C   0  0  0  0  0  0  0  0  0  0  0  0
   12.9582  -10.9126   -9.0841 N   0  0  0  0  0  0  0  0  0  0  0  0
   13.9905   -8.8318   -9.5804 N   0  0  0  0  0  0  0  0  0  0  0  0
   14.8518   -7.8634   -8.8574 C   0  0  0  0  0  0  0  0  0  0  0  0
   15.5626   -7.1017   -9.9011 C   0  0  0  0  0  0  0  0  0  0  0  0
   16.5321   -6.0686   -9.5945 C   0  0  0  0  0  0  0  0  0  0  0  0
   17.3098   -5.2982  -10.5859 C   0  0  2  0  0  0  0  0  0  0  0  0
   18.4260   -6.2271  -10.9320 N   0  0  0  0  0  0  0  0  0  0  0  0
   17.9752   -4.0666  -10.1521 C   0  0  0  0  0  0  0  0  0  0  0  0
   17.2392   -2.8786   -9.9132 O   0  0  0  0  0  0  0  0  0  0  0  0
   19.1947   -3.9947   -9.9734 O   0  0  0  0  0  0  0  0  0  0  0  0
  2  1  1  6
  2  3  1  0
  3  4  1  0
  4  8  1  0
  4  5  2  0
  6 14  1  0
  6  2  1  0
  7  6  2  0
  9 10  1  0
 10 11  2  0
 12 10  1  0
 13 12  1  6
 13 14  1  0
 15 16  2  0
 15 13  1  0
 18 17  1  0
 19 18  2  0
 20 18  1  0
 21 20  1  0
 22 21  1  0
 22 23  1  0
 24 23  1  1
 24 26  1  0
 24 25  1  0
 25 15  1  0
 26 27  1  0
 28 26  2  0
M  END
$$$$
