DNR.pdb
     RDKit          3D

 28 27  0  0  1  0  0  0  0  0999 V2000
   21.5029  -15.1740  -18.2067 N   0  0  0  0  0  0  0  0  0  0  0  0
   22.0391  -15.1649  -16.8641 C   0  0  1  0  0  0  0  0  0  0  0  0
   21.1158  -15.9702  -15.9381 C   0  0  0  0  0  0  0  0  0  0  0  0
   19.8530  -15.2695  -15.6946 C   0  0  0  0  0  0  0  0  0  0  0  0
   18.7323  -15.7784  -15.9486 O   0  0  0  0  0  0  0  0  0  0  0  0
   23.3398  -15.8914  -16.8288 C   0  0  0  0  0  0  0  0  0  0  0  0
   23.6588  -16.6932  -17.7281 O   0  0  0  0  0  0  0  0  0  0  0  0
   19.8605  -13.9777  -15.1574 O   0  0  0  0  0  0  0  0  0  0  0  0
   26.8478  -13.0488  -15.1351 N   0  0  0  0  0  0  0  0  0  0  0  0
   27.0831  -14.3267  -15.6670 C   0  0  0  0  0  0  0  0  0  0  0  0
   27.7171  -14.3960  -16.7551 O   0  0  0  0  0  0  0  0  0  0  0  0
   26.6305  -15.5415  -15.0192 C   0  0  0  0  0  0  0  0  0  0  0  0
   25.5532  -16.3076  -15.7051 C   0  0  2  0  0  0  0  0  0  0  0  0
   24.2692  -15.6860  -15.7500 N   0  0  0  0  0  0  0  0  0  0  0  0
   25.4360  -17.6527  -15.0609 C   0  0  0  0  0  0  0  0  0  0  0  0
   24.8809  -17.7215  -13.9354 O   0  0  0  0  0  0  0  0  0  0  0  0
   21.7952  -24.7802  -16.4246 N   0  0  0  0  0  0  0  0  0  0  0  0
   21.6240  -24.5205  -15.0289 C   0  0  0  0  0  0  0  0  0  0  0  0
   20.8391  -25.3182  -14.3606 N   0  0  0  0  0  0  0  0  0  0  0  0
   22.2931  -23.4417  -14.4397 N   0  0  0  0  0  0  0  0  0  0  0  0
   23.1388  -22.5703  -15.2929 C   0  0  0  0  0  0  0  0  0  0  0  0
   23.5408  -21.4390  -14.4366 C   0  0  0  0  0  0  0  0  0  0  0  0
   24.2589  -20.2871  -14.9455 C   0  0  0  0  0  0  0  0  0  0  0  0
   25.7259  -20.1167  -14.9380 C   0  0  2  0  0  0  0  0  0  0  0  0
   25.9173  -18.8242  -15.6601 N   0  0  0  0  0  0  0  0  0  0  0  0
   26.5476  -21.0784  -15.6781 C   0  0  0  0  0  0  0  0  0  0  0  0
   27.0115  -22.2712  -15.0683 O   0  0  0  0  0  0  0  0  0  0  0  0
   26.8776  -20.9070  -16.8554 O   0  0  0  0  0  0  0  0  0  0  0  0
  2  1  1  6
  2  3  1  0
  3  4  1  0
  4  8  1  0
  4  5  2  0
  6 14  1  0
  6  2  1  0
  7  6  2  0
  9 10  1  0
 10 11  2  0
 12 10  1  0
 13 12  1  1
 13 14  1  0
 15 16  2  0
 15 13  1  0
 18 17  1  0
 19 18  2  0
 20 18  1  0
 21 20  1  0
 22 21  1  0
 22 23  1  0
 24 23  1  6
 24 26  1  0
 24 25  1  0
 25 15  1  0
 26 27  1  0
 28 26  2  0
M  END
$$$$
