DNR.pdb
     RDKit          3D

 28 27  0  0  1  0  0  0  0  0999 V2000
   24.8763  -20.8833  -16.6583 N   0  0  0  0  0  0  0  0  0  0  0  0
   23.6521  -20.1314  -16.8199 C   0  0  1  0  0  0  0  0  0  0  0  0
   22.6319  -20.9743  -17.5990 C   0  0  0  0  0  0  0  0  0  0  0  0
   22.7185  -22.3917  -17.2405 C   0  0  0  0  0  0  0  0  0  0  0  0
   23.7131  -23.1059  -17.5237 O   0  0  0  0  0  0  0  0  0  0  0  0
   23.0171  -19.8982  -15.4920 C   0  0  0  0  0  0  0  0  0  0  0  0
   23.7001  -19.6239  -14.4862 O   0  0  0  0  0  0  0  0  0  0  0  0
   21.6661  -23.0064  -16.5535 O   0  0  0  0  0  0  0  0  0  0  0  0
   19.5927  -18.6886  -11.7396 N   0  0  0  0  0  0  0  0  0  0  0  0
   19.7049  -17.8381  -12.8511 C   0  0  0  0  0  0  0  0  0  0  0  0
   19.2075  -16.6832  -12.7522 O   0  0  0  0  0  0  0  0  0  0  0  0
   20.3601  -18.2366  -14.0808 C   0  0  0  0  0  0  0  0  0  0  0  0
   20.9216  -19.6153  -14.1267 C   0  0  2  0  0  0  0  0  0  0  0  0
   21.5897  -19.9832  -15.3330 N   0  0  0  0  0  0  0  0  0  0  0  0
   19.8228  -20.5907  -13.8454 C   0  0  0  0  0  0  0  0  0  0  0  0
   19.0468  -20.8929  -14.7868 O   0  0  0  0  0  0  0  0  0  0  0  0
   17.2999  -24.4134   -7.8734 N   0  0  0  0  0  0  0  0  0  0  0  0
   17.2049  -25.7218   -8.4426 C   0  0  0  0  0  0  0  0  0  0  0  0
   16.2446  -26.4940   -8.0180 N   0  0  0  0  0  0  0  0  0  0  0  0
   18.1266  -26.1196   -9.4178 N   0  0  0  0  0  0  0  0  0  0  0  0
   19.1670  -25.1563   -9.8563 C   0  0  0  0  0  0  0  0  0  0  0  0
   18.5104  -24.2783  -10.8426 C   0  0  0  0  0  0  0  0  0  0  0  0
   19.1919  -23.1697  -11.4814 C   0  0  0  0  0  0  0  0  0  0  0  0
   18.5872  -22.2315  -12.4485 C   0  0  2  0  0  0  0  0  0  0  0  0
   19.6301  -21.1722  -12.5854 N   0  0  0  0  0  0  0  0  0  0  0  0
   17.3740  -21.5075  -12.0590 C   0  0  0  0  0  0  0  0  0  0  0  0
   16.0860  -22.0488  -12.2992 O   0  0  0  0  0  0  0  0  0  0  0  0
   17.4044  -20.4026  -11.5088 O   0  0  0  0  0  0  0  0  0  0  0  0
  2  1  1  1
  2  3  1  0
  3  4  1  0
  4  8  1  0
  4  5  2  0
  6 14  1  0
  6  2  1  0
  7  6  2  0
  9 10  1  0
 10 11  2  0
 12 10  1  0
 13 12  1  6
 13 14  1  0
 15 16  2  0
 15 13  1  0
 18 17  1  0
 19 18  2  0
 20 18  1  0
 21 20  1  0
 22 21  1  0
 22 23  1  0
 24 23  1  1
 24 26  1  0
 24 25  1  0
 25 15  1  0
 26 27  1  0
 28 26  2  0
M  END
$$$$
