DNR.pdb
     RDKit          3D

 28 27  0  0  1  0  0  0  0  0999 V2000
   26.5894  -21.5329  -15.4556 N   0  0  0  0  0  0  0  0  0  0  0  0
   25.3266  -22.2020  -15.6741 C   0  0  1  0  0  0  0  0  0  0  0  0
   25.4105  -23.6409  -15.1441 C   0  0  0  0  0  0  0  0  0  0  0  0
   25.7897  -24.5825  -16.1998 C   0  0  0  0  0  0  0  0  0  0  0  0
   25.9421  -24.2360  -17.3982 O   0  0  0  0  0  0  0  0  0  0  0  0
   24.2595  -21.5579  -14.8570 C   0  0  0  0  0  0  0  0  0  0  0  0
   24.3670  -21.4497  -13.6201 O   0  0  0  0  0  0  0  0  0  0  0  0
   25.9983  -25.9316  -15.8938 O   0  0  0  0  0  0  0  0  0  0  0  0
   23.6817  -18.0870  -14.5923 N   0  0  0  0  0  0  0  0  0  0  0  0
   22.4255  -18.0177  -15.2157 C   0  0  0  0  0  0  0  0  0  0  0  0
   22.1078  -16.9270  -15.7637 O   0  0  0  0  0  0  0  0  0  0  0  0
   21.5034  -19.1351  -15.2485 C   0  0  0  0  0  0  0  0  0  0  0  0
   22.0085  -20.4385  -14.7346 C   0  0  2  0  0  0  0  0  0  0  0  0
   23.0691  -21.0397  -15.4768 N   0  0  0  0  0  0  0  0  0  0  0  0
   20.8611  -21.3935  -14.6378 C   0  0  0  0  0  0  0  0  0  0  0  0
   20.8822  -22.4171  -15.3670 O   0  0  0  0  0  0  0  0  0  0  0  0
   20.0695  -28.3449  -12.1857 N   0  0  0  0  0  0  0  0  0  0  0  0
   20.8698  -27.3458  -12.8230 C   0  0  0  0  0  0  0  0  0  0  0  0
   21.8983  -27.7500  -13.5142 N   0  0  0  0  0  0  0  0  0  0  0  0
   20.5272  -25.9957  -12.6870 N   0  0  0  0  0  0  0  0  0  0  0  0
   19.3467  -25.6352  -11.8629 C   0  0  0  0  0  0  0  0  0  0  0  0
   18.6579  -24.5584  -12.5983 C   0  0  0  0  0  0  0  0  0  0  0  0
   19.3198  -23.3303  -12.9920 C   0  0  0  0  0  0  0  0  0  0  0  0
   18.6972  -22.2205  -13.7414 C   0  0  2  0  0  0  0  0  0  0  0  0
   19.7769  -21.1902  -13.7741 N   0  0  0  0  0  0  0  0  0  0  0  0
   17.5472  -21.5318  -13.1487 C   0  0  0  0  0  0  0  0  0  0  0  0
   16.2375  -22.0644  -13.2535 O   0  0  0  0  0  0  0  0  0  0  0  0
   17.6520  -20.4657  -12.5349 O   0  0  0  0  0  0  0  0  0  0  0  0
  2  1  1  1
  2  3  1  0
  3  4  1  0
  4  8  1  0
  4  5  2  0
  6 14  1  0
  6  2  1  0
  7  6  2  0
  9 10  1  0
 10 11  2  0
 12 10  1  0
 13 12  1  6
 13 14  1  0
 15 16  2  0
 15 13  1  0
 18 17  1  0
 19 18  2  0
 20 18  1  0
 21 20  1  0
 22 21  1  0
 22 23  1  0
 24 23  1  1
 24 26  1  0
 24 25  1  0
 25 15  1  0
 26 27  1  0
 28 26  2  0
M  END
$$$$
