DNR.pdb
     RDKit          3D

 28 27  0  0  1  0  0  0  0  0999 V2000
   19.4164  -17.9290  -15.4011 N   0  0  0  0  0  0  0  0  0  0  0  0
   20.7546  -18.2988  -14.9978 C   0  0  1  0  0  0  0  0  0  0  0  0
   20.8545  -19.8277  -14.8937 C   0  0  0  0  0  0  0  0  0  0  0  0
   20.0744  -20.3430  -13.7664 C   0  0  0  0  0  0  0  0  0  0  0  0
   19.3553  -19.6080  -13.0439 O   0  0  0  0  0  0  0  0  0  0  0  0
   21.7298  -17.9260  -16.0613 C   0  0  0  0  0  0  0  0  0  0  0  0
   21.4361  -18.0139  -17.2694 O   0  0  0  0  0  0  0  0  0  0  0  0
   20.1100  -21.7064  -13.4544 O   0  0  0  0  0  0  0  0  0  0  0  0
   25.3338  -13.7419  -15.6343 N   0  0  0  0  0  0  0  0  0  0  0  0
   24.3488  -14.7411  -15.6856 C   0  0  0  0  0  0  0  0  0  0  0  0
   23.6742  -14.9469  -14.6400 O   0  0  0  0  0  0  0  0  0  0  0  0
   24.0885  -15.5255  -16.8761 C   0  0  0  0  0  0  0  0  0  0  0  0
   23.9818  -17.0004  -16.6990 C   0  0  2  0  0  0  0  0  0  0  0  0
   23.0446  -17.4510  -15.7215 N   0  0  0  0  0  0  0  0  0  0  0  0
   25.3383  -17.5449  -16.3805 C   0  0  0  0  0  0  0  0  0  0  0  0
   25.6010  -17.8093  -15.1801 O   0  0  0  0  0  0  0  0  0  0  0  0
   27.8704  -21.6855  -12.3058 N   0  0  0  0  0  0  0  0  0  0  0  0
   26.6263  -21.4516  -12.9707 C   0  0  0  0  0  0  0  0  0  0  0  0
   25.5908  -21.1748  -12.2291 N   0  0  0  0  0  0  0  0  0  0  0  0
   26.5647  -21.5246  -14.3670 N   0  0  0  0  0  0  0  0  0  0  0  0
   27.8071  -21.8148  -15.1251 C   0  0  0  0  0  0  0  0  0  0  0  0
   28.2260  -20.5300  -15.7155 C   0  0  0  0  0  0  0  0  0  0  0  0
   27.2894  -19.6007  -16.3160 C   0  0  0  0  0  0  0  0  0  0  0  0
   27.6393  -18.3032  -16.9285 C   0  0  2  0  0  0  0  0  0  0  0  0
   26.3144  -17.7678  -17.3604 N   0  0  0  0  0  0  0  0  0  0  0  0
   28.4541  -18.2995  -18.1467 C   0  0  0  0  0  0  0  0  0  0  0  0
   29.8689  -18.3665  -18.0848 O   0  0  0  0  0  0  0  0  0  0  0  0
   27.9627  -18.2383  -19.2777 O   0  0  0  0  0  0  0  0  0  0  0  0
  2  1  1  6
  2  3  1  0
  3  4  1  0
  4  8  1  0
  4  5  2  0
  6 14  1  0
  6  2  1  0
  7  6  2  0
  9 10  1  0
 10 11  2  0
 12 10  1  0
 13 12  1  1
 13 14  1  0
 15 16  2  0
 15 13  1  0
 18 17  1  0
 19 18  2  0
 20 18  1  0
 21 20  1  0
 22 21  1  0
 22 23  1  0
 24 23  1  6
 24 26  1  0
 24 25  1  0
 25 15  1  0
 26 27  1  0
 28 26  2  0
M  END
$$$$
