ANK.pdb
     RDKit          3D

 23 22  0  0  1  0  0  0  0  0999 V2000
   20.5236  -12.8021  -18.7639 C   0  0  0  0  0  0  0  0  0  0  0  0
   21.5783  -11.7033  -18.6600 C   0  0  2  0  0  0  0  0  0  0  0  0
   22.5305  -12.1446  -17.6633 N   0  0  0  0  0  0  0  0  0  0  0  0
   20.9759  -10.4364  -18.1856 C   0  0  0  0  0  0  0  0  0  0  0  0
   20.4959   -9.6252  -19.0263 O   0  0  0  0  0  0  0  0  0  0  0  0
   17.3799   -7.8312  -14.7389 N   0  0  0  0  0  0  0  0  0  0  0  0
   18.6828   -8.2817  -14.4519 C   0  0  0  0  0  0  0  0  0  0  0  0
   19.3239   -7.7567  -13.5291 O   0  0  0  0  0  0  0  0  0  0  0  0
   19.2649   -9.3690  -15.2511 C   0  0  0  0  0  0  0  0  0  0  0  0
   20.2527   -8.9655  -16.2769 C   0  0  2  0  0  0  0  0  0  0  0  0
   20.9253  -10.1116  -16.8031 N   0  0  0  0  0  0  0  0  0  0  0  0
   21.1972   -7.9140  -15.8349 C   0  0  0  0  0  0  0  0  0  0  0  0
   22.1716   -8.2738  -15.1381 O   0  0  0  0  0  0  0  0  0  0  0  0
   21.0559   -6.5497  -16.1545 N   0  0  0  0  0  0  0  0  0  0  0  0
   21.9497   -5.4808  -15.8034 C   0  0  1  0  0  0  0  0  0  0  0  0
   21.8108   -4.3313  -16.7287 C   0  0  0  0  0  0  0  0  0  0  0  0
   22.6820   -3.1550  -16.4762 C   0  0  0  0  0  0  0  0  0  0  0  0
   22.5602   -2.0635  -17.5107 C   0  0  0  0  0  0  0  0  0  0  0  0
   23.4701   -0.8936  -17.1898 C   0  0  0  0  0  0  0  0  0  0  0  0
   23.3527    0.1555  -18.1806 N   0  0  0  0  0  0  0  0  0  0  0  0
   21.9248   -5.1328  -14.3556 C   0  0  0  0  0  0  0  0  0  0  0  0
   20.7215   -4.9840  -13.6845 O   0  0  0  0  0  0  0  0  0  0  0  0
   22.9730   -4.9635  -13.6845 O   0  0  0  0  0  0  0  0  0  0  0  0
  2  3  1  0
  2  1  1  1
  4  2  1  0
  5  4  2  0
  6  7  1  0
  7  9  1  0
  7  8  2  0
 10  9  1  1
 10 11  1  0
 10 12  1  0
 11  4  1  0
 12 14  1  0
 13 12  2  0
 14 15  1  0
 15 16  1  6
 15 21  1  0
 17 16  1  0
 18 17  1  0
 19 18  1  0
 19 20  1  0
 21 22  1  0
 23 21  2  0
M  END
$$$$
