ANK.pdb
     RDKit          3D

 23 22  0  0  1  0  0  0  0  0999 V2000
   13.1049  -12.8228  -13.3317 C   0  0  0  0  0  0  0  0  0  0  0  0
   14.4918  -12.3514  -12.9019 C   0  0  2  0  0  0  0  0  0  0  0  0
   14.9404  -13.2778  -11.8843 N   0  0  0  0  0  0  0  0  0  0  0  0
   14.4261  -11.0029  -12.2937 C   0  0  0  0  0  0  0  0  0  0  0  0
   14.2493   -9.9961  -13.0356 O   0  0  0  0  0  0  0  0  0  0  0  0
   13.6429   -7.2290   -8.8381 N   0  0  0  0  0  0  0  0  0  0  0  0
   13.2294   -8.4684   -8.3130 C   0  0  0  0  0  0  0  0  0  0  0  0
   12.5124   -8.4975   -7.3015 O   0  0  0  0  0  0  0  0  0  0  0  0
   13.6542   -9.7114   -8.9721 C   0  0  0  0  0  0  0  0  0  0  0  0
   14.4052   -9.5529  -10.2377 C   0  0  2  0  0  0  0  0  0  0  0  0
   14.5577  -10.8149  -10.8913 N   0  0  0  0  0  0  0  0  0  0  0  0
   15.6922   -8.8338  -10.0981 C   0  0  0  0  0  0  0  0  0  0  0  0
   16.5839   -9.3809   -9.4127 O   0  0  0  0  0  0  0  0  0  0  0  0
   15.9589   -7.5836  -10.6893 N   0  0  0  0  0  0  0  0  0  0  0  0
   17.1579   -6.8024  -10.5596 C   0  0  1  0  0  0  0  0  0  0  0  0
   18.0473   -6.9749  -11.7326 C   0  0  0  0  0  0  0  0  0  0  0  0
   19.3344   -6.2335  -11.7161 C   0  0  0  0  0  0  0  0  0  0  0  0
   20.2578   -6.5749  -12.8593 C   0  0  0  0  0  0  0  0  0  0  0  0
   21.5854   -5.8531  -12.7322 C   0  0  0  0  0  0  0  0  0  0  0  0
   22.5149   -6.2695  -13.7610 N   0  0  0  0  0  0  0  0  0  0  0  0
   16.9098   -5.3901  -10.1574 C   0  0  0  0  0  0  0  0  0  0  0  0
   17.7607   -4.7466   -9.2727 O   0  0  0  0  0  0  0  0  0  0  0  0
   15.9378   -4.7252  -10.5944 O   0  0  0  0  0  0  0  0  0  0  0  0
  2  3  1  0
  2  1  1  1
  4  2  1  0
  5  4  2  0
  6  7  1  0
  7  9  1  0
  7  8  2  0
 10  9  1  1
 10 11  1  0
 10 12  1  0
 11  4  1  0
 12 14  1  0
 13 12  2  0
 14 15  1  0
 15 16  1  6
 15 21  1  0
 17 16  1  0
 18 17  1  0
 19 18  1  0
 19 20  1  0
 21 22  1  0
 23 21  2  0
M  END
$$$$
