ANK.pdb
     RDKit          3D

 23 22  0  0  1  0  0  0  0  0999 V2000
   22.8023  -16.1045  -16.9860 C   0  0  0  0  0  0  0  0  0  0  0  0
   22.6748  -14.7651  -17.7075 C   0  0  2  0  0  0  0  0  0  0  0  0
   23.5541  -14.8345  -18.8550 N   0  0  0  0  0  0  0  0  0  0  0  0
   23.1382  -13.6545  -16.8446 C   0  0  0  0  0  0  0  0  0  0  0  0
   22.4779  -13.3562  -15.8101 O   0  0  0  0  0  0  0  0  0  0  0  0
   27.5160  -10.5639  -14.6427 N   0  0  0  0  0  0  0  0  0  0  0  0
   26.7853  -10.4423  -15.8402 C   0  0  0  0  0  0  0  0  0  0  0  0
   26.6300   -9.3238  -16.3531 O   0  0  0  0  0  0  0  0  0  0  0  0
   26.2163  -11.6442  -16.4659 C   0  0  0  0  0  0  0  0  0  0  0  0
   24.7411  -11.7602  -16.4298 C   0  0  2  0  0  0  0  0  0  0  0  0
   24.3114  -12.9148  -17.1544 N   0  0  0  0  0  0  0  0  0  0  0  0
   24.0219  -10.5350  -16.8479 C   0  0  0  0  0  0  0  0  0  0  0  0
   24.0765  -10.2221  -18.0577 O   0  0  0  0  0  0  0  0  0  0  0  0
   23.2903   -9.7167  -15.9655 N   0  0  0  0  0  0  0  0  0  0  0  0
   22.5005   -8.5655  -16.3057 C   0  0  1  0  0  0  0  0  0  0  0  0
   21.1760   -8.9560  -16.8440 C   0  0  0  0  0  0  0  0  0  0  0  0
   20.2743   -7.8573  -17.2755 C   0  0  0  0  0  0  0  0  0  0  0  0
   18.9138   -8.3201  -17.7351 C   0  0  0  0  0  0  0  0  0  0  0  0
   18.0410   -7.1497  -18.1451 C   0  0  0  0  0  0  0  0  0  0  0  0
   16.8287   -7.5968  -18.7981 N   0  0  0  0  0  0  0  0  0  0  0  0
   22.4673   -7.5276  -15.2382 C   0  0  0  0  0  0  0  0  0  0  0  0
   22.0666   -6.2319  -15.5235 O   0  0  0  0  0  0  0  0  0  0  0  0
   22.7916   -7.7720  -14.0495 O   0  0  0  0  0  0  0  0  0  0  0  0
  2  3  1  0
  2  1  1  1
  4  2  1  0
  5  4  2  0
  6  7  1  0
  7  9  1  0
  7  8  2  0
 10  9  1  6
 10 11  1  0
 10 12  1  0
 11  4  1  0
 12 14  1  0
 13 12  2  0
 14 15  1  0
 15 16  1  1
 15 21  1  0
 17 16  1  0
 18 17  1  0
 19 18  1  0
 19 20  1  0
 21 22  1  0
 23 21  2  0
M  END
$$$$
