ANK.pdb
     RDKit          3D

 23 22  0  0  1  0  0  0  0  0999 V2000
   28.0510  -19.4539  -16.0168 C   0  0  0  0  0  0  0  0  0  0  0  0
   28.2366  -20.7263  -15.1937 C   0  0  2  0  0  0  0  0  0  0  0  0
   28.4990  -21.7896  -16.1399 N   0  0  0  0  0  0  0  0  0  0  0  0
   26.9963  -21.0654  -14.4592 C   0  0  0  0  0  0  0  0  0  0  0  0
   26.1452  -21.8271  -14.9982 O   0  0  0  0  0  0  0  0  0  0  0  0
   24.8249  -20.7835   -8.7043 N   0  0  0  0  0  0  0  0  0  0  0  0
   24.6106  -20.7558  -10.0958 C   0  0  0  0  0  0  0  0  0  0  0  0
   23.4805  -20.9950  -10.5473 O   0  0  0  0  0  0  0  0  0  0  0  0
   25.7308  -20.4432  -10.9943 C   0  0  0  0  0  0  0  0  0  0  0  0
   25.5515  -20.8224  -12.4139 C   0  0  2  0  0  0  0  0  0  0  0  0
   26.7412  -20.5525  -13.1587 N   0  0  0  0  0  0  0  0  0  0  0  0
   24.3462  -20.2456  -13.0525 C   0  0  0  0  0  0  0  0  0  0  0  0
   24.3212  -19.0060  -13.2165 O   0  0  0  0  0  0  0  0  0  0  0  0
   23.2432  -21.0110  -13.4781 N   0  0  0  0  0  0  0  0  0  0  0  0
   22.0491  -20.5291  -14.1158 C   0  0  1  0  0  0  0  0  0  0  0  0
   21.9852  -20.9490  -15.5358 C   0  0  0  0  0  0  0  0  0  0  0  0
   20.8298  -20.4597  -16.3309 C   0  0  0  0  0  0  0  0  0  0  0  0
   20.7854  -20.9872  -17.7437 C   0  0  0  0  0  0  0  0  0  0  0  0
   19.5893  -20.4423  -18.5000 C   0  0  0  0  0  0  0  0  0  0  0  0
   19.5527  -20.9372  -19.8600 N   0  0  0  0  0  0  0  0  0  0  0  0
   20.8099  -20.7763  -13.3277 C   0  0  0  0  0  0  0  0  0  0  0  0
   19.6915  -19.9760  -13.4985 O   0  0  0  0  0  0  0  0  0  0  0  0
   20.7189  -21.7062  -12.4882 O   0  0  0  0  0  0  0  0  0  0  0  0
  2  3  1  0
  2  1  1  6
  4  2  1  0
  5  4  2  0
  6  7  1  0
  7  9  1  0
  7  8  2  0
 10  9  1  1
 10 11  1  0
 10 12  1  0
 11  4  1  0
 12 14  1  0
 13 12  2  0
 14 15  1  0
 15 16  1  6
 15 21  1  0
 17 16  1  0
 18 17  1  0
 19 18  1  0
 19 20  1  0
 21 22  1  0
 23 21  2  0
M  END
$$$$
