ANK.pdb
     RDKit          3D

 23 22  0  0  1  0  0  0  0  0999 V2000
   23.9423  -14.4045  -16.6759 C   0  0  0  0  0  0  0  0  0  0  0  0
   23.4417  -13.2782  -17.5768 C   0  0  2  0  0  0  0  0  0  0  0  0
   24.3585  -13.2119  -18.6948 N   0  0  0  0  0  0  0  0  0  0  0  0
   23.4886  -11.9772  -16.8710 C   0  0  0  0  0  0  0  0  0  0  0  0
   22.6669  -11.7471  -15.9399 O   0  0  0  0  0  0  0  0  0  0  0  0
   27.8866  -10.6618  -15.7575 N   0  0  0  0  0  0  0  0  0  0  0  0
   26.7076   -9.9794  -15.4010 C   0  0  0  0  0  0  0  0  0  0  0  0
   26.3363   -9.9734  -14.2177 O   0  0  0  0  0  0  0  0  0  0  0  0
   25.9329   -9.2831  -16.4378 C   0  0  0  0  0  0  0  0  0  0  0  0
   24.5204   -9.7005  -16.5849 C   0  0  2  0  0  0  0  0  0  0  0  0
   24.4391  -10.9794  -17.2179 N   0  0  0  0  0  0  0  0  0  0  0  0
   23.6513   -8.6947  -17.2376 C   0  0  0  0  0  0  0  0  0  0  0  0
   23.9287   -8.3734  -18.4141 O   0  0  0  0  0  0  0  0  0  0  0  0
   22.5446   -8.0906  -16.6100 N   0  0  0  0  0  0  0  0  0  0  0  0
   21.6449   -7.1266  -17.1809 C   0  0  1  0  0  0  0  0  0  0  0  0
   20.3391   -7.7388  -17.5226 C   0  0  0  0  0  0  0  0  0  0  0  0
   19.2996   -6.8382  -18.0836 C   0  0  0  0  0  0  0  0  0  0  0  0
   18.0246   -7.5398  -18.4815 C   0  0  0  0  0  0  0  0  0  0  0  0
   17.0896   -6.6070  -19.2267 C   0  0  0  0  0  0  0  0  0  0  0  0
   17.4831   -6.4589  -20.6121 N   0  0  0  0  0  0  0  0  0  0  0  0
   21.5638   -5.8554  -16.4094 C   0  0  0  0  0  0  0  0  0  0  0  0
   21.9322   -5.8136  -15.0740 O   0  0  0  0  0  0  0  0  0  0  0  0
   21.1682   -4.7792  -16.9223 O   0  0  0  0  0  0  0  0  0  0  0  0
  2  3  1  0
  2  1  1  1
  4  2  1  0
  5  4  2  0
  6  7  1  0
  7  9  1  0
  7  8  2  0
 10  9  1  6
 10 11  1  0
 10 12  1  0
 11  4  1  0
 12 14  1  0
 13 12  2  0
 14 15  1  0
 15 16  1  1
 15 21  1  0
 17 16  1  0
 18 17  1  0
 19 18  1  0
 19 20  1  0
 21 22  1  0
 23 21  2  0
M  END
$$$$
