ANK.pdb
     RDKit          3D

 23 22  0  0  1  0  0  0  0  0999 V2000
   12.6010   -9.6425  -14.0840 C   0  0  0  0  0  0  0  0  0  0  0  0
   14.0944   -9.6968  -14.3960 C   0  0  2  0  0  0  0  0  0  0  0  0
   14.4453  -11.0990  -14.4692 N   0  0  0  0  0  0  0  0  0  0  0  0
   14.8847   -9.0856  -13.3028 C   0  0  0  0  0  0  0  0  0  0  0  0
   14.5692   -9.3219  -12.1029 O   0  0  0  0  0  0  0  0  0  0  0  0
   18.5741   -9.5536  -12.9368 N   0  0  0  0  0  0  0  0  0  0  0  0
   18.9907   -8.2382  -13.2181 C   0  0  0  0  0  0  0  0  0  0  0  0
   20.1504   -8.0318  -13.6061 O   0  0  0  0  0  0  0  0  0  0  0  0
   18.0437   -7.1273  -13.0477 C   0  0  0  0  0  0  0  0  0  0  0  0
   16.6904   -7.4931  -12.5727 C   0  0  2  0  0  0  0  0  0  0  0  0
   15.9923   -8.2375  -13.5734 N   0  0  0  0  0  0  0  0  0  0  0  0
   15.8937   -6.3539  -12.0623 C   0  0  0  0  0  0  0  0  0  0  0  0
   15.2542   -5.6799  -12.8997 O   0  0  0  0  0  0  0  0  0  0  0  0
   15.8207   -5.9963  -10.7020 N   0  0  0  0  0  0  0  0  0  0  0  0
   15.0418   -4.9350  -10.1261 C   0  0  1  0  0  0  0  0  0  0  0  0
   14.2659   -5.4056   -8.9543 C   0  0  0  0  0  0  0  0  0  0  0  0
   13.3933   -4.4099   -8.2809 C   0  0  0  0  0  0  0  0  0  0  0  0
   12.7103   -4.9276   -7.0393 C   0  0  0  0  0  0  0  0  0  0  0  0
   11.7229   -3.9167   -6.4891 C   0  0  0  0  0  0  0  0  0  0  0  0
   11.0220   -4.4362   -5.3337 N   0  0  0  0  0  0  0  0  0  0  0  0
   15.8117   -3.6785   -9.9105 C   0  0  0  0  0  0  0  0  0  0  0  0
   15.1780   -2.4464   -9.9411 O   0  0  0  0  0  0  0  0  0  0  0  0
   17.0486   -3.6747   -9.6916 O   0  0  0  0  0  0  0  0  0  0  0  0
  2  3  1  0
  2  1  1  1
  4  2  1  0
  5  4  2  0
  6  7  1  0
  7  9  1  0
  7  8  2  0
 10  9  1  6
 10 11  1  0
 10 12  1  0
 11  4  1  0
 12 14  1  0
 13 12  2  0
 14 15  1  0
 15 16  1  1
 15 21  1  0
 17 16  1  0
 18 17  1  0
 19 18  1  0
 19 20  1  0
 21 22  1  0
 23 21  2  0
M  END
$$$$
