ANK.pdb
     RDKit          3D

 23 22  0  0  1  0  0  0  0  0999 V2000
   21.3769  -22.8448  -14.3271 C   0  0  0  0  0  0  0  0  0  0  0  0
   21.4646  -21.9236  -13.1129 C   0  0  2  0  0  0  0  0  0  0  0  0
   20.2821  -21.0896  -13.1472 N   0  0  0  0  0  0  0  0  0  0  0  0
   22.6489  -21.0394  -13.2055 C   0  0  0  0  0  0  0  0  0  0  0  0
   22.5477  -19.9274  -13.7957 O   0  0  0  0  0  0  0  0  0  0  0  0
   25.4431  -21.6244   -9.3082 N   0  0  0  0  0  0  0  0  0  0  0  0
   25.4915  -20.6085  -10.2822 C   0  0  0  0  0  0  0  0  0  0  0  0
   25.1013  -19.4663   -9.9970 O   0  0  0  0  0  0  0  0  0  0  0  0
   26.0043  -20.9169  -11.6245 C   0  0  0  0  0  0  0  0  0  0  0  0
   25.0895  -20.6299  -12.7522 C   0  0  2  0  0  0  0  0  0  0  0  0
   23.8994  -21.4141  -12.6442 N   0  0  0  0  0  0  0  0  0  0  0  0
   25.7155  -20.7407  -14.0897 C   0  0  0  0  0  0  0  0  0  0  0  0
   25.9244  -21.8918  -14.5320 O   0  0  0  0  0  0  0  0  0  0  0  0
   26.0820  -19.6321  -14.8772 N   0  0  0  0  0  0  0  0  0  0  0  0
   26.2176  -19.5924  -16.3072 C   0  0  1  0  0  0  0  0  0  0  0  0
   25.0446  -20.1985  -16.9805 C   0  0  0  0  0  0  0  0  0  0  0  0
   25.0533  -20.2110  -18.4658 C   0  0  0  0  0  0  0  0  0  0  0  0
   23.8302  -20.8412  -19.0847 C   0  0  0  0  0  0  0  0  0  0  0  0
   23.8748  -20.7647  -20.5986 C   0  0  0  0  0  0  0  0  0  0  0  0
   22.8131  -21.5442  -21.1995 N   0  0  0  0  0  0  0  0  0  0  0  0
   26.6281  -18.2602  -16.8312 C   0  0  0  0  0  0  0  0  0  0  0  0
   27.5212  -18.1596  -17.8862 O   0  0  0  0  0  0  0  0  0  0  0  0
   26.1908  -17.1838  -16.3539 O   0  0  0  0  0  0  0  0  0  0  0  0
  2  3  1  0
  2  1  1  6
  4  2  1  0
  5  4  2  0
  6  7  1  0
  7  9  1  0
  7  8  2  0
 10  9  1  1
 10 11  1  0
 10 12  1  0
 11  4  1  0
 12 14  1  0
 13 12  2  0
 14 15  1  0
 15 16  1  6
 15 21  1  0
 17 16  1  0
 18 17  1  0
 19 18  1  0
 19 20  1  0
 21 22  1  0
 23 21  2  0
M  END
$$$$
