ANK.pdb
     RDKit          3D

 23 22  0  0  1  0  0  0  0  0999 V2000
   18.1347  -13.0505  -16.4886 C   0  0  0  0  0  0  0  0  0  0  0  0
   18.0117  -11.7812  -17.3278 C   0  0  2  0  0  0  0  0  0  0  0  0
   18.9925  -11.8951  -18.3860 N   0  0  0  0  0  0  0  0  0  0  0  0
   18.3450  -10.5827  -16.5244 C   0  0  0  0  0  0  0  0  0  0  0  0
   17.6192  -10.2768  -15.5370 O   0  0  0  0  0  0  0  0  0  0  0  0
   22.5266   -9.8256  -14.2932 N   0  0  0  0  0  0  0  0  0  0  0  0
   21.8639   -8.6343  -14.6462 C   0  0  0  0  0  0  0  0  0  0  0  0
   21.7604   -7.7204  -13.8143 O   0  0  0  0  0  0  0  0  0  0  0  0
   21.3037   -8.4911  -15.9973 C   0  0  0  0  0  0  0  0  0  0  0  0
   19.8312   -8.5964  -16.1056 C   0  0  2  0  0  0  0  0  0  0  0  0
   19.4652   -9.7671  -16.8394 N   0  0  0  0  0  0  0  0  0  0  0  0
   19.1684   -7.3781  -16.6249 C   0  0  0  0  0  0  0  0  0  0  0  0
   19.0784   -7.2588  -17.8666 O   0  0  0  0  0  0  0  0  0  0  0  0
   18.6422   -6.3622  -15.8035 N   0  0  0  0  0  0  0  0  0  0  0  0
   17.9764   -5.1622  -16.2292 C   0  0  1  0  0  0  0  0  0  0  0  0
   16.7755   -4.8865  -15.4054 C   0  0  0  0  0  0  0  0  0  0  0  0
   16.0013   -3.6619  -15.7328 C   0  0  0  0  0  0  0  0  0  0  0  0
   14.8722   -3.3713  -14.7754 C   0  0  0  0  0  0  0  0  0  0  0  0
   14.0908   -2.1425  -15.1987 C   0  0  0  0  0  0  0  0  0  0  0  0
   13.0088   -1.8606  -14.2790 N   0  0  0  0  0  0  0  0  0  0  0  0
   18.8940   -4.0041  -16.4153 C   0  0  0  0  0  0  0  0  0  0  0  0
   18.6013   -3.0104  -17.3358 O   0  0  0  0  0  0  0  0  0  0  0  0
   19.9560   -3.8726  -15.7575 O   0  0  0  0  0  0  0  0  0  0  0  0
  2  3  1  0
  2  1  1  1
  4  2  1  0
  5  4  2  0
  6  7  1  0
  7  9  1  0
  7  8  2  0
 10  9  1  6
 10 11  1  0
 10 12  1  0
 11  4  1  0
 12 14  1  0
 13 12  2  0
 14 15  1  0
 15 16  1  1
 15 21  1  0
 17 16  1  0
 18 17  1  0
 19 18  1  0
 19 20  1  0
 21 22  1  0
 23 21  2  0
M  END
$$$$
