CKY.pdb
     RDKit          3D

 28 28  0  0  1  0  0  0  0  0999 V2000
   23.8341  -25.7215  -22.1994 N   0  0  0  0  0  0  0  0  0  0  0  0
   22.8373  -24.7493  -21.8473 C   0  0  1  0  0  0  0  0  0  0  0  0
   21.5622  -25.4357  -21.4794 C   0  0  0  0  0  0  0  0  0  0  0  0
   20.3411  -24.1483  -21.0707 S   0  0  0  0  0  0  0  0  0  0  0  0
   23.3290  -23.9128  -20.6894 C   0  0  0  0  0  0  0  0  0  0  0  0
   23.6290  -24.5380  -19.6590 O   0  0  0  0  0  0  0  0  0  0  0  0
   23.4330  -22.5120  -20.7931 N   0  0  0  0  0  0  0  0  0  0  0  0
   23.7848  -21.5708  -19.7745 C   0  0  1  0  0  0  0  0  0  0  0  0
   24.5101  -20.3405  -20.2813 C   0  0  0  0  0  0  0  0  0  0  0  0
   24.9773  -19.4767  -19.1360 C   0  0  0  0  0  0  0  0  0  0  0  0
   25.7952  -18.2939  -19.6329 C   0  0  0  0  0  0  0  0  0  0  0  0
   26.2835  -17.4356  -18.5123 C   0  0  0  0  0  0  0  0  0  0  0  0
   27.0186  -16.3151  -19.0502 N   0  0  0  0  0  0  0  0  0  0  0  0
   22.8356  -21.3735  -18.7072 C   0  0  0  0  0  0  0  0  0  0  0  0
   21.6708  -20.9709  -18.9908 O   0  0  0  0  0  0  0  0  0  0  0  0
   18.5331  -21.8354  -11.0974 O   0  0  0  0  0  0  0  0  0  0  0  0
   19.5308  -21.8753  -12.0484 C   0  0  0  0  0  0  0  0  0  0  0  0
   19.6505  -22.8938  -12.9661 C   0  0  0  0  0  0  0  0  0  0  0  0
   20.6571  -22.9079  -13.9051 C   0  0  0  0  0  0  0  0  0  0  0  0
   21.6027  -21.8804  -13.9622 C   0  0  0  0  0  0  0  0  0  0  0  0
   22.6807  -21.9460  -14.9740 C   0  0  0  0  0  0  0  0  0  0  0  0
   22.1876  -21.3534  -16.2650 C   0  0  2  0  0  0  0  0  0  0  0  0
   23.1284  -21.6043  -17.3513 N   0  0  0  0  0  0  0  0  0  0  0  0
   21.7793  -19.9511  -16.1953 C   0  0  0  0  0  0  0  0  0  0  0  0
   22.5870  -18.9948  -16.2780 O   0  0  0  0  0  0  0  0  0  0  0  0
   21.4954  -20.8558  -13.0504 C   0  0  0  0  0  0  0  0  0  0  0  0
   20.4682  -20.8709  -12.1158 C   0  0  0  0  0  0  0  0  0  0  0  0
   20.4409  -19.5522  -16.0288 O   0  0  0  0  0  0  0  0  0  0  0  0
  2  5  1  0
  2  1  1  1
  3  4  1  0
  3  2  1  0
  5  6  2  0
  7  8  1  0
  7  5  1  0
  8  9  1  6
 10  9  1  0
 11 10  1  0
 11 12  1  0
 13 12  1  0
 14 15  2  0
 14  8  1  0
 16 17  1  0
 17 18  2  0
 17 27  1  0
 18 19  1  0
 19 20  2  0
 20 26  1  0
 20 21  1  0
 22 21  1  1
 22 24  1  0
 22 23  1  0
 23 14  1  0
 24 28  1  0
 25 24  2  0
 27 26  2  0
M  END
$$$$
