CKY.pdb
     RDKit          3D

 28 28  0  0  1  0  0  0  0  0999 V2000
   26.3705  -11.5748  -17.8751 N   0  0  0  0  0  0  0  0  0  0  0  0
   25.0117  -11.8180  -17.4786 C   0  0  1  0  0  0  0  0  0  0  0  0
   24.9828  -12.5421  -16.1721 C   0  0  0  0  0  0  0  0  0  0  0  0
   25.7420  -14.1767  -16.4307 S   0  0  0  0  0  0  0  0  0  0  0  0
   24.2733  -10.5053  -17.3607 C   0  0  0  0  0  0  0  0  0  0  0  0
   24.8122   -9.6435  -16.6470 O   0  0  0  0  0  0  0  0  0  0  0  0
   23.0508  -10.2929  -18.0271 N   0  0  0  0  0  0  0  0  0  0  0  0
   22.2481   -9.1088  -18.0521 C   0  0  1  0  0  0  0  0  0  0  0  0
   21.4269   -8.9346  -19.3137 C   0  0  0  0  0  0  0  0  0  0  0  0
   20.0589   -9.5517  -19.1593 C   0  0  0  0  0  0  0  0  0  0  0  0
   19.2795   -9.5035  -20.4652 C   0  0  0  0  0  0  0  0  0  0  0  0
   17.9199  -10.1073  -20.3330 C   0  0  0  0  0  0  0  0  0  0  0  0
   17.2464  -10.0592  -21.6093 N   0  0  0  0  0  0  0  0  0  0  0  0
   21.6298   -8.7089  -16.8124 C   0  0  0  0  0  0  0  0  0  0  0  0
   21.1172   -9.5954  -16.0703 O   0  0  0  0  0  0  0  0  0  0  0  0
   19.2371   -6.4169   -9.0433 O   0  0  0  0  0  0  0  0  0  0  0  0
   19.8896   -6.6545  -10.2346 C   0  0  0  0  0  0  0  0  0  0  0  0
   20.4580   -5.6541  -10.9897 C   0  0  0  0  0  0  0  0  0  0  0  0
   21.1040   -5.9204  -12.1759 C   0  0  0  0  0  0  0  0  0  0  0  0
   21.2078   -7.2267  -12.6617 C   0  0  0  0  0  0  0  0  0  0  0  0
   21.8923   -7.4656  -13.9519 C   0  0  0  0  0  0  0  0  0  0  0  0
   21.0196   -6.9783  -15.0753 C   0  0  2  0  0  0  0  0  0  0  0  0
   21.5603   -7.3757  -16.3706 N   0  0  0  0  0  0  0  0  0  0  0  0
   20.6728   -5.5586  -15.0289 C   0  0  0  0  0  0  0  0  0  0  0  0
   21.3979   -4.6574  -15.5144 O   0  0  0  0  0  0  0  0  0  0  0  0
   20.6437   -8.2368  -11.9171 C   0  0  0  0  0  0  0  0  0  0  0  0
   19.9990   -7.9351  -10.7245 C   0  0  0  0  0  0  0  0  0  0  0  0
   19.4919   -5.0795  -14.4338 O   0  0  0  0  0  0  0  0  0  0  0  0
  2  5  1  0
  2  1  1  1
  3  4  1  0
  3  2  1  0
  5  6  2  0
  7  8  1  0
  7  5  1  0
  8  9  1  6
 10  9  1  0
 11 10  1  0
 11 12  1  0
 13 12  1  0
 14 15  2  0
 14  8  1  0
 16 17  1  0
 17 18  2  0
 17 27  1  0
 18 19  1  0
 19 20  2  0
 20 26  1  0
 20 21  1  0
 22 21  1  1
 22 24  1  0
 22 23  1  0
 23 14  1  0
 24 28  1  0
 25 24  2  0
 27 26  2  0
M  END
$$$$
