CKY.pdb
     RDKit          3D

 28 28  0  0  1  0  0  0  0  0999 V2000
   27.4687  -19.8217  -17.1432 N   0  0  0  0  0  0  0  0  0  0  0  0
   26.6827  -18.8165  -16.4842 C   0  0  1  0  0  0  0  0  0  0  0  0
   27.1446  -17.4563  -16.8952 C   0  0  0  0  0  0  0  0  0  0  0  0
   28.8119  -17.2088  -16.2067 S   0  0  0  0  0  0  0  0  0  0  0  0
   25.2250  -18.9979  -16.8370 C   0  0  0  0  0  0  0  0  0  0  0  0
   24.9726  -19.1232  -18.0467 O   0  0  0  0  0  0  0  0  0  0  0  0
   24.2301  -19.0207  -15.8404 N   0  0  0  0  0  0  0  0  0  0  0  0
   22.8110  -19.0993  -16.0053 C   0  0  1  0  0  0  0  0  0  0  0  0
   22.0724  -19.6751  -14.8140 C   0  0  0  0  0  0  0  0  0  0  0  0
   20.6185  -19.9117  -15.1404 C   0  0  0  0  0  0  0  0  0  0  0  0
   19.8628  -20.4561  -13.9373 C   0  0  0  0  0  0  0  0  0  0  0  0
   18.4230  -20.7092  -14.2432 C   0  0  0  0  0  0  0  0  0  0  0  0
   18.1286  -22.1091  -14.0464 N   0  0  0  0  0  0  0  0  0  0  0  0
   22.1706  -18.0138  -16.7058 C   0  0  0  0  0  0  0  0  0  0  0  0
   22.0805  -16.8875  -16.1377 O   0  0  0  0  0  0  0  0  0  0  0  0
   18.6652  -12.6371  -22.6092 O   0  0  0  0  0  0  0  0  0  0  0  0
   19.3056  -13.7061  -22.0186 C   0  0  0  0  0  0  0  0  0  0  0  0
   18.7647  -14.9707  -21.9722 C   0  0  0  0  0  0  0  0  0  0  0  0
   19.4269  -16.0200  -21.3757 C   0  0  0  0  0  0  0  0  0  0  0  0
   20.6830  -15.8391  -20.7904 C   0  0  0  0  0  0  0  0  0  0  0  0
   21.3501  -16.9897  -20.1414 C   0  0  0  0  0  0  0  0  0  0  0  0
   20.9474  -17.0461  -18.6937 C   0  0  2  0  0  0  0  0  0  0  0  0
   21.6327  -18.1309  -17.9997 N   0  0  0  0  0  0  0  0  0  0  0  0
   19.5068  -17.0478  -18.4436 C   0  0  0  0  0  0  0  0  0  0  0  0
   18.8094  -18.0906  -18.4478 O   0  0  0  0  0  0  0  0  0  0  0  0
   21.2356  -14.5798  -20.8292 C   0  0  0  0  0  0  0  0  0  0  0  0
   20.5420  -13.5423  -21.4386 C   0  0  0  0  0  0  0  0  0  0  0  0
   18.7762  -15.8761  -18.1758 O   0  0  0  0  0  0  0  0  0  0  0  0
  2  5  1  0
  2  1  1  6
  3  4  1  0
  3  2  1  0
  5  6  2  0
  7  8  1  0
  7  5  1  0
  8  9  1  1
 10  9  1  0
 11 10  1  0
 11 12  1  0
 13 12  1  0
 14 15  2  0
 14  8  1  0
 16 17  1  0
 17 18  2  0
 17 27  1  0
 18 19  1  0
 19 20  2  0
 20 26  1  0
 20 21  1  0
 22 21  1  6
 22 24  1  0
 22 23  1  0
 23 14  1  0
 24 28  1  0
 25 24  2  0
 27 26  2  0
M  END
$$$$
