CKY.pdb
     RDKit          3D

 28 28  0  0  1  0  0  0  0  0999 V2000
   26.6837  -12.5875  -18.1084 N   0  0  0  0  0  0  0  0  0  0  0  0
   25.9562  -12.4808  -16.8747 C   0  0  1  0  0  0  0  0  0  0  0  0
   26.8430  -11.9318  -15.8048 C   0  0  0  0  0  0  0  0  0  0  0  0
   28.1383  -13.1680  -15.4742 S   0  0  0  0  0  0  0  0  0  0  0  0
   24.7575  -11.5816  -17.0669 C   0  0  0  0  0  0  0  0  0  0  0  0
   24.9548  -10.5515  -17.7322 O   0  0  0  0  0  0  0  0  0  0  0  0
   23.5030  -11.9100  -16.5172 N   0  0  0  0  0  0  0  0  0  0  0  0
   22.2688  -11.1957  -16.6344 C   0  0  1  0  0  0  0  0  0  0  0  0
   21.0337  -12.0738  -16.6311 C   0  0  0  0  0  0  0  0  0  0  0  0
   21.1921  -13.2353  -17.5810 C   0  0  0  0  0  0  0  0  0  0  0  0
   19.9141  -14.0563  -17.6689 C   0  0  0  0  0  0  0  0  0  0  0  0
   20.0532  -15.2182  -18.5970 C   0  0  0  0  0  0  0  0  0  0  0  0
   18.8671  -16.0384  -18.5216 N   0  0  0  0  0  0  0  0  0  0  0  0
   22.1724   -9.9341  -15.9431 C   0  0  0  0  0  0  0  0  0  0  0  0
   22.4656   -9.8858  -14.7139 O   0  0  0  0  0  0  0  0  0  0  0  0
   21.1468   -1.3829  -14.2383 O   0  0  0  0  0  0  0  0  0  0  0  0
   21.5288   -2.6359  -14.6692 C   0  0  0  0  0  0  0  0  0  0  0  0
   21.5747   -2.9890  -15.9985 C   0  0  0  0  0  0  0  0  0  0  0  0
   21.9604   -4.2480  -16.4003 C   0  0  0  0  0  0  0  0  0  0  0  0
   22.3226   -5.2224  -15.4662 C   0  0  0  0  0  0  0  0  0  0  0  0
   22.7104   -6.5695  -15.9408 C   0  0  0  0  0  0  0  0  0  0  0  0
   21.5285   -7.4931  -15.8352 C   0  0  2  0  0  0  0  0  0  0  0  0
   21.7674   -8.7367  -16.5593 N   0  0  0  0  0  0  0  0  0  0  0  0
   20.2353   -6.8962  -16.1658 C   0  0  0  0  0  0  0  0  0  0  0  0
   19.7524   -6.8992  -17.3236 O   0  0  0  0  0  0  0  0  0  0  0  0
   22.2810   -4.8832  -14.1335 C   0  0  0  0  0  0  0  0  0  0  0  0
   21.8876   -3.6044  -13.7608 C   0  0  0  0  0  0  0  0  0  0  0  0
   19.4183   -6.2651  -15.2105 O   0  0  0  0  0  0  0  0  0  0  0  0
  2  5  1  0
  2  1  1  6
  3  4  1  0
  3  2  1  0
  5  6  2  0
  7  8  1  0
  7  5  1  0
  8  9  1  1
 10  9  1  0
 11 10  1  0
 11 12  1  0
 13 12  1  0
 14 15  2  0
 14  8  1  0
 16 17  1  0
 17 18  2  0
 17 27  1  0
 18 19  1  0
 19 20  2  0
 20 26  1  0
 20 21  1  0
 22 21  1  6
 22 24  1  0
 22 23  1  0
 23 14  1  0
 24 28  1  0
 25 24  2  0
 27 26  2  0
M  END
$$$$
