CKY.pdb
     RDKit          3D

 28 28  0  0  1  0  0  0  0  0999 V2000
   27.5478  -18.2295  -20.8187 N   0  0  0  0  0  0  0  0  0  0  0  0
   26.8132  -17.1204  -20.2775 C   0  0  1  0  0  0  0  0  0  0  0  0
   26.6840  -16.0433  -21.3049 C   0  0  0  0  0  0  0  0  0  0  0  0
   28.3271  -15.2898  -21.5233 S   0  0  0  0  0  0  0  0  0  0  0  0
   25.4445  -17.5833  -19.8364 C   0  0  0  0  0  0  0  0  0  0  0  0
   24.8531  -18.3460  -20.6182 O   0  0  0  0  0  0  0  0  0  0  0  0
   24.8920  -17.1640  -18.6106 N   0  0  0  0  0  0  0  0  0  0  0  0
   23.6022  -17.4657  -18.0695 C   0  0  1  0  0  0  0  0  0  0  0  0
   23.4421  -17.1222  -16.6022 C   0  0  0  0  0  0  0  0  0  0  0  0
   22.0731  -17.5111  -16.1010 C   0  0  0  0  0  0  0  0  0  0  0  0
   22.0839  -18.9026  -15.4858 C   0  0  0  0  0  0  0  0  0  0  0  0
   20.7379  -19.3056  -14.9793 C   0  0  0  0  0  0  0  0  0  0  0  0
   20.7790  -20.6831  -14.5485 N   0  0  0  0  0  0  0  0  0  0  0  0
   22.4623  -17.2320  -18.9210 C   0  0  0  0  0  0  0  0  0  0  0  0
   22.2298  -16.0559  -19.3233 O   0  0  0  0  0  0  0  0  0  0  0  0
   17.4739  -23.4775  -18.9406 O   0  0  0  0  0  0  0  0  0  0  0  0
   18.1516  -22.4161  -19.5026 C   0  0  0  0  0  0  0  0  0  0  0  0
   17.5507  -21.5009  -20.3363 C   0  0  0  0  0  0  0  0  0  0  0  0
   18.2520  -20.4502  -20.8835 C   0  0  0  0  0  0  0  0  0  0  0  0
   19.6111  -20.2720  -20.6107 C   0  0  0  0  0  0  0  0  0  0  0  0
   20.3316  -19.1411  -21.2370 C   0  0  0  0  0  0  0  0  0  0  0  0
   20.4582  -18.0204  -20.2425 C   0  0  2  0  0  0  0  0  0  0  0  0
   21.5806  -18.2450  -19.3382 N   0  0  0  0  0  0  0  0  0  0  0  0
   19.2297  -17.6738  -19.5293 C   0  0  0  0  0  0  0  0  0  0  0  0
   19.0738  -17.8587  -18.2983 O   0  0  0  0  0  0  0  0  0  0  0  0
   20.2248  -21.1799  -19.7789 C   0  0  0  0  0  0  0  0  0  0  0  0
   19.4893  -22.2289  -19.2428 C   0  0  0  0  0  0  0  0  0  0  0  0
   18.1130  -17.1010  -20.1643 O   0  0  0  0  0  0  0  0  0  0  0  0
  2  5  1  0
  2  1  1  6
  3  4  1  0
  3  2  1  0
  5  6  2  0
  7  8  1  0
  7  5  1  0
  8  9  1  1
 10  9  1  0
 11 10  1  0
 11 12  1  0
 13 12  1  0
 14 15  2  0
 14  8  1  0
 16 17  1  0
 17 18  2  0
 17 27  1  0
 18 19  1  0
 19 20  2  0
 20 26  1  0
 20 21  1  0
 22 21  1  1
 22 24  1  0
 22 23  1  0
 23 14  1  0
 24 28  1  0
 25 24  2  0
 27 26  2  0
M  END
$$$$
