CKY.pdb
     RDKit          3D

 28 28  0  0  1  0  0  0  0  0999 V2000
   24.0466  -12.3023  -18.0631 N   0  0  0  0  0  0  0  0  0  0  0  0
   23.1443  -12.2142  -16.9491 C   0  0  1  0  0  0  0  0  0  0  0  0
   23.8600  -12.5591  -15.6838 C   0  0  0  0  0  0  0  0  0  0  0  0
   23.9321  -14.3748  -15.5684 S   0  0  0  0  0  0  0  0  0  0  0  0
   22.5795  -10.8157  -16.8611 C   0  0  0  0  0  0  0  0  0  0  0  0
   23.3114   -9.9086  -17.2902 O   0  0  0  0  0  0  0  0  0  0  0  0
   21.3002  -10.5777  -16.3222 N   0  0  0  0  0  0  0  0  0  0  0  0
   20.6249   -9.3268  -16.1597 C   0  0  1  0  0  0  0  0  0  0  0  0
   19.1148   -9.4130  -16.2528 C   0  0  0  0  0  0  0  0  0  0  0  0
   18.4854   -8.0476  -16.1277 C   0  0  0  0  0  0  0  0  0  0  0  0
   16.9767   -8.1147  -16.3130 C   0  0  0  0  0  0  0  0  0  0  0  0
   16.3348   -6.7706  -16.2035 C   0  0  0  0  0  0  0  0  0  0  0  0
   14.9183   -6.8923  -16.4555 N   0  0  0  0  0  0  0  0  0  0  0  0
   21.1659   -8.4106  -15.1866 C   0  0  0  0  0  0  0  0  0  0  0  0
   21.3239   -8.8055  -13.9957 O   0  0  0  0  0  0  0  0  0  0  0  0
   26.2007   -4.7267  -19.1871 O   0  0  0  0  0  0  0  0  0  0  0  0
   25.5853   -5.1697  -18.0353 C   0  0  0  0  0  0  0  0  0  0  0  0
   25.2152   -6.4808  -17.8405 C   0  0  0  0  0  0  0  0  0  0  0  0
   24.6021   -6.8954  -16.6798 C   0  0  0  0  0  0  0  0  0  0  0  0
   24.3302   -5.9933  -15.6475 C   0  0  0  0  0  0  0  0  0  0  0  0
   23.6504   -6.4774  -14.4253 C   0  0  0  0  0  0  0  0  0  0  0  0
   22.1779   -6.1907  -14.5288 C   0  0  2  0  0  0  0  0  0  0  0  0
   21.5343   -7.0863  -15.4836 N   0  0  0  0  0  0  0  0  0  0  0  0
   21.8268   -4.7897  -14.7562 C   0  0  0  0  0  0  0  0  0  0  0  0
   21.2482   -4.3853  -15.7932 O   0  0  0  0  0  0  0  0  0  0  0  0
   24.6944   -4.6790  -15.8288 C   0  0  0  0  0  0  0  0  0  0  0  0
   25.3116   -4.2928  -17.0115 C   0  0  0  0  0  0  0  0  0  0  0  0
   22.1085   -3.7709  -13.8282 O   0  0  0  0  0  0  0  0  0  0  0  0
  2  5  1  0
  2  1  1  6
  3  4  1  0
  3  2  1  0
  5  6  2  0
  7  8  1  0
  7  5  1  0
  8  9  1  1
 10  9  1  0
 11 10  1  0
 11 12  1  0
 13 12  1  0
 14 15  2  0
 14  8  1  0
 16 17  1  0
 17 18  2  0
 17 27  1  0
 18 19  1  0
 19 20  2  0
 20 26  1  0
 20 21  1  0
 22 21  1  6
 22 24  1  0
 22 23  1  0
 23 14  1  0
 24 28  1  0
 25 24  2  0
 27 26  2  0
M  END
$$$$
