CKY.pdb
     RDKit          3D

 28 28  0  0  1  0  0  0  0  0999 V2000
   14.7943  -11.4069  -14.8860 N   0  0  0  0  0  0  0  0  0  0  0  0
   14.9734  -10.5268  -16.0067 C   0  0  1  0  0  0  0  0  0  0  0  0
   14.0631   -9.3487  -15.8814 C   0  0  0  0  0  0  0  0  0  0  0  0
   12.3625   -9.9330  -16.1677 S   0  0  0  0  0  0  0  0  0  0  0  0
   16.4112  -10.0672  -16.0681 C   0  0  0  0  0  0  0  0  0  0  0  0
   16.8849   -9.6286  -15.0071 O   0  0  0  0  0  0  0  0  0  0  0  0
   17.1504  -10.1402  -17.2648 N   0  0  0  0  0  0  0  0  0  0  0  0
   18.5095   -9.7553  -17.4928 C   0  0  1  0  0  0  0  0  0  0  0  0
   19.1167  -10.3203  -18.7610 C   0  0  0  0  0  0  0  0  0  0  0  0
   20.5289   -9.8253  -18.9528 C   0  0  0  0  0  0  0  0  0  0  0  0
   21.5289  -10.9707  -18.8981 C   0  0  0  0  0  0  0  0  0  0  0  0
   22.9265  -10.5119  -19.1570 C   0  0  0  0  0  0  0  0  0  0  0  0
   23.8346  -11.6232  -18.9978 N   0  0  0  0  0  0  0  0  0  0  0  0
   18.8776   -8.4067  -17.1394 C   0  0  0  0  0  0  0  0  0  0  0  0
   18.1699   -7.4481  -17.5631 O   0  0  0  0  0  0  0  0  0  0  0  0
   22.4275   -1.1757  -13.7309 O   0  0  0  0  0  0  0  0  0  0  0  0
   22.0754   -2.4870  -13.9719 C   0  0  0  0  0  0  0  0  0  0  0  0
   20.7999   -2.9672  -13.7811 C   0  0  0  0  0  0  0  0  0  0  0  0
   20.4764   -4.2819  -14.0301 C   0  0  0  0  0  0  0  0  0  0  0  0
   21.4386   -5.1855  -14.4896 C   0  0  0  0  0  0  0  0  0  0  0  0
   21.0526   -6.5948  -14.7242 C   0  0  0  0  0  0  0  0  0  0  0  0
   20.4436   -6.7222  -16.0931 C   0  0  2  0  0  0  0  0  0  0  0  0
   19.9903   -8.0863  -16.3413 N   0  0  0  0  0  0  0  0  0  0  0  0
   21.2540   -6.1966  -17.1908 C   0  0  0  0  0  0  0  0  0  0  0  0
   22.1195   -6.8762  -17.7931 O   0  0  0  0  0  0  0  0  0  0  0  0
   22.7182   -4.7190  -14.6844 C   0  0  0  0  0  0  0  0  0  0  0  0
   23.0122   -3.3869  -14.4241 C   0  0  0  0  0  0  0  0  0  0  0  0
   21.1323   -4.8790  -17.6677 O   0  0  0  0  0  0  0  0  0  0  0  0
  2  5  1  0
  2  1  1  1
  3  4  1  0
  3  2  1  0
  5  6  2  0
  7  8  1  0
  7  5  1  0
  8  9  1  6
 10  9  1  0
 11 10  1  0
 11 12  1  0
 13 12  1  0
 14 15  2  0
 14  8  1  0
 16 17  1  0
 17 18  2  0
 17 27  1  0
 18 19  1  0
 19 20  2  0
 20 26  1  0
 20 21  1  0
 22 21  1  1
 22 24  1  0
 22 23  1  0
 23 14  1  0
 24 28  1  0
 25 24  2  0
 27 26  2  0
M  END
$$$$
