CKY.pdb
     RDKit          3D

 28 28  0  0  1  0  0  0  0  0999 V2000
   27.0671  -21.1904  -10.4517 N   0  0  0  0  0  0  0  0  0  0  0  0
   25.6623  -21.0943  -10.7347 C   0  0  1  0  0  0  0  0  0  0  0  0
   24.9940  -20.2301   -9.7155 C   0  0  0  0  0  0  0  0  0  0  0  0
   24.7214  -21.2430   -8.2272 S   0  0  0  0  0  0  0  0  0  0  0  0
   25.4599  -20.5181  -12.1165 C   0  0  0  0  0  0  0  0  0  0  0  0
   25.9504  -19.3937  -12.3111 O   0  0  0  0  0  0  0  0  0  0  0  0
   24.7556  -21.2287  -13.1078 N   0  0  0  0  0  0  0  0  0  0  0  0
   24.5121  -20.8507  -14.4661 C   0  0  1  0  0  0  0  0  0  0  0  0
   25.0657  -21.8163  -15.4945 C   0  0  0  0  0  0  0  0  0  0  0  0
   26.5725  -21.8649  -15.4361 C   0  0  0  0  0  0  0  0  0  0  0  0
   27.1354  -22.8291  -16.4697 C   0  0  0  0  0  0  0  0  0  0  0  0
   28.6277  -22.8813  -16.4382 C   0  0  0  0  0  0  0  0  0  0  0  0
   29.0947  -23.8604  -17.3914 N   0  0  0  0  0  0  0  0  0  0  0  0
   23.2362  -20.2468  -14.7605 C   0  0  0  0  0  0  0  0  0  0  0  0
   22.1905  -20.7502  -14.2583 O   0  0  0  0  0  0  0  0  0  0  0  0
   16.8242  -15.1148  -17.9140 O   0  0  0  0  0  0  0  0  0  0  0  0
   18.0545  -15.6048  -17.5297 C   0  0  0  0  0  0  0  0  0  0  0  0
   18.5143  -15.5418  -16.2341 C   0  0  0  0  0  0  0  0  0  0  0  0
   19.7476  -16.0395  -15.8785 C   0  0  0  0  0  0  0  0  0  0  0  0
   20.5856  -16.6321  -16.8271 C   0  0  0  0  0  0  0  0  0  0  0  0
   21.9121  -17.1350  -16.4056 C   0  0  0  0  0  0  0  0  0  0  0  0
   21.7846  -18.5681  -15.9686 C   0  0  2  0  0  0  0  0  0  0  0  0
   23.0801  -19.1168  -15.5828 N   0  0  0  0  0  0  0  0  0  0  0  0
   21.0623  -19.4427  -16.8912 C   0  0  0  0  0  0  0  0  0  0  0  0
   21.6139  -20.0397  -17.8468 O   0  0  0  0  0  0  0  0  0  0  0  0
   20.1387  -16.7016  -18.1264 C   0  0  0  0  0  0  0  0  0  0  0  0
   18.8893  -16.1903  -18.4528 C   0  0  0  0  0  0  0  0  0  0  0  0
   19.6819  -19.6909  -16.7864 O   0  0  0  0  0  0  0  0  0  0  0  0
  2  5  1  0
  2  1  1  1
  3  4  1  0
  3  2  1  0
  5  6  2  0
  7  8  1  0
  7  5  1  0
  8  9  1  6
 10  9  1  0
 11 10  1  0
 11 12  1  0
 13 12  1  0
 14 15  2  0
 14  8  1  0
 16 17  1  0
 17 18  2  0
 17 27  1  0
 18 19  1  0
 19 20  2  0
 20 26  1  0
 20 21  1  0
 22 21  1  6
 22 24  1  0
 22 23  1  0
 23 14  1  0
 24 28  1  0
 25 24  2  0
 27 26  2  0
M  END
$$$$
