CKY.pdb
     RDKit          3D

 28 28  0  0  1  0  0  0  0  0999 V2000
   27.5647  -27.2379  -17.2409 N   0  0  0  0  0  0  0  0  0  0  0  0
   26.5115  -26.2679  -17.3524 C   0  0  1  0  0  0  0  0  0  0  0  0
   25.2195  -26.8620  -16.8940 C   0  0  0  0  0  0  0  0  0  0  0  0
   25.3442  -28.6683  -17.0863 S   0  0  0  0  0  0  0  0  0  0  0  0
   26.8482  -25.0531  -16.5197 C   0  0  0  0  0  0  0  0  0  0  0  0
   27.4770  -25.2730  -15.4714 O   0  0  0  0  0  0  0  0  0  0  0  0
   26.4635  -23.7605  -16.9255 N   0  0  0  0  0  0  0  0  0  0  0  0
   26.7115  -22.5139  -16.2684 C   0  0  1  0  0  0  0  0  0  0  0  0
   26.7190  -21.3104  -17.1893 C   0  0  0  0  0  0  0  0  0  0  0  0
   27.9658  -21.2858  -18.0386 C   0  0  0  0  0  0  0  0  0  0  0  0
   27.9835  -20.0756  -18.9605 C   0  0  0  0  0  0  0  0  0  0  0  0
   29.1767  -20.0684  -19.8587 C   0  0  0  0  0  0  0  0  0  0  0  0
   29.1058  -18.9293  -20.7432 N   0  0  0  0  0  0  0  0  0  0  0  0
   26.1250  -22.3317  -14.9638 C   0  0  0  0  0  0  0  0  0  0  0  0
   24.8866  -22.5402  -14.8149 O   0  0  0  0  0  0  0  0  0  0  0  0
   24.7821  -20.0161   -6.5944 O   0  0  0  0  0  0  0  0  0  0  0  0
   25.3792  -20.2870   -7.8075 C   0  0  0  0  0  0  0  0  0  0  0  0
   25.4013  -21.5440   -8.3673 C   0  0  0  0  0  0  0  0  0  0  0  0
   26.0048  -21.7857   -9.5807 C   0  0  0  0  0  0  0  0  0  0  0  0
   26.6226  -20.7558  -10.2954 C   0  0  0  0  0  0  0  0  0  0  0  0
   27.2780  -21.0640  -11.5860 C   0  0  0  0  0  0  0  0  0  0  0  0
   26.2384  -21.5057  -12.5785 C   0  0  2  0  0  0  0  0  0  0  0  0
   26.8547  -21.9311  -13.8304 N   0  0  0  0  0  0  0  0  0  0  0  0
   25.1366  -20.5683  -12.7911 C   0  0  0  0  0  0  0  0  0  0  0  0
   24.0432  -20.6426  -12.1807 O   0  0  0  0  0  0  0  0  0  0  0  0
   26.6084  -19.4939   -9.7473 C   0  0  0  0  0  0  0  0  0  0  0  0
   25.9910  -19.2830   -8.5213 C   0  0  0  0  0  0  0  0  0  0  0  0
   25.2082  -19.4986  -13.7015 O   0  0  0  0  0  0  0  0  0  0  0  0
  2  5  1  0
  2  1  1  1
  3  4  1  0
  3  2  1  0
  5  6  2  0
  7  8  1  0
  7  5  1  0
  8  9  1  6
 10  9  1  0
 11 10  1  0
 11 12  1  0
 13 12  1  0
 14 15  2  0
 14  8  1  0
 16 17  1  0
 17 18  2  0
 17 27  1  0
 18 19  1  0
 19 20  2  0
 20 26  1  0
 20 21  1  0
 22 21  1  1
 22 24  1  0
 22 23  1  0
 23 14  1  0
 24 28  1  0
 25 24  2  0
 27 26  2  0
M  END
$$$$
