CKY.pdb
     RDKit          3D

 28 28  0  0  1  0  0  0  0  0999 V2000
   19.8476  -13.4426  -16.4695 N   0  0  0  0  0  0  0  0  0  0  0  0
   20.1372  -12.3409  -17.3441 C   0  0  1  0  0  0  0  0  0  0  0  0
   18.8654  -11.7518  -17.8617 C   0  0  0  0  0  0  0  0  0  0  0  0
   18.0923  -12.9843  -18.9565 S   0  0  0  0  0  0  0  0  0  0  0  0
   20.9282  -11.2926  -16.5973 C   0  0  0  0  0  0  0  0  0  0  0  0
   20.3620  -10.7850  -15.6153 O   0  0  0  0  0  0  0  0  0  0  0  0
   22.2258  -10.9285  -17.0063 N   0  0  0  0  0  0  0  0  0  0  0  0
   23.0984   -9.9545  -16.4255 C   0  0  1  0  0  0  0  0  0  0  0  0
   24.5739  -10.2635  -16.5799 C   0  0  0  0  0  0  0  0  0  0  0  0
   24.8777  -11.6805  -16.1602 C   0  0  0  0  0  0  0  0  0  0  0  0
   26.3520  -12.0081  -16.3444 C   0  0  0  0  0  0  0  0  0  0  0  0
   26.6756  -13.4051  -15.9270 C   0  0  0  0  0  0  0  0  0  0  0  0
   28.0692  -13.6752  -16.1910 N   0  0  0  0  0  0  0  0  0  0  0  0
   22.7073   -8.5715  -16.5405 C   0  0  0  0  0  0  0  0  0  0  0  0
   22.3123   -8.1383  -17.6611 O   0  0  0  0  0  0  0  0  0  0  0  0
   19.0737   -0.9152  -16.6137 O   0  0  0  0  0  0  0  0  0  0  0  0
   19.5173   -2.2159  -16.5004 C   0  0  0  0  0  0  0  0  0  0  0  0
   20.7932   -2.6044  -16.8398 C   0  0  0  0  0  0  0  0  0  0  0  0
   21.2093   -3.9109  -16.7162 C   0  0  0  0  0  0  0  0  0  0  0  0
   20.3450   -4.8995  -16.2379 C   0  0  0  0  0  0  0  0  0  0  0  0
   20.8270   -6.2954  -16.1411 C   0  0  0  0  0  0  0  0  0  0  0  0
   22.2064   -6.3047  -15.5427 C   0  0  2  0  0  0  0  0  0  0  0  0
   22.7378   -7.6613  -15.4690 N   0  0  0  0  0  0  0  0  0  0  0  0
   22.3461   -5.5830  -14.2788 C   0  0  0  0  0  0  0  0  0  0  0  0
   22.0042   -6.0630  -13.1714 O   0  0  0  0  0  0  0  0  0  0  0  0
   19.0662   -4.5253  -15.8952 C   0  0  0  0  0  0  0  0  0  0  0  0
   18.6774   -3.1990  -16.0314 C   0  0  0  0  0  0  0  0  0  0  0  0
   22.8777   -4.2835  -14.1955 O   0  0  0  0  0  0  0  0  0  0  0  0
  2  5  1  0
  2  1  1  1
  3  4  1  0
  3  2  1  0
  5  6  2  0
  7  8  1  0
  7  5  1  0
  8  9  1  6
 10  9  1  0
 11 10  1  0
 11 12  1  0
 13 12  1  0
 14 15  2  0
 14  8  1  0
 16 17  1  0
 17 18  2  0
 17 27  1  0
 18 19  1  0
 19 20  2  0
 20 26  1  0
 20 21  1  0
 22 21  1  1
 22 24  1  0
 22 23  1  0
 23 14  1  0
 24 28  1  0
 25 24  2  0
 27 26  2  0
M  END
$$$$
