CKY.pdb
     RDKit          3D

 28 28  0  0  1  0  0  0  0  0999 V2000
   22.1949  -12.2931  -19.3564 N   0  0  0  0  0  0  0  0  0  0  0  0
   20.8556  -11.8266  -19.1301 C   0  0  1  0  0  0  0  0  0  0  0  0
   20.1226  -12.7859  -18.2497 C   0  0  0  0  0  0  0  0  0  0  0  0
   19.5659  -14.1733  -19.2892 S   0  0  0  0  0  0  0  0  0  0  0  0
   20.8945  -10.4595  -18.4885 C   0  0  0  0  0  0  0  0  0  0  0  0
   21.7000  -10.3235  -17.5529 O   0  0  0  0  0  0  0  0  0  0  0  0
   20.0605   -9.4177  -18.9389 N   0  0  0  0  0  0  0  0  0  0  0  0
   19.9462   -8.0875  -18.4244 C   0  0  1  0  0  0  0  0  0  0  0  0
   19.0642   -7.1706  -19.2476 C   0  0  0  0  0  0  0  0  0  0  0  0
   19.0722   -5.7681  -18.6915 C   0  0  0  0  0  0  0  0  0  0  0  0
   19.7216   -4.7921  -19.6614 C   0  0  0  0  0  0  0  0  0  0  0  0
   19.6764   -3.3857  -19.1607 C   0  0  0  0  0  0  0  0  0  0  0  0
   18.3063   -3.0122  -18.8992 N   0  0  0  0  0  0  0  0  0  0  0  0
   19.8790   -7.9416  -16.9915 C   0  0  0  0  0  0  0  0  0  0  0  0
   19.1466   -8.7320  -16.3295 O   0  0  0  0  0  0  0  0  0  0  0  0
   20.5133   -6.2271   -8.5542 O   0  0  0  0  0  0  0  0  0  0  0  0
   20.7897   -6.4082   -9.8929 C   0  0  0  0  0  0  0  0  0  0  0  0
   21.0661   -5.3661  -10.7483 C   0  0  0  0  0  0  0  0  0  0  0  0
   21.3390   -5.5763  -12.0812 C   0  0  0  0  0  0  0  0  0  0  0  0
   21.3457   -6.8658  -12.6200 C   0  0  0  0  0  0  0  0  0  0  0  0
   21.6232   -7.0446  -14.0626 C   0  0  0  0  0  0  0  0  0  0  0  0
   20.3915   -6.6979  -14.8525 C   0  0  2  0  0  0  0  0  0  0  0  0
   20.5876   -6.9616  -16.2738 N   0  0  0  0  0  0  0  0  0  0  0  0
   19.8423   -5.3658  -14.6043 C   0  0  0  0  0  0  0  0  0  0  0  0
   18.8848   -5.1515  -13.8226 O   0  0  0  0  0  0  0  0  0  0  0  0
   21.0708   -7.9172  -11.7762 C   0  0  0  0  0  0  0  0  0  0  0  0
   20.7996   -7.6716  -10.4365 C   0  0  0  0  0  0  0  0  0  0  0  0
   20.3420   -4.2056  -15.2229 O   0  0  0  0  0  0  0  0  0  0  0  0
  2  5  1  0
  2  1  1  1
  3  4  1  0
  3  2  1  0
  5  6  2  0
  7  8  1  0
  7  5  1  0
  8  9  1  6
 10  9  1  0
 11 10  1  0
 11 12  1  0
 13 12  1  0
 14 15  2  0
 14  8  1  0
 16 17  1  0
 17 18  2  0
 17 27  1  0
 18 19  1  0
 19 20  2  0
 20 26  1  0
 20 21  1  0
 22 21  1  1
 22 24  1  0
 22 23  1  0
 23 14  1  0
 24 28  1  0
 25 24  2  0
 27 26  2  0
M  END
$$$$
