CKY.pdb
     RDKit          3D

 28 28  0  0  1  0  0  0  0  0999 V2000
   24.7478  -13.6591  -17.9771 N   0  0  0  0  0  0  0  0  0  0  0  0
   24.7664  -14.1393  -16.6237 C   0  0  1  0  0  0  0  0  0  0  0  0
   23.4972  -13.7630  -15.9308 C   0  0  0  0  0  0  0  0  0  0  0  0
   23.6791  -12.0510  -15.3383 S   0  0  0  0  0  0  0  0  0  0  0  0
   24.9347  -15.6406  -16.6186 C   0  0  0  0  0  0  0  0  0  0  0  0
   24.1195  -16.2788  -17.3046 O   0  0  0  0  0  0  0  0  0  0  0  0
   25.9594  -16.2577  -15.8751 N   0  0  0  0  0  0  0  0  0  0  0  0
   26.1530  -17.6521  -15.6190 C   0  0  1  0  0  0  0  0  0  0  0  0
   27.5022  -17.9983  -15.0220 C   0  0  0  0  0  0  0  0  0  0  0  0
   27.6128  -19.4792  -14.7556 C   0  0  0  0  0  0  0  0  0  0  0  0
   28.2534  -20.2061  -15.9287 C   0  0  0  0  0  0  0  0  0  0  0  0
   28.3201  -21.6819  -15.7092 C   0  0  0  0  0  0  0  0  0  0  0  0
   28.9930  -22.3040  -16.8250 N   0  0  0  0  0  0  0  0  0  0  0  0
   25.0162  -18.3941  -15.1330 C   0  0  0  0  0  0  0  0  0  0  0  0
   24.5795  -18.1530  -13.9709 O   0  0  0  0  0  0  0  0  0  0  0  0
   17.5746  -22.2212  -13.3236 O   0  0  0  0  0  0  0  0  0  0  0  0
   18.6957  -21.4991  -13.6747 C   0  0  0  0  0  0  0  0  0  0  0  0
   19.7387  -21.2665  -12.8076 C   0  0  0  0  0  0  0  0  0  0  0  0
   20.8466  -20.5418  -13.1854 C   0  0  0  0  0  0  0  0  0  0  0  0
   20.9547  -20.0111  -14.4737 C   0  0  0  0  0  0  0  0  0  0  0  0
   22.1535  -19.2204  -14.8312 C   0  0  0  0  0  0  0  0  0  0  0  0
   23.2056  -20.1377  -15.3902 C   0  0  2  0  0  0  0  0  0  0  0  0
   24.3533  -19.3830  -15.8814 N   0  0  0  0  0  0  0  0  0  0  0  0
   22.7283  -21.1201  -16.3622 C   0  0  0  0  0  0  0  0  0  0  0  0
   22.8473  -20.9742  -17.6025 O   0  0  0  0  0  0  0  0  0  0  0  0
   19.9190  -20.2358  -15.3511 C   0  0  0  0  0  0  0  0  0  0  0  0
   18.8151  -20.9710  -14.9391 C   0  0  0  0  0  0  0  0  0  0  0  0
   22.0922  -22.3178  -15.9890 O   0  0  0  0  0  0  0  0  0  0  0  0
  2  5  1  0
  2  1  1  6
  3  4  1  0
  3  2  1  0
  5  6  2  0
  7  8  1  0
  7  5  1  0
  8  9  1  1
 10  9  1  0
 11 10  1  0
 11 12  1  0
 13 12  1  0
 14 15  2  0
 14  8  1  0
 16 17  1  0
 17 18  2  0
 17 27  1  0
 18 19  1  0
 19 20  2  0
 20 26  1  0
 20 21  1  0
 22 21  1  6
 22 24  1  0
 22 23  1  0
 23 14  1  0
 24 28  1  0
 25 24  2  0
 27 26  2  0
M  END
$$$$
