CKY.pdb
     RDKit          3D

 28 28  0  0  1  0  0  0  0  0999 V2000
   25.5865  -33.1800  -10.4503 N   0  0  0  0  0  0  0  0  0  0  0  0
   24.4551  -32.9555  -11.3059 C   0  0  1  0  0  0  0  0  0  0  0  0
   23.9315  -34.2597  -11.8131 C   0  0  0  0  0  0  0  0  0  0  0  0
   25.2819  -35.0825  -12.7156 S   0  0  0  0  0  0  0  0  0  0  0  0
   23.3759  -32.2253  -10.5414 C   0  0  0  0  0  0  0  0  0  0  0  0
   23.2697  -32.5207   -9.3397 O   0  0  0  0  0  0  0  0  0  0  0  0
   22.5523  -31.2723  -11.1717 N   0  0  0  0  0  0  0  0  0  0  0  0
   21.5119  -30.4781  -10.5937 C   0  0  1  0  0  0  0  0  0  0  0  0
   21.2929  -29.1413  -11.2730 C   0  0  0  0  0  0  0  0  0  0  0  0
   20.2754  -28.3144  -10.5264 C   0  0  0  0  0  0  0  0  0  0  0  0
   20.0290  -26.9825  -11.2194 C   0  0  0  0  0  0  0  0  0  0  0  0
   18.9249  -26.2084  -10.5770 C   0  0  0  0  0  0  0  0  0  0  0  0
   18.7581  -24.9491  -11.2634 N   0  0  0  0  0  0  0  0  0  0  0  0
   20.3367  -31.1729  -10.1297 C   0  0  0  0  0  0  0  0  0  0  0  0
   19.5684  -31.7102  -10.9784 O   0  0  0  0  0  0  0  0  0  0  0  0
   14.4008  -35.7101   -5.6925 O   0  0  0  0  0  0  0  0  0  0  0  0
   15.5550  -35.0538   -6.0651 C   0  0  0  0  0  0  0  0  0  0  0  0
   15.9828  -33.8917   -5.4649 C   0  0  0  0  0  0  0  0  0  0  0  0
   17.1399  -33.2575   -5.8573 C   0  0  0  0  0  0  0  0  0  0  0  0
   17.9299  -33.7740   -6.8881 C   0  0  0  0  0  0  0  0  0  0  0  0
   19.1549  -33.0487   -7.2924 C   0  0  0  0  0  0  0  0  0  0  0  0
   18.7972  -31.9928   -8.3015 C   0  0  2  0  0  0  0  0  0  0  0  0
   19.9869  -31.2924   -8.7729 N   0  0  0  0  0  0  0  0  0  0  0  0
   17.7342  -31.0739   -7.8970 C   0  0  0  0  0  0  0  0  0  0  0  0
   17.9529  -29.9157   -7.4676 O   0  0  0  0  0  0  0  0  0  0  0  0
   17.5139  -34.9353   -7.4974 C   0  0  0  0  0  0  0  0  0  0  0  0
   16.3418  -35.5509   -7.0780 C   0  0  0  0  0  0  0  0  0  0  0  0
   16.3698  -31.4108   -7.9548 O   0  0  0  0  0  0  0  0  0  0  0  0
  2  5  1  0
  2  1  1  1
  3  4  1  0
  3  2  1  0
  5  6  2  0
  7  8  1  0
  7  5  1  0
  8  9  1  6
 10  9  1  0
 11 10  1  0
 11 12  1  0
 13 12  1  0
 14 15  2  0
 14  8  1  0
 16 17  1  0
 17 18  2  0
 17 27  1  0
 18 19  1  0
 19 20  2  0
 20 26  1  0
 20 21  1  0
 22 21  1  1
 22 24  1  0
 22 23  1  0
 23 14  1  0
 24 28  1  0
 25 24  2  0
 27 26  2  0
M  END
$$$$
