CKY.pdb
     RDKit          3D

 28 28  0  0  1  0  0  0  0  0999 V2000
   27.2037  -10.6074  -17.7469 N   0  0  0  0  0  0  0  0  0  0  0  0
   26.1613  -11.4025  -17.1604 C   0  0  1  0  0  0  0  0  0  0  0  0
   26.5883  -11.8922  -15.8149 C   0  0  0  0  0  0  0  0  0  0  0  0
   27.8549  -13.1748  -16.0715 S   0  0  0  0  0  0  0  0  0  0  0  0
   24.9012  -10.5783  -17.0366 C   0  0  0  0  0  0  0  0  0  0  0  0
   25.0524   -9.4176  -16.6213 O   0  0  0  0  0  0  0  0  0  0  0  0
   23.6432  -11.1127  -17.3765 N   0  0  0  0  0  0  0  0  0  0  0  0
   22.3664  -10.4680  -17.3396 C   0  0  1  0  0  0  0  0  0  0  0  0
   21.2818  -11.1800  -18.1228 C   0  0  0  0  0  0  0  0  0  0  0  0
   19.9482  -10.4973  -17.9451 C   0  0  0  0  0  0  0  0  0  0  0  0
   19.6983   -9.4764  -19.0452 C   0  0  0  0  0  0  0  0  0  0  0  0
   18.3726   -8.8040  -18.8998 C   0  0  0  0  0  0  0  0  0  0  0  0
   18.1411   -7.9464  -20.0383 N   0  0  0  0  0  0  0  0  0  0  0  0
   21.9752   -9.8575  -16.0933 C   0  0  0  0  0  0  0  0  0  0  0  0
   21.8897  -10.5794  -15.0585 O   0  0  0  0  0  0  0  0  0  0  0  0
   24.7626   -2.7952  -16.3360 O   0  0  0  0  0  0  0  0  0  0  0  0
   24.2079   -3.9114  -15.7461 C   0  0  0  0  0  0  0  0  0  0  0  0
   23.1547   -3.8464  -14.8627 C   0  0  0  0  0  0  0  0  0  0  0  0
   22.6202   -4.9778  -14.2886 C   0  0  0  0  0  0  0  0  0  0  0  0
   23.1311   -6.2448  -14.5836 C   0  0  0  0  0  0  0  0  0  0  0  0
   22.5405   -7.4326  -13.9276 C   0  0  0  0  0  0  0  0  0  0  0  0
   21.3168   -7.8635  -14.6879 C   0  0  2  0  0  0  0  0  0  0  0  0
   21.6791   -8.4898  -15.9546 N   0  0  0  0  0  0  0  0  0  0  0  0
   20.2858   -6.8392  -14.8483 C   0  0  0  0  0  0  0  0  0  0  0  0
   19.9459   -6.3744  -15.9628 O   0  0  0  0  0  0  0  0  0  0  0  0
   24.1845   -6.3246  -15.4650 C   0  0  0  0  0  0  0  0  0  0  0  0
   24.7008   -5.1644  -16.0272 C   0  0  0  0  0  0  0  0  0  0  0  0
   19.5837   -6.2850  -13.7629 O   0  0  0  0  0  0  0  0  0  0  0  0
  2  5  1  0
  2  1  1  1
  3  4  1  0
  3  2  1  0
  5  6  2  0
  7  8  1  0
  7  5  1  0
  8  9  1  1
 10  9  1  0
 11 10  1  0
 11 12  1  0
 13 12  1  0
 14 15  2  0
 14  8  1  0
 16 17  1  0
 17 18  2  0
 17 27  1  0
 18 19  1  0
 19 20  2  0
 20 26  1  0
 20 21  1  0
 22 21  1  6
 22 24  1  0
 22 23  1  0
 23 14  1  0
 24 28  1  0
 25 24  2  0
 27 26  2  0
M  END
$$$$
