CKY.pdb
     RDKit          3D

 28 28  0  0  1  0  0  0  0  0999 V2000
   26.2465  -17.4461  -17.0240 N   0  0  0  0  0  0  0  0  0  0  0  0
   26.0827  -17.7128  -15.6223 C   0  0  1  0  0  0  0  0  0  0  0  0
   25.7461  -16.4499  -14.8982 C   0  0  0  0  0  0  0  0  0  0  0  0
   27.3004  -15.5434  -14.6192 S   0  0  0  0  0  0  0  0  0  0  0  0
   24.9864  -18.7329  -15.4231 C   0  0  0  0  0  0  0  0  0  0  0  0
   23.9498  -18.5491  -16.0822 O   0  0  0  0  0  0  0  0  0  0  0  0
   25.1503  -19.8176  -14.5397 N   0  0  0  0  0  0  0  0  0  0  0  0
   24.1697  -20.7658  -14.1077 C   0  0  1  0  0  0  0  0  0  0  0  0
   24.7374  -22.1043  -13.6807 C   0  0  0  0  0  0  0  0  0  0  0  0
   24.8686  -23.0379  -14.8586 C   0  0  0  0  0  0  0  0  0  0  0  0
   26.2607  -22.9668  -15.4685 C   0  0  0  0  0  0  0  0  0  0  0  0
   26.3492  -23.7118  -16.7599 C   0  0  0  0  0  0  0  0  0  0  0  0
   27.6290  -23.4540  -17.3770 N   0  0  0  0  0  0  0  0  0  0  0  0
   23.0567  -20.2574  -13.3448 C   0  0  0  0  0  0  0  0  0  0  0  0
   23.2872  -19.6107  -12.2827 O   0  0  0  0  0  0  0  0  0  0  0  0
   19.5613  -16.7003  -18.3684 O   0  0  0  0  0  0  0  0  0  0  0  0
   19.8342  -17.0958  -17.0759 C   0  0  0  0  0  0  0  0  0  0  0  0
   21.1058  -17.1111  -16.5499 C   0  0  0  0  0  0  0  0  0  0  0  0
   21.3492  -17.5108  -15.2552 C   0  0  0  0  0  0  0  0  0  0  0  0
   20.3059  -17.9192  -14.4198 C   0  0  0  0  0  0  0  0  0  0  0  0
   20.6148  -18.3613  -13.0416 C   0  0  0  0  0  0  0  0  0  0  0  0
   20.5871  -19.8636  -12.9834 C   0  0  2  0  0  0  0  0  0  0  0  0
   21.7118  -20.4382  -13.7134 N   0  0  0  0  0  0  0  0  0  0  0  0
   19.3130  -20.4815  -13.3478 C   0  0  0  0  0  0  0  0  0  0  0  0
   18.2370  -20.2434  -12.7485 O   0  0  0  0  0  0  0  0  0  0  0  0
   19.0293  -17.9093  -14.9327 C   0  0  0  0  0  0  0  0  0  0  0  0
   18.8171  -17.5004  -16.2428 C   0  0  0  0  0  0  0  0  0  0  0  0
   19.1838  -21.3995  -14.4056 O   0  0  0  0  0  0  0  0  0  0  0  0
  2  5  1  0
  2  1  1  6
  3  4  1  0
  3  2  1  0
  5  6  2  0
  7  8  1  0
  7  5  1  0
  8  9  1  1
 10  9  1  0
 11 10  1  0
 11 12  1  0
 13 12  1  0
 14 15  2  0
 14  8  1  0
 16 17  1  0
 17 18  2  0
 17 27  1  0
 18 19  1  0
 19 20  2  0
 20 26  1  0
 20 21  1  0
 22 21  1  6
 22 24  1  0
 22 23  1  0
 23 14  1  0
 24 28  1  0
 25 24  2  0
 27 26  2  0
M  END
$$$$
