CKY.pdb
     RDKit          3D

 28 28  0  0  1  0  0  0  0  0999 V2000
   25.3621  -10.8425  -23.1612 N   0  0  0  0  0  0  0  0  0  0  0  0
   25.2780  -10.7883  -21.7284 C   0  0  1  0  0  0  0  0  0  0  0  0
   24.4739   -9.6011  -21.3086 C   0  0  0  0  0  0  0  0  0  0  0  0
   25.4841   -8.1165  -21.6096 S   0  0  0  0  0  0  0  0  0  0  0  0
   24.6423  -12.0560  -21.2077 C   0  0  0  0  0  0  0  0  0  0  0  0
   23.7371  -12.5354  -21.9102 O   0  0  0  0  0  0  0  0  0  0  0  0
   25.0649  -12.6411  -19.9984 N   0  0  0  0  0  0  0  0  0  0  0  0
   24.5956  -13.8450  -19.3838 C   0  0  1  0  0  0  0  0  0  0  0  0
   25.6900  -14.8192  -18.9968 C   0  0  0  0  0  0  0  0  0  0  0  0
   25.9955  -15.7685  -20.1290 C   0  0  0  0  0  0  0  0  0  0  0  0
   25.5798  -17.1912  -19.7854 C   0  0  0  0  0  0  0  0  0  0  0  0
   26.7500  -18.0531  -19.4414 C   0  0  0  0  0  0  0  0  0  0  0  0
   26.2973  -19.4015  -19.1927 N   0  0  0  0  0  0  0  0  0  0  0  0
   23.4787  -13.7279  -18.4795 C   0  0  0  0  0  0  0  0  0  0  0  0
   23.4011  -12.7114  -17.7311 O   0  0  0  0  0  0  0  0  0  0  0  0
   15.7618  -12.6734  -14.9455 O   0  0  0  0  0  0  0  0  0  0  0  0
   16.9319  -12.8014  -15.6638 C   0  0  0  0  0  0  0  0  0  0  0  0
   18.1071  -12.1864  -15.2969 C   0  0  0  0  0  0  0  0  0  0  0  0
   19.2612  -12.3320  -16.0332 C   0  0  0  0  0  0  0  0  0  0  0  0
   19.2829  -13.1160  -17.1900 C   0  0  0  0  0  0  0  0  0  0  0  0
   20.5397  -13.2281  -17.9634 C   0  0  0  0  0  0  0  0  0  0  0  0
   21.2461  -14.4996  -17.5824 C   0  0  2  0  0  0  0  0  0  0  0  0
   22.4554  -14.6869  -18.3765 N   0  0  0  0  0  0  0  0  0  0  0  0
   20.4082  -15.6976  -17.5536 C   0  0  0  0  0  0  0  0  0  0  0  0
   20.2613  -16.4578  -18.5406 O   0  0  0  0  0  0  0  0  0  0  0  0
   18.1148  -13.7364  -17.5689 C   0  0  0  0  0  0  0  0  0  0  0  0
   16.9676  -13.5696  -16.8042 C   0  0  0  0  0  0  0  0  0  0  0  0
   19.6922  -16.1021  -16.4126 O   0  0  0  0  0  0  0  0  0  0  0  0
  2  5  1  0
  2  1  1  6
  3  4  1  0
  3  2  1  0
  5  6  2  0
  7  8  1  0
  7  5  1  0
  8  9  1  1
 10  9  1  0
 11 10  1  0
 11 12  1  0
 13 12  1  0
 14 15  2  0
 14  8  1  0
 16 17  1  0
 17 18  2  0
 17 27  1  0
 18 19  1  0
 19 20  2  0
 20 26  1  0
 20 21  1  0
 22 21  1  6
 22 24  1  0
 22 23  1  0
 23 14  1  0
 24 28  1  0
 25 24  2  0
 27 26  2  0
M  END
$$$$
