AWW.pdb
     RDKit          3D

 34 37  0  0  1  0  0  0  0  0999 V2000
   28.0978  -18.7463  -13.1391 C   0  0  0  0  0  0  0  0  0  0  0  0
   28.7009  -19.5483  -11.9993 C   0  0  2  0  0  0  0  0  0  0  0  0
   29.6327  -20.4817  -12.5535 N   0  0  0  0  0  0  0  0  0  0  0  0
   27.5872  -20.2910  -11.3319 C   0  0  0  0  0  0  0  0  0  0  0  0
   27.3097  -21.4648  -11.6762 O   0  0  0  0  0  0  0  0  0  0  0  0
   26.8168  -19.7041  -10.3016 N   0  0  0  0  0  0  0  0  0  0  0  0
   25.7409  -20.3989   -9.6891 C   0  0  1  0  0  0  0  0  0  0  0  0
   25.3871  -19.8648   -8.3228 C   0  0  0  0  0  0  0  0  0  0  0  0
   26.6022  -19.4564   -7.5904 C   0  0  0  0  0  0  0  0  0  0  0  0
   27.2925  -18.2585   -7.6328 C   0  0  0  0  0  0  0  0  0  0  0  0
   28.3502  -18.3319   -6.7892 N   0  0  0  0  0  0  0  0  0  0  0  0
   28.3754  -19.5387   -6.1956 C   0  0  0  0  0  0  0  0  0  0  0  0
   29.2037  -20.1433   -5.2749 C   0  0  0  0  0  0  0  0  0  0  0  0
   28.9946  -21.4281   -4.8237 C   0  0  0  0  0  0  0  0  0  0  0  0
   27.9128  -22.1421   -5.3109 C   0  0  0  0  0  0  0  0  0  0  0  0
   27.0825  -21.5395   -6.2324 C   0  0  0  0  0  0  0  0  0  0  0  0
   27.2920  -20.2370   -6.6916 C   0  0  0  0  0  0  0  0  0  0  0  0
   24.5921  -20.4198  -10.6085 C   0  0  0  0  0  0  0  0  0  0  0  0
   24.4134  -19.4223  -11.3438 O   0  0  0  0  0  0  0  0  0  0  0  0
   23.6770  -21.4941  -10.7154 N   0  0  0  0  0  0  0  0  0  0  0  0
   22.5994  -21.4624  -11.7301 C   0  0  1  0  0  0  0  0  0  0  0  0
   23.1666  -21.2200  -13.0767 C   0  0  0  0  0  0  0  0  0  0  0  0
   23.9887  -22.3107  -13.6146 C   0  0  0  0  0  0  0  0  0  0  0  0
   23.8716  -23.6689  -13.2810 C   0  0  0  0  0  0  0  0  0  0  0  0
   24.7811  -24.4005  -13.9147 N   0  0  0  0  0  0  0  0  0  0  0  0
   25.5155  -23.5665  -14.6743 C   0  0  0  0  0  0  0  0  0  0  0  0
   26.5721  -23.8346  -15.5305 C   0  0  0  0  0  0  0  0  0  0  0  0
   27.1476  -22.7894  -16.2138 C   0  0  0  0  0  0  0  0  0  0  0  0
   26.6949  -21.4886  -16.0629 C   0  0  0  0  0  0  0  0  0  0  0  0
   25.6466  -21.2478  -15.2082 C   0  0  0  0  0  0  0  0  0  0  0  0
   25.0538  -22.2765  -14.5124 C   0  0  0  0  0  0  0  0  0  0  0  0
   21.7141  -22.6093  -11.5483 C   0  0  0  0  0  0  0  0  0  0  0  0
   20.6059  -22.7188  -12.1962 O   0  0  0  0  0  0  0  0  0  0  0  0
   21.9552  -23.6777  -10.6937 O   0  0  0  0  0  0  0  0  0  0  0  0
  2  1  1  6
  2  4  1  0
  2  3  1  0
  4  5  2  0
  6  7  1  0
  6  4  1  0
  7  8  1  1
  9 17  1  0
  9  8  1  0
 10  9  2  0
 11 10  1  0
 11 12  1  0
 12 13  1  0
 12 17  2  0
 13 14  2  0
 14 15  1  0
 16 15  2  0
 17 16  1  0
 18  7  1  0
 19 18  2  0
 20 18  1  0
 21 22  1  6
 21 20  1  0
 22 23  1  0
 23 31  1  0
 24 23  2  0
 24 25  1  0
 25 26  1  0
 26 27  1  0
 27 28  2  0
 29 28  1  0
 30 29  2  0
 31 26  2  0
 31 30  1  0
 32 34  1  0
 32 21  1  0
 33 32  2  0
M  END
$$$$
