AWW.pdb
     RDKit          3D

 34 37  0  0  1  0  0  0  0  0999 V2000
   28.9658  -23.3309  -16.0567 C   0  0  0  0  0  0  0  0  0  0  0  0
   27.7529  -22.4398  -16.2581 C   0  0  2  0  0  0  0  0  0  0  0  0
   28.2133  -21.1247  -16.5825 N   0  0  0  0  0  0  0  0  0  0  0  0
   27.0021  -22.4012  -14.9649 C   0  0  0  0  0  0  0  0  0  0  0  0
   26.5833  -23.4611  -14.4410 O   0  0  0  0  0  0  0  0  0  0  0  0
   26.7409  -21.1838  -14.2947 N   0  0  0  0  0  0  0  0  0  0  0  0
   25.9400  -21.1362  -13.1235 C   0  0  1  0  0  0  0  0  0  0  0  0
   26.3523  -20.0477  -12.1631 C   0  0  0  0  0  0  0  0  0  0  0  0
   27.4219  -20.5223  -11.2629 C   0  0  0  0  0  0  0  0  0  0  0  0
   28.7092  -20.9278  -11.5655 C   0  0  0  0  0  0  0  0  0  0  0  0
   29.3392  -21.2792  -10.4186 N   0  0  0  0  0  0  0  0  0  0  0  0
   28.5067  -21.1172   -9.3745 C   0  0  0  0  0  0  0  0  0  0  0  0
   28.6151  -21.3153   -8.0150 C   0  0  0  0  0  0  0  0  0  0  0  0
   27.5767  -21.0624   -7.1458 C   0  0  0  0  0  0  0  0  0  0  0  0
   26.3773  -20.5914   -7.6531 C   0  0  0  0  0  0  0  0  0  0  0  0
   26.2660  -20.3926   -9.0131 C   0  0  0  0  0  0  0  0  0  0  0  0
   27.3174  -20.6480   -9.8967 C   0  0  0  0  0  0  0  0  0  0  0  0
   24.5226  -21.0497  -13.5093 C   0  0  0  0  0  0  0  0  0  0  0  0
   24.2001  -20.1921  -14.3625 O   0  0  0  0  0  0  0  0  0  0  0  0
   23.5010  -21.8732  -12.9787 N   0  0  0  0  0  0  0  0  0  0  0  0
   22.0908  -21.6712  -13.3816 C   0  0  1  0  0  0  0  0  0  0  0  0
   21.2646  -22.8268  -12.9624 C   0  0  0  0  0  0  0  0  0  0  0  0
   20.0044  -22.4841  -12.2921 C   0  0  0  0  0  0  0  0  0  0  0  0
   19.0290  -21.6002  -12.7790 C   0  0  0  0  0  0  0  0  0  0  0  0
   18.0192  -21.4794  -11.9247 N   0  0  0  0  0  0  0  0  0  0  0  0
   18.2879  -22.2648  -10.8650 C   0  0  0  0  0  0  0  0  0  0  0  0
   17.5476  -22.5003   -9.7169 C   0  0  0  0  0  0  0  0  0  0  0  0
   18.0458  -23.3748   -8.7800 C   0  0  0  0  0  0  0  0  0  0  0  0
   19.2602  -24.0166   -8.9617 C   0  0  0  0  0  0  0  0  0  0  0  0
   19.9758  -23.7665  -10.1075 C   0  0  0  0  0  0  0  0  0  0  0  0
   19.4994  -22.8953  -11.0602 C   0  0  0  0  0  0  0  0  0  0  0  0
   21.6531  -20.3321  -12.9979 C   0  0  0  0  0  0  0  0  0  0  0  0
   22.0571  -19.7735  -11.9095 O   0  0  0  0  0  0  0  0  0  0  0  0
   20.7885  -19.5321  -13.7344 O   0  0  0  0  0  0  0  0  0  0  0  0
  2  1  1  1
  2  4  1  0
  2  3  1  0
  4  5  2  0
  6  7  1  0
  6  4  1  0
  7  8  1  1
  9 17  1  0
  9  8  1  0
 10  9  2  0
 11 10  1  0
 11 12  1  0
 12 13  1  0
 12 17  2  0
 13 14  2  0
 14 15  1  0
 16 15  2  0
 17 16  1  0
 18  7  1  0
 19 18  2  0
 20 18  1  0
 21 22  1  1
 21 20  1  0
 22 23  1  0
 23 31  1  0
 24 23  2  0
 24 25  1  0
 25 26  1  0
 26 27  1  0
 27 28  2  0
 29 28  1  0
 30 29  2  0
 31 26  2  0
 31 30  1  0
 32 34  1  0
 32 21  1  0
 33 32  2  0
M  END
$$$$
