AWW.pdb
     RDKit          3D

 34 37  0  0  1  0  0  0  0  0999 V2000
   27.7392  -18.1991  -15.1016 C   0  0  0  0  0  0  0  0  0  0  0  0
   28.4112  -19.5401  -14.8646 C   0  0  2  0  0  0  0  0  0  0  0  0
   28.7500  -20.1014  -16.1361 N   0  0  0  0  0  0  0  0  0  0  0  0
   27.4211  -20.4249  -14.1759 C   0  0  0  0  0  0  0  0  0  0  0  0
   26.5490  -21.0383  -14.8367 O   0  0  0  0  0  0  0  0  0  0  0  0
   27.4325  -20.5999  -12.7728 N   0  0  0  0  0  0  0  0  0  0  0  0
   26.5090  -21.4601  -12.1226 C   0  0  1  0  0  0  0  0  0  0  0  0
   26.9917  -21.9461  -10.7780 C   0  0  0  0  0  0  0  0  0  0  0  0
   26.6784  -20.9619   -9.7231 C   0  0  0  0  0  0  0  0  0  0  0  0
   25.5111  -20.2539   -9.5008 C   0  0  0  0  0  0  0  0  0  0  0  0
   25.6779  -19.4640   -8.4128 N   0  0  0  0  0  0  0  0  0  0  0  0
   26.9163  -19.6312   -7.9150 C   0  0  0  0  0  0  0  0  0  0  0  0
   27.6073  -19.0969   -6.8490 C   0  0  0  0  0  0  0  0  0  0  0  0
   28.9052  -19.4535   -6.5558 C   0  0  0  0  0  0  0  0  0  0  0  0
   29.5430  -20.3834   -7.3596 C   0  0  0  0  0  0  0  0  0  0  0  0
   28.8539  -20.9194   -8.4270 C   0  0  0  0  0  0  0  0  0  0  0  0
   27.5377  -20.5597   -8.7267 C   0  0  0  0  0  0  0  0  0  0  0  0
   25.1970  -20.7975  -12.0524 C   0  0  0  0  0  0  0  0  0  0  0  0
   25.1424  -19.6629  -11.5258 O   0  0  0  0  0  0  0  0  0  0  0  0
   23.9937  -21.3595  -12.5416 N   0  0  0  0  0  0  0  0  0  0  0  0
   22.7359  -20.5793  -12.5117 C   0  0  1  0  0  0  0  0  0  0  0  0
   22.9574  -19.2231  -13.0644 C   0  0  0  0  0  0  0  0  0  0  0  0
   23.5425  -19.1843  -14.4102 C   0  0  0  0  0  0  0  0  0  0  0  0
   23.4194  -20.1830  -15.3885 C   0  0  0  0  0  0  0  0  0  0  0  0
   24.0897  -19.8635  -16.4898 N   0  0  0  0  0  0  0  0  0  0  0  0
   24.6669  -18.6656  -16.2804 C   0  0  0  0  0  0  0  0  0  0  0  0
   25.4557  -17.8949  -17.1203 C   0  0  0  0  0  0  0  0  0  0  0  0
   25.9129  -16.6811  -16.6639 C   0  0  0  0  0  0  0  0  0  0  0  0
   25.6025  -16.2209  -15.3945 C   0  0  0  0  0  0  0  0  0  0  0  0
   24.8196  -17.0029  -14.5803 C   0  0  0  0  0  0  0  0  0  0  0  0
   24.3499  -18.2218  -15.0131 C   0  0  0  0  0  0  0  0  0  0  0  0
   21.6437  -21.3795  -13.0585 C   0  0  0  0  0  0  0  0  0  0  0  0
   21.8644  -22.4450  -13.7485 O   0  0  0  0  0  0  0  0  0  0  0  0
   20.2919  -21.1009  -12.9008 O   0  0  0  0  0  0  0  0  0  0  0  0
  2  1  1  6
  2  4  1  0
  2  3  1  0
  4  5  2  0
  6  7  1  0
  6  4  1  0
  7  8  1  1
  9 17  1  0
  9  8  1  0
 10  9  2  0
 11 10  1  0
 11 12  1  0
 12 13  1  0
 12 17  2  0
 13 14  2  0
 14 15  1  0
 16 15  2  0
 17 16  1  0
 18  7  1  0
 19 18  2  0
 20 18  1  0
 21 22  1  6
 21 20  1  0
 22 23  1  0
 23 31  1  0
 24 23  2  0
 24 25  1  0
 25 26  1  0
 26 27  1  0
 27 28  2  0
 29 28  1  0
 30 29  2  0
 31 26  2  0
 31 30  1  0
 32 34  1  0
 32 21  1  0
 33 32  2  0
M  END
$$$$
