AWW.pdb
     RDKit          3D

 34 37  0  0  1  0  0  0  0  0999 V2000
   23.0458  -22.5656  -17.2667 C   0  0  0  0  0  0  0  0  0  0  0  0
   24.5101  -22.6699  -17.6554 C   0  0  2  0  0  0  0  0  0  0  0  0
   24.6961  -23.8934  -18.3731 N   0  0  0  0  0  0  0  0  0  0  0  0
   25.3104  -22.7054  -16.3922 C   0  0  0  0  0  0  0  0  0  0  0  0
   25.5839  -23.7997  -15.8432 O   0  0  0  0  0  0  0  0  0  0  0  0
   25.7818  -21.5217  -15.7791 N   0  0  0  0  0  0  0  0  0  0  0  0
   26.6427  -21.5600  -14.6508 C   0  0  1  0  0  0  0  0  0  0  0  0
   27.7566  -20.5441  -14.7160 C   0  0  0  0  0  0  0  0  0  0  0  0
   28.6808  -20.7078  -13.5763 C   0  0  0  0  0  0  0  0  0  0  0  0
   29.6485  -21.6726  -13.3616 C   0  0  0  0  0  0  0  0  0  0  0  0
   30.2580  -21.4262  -12.1769 N   0  0  0  0  0  0  0  0  0  0  0  0
   29.7212  -20.3316  -11.6084 C   0  0  0  0  0  0  0  0  0  0  0  0
   29.9480  -19.6445  -10.4354 C   0  0  0  0  0  0  0  0  0  0  0  0
   29.2328  -18.5198  -10.0873 C   0  0  0  0  0  0  0  0  0  0  0  0
   28.2484  -18.0588  -10.9453 C   0  0  0  0  0  0  0  0  0  0  0  0
   28.0194  -18.7445  -12.1196 C   0  0  0  0  0  0  0  0  0  0  0  0
   28.7431  -19.8852  -12.4752 C   0  0  0  0  0  0  0  0  0  0  0  0
   25.8383  -21.4467  -13.4239 C   0  0  0  0  0  0  0  0  0  0  0  0
   24.6838  -20.9725  -13.5233 O   0  0  0  0  0  0  0  0  0  0  0  0
   26.2849  -21.8391  -12.1395 N   0  0  0  0  0  0  0  0  0  0  0  0
   25.4140  -21.6590  -10.9559 C   0  0  1  0  0  0  0  0  0  0  0  0
   26.1522  -21.9961   -9.7169 C   0  0  0  0  0  0  0  0  0  0  0  0
   26.4147  -20.8654   -8.8181 C   0  0  0  0  0  0  0  0  0  0  0  0
   25.6493  -19.6925   -8.7287 C   0  0  0  0  0  0  0  0  0  0  0  0
   26.1645  -18.8478   -7.8425 N   0  0  0  0  0  0  0  0  0  0  0  0
   27.2663  -19.4233   -7.3261 C   0  0  0  0  0  0  0  0  0  0  0  0
   28.1466  -18.9612   -6.3602 C   0  0  0  0  0  0  0  0  0  0  0  0
   29.2003  -19.7639   -5.9913 C   0  0  0  0  0  0  0  0  0  0  0  0
   29.3948  -21.0114   -6.5617 C   0  0  0  0  0  0  0  0  0  0  0  0
   28.5093  -21.4474   -7.5173 C   0  0  0  0  0  0  0  0  0  0  0  0
   27.4470  -20.6629   -7.9043 C   0  0  0  0  0  0  0  0  0  0  0  0
   24.7396  -20.3659  -11.0295 C   0  0  0  0  0  0  0  0  0  0  0  0
   25.2505  -19.3711  -11.6693 O   0  0  0  0  0  0  0  0  0  0  0  0
   23.5141  -20.0693  -10.4465 O   0  0  0  0  0  0  0  0  0  0  0  0
  2  1  1  1
  2  4  1  0
  2  3  1  0
  4  5  2  0
  6  7  1  0
  6  4  1  0
  7  8  1  6
  9 17  1  0
  9  8  1  0
 10  9  2  0
 11 10  1  0
 11 12  1  0
 12 13  1  0
 12 17  2  0
 13 14  2  0
 14 15  1  0
 16 15  2  0
 17 16  1  0
 18  7  1  0
 19 18  2  0
 20 18  1  0
 21 22  1  1
 21 20  1  0
 22 23  1  0
 23 31  1  0
 24 23  2  0
 24 25  1  0
 25 26  1  0
 26 27  1  0
 27 28  2  0
 29 28  1  0
 30 29  2  0
 31 26  2  0
 31 30  1  0
 32 34  1  0
 32 21  1  0
 33 32  2  0
M  END
$$$$
