AWW.pdb
     RDKit          3D

 34 37  0  0  1  0  0  0  0  0999 V2000
   29.3559  -18.9383  -14.4493 C   0  0  0  0  0  0  0  0  0  0  0  0
   28.0605  -19.5363  -14.9692 C   0  0  2  0  0  0  0  0  0  0  0  0
   27.5956  -18.7239  -16.0512 N   0  0  0  0  0  0  0  0  0  0  0  0
   27.0660  -19.4977  -13.8526 C   0  0  0  0  0  0  0  0  0  0  0  0
   26.7451  -18.4061  -13.3244 O   0  0  0  0  0  0  0  0  0  0  0  0
   26.4591  -20.6753  -13.3585 N   0  0  0  0  0  0  0  0  0  0  0  0
   25.5287  -20.6397  -12.2868 C   0  0  1  0  0  0  0  0  0  0  0  0
   24.1471  -21.1010  -12.6811 C   0  0  0  0  0  0  0  0  0  0  0  0
   23.4179  -20.0266  -13.3837 C   0  0  0  0  0  0  0  0  0  0  0  0
   23.5204  -19.6096  -14.6985 C   0  0  0  0  0  0  0  0  0  0  0  0
   22.6538  -18.5885  -14.9036 N   0  0  0  0  0  0  0  0  0  0  0  0
   21.9869  -18.3229  -13.7660 C   0  0  0  0  0  0  0  0  0  0  0  0
   21.0150  -17.4136  -13.4079 C   0  0  0  0  0  0  0  0  0  0  0  0
   20.4900  -17.3553  -12.1356 C   0  0  0  0  0  0  0  0  0  0  0  0
   20.9532  -18.2417  -11.1777 C   0  0  0  0  0  0  0  0  0  0  0  0
   21.9257  -19.1523  -11.5334 C   0  0  0  0  0  0  0  0  0  0  0  0
   22.4598  -19.2138  -12.8228 C   0  0  0  0  0  0  0  0  0  0  0  0
   26.0762  -21.3894  -11.1451 C   0  0  0  0  0  0  0  0  0  0  0  0
   26.4668  -22.5614  -11.3484 O   0  0  0  0  0  0  0  0  0  0  0  0
   26.1901  -20.8714   -9.8330 N   0  0  0  0  0  0  0  0  0  0  0  0
   26.2325  -21.7841   -8.6680 C   0  0  1  0  0  0  0  0  0  0  0  0
   27.5312  -21.6638   -7.9661 C   0  0  0  0  0  0  0  0  0  0  0  0
   27.7325  -20.4072   -7.2344 C   0  0  0  0  0  0  0  0  0  0  0  0
   27.0938  -19.1873   -7.5059 C   0  0  0  0  0  0  0  0  0  0  0  0
   27.5134  -18.2310   -6.6851 N   0  0  0  0  0  0  0  0  0  0  0  0
   28.4256  -18.7765   -5.8592 C   0  0  0  0  0  0  0  0  0  0  0  0
   29.1448  -18.2059   -4.8206 C   0  0  0  0  0  0  0  0  0  0  0  0
   30.0147  -18.9980   -4.1088 C   0  0  0  0  0  0  0  0  0  0  0  0
   30.1825  -20.3403   -4.4084 C   0  0  0  0  0  0  0  0  0  0  0  0
   29.4590  -20.8829   -5.4425 C   0  0  0  0  0  0  0  0  0  0  0  0
   28.5824  -20.1114   -6.1705 C   0  0  0  0  0  0  0  0  0  0  0  0
   25.0075  -21.6455   -7.8855 C   0  0  0  0  0  0  0  0  0  0  0  0
   24.0912  -20.7984   -8.2063 O   0  0  0  0  0  0  0  0  0  0  0  0
   24.6953  -22.3848   -6.7517 O   0  0  0  0  0  0  0  0  0  0  0  0
  2  1  1  1
  2  4  1  0
  2  3  1  0
  4  5  2  0
  6  7  1  0
  6  4  1  0
  7  8  1  6
  9 17  1  0
  9  8  1  0
 10  9  2  0
 11 10  1  0
 11 12  1  0
 12 13  1  0
 12 17  2  0
 13 14  2  0
 14 15  1  0
 16 15  2  0
 17 16  1  0
 18  7  1  0
 19 18  2  0
 20 18  1  0
 21 22  1  1
 21 20  1  0
 22 23  1  0
 23 31  1  0
 24 23  2  0
 24 25  1  0
 25 26  1  0
 26 27  1  0
 27 28  2  0
 29 28  1  0
 30 29  2  0
 31 26  2  0
 31 30  1  0
 32 34  1  0
 32 21  1  0
 33 32  2  0
M  END
$$$$
