AWW.pdb
     RDKit          3D

 34 37  0  0  1  0  0  0  0  0999 V2000
   22.5983  -21.3427  -12.4061 C   0  0  0  0  0  0  0  0  0  0  0  0
   23.0865  -21.3264  -10.9683 C   0  0  2  0  0  0  0  0  0  0  0  0
   22.1893  -20.5187  -10.2006 N   0  0  0  0  0  0  0  0  0  0  0  0
   24.4474  -20.7057  -10.9612 C   0  0  0  0  0  0  0  0  0  0  0  0
   24.5856  -19.4739  -11.1540 O   0  0  0  0  0  0  0  0  0  0  0  0
   25.6127  -21.4753  -10.7396 N   0  0  0  0  0  0  0  0  0  0  0  0
   26.9012  -20.8804  -10.7003 C   0  0  1  0  0  0  0  0  0  0  0  0
   27.7362  -21.3433   -9.5317 C   0  0  0  0  0  0  0  0  0  0  0  0
   27.4754  -20.5110   -8.3405 C   0  0  0  0  0  0  0  0  0  0  0  0
   26.5331  -19.5158   -8.1534 C   0  0  0  0  0  0  0  0  0  0  0  0
   26.6581  -19.0243   -6.8970 N   0  0  0  0  0  0  0  0  0  0  0  0
   27.6514  -19.6650   -6.2549 C   0  0  0  0  0  0  0  0  0  0  0  0
   28.1990  -19.5761   -4.9933 C   0  0  0  0  0  0  0  0  0  0  0  0
   29.2421  -20.3764   -4.5821 C   0  0  0  0  0  0  0  0  0  0  0  0
   29.7628  -21.3063   -5.4663 C   0  0  0  0  0  0  0  0  0  0  0  0
   29.2169  -21.3972   -6.7293 C   0  0  0  0  0  0  0  0  0  0  0  0
   28.1590  -20.5870   -7.1490 C   0  0  0  0  0  0  0  0  0  0  0  0
   27.5689  -21.0856  -11.9954 C   0  0  0  0  0  0  0  0  0  0  0  0
   27.8184  -22.2617  -12.3448 O   0  0  0  0  0  0  0  0  0  0  0  0
   27.9467  -20.0400  -12.8712 N   0  0  0  0  0  0  0  0  0  0  0  0
   27.9659  -20.2590  -14.3353 C   0  0  1  0  0  0  0  0  0  0  0  0
   26.6940  -20.8731  -14.7812 C   0  0  0  0  0  0  0  0  0  0  0  0
   25.5413  -19.9650  -14.8212 C   0  0  0  0  0  0  0  0  0  0  0  0
   25.5587  -18.6008  -14.4921 C   0  0  0  0  0  0  0  0  0  0  0  0
   24.3487  -18.0639  -14.6004 N   0  0  0  0  0  0  0  0  0  0  0  0
   23.5072  -19.0365  -14.9976 C   0  0  0  0  0  0  0  0  0  0  0  0
   22.1483  -18.9875  -15.2666 C   0  0  0  0  0  0  0  0  0  0  0  0
   21.5170  -20.1366  -15.6808 C   0  0  0  0  0  0  0  0  0  0  0  0
   22.2076  -21.3282  -15.8319 C   0  0  0  0  0  0  0  0  0  0  0  0
   23.5538  -21.3520  -15.5587 C   0  0  0  0  0  0  0  0  0  0  0  0
   24.2088  -20.2157  -15.1423 C   0  0  0  0  0  0  0  0  0  0  0  0
   28.4241  -19.0484  -15.0111 C   0  0  0  0  0  0  0  0  0  0  0  0
   28.4375  -17.9051  -14.4172 O   0  0  0  0  0  0  0  0  0  0  0  0
   28.8865  -18.9897  -16.3197 O   0  0  0  0  0  0  0  0  0  0  0  0
  2  1  1  6
  2  4  1  0
  2  3  1  0
  4  5  2  0
  6  7  1  0
  6  4  1  0
  7  8  1  1
  9 17  1  0
  9  8  1  0
 10  9  2  0
 11 10  1  0
 11 12  1  0
 12 13  1  0
 12 17  2  0
 13 14  2  0
 14 15  1  0
 16 15  2  0
 17 16  1  0
 18  7  1  0
 19 18  2  0
 20 18  1  0
 21 22  1  6
 21 20  1  0
 22 23  1  0
 23 31  1  0
 24 23  2  0
 24 25  1  0
 25 26  1  0
 26 27  1  0
 27 28  2  0
 29 28  1  0
 30 29  2  0
 31 26  2  0
 31 30  1  0
 32 34  1  0
 32 21  1  0
 33 32  2  0
M  END
$$$$
