AWW.pdb
     RDKit          3D

 34 37  0  0  1  0  0  0  0  0999 V2000
   27.7677  -18.1608  -15.0573 C   0  0  0  0  0  0  0  0  0  0  0  0
   28.3830  -19.5404  -14.9026 C   0  0  2  0  0  0  0  0  0  0  0  0
   28.6350  -20.0666  -16.2088 N   0  0  0  0  0  0  0  0  0  0  0  0
   27.3834  -20.4038  -14.2007 C   0  0  0  0  0  0  0  0  0  0  0  0
   26.4702  -20.9726  -14.8458 O   0  0  0  0  0  0  0  0  0  0  0  0
   27.4311  -20.6077  -12.8023 N   0  0  0  0  0  0  0  0  0  0  0  0
   26.5330  -21.4912  -12.1480 C   0  0  1  0  0  0  0  0  0  0  0  0
   27.0236  -21.9464  -10.7955 C   0  0  0  0  0  0  0  0  0  0  0  0
   26.6677  -20.9640   -9.7524 C   0  0  0  0  0  0  0  0  0  0  0  0
   25.4843  -20.2733   -9.5633 C   0  0  0  0  0  0  0  0  0  0  0  0
   25.6103  -19.4777   -8.4739 N   0  0  0  0  0  0  0  0  0  0  0  0
   26.8375  -19.6246   -7.9431 C   0  0  0  0  0  0  0  0  0  0  0  0
   27.4920  -19.0768   -6.8610 C   0  0  0  0  0  0  0  0  0  0  0  0
   28.7870  -19.4128   -6.5325 C   0  0  0  0  0  0  0  0  0  0  0  0
   29.4598  -20.3352   -7.3162 C   0  0  0  0  0  0  0  0  0  0  0  0
   28.8073  -20.8847   -8.3996 C   0  0  0  0  0  0  0  0  0  0  0  0
   27.4942  -20.5460   -8.7350 C   0  0  0  0  0  0  0  0  0  0  0  0
   25.1992  -20.8721  -12.0922 C   0  0  0  0  0  0  0  0  0  0  0  0
   25.0841  -19.7852  -11.4816 O   0  0  0  0  0  0  0  0  0  0  0  0
   24.0389  -21.4254  -12.6843 N   0  0  0  0  0  0  0  0  0  0  0  0
   22.7473  -20.7049  -12.6177 C   0  0  1  0  0  0  0  0  0  0  0  0
   22.9248  -19.2906  -13.0204 C   0  0  0  0  0  0  0  0  0  0  0  0
   23.4596  -19.0879  -14.3724 C   0  0  0  0  0  0  0  0  0  0  0  0
   23.2890  -19.9561  -15.4619 C   0  0  0  0  0  0  0  0  0  0  0  0
   23.9211  -19.5059  -16.5398 N   0  0  0  0  0  0  0  0  0  0  0  0
   24.5187  -18.3471  -16.2055 C   0  0  0  0  0  0  0  0  0  0  0  0
   25.2839  -17.4825  -16.9727 C   0  0  0  0  0  0  0  0  0  0  0  0
   25.7711  -16.3379  -16.3869 C   0  0  0  0  0  0  0  0  0  0  0  0
   25.5135  -16.0377  -15.0591 C   0  0  0  0  0  0  0  0  0  0  0  0
   24.7531  -16.9103  -14.3189 C   0  0  0  0  0  0  0  0  0  0  0  0
   24.2542  -18.0628  -14.8816 C   0  0  0  0  0  0  0  0  0  0  0  0
   21.7085  -21.4881  -13.2808 C   0  0  0  0  0  0  0  0  0  0  0  0
   20.4613  -21.1810  -13.1810 O   0  0  0  0  0  0  0  0  0  0  0  0
   21.9339  -22.6085  -14.0706 O   0  0  0  0  0  0  0  0  0  0  0  0
  2  1  1  6
  2  4  1  0
  2  3  1  0
  4  5  2  0
  6  7  1  0
  6  4  1  0
  7  8  1  1
  9 17  1  0
  9  8  1  0
 10  9  2  0
 11 10  1  0
 11 12  1  0
 12 13  1  0
 12 17  2  0
 13 14  2  0
 14 15  1  0
 16 15  2  0
 17 16  1  0
 18  7  1  0
 19 18  2  0
 20 18  1  0
 21 22  1  6
 21 20  1  0
 22 23  1  0
 23 31  1  0
 24 23  2  0
 24 25  1  0
 25 26  1  0
 26 27  1  0
 27 28  2  0
 29 28  1  0
 30 29  2  0
 31 26  2  0
 31 30  1  0
 32 34  1  0
 32 21  1  0
 33 32  2  0
M  END
$$$$
