AWW.pdb
     RDKit          3D

 34 37  0  0  1  0  0  0  0  0999 V2000
   26.8728  -24.0692  -18.5672 C   0  0  0  0  0  0  0  0  0  0  0  0
   27.8913  -23.2604  -17.7834 C   0  0  2  0  0  0  0  0  0  0  0  0
   28.9546  -24.1355  -17.3958 N   0  0  0  0  0  0  0  0  0  0  0  0
   27.2062  -22.7353  -16.5617 C   0  0  0  0  0  0  0  0  0  0  0  0
   27.1100  -23.4452  -15.5320 O   0  0  0  0  0  0  0  0  0  0  0  0
   26.6495  -21.4361  -16.5238 N   0  0  0  0  0  0  0  0  0  0  0  0
   26.1782  -20.8634  -15.3133 C   0  0  1  0  0  0  0  0  0  0  0  0
   26.7014  -19.4691  -15.0699 C   0  0  0  0  0  0  0  0  0  0  0  0
   28.0780  -19.5127  -14.5382 C   0  0  0  0  0  0  0  0  0  0  0  0
   29.2548  -19.0620  -15.1087 C   0  0  0  0  0  0  0  0  0  0  0  0
   30.2784  -19.3100  -14.2563 N   0  0  0  0  0  0  0  0  0  0  0  0
   29.8107  -19.9085  -13.1462 C   0  0  0  0  0  0  0  0  0  0  0  0
   30.3888  -20.3720  -11.9841 C   0  0  0  0  0  0  0  0  0  0  0  0
   29.6559  -20.9621  -10.9780 C   0  0  0  0  0  0  0  0  0  0  0  0
   28.2867  -21.0965  -11.1360 C   0  0  0  0  0  0  0  0  0  0  0  0
   27.7058  -20.6337  -12.2979 C   0  0  0  0  0  0  0  0  0  0  0  0
   28.4465  -20.0349  -13.3197 C   0  0  0  0  0  0  0  0  0  0  0  0
   24.7087  -20.9345  -15.2840 C   0  0  0  0  0  0  0  0  0  0  0  0
   24.0970  -20.8436  -16.3727 O   0  0  0  0  0  0  0  0  0  0  0  0
   23.9425  -21.0991  -14.1054 N   0  0  0  0  0  0  0  0  0  0  0  0
   22.4652  -21.1652  -14.1752 C   0  0  1  0  0  0  0  0  0  0  0  0
   21.9250  -21.8789  -12.9950 C   0  0  0  0  0  0  0  0  0  0  0  0
   22.2191  -21.2558  -11.6988 C   0  0  0  0  0  0  0  0  0  0  0  0
   21.3201  -20.5054  -10.9253 C   0  0  0  0  0  0  0  0  0  0  0  0
   21.8987  -20.0517   -9.8192 N   0  0  0  0  0  0  0  0  0  0  0  0
   23.1751  -20.4792   -9.8242 C   0  0  0  0  0  0  0  0  0  0  0  0
   24.1848  -20.2888   -8.8938 C   0  0  0  0  0  0  0  0  0  0  0  0
   25.4150  -20.8552   -9.1317 C   0  0  0  0  0  0  0  0  0  0  0  0
   25.6594  -21.6039  -10.2715 C   0  0  0  0  0  0  0  0  0  0  0  0
   24.6430  -21.7783  -11.1793 C   0  0  0  0  0  0  0  0  0  0  0  0
   23.4030  -21.2214  -10.9648 C   0  0  0  0  0  0  0  0  0  0  0  0
   21.9250  -19.8464  -14.4934 C   0  0  0  0  0  0  0  0  0  0  0  0
   22.6244  -18.7745  -14.3459 O   0  0  0  0  0  0  0  0  0  0  0  0
   20.6465  -19.6022  -14.9787 O   0  0  0  0  0  0  0  0  0  0  0  0
  2  1  1  6
  2  4  1  0
  2  3  1  0
  4  5  2  0
  6  7  1  0
  6  4  1  0
  7  8  1  6
  9 17  1  0
  9  8  1  0
 10  9  2  0
 11 10  1  0
 11 12  1  0
 12 13  1  0
 12 17  2  0
 13 14  2  0
 14 15  1  0
 16 15  2  0
 17 16  1  0
 18  7  1  0
 19 18  2  0
 20 18  1  0
 21 22  1  1
 21 20  1  0
 22 23  1  0
 23 31  1  0
 24 23  2  0
 24 25  1  0
 25 26  1  0
 26 27  1  0
 27 28  2  0
 29 28  1  0
 30 29  2  0
 31 26  2  0
 31 30  1  0
 32 34  1  0
 32 21  1  0
 33 32  2  0
M  END
$$$$
