AWW.pdb
     RDKit          3D

 34 37  0  0  1  0  0  0  0  0999 V2000
   15.0697  -30.2881    7.3929 C   0  0  0  0  0  0  0  0  0  0  0  0
   14.9297  -28.8570    7.8810 C   0  0  2  0  0  0  0  0  0  0  0  0
   14.5340  -28.0434    6.7727 N   0  0  0  0  0  0  0  0  0  0  0  0
   16.2718  -28.4145    8.3713 C   0  0  0  0  0  0  0  0  0  0  0  0
   17.1116  -27.9299    7.5753 O   0  0  0  0  0  0  0  0  0  0  0  0
   16.6378  -28.5249    9.7326 N   0  0  0  0  0  0  0  0  0  0  0  0
   17.8505  -27.9742   10.2242 C   0  0  1  0  0  0  0  0  0  0  0  0
   17.7849  -27.5951   11.6833 C   0  0  0  0  0  0  0  0  0  0  0  0
   19.0938  -27.1005   12.1543 C   0  0  0  0  0  0  0  0  0  0  0  0
   19.6976  -25.8742   11.9424 C   0  0  0  0  0  0  0  0  0  0  0  0
   20.8995  -25.8634   12.5677 N   0  0  0  0  0  0  0  0  0  0  0  0
   21.1029  -27.0425   13.1823 C   0  0  0  0  0  0  0  0  0  0  0  0
   22.1235  -27.5696   13.9439 C   0  0  0  0  0  0  0  0  0  0  0  0
   22.0742  -28.8433   14.4664 C   0  0  0  0  0  0  0  0  0  0  0  0
   20.9593  -29.6267   14.2196 C   0  0  0  0  0  0  0  0  0  0  0  0
   19.9368  -29.1018   13.4577 C   0  0  0  0  0  0  0  0  0  0  0  0
   19.9840  -27.8106   12.9267 C   0  0  0  0  0  0  0  0  0  0  0  0
   18.9577  -28.8957    9.9234 C   0  0  0  0  0  0  0  0  0  0  0  0
   18.6946  -30.1165    9.8344 O   0  0  0  0  0  0  0  0  0  0  0  0
   20.2998  -28.4912    9.7278 N   0  0  0  0  0  0  0  0  0  0  0  0
   21.3427  -29.4890    9.3985 C   0  0  1  0  0  0  0  0  0  0  0  0
   20.9174  -30.3181    8.2470 C   0  0  0  0  0  0  0  0  0  0  0  0
   21.0488  -29.6773    6.9328 C   0  0  0  0  0  0  0  0  0  0  0  0
   22.2418  -29.2025    6.3662 C   0  0  0  0  0  0  0  0  0  0  0  0
   22.0236  -28.6477    5.1792 N   0  0  0  0  0  0  0  0  0  0  0  0
   20.7045  -28.7360    4.9263 C   0  0  0  0  0  0  0  0  0  0  0  0
   19.9767  -28.3211    3.8218 C   0  0  0  0  0  0  0  0  0  0  0  0
   18.6209  -28.5489    3.8030 C   0  0  0  0  0  0  0  0  0  0  0  0
   17.9775  -29.1785    4.8563 C   0  0  0  0  0  0  0  0  0  0  0  0
   18.7200  -29.5802    5.9402 C   0  0  0  0  0  0  0  0  0  0  0  0
   20.0783  -29.3634    5.9835 C   0  0  0  0  0  0  0  0  0  0  0  0
   22.6487  -28.8388    9.3381 C   0  0  0  0  0  0  0  0  0  0  0  0
   23.7434  -29.5035    9.4795 O   0  0  0  0  0  0  0  0  0  0  0  0
   22.8571  -27.4821    9.1239 O   0  0  0  0  0  0  0  0  0  0  0  0
  2  1  1  6
  2  4  1  0
  2  3  1  0
  4  5  2  0
  6  7  1  0
  6  4  1  0
  7  8  1  1
  9 17  1  0
  9  8  1  0
 10  9  2  0
 11 10  1  0
 11 12  1  0
 12 13  1  0
 12 17  2  0
 13 14  2  0
 14 15  1  0
 16 15  2  0
 17 16  1  0
 18  7  1  0
 19 18  2  0
 20 18  1  0
 21 22  1  6
 21 20  1  0
 22 23  1  0
 23 31  1  0
 24 23  2  0
 24 25  1  0
 25 26  1  0
 26 27  1  0
 27 28  2  0
 29 28  1  0
 30 29  2  0
 31 26  2  0
 31 30  1  0
 32 34  1  0
 32 21  1  0
 33 32  2  0
M  END
$$$$
