AWW.pdb
     RDKit          3D

 34 37  0  0  1  0  0  0  0  0999 V2000
   28.6342  -20.1972  -15.7533 C   0  0  0  0  0  0  0  0  0  0  0  0
   28.2911  -20.2704  -17.2308 C   0  0  2  0  0  0  0  0  0  0  0  0
   29.4067  -19.7710  -17.9741 N   0  0  0  0  0  0  0  0  0  0  0  0
   27.1032  -19.3912  -17.4618 C   0  0  0  0  0  0  0  0  0  0  0  0
   27.2226  -18.1426  -17.4412 O   0  0  0  0  0  0  0  0  0  0  0  0
   25.8189  -19.9289  -17.7088 N   0  0  0  0  0  0  0  0  0  0  0  0
   24.7464  -19.1163  -18.1614 C   0  0  1  0  0  0  0  0  0  0  0  0
   24.4319  -19.3050  -19.6251 C   0  0  0  0  0  0  0  0  0  0  0  0
   23.3814  -18.3630  -20.0598 C   0  0  0  0  0  0  0  0  0  0  0  0
   23.2808  -17.0000  -19.8468 C   0  0  0  0  0  0  0  0  0  0  0  0
   22.1456  -16.5475  -20.4318 N   0  0  0  0  0  0  0  0  0  0  0  0
   21.4991  -17.5694  -21.0209 C   0  0  0  0  0  0  0  0  0  0  0  0
   20.3289  -17.6839  -21.7399 C   0  0  0  0  0  0  0  0  0  0  0  0
   19.8856  -18.8869  -22.2440 C   0  0  0  0  0  0  0  0  0  0  0  0
   20.6411  -20.0261  -22.0224 C   0  0  0  0  0  0  0  0  0  0  0  0
   21.8124  -19.9143  -21.3032 C   0  0  0  0  0  0  0  0  0  0  0  0
   22.2644  -18.6958  -20.7910 C   0  0  0  0  0  0  0  0  0  0  0  0
   23.5770  -19.3309  -17.2943 C   0  0  0  0  0  0  0  0  0  0  0  0
   23.4463  -20.4538  -16.7561 O   0  0  0  0  0  0  0  0  0  0  0  0
   22.5912  -18.3506  -17.0294 N   0  0  0  0  0  0  0  0  0  0  0  0
   21.4561  -18.6536  -16.1285 C   0  0  1  0  0  0  0  0  0  0  0  0
   20.8285  -17.3999  -15.6507 C   0  0  0  0  0  0  0  0  0  0  0  0
   20.0130  -16.6908  -16.6442 C   0  0  0  0  0  0  0  0  0  0  0  0
   18.6763  -16.9752  -16.9636 C   0  0  0  0  0  0  0  0  0  0  0  0
   18.2301  -16.1745  -17.9248 N   0  0  0  0  0  0  0  0  0  0  0  0
   19.2375  -15.3496  -18.2661 C   0  0  0  0  0  0  0  0  0  0  0  0
   19.2776  -14.3280  -19.2023 C   0  0  0  0  0  0  0  0  0  0  0  0
   20.4430  -13.6127  -19.3470 C   0  0  0  0  0  0  0  0  0  0  0  0
   21.5641  -13.8923  -18.5824 C   0  0  0  0  0  0  0  0  0  0  0  0
   21.5001  -14.9099  -17.6616 C   0  0  0  0  0  0  0  0  0  0  0  0
   20.3458  -15.6409  -17.4979 C   0  0  0  0  0  0  0  0  0  0  0  0
   20.5996  -19.6687  -16.7353 C   0  0  0  0  0  0  0  0  0  0  0  0
   20.6622  -19.9443  -17.9923 O   0  0  0  0  0  0  0  0  0  0  0  0
   19.6580  -20.4305  -16.0551 O   0  0  0  0  0  0  0  0  0  0  0  0
  2  1  1  1
  2  4  1  0
  2  3  1  0
  4  5  2  0
  6  7  1  0
  6  4  1  0
  7  8  1  6
  9 17  1  0
  9  8  1  0
 10  9  2  0
 11 10  1  0
 11 12  1  0
 12 13  1  0
 12 17  2  0
 13 14  2  0
 14 15  1  0
 16 15  2  0
 17 16  1  0
 18  7  1  0
 19 18  2  0
 20 18  1  0
 21 22  1  6
 21 20  1  0
 22 23  1  0
 23 31  1  0
 24 23  2  0
 24 25  1  0
 25 26  1  0
 26 27  1  0
 27 28  2  0
 29 28  1  0
 30 29  2  0
 31 26  2  0
 31 30  1  0
 32 34  1  0
 32 21  1  0
 33 32  2  0
M  END
$$$$
