AWW.pdb
     RDKit          3D

 34 37  0  0  1  0  0  0  0  0999 V2000
   20.6655  -18.6221  -15.7891 C   0  0  0  0  0  0  0  0  0  0  0  0
   20.8051  -19.3905  -14.4868 C   0  0  2  0  0  0  0  0  0  0  0  0
   20.3095  -18.5676  -13.4268 N   0  0  0  0  0  0  0  0  0  0  0  0
   22.2617  -19.6558  -14.2738 C   0  0  0  0  0  0  0  0  0  0  0  0
   23.1028  -18.7359  -14.4144 O   0  0  0  0  0  0  0  0  0  0  0  0
   22.7371  -20.9370  -13.9106 N   0  0  0  0  0  0  0  0  0  0  0  0
   24.1032  -21.1624  -13.5968 C   0  0  1  0  0  0  0  0  0  0  0  0
   24.3008  -22.1162  -12.4443 C   0  0  0  0  0  0  0  0  0  0  0  0
   24.5495  -21.3771  -11.1907 C   0  0  0  0  0  0  0  0  0  0  0  0
   23.6444  -20.8425  -10.2917 C   0  0  0  0  0  0  0  0  0  0  0  0
   24.3269  -20.2511   -9.2816 N   0  0  0  0  0  0  0  0  0  0  0  0
   25.6495  -20.3806   -9.4896 C   0  0  0  0  0  0  0  0  0  0  0  0
   26.7770  -19.9825   -8.8042 C   0  0  0  0  0  0  0  0  0  0  0  0
   28.0503  -20.2541   -9.2544 C   0  0  0  0  0  0  0  0  0  0  0  0
   28.2077  -20.9531  -10.4394 C   0  0  0  0  0  0  0  0  0  0  0  0
   27.0812  -21.3525  -11.1272 C   0  0  0  0  0  0  0  0  0  0  0  0
   25.7889  -21.0786  -10.6731 C   0  0  0  0  0  0  0  0  0  0  0  0
   24.8167  -21.5822  -14.8134 C   0  0  0  0  0  0  0  0  0  0  0  0
   24.2746  -22.4452  -15.5407 O   0  0  0  0  0  0  0  0  0  0  0  0
   26.0750  -21.0734  -15.2145 N   0  0  0  0  0  0  0  0  0  0  0  0
   26.7048  -21.5374  -16.4714 C   0  0  1  0  0  0  0  0  0  0  0  0
   27.4999  -20.4473  -17.0823 C   0  0  0  0  0  0  0  0  0  0  0  0
   27.9348  -19.3954  -16.1553 C   0  0  0  0  0  0  0  0  0  0  0  0
   29.1673  -19.3490  -15.4856 C   0  0  0  0  0  0  0  0  0  0  0  0
   29.2456  -18.2850  -14.6944 N   0  0  0  0  0  0  0  0  0  0  0  0
   28.0898  -17.6053  -14.8127 C   0  0  0  0  0  0  0  0  0  0  0  0
   27.6814  -16.4255  -14.2105 C   0  0  0  0  0  0  0  0  0  0  0  0
   26.4389  -15.9240  -14.5195 C   0  0  0  0  0  0  0  0  0  0  0  0
   25.5985  -16.5701  -15.4117 C   0  0  0  0  0  0  0  0  0  0  0  0
   26.0253  -17.7382  -15.9955 C   0  0  0  0  0  0  0  0  0  0  0  0
   27.2641  -18.2610  -15.7025 C   0  0  0  0  0  0  0  0  0  0  0  0
   27.3522  -22.8280  -16.2540 C   0  0  0  0  0  0  0  0  0  0  0  0
   27.3918  -23.3781  -15.0896 O   0  0  0  0  0  0  0  0  0  0  0  0
   27.9720  -23.5873  -17.2384 O   0  0  0  0  0  0  0  0  0  0  0  0
  2  1  1  6
  2  4  1  0
  2  3  1  0
  4  5  2  0
  6  7  1  0
  6  4  1  0
  7  8  1  1
  9 17  1  0
  9  8  1  0
 10  9  2  0
 11 10  1  0
 11 12  1  0
 12 13  1  0
 12 17  2  0
 13 14  2  0
 14 15  1  0
 16 15  2  0
 17 16  1  0
 18  7  1  0
 19 18  2  0
 20 18  1  0
 21 22  1  1
 21 20  1  0
 22 23  1  0
 23 31  1  0
 24 23  2  0
 24 25  1  0
 25 26  1  0
 26 27  1  0
 27 28  2  0
 29 28  1  0
 30 29  2  0
 31 26  2  0
 31 30  1  0
 32 34  1  0
 32 21  1  0
 33 32  2  0
M  END
$$$$
