AWW.pdb
     RDKit          3D

 34 37  0  0  1  0  0  0  0  0999 V2000
   29.6422  -25.1019  -16.8414 C   0  0  0  0  0  0  0  0  0  0  0  0
   30.6334  -23.9817  -16.5795 C   0  0  2  0  0  0  0  0  0  0  0  0
   31.7318  -24.5208  -15.8382 N   0  0  0  0  0  0  0  0  0  0  0  0
   29.9358  -22.9459  -15.7561 C   0  0  0  0  0  0  0  0  0  0  0  0
   30.0696  -22.9288  -14.5090 O   0  0  0  0  0  0  0  0  0  0  0  0
   29.1108  -21.9609  -16.3463 N   0  0  0  0  0  0  0  0  0  0  0  0
   28.5240  -20.9226  -15.5762 C   0  0  1  0  0  0  0  0  0  0  0  0
   28.2522  -19.6701  -16.3727 C   0  0  0  0  0  0  0  0  0  0  0  0
   27.4864  -18.6959  -15.5700 C   0  0  0  0  0  0  0  0  0  0  0  0
   27.9328  -17.8013  -14.6141 C   0  0  0  0  0  0  0  0  0  0  0  0
   26.8735  -17.1032  -14.1384 N   0  0  0  0  0  0  0  0  0  0  0  0
   25.7478  -17.5111  -14.7515 C   0  0  0  0  0  0  0  0  0  0  0  0
   24.4188  -17.1573  -14.6624 C   0  0  0  0  0  0  0  0  0  0  0  0
   23.4420  -17.7534  -15.4294 C   0  0  0  0  0  0  0  0  0  0  0  0
   23.8048  -18.7455  -16.3248 C   0  0  0  0  0  0  0  0  0  0  0  0
   25.1339  -19.1015  -16.4158 C   0  0  0  0  0  0  0  0  0  0  0  0
   26.1265  -18.4987  -15.6394 C   0  0  0  0  0  0  0  0  0  0  0  0
   27.3239  -21.4403  -14.9001 C   0  0  0  0  0  0  0  0  0  0  0  0
   27.0362  -22.6479  -15.0627 O   0  0  0  0  0  0  0  0  0  0  0  0
   26.4746  -20.6619  -14.0780 N   0  0  0  0  0  0  0  0  0  0  0  0
   25.7491  -21.2847  -12.9477 C   0  0  1  0  0  0  0  0  0  0  0  0
   26.7070  -21.8350  -11.9611 C   0  0  0  0  0  0  0  0  0  0  0  0
   26.7091  -21.1690  -10.6529 C   0  0  0  0  0  0  0  0  0  0  0  0
   25.6121  -20.5297  -10.0550 C   0  0  0  0  0  0  0  0  0  0  0  0
   25.9442  -19.9980   -8.8840 N   0  0  0  0  0  0  0  0  0  0  0  0
   27.2468  -20.2634   -8.6726 C   0  0  0  0  0  0  0  0  0  0  0  0
   28.0615  -19.9407   -7.5985 C   0  0  0  0  0  0  0  0  0  0  0  0
   29.3735  -20.3517   -7.6202 C   0  0  0  0  0  0  0  0  0  0  0  0
   29.8887  -21.0740   -8.6844 C   0  0  0  0  0  0  0  0  0  0  0  0
   29.0618  -21.3813   -9.7376 C   0  0  0  0  0  0  0  0  0  0  0  0
   27.7452  -20.9812   -9.7402 C   0  0  0  0  0  0  0  0  0  0  0  0
   24.7066  -20.3807  -12.4701 C   0  0  0  0  0  0  0  0  0  0  0  0
   24.9049  -19.1117  -12.3687 O   0  0  0  0  0  0  0  0  0  0  0  0
   23.4274  -20.7659  -12.0894 O   0  0  0  0  0  0  0  0  0  0  0  0
  2  1  1  1
  2  4  1  0
  2  3  1  0
  4  5  2  0
  6  7  1  0
  6  4  1  0
  7  8  1  6
  9 17  1  0
  9  8  1  0
 10  9  2  0
 11 10  1  0
 11 12  1  0
 12 13  1  0
 12 17  2  0
 13 14  2  0
 14 15  1  0
 16 15  2  0
 17 16  1  0
 18  7  1  0
 19 18  2  0
 20 18  1  0
 21 22  1  1
 21 20  1  0
 22 23  1  0
 23 31  1  0
 24 23  2  0
 24 25  1  0
 25 26  1  0
 26 27  1  0
 27 28  2  0
 29 28  1  0
 30 29  2  0
 31 26  2  0
 31 30  1  0
 32 34  1  0
 32 21  1  0
 33 32  2  0
M  END
$$$$
