AWW.pdb
     RDKit          3D

 34 37  0  0  1  0  0  0  0  0999 V2000
   27.2980  -25.6834  -17.4268 C   0  0  0  0  0  0  0  0  0  0  0  0
   28.4129  -24.6668  -17.5992 C   0  0  2  0  0  0  0  0  0  0  0  0
   29.6559  -25.3130  -17.3094 N   0  0  0  0  0  0  0  0  0  0  0  0
   28.1785  -23.5687  -16.6109 C   0  0  0  0  0  0  0  0  0  0  0  0
   28.6111  -23.6663  -15.4375 O   0  0  0  0  0  0  0  0  0  0  0  0
   27.4700  -22.3957  -16.9592 N   0  0  0  0  0  0  0  0  0  0  0  0
   27.3698  -21.2947  -16.0686 C   0  0  1  0  0  0  0  0  0  0  0  0
   27.1532  -19.9770  -16.7715 C   0  0  0  0  0  0  0  0  0  0  0  0
   27.0602  -18.8731  -15.7957 C   0  0  0  0  0  0  0  0  0  0  0  0
   28.0190  -18.3870  -14.9251 C   0  0  0  0  0  0  0  0  0  0  0  0
   27.4883  -17.3612  -14.2168 N   0  0  0  0  0  0  0  0  0  0  0  0
   26.2132  -17.1592  -14.5949 C   0  0  0  0  0  0  0  0  0  0  0  0
   25.2245  -16.2756  -14.2194 C   0  0  0  0  0  0  0  0  0  0  0  0
   23.9685  -16.2874  -14.7851 C   0  0  0  0  0  0  0  0  0  0  0  0
   23.6846  -17.2205  -15.7682 C   0  0  0  0  0  0  0  0  0  0  0  0
   24.6721  -18.1060  -16.1456 C   0  0  0  0  0  0  0  0  0  0  0  0
   25.9466  -18.0962  -15.5738 C   0  0  0  0  0  0  0  0  0  0  0  0
   26.3367  -21.5800  -15.0603 C   0  0  0  0  0  0  0  0  0  0  0  0
   25.3136  -22.1996  -15.4305 O   0  0  0  0  0  0  0  0  0  0  0  0
   26.4249  -21.1996  -13.7000 N   0  0  0  0  0  0  0  0  0  0  0  0
   25.4034  -21.6509  -12.7280 C   0  0  1  0  0  0  0  0  0  0  0  0
   26.0510  -22.2904  -11.5594 C   0  0  0  0  0  0  0  0  0  0  0  0
   26.3916  -21.3814  -10.4582 C   0  0  0  0  0  0  0  0  0  0  0  0
   25.4912  -20.5584   -9.7642 C   0  0  0  0  0  0  0  0  0  0  0  0
   26.1146  -19.8318   -8.8435 N   0  0  0  0  0  0  0  0  0  0  0  0
   27.4227  -20.1446   -8.8968 C   0  0  0  0  0  0  0  0  0  0  0  0
   28.4849  -19.6767   -8.1389 C   0  0  0  0  0  0  0  0  0  0  0  0
   29.7411  -20.1785   -8.3851 C   0  0  0  0  0  0  0  0  0  0  0  0
   29.9607  -21.1322   -9.3659 C   0  0  0  0  0  0  0  0  0  0  0  0
   28.8923  -21.5801  -10.1043 C   0  0  0  0  0  0  0  0  0  0  0  0
   27.6252  -21.0933   -9.8778 C   0  0  0  0  0  0  0  0  0  0  0  0
   24.4424  -20.5785  -12.4857 C   0  0  0  0  0  0  0  0  0  0  0  0
   23.2814  -20.8115  -11.9780 O   0  0  0  0  0  0  0  0  0  0  0  0
   24.6599  -19.2338  -12.7579 O   0  0  0  0  0  0  0  0  0  0  0  0
  2  1  1  1
  2  4  1  0
  2  3  1  0
  4  5  2  0
  6  7  1  0
  6  4  1  0
  7  8  1  6
  9 17  1  0
  9  8  1  0
 10  9  2  0
 11 10  1  0
 11 12  1  0
 12 13  1  0
 12 17  2  0
 13 14  2  0
 14 15  1  0
 16 15  2  0
 17 16  1  0
 18  7  1  0
 19 18  2  0
 20 18  1  0
 21 22  1  1
 21 20  1  0
 22 23  1  0
 23 31  1  0
 24 23  2  0
 24 25  1  0
 25 26  1  0
 26 27  1  0
 27 28  2  0
 29 28  1  0
 30 29  2  0
 31 26  2  0
 31 30  1  0
 32 34  1  0
 32 21  1  0
 33 32  2  0
M  END
$$$$
