AWW.pdb
     RDKit          3D

 34 37  0  0  1  0  0  0  0  0999 V2000
   26.9307  -23.0113  -18.3612 C   0  0  0  0  0  0  0  0  0  0  0  0
   27.7622  -23.4606  -17.1727 C   0  0  2  0  0  0  0  0  0  0  0  0
   27.8837  -24.8851  -17.2249 N   0  0  0  0  0  0  0  0  0  0  0  0
   27.0247  -23.0675  -15.9321 C   0  0  0  0  0  0  0  0  0  0  0  0
   26.2218  -23.8645  -15.3902 O   0  0  0  0  0  0  0  0  0  0  0  0
   27.2039  -21.7994  -15.3328 N   0  0  0  0  0  0  0  0  0  0  0  0
   26.5679  -21.4574  -14.1105 C   0  0  1  0  0  0  0  0  0  0  0  0
   27.3419  -20.4491  -13.2973 C   0  0  0  0  0  0  0  0  0  0  0  0
   26.7146  -20.2509  -11.9757 C   0  0  0  0  0  0  0  0  0  0  0  0
   25.4763  -19.7204  -11.6617 C   0  0  0  0  0  0  0  0  0  0  0  0
   25.3214  -19.7354  -10.3158 N   0  0  0  0  0  0  0  0  0  0  0  0
   26.4178  -20.2582   -9.7377 C   0  0  0  0  0  0  0  0  0  0  0  0
   26.7960  -20.5068   -8.4360 C   0  0  0  0  0  0  0  0  0  0  0  0
   28.0127  -21.0668   -8.1137 C   0  0  0  0  0  0  0  0  0  0  0  0
   28.8914  -21.3937   -9.1328 C   0  0  0  0  0  0  0  0  0  0  0  0
   28.5155  -21.1458  -10.4362 C   0  0  0  0  0  0  0  0  0  0  0  0
   27.2824  -20.5782  -10.7659 C   0  0  0  0  0  0  0  0  0  0  0  0
   25.1874  -21.0290  -14.3863 C   0  0  0  0  0  0  0  0  0  0  0  0
   25.0026  -20.2189  -15.3228 O   0  0  0  0  0  0  0  0  0  0  0  0
   24.0557  -21.4736  -13.6619 N   0  0  0  0  0  0  0  0  0  0  0  0
   22.6942  -21.2942  -14.2149 C   0  0  1  0  0  0  0  0  0  0  0  0
   21.6810  -21.8183  -13.2701 C   0  0  0  0  0  0  0  0  0  0  0  0
   21.5189  -21.0433  -12.0339 C   0  0  0  0  0  0  0  0  0  0  0  0
   21.5760  -19.6451  -11.9276 C   0  0  0  0  0  0  0  0  0  0  0  0
   21.4215  -19.2511  -10.6686 N   0  0  0  0  0  0  0  0  0  0  0  0
   21.2596  -20.3547   -9.9151 C   0  0  0  0  0  0  0  0  0  0  0  0
   21.0490  -20.4821   -8.5509 C   0  0  0  0  0  0  0  0  0  0  0  0
   20.8951  -21.7424   -8.0231 C   0  0  0  0  0  0  0  0  0  0  0  0
   20.9462  -22.8734   -8.8219 C   0  0  0  0  0  0  0  0  0  0  0  0
   21.1566  -22.7216  -10.1711 C   0  0  0  0  0  0  0  0  0  0  0  0
   21.3142  -21.4712  -10.7237 C   0  0  0  0  0  0  0  0  0  0  0  0
   22.5371  -19.9300  -14.7115 C   0  0  0  0  0  0  0  0  0  0  0  0
   21.6592  -19.6319  -15.6061 O   0  0  0  0  0  0  0  0  0  0  0  0
   23.2819  -18.8355  -14.2907 O   0  0  0  0  0  0  0  0  0  0  0  0
  2  1  1  6
  2  4  1  0
  2  3  1  0
  4  5  2  0
  6  7  1  0
  6  4  1  0
  7  8  1  6
  9 17  1  0
  9  8  1  0
 10  9  2  0
 11 10  1  0
 11 12  1  0
 12 13  1  0
 12 17  2  0
 13 14  2  0
 14 15  1  0
 16 15  2  0
 17 16  1  0
 18  7  1  0
 19 18  2  0
 20 18  1  0
 21 22  1  1
 21 20  1  0
 22 23  1  0
 23 31  1  0
 24 23  2  0
 24 25  1  0
 25 26  1  0
 26 27  1  0
 27 28  2  0
 29 28  1  0
 30 29  2  0
 31 26  2  0
 31 30  1  0
 32 34  1  0
 32 21  1  0
 33 32  2  0
M  END
$$$$
