AWW.pdb
     RDKit          3D

 34 37  0  0  1  0  0  0  0  0999 V2000
   27.0202  -19.7427  -15.6024 C   0  0  0  0  0  0  0  0  0  0  0  0
   27.8920  -20.8332  -15.0051 C   0  0  2  0  0  0  0  0  0  0  0  0
   27.8431  -21.9699  -15.8724 N   0  0  0  0  0  0  0  0  0  0  0  0
   27.3128  -21.1952  -13.6743 C   0  0  0  0  0  0  0  0  0  0  0  0
   26.4201  -22.0721  -13.5867 O   0  0  0  0  0  0  0  0  0  0  0  0
   27.7453  -20.5701  -12.4821 N   0  0  0  0  0  0  0  0  0  0  0  0
   27.1709  -20.8893  -11.2237 C   0  0  1  0  0  0  0  0  0  0  0  0
   28.0659  -20.5514  -10.0567 C   0  0  0  0  0  0  0  0  0  0  0  0
   27.3045  -20.5677   -8.7920 C   0  0  0  0  0  0  0  0  0  0  0  0
   25.9925  -20.9404   -8.5612 C   0  0  0  0  0  0  0  0  0  0  0  0
   25.7210  -20.7945   -7.2418 N   0  0  0  0  0  0  0  0  0  0  0  0
   26.8120  -20.3383   -6.6008 C   0  0  0  0  0  0  0  0  0  0  0  0
   27.0976  -20.0184   -5.2910 C   0  0  0  0  0  0  0  0  0  0  0  0
   28.3344  -19.5590   -4.8949 C   0  0  0  0  0  0  0  0  0  0  0  0
   29.3309  -19.4118   -5.8451 C   0  0  0  0  0  0  0  0  0  0  0  0
   29.0478  -19.7311   -7.1564 C   0  0  0  0  0  0  0  0  0  0  0  0
   27.7946  -20.1972   -7.5609 C   0  0  0  0  0  0  0  0  0  0  0  0
   25.8432  -20.2626  -11.1246 C   0  0  0  0  0  0  0  0  0  0  0  0
   25.7904  -19.0499  -10.8180 O   0  0  0  0  0  0  0  0  0  0  0  0
   24.6228  -20.9418  -11.3536 N   0  0  0  0  0  0  0  0  0  0  0  0
   23.3351  -20.2151  -11.2775 C   0  0  1  0  0  0  0  0  0  0  0  0
   23.3824  -18.9938  -12.1141 C   0  0  0  0  0  0  0  0  0  0  0  0
   23.2136  -19.2162  -13.5553 C   0  0  0  0  0  0  0  0  0  0  0  0
   22.2062  -19.9879  -14.1548 C   0  0  0  0  0  0  0  0  0  0  0  0
   22.3444  -20.0180  -15.4755 N   0  0  0  0  0  0  0  0  0  0  0  0
   23.4268  -19.2811  -15.7872 C   0  0  0  0  0  0  0  0  0  0  0  0
   23.9833  -18.9890  -17.0227 C   0  0  0  0  0  0  0  0  0  0  0  0
   25.0978  -18.1850  -17.0696 C   0  0  0  0  0  0  0  0  0  0  0  0
   25.6671  -17.6681  -15.9170 C   0  0  0  0  0  0  0  0  0  0  0  0
   25.0978  -17.9721  -14.7042 C   0  0  0  0  0  0  0  0  0  0  0  0
   23.9826  -18.7749  -14.6303 C   0  0  0  0  0  0  0  0  0  0  0  0
   22.2283  -21.1469  -11.4750 C   0  0  0  0  0  0  0  0  0  0  0  0
   22.4191  -22.3401  -11.9219 O   0  0  0  0  0  0  0  0  0  0  0  0
   20.8932  -20.8698  -11.2097 O   0  0  0  0  0  0  0  0  0  0  0  0
  2  1  1  6
  2  4  1  0
  2  3  1  0
  4  5  2  0
  6  7  1  0
  6  4  1  0
  7  8  1  1
  9 17  1  0
  9  8  1  0
 10  9  2  0
 11 10  1  0
 11 12  1  0
 12 13  1  0
 12 17  2  0
 13 14  2  0
 14 15  1  0
 16 15  2  0
 17 16  1  0
 18  7  1  0
 19 18  2  0
 20 18  1  0
 21 22  1  6
 21 20  1  0
 22 23  1  0
 23 31  1  0
 24 23  2  0
 24 25  1  0
 25 26  1  0
 26 27  1  0
 27 28  2  0
 29 28  1  0
 30 29  2  0
 31 26  2  0
 31 30  1  0
 32 34  1  0
 32 21  1  0
 33 32  2  0
M  END
$$$$
