AWW.pdb
     RDKit          3D

 34 37  0  0  1  0  0  0  0  0999 V2000
   29.8991  -21.2086  -18.2210 C   0  0  0  0  0  0  0  0  0  0  0  0
   29.2025  -22.1412  -17.2459 C   0  0  2  0  0  0  0  0  0  0  0  0
   28.2803  -22.9501  -17.9820 N   0  0  0  0  0  0  0  0  0  0  0  0
   28.4526  -21.2930  -16.2682 C   0  0  0  0  0  0  0  0  0  0  0  0
   29.0614  -20.4727  -15.5402 O   0  0  0  0  0  0  0  0  0  0  0  0
   27.0483  -21.3839  -16.1313 N   0  0  0  0  0  0  0  0  0  0  0  0
   26.3290  -20.5283  -15.2561 C   0  0  1  0  0  0  0  0  0  0  0  0
   25.3366  -19.6433  -15.9696 C   0  0  0  0  0  0  0  0  0  0  0  0
   26.0307  -18.5751  -16.7159 C   0  0  0  0  0  0  0  0  0  0  0  0
   26.3484  -18.5067  -18.0604 C   0  0  0  0  0  0  0  0  0  0  0  0
   26.9858  -17.3356  -18.3012 N   0  0  0  0  0  0  0  0  0  0  0  0
   27.0961  -16.6346  -17.1584 C   0  0  0  0  0  0  0  0  0  0  0  0
   27.6387  -15.4122  -16.8255 C   0  0  0  0  0  0  0  0  0  0  0  0
   27.6155  -14.9185  -15.5397 C   0  0  0  0  0  0  0  0  0  0  0  0
   27.0258  -15.6756  -14.5413 C   0  0  0  0  0  0  0  0  0  0  0  0
   26.4824  -16.8991  -14.8716 C   0  0  0  0  0  0  0  0  0  0  0  0
   26.5044  -17.4022  -16.1746 C   0  0  0  0  0  0  0  0  0  0  0  0
   25.7118  -21.3338  -14.1904 C   0  0  0  0  0  0  0  0  0  0  0  0
   25.1557  -22.4071  -14.5163 O   0  0  0  0  0  0  0  0  0  0  0  0
   25.7066  -20.9739  -12.8216 N   0  0  0  0  0  0  0  0  0  0  0  0
   24.9461  -21.7780  -11.8383 C   0  0  1  0  0  0  0  0  0  0  0  0
   25.8471  -22.2777  -10.7742 C   0  0  0  0  0  0  0  0  0  0  0  0
   26.3237  -21.2601   -9.8295 C   0  0  0  0  0  0  0  0  0  0  0  0
   25.5379  -20.2634   -9.2305 C   0  0  0  0  0  0  0  0  0  0  0  0
   26.2700  -19.4786   -8.4479 N   0  0  0  0  0  0  0  0  0  0  0  0
   27.5397  -19.9223   -8.5019 C   0  0  0  0  0  0  0  0  0  0  0  0
   28.6764  -19.4584   -7.8583 C   0  0  0  0  0  0  0  0  0  0  0  0
   29.8676  -20.1104   -8.0738 C   0  0  0  0  0  0  0  0  0  0  0  0
   29.9501  -21.2098   -8.9130 C   0  0  0  0  0  0  0  0  0  0  0  0
   28.8100  -21.6507   -9.5400 C   0  0  0  0  0  0  0  0  0  0  0  0
   27.6056  -21.0152   -9.3414 C   0  0  0  0  0  0  0  0  0  0  0  0
   23.7374  -21.0612  -11.4414 C   0  0  0  0  0  0  0  0  0  0  0  0
   23.5939  -19.8003  -11.6639 O   0  0  0  0  0  0  0  0  0  0  0  0
   22.6411  -21.6325  -10.8078 O   0  0  0  0  0  0  0  0  0  0  0  0
  2  1  1  6
  2  4  1  0
  2  3  1  0
  4  5  2  0
  6  7  1  0
  6  4  1  0
  7  8  1  6
  9 17  1  0
  9  8  1  0
 10  9  2  0
 11 10  1  0
 11 12  1  0
 12 13  1  0
 12 17  2  0
 13 14  2  0
 14 15  1  0
 16 15  2  0
 17 16  1  0
 18  7  1  0
 19 18  2  0
 20 18  1  0
 21 22  1  1
 21 20  1  0
 22 23  1  0
 23 31  1  0
 24 23  2  0
 24 25  1  0
 25 26  1  0
 26 27  1  0
 27 28  2  0
 29 28  1  0
 30 29  2  0
 31 26  2  0
 31 30  1  0
 32 34  1  0
 32 21  1  0
 33 32  2  0
M  END
$$$$
