EKE.pdb
     RDKit          3D

 28 27  0  0  1  0  0  0  0  0999 V2000
    7.4120  -12.9302   19.1326 N   0  0  0  0  0  0  0  0  0  0  0  0
    7.1163  -13.8097   20.2446 C   0  0  1  0  0  0  0  0  0  0  0  0
    6.9087  -15.2348   19.7856 C   0  0  0  0  0  0  0  0  0  0  0  0
    7.9414  -15.5075   18.6964 C   0  0  0  0  0  0  0  0  0  0  0  0
    7.7726  -16.8593   18.1243 C   0  0  0  0  0  0  0  0  0  0  0  0
    8.6993  -17.6855   18.2203 O   0  0  0  0  0  0  0  0  0  0  0  0
    8.1806  -13.6941   21.2643 C   0  0  0  0  0  0  0  0  0  0  0  0
    9.4032  -13.6923   20.9410 O   0  0  0  0  0  0  0  0  0  0  0  0
    6.6077  -17.2304   17.4834 O   0  0  0  0  0  0  0  0  0  0  0  0
    7.8620  -13.5803   22.6447 N   0  0  0  0  0  0  0  0  0  0  0  0
    8.7910  -13.5493   23.7192 C   0  0  1  0  0  0  0  0  0  0  0  0
    8.3127  -12.6827   24.8930 C   0  0  0  0  0  0  0  0  0  0  0  0
    6.9061  -12.9939   25.2647 C   0  0  0  0  0  0  0  0  0  0  0  0
    6.3685  -12.0465   26.2813 C   0  0  0  0  0  0  0  0  0  0  0  0
    4.9627  -12.3926   26.6929 C   0  0  0  0  0  0  0  0  0  0  0  0
    4.9242  -12.7825   28.0996 N   0  0  0  0  0  0  0  0  0  0  0  0
    9.1138  -14.8805   24.2725 C   0  0  0  0  0  0  0  0  0  0  0  0
    8.2311  -15.7741   24.1993 O   0  0  0  0  0  0  0  0  0  0  0  0
   10.3311  -15.2157   24.8716 N   0  0  0  0  0  0  0  0  0  0  0  0
   10.8504  -16.6189   24.9507 C   0  0  1  0  0  0  0  0  0  0  0  0
   12.2741  -16.5921   24.5189 C   0  0  0  0  0  0  0  0  0  0  0  0
   13.0826  -17.7972   24.7503 C   0  0  0  0  0  0  0  0  0  0  0  0
   14.5009  -17.8136   24.4204 C   0  0  0  0  0  0  0  0  0  0  0  0
   15.1987  -18.8347   24.7543 O   0  0  0  0  0  0  0  0  0  0  0  0
   10.7094  -16.9646   26.3716 C   0  0  0  0  0  0  0  0  0  0  0  0
   10.8984  -18.3184   26.7499 O   0  0  0  0  0  0  0  0  0  0  0  0
   15.1748  -16.8006   23.7600 O   0  0  0  0  0  0  0  0  0  0  0  0
   10.4362  -16.1989   27.3147 O   0  0  0  0  0  0  0  0  0  0  0  0
  2  1  1  6
  2  3  1  0
  3  4  1  0
  5  4  1  0
  6  5  2  0
  7  2  1  0
  7 10  1  0
  8  7  2  0
  9  5  1  0
 11 10  1  0
 11 12  1  1
 13 12  1  0
 13 14  1  0
 15 14  1  0
 16 15  1  0
 17 11  1  0
 18 17  2  0
 19 17  1  0
 20 19  1  0
 20 21  1  1
 22 21  1  0
 23 24  2  0
 23 22  1  0
 25 20  1  0
 25 26  1  0
 27 23  1  0
 28 25  2  0
M  END
$$$$
