EKE.pdb
     RDKit          3D

 28 27  0  0  1  0  0  0  0  0999 V2000
   10.9915  -18.3048   16.4117 N   0  0  0  0  0  0  0  0  0  0  0  0
   10.8552  -18.8738   17.7366 C   0  0  1  0  0  0  0  0  0  0  0  0
   11.6162  -20.1736   17.8638 C   0  0  0  0  0  0  0  0  0  0  0  0
   11.3627  -20.9659   16.5850 C   0  0  0  0  0  0  0  0  0  0  0  0
   12.0726  -22.2615   16.6078 C   0  0  0  0  0  0  0  0  0  0  0  0
   13.3162  -22.2779   16.6697 O   0  0  0  0  0  0  0  0  0  0  0  0
   11.2663  -17.8772   18.7484 C   0  0  0  0  0  0  0  0  0  0  0  0
   12.4807  -17.5601   18.9030 O   0  0  0  0  0  0  0  0  0  0  0  0
   11.3881  -23.4593   16.5621 O   0  0  0  0  0  0  0  0  0  0  0  0
   10.3061  -17.2416   19.5815 N   0  0  0  0  0  0  0  0  0  0  0  0
   10.5805  -16.2963   20.6060 C   0  0  1  0  0  0  0  0  0  0  0  0
    9.3443  -15.4782   21.0058 C   0  0  0  0  0  0  0  0  0  0  0  0
    8.9106  -14.5714   19.9089 C   0  0  0  0  0  0  0  0  0  0  0  0
    7.6453  -13.8556   20.2357 C   0  0  0  0  0  0  0  0  0  0  0  0
    7.2117  -12.9338   19.1277 C   0  0  0  0  0  0  0  0  0  0  0  0
    5.9388  -12.3001   19.4598 N   0  0  0  0  0  0  0  0  0  0  0  0
   11.1190  -16.8934   21.8453 C   0  0  0  0  0  0  0  0  0  0  0  0
   10.6005  -17.9654   22.2514 O   0  0  0  0  0  0  0  0  0  0  0  0
   12.1638  -16.3498   22.5977 N   0  0  0  0  0  0  0  0  0  0  0  0
   12.8882  -17.1081   23.6679 C   0  0  1  0  0  0  0  0  0  0  0  0
   14.3137  -16.6832   23.6279 C   0  0  0  0  0  0  0  0  0  0  0  0
   15.2178  -17.2223   24.6532 C   0  0  0  0  0  0  0  0  0  0  0  0
   16.6376  -16.8993   24.6341 C   0  0  0  0  0  0  0  0  0  0  0  0
   17.0008  -15.7039   24.9173 O   0  0  0  0  0  0  0  0  0  0  0  0
   12.2201  -16.6885   24.9073 C   0  0  0  0  0  0  0  0  0  0  0  0
   12.5297  -17.3890   26.1011 O   0  0  0  0  0  0  0  0  0  0  0  0
   17.6517  -17.7924   24.3328 O   0  0  0  0  0  0  0  0  0  0  0  0
   11.3915  -15.7700   25.0484 O   0  0  0  0  0  0  0  0  0  0  0  0
  2  1  1  6
  2  3  1  0
  3  4  1  0
  5  4  1  0
  6  5  2  0
  7  2  1  0
  7 10  1  0
  8  7  2  0
  9  5  1  0
 11 10  1  0
 11 12  1  1
 13 12  1  0
 13 14  1  0
 15 14  1  0
 16 15  1  0
 17 11  1  0
 18 17  2  0
 19 17  1  0
 20 19  1  0
 20 21  1  1
 22 21  1  0
 23 24  2  0
 23 22  1  0
 25 20  1  0
 25 26  1  0
 27 23  1  0
 28 25  2  0
M  END
$$$$
