EKE.pdb
     RDKit          3D

 28 27  0  0  1  0  0  0  0  0999 V2000
   11.2880  -17.7776   15.9992 N   0  0  0  0  0  0  0  0  0  0  0  0
   10.6123  -18.2396   17.1940 C   0  0  1  0  0  0  0  0  0  0  0  0
   10.8395  -19.7160   17.4249 C   0  0  0  0  0  0  0  0  0  0  0  0
   12.2364  -19.8645   18.0200 C   0  0  0  0  0  0  0  0  0  0  0  0
   12.5452  -21.2789   18.3156 C   0  0  0  0  0  0  0  0  0  0  0  0
   12.6837  -21.6416   19.4988 O   0  0  0  0  0  0  0  0  0  0  0  0
   11.0300  -17.4164   18.3489 C   0  0  0  0  0  0  0  0  0  0  0  0
   12.1925  -16.9235   18.4186 O   0  0  0  0  0  0  0  0  0  0  0  0
   12.6844  -22.2121   17.3081 O   0  0  0  0  0  0  0  0  0  0  0  0
   10.1348  -17.1518   19.4207 N   0  0  0  0  0  0  0  0  0  0  0  0
   10.3495  -16.2355   20.4849 C   0  0  1  0  0  0  0  0  0  0  0  0
    9.0916  -15.4280   20.8362 C   0  0  0  0  0  0  0  0  0  0  0  0
    8.6962  -14.5210   19.7250 C   0  0  0  0  0  0  0  0  0  0  0  0
    7.4726  -13.7342   20.0474 C   0  0  0  0  0  0  0  0  0  0  0  0
    7.0282  -12.8768   18.8930 C   0  0  0  0  0  0  0  0  0  0  0  0
    5.8250  -12.1287   19.2464 N   0  0  0  0  0  0  0  0  0  0  0  0
   10.8171  -16.8669   21.7359 C   0  0  0  0  0  0  0  0  0  0  0  0
   10.2453  -17.9246   22.1064 O   0  0  0  0  0  0  0  0  0  0  0  0
   11.8499  -16.3707   22.5360 N   0  0  0  0  0  0  0  0  0  0  0  0
   12.3171  -17.0464   23.7891 C   0  0  1  0  0  0  0  0  0  0  0  0
   13.7074  -16.5858   24.0519 C   0  0  0  0  0  0  0  0  0  0  0  0
   14.7471  -16.9593   23.0829 C   0  0  0  0  0  0  0  0  0  0  0  0
   16.1367  -16.5843   23.3044 C   0  0  0  0  0  0  0  0  0  0  0  0
   16.4210  -15.3465   23.4718 O   0  0  0  0  0  0  0  0  0  0  0  0
   11.3749  -16.5748   24.8130 C   0  0  0  0  0  0  0  0  0  0  0  0
   11.3677  -17.2369   26.0673 O   0  0  0  0  0  0  0  0  0  0  0  0
   17.2002  -17.4692   23.3540 O   0  0  0  0  0  0  0  0  0  0  0  0
   10.5567  -15.6411   24.7180 O   0  0  0  0  0  0  0  0  0  0  0  0
  2  1  1  6
  2  3  1  0
  3  4  1  0
  5  4  1  0
  6  5  2  0
  7  2  1  0
  7 10  1  0
  8  7  2  0
  9  5  1  0
 11 10  1  0
 11 12  1  1
 13 12  1  0
 13 14  1  0
 15 14  1  0
 16 15  1  0
 17 11  1  0
 18 17  2  0
 19 17  1  0
 20 19  1  0
 20 21  1  1
 22 21  1  0
 23 24  2  0
 23 22  1  0
 25 20  1  0
 25 26  1  0
 27 23  1  0
 28 25  2  0
M  END
$$$$
