EKE.pdb
     RDKit          3D

 28 27  0  0  1  0  0  0  0  0999 V2000
   10.1702  -18.9155   18.2334 N   0  0  0  0  0  0  0  0  0  0  0  0
   11.4798  -18.3935   18.5650 C   0  0  1  0  0  0  0  0  0  0  0  0
   12.1003  -17.6658   17.3944 C   0  0  0  0  0  0  0  0  0  0  0  0
   13.1149  -18.6160   16.7658 C   0  0  0  0  0  0  0  0  0  0  0  0
   14.1841  -17.8727   16.0676 C   0  0  0  0  0  0  0  0  0  0  0  0
   13.9035  -17.1978   15.0594 O   0  0  0  0  0  0  0  0  0  0  0  0
   11.3836  -17.5441   19.7713 C   0  0  0  0  0  0  0  0  0  0  0  0
   12.4142  -17.2084   20.4227 O   0  0  0  0  0  0  0  0  0  0  0  0
   15.4920  -17.9081   16.5075 O   0  0  0  0  0  0  0  0  0  0  0  0
   10.1253  -17.0758   20.2380 N   0  0  0  0  0  0  0  0  0  0  0  0
    9.9046  -16.2728   21.3890 C   0  0  1  0  0  0  0  0  0  0  0  0
    8.5826  -15.4944   21.3254 C   0  0  0  0  0  0  0  0  0  0  0  0
    8.5447  -14.5759   20.1556 C   0  0  0  0  0  0  0  0  0  0  0  0
    7.8328  -13.3030   20.4606 C   0  0  0  0  0  0  0  0  0  0  0  0
    7.7578  -12.3933   19.2639 C   0  0  0  0  0  0  0  0  0  0  0  0
    6.9869  -11.1945   19.5816 N   0  0  0  0  0  0  0  0  0  0  0  0
    9.8957  -17.0305   22.6571 C   0  0  0  0  0  0  0  0  0  0  0  0
    9.0524  -17.9561   22.7795 O   0  0  0  0  0  0  0  0  0  0  0  0
   10.7586  -16.7901   23.7298 N   0  0  0  0  0  0  0  0  0  0  0  0
   10.9894  -17.7736   24.8364 C   0  0  1  0  0  0  0  0  0  0  0  0
   12.3956  -18.2475   24.7252 C   0  0  0  0  0  0  0  0  0  0  0  0
   12.8930  -19.1642   25.7604 C   0  0  0  0  0  0  0  0  0  0  0  0
   14.2415  -19.7085   25.6835 C   0  0  0  0  0  0  0  0  0  0  0  0
   15.2291  -18.8967   25.6017 O   0  0  0  0  0  0  0  0  0  0  0  0
   10.7655  -16.9863   26.0565 C   0  0  0  0  0  0  0  0  0  0  0  0
   10.4263  -15.6166   25.9126 O   0  0  0  0  0  0  0  0  0  0  0  0
   14.5560  -21.0566   25.6944 O   0  0  0  0  0  0  0  0  0  0  0  0
   10.8382  -17.3784   27.2360 O   0  0  0  0  0  0  0  0  0  0  0  0
  2  1  1  6
  2  3  1  0
  3  4  1  0
  5  4  1  0
  6  5  2  0
  7  2  1  0
  7 10  1  0
  8  7  2  0
  9  5  1  0
 11 10  1  0
 11 12  1  6
 13 12  1  0
 13 14  1  0
 15 14  1  0
 16 15  1  0
 17 11  1  0
 18 17  2  0
 19 17  1  0
 20 19  1  0
 20 21  1  1
 22 21  1  0
 23 24  2  0
 23 22  1  0
 25 20  1  0
 25 26  1  0
 27 23  1  0
 28 25  2  0
M  END
$$$$
