EKE.pdb
     RDKit          3D

 28 27  0  0  1  0  0  0  0  0999 V2000
    8.8203  -16.7929   19.7682 N   0  0  0  0  0  0  0  0  0  0  0  0
   10.0237  -17.2125   20.4562 C   0  0  1  0  0  0  0  0  0  0  0  0
   11.2251  -17.1873   19.5393 C   0  0  0  0  0  0  0  0  0  0  0  0
   10.8449  -17.9669   18.2843 C   0  0  0  0  0  0  0  0  0  0  0  0
   11.9570  -17.9922   17.3118 C   0  0  0  0  0  0  0  0  0  0  0  0
   11.7760  -18.4947   16.1869 O   0  0  0  0  0  0  0  0  0  0  0  0
   10.2180  -16.3834   21.6648 C   0  0  0  0  0  0  0  0  0  0  0  0
   11.3753  -16.0896   22.0812 O   0  0  0  0  0  0  0  0  0  0  0  0
   13.1969  -17.4702   17.6209 O   0  0  0  0  0  0  0  0  0  0  0  0
    9.1062  -15.8883   22.3989 N   0  0  0  0  0  0  0  0  0  0  0  0
    9.1546  -15.2681   23.6761 C   0  0  1  0  0  0  0  0  0  0  0  0
    7.8477  -14.5470   24.0361 C   0  0  0  0  0  0  0  0  0  0  0  0
    7.9678  -13.8068   25.3211 C   0  0  0  0  0  0  0  0  0  0  0  0
    6.6997  -13.1209   25.6977 C   0  0  0  0  0  0  0  0  0  0  0  0
    6.8131  -12.4000   27.0140 C   0  0  0  0  0  0  0  0  0  0  0  0
    5.5591  -11.7245   27.3356 N   0  0  0  0  0  0  0  0  0  0  0  0
    9.4505  -16.1986   24.7847 C   0  0  0  0  0  0  0  0  0  0  0  0
    8.6503  -17.1498   24.9793 O   0  0  0  0  0  0  0  0  0  0  0  0
   10.5571  -16.0953   25.6319 N   0  0  0  0  0  0  0  0  0  0  0  0
   10.8926  -17.1168   26.6755 C   0  0  1  0  0  0  0  0  0  0  0  0
   12.3595  -17.3576   26.6079 C   0  0  0  0  0  0  0  0  0  0  0  0
   12.8888  -18.0288   25.4126 C   0  0  0  0  0  0  0  0  0  0  0  0
   14.3224  -18.2194   25.2426 C   0  0  0  0  0  0  0  0  0  0  0  0
   14.9765  -17.3731   24.5375 O   0  0  0  0  0  0  0  0  0  0  0  0
   10.4947  -16.4738   27.9351 C   0  0  0  0  0  0  0  0  0  0  0  0
   10.5961  -17.2306   29.1304 O   0  0  0  0  0  0  0  0  0  0  0  0
   15.0567  -19.2569   25.7913 O   0  0  0  0  0  0  0  0  0  0  0  0
   10.0662  -15.3155   28.0928 O   0  0  0  0  0  0  0  0  0  0  0  0
  2  1  1  6
  2  3  1  0
  3  4  1  0
  5  4  1  0
  6  5  2  0
  7  2  1  0
  7 10  1  0
  8  7  2  0
  9  5  1  0
 11 10  1  0
 11 12  1  1
 13 12  1  0
 13 14  1  0
 15 14  1  0
 16 15  1  0
 17 11  1  0
 18 17  2  0
 19 17  1  0
 20 19  1  0
 20 21  1  1
 22 21  1  0
 23 24  2  0
 23 22  1  0
 25 20  1  0
 25 26  1  0
 27 23  1  0
 28 25  2  0
M  END
$$$$
