EKE.pdb
     RDKit          3D

 28 27  0  0  1  0  0  0  0  0999 V2000
    8.0772  -16.7687   20.2136 N   0  0  0  0  0  0  0  0  0  0  0  0
    9.3603  -17.1323   20.7783 C   0  0  1  0  0  0  0  0  0  0  0  0
   10.4632  -17.0534   19.7476 C   0  0  0  0  0  0  0  0  0  0  0  0
    9.7936  -16.8420   18.3932 C   0  0  0  0  0  0  0  0  0  0  0  0
   10.4508  -17.6429   17.3398 C   0  0  0  0  0  0  0  0  0  0  0  0
   11.4864  -18.2793   17.6102 O   0  0  0  0  0  0  0  0  0  0  0  0
    9.6349  -16.2939   21.9646 C   0  0  0  0  0  0  0  0  0  0  0  0
   10.8072  -16.1645   22.4210 O   0  0  0  0  0  0  0  0  0  0  0  0
    9.9426  -17.7034   16.0578 O   0  0  0  0  0  0  0  0  0  0  0  0
    8.5864  -15.6039   22.6315 N   0  0  0  0  0  0  0  0  0  0  0  0
    8.6913  -14.9154   23.8698 C   0  0  1  0  0  0  0  0  0  0  0  0
    7.4058  -14.1624   24.2414 C   0  0  0  0  0  0  0  0  0  0  0  0
    7.5562  -13.4240   25.5242 C   0  0  0  0  0  0  0  0  0  0  0  0
    6.3357  -12.6433   25.8722 C   0  0  0  0  0  0  0  0  0  0  0  0
    6.4838  -11.9096   27.1780 C   0  0  0  0  0  0  0  0  0  0  0  0
    5.2719  -11.1523   27.4781 N   0  0  0  0  0  0  0  0  0  0  0  0
    9.0240  -15.7871   25.0152 C   0  0  0  0  0  0  0  0  0  0  0  0
    8.2256  -16.7191   25.2923 O   0  0  0  0  0  0  0  0  0  0  0  0
   10.1637  -15.6478   25.8121 N   0  0  0  0  0  0  0  0  0  0  0  0
   10.5402  -16.6216   26.8868 C   0  0  1  0  0  0  0  0  0  0  0  0
   11.9244  -17.0871   26.6013 C   0  0  0  0  0  0  0  0  0  0  0  0
   12.0849  -18.2906   25.7735 C   0  0  0  0  0  0  0  0  0  0  0  0
   13.4114  -18.7719   25.4137 C   0  0  0  0  0  0  0  0  0  0  0  0
   14.2303  -19.0773   26.3504 O   0  0  0  0  0  0  0  0  0  0  0  0
   10.4668  -15.8269   28.1203 C   0  0  0  0  0  0  0  0  0  0  0  0
   10.5798  -16.5079   29.3593 O   0  0  0  0  0  0  0  0  0  0  0  0
   13.8735  -18.9346   24.1189 O   0  0  0  0  0  0  0  0  0  0  0  0
   10.3128  -14.5955   28.2209 O   0  0  0  0  0  0  0  0  0  0  0  0
  2  1  1  6
  2  3  1  0
  3  4  1  0
  5  4  1  0
  6  5  2  0
  7  2  1  0
  7 10  1  0
  8  7  2  0
  9  5  1  0
 11 10  1  0
 11 12  1  1
 13 12  1  0
 13 14  1  0
 15 14  1  0
 16 15  1  0
 17 11  1  0
 18 17  2  0
 19 17  1  0
 20 19  1  0
 20 21  1  6
 22 21  1  0
 23 24  2  0
 23 22  1  0
 25 20  1  0
 25 26  1  0
 27 23  1  0
 28 25  2  0
M  END
$$$$
