EKE.pdb
     RDKit          3D

 28 27  0  0  1  0  0  0  0  0999 V2000
    7.8857  -15.6206   18.5460 N   0  0  0  0  0  0  0  0  0  0  0  0
    7.2519  -16.1574   19.7324 C   0  0  1  0  0  0  0  0  0  0  0  0
    7.1714  -17.6661   19.6848 C   0  0  0  0  0  0  0  0  0  0  0  0
    8.3502  -18.1493   18.8457 C   0  0  0  0  0  0  0  0  0  0  0  0
    8.3246  -19.6175   18.6810 C   0  0  0  0  0  0  0  0  0  0  0  0
    9.2275  -20.1771   18.0313 O   0  0  0  0  0  0  0  0  0  0  0  0
    7.9572  -15.6672   20.9357 C   0  0  0  0  0  0  0  0  0  0  0  0
    9.1959  -15.8642   21.0975 O   0  0  0  0  0  0  0  0  0  0  0  0
    7.3199  -20.3871   19.2321 O   0  0  0  0  0  0  0  0  0  0  0  0
    7.2630  -14.9560   21.9518 N   0  0  0  0  0  0  0  0  0  0  0  0
    7.8268  -14.4461   23.1521 C   0  0  1  0  0  0  0  0  0  0  0  0
    6.7921  -13.7426   24.0422 C   0  0  0  0  0  0  0  0  0  0  0  0
    7.4262  -13.1389   25.2451 C   0  0  0  0  0  0  0  0  0  0  0  0
    6.4511  -12.3752   26.0735 C   0  0  0  0  0  0  0  0  0  0  0  0
    7.1031  -11.7273   27.2653 C   0  0  0  0  0  0  0  0  0  0  0  0
    6.1161  -10.9895   28.0486 N   0  0  0  0  0  0  0  0  0  0  0  0
    8.4861  -15.4702   23.9881 C   0  0  0  0  0  0  0  0  0  0  0  0
    7.8271  -16.5022   24.2774 O   0  0  0  0  0  0  0  0  0  0  0  0
    9.7906  -15.3718   24.4799 N   0  0  0  0  0  0  0  0  0  0  0  0
   10.5500  -16.5372   25.0369 C   0  0  1  0  0  0  0  0  0  0  0  0
   11.9700  -16.3841   24.6197 C   0  0  0  0  0  0  0  0  0  0  0  0
   12.9543  -17.3172   25.1855 C   0  0  0  0  0  0  0  0  0  0  0  0
   14.3758  -17.1476   24.9188 C   0  0  0  0  0  0  0  0  0  0  0  0
   15.2074  -17.9383   25.4882 O   0  0  0  0  0  0  0  0  0  0  0  0
   10.3823  -16.4017   26.4902 C   0  0  0  0  0  0  0  0  0  0  0  0
   10.6688  -17.5290   27.3019 O   0  0  0  0  0  0  0  0  0  0  0  0
   14.9183  -16.1869   24.0826 O   0  0  0  0  0  0  0  0  0  0  0  0
   10.0091  -15.3944   27.1197 O   0  0  0  0  0  0  0  0  0  0  0  0
  2  1  1  6
  2  3  1  0
  3  4  1  0
  5  4  1  0
  6  5  2  0
  7  2  1  0
  7 10  1  0
  8  7  2  0
  9  5  1  0
 11 10  1  0
 11 12  1  1
 13 12  1  0
 13 14  1  0
 15 14  1  0
 16 15  1  0
 17 11  1  0
 18 17  2  0
 19 17  1  0
 20 19  1  0
 20 21  1  1
 22 21  1  0
 23 24  2  0
 23 22  1  0
 25 20  1  0
 25 26  1  0
 27 23  1  0
 28 25  2  0
M  END
$$$$
