EKE.pdb
     RDKit          3D

 28 27  0  0  1  0  0  0  0  0999 V2000
    8.0338  -14.1382   19.7670 N   0  0  0  0  0  0  0  0  0  0  0  0
    7.3984  -14.9104   20.8145 C   0  0  1  0  0  0  0  0  0  0  0  0
    7.2397  -16.3602   20.4174 C   0  0  0  0  0  0  0  0  0  0  0  0
    8.6316  -16.8845   20.0779 C   0  0  0  0  0  0  0  0  0  0  0  0
    8.5745  -18.2768   19.5865 C   0  0  0  0  0  0  0  0  0  0  0  0
    9.2252  -19.1612   20.1740 O   0  0  0  0  0  0  0  0  0  0  0  0
    8.1530  -14.7496   22.0757 C   0  0  0  0  0  0  0  0  0  0  0  0
    9.4096  -14.6068   22.0762 O   0  0  0  0  0  0  0  0  0  0  0  0
    7.8143  -18.6228   18.4875 O   0  0  0  0  0  0  0  0  0  0  0  0
    7.4876  -14.7499   23.3316 N   0  0  0  0  0  0  0  0  0  0  0  0
    8.1033  -14.6276   24.6061 C   0  0  1  0  0  0  0  0  0  0  0  0
    7.1158  -14.2101   25.7052 C   0  0  0  0  0  0  0  0  0  0  0  0
    6.6639  -12.8036   25.5286 C   0  0  0  0  0  0  0  0  0  0  0  0
    6.2801  -12.1679   26.8204 C   0  0  0  0  0  0  0  0  0  0  0  0
    5.8337  -10.7418   26.6411 C   0  0  0  0  0  0  0  0  0  0  0  0
    5.5260  -10.1370   27.9341 N   0  0  0  0  0  0  0  0  0  0  0  0
    8.7678  -15.8617   25.0728 C   0  0  0  0  0  0  0  0  0  0  0  0
    8.1011  -16.9286   25.0525 O   0  0  0  0  0  0  0  0  0  0  0  0
   10.0850  -15.9261   25.5353 N   0  0  0  0  0  0  0  0  0  0  0  0
   10.7214  -17.1878   26.0335 C   0  0  1  0  0  0  0  0  0  0  0  0
   12.1370  -17.1838   25.5751 C   0  0  0  0  0  0  0  0  0  0  0  0
   12.3879  -17.1814   24.1272 C   0  0  0  0  0  0  0  0  0  0  0  0
   13.7485  -17.1371   23.6101 C   0  0  0  0  0  0  0  0  0  0  0  0
   14.7188  -17.0270   24.4393 O   0  0  0  0  0  0  0  0  0  0  0  0
   10.6124  -17.0813   27.4947 C   0  0  0  0  0  0  0  0  0  0  0  0
   11.0724  -18.1705   28.2782 O   0  0  0  0  0  0  0  0  0  0  0  0
   14.0924  -17.2082   22.2710 O   0  0  0  0  0  0  0  0  0  0  0  0
   10.1536  -16.1296   28.1535 O   0  0  0  0  0  0  0  0  0  0  0  0
  2  1  1  6
  2  3  1  0
  3  4  1  0
  5  4  1  0
  6  5  2  0
  7  2  1  0
  7 10  1  0
  8  7  2  0
  9  5  1  0
 11 10  1  0
 11 12  1  1
 13 12  1  0
 13 14  1  0
 15 14  1  0
 16 15  1  0
 17 11  1  0
 18 17  2  0
 19 17  1  0
 20 19  1  0
 20 21  1  1
 22 21  1  0
 23 24  2  0
 23 22  1  0
 25 20  1  0
 25 26  1  0
 27 23  1  0
 28 25  2  0
M  END
$$$$
