EKE.pdb
     RDKit          3D

 28 27  0  0  1  0  0  0  0  0999 V2000
    8.0490  -15.9211   18.0620 N   0  0  0  0  0  0  0  0  0  0  0  0
    7.3930  -16.3755   19.2706 C   0  0  1  0  0  0  0  0  0  0  0  0
    7.2928  -17.8831   19.3148 C   0  0  0  0  0  0  0  0  0  0  0  0
    8.7139  -18.4278   19.2085 C   0  0  0  0  0  0  0  0  0  0  0  0
    8.7195  -19.9047   19.1620 C   0  0  0  0  0  0  0  0  0  0  0  0
    8.5634  -20.4841   18.0709 O   0  0  0  0  0  0  0  0  0  0  0  0
    8.0897  -15.8209   20.4508 C   0  0  0  0  0  0  0  0  0  0  0  0
    9.3523  -15.7800   20.5097 O   0  0  0  0  0  0  0  0  0  0  0  0
    8.8943  -20.6611   20.3034 O   0  0  0  0  0  0  0  0  0  0  0  0
    7.3597  -15.3140   21.5600 N   0  0  0  0  0  0  0  0  0  0  0  0
    7.9129  -14.7253   22.7287 C   0  0  1  0  0  0  0  0  0  0  0  0
    6.8427  -14.1494   23.6671 C   0  0  0  0  0  0  0  0  0  0  0  0
    7.4538  -13.4204   24.8111 C   0  0  0  0  0  0  0  0  0  0  0  0
    6.4281  -12.8417   25.7239 C   0  0  0  0  0  0  0  0  0  0  0  0
    7.0458  -12.0304   26.8309 C   0  0  0  0  0  0  0  0  0  0  0  0
    6.0216  -11.5914   27.7746 N   0  0  0  0  0  0  0  0  0  0  0  0
    8.7370  -15.6497   23.5341 C   0  0  0  0  0  0  0  0  0  0  0  0
    8.2309  -16.7558   23.8554 O   0  0  0  0  0  0  0  0  0  0  0  0
   10.0393  -15.3804   23.9638 N   0  0  0  0  0  0  0  0  0  0  0  0
   10.9933  -16.4441   24.4150 C   0  0  1  0  0  0  0  0  0  0  0  0
   12.3642  -15.9989   24.0456 C   0  0  0  0  0  0  0  0  0  0  0  0
   13.4979  -16.7953   24.5354 C   0  0  0  0  0  0  0  0  0  0  0  0
   14.8674  -16.3842   24.2593 C   0  0  0  0  0  0  0  0  0  0  0  0
   15.7845  -16.6964   25.0974 O   0  0  0  0  0  0  0  0  0  0  0  0
   10.8005  -16.4923   25.8707 C   0  0  0  0  0  0  0  0  0  0  0  0
   10.2069  -15.3691   26.5016 O   0  0  0  0  0  0  0  0  0  0  0  0
   15.2738  -15.6724   23.1436 O   0  0  0  0  0  0  0  0  0  0  0  0
   11.1009  -17.4198   26.6451 O   0  0  0  0  0  0  0  0  0  0  0  0
  2  1  1  6
  2  3  1  0
  3  4  1  0
  5  4  1  0
  6  5  2  0
  7  2  1  0
  7 10  1  0
  8  7  2  0
  9  5  1  0
 11 10  1  0
 11 12  1  1
 13 12  1  0
 13 14  1  0
 15 14  1  0
 16 15  1  0
 17 11  1  0
 18 17  2  0
 19 17  1  0
 20 19  1  0
 20 21  1  1
 22 21  1  0
 23 24  2  0
 23 22  1  0
 25 20  1  0
 25 26  1  0
 27 23  1  0
 28 25  2  0
M  END
$$$$
