EKE.pdb
     RDKit          3D

 28 27  0  0  1  0  0  0  0  0999 V2000
    8.2825  -20.7159   19.0076 N   0  0  0  0  0  0  0  0  0  0  0  0
    9.3616  -19.8434   19.4220 C   0  0  1  0  0  0  0  0  0  0  0  0
    9.5474  -18.6936   18.4585 C   0  0  0  0  0  0  0  0  0  0  0  0
    9.9868  -19.2942   17.1268 C   0  0  0  0  0  0  0  0  0  0  0  0
   10.3153  -18.2394   16.1456 C   0  0  0  0  0  0  0  0  0  0  0  0
   11.0577  -17.2983   16.4831 O   0  0  0  0  0  0  0  0  0  0  0  0
    9.1246  -19.3863   20.8079 C   0  0  0  0  0  0  0  0  0  0  0  0
    9.8458  -18.4928   21.3378 O   0  0  0  0  0  0  0  0  0  0  0  0
    9.8174  -18.2718   14.8586 O   0  0  0  0  0  0  0  0  0  0  0  0
    8.0745  -19.9381   21.5908 N   0  0  0  0  0  0  0  0  0  0  0  0
    7.7992  -19.6405   22.9524 C   0  0  1  0  0  0  0  0  0  0  0  0
    6.4814  -20.2590   23.4408 C   0  0  0  0  0  0  0  0  0  0  0  0
    5.3090  -19.6763   22.7341 C   0  0  0  0  0  0  0  0  0  0  0  0
    4.3184  -20.7148   22.3336 C   0  0  0  0  0  0  0  0  0  0  0  0
    3.1021  -20.1171   21.6788 C   0  0  0  0  0  0  0  0  0  0  0  0
    2.1392  -21.1616   21.3410 N   0  0  0  0  0  0  0  0  0  0  0  0
    8.8532  -20.0821   23.8885 C   0  0  0  0  0  0  0  0  0  0  0  0
    9.2100  -21.2877   23.8411 O   0  0  0  0  0  0  0  0  0  0  0  0
    9.4808  -19.2538   24.8230 N   0  0  0  0  0  0  0  0  0  0  0  0
   10.6204  -19.7028   25.6860 C   0  0  1  0  0  0  0  0  0  0  0  0
   11.8785  -19.2466   25.0356 C   0  0  0  0  0  0  0  0  0  0  0  0
   11.9472  -17.8508   24.5812 C   0  0  0  0  0  0  0  0  0  0  0  0
   13.1572  -17.3322   23.9585 C   0  0  0  0  0  0  0  0  0  0  0  0
   14.1857  -18.0922   23.8846 O   0  0  0  0  0  0  0  0  0  0  0  0
   10.3800  -19.0214   26.9653 C   0  0  0  0  0  0  0  0  0  0  0  0
   11.1859  -19.3836   28.0748 O   0  0  0  0  0  0  0  0  0  0  0  0
   13.2945  -16.0621   23.4249 O   0  0  0  0  0  0  0  0  0  0  0  0
    9.5338  -18.1410   27.2081 O   0  0  0  0  0  0  0  0  0  0  0  0
  2  1  1  6
  2  3  1  0
  3  4  1  0
  5  4  1  0
  6  5  2  0
  7  2  1  0
  7 10  1  0
  8  7  2  0
  9  5  1  0
 11 10  1  0
 11 12  1  1
 13 12  1  0
 13 14  1  0
 15 14  1  0
 16 15  1  0
 17 11  1  0
 18 17  2  0
 19 17  1  0
 20 19  1  0
 20 21  1  6
 22 21  1  0
 23 24  2  0
 23 22  1  0
 25 20  1  0
 25 26  1  0
 27 23  1  0
 28 25  2  0
M  END
$$$$
