EKE.pdb
     RDKit          3D

 28 27  0  0  1  0  0  0  0  0999 V2000
   13.7987  -14.6494   15.9681 N   0  0  0  0  0  0  0  0  0  0  0  0
   12.9685  -15.6451   16.6137 C   0  0  1  0  0  0  0  0  0  0  0  0
   13.5425  -17.0344   16.4549 C   0  0  0  0  0  0  0  0  0  0  0  0
   14.9514  -17.0044   17.0392 C   0  0  0  0  0  0  0  0  0  0  0  0
   15.6039  -18.3258   16.9327 C   0  0  0  0  0  0  0  0  0  0  0  0
   15.9888  -18.9042   17.9660 O   0  0  0  0  0  0  0  0  0  0  0  0
   12.7647  -15.2768   18.0310 C   0  0  0  0  0  0  0  0  0  0  0  0
   13.7441  -15.0610   18.8014 O   0  0  0  0  0  0  0  0  0  0  0  0
   15.7980  -18.9374   15.7105 O   0  0  0  0  0  0  0  0  0  0  0  0
   11.4571  -15.1528   18.5739 N   0  0  0  0  0  0  0  0  0  0  0  0
   11.1358  -14.8426   19.9226 C   0  0  1  0  0  0  0  0  0  0  0  0
    9.6502  -14.5067   20.1171 C   0  0  0  0  0  0  0  0  0  0  0  0
    9.1953  -13.4643   19.1579 C   0  0  0  0  0  0  0  0  0  0  0  0
    7.7366  -13.1852   19.2780 C   0  0  0  0  0  0  0  0  0  0  0  0
    7.2965  -12.0644   18.3751 C   0  0  0  0  0  0  0  0  0  0  0  0
    5.8407  -11.9504   18.3754 N   0  0  0  0  0  0  0  0  0  0  0  0
   11.4610  -15.9194   20.8803 C   0  0  0  0  0  0  0  0  0  0  0  0
   11.1235  -17.0930   20.5775 O   0  0  0  0  0  0  0  0  0  0  0  0
   12.1170  -15.7246   22.0988 N   0  0  0  0  0  0  0  0  0  0  0  0
   12.5258  -16.8482   23.0019 C   0  0  1  0  0  0  0  0  0  0  0  0
   14.0055  -16.9768   22.9112 C   0  0  0  0  0  0  0  0  0  0  0  0
   14.8208  -15.8459   23.3755 C   0  0  0  0  0  0  0  0  0  0  0  0
   16.2609  -15.8316   23.1596 C   0  0  0  0  0  0  0  0  0  0  0  0
   17.0353  -16.0330   24.1600 O   0  0  0  0  0  0  0  0  0  0  0  0
   12.0894  -16.4039   24.3326 C   0  0  0  0  0  0  0  0  0  0  0  0
   12.2392  -17.3046   25.4180 O   0  0  0  0  0  0  0  0  0  0  0  0
   16.8794  -15.6177   21.9396 O   0  0  0  0  0  0  0  0  0  0  0  0
   11.5892  -15.3057   24.6391 O   0  0  0  0  0  0  0  0  0  0  0  0
  2  1  1  1
  2  3  1  0
  3  4  1  0
  5  4  1  0
  6  5  2  0
  7  2  1  0
  7 10  1  0
  8  7  2  0
  9  5  1  0
 11 10  1  0
 11 12  1  6
 13 12  1  0
 13 14  1  0
 15 14  1  0
 16 15  1  0
 17 11  1  0
 18 17  2  0
 19 17  1  0
 20 19  1  0
 20 21  1  1
 22 21  1  0
 23 24  2  0
 23 22  1  0
 25 20  1  0
 25 26  1  0
 27 23  1  0
 28 25  2  0
M  END
$$$$
