EKE.pdb
     RDKit          3D

 28 27  0  0  1  0  0  0  0  0999 V2000
   11.4899  -16.6412   17.2943 N   0  0  0  0  0  0  0  0  0  0  0  0
   11.6542  -17.5478   18.4116 C   0  0  1  0  0  0  0  0  0  0  0  0
   12.9506  -18.3190   18.3151 C   0  0  0  0  0  0  0  0  0  0  0  0
   13.8579  -17.5485   17.3608 C   0  0  0  0  0  0  0  0  0  0  0  0
   15.1402  -18.2531   17.1545 C   0  0  0  0  0  0  0  0  0  0  0  0
   16.0405  -17.7053   16.4912 O   0  0  0  0  0  0  0  0  0  0  0  0
   11.5365  -16.7973   19.6800 C   0  0  0  0  0  0  0  0  0  0  0  0
   12.5611  -16.4174   20.3164 O   0  0  0  0  0  0  0  0  0  0  0  0
   15.3655  -19.5088   17.6813 O   0  0  0  0  0  0  0  0  0  0  0  0
   10.2636  -16.4776   20.2255 N   0  0  0  0  0  0  0  0  0  0  0  0
   10.0225  -15.7026   21.3916 C   0  0  1  0  0  0  0  0  0  0  0  0
    8.6654  -14.9850   21.3576 C   0  0  0  0  0  0  0  0  0  0  0  0
    8.4497  -14.2844   20.0629 C   0  0  0  0  0  0  0  0  0  0  0  0
    7.1184  -13.6187   19.9967 C   0  0  0  0  0  0  0  0  0  0  0  0
    6.9252  -12.8616   18.7103 C   0  0  0  0  0  0  0  0  0  0  0  0
    5.5759  -12.3076   18.6418 N   0  0  0  0  0  0  0  0  0  0  0  0
   10.0660  -16.4785   22.6479 C   0  0  0  0  0  0  0  0  0  0  0  0
    9.3389  -17.5021   22.7287 O   0  0  0  0  0  0  0  0  0  0  0  0
   10.8585  -16.1542   23.7524 N   0  0  0  0  0  0  0  0  0  0  0  0
   11.0178  -17.0508   24.9424 C   0  0  1  0  0  0  0  0  0  0  0  0
   12.4439  -17.4722   24.9949 C   0  0  0  0  0  0  0  0  0  0  0  0
   13.4711  -16.4266   24.8898 C   0  0  0  0  0  0  0  0  0  0  0  0
   14.8830  -16.7776   24.8256 C   0  0  0  0  0  0  0  0  0  0  0  0
   15.5717  -16.7584   25.9056 O   0  0  0  0  0  0  0  0  0  0  0  0
   10.6518  -16.1934   26.0779 C   0  0  0  0  0  0  0  0  0  0  0  0
   10.1728  -14.8877   25.7995 O   0  0  0  0  0  0  0  0  0  0  0  0
   15.5598  -17.1411   23.6740 O   0  0  0  0  0  0  0  0  0  0  0  0
   10.7106  -16.4737   27.2896 O   0  0  0  0  0  0  0  0  0  0  0  0
  2  1  1  6
  2  3  1  0
  3  4  1  0
  5  4  1  0
  6  5  2  0
  7  2  1  0
  7 10  1  0
  8  7  2  0
  9  5  1  0
 11 10  1  0
 11 12  1  6
 13 12  1  0
 13 14  1  0
 15 14  1  0
 16 15  1  0
 17 11  1  0
 18 17  2  0
 19 17  1  0
 20 19  1  0
 20 21  1  1
 22 21  1  0
 23 24  2  0
 23 22  1  0
 25 20  1  0
 25 26  1  0
 27 23  1  0
 28 25  2  0
M  END
$$$$
