FSH.pdb
     RDKit          3D

 28 29  0  0  1  0  0  0  0  0999 V2000
   28.1919  -19.5964  -15.6260 N   0  0  0  0  0  0  0  0  0  0  0  0
   27.2907  -19.0714  -14.6179 C   0  0  1  0  0  0  0  0  0  0  0  0
   26.2725  -18.1886  -15.3037 C   0  0  0  0  0  0  0  0  0  0  0  0
   26.8734  -16.9488  -15.8327 C   0  0  0  0  0  0  0  0  0  0  0  0
   27.2071  -15.8929  -14.9766 C   0  0  0  0  0  0  0  0  0  0  0  0
   27.7678  -14.7368  -15.4769 C   0  0  0  0  0  0  0  0  0  0  0  0
   28.0196  -14.5740  -16.8186 C   0  0  0  0  0  0  0  0  0  0  0  0
   27.7004  -15.5962  -17.6756 C   0  0  0  0  0  0  0  0  0  0  0  0
   27.1415  -16.7466  -17.1709 C   0  0  0  0  0  0  0  0  0  0  0  0
   26.5966  -20.2149  -13.9474 C   0  0  0  0  0  0  0  0  0  0  0  0
   26.4699  -21.3351  -14.5014 O   0  0  0  0  0  0  0  0  0  0  0  0
   24.7461  -19.5225  -10.4436 O   0  0  0  0  0  0  0  0  0  0  0  0
   25.1125  -20.8781  -10.6133 C   0  0  0  0  0  0  0  0  0  0  0  0
   25.1474  -21.0820  -12.1352 C   0  0  2  0  0  0  0  0  0  0  0  0
   26.0511  -20.0705  -12.6466 N   0  0  0  0  0  0  0  0  0  0  0  0
   23.7603  -20.8783  -12.6083 C   0  0  0  0  0  0  0  0  0  0  0  0
   23.5267  -19.9958  -13.4621 O   0  0  0  0  0  0  0  0  0  0  0  0
   22.6405  -21.6485  -12.1369 N   0  0  0  0  0  0  0  0  0  0  0  0
   21.3599  -21.5618  -12.7608 C   0  0  1  0  0  0  0  0  0  0  0  0
   21.4116  -21.7603  -14.2367 C   0  0  0  0  0  0  0  0  0  0  0  0
   21.7194  -20.5461  -15.0156 C   0  0  0  0  0  0  0  0  0  0  0  0
   22.0029  -19.2712  -14.6354 C   0  0  0  0  0  0  0  0  0  0  0  0
   22.2556  -18.5098  -15.7407 N   0  0  0  0  0  0  0  0  0  0  0  0
   22.1230  -19.3325  -16.7776 C   0  0  0  0  0  0  0  0  0  0  0  0
   21.8024  -20.5646  -16.3952 N   0  0  0  0  0  0  0  0  0  0  0  0
   20.3258  -22.4503  -12.1679 C   0  0  0  0  0  0  0  0  0  0  0  0
   20.4995  -23.2892  -11.2783 O   0  0  0  0  0  0  0  0  0  0  0  0
   19.0347  -22.3099  -12.6788 O   0  0  0  0  0  0  0  0  0  0  0  0
  2  1  1  6
  2  3  1  0
  3  4  1  0
  4  5  2  0
  5  6  1  0
  7  6  2  0
  8  7  1  0
  9  8  2  0
  9  4  1  0
 10 11  2  0
 10  2  1  0
 12 13  1  0
 14 13  1  1
 14 15  1  0
 14 16  1  0
 15 10  1  0
 16 18  1  0
 17 16  2  0
 18 19  1  0
 19 26  1  0
 19 20  1  6
 20 21  1  0
 21 25  1  0
 22 21  2  0
 22 23  1  0
 23 24  1  0
 25 24  2  0
 26 27  2  0
 26 28  1  0
M  END
$$$$
