FSH.pdb
     RDKit          3D

 28 29  0  0  1  0  0  0  0  0999 V2000
   25.2171  -20.3287   -7.8994 N   0  0  0  0  0  0  0  0  0  0  0  0
   26.4615  -20.1499   -8.6230 C   0  0  1  0  0  0  0  0  0  0  0  0
   27.5472  -20.9120   -7.8974 C   0  0  0  0  0  0  0  0  0  0  0  0
   27.9156  -20.2772   -6.6169 C   0  0  0  0  0  0  0  0  0  0  0  0
   28.3825  -18.9582   -6.5797 C   0  0  0  0  0  0  0  0  0  0  0  0
   28.7256  -18.3708   -5.3803 C   0  0  0  0  0  0  0  0  0  0  0  0
   28.6253  -19.0457   -4.1868 C   0  0  0  0  0  0  0  0  0  0  0  0
   28.1701  -20.3395   -4.2001 C   0  0  0  0  0  0  0  0  0  0  0  0
   27.8295  -20.9199   -5.3991 C   0  0  0  0  0  0  0  0  0  0  0  0
   26.2993  -20.6973  -10.0061 C   0  0  0  0  0  0  0  0  0  0  0  0
   25.2090  -21.1708  -10.4119 O   0  0  0  0  0  0  0  0  0  0  0  0
   28.9023  -21.5302  -13.0198 O   0  0  0  0  0  0  0  0  0  0  0  0
   28.6023  -20.1540  -12.8896 C   0  0  0  0  0  0  0  0  0  0  0  0
   27.2130  -20.1210  -12.2353 C   0  0  2  0  0  0  0  0  0  0  0  0
   27.3856  -20.6998  -10.9174 N   0  0  0  0  0  0  0  0  0  0  0  0
   26.3354  -20.9464  -13.0942 C   0  0  0  0  0  0  0  0  0  0  0  0
   26.1387  -22.1447  -12.7984 O   0  0  0  0  0  0  0  0  0  0  0  0
   25.6807  -20.4451  -14.2730 N   0  0  0  0  0  0  0  0  0  0  0  0
   24.2914  -20.6716  -14.5080 C   0  0  1  0  0  0  0  0  0  0  0  0
   23.4322  -20.3027  -13.3478 C   0  0  0  0  0  0  0  0  0  0  0  0
   21.9939  -20.5738  -13.5299 C   0  0  0  0  0  0  0  0  0  0  0  0
   21.3134  -21.7195  -13.8029 C   0  0  0  0  0  0  0  0  0  0  0  0
   19.9735  -21.4582  -13.8392 N   0  0  0  0  0  0  0  0  0  0  0  0
   19.8576  -20.1571  -13.5869 C   0  0  0  0  0  0  0  0  0  0  0  0
   21.0406  -19.5822  -13.3942 N   0  0  0  0  0  0  0  0  0  0  0  0
   23.7663  -20.0385  -15.7465 C   0  0  0  0  0  0  0  0  0  0  0  0
   24.0169  -18.8996  -16.1533 O   0  0  0  0  0  0  0  0  0  0  0  0
   22.9052  -20.8230  -16.5152 O   0  0  0  0  0  0  0  0  0  0  0  0
  2  1  1  1
  2  3  1  0
  3  4  1  0
  4  5  2  0
  5  6  1  0
  7  6  2  0
  8  7  1  0
  9  8  2  0
  9  4  1  0
 10 11  2  0
 10  2  1  0
 12 13  1  0
 14 13  1  6
 14 15  1  0
 14 16  1  0
 15 10  1  0
 16 18  1  0
 17 16  2  0
 18 19  1  0
 19 26  1  0
 19 20  1  1
 20 21  1  0
 21 25  1  0
 22 21  2  0
 22 23  1  0
 23 24  1  0
 25 24  2  0
 26 27  2  0
 26 28  1  0
M  END
$$$$
