FSH.pdb
     RDKit          3D

 28 29  0  0  1  0  0  0  0  0999 V2000
   23.1906   -8.5287  -17.4990 N   0  0  0  0  0  0  0  0  0  0  0  0
   22.7614   -7.7224  -16.3721 C   0  0  1  0  0  0  0  0  0  0  0  0
   23.9912   -7.1813  -15.6787 C   0  0  0  0  0  0  0  0  0  0  0  0
   24.9654   -8.2429  -15.3589 C   0  0  0  0  0  0  0  0  0  0  0  0
   24.6493   -9.2523  -14.4422 C   0  0  0  0  0  0  0  0  0  0  0  0
   25.5639  -10.2411  -14.1472 C   0  0  0  0  0  0  0  0  0  0  0  0
   26.8074  -10.2775  -14.7323 C   0  0  0  0  0  0  0  0  0  0  0  0
   27.1381   -9.2980  -15.6336 C   0  0  0  0  0  0  0  0  0  0  0  0
   26.2221   -8.3146  -15.9238 C   0  0  0  0  0  0  0  0  0  0  0  0
   21.9280   -6.5878  -16.8792 C   0  0  0  0  0  0  0  0  0  0  0  0
   22.3059   -5.8546  -17.8265 O   0  0  0  0  0  0  0  0  0  0  0  0
   18.4180   -6.1146  -15.2447 O   0  0  0  0  0  0  0  0  0  0  0  0
   18.4166   -5.5611  -16.5464 C   0  0  0  0  0  0  0  0  0  0  0  0
   19.8835   -5.1908  -16.8111 C   0  0  2  0  0  0  0  0  0  0  0  0
   20.6668   -6.2982  -16.2996 N   0  0  0  0  0  0  0  0  0  0  0  0
   20.1328   -3.9403  -16.0605 C   0  0  0  0  0  0  0  0  0  0  0  0
   20.8109   -3.9795  -15.0112 O   0  0  0  0  0  0  0  0  0  0  0  0
   19.6330   -2.6556  -16.4716 N   0  0  0  0  0  0  0  0  0  0  0  0
   19.9159   -1.4718  -15.7264 C   0  0  1  0  0  0  0  0  0  0  0  0
   21.3746   -1.2219  -15.5534 C   0  0  0  0  0  0  0  0  0  0  0  0
   21.7100    0.0196  -14.8312 C   0  0  0  0  0  0  0  0  0  0  0  0
   21.2514    0.5420  -13.6620 C   0  0  0  0  0  0  0  0  0  0  0  0
   21.9061    1.7105  -13.3951 N   0  0  0  0  0  0  0  0  0  0  0  0
   22.7544    1.8820  -14.4054 C   0  0  0  0  0  0  0  0  0  0  0  0
   22.6751    0.8951  -15.2924 N   0  0  0  0  0  0  0  0  0  0  0  0
   19.2516   -0.2464  -16.2436 C   0  0  0  0  0  0  0  0  0  0  0  0
   18.7056   -0.1145  -17.3435 O   0  0  0  0  0  0  0  0  0  0  0  0
   19.2540    0.8565  -15.3883 O   0  0  0  0  0  0  0  0  0  0  0  0
  2  1  1  6
  2  3  1  0
  3  4  1  0
  4  5  2  0
  5  6  1  0
  7  6  2  0
  8  7  1  0
  9  8  2  0
  9  4  1  0
 10 11  2  0
 10  2  1  0
 12 13  1  0
 14 13  1  1
 14 15  1  0
 14 16  1  0
 15 10  1  0
 16 18  1  0
 17 16  2  0
 18 19  1  0
 19 26  1  0
 19 20  1  6
 20 21  1  0
 21 25  1  0
 22 21  2  0
 22 23  1  0
 23 24  1  0
 25 24  2  0
 26 27  2  0
 26 28  1  0
M  END
$$$$
