FSH.pdb
     RDKit          3D

 28 29  0  0  1  0  0  0  0  0999 V2000
   16.5913   -9.8310  -16.4173 N   0  0  0  0  0  0  0  0  0  0  0  0
   17.7587   -9.1530  -16.9480 C   0  0  1  0  0  0  0  0  0  0  0  0
   17.2904   -7.9824  -17.7824 C   0  0  0  0  0  0  0  0  0  0  0  0
   16.6357   -8.4135  -19.0329 C   0  0  0  0  0  0  0  0  0  0  0  0
   15.2686   -8.1939  -19.2381 C   0  0  0  0  0  0  0  0  0  0  0  0
   14.6626   -8.5995  -20.4084 C   0  0  0  0  0  0  0  0  0  0  0  0
   15.3648   -9.2278  -21.4094 C   0  0  0  0  0  0  0  0  0  0  0  0
   16.7058   -9.4531  -21.2293 C   0  0  0  0  0  0  0  0  0  0  0  0
   17.3046   -9.0465  -20.0603 C   0  0  0  0  0  0  0  0  0  0  0  0
   18.5906   -8.6582  -15.8069 C   0  0  0  0  0  0  0  0  0  0  0  0
   18.0766   -8.2287  -14.7443 O   0  0  0  0  0  0  0  0  0  0  0  0
   22.4380   -8.8782  -16.2440 O   0  0  0  0  0  0  0  0  0  0  0  0
   22.1592   -8.6764  -14.8720 C   0  0  0  0  0  0  0  0  0  0  0  0
   20.7800   -8.0007  -14.8527 C   0  0  2  0  0  0  0  0  0  0  0  0
   20.0062   -8.6574  -15.8878 N   0  0  0  0  0  0  0  0  0  0  0  0
   21.0184   -6.5728  -15.1586 C   0  0  0  0  0  0  0  0  0  0  0  0
   21.6309   -5.8624  -14.3325 O   0  0  0  0  0  0  0  0  0  0  0  0
   20.5799   -5.9380  -16.3727 N   0  0  0  0  0  0  0  0  0  0  0  0
   20.8280   -4.5551  -16.6231 C   0  0  1  0  0  0  0  0  0  0  0  0
   21.7150   -4.3212  -17.7973 C   0  0  0  0  0  0  0  0  0  0  0  0
   23.0511   -4.9378  -17.6981 C   0  0  0  0  0  0  0  0  0  0  0  0
   23.8734   -5.1570  -16.6369 C   0  0  0  0  0  0  0  0  0  0  0  0
   25.0016   -5.8012  -17.0577 N   0  0  0  0  0  0  0  0  0  0  0  0
   24.8495   -5.9656  -18.3691 C   0  0  0  0  0  0  0  0  0  0  0  0
   23.6962   -5.4651  -18.8010 N   0  0  0  0  0  0  0  0  0  0  0  0
   19.6020   -3.7225  -16.7427 C   0  0  0  0  0  0  0  0  0  0  0  0
   18.4356   -4.1283  -16.7530 O   0  0  0  0  0  0  0  0  0  0  0  0
   19.8071   -2.3465  -16.8536 O   0  0  0  0  0  0  0  0  0  0  0  0
  2  1  1  1
  2  3  1  0
  3  4  1  0
  4  5  2  0
  5  6  1  0
  7  6  2  0
  8  7  1  0
  9  8  2  0
  9  4  1  0
 10 11  2  0
 10  2  1  0
 12 13  1  0
 14 13  1  6
 14 15  1  0
 14 16  1  0
 15 10  1  0
 16 18  1  0
 17 16  2  0
 18 19  1  0
 19 26  1  0
 19 20  1  6
 20 21  1  0
 21 25  1  0
 22 21  2  0
 22 23  1  0
 23 24  1  0
 25 24  2  0
 26 27  2  0
 26 28  1  0
M  END
$$$$
