FSH.pdb
     RDKit          3D

 28 29  0  0  1  0  0  0  0  0999 V2000
   36.3346  -32.8959  -20.0401 N   0  0  0  0  0  0  0  0  0  0  0  0
   35.0833  -32.2822  -20.4420 C   0  0  1  0  0  0  0  0  0  0  0  0
   34.2179  -33.3429  -21.0840 C   0  0  0  0  0  0  0  0  0  0  0  0
   34.6960  -33.7154  -22.4297 C   0  0  0  0  0  0  0  0  0  0  0  0
   34.6862  -32.7856  -23.4759 C   0  0  0  0  0  0  0  0  0  0  0  0
   35.1337  -33.1399  -24.7311 C   0  0  0  0  0  0  0  0  0  0  0  0
   35.6019  -34.4031  -25.0050 C   0  0  0  0  0  0  0  0  0  0  0  0
   35.6204  -35.3302  -23.9943 C   0  0  0  0  0  0  0  0  0  0  0  0
   35.1729  -34.9712  -22.7448 C   0  0  0  0  0  0  0  0  0  0  0  0
   34.3986  -31.7401  -19.2269 C   0  0  0  0  0  0  0  0  0  0  0  0
   34.4769  -32.3073  -18.1089 O   0  0  0  0  0  0  0  0  0  0  0  0
   31.8258  -28.6625  -19.6264 O   0  0  0  0  0  0  0  0  0  0  0  0
   32.5263  -28.6431  -18.3977 C   0  0  0  0  0  0  0  0  0  0  0  0
   32.8846  -30.1130  -18.1331 C   0  0  2  0  0  0  0  0  0  0  0  0
   33.6279  -30.5521  -19.2977 N   0  0  0  0  0  0  0  0  0  0  0  0
   31.5979  -30.8299  -17.9923 C   0  0  0  0  0  0  0  0  0  0  0  0
   31.0697  -31.3462  -19.0007 O   0  0  0  0  0  0  0  0  0  0  0  0
   30.9024  -30.9727  -16.7412 N   0  0  0  0  0  0  0  0  0  0  0  0
   29.6292  -31.6128  -16.6642 C   0  0  1  0  0  0  0  0  0  0  0  0
   29.3034  -32.1086  -15.2974 C   0  0  0  0  0  0  0  0  0  0  0  0
   28.0002  -32.7891  -15.1785 C   0  0  0  0  0  0  0  0  0  0  0  0
   27.0828  -33.1629  -16.1107 C   0  0  0  0  0  0  0  0  0  0  0  0
   26.0430  -33.8025  -15.4984 N   0  0  0  0  0  0  0  0  0  0  0  0
   26.3430  -33.8095  -14.2024 C   0  0  0  0  0  0  0  0  0  0  0  0
   27.5065  -33.2142  -13.9595 N   0  0  0  0  0  0  0  0  0  0  0  0
   28.5000  -30.8003  -17.1890 C   0  0  0  0  0  0  0  0  0  0  0  0
   28.3938  -29.5708  -17.1404 O   0  0  0  0  0  0  0  0  0  0  0  0
   27.4644  -31.5137  -17.7942 O   0  0  0  0  0  0  0  0  0  0  0  0
  2  1  1  1
  2  3  1  0
  3  4  1  0
  4  5  2  0
  5  6  1  0
  7  6  2  0
  8  7  1  0
  9  8  2  0
  9  4  1  0
 10 11  2  0
 10  2  1  0
 12 13  1  0
 14 13  1  6
 14 15  1  0
 14 16  1  0
 15 10  1  0
 16 18  1  0
 17 16  2  0
 18 19  1  0
 19 26  1  0
 19 20  1  1
 20 21  1  0
 21 25  1  0
 22 21  2  0
 22 23  1  0
 23 24  1  0
 25 24  2  0
 26 27  2  0
 26 28  1  0
M  END
$$$$
