FSH.pdb
     RDKit          3D

 28 29  0  0  1  0  0  0  0  0999 V2000
   27.4458  -21.6224   -9.0226 N   0  0  0  0  0  0  0  0  0  0  0  0
   26.4324  -20.6002   -8.8439 C   0  0  1  0  0  0  0  0  0  0  0  0
   27.0882  -19.3818   -8.2344 C   0  0  0  0  0  0  0  0  0  0  0  0
   27.6715  -19.6651   -6.9086 C   0  0  0  0  0  0  0  0  0  0  0  0
   29.0473  -19.5321   -6.6883 C   0  0  0  0  0  0  0  0  0  0  0  0
   29.5864  -19.7987   -5.4475 C   0  0  0  0  0  0  0  0  0  0  0  0
   28.8071  -20.2008   -4.3888 C   0  0  0  0  0  0  0  0  0  0  0  0
   27.4561  -20.3376   -4.5824 C   0  0  0  0  0  0  0  0  0  0  0  0
   26.9243  -20.0703   -5.8218 C   0  0  0  0  0  0  0  0  0  0  0  0
   25.8592  -20.2488  -10.1806 C   0  0  0  0  0  0  0  0  0  0  0  0
   25.0806  -19.2756  -10.3371 O   0  0  0  0  0  0  0  0  0  0  0  0
   26.5197  -22.6357  -13.4231 O   0  0  0  0  0  0  0  0  0  0  0  0
   26.5662  -21.2435  -13.6689 C   0  0  0  0  0  0  0  0  0  0  0  0
   25.6283  -20.6331  -12.6168 C   0  0  2  0  0  0  0  0  0  0  0  0
   26.1799  -21.0129  -11.3311 N   0  0  0  0  0  0  0  0  0  0  0  0
   24.2988  -21.2386  -12.8519 C   0  0  0  0  0  0  0  0  0  0  0  0
   23.7935  -21.9696  -11.9729 O   0  0  0  0  0  0  0  0  0  0  0  0
   23.5357  -21.0342  -14.0541 N   0  0  0  0  0  0  0  0  0  0  0  0
   22.2137  -20.4977  -14.0163 C   0  0  1  0  0  0  0  0  0  0  0  0
   22.1134  -19.2399  -13.2239 C   0  0  0  0  0  0  0  0  0  0  0  0
   20.7766  -18.6166  -13.2160 C   0  0  0  0  0  0  0  0  0  0  0  0
   19.5952  -18.9949  -13.7738 C   0  0  0  0  0  0  0  0  0  0  0  0
   18.6249  -18.0909  -13.4476 N   0  0  0  0  0  0  0  0  0  0  0  0
   19.2297  -17.1756  -12.6951 C   0  0  0  0  0  0  0  0  0  0  0  0
   20.5203  -17.4461  -12.5269 N   0  0  0  0  0  0  0  0  0  0  0  0
   21.5906  -20.3039  -15.3522 C   0  0  0  0  0  0  0  0  0  0  0  0
   20.4918  -20.7312  -15.7201 O   0  0  0  0  0  0  0  0  0  0  0  0
   22.3350  -19.5627  -16.2711 O   0  0  0  0  0  0  0  0  0  0  0  0
  2  1  1  6
  2  3  1  0
  3  4  1  0
  4  5  2  0
  5  6  1  0
  7  6  2  0
  8  7  1  0
  9  8  2  0
  9  4  1  0
 10 11  2  0
 10  2  1  0
 12 13  1  0
 14 13  1  6
 14 15  1  0
 14 16  1  0
 15 10  1  0
 16 18  1  0
 17 16  2  0
 18 19  1  0
 19 26  1  0
 19 20  1  6
 20 21  1  0
 21 25  1  0
 22 21  2  0
 22 23  1  0
 23 24  1  0
 25 24  2  0
 26 27  2  0
 26 28  1  0
M  END
$$$$
