FSH.pdb
     RDKit          3D

 28 29  0  0  1  0  0  0  0  0999 V2000
   23.9654  -11.9515  -21.6535 N   0  0  0  0  0  0  0  0  0  0  0  0
   23.1677  -11.5957  -20.4955 C   0  0  1  0  0  0  0  0  0  0  0  0
   23.6609  -12.3989  -19.3132 C   0  0  0  0  0  0  0  0  0  0  0  0
   23.4089  -13.8441  -19.4749 C   0  0  0  0  0  0  0  0  0  0  0  0
   22.1430  -14.3834  -19.2186 C   0  0  0  0  0  0  0  0  0  0  0  0
   21.9139  -15.7345  -19.3710 C   0  0  0  0  0  0  0  0  0  0  0  0
   22.9047  -16.5975  -19.7754 C   0  0  0  0  0  0  0  0  0  0  0  0
   24.1531  -16.0904  -20.0320 C   0  0  0  0  0  0  0  0  0  0  0  0
   24.3755  -14.7423  -19.8783 C   0  0  0  0  0  0  0  0  0  0  0  0
   23.3401  -10.1351  -20.2200 C   0  0  0  0  0  0  0  0  0  0  0  0
   24.1356   -9.4217  -20.8802 O   0  0  0  0  0  0  0  0  0  0  0  0
   22.2197   -6.0923  -20.2436 O   0  0  0  0  0  0  0  0  0  0  0  0
   22.0806   -7.4947  -20.3656 C   0  0  0  0  0  0  0  0  0  0  0  0
   22.6587   -8.0562  -19.0581 C   0  0  2  0  0  0  0  0  0  0  0  0
   22.6013   -9.4987  -19.1907 N   0  0  0  0  0  0  0  0  0  0  0  0
   21.7794   -7.5623  -17.9754 C   0  0  0  0  0  0  0  0  0  0  0  0
   20.5650   -7.8577  -17.9883 O   0  0  0  0  0  0  0  0  0  0  0  0
   22.2449   -6.7462  -16.8860 N   0  0  0  0  0  0  0  0  0  0  0  0
   21.3617   -6.3003  -15.8575 C   0  0  1  0  0  0  0  0  0  0  0  0
   21.7727   -6.7471  -14.4967 C   0  0  0  0  0  0  0  0  0  0  0  0
   21.9104   -8.2071  -14.3383 C   0  0  0  0  0  0  0  0  0  0  0  0
   21.8060   -9.2307  -15.2281 C   0  0  0  0  0  0  0  0  0  0  0  0
   22.0581  -10.4144  -14.5952 N   0  0  0  0  0  0  0  0  0  0  0  0
   22.3130  -10.0940  -13.3295 C   0  0  0  0  0  0  0  0  0  0  0  0
   22.2372   -8.7827  -13.1249 N   0  0  0  0  0  0  0  0  0  0  0  0
   21.1127   -4.8346  -15.8538 C   0  0  0  0  0  0  0  0  0  0  0  0
   21.6555   -3.9946  -16.5785 O   0  0  0  0  0  0  0  0  0  0  0  0
   20.1680   -4.3783  -14.9334 O   0  0  0  0  0  0  0  0  0  0  0  0
  2  1  1  6
  2  3  1  0
  3  4  1  0
  4  5  2  0
  5  6  1  0
  7  6  2  0
  8  7  1  0
  9  8  2  0
  9  4  1  0
 10 11  2  0
 10  2  1  0
 12 13  1  0
 14 13  1  6
 14 15  1  0
 14 16  1  0
 15 10  1  0
 16 18  1  0
 17 16  2  0
 18 19  1  0
 19 26  1  0
 19 20  1  1
 20 21  1  0
 21 25  1  0
 22 21  2  0
 22 23  1  0
 23 24  1  0
 25 24  2  0
 26 27  2  0
 26 28  1  0
M  END
$$$$
