FSH.pdb
     RDKit          3D

 28 29  0  0  1  0  0  0  0  0999 V2000
   18.5661  -11.0173  -18.9599 N   0  0  0  0  0  0  0  0  0  0  0  0
   19.3557  -11.0357  -17.7432 C   0  0  1  0  0  0  0  0  0  0  0  0
   20.8182  -11.0620  -18.1259 C   0  0  0  0  0  0  0  0  0  0  0  0
   21.1850  -12.2953  -18.8488 C   0  0  0  0  0  0  0  0  0  0  0  0
   21.3848  -13.4970  -18.1594 C   0  0  0  0  0  0  0  0  0  0  0  0
   21.7278  -14.6458  -18.8403 C   0  0  0  0  0  0  0  0  0  0  0  0
   21.8859  -14.6603  -20.2059 C   0  0  0  0  0  0  0  0  0  0  0  0
   21.6949  -13.4937  -20.9016 C   0  0  0  0  0  0  0  0  0  0  0  0
   21.3530  -12.3513  -20.2171 C   0  0  0  0  0  0  0  0  0  0  0  0
   19.0621   -9.7965  -16.9577 C   0  0  0  0  0  0  0  0  0  0  0  0
   19.0141   -8.6623  -17.4953 O   0  0  0  0  0  0  0  0  0  0  0  0
   16.8660   -9.5083  -13.5778 O   0  0  0  0  0  0  0  0  0  0  0  0
   18.1993   -9.0683  -13.4057 C   0  0  0  0  0  0  0  0  0  0  0  0
   18.6481   -8.6351  -14.8093 C   0  0  2  0  0  0  0  0  0  0  0  0
   18.8251   -9.8617  -15.5613 N   0  0  0  0  0  0  0  0  0  0  0  0
   19.9230   -7.9068  -14.6257 C   0  0  0  0  0  0  0  0  0  0  0  0
   21.0010   -8.5382  -14.6635 O   0  0  0  0  0  0  0  0  0  0  0  0
   20.0005   -6.4879  -14.4019 N   0  0  0  0  0  0  0  0  0  0  0  0
   21.1972   -5.7558  -14.6638 C   0  0  1  0  0  0  0  0  0  0  0  0
   21.7082   -5.9435  -16.0509 C   0  0  0  0  0  0  0  0  0  0  0  0
   22.9780   -5.2523  -16.3432 C   0  0  0  0  0  0  0  0  0  0  0  0
   23.8335   -4.5517  -15.5510 C   0  0  0  0  0  0  0  0  0  0  0  0
   24.9024   -4.1325  -16.2906 N   0  0  0  0  0  0  0  0  0  0  0  0
   24.6823   -4.5847  -17.5222 C   0  0  0  0  0  0  0  0  0  0  0  0
   23.5417   -5.2623  -17.6051 N   0  0  0  0  0  0  0  0  0  0  0  0
   21.1117   -4.3052  -14.3493 C   0  0  0  0  0  0  0  0  0  0  0  0
   20.1247   -3.5776  -14.4974 O   0  0  0  0  0  0  0  0  0  0  0  0
   22.2714   -3.7225  -13.8361 O   0  0  0  0  0  0  0  0  0  0  0  0
  2  1  1  6
  2  3  1  0
  3  4  1  0
  4  5  2  0
  5  6  1  0
  7  6  2  0
  8  7  1  0
  9  8  2  0
  9  4  1  0
 10 11  2  0
 10  2  1  0
 12 13  1  0
 14 13  1  1
 14 15  1  0
 14 16  1  0
 15 10  1  0
 16 18  1  0
 17 16  2  0
 18 19  1  0
 19 26  1  0
 19 20  1  6
 20 21  1  0
 21 25  1  0
 22 21  2  0
 22 23  1  0
 23 24  1  0
 25 24  2  0
 26 27  2  0
 26 28  1  0
M  END
$$$$
