FSH.pdb
     RDKit          3D

 28 29  0  0  1  0  0  0  0  0999 V2000
   24.0346  -20.1053   -9.6807 N   0  0  0  0  0  0  0  0  0  0  0  0
   25.1078  -20.1248  -10.6562 C   0  0  1  0  0  0  0  0  0  0  0  0
   26.1262  -21.1547  -10.2223 C   0  0  0  0  0  0  0  0  0  0  0  0
   26.9223  -20.7009   -9.0653 C   0  0  0  0  0  0  0  0  0  0  0  0
   26.3478  -20.6098   -7.7922 C   0  0  0  0  0  0  0  0  0  0  0  0
   27.0966  -20.1846   -6.7153 C   0  0  0  0  0  0  0  0  0  0  0  0
   28.4204  -19.8370   -6.8439 C   0  0  0  0  0  0  0  0  0  0  0  0
   29.0037  -19.9188   -8.0826 C   0  0  0  0  0  0  0  0  0  0  0  0
   28.2520  -20.3434   -9.1527 C   0  0  0  0  0  0  0  0  0  0  0  0
   24.5429  -20.5045  -11.9888 C   0  0  0  0  0  0  0  0  0  0  0  0
   23.6316  -21.3609  -12.1069 O   0  0  0  0  0  0  0  0  0  0  0  0
   24.1160  -17.7798  -15.1137 O   0  0  0  0  0  0  0  0  0  0  0  0
   24.8426  -18.9680  -15.3611 C   0  0  0  0  0  0  0  0  0  0  0  0
   24.2400  -19.9985  -14.3947 C   0  0  2  0  0  0  0  0  0  0  0  0
   25.0238  -19.9023  -13.1790 N   0  0  0  0  0  0  0  0  0  0  0  0
   24.3928  -21.3154  -15.0517 C   0  0  0  0  0  0  0  0  0  0  0  0
   25.2173  -22.1366  -14.5955 O   0  0  0  0  0  0  0  0  0  0  0  0
   23.6358  -21.7179  -16.2068 N   0  0  0  0  0  0  0  0  0  0  0  0
   23.1316  -23.0461  -16.3425 C   0  0  1  0  0  0  0  0  0  0  0  0
   22.3511  -23.5014  -15.1577 C   0  0  0  0  0  0  0  0  0  0  0  0
   23.0627  -24.4390  -14.2689 C   0  0  0  0  0  0  0  0  0  0  0  0
   24.3361  -24.9170  -14.2862 C   0  0  0  0  0  0  0  0  0  0  0  0
   24.5298  -25.7414  -13.2147 N   0  0  0  0  0  0  0  0  0  0  0  0
   23.3717  -25.7525  -12.5602 C   0  0  0  0  0  0  0  0  0  0  0  0
   22.4602  -24.9871  -13.1522 N   0  0  0  0  0  0  0  0  0  0  0  0
   22.3486  -23.2825  -17.5841 C   0  0  0  0  0  0  0  0  0  0  0  0
   22.5733  -24.1409  -18.4431 O   0  0  0  0  0  0  0  0  0  0  0  0
   21.2529  -22.4415  -17.7840 O   0  0  0  0  0  0  0  0  0  0  0  0
  2  1  1  1
  2  3  1  0
  3  4  1  0
  4  5  2  0
  5  6  1  0
  7  6  2  0
  8  7  1  0
  9  8  2  0
  9  4  1  0
 10 11  2  0
 10  2  1  0
 12 13  1  0
 14 13  1  6
 14 15  1  0
 14 16  1  0
 15 10  1  0
 16 18  1  0
 17 16  2  0
 18 19  1  0
 19 26  1  0
 19 20  1  1
 20 21  1  0
 21 25  1  0
 22 21  2  0
 22 23  1  0
 23 24  1  0
 25 24  2  0
 26 27  2  0
 26 28  1  0
M  END
$$$$
