FSH.pdb
     RDKit          3D

 28 29  0  0  1  0  0  0  0  0999 V2000
   21.8173  -14.9753  -17.8132 N   0  0  0  0  0  0  0  0  0  0  0  0
   21.2534  -14.2455  -16.6935 C   0  0  1  0  0  0  0  0  0  0  0  0
   22.0548  -14.5801  -15.4558 C   0  0  0  0  0  0  0  0  0  0  0  0
   21.8668  -15.9805  -15.0296 C   0  0  0  0  0  0  0  0  0  0  0  0
   22.8713  -16.9330  -15.2363 C   0  0  0  0  0  0  0  0  0  0  0  0
   22.6895  -18.2400  -14.8363 C   0  0  0  0  0  0  0  0  0  0  0  0
   21.5306  -18.6577  -14.2261 C   0  0  0  0  0  0  0  0  0  0  0  0
   20.5329  -17.7407  -14.0136 C   0  0  0  0  0  0  0  0  0  0  0  0
   20.7199  -16.4390  -14.4146 C   0  0  0  0  0  0  0  0  0  0  0  0
   21.3490  -12.7790  -16.9751 C   0  0  0  0  0  0  0  0  0  0  0  0
   22.3791  -12.2619  -17.4741 O   0  0  0  0  0  0  0  0  0  0  0  0
   18.0598  -10.5510  -16.7096 O   0  0  0  0  0  0  0  0  0  0  0  0
   19.0367  -10.1061  -17.6307 C   0  0  0  0  0  0  0  0  0  0  0  0
   20.3775  -10.5004  -16.9935 C   0  0  2  0  0  0  0  0  0  0  0  0
   20.2653  -11.9122  -16.6840 N   0  0  0  0  0  0  0  0  0  0  0  0
   20.5112   -9.6731  -15.7741 C   0  0  0  0  0  0  0  0  0  0  0  0
   20.0388  -10.0904  -14.6948 O   0  0  0  0  0  0  0  0  0  0  0  0
   21.1648   -8.3918  -15.7530 N   0  0  0  0  0  0  0  0  0  0  0  0
   21.2158   -7.5999  -14.5668 C   0  0  1  0  0  0  0  0  0  0  0  0
   22.5501   -6.9794  -14.3325 C   0  0  0  0  0  0  0  0  0  0  0  0
   22.9604   -5.9892  -15.3456 C   0  0  0  0  0  0  0  0  0  0  0  0
   23.6128   -6.1210  -16.5319 C   0  0  0  0  0  0  0  0  0  0  0  0
   23.7263   -4.8984  -17.1299 N   0  0  0  0  0  0  0  0  0  0  0  0
   23.1406   -4.0401  -16.2992 C   0  0  0  0  0  0  0  0  0  0  0  0
   22.6653   -4.6451  -15.2152 N   0  0  0  0  0  0  0  0  0  0  0  0
   20.1537   -6.5637  -14.4733 C   0  0  0  0  0  0  0  0  0  0  0  0
   19.8845   -5.8736  -13.4850 O   0  0  0  0  0  0  0  0  0  0  0  0
   19.3938   -6.3628  -15.6266 O   0  0  0  0  0  0  0  0  0  0  0  0
  2  1  1  6
  2  3  1  0
  3  4  1  0
  4  5  2  0
  5  6  1  0
  7  6  2  0
  8  7  1  0
  9  8  2  0
  9  4  1  0
 10 11  2  0
 10  2  1  0
 12 13  1  0
 14 13  1  1
 14 15  1  0
 14 16  1  0
 15 10  1  0
 16 18  1  0
 17 16  2  0
 18 19  1  0
 19 26  1  0
 19 20  1  6
 20 21  1  0
 21 25  1  0
 22 21  2  0
 22 23  1  0
 23 24  1  0
 25 24  2  0
 26 27  2  0
 26 28  1  0
M  END
$$$$
