FSH.pdb
     RDKit          3D

 28 29  0  0  1  0  0  0  0  0999 V2000
   18.6140  -17.2688  -13.7912 N   0  0  0  0  0  0  0  0  0  0  0  0
   19.5554  -16.8359  -14.8063 C   0  0  1  0  0  0  0  0  0  0  0  0
   19.7380  -15.3404  -14.6789 C   0  0  0  0  0  0  0  0  0  0  0  0
   18.5725  -14.5897  -15.1850 C   0  0  0  0  0  0  0  0  0  0  0  0
   18.2487  -14.6025  -16.5467 C   0  0  0  0  0  0  0  0  0  0  0  0
   17.1588  -13.8987  -17.0135 C   0  0  0  0  0  0  0  0  0  0  0  0
   16.3549  -13.1648  -16.1738 C   0  0  0  0  0  0  0  0  0  0  0  0
   16.6539  -13.1383  -14.8354 C   0  0  0  0  0  0  0  0  0  0  0  0
   17.7419  -13.8420  -14.3758 C   0  0  0  0  0  0  0  0  0  0  0  0
   20.8638  -17.5251  -14.5775 C   0  0  0  0  0  0  0  0  0  0  0  0
   21.3006  -17.7597  -13.4235 O   0  0  0  0  0  0  0  0  0  0  0  0
   22.3577  -20.1118  -17.0873 O   0  0  0  0  0  0  0  0  0  0  0  0
   22.7192  -20.0760  -15.7202 C   0  0  0  0  0  0  0  0  0  0  0  0
   22.9387  -18.5864  -15.4168 C   0  0  2  0  0  0  0  0  0  0  0  0
   21.6652  -17.9419  -15.6704 N   0  0  0  0  0  0  0  0  0  0  0  0
   23.9896  -18.1278  -16.3520 C   0  0  0  0  0  0  0  0  0  0  0  0
   23.6588  -17.5848  -17.4281 O   0  0  0  0  0  0  0  0  0  0  0  0
   25.3976  -18.2709  -16.0946 N   0  0  0  0  0  0  0  0  0  0  0  0
   26.3759  -17.8646  -17.0510 C   0  0  1  0  0  0  0  0  0  0  0  0
   27.7664  -17.8929  -16.5162 C   0  0  0  0  0  0  0  0  0  0  0  0
   28.8114  -17.5108  -17.4844 C   0  0  0  0  0  0  0  0  0  0  0  0
   28.7452  -17.1301  -18.7887 C   0  0  0  0  0  0  0  0  0  0  0  0
   29.9995  -16.8408  -19.2450 N   0  0  0  0  0  0  0  0  0  0  0  0
   30.8109  -17.0487  -18.2115 C   0  0  0  0  0  0  0  0  0  0  0  0
   30.1468  -17.4512  -17.1327 N   0  0  0  0  0  0  0  0  0  0  0  0
   26.3163  -18.6001  -18.3417 C   0  0  0  0  0  0  0  0  0  0  0  0
   25.8786  -19.7414  -18.5182 O   0  0  0  0  0  0  0  0  0  0  0  0
   26.8082  -17.9185  -19.4558 O   0  0  0  0  0  0  0  0  0  0  0  0
  2  1  1  1
  2  3  1  0
  3  4  1  0
  4  5  2  0
  5  6  1  0
  7  6  2  0
  8  7  1  0
  9  8  2  0
  9  4  1  0
 10 11  2  0
 10  2  1  0
 12 13  1  0
 14 13  1  6
 14 15  1  0
 14 16  1  0
 15 10  1  0
 16 18  1  0
 17 16  2  0
 18 19  1  0
 19 26  1  0
 19 20  1  1
 20 21  1  0
 21 25  1  0
 22 21  2  0
 22 23  1  0
 23 24  1  0
 25 24  2  0
 26 27  2  0
 26 28  1  0
M  END
$$$$
