FSH.pdb
     RDKit          3D

 28 29  0  0  1  0  0  0  0  0999 V2000
   34.6565  -22.6061    8.6531 N   0  0  0  0  0  0  0  0  0  0  0  0
   33.3223  -22.2281    9.0785 C   0  0  1  0  0  0  0  0  0  0  0  0
   32.3268  -22.8298    8.1125 C   0  0  0  0  0  0  0  0  0  0  0  0
   32.1019  -21.9703    6.9339 C   0  0  0  0  0  0  0  0  0  0  0  0
   31.2247  -20.8816    6.9986 C   0  0  0  0  0  0  0  0  0  0  0  0
   31.0183  -20.0826    5.8939 C   0  0  0  0  0  0  0  0  0  0  0  0
   31.6560  -20.3176    4.6989 C   0  0  0  0  0  0  0  0  0  0  0  0
   32.5200  -21.3794    4.6132 C   0  0  0  0  0  0  0  0  0  0  0  0
   32.7218  -22.1726    5.7180 C   0  0  0  0  0  0  0  0  0  0  0  0
   33.0817  -22.7691   10.4527 C   0  0  0  0  0  0  0  0  0  0  0  0
   33.5488  -23.8740   10.8253 O   0  0  0  0  0  0  0  0  0  0  0  0
   31.1574  -20.5242   13.2430 O   0  0  0  0  0  0  0  0  0  0  0  0
   32.1485  -21.4300   13.6881 C   0  0  0  0  0  0  0  0  0  0  0  0
   32.0654  -22.6080   12.7060 C   0  0  2  0  0  0  0  0  0  0  0  0
   32.3081  -22.0429   11.3932 N   0  0  0  0  0  0  0  0  0  0  0  0
   30.6950  -23.1515   12.8323 C   0  0  0  0  0  0  0  0  0  0  0  0
   29.8335  -22.8479   11.9792 O   0  0  0  0  0  0  0  0  0  0  0  0
   30.2839  -24.0258   13.8982 N   0  0  0  0  0  0  0  0  0  0  0  0
   28.9361  -24.4811   14.0116 C   0  0  1  0  0  0  0  0  0  0  0  0
   27.9398  -23.3731   14.0039 C   0  0  0  0  0  0  0  0  0  0  0  0
   26.5541  -23.7826   14.2996 C   0  0  0  0  0  0  0  0  0  0  0  0
   26.0134  -24.9875   14.6255 C   0  0  0  0  0  0  0  0  0  0  0  0
   24.6727  -24.8437   14.8423 N   0  0  0  0  0  0  0  0  0  0  0  0
   24.4168  -23.5530   14.6460 C   0  0  0  0  0  0  0  0  0  0  0  0
   25.5121  -22.8746   14.3188 N   0  0  0  0  0  0  0  0  0  0  0  0
   28.5502  -25.5139   13.0141 C   0  0  0  0  0  0  0  0  0  0  0  0
   28.6146  -26.7385   13.1610 O   0  0  0  0  0  0  0  0  0  0  0  0
   28.0688  -25.0350   11.7948 O   0  0  0  0  0  0  0  0  0  0  0  0
  2  1  1  6
  2  3  1  0
  3  4  1  0
  4  5  2  0
  5  6  1  0
  7  6  2  0
  8  7  1  0
  9  8  2  0
  9  4  1  0
 10 11  2  0
 10  2  1  0
 12 13  1  0
 14 13  1  1
 14 15  1  0
 14 16  1  0
 15 10  1  0
 16 18  1  0
 17 16  2  0
 18 19  1  0
 19 26  1  0
 19 20  1  6
 20 21  1  0
 21 25  1  0
 22 21  2  0
 22 23  1  0
 23 24  1  0
 25 24  2  0
 26 27  2  0
 26 28  1  0
M  END
$$$$
