FSH.pdb
     RDKit          3D

 28 29  0  0  1  0  0  0  0  0999 V2000
   31.6126   -7.7380  -18.7567 N   0  0  0  0  0  0  0  0  0  0  0  0
   30.3837   -8.4993  -18.8754 C   0  0  1  0  0  0  0  0  0  0  0  0
   30.3961   -9.5888  -17.8271 C   0  0  0  0  0  0  0  0  0  0  0  0
   31.3009  -10.6986  -18.1848 C   0  0  0  0  0  0  0  0  0  0  0  0
   30.8718  -11.7283  -19.0303 C   0  0  0  0  0  0  0  0  0  0  0  0
   31.7216  -12.7627  -19.3604 C   0  0  0  0  0  0  0  0  0  0  0  0
   33.0082  -12.8263  -18.8803 C   0  0  0  0  0  0  0  0  0  0  0  0
   33.4496  -11.8276  -18.0501 C   0  0  0  0  0  0  0  0  0  0  0  0
   32.5977  -10.7987  -17.7244 C   0  0  0  0  0  0  0  0  0  0  0  0
   29.2236   -7.5845  -18.6383 C   0  0  0  0  0  0  0  0  0  0  0  0
   29.2325   -6.7189  -17.7282 O   0  0  0  0  0  0  0  0  0  0  0  0
   26.4010   -7.5781  -21.3266 O   0  0  0  0  0  0  0  0  0  0  0  0
   26.4696   -6.3488  -20.6301 C   0  0  0  0  0  0  0  0  0  0  0  0
   26.9770   -6.7250  -19.2301 C   0  0  2  0  0  0  0  0  0  0  0  0
   28.0595   -7.6651  -19.4439 N   0  0  0  0  0  0  0  0  0  0  0  0
   25.8304   -7.3472  -18.5317 C   0  0  0  0  0  0  0  0  0  0  0  0
   25.7780   -8.5915  -18.4266 O   0  0  0  0  0  0  0  0  0  0  0  0
   24.7498   -6.5934  -17.9542 N   0  0  0  0  0  0  0  0  0  0  0  0
   23.7004   -7.2313  -17.2271 C   0  0  1  0  0  0  0  0  0  0  0  0
   24.1896   -8.0208  -16.0620 C   0  0  0  0  0  0  0  0  0  0  0  0
   23.1352   -8.7009  -15.2866 C   0  0  0  0  0  0  0  0  0  0  0  0
   21.7945   -8.8172  -15.4849 C   0  0  0  0  0  0  0  0  0  0  0  0
   21.2509   -9.5860  -14.4957 N   0  0  0  0  0  0  0  0  0  0  0  0
   22.2687   -9.9271  -13.7100 C   0  0  0  0  0  0  0  0  0  0  0  0
   23.4197   -9.4213  -14.1419 N   0  0  0  0  0  0  0  0  0  0  0  0
   22.6086   -6.3189  -16.7960 C   0  0  0  0  0  0  0  0  0  0  0  0
   22.6149   -5.0852  -16.8549 O   0  0  0  0  0  0  0  0  0  0  0  0
   21.4693   -6.9339  -16.2749 O   0  0  0  0  0  0  0  0  0  0  0  0
  2  1  1  1
  2  3  1  0
  3  4  1  0
  4  5  2  0
  5  6  1  0
  7  6  2  0
  8  7  1  0
  9  8  2  0
  9  4  1  0
 10 11  2  0
 10  2  1  0
 12 13  1  0
 14 13  1  6
 14 15  1  0
 14 16  1  0
 15 10  1  0
 16 18  1  0
 17 16  2  0
 18 19  1  0
 19 26  1  0
 19 20  1  1
 20 21  1  0
 21 25  1  0
 22 21  2  0
 22 23  1  0
 23 24  1  0
 25 24  2  0
 26 27  2  0
 26 28  1  0
M  END
$$$$
