SND.pdb
     RDKit          3D

 23 22  0  0  1  0  0  0  0  0999 V2000
    9.2973  -17.0041   15.1882 O   0  0  0  0  0  0  0  0  0  0  0  0
    7.9835  -16.6098   15.3486 C   0  0  0  0  0  0  0  0  0  0  0  0
    7.8824  -15.0952   15.5844 C   0  0  2  0  0  0  0  0  0  0  0  0
    8.4709  -14.4562   14.4517 N   0  0  0  0  0  0  0  0  0  0  0  0
    8.5437  -14.8157   16.8578 C   0  0  0  0  0  0  0  0  0  0  0  0
    9.6558  -14.1925   16.8228 O   0  0  0  0  0  0  0  0  0  0  0  0
    8.2792  -13.3230   22.2497 N   0  0  0  0  0  0  0  0  0  0  0  0
    8.3606  -14.6685   21.8399 C   0  0  0  0  0  0  0  0  0  0  0  0
    8.9019  -15.5146   22.5808 O   0  0  0  0  0  0  0  0  0  0  0  0
    7.8103  -15.0876   20.5389 C   0  0  0  0  0  0  0  0  0  0  0  0
    8.7248  -14.7611   19.3683 C   0  0  2  0  0  0  0  0  0  0  0  0
    8.0661  -15.1720   18.1421 N   0  0  0  0  0  0  0  0  0  0  0  0
   10.0359  -15.4093   19.5490 C   0  0  0  0  0  0  0  0  0  0  0  0
   10.1966  -16.5908   19.1821 O   0  0  0  0  0  0  0  0  0  0  0  0
   11.0996  -14.7027   20.1300 N   0  0  0  0  0  0  0  0  0  0  0  0
   12.4433  -15.1940   20.2748 C   0  0  1  0  0  0  0  0  0  0  0  0
   13.4867  -14.1275   20.0345 C   0  0  0  0  0  0  0  0  0  0  0  0
   14.3305  -14.5504   18.9007 C   0  0  0  0  0  0  0  0  0  0  0  0
   13.8181  -15.0639   17.8529 O   0  0  0  0  0  0  0  0  0  0  0  0
   12.5897  -15.7466   21.6424 C   0  0  0  0  0  0  0  0  0  0  0  0
   11.5406  -15.6867   22.5346 O   0  0  0  0  0  0  0  0  0  0  0  0
   15.7183  -14.4304   18.8745 O   0  0  0  0  0  0  0  0  0  0  0  0
   13.6594  -16.2810   22.0290 O   0  0  0  0  0  0  0  0  0  0  0  0
  2  3  1  0
  2  1  1  0
  3  4  1  6
  3  5  1  0
  5  6  2  0
  7  8  1  0
  8  9  2  0
  8 10  1  0
 11 10  1  1
 11 13  1  0
 12  5  1  0
 12 11  1  0
 13 14  2  0
 15 16  1  0
 15 13  1  0
 16 20  1  0
 17 18  1  0
 16 17  1  1
 18 19  2  0
 20 21  1  0
 22 18  1  0
 23 20  2  0
M  END
$$$$
