SND.pdb
     RDKit          3D

 23 22  0  0  1  0  0  0  0  0999 V2000
    9.6930  -14.6784   15.6336 O   0  0  0  0  0  0  0  0  0  0  0  0
    9.7544  -14.4466   16.9936 C   0  0  0  0  0  0  0  0  0  0  0  0
    8.3487  -14.3650   17.6078 C   0  0  2  0  0  0  0  0  0  0  0  0
    7.8832  -13.0304   17.4089 N   0  0  0  0  0  0  0  0  0  0  0  0
    8.4696  -14.7696   19.0073 C   0  0  0  0  0  0  0  0  0  0  0  0
    8.3791  -13.8598   19.8963 O   0  0  0  0  0  0  0  0  0  0  0  0
    6.9009  -18.8004   19.2117 N   0  0  0  0  0  0  0  0  0  0  0  0
    6.9242  -18.0101   20.3778 C   0  0  0  0  0  0  0  0  0  0  0  0
    5.8720  -17.4862   20.7975 O   0  0  0  0  0  0  0  0  0  0  0  0
    8.1850  -17.7955   21.1096 C   0  0  0  0  0  0  0  0  0  0  0  0
    8.7762  -16.4113   20.8913 C   0  0  2  0  0  0  0  0  0  0  0  0
    8.6794  -16.0876   19.4798 N   0  0  0  0  0  0  0  0  0  0  0  0
   10.1633  -16.3650   21.3869 C   0  0  0  0  0  0  0  0  0  0  0  0
   10.3946  -16.5722   22.5952 O   0  0  0  0  0  0  0  0  0  0  0  0
   11.2199  -16.0898   20.5059 N   0  0  0  0  0  0  0  0  0  0  0  0
   12.5901  -15.8828   20.8900 C   0  0  1  0  0  0  0  0  0  0  0  0
   13.1045  -14.5131   20.5118 C   0  0  0  0  0  0  0  0  0  0  0  0
   13.4579  -14.5290   19.0795 C   0  0  0  0  0  0  0  0  0  0  0  0
   12.8240  -13.8143   18.2360 O   0  0  0  0  0  0  0  0  0  0  0  0
   12.6945  -16.0758   22.3559 C   0  0  0  0  0  0  0  0  0  0  0  0
   13.9204  -16.0067   22.9827 O   0  0  0  0  0  0  0  0  0  0  0  0
   14.4830  -15.3018   18.5380 O   0  0  0  0  0  0  0  0  0  0  0  0
   11.6839  -16.3051   23.0667 O   0  0  0  0  0  0  0  0  0  0  0  0
  2  3  1  0
  2  1  1  0
  3  4  1  1
  3  5  1  0
  5  6  2  0
  7  8  1  0
  8  9  2  0
  8 10  1  0
 11 10  1  6
 11 13  1  0
 12  5  1  0
 12 11  1  0
 13 14  2  0
 15 16  1  0
 15 13  1  0
 16 20  1  0
 17 18  1  0
 16 17  1  1
 18 19  2  0
 20 21  1  0
 22 18  1  0
 23 20  2  0
M  END
$$$$
