SND.pdb
     RDKit          3D

 23 22  0  0  1  0  0  0  0  0999 V2000
   10.0816  -19.3371   18.3821 O   0  0  0  0  0  0  0  0  0  0  0  0
    8.7958  -18.8592   18.2225 C   0  0  0  0  0  0  0  0  0  0  0  0
    8.7998  -17.3805   17.8063 C   0  0  2  0  0  0  0  0  0  0  0  0
    9.5426  -17.2910   16.5907 N   0  0  0  0  0  0  0  0  0  0  0  0
    9.3605  -16.6234   18.9240 C   0  0  0  0  0  0  0  0  0  0  0  0
   10.6186  -16.4152   18.9259 O   0  0  0  0  0  0  0  0  0  0  0  0
    8.1565  -13.2185   19.7907 N   0  0  0  0  0  0  0  0  0  0  0  0
    7.6589  -13.4970   21.0790 C   0  0  0  0  0  0  0  0  0  0  0  0
    6.7385  -12.8021   21.5560 O   0  0  0  0  0  0  0  0  0  0  0  0
    8.2179  -14.6061   21.8720 C   0  0  0  0  0  0  0  0  0  0  0  0
    9.2759  -15.4032   21.1246 C   0  0  2  0  0  0  0  0  0  0  0  0
    8.6365  -16.0911   20.0181 N   0  0  0  0  0  0  0  0  0  0  0  0
    9.9615  -16.3287   22.0439 C   0  0  0  0  0  0  0  0  0  0  0  0
    9.5285  -17.4898   22.1878 O   0  0  0  0  0  0  0  0  0  0  0  0
   11.0959  -15.9083   22.7543 N   0  0  0  0  0  0  0  0  0  0  0  0
   11.8490  -16.7186   23.6729 C   0  0  1  0  0  0  0  0  0  0  0  0
   13.2442  -16.1901   23.9131 C   0  0  0  0  0  0  0  0  0  0  0  0
   13.9868  -16.2437   22.6395 C   0  0  0  0  0  0  0  0  0  0  0  0
   14.2960  -15.1789   22.0112 O   0  0  0  0  0  0  0  0  0  0  0  0
   11.1043  -16.7818   24.9530 C   0  0  0  0  0  0  0  0  0  0  0  0
   11.5549  -17.5792   25.9832 O   0  0  0  0  0  0  0  0  0  0  0  0
   14.4029  -17.4248   22.0288 O   0  0  0  0  0  0  0  0  0  0  0  0
   10.0525  -16.1200   25.1398 O   0  0  0  0  0  0  0  0  0  0  0  0
  2  3  1  0
  2  1  1  0
  3  4  1  6
  3  5  1  0
  5  6  2  0
  7  8  1  0
  8  9  2  0
  8 10  1  0
 11 10  1  1
 11 13  1  0
 12  5  1  0
 12 11  1  0
 13 14  2  0
 15 16  1  0
 15 13  1  0
 16 20  1  0
 17 18  1  0
 16 17  1  1
 18 19  2  0
 20 21  1  0
 22 18  1  0
 23 20  2  0
M  END
$$$$
