SND.pdb
     RDKit          3D

 23 22  0  0  1  0  0  0  0  0999 V2000
   12.0364  -20.1321   14.6298 O   0  0  0  0  0  0  0  0  0  0  0  0
   10.7051  -20.4959   14.5806 C   0  0  0  0  0  0  0  0  0  0  0  0
    9.7930  -19.3216   14.9663 C   0  0  2  0  0  0  0  0  0  0  0  0
    9.9915  -18.3003   13.9890 N   0  0  0  0  0  0  0  0  0  0  0  0
   10.1441  -18.9386   16.3327 C   0  0  0  0  0  0  0  0  0  0  0  0
   11.0670  -18.0720   16.4858 O   0  0  0  0  0  0  0  0  0  0  0  0
    6.5368  -18.7486   18.6364 N   0  0  0  0  0  0  0  0  0  0  0  0
    7.6083  -18.2562   19.4072 C   0  0  0  0  0  0  0  0  0  0  0  0
    7.6069  -17.0686   19.7908 O   0  0  0  0  0  0  0  0  0  0  0  0
    8.7358  -19.1345   19.7661 C   0  0  0  0  0  0  0  0  0  0  0  0
    9.9332  -18.9806   18.8412 C   0  0  2  0  0  0  0  0  0  0  0  0
    9.5536  -19.4400   17.5178 N   0  0  0  0  0  0  0  0  0  0  0  0
   11.0927  -19.7123   19.3814 C   0  0  0  0  0  0  0  0  0  0  0  0
   11.2101  -20.9343   19.1589 O   0  0  0  0  0  0  0  0  0  0  0  0
   12.0610  -19.0400   20.1420 N   0  0  0  0  0  0  0  0  0  0  0  0
   13.2208  -19.6479   20.7362 C   0  0  1  0  0  0  0  0  0  0  0  0
   14.3278  -18.6562   21.0092 C   0  0  0  0  0  0  0  0  0  0  0  0
   14.9567  -18.2967   19.7240 C   0  0  0  0  0  0  0  0  0  0  0  0
   14.2742  -18.2389   18.6493 O   0  0  0  0  0  0  0  0  0  0  0  0
   12.8049  -20.3027   21.9993 C   0  0  0  0  0  0  0  0  0  0  0  0
   13.1194  -21.6238   22.2363 O   0  0  0  0  0  0  0  0  0  0  0  0
   16.3094  -17.9982   19.5745 O   0  0  0  0  0  0  0  0  0  0  0  0
   12.1613  -19.6847   22.8842 O   0  0  0  0  0  0  0  0  0  0  0  0
  2  3  1  0
  2  1  1  0
  3  4  1  6
  3  5  1  0
  5  6  2  0
  7  8  1  0
  8  9  2  0
  8 10  1  0
 11 10  1  1
 11 13  1  0
 12  5  1  0
 12 11  1  0
 13 14  2  0
 15 16  1  0
 15 13  1  0
 16 20  1  0
 17 18  1  0
 16 17  1  1
 18 19  2  0
 20 21  1  0
 22 18  1  0
 23 20  2  0
M  END
$$$$
