SND.pdb
     RDKit          3D

 23 22  0  0  1  0  0  0  0  0999 V2000
    7.3753  -18.7029   15.8725 O   0  0  0  0  0  0  0  0  0  0  0  0
    8.5495  -19.3456   16.2121 C   0  0  0  0  0  0  0  0  0  0  0  0
    8.8844  -19.1437   17.6977 C   0  0  2  0  0  0  0  0  0  0  0  0
    7.7685  -19.6254   18.4462 N   0  0  0  0  0  0  0  0  0  0  0  0
    9.1776  -17.7233   17.8806 C   0  0  0  0  0  0  0  0  0  0  0  0
   10.2529  -17.2701   17.3662 O   0  0  0  0  0  0  0  0  0  0  0  0
    7.4244  -12.4816   20.2316 N   0  0  0  0  0  0  0  0  0  0  0  0
    7.6807  -13.1357   19.0103 C   0  0  0  0  0  0  0  0  0  0  0  0
    8.1103  -12.4878   18.0338 O   0  0  0  0  0  0  0  0  0  0  0  0
    7.4450  -14.5839   18.8748 C   0  0  0  0  0  0  0  0  0  0  0  0
    8.7254  -15.3852   18.6976 C   0  0  2  0  0  0  0  0  0  0  0  0
    8.3764  -16.7891   18.5804 N   0  0  0  0  0  0  0  0  0  0  0  0
    9.6492  -15.1250   19.8159 C   0  0  0  0  0  0  0  0  0  0  0  0
   10.0714  -13.9675   20.0116 O   0  0  0  0  0  0  0  0  0  0  0  0
   10.0526  -16.1722   20.6578 N   0  0  0  0  0  0  0  0  0  0  0  0
   10.9857  -16.0521   21.7454 C   0  0  1  0  0  0  0  0  0  0  0  0
   10.3816  -16.4230   23.0800 C   0  0  0  0  0  0  0  0  0  0  0  0
   11.4286  -16.3050   24.1126 C   0  0  0  0  0  0  0  0  0  0  0  0
   12.5836  -15.8460   23.8310 O   0  0  0  0  0  0  0  0  0  0  0  0
   12.1489  -16.9242   21.4563 C   0  0  0  0  0  0  0  0  0  0  0  0
   11.9899  -18.2903   21.3623 O   0  0  0  0  0  0  0  0  0  0  0  0
   11.2544  -16.6732   25.4450 O   0  0  0  0  0  0  0  0  0  0  0  0
   13.3024  -16.4545   21.2889 O   0  0  0  0  0  0  0  0  0  0  0  0
  2  3  1  0
  2  1  1  0
  3  4  1  1
  3  5  1  0
  5  6  2  0
  7  8  1  0
  8  9  2  0
  8 10  1  0
 11 10  1  1
 11 13  1  0
 12  5  1  0
 12 11  1  0
 13 14  2  0
 15 16  1  0
 15 13  1  0
 16 20  1  0
 17 18  1  0
 16 17  1  1
 18 19  2  0
 20 21  1  0
 22 18  1  0
 23 20  2  0
M  END
$$$$
