SND.pdb
     RDKit          3D

 23 22  0  0  1  0  0  0  0  0999 V2000
   11.0154  -11.8870   18.8440 O   0  0  0  0  0  0  0  0  0  0  0  0
   10.0970  -12.5397   19.6426 C   0  0  0  0  0  0  0  0  0  0  0  0
    9.3239  -13.6022   18.8469 C   0  0  2  0  0  0  0  0  0  0  0  0
    8.1965  -12.9488   18.2641 N   0  0  0  0  0  0  0  0  0  0  0  0
    8.9938  -14.6785   19.7794 C   0  0  0  0  0  0  0  0  0  0  0  0
    7.8436  -14.6529   20.3295 O   0  0  0  0  0  0  0  0  0  0  0  0
    7.3643  -19.4474   21.4090 N   0  0  0  0  0  0  0  0  0  0  0  0
    8.7246  -19.1897   21.1477 C   0  0  0  0  0  0  0  0  0  0  0  0
    9.6048  -19.9221   21.6443 O   0  0  0  0  0  0  0  0  0  0  0  0
    9.1192  -18.0584   20.2899 C   0  0  0  0  0  0  0  0  0  0  0  0
    9.4322  -16.7931   21.0735 C   0  0  2  0  0  0  0  0  0  0  0  0
    9.8344  -15.7602   20.1367 N   0  0  0  0  0  0  0  0  0  0  0  0
   10.4632  -17.0648   22.0907 C   0  0  0  0  0  0  0  0  0  0  0  0
   11.6698  -16.9755   21.7863 O   0  0  0  0  0  0  0  0  0  0  0  0
   10.0920  -17.4218   23.3957 N   0  0  0  0  0  0  0  0  0  0  0  0
   11.0032  -17.7413   24.4613 C   0  0  1  0  0  0  0  0  0  0  0  0
   10.3007  -18.0191   25.7701 C   0  0  0  0  0  0  0  0  0  0  0  0
   11.3085  -18.4573   26.7543 C   0  0  0  0  0  0  0  0  0  0  0  0
   11.6089  -19.6887   26.8866 O   0  0  0  0  0  0  0  0  0  0  0  0
   11.7979  -18.9238   24.0523 C   0  0  0  0  0  0  0  0  0  0  0  0
   13.1160  -19.0452   24.4372 O   0  0  0  0  0  0  0  0  0  0  0  0
   11.9996  -17.5925   27.6002 O   0  0  0  0  0  0  0  0  0  0  0  0
   11.3040  -19.8427   23.3515 O   0  0  0  0  0  0  0  0  0  0  0  0
  2  3  1  0
  2  1  1  0
  3  4  1  1
  3  5  1  0
  5  6  2  0
  7  8  1  0
  8  9  2  0
  8 10  1  0
 11 10  1  6
 11 13  1  0
 12  5  1  0
 12 11  1  0
 13 14  2  0
 15 16  1  0
 15 13  1  0
 16 20  1  0
 17 18  1  0
 16 17  1  1
 18 19  2  0
 20 21  1  0
 22 18  1  0
 23 20  2  0
M  END
$$$$
