SND.pdb
     RDKit          3D

 23 22  0  0  1  0  0  0  0  0999 V2000
    8.9974  -18.9810   14.8530 O   0  0  0  0  0  0  0  0  0  0  0  0
    9.6700  -18.1135   15.6909 C   0  0  0  0  0  0  0  0  0  0  0  0
    9.4769  -16.6542   15.2516 C   0  0  2  0  0  0  0  0  0  0  0  0
   10.3812  -16.4201   14.1723 N   0  0  0  0  0  0  0  0  0  0  0  0
    9.7009  -15.8196   16.4306 C   0  0  0  0  0  0  0  0  0  0  0  0
   10.9014  -15.4815   16.6969 O   0  0  0  0  0  0  0  0  0  0  0  0
    8.3806  -11.7769   20.0761 N   0  0  0  0  0  0  0  0  0  0  0  0
    7.9142  -13.0997   20.2083 C   0  0  0  0  0  0  0  0  0  0  0  0
    7.6636  -13.5627   21.3399 O   0  0  0  0  0  0  0  0  0  0  0  0
    7.7189  -13.9454   19.0174 C   0  0  0  0  0  0  0  0  0  0  0  0
    9.0128  -14.5468   18.4910 C   0  0  2  0  0  0  0  0  0  0  0  0
    8.7053  -15.3429   17.3171 N   0  0  0  0  0  0  0  0  0  0  0  0
    9.6773  -15.3314   19.5466 C   0  0  0  0  0  0  0  0  0  0  0  0
    9.3123  -16.5039   19.7671 O   0  0  0  0  0  0  0  0  0  0  0  0
   10.7158  -14.7649   20.3009 N   0  0  0  0  0  0  0  0  0  0  0  0
   11.4517  -15.4360   21.3381 C   0  0  1  0  0  0  0  0  0  0  0  0
   12.7736  -14.7704   21.6437 C   0  0  0  0  0  0  0  0  0  0  0  0
   13.7343  -15.1385   20.5864 C   0  0  0  0  0  0  0  0  0  0  0  0
   14.6466  -14.3304   20.2140 O   0  0  0  0  0  0  0  0  0  0  0  0
   10.6084  -15.4702   22.5566 C   0  0  0  0  0  0  0  0  0  0  0  0
   11.0327  -16.1482   23.6794 O   0  0  0  0  0  0  0  0  0  0  0  0
   13.7305  -16.3628   19.9214 O   0  0  0  0  0  0  0  0  0  0  0  0
    9.4946  -14.8904   22.6068 O   0  0  0  0  0  0  0  0  0  0  0  0
  2  3  1  0
  2  1  1  0
  3  4  1  6
  3  5  1  0
  5  6  2  0
  7  8  1  0
  8  9  2  0
  8 10  1  0
 11 10  1  1
 11 13  1  0
 12  5  1  0
 12 11  1  0
 13 14  2  0
 15 16  1  0
 15 13  1  0
 16 20  1  0
 17 18  1  0
 16 17  1  1
 18 19  2  0
 20 21  1  0
 22 18  1  0
 23 20  2  0
M  END
$$$$
