SND.pdb
     RDKit          3D

 23 22  0  0  1  0  0  0  0  0999 V2000
    7.0862  -12.2176   20.4418 O   0  0  0  0  0  0  0  0  0  0  0  0
    8.0908  -13.1558   20.3092 C   0  0  0  0  0  0  0  0  0  0  0  0
    8.6168  -13.2073   18.8668 C   0  0  2  0  0  0  0  0  0  0  0  0
    7.5337  -13.6379   18.0427 N   0  0  0  0  0  0  0  0  0  0  0  0
    9.7776  -14.0958   18.8665 C   0  0  0  0  0  0  0  0  0  0  0  0
    9.6155  -15.2812   18.4251 O   0  0  0  0  0  0  0  0  0  0  0  0
   14.7788  -15.6313   17.7192 N   0  0  0  0  0  0  0  0  0  0  0  0
   14.6352  -14.8505   18.8831 C   0  0  0  0  0  0  0  0  0  0  0  0
   15.4986  -14.9068   19.7826 O   0  0  0  0  0  0  0  0  0  0  0  0
   13.4696  -13.9643   19.0489 C   0  0  0  0  0  0  0  0  0  0  0  0
   12.1758  -14.7190   19.3125 C   0  0  2  0  0  0  0  0  0  0  0  0
   11.0804  -13.7670   19.3128 N   0  0  0  0  0  0  0  0  0  0  0  0
   12.2715  -15.4695   20.5772 C   0  0  0  0  0  0  0  0  0  0  0  0
   11.5732  -16.4897   20.7442 O   0  0  0  0  0  0  0  0  0  0  0  0
   13.1431  -15.0407   21.5893 N   0  0  0  0  0  0  0  0  0  0  0  0
   13.2724  -15.6466   22.8871 C   0  0  1  0  0  0  0  0  0  0  0  0
   12.1473  -16.6054   23.2012 C   0  0  0  0  0  0  0  0  0  0  0  0
   12.3633  -17.1469   24.5563 C   0  0  0  0  0  0  0  0  0  0  0  0
   13.3581  -16.7788   25.2627 O   0  0  0  0  0  0  0  0  0  0  0  0
   14.5723  -16.3570   22.9393 C   0  0  0  0  0  0  0  0  0  0  0  0
   14.7009  -17.6168   22.3947 O   0  0  0  0  0  0  0  0  0  0  0  0
   11.5266  -18.0795   25.1657 O   0  0  0  0  0  0  0  0  0  0  0  0
   15.5865  -15.8421   23.4737 O   0  0  0  0  0  0  0  0  0  0  0  0
  2  3  1  0
  2  1  1  0
  3  4  1  6
  3  5  1  0
  5  6  2  0
  7  8  1  0
  8  9  2  0
  8 10  1  0
 11 10  1  1
 11 13  1  0
 12  5  1  0
 12 11  1  0
 13 14  2  0
 15 16  1  0
 15 13  1  0
 16 20  1  0
 17 18  1  0
 16 17  1  6
 18 19  2  0
 20 21  1  0
 22 18  1  0
 23 20  2  0
M  END
$$$$
