SND.pdb
     RDKit          3D

 23 22  0  0  1  0  0  0  0  0999 V2000
    8.1150  -15.3669   17.8711 O   0  0  0  0  0  0  0  0  0  0  0  0
    7.0364  -14.7160   18.4371 C   0  0  0  0  0  0  0  0  0  0  0  0
    7.4758  -13.4288   19.1511 C   0  0  2  0  0  0  0  0  0  0  0  0
    8.0312  -12.5686   18.1565 N   0  0  0  0  0  0  0  0  0  0  0  0
    8.4051  -13.8226   20.2087 C   0  0  0  0  0  0  0  0  0  0  0  0
    9.6391  -13.5453   20.0457 O   0  0  0  0  0  0  0  0  0  0  0  0
    9.3431  -14.5592   25.8569 N   0  0  0  0  0  0  0  0  0  0  0  0
    9.1420  -15.5196   24.8458 C   0  0  0  0  0  0  0  0  0  0  0  0
    9.7093  -16.6290   24.9175 O   0  0  0  0  0  0  0  0  0  0  0  0
    8.2642  -15.2249   23.6996 C   0  0  0  0  0  0  0  0  0  0  0  0
    9.0183  -14.7038   22.4859 C   0  0  2  0  0  0  0  0  0  0  0  0
    8.0669  -14.4890   21.4112 N   0  0  0  0  0  0  0  0  0  0  0  0
   10.0913  -15.6417   22.1106 C   0  0  0  0  0  0  0  0  0  0  0  0
    9.8019  -16.7218   21.5573 O   0  0  0  0  0  0  0  0  0  0  0  0
   11.4322  -15.3232   22.3728 N   0  0  0  0  0  0  0  0  0  0  0  0
   12.5680  -16.1009   21.9569 C   0  0  1  0  0  0  0  0  0  0  0  0
   13.5729  -15.2950   21.1667 C   0  0  0  0  0  0  0  0  0  0  0  0
   14.6313  -16.2074   20.6939 C   0  0  0  0  0  0  0  0  0  0  0  0
   14.3948  -17.4433   20.4919 O   0  0  0  0  0  0  0  0  0  0  0  0
   13.2111  -16.6656   23.1671 C   0  0  0  0  0  0  0  0  0  0  0  0
   13.9812  -17.8056   23.0800 O   0  0  0  0  0  0  0  0  0  0  0  0
   15.9421  -15.8128   20.4345 O   0  0  0  0  0  0  0  0  0  0  0  0
   13.0785  -16.1317   24.2970 O   0  0  0  0  0  0  0  0  0  0  0  0
  2  3  1  0
  2  1  1  0
  3  4  1  6
  3  5  1  0
  5  6  2  0
  7  8  1  0
  8  9  2  0
  8 10  1  0
 11 10  1  1
 11 13  1  0
 12  5  1  0
 12 11  1  0
 13 14  2  0
 15 16  1  0
 15 13  1  0
 16 20  1  0
 17 18  1  0
 16 17  1  1
 18 19  2  0
 20 21  1  0
 22 18  1  0
 23 20  2  0
M  END
$$$$
