SND.pdb
     RDKit          3D

 23 22  0  0  1  0  0  0  0  0999 V2000
    9.1134  -19.8037   16.0013 O   0  0  0  0  0  0  0  0  0  0  0  0
    9.3966  -18.9710   17.0660 C   0  0  0  0  0  0  0  0  0  0  0  0
    9.4780  -17.5038   16.6182 C   0  0  2  0  0  0  0  0  0  0  0  0
   10.4494  -17.4393   15.5743 N   0  0  0  0  0  0  0  0  0  0  0  0
    9.7997  -16.7121   17.8042 C   0  0  0  0  0  0  0  0  0  0  0  0
   11.0274  -16.4442   18.0218 O   0  0  0  0  0  0  0  0  0  0  0  0
    7.3385  -12.5685   19.8231 N   0  0  0  0  0  0  0  0  0  0  0  0
    7.2606  -13.9667   19.6689 C   0  0  0  0  0  0  0  0  0  0  0  0
    6.5419  -14.4566   18.7738 O   0  0  0  0  0  0  0  0  0  0  0  0
    8.0232  -14.8600   20.5589 C   0  0  0  0  0  0  0  0  0  0  0  0
    9.2727  -15.4313   19.9067 C   0  0  2  0  0  0  0  0  0  0  0  0
    8.8723  -16.2064   18.7469 N   0  0  0  0  0  0  0  0  0  0  0  0
   10.0378  -16.2288   20.8815 C   0  0  0  0  0  0  0  0  0  0  0  0
    9.7167  -17.4150   21.0967 O   0  0  0  0  0  0  0  0  0  0  0  0
   11.1225  -15.6591   21.5649 N   0  0  0  0  0  0  0  0  0  0  0  0
   11.9968  -16.3587   22.4671 C   0  0  1  0  0  0  0  0  0  0  0  0
   13.3694  -15.7330   22.5568 C   0  0  0  0  0  0  0  0  0  0  0  0
   14.2109  -16.5812   23.4221 C   0  0  0  0  0  0  0  0  0  0  0  0
   14.3124  -17.8351   23.2183 O   0  0  0  0  0  0  0  0  0  0  0  0
   11.3611  -16.3788   23.8060 C   0  0  0  0  0  0  0  0  0  0  0  0
   11.7806  -17.2774   24.7636 O   0  0  0  0  0  0  0  0  0  0  0  0
   14.9461  -16.1033   24.5048 O   0  0  0  0  0  0  0  0  0  0  0  0
   10.4322  -15.5886   24.1093 O   0  0  0  0  0  0  0  0  0  0  0  0
  2  3  1  0
  2  1  1  0
  3  4  1  6
  3  5  1  0
  5  6  2  0
  7  8  1  0
  8  9  2  0
  8 10  1  0
 11 10  1  1
 11 13  1  0
 12  5  1  0
 12 11  1  0
 13 14  2  0
 15 16  1  0
 15 13  1  0
 16 20  1  0
 17 18  1  0
 16 17  1  1
 18 19  2  0
 20 21  1  0
 22 18  1  0
 23 20  2  0
M  END
$$$$
