SND.pdb
     RDKit          3D

 23 22  0  0  1  0  0  0  0  0999 V2000
   11.8159  -18.1236   16.5365 O   0  0  0  0  0  0  0  0  0  0  0  0
   12.3878  -17.4838   15.4545 C   0  0  0  0  0  0  0  0  0  0  0  0
   11.7331  -16.1163   15.2073 C   0  0  2  0  0  0  0  0  0  0  0  0
   12.4349  -15.5073   14.1237 N   0  0  0  0  0  0  0  0  0  0  0  0
   11.7940  -15.3790   16.4681 C   0  0  0  0  0  0  0  0  0  0  0  0
   12.8109  -14.6368   16.6712 O   0  0  0  0  0  0  0  0  0  0  0  0
    8.4203  -12.4466   18.8787 N   0  0  0  0  0  0  0  0  0  0  0  0
    8.6880  -13.8009   18.5972 C   0  0  0  0  0  0  0  0  0  0  0  0
    8.1152  -14.3646   17.6423 O   0  0  0  0  0  0  0  0  0  0  0  0
    9.6420  -14.5612   19.4237 C   0  0  0  0  0  0  0  0  0  0  0  0
   11.0042  -14.7261   18.7678 C   0  0  2  0  0  0  0  0  0  0  0  0
   10.8238  -15.4070   17.4989 N   0  0  0  0  0  0  0  0  0  0  0  0
   11.9208  -15.4464   19.6693 C   0  0  0  0  0  0  0  0  0  0  0  0
   11.8241  -16.6845   19.7879 O   0  0  0  0  0  0  0  0  0  0  0  0
   12.8983  -14.7452   20.3912 N   0  0  0  0  0  0  0  0  0  0  0  0
   13.7925  -15.3234   21.3576 C   0  0  1  0  0  0  0  0  0  0  0  0
   15.0411  -14.4986   21.5682 C   0  0  0  0  0  0  0  0  0  0  0  0
   15.9585  -14.7485   20.4403 C   0  0  0  0  0  0  0  0  0  0  0  0
   15.7640  -14.2119   19.3008 O   0  0  0  0  0  0  0  0  0  0  0  0
   13.0599  -15.4690   22.6379 C   0  0  0  0  0  0  0  0  0  0  0  0
   13.6434  -16.1174   23.7053 O   0  0  0  0  0  0  0  0  0  0  0  0
   17.0833  -15.5672   20.5169 O   0  0  0  0  0  0  0  0  0  0  0  0
   11.8992  -15.0124   22.7916 O   0  0  0  0  0  0  0  0  0  0  0  0
  2  3  1  0
  2  1  1  0
  3  4  1  6
  3  5  1  0
  5  6  2  0
  7  8  1  0
  8  9  2  0
  8 10  1  0
 11 10  1  1
 11 13  1  0
 12  5  1  0
 12 11  1  0
 13 14  2  0
 15 16  1  0
 15 13  1  0
 16 20  1  0
 17 18  1  0
 16 17  1  1
 18 19  2  0
 20 21  1  0
 22 18  1  0
 23 20  2  0
M  END
$$$$
