SND.pdb
     RDKit          3D

 23 22  0  0  1  0  0  0  0  0999 V2000
   17.9354  -12.3592   14.3530 O   0  0  0  0  0  0  0  0  0  0  0  0
   16.7276  -12.8632   14.7940 C   0  0  0  0  0  0  0  0  0  0  0  0
   16.3825  -12.3344   16.1944 C   0  0  2  0  0  0  0  0  0  0  0  0
   17.4084  -11.4102   16.5561 N   0  0  0  0  0  0  0  0  0  0  0  0
   16.2670  -13.4966   17.0737 C   0  0  0  0  0  0  0  0  0  0  0  0
   15.9532  -13.2880   18.2920 O   0  0  0  0  0  0  0  0  0  0  0  0
   17.7251  -18.7670   15.8587 N   0  0  0  0  0  0  0  0  0  0  0  0
   17.0469  -17.5323   15.8361 C   0  0  0  0  0  0  0  0  0  0  0  0
   17.2987  -16.6986   14.9421 O   0  0  0  0  0  0  0  0  0  0  0  0
   16.0388  -17.2149   16.8629 C   0  0  0  0  0  0  0  0  0  0  0  0
   16.3556  -15.9477   17.6419 C   0  0  2  0  0  0  0  0  0  0  0  0
   16.4711  -14.8475   16.7024 N   0  0  0  0  0  0  0  0  0  0  0  0
   17.5770  -16.1344   18.4450 C   0  0  0  0  0  0  0  0  0  0  0  0
   18.6523  -15.6328   18.0595 O   0  0  0  0  0  0  0  0  0  0  0  0
   17.5329  -16.8717   19.6378 N   0  0  0  0  0  0  0  0  0  0  0  0
   18.2698  -16.5633   20.8335 C   0  0  1  0  0  0  0  0  0  0  0  0
   18.3958  -15.0773   21.0777 C   0  0  0  0  0  0  0  0  0  0  0  0
   19.8237  -14.7568   21.2645 C   0  0  0  0  0  0  0  0  0  0  0  0
   20.7142  -15.6677   21.2275 O   0  0  0  0  0  0  0  0  0  0  0  0
   17.5851  -17.2083   21.9790 C   0  0  0  0  0  0  0  0  0  0  0  0
   16.3785  -17.8501   21.7986 O   0  0  0  0  0  0  0  0  0  0  0  0
   20.3109  -13.4713   21.4912 O   0  0  0  0  0  0  0  0  0  0  0  0
   18.0744  -17.1926   23.1364 O   0  0  0  0  0  0  0  0  0  0  0  0
  2  3  1  0
  2  1  1  0
  3  4  1  1
  3  5  1  0
  5  6  2  0
  7  8  1  0
  8  9  2  0
  8 10  1  0
 11 10  1  6
 11 13  1  0
 12  5  1  0
 12 11  1  0
 13 14  2  0
 15 16  1  0
 15 13  1  0
 16 20  1  0
 17 18  1  0
 16 17  1  1
 18 19  2  0
 20 21  1  0
 22 18  1  0
 23 20  2  0
M  END
$$$$
