SND.pdb
     RDKit          3D

 23 22  0  0  1  0  0  0  0  0999 V2000
   12.5180  -18.0487   16.5677 O   0  0  0  0  0  0  0  0  0  0  0  0
   11.3666  -17.7083   15.8853 C   0  0  0  0  0  0  0  0  0  0  0  0
   11.3471  -16.2117   15.5392 C   0  0  2  0  0  0  0  0  0  0  0  0
   12.4405  -15.9741   14.6528 N   0  0  0  0  0  0  0  0  0  0  0  0
   11.4126  -15.4799   16.8029 C   0  0  0  0  0  0  0  0  0  0  0  0
   12.5325  -14.9662   17.1320 O   0  0  0  0  0  0  0  0  0  0  0  0
    8.4229  -12.0010   18.9999 N   0  0  0  0  0  0  0  0  0  0  0  0
    8.3753  -13.3845   18.7379 C   0  0  0  0  0  0  0  0  0  0  0  0
    7.6812  -13.8174   17.7953 O   0  0  0  0  0  0  0  0  0  0  0  0
    9.1408  -14.3291   19.5703 C   0  0  0  0  0  0  0  0  0  0  0  0
   10.5155  -14.6490   19.0037 C   0  0  2  0  0  0  0  0  0  0  0  0
   10.3429  -15.2817   17.7090 N   0  0  0  0  0  0  0  0  0  0  0  0
   11.2727  -15.4910   19.9467 C   0  0  0  0  0  0  0  0  0  0  0  0
   10.9954  -16.7028   20.0525 O   0  0  0  0  0  0  0  0  0  0  0  0
   12.3011  -14.9348   20.7222 N   0  0  0  0  0  0  0  0  0  0  0  0
   13.1060  -15.6524   21.6735 C   0  0  1  0  0  0  0  0  0  0  0  0
   14.2785  -14.8435   22.1780 C   0  0  0  0  0  0  0  0  0  0  0  0
   15.3733  -14.9496   21.1949 C   0  0  0  0  0  0  0  0  0  0  0  0
   16.5884  -15.0391   21.5684 O   0  0  0  0  0  0  0  0  0  0  0  0
   12.2388  -16.0492   22.8083 C   0  0  0  0  0  0  0  0  0  0  0  0
   12.7297  -16.8569   23.8117 O   0  0  0  0  0  0  0  0  0  0  0  0
   15.1833  -14.9607   19.8147 O   0  0  0  0  0  0  0  0  0  0  0  0
   11.0445  -15.6678   22.8931 O   0  0  0  0  0  0  0  0  0  0  0  0
  2  3  1  0
  2  1  1  0
  3  4  1  6
  3  5  1  0
  5  6  2  0
  7  8  1  0
  8  9  2  0
  8 10  1  0
 11 10  1  1
 11 13  1  0
 12  5  1  0
 12 11  1  0
 13 14  2  0
 15 16  1  0
 15 13  1  0
 16 20  1  0
 17 18  1  0
 16 17  1  1
 18 19  2  0
 20 21  1  0
 22 18  1  0
 23 20  2  0
M  END
$$$$
