HNW.pdb
     RDKit          3D

 33 35  0  0  1  0  0  0  0  0999 V2000
    9.8415  -15.6129   18.5511 N   0  0  0  0  0  0  0  0  0  0  0  0
    8.7799  -15.1861   19.4400 C   0  0  1  0  0  0  0  0  0  0  0  0
    7.4852  -15.2030   18.6277 C   0  0  0  0  0  0  0  0  0  0  0  0
    7.7662  -14.5206   17.3414 C   0  0  0  0  0  0  0  0  0  0  0  0
    8.9924  -14.0350   16.9409 C   0  0  0  0  0  0  0  0  0  0  0  0
    8.8298  -13.4892   15.7210 N   0  0  0  0  0  0  0  0  0  0  0  0
    7.5540  -13.6143   15.3448 C   0  0  0  0  0  0  0  0  0  0  0  0
    6.9126  -14.2431   16.3359 N   0  0  0  0  0  0  0  0  0  0  0  0
    8.6867  -15.9704   20.6694 C   0  0  0  0  0  0  0  0  0  0  0  0
    7.7747  -15.7328   21.4943 O   0  0  0  0  0  0  0  0  0  0  0  0
   10.6749  -20.1878   19.8514 N   0  0  0  0  0  0  0  0  0  0  0  0
    9.8819  -19.9083   20.9954 C   0  0  0  0  0  0  0  0  0  0  0  0
    8.7359  -20.3920   21.0635 O   0  0  0  0  0  0  0  0  0  0  0  0
   10.4042  -19.0597   22.0870 C   0  0  0  0  0  0  0  0  0  0  0  0
    9.6850  -17.7531   22.1678 C   0  0  2  0  0  0  0  0  0  0  0  0
    9.6201  -17.0081   20.9499 N   0  0  0  0  0  0  0  0  0  0  0  0
   10.1914  -16.9369   23.3065 C   0  0  0  0  0  0  0  0  0  0  0  0
   11.0552  -16.0557   23.0324 O   0  0  0  0  0  0  0  0  0  0  0  0
    9.7079  -17.1654   24.6135 N   0  0  0  0  0  0  0  0  0  0  0  0
   10.1815  -16.3643   25.7255 C   0  0  1  0  0  0  0  0  0  0  0  0
    9.9320  -14.8931   25.4846 C   0  0  0  0  0  0  0  0  0  0  0  0
    8.4886  -14.6333   25.6708 C   0  0  0  0  0  0  0  0  0  0  0  0
    7.4760  -15.5601   25.5364 C   0  0  0  0  0  0  0  0  0  0  0  0
    6.2952  -14.9362   25.7883 N   0  0  0  0  0  0  0  0  0  0  0  0
    6.5044  -13.6432   26.0797 C   0  0  0  0  0  0  0  0  0  0  0  0
    5.7030  -12.5753   26.4031 C   0  0  0  0  0  0  0  0  0  0  0  0
    6.2263  -11.3425   26.6508 C   0  0  0  0  0  0  0  0  0  0  0  0
    7.5785  -11.1557   26.5781 C   0  0  0  0  0  0  0  0  0  0  0  0
    8.4151  -12.1929   26.2593 C   0  0  0  0  0  0  0  0  0  0  0  0
    7.8671  -13.4514   26.0076 C   0  0  0  0  0  0  0  0  0  0  0  0
    9.5718  -16.8372   27.0096 C   0  0  0  0  0  0  0  0  0  0  0  0
    8.6732  -17.7318   26.9896 O   0  0  0  0  0  0  0  0  0  0  0  0
    9.9284  -16.3548   28.2532 O   0  0  0  0  0  0  0  0  0  0  0  0
  2  1  1  6
  2  3  1  0
  3  4  1  0
  4  8  1  0
  5  4  2  0
  5  6  1  0
  6  7  1  0
  8  7  2  0
  9  2  1  0
  9 10  2  0
 11 12  1  0
 12 14  1  0
 13 12  2  0
 15 14  1  6
 15 16  1  0
 16  9  1  0
 17 15  1  0
 18 17  2  0
 19 17  1  0
 20 19  1  0
 20 31  1  0
 20 21  1  6
 22 21  1  0
 23 22  2  0
 24 25  1  0
 24 23  1  0
 25 30  2  0
 26 25  1  0
 26 27  2  0
 27 28  1  0
 28 29  2  0
 30 22  1  0
 30 29  1  0
 31 33  1  0
 32 31  2  0
M  END
$$$$
