HNW.pdb
     RDKit          3D

 33 35  0  0  1  0  0  0  0  0999 V2000
    9.6261  -15.9222   19.1585 N   0  0  0  0  0  0  0  0  0  0  0  0
    8.9955  -15.2660   20.2858 C   0  0  1  0  0  0  0  0  0  0  0  0
    7.5901  -14.8646   19.8384 C   0  0  0  0  0  0  0  0  0  0  0  0
    7.7133  -14.2767   18.4826 C   0  0  0  0  0  0  0  0  0  0  0  0
    8.2476  -13.0406   18.1885 C   0  0  0  0  0  0  0  0  0  0  0  0
    8.1764  -12.8790   16.8539 N   0  0  0  0  0  0  0  0  0  0  0  0
    7.6204  -13.9622   16.3042 C   0  0  0  0  0  0  0  0  0  0  0  0
    7.3412  -14.8088   17.3014 N   0  0  0  0  0  0  0  0  0  0  0  0
    8.9931  -16.0646   21.5095 C   0  0  0  0  0  0  0  0  0  0  0  0
    8.0958  -15.8922   22.3662 O   0  0  0  0  0  0  0  0  0  0  0  0
   11.3400  -20.1202   20.4832 N   0  0  0  0  0  0  0  0  0  0  0  0
   10.4399  -19.8894   21.5568 C   0  0  0  0  0  0  0  0  0  0  0  0
    9.2809  -20.3385   21.4748 O   0  0  0  0  0  0  0  0  0  0  0  0
   10.8680  -19.1306   22.7508 C   0  0  0  0  0  0  0  0  0  0  0  0
   10.0903  -17.8659   22.9138 C   0  0  2  0  0  0  0  0  0  0  0  0
    9.9993  -17.0430   21.7488 N   0  0  0  0  0  0  0  0  0  0  0  0
   10.5527  -17.1076   24.1098 C   0  0  0  0  0  0  0  0  0  0  0  0
   11.5672  -16.3695   23.9559 O   0  0  0  0  0  0  0  0  0  0  0  0
    9.8671  -17.2331   25.3380 N   0  0  0  0  0  0  0  0  0  0  0  0
   10.3410  -16.5416   26.5211 C   0  0  1  0  0  0  0  0  0  0  0  0
   10.1133  -15.0513   26.4113 C   0  0  0  0  0  0  0  0  0  0  0  0
    8.6561  -14.8036   26.4426 C   0  0  0  0  0  0  0  0  0  0  0  0
    7.6704  -15.7635   26.3471 C   0  0  0  0  0  0  0  0  0  0  0  0
    6.4647  -15.1403   26.4175 N   0  0  0  0  0  0  0  0  0  0  0  0
    6.6322  -13.8159   26.5544 C   0  0  0  0  0  0  0  0  0  0  0  0
    5.7929  -12.7344   26.6689 C   0  0  0  0  0  0  0  0  0  0  0  0
    6.2779  -11.4681   26.7963 C   0  0  0  0  0  0  0  0  0  0  0  0
    7.6289  -11.2606   26.8114 C   0  0  0  0  0  0  0  0  0  0  0  0
    8.5025  -12.3102   26.7003 C   0  0  0  0  0  0  0  0  0  0  0  0
    7.9936  -13.6031   26.5703 C   0  0  0  0  0  0  0  0  0  0  0  0
    9.7134  -17.1190   27.7528 C   0  0  0  0  0  0  0  0  0  0  0  0
    8.8102  -18.0027   27.6456 O   0  0  0  0  0  0  0  0  0  0  0  0
   10.0578  -16.7475   29.0372 O   0  0  0  0  0  0  0  0  0  0  0  0
  2  1  1  6
  2  3  1  0
  3  4  1  0
  4  8  1  0
  5  4  2  0
  5  6  1  0
  6  7  1  0
  8  7  2  0
  9  2  1  0
  9 10  2  0
 11 12  1  0
 12 14  1  0
 13 12  2  0
 15 14  1  6
 15 16  1  0
 16  9  1  0
 17 15  1  0
 18 17  2  0
 19 17  1  0
 20 19  1  0
 20 31  1  0
 20 21  1  6
 22 21  1  0
 23 22  2  0
 24 25  1  0
 24 23  1  0
 25 30  2  0
 26 25  1  0
 26 27  2  0
 27 28  1  0
 28 29  2  0
 30 22  1  0
 30 29  1  0
 31 33  1  0
 32 31  2  0
M  END
$$$$
