HNW.pdb
     RDKit          3D

 33 35  0  0  1  0  0  0  0  0999 V2000
    8.5969  -16.4744   19.6334 N   0  0  0  0  0  0  0  0  0  0  0  0
    8.9252  -15.5856   20.7294 C   0  0  1  0  0  0  0  0  0  0  0  0
    7.8584  -14.4911   20.7503 C   0  0  0  0  0  0  0  0  0  0  0  0
    7.9132  -13.8011   19.4388 C   0  0  0  0  0  0  0  0  0  0  0  0
    8.6941  -12.7054   19.1397 C   0  0  0  0  0  0  0  0  0  0  0  0
    8.4574  -12.3816   17.8546 N   0  0  0  0  0  0  0  0  0  0  0  0
    7.5620  -13.2295   17.3405 C   0  0  0  0  0  0  0  0  0  0  0  0
    7.2354  -14.0907   18.3104 N   0  0  0  0  0  0  0  0  0  0  0  0
    9.0673  -16.2617   22.0171 C   0  0  0  0  0  0  0  0  0  0  0  0
    8.0490  -16.5506   22.6866 O   0  0  0  0  0  0  0  0  0  0  0  0
    9.9887  -19.8282   22.5400 N   0  0  0  0  0  0  0  0  0  0  0  0
   11.3316  -19.4098   22.7333 C   0  0  0  0  0  0  0  0  0  0  0  0
   12.2320  -19.9583   22.0700 O   0  0  0  0  0  0  0  0  0  0  0  0
   11.6576  -18.3430   23.7029 C   0  0  0  0  0  0  0  0  0  0  0  0
   10.5943  -17.2953   23.7549 C   0  0  2  0  0  0  0  0  0  0  0  0
   10.3514  -16.6012   22.5294 N   0  0  0  0  0  0  0  0  0  0  0  0
   10.8177  -16.3671   24.8985 C   0  0  0  0  0  0  0  0  0  0  0  0
   11.8052  -15.5833   24.8079 O   0  0  0  0  0  0  0  0  0  0  0  0
    9.9492  -16.3911   26.0117 N   0  0  0  0  0  0  0  0  0  0  0  0
   10.4304  -16.0277   27.3304 C   0  0  1  0  0  0  0  0  0  0  0  0
    9.6128  -14.9010   27.9194 C   0  0  0  0  0  0  0  0  0  0  0  0
    8.3791  -14.7580   27.1173 C   0  0  0  0  0  0  0  0  0  0  0  0
    7.5563  -15.7867   26.7086 C   0  0  0  0  0  0  0  0  0  0  0  0
    6.5305  -15.2507   25.9964 N   0  0  0  0  0  0  0  0  0  0  0  0
    6.6578  -13.9166   25.9284 C   0  0  0  0  0  0  0  0  0  0  0  0
    5.9377  -12.8971   25.3544 C   0  0  0  0  0  0  0  0  0  0  0  0
    6.3350  -11.5987   25.4597 C   0  0  0  0  0  0  0  0  0  0  0  0
    7.4748  -11.2950   26.1506 C   0  0  0  0  0  0  0  0  0  0  0  0
    8.2235  -12.2801   26.7391 C   0  0  0  0  0  0  0  0  0  0  0  0
    7.8061  -13.6069   26.6242 C   0  0  0  0  0  0  0  0  0  0  0  0
   10.4641  -17.2283   28.2257 C   0  0  0  0  0  0  0  0  0  0  0  0
    9.9140  -18.3087   27.8533 O   0  0  0  0  0  0  0  0  0  0  0  0
   11.0697  -17.2452   29.4664 O   0  0  0  0  0  0  0  0  0  0  0  0
  2  1  1  6
  2  3  1  0
  3  4  1  0
  4  8  1  0
  5  4  2  0
  5  6  1  0
  6  7  1  0
  8  7  2  0
  9  2  1  0
  9 10  2  0
 11 12  1  0
 12 14  1  0
 13 12  2  0
 15 14  1  6
 15 16  1  0
 16  9  1  0
 17 15  1  0
 18 17  2  0
 19 17  1  0
 20 19  1  0
 20 31  1  0
 20 21  1  1
 22 21  1  0
 23 22  2  0
 24 25  1  0
 24 23  1  0
 25 30  2  0
 26 25  1  0
 26 27  2  0
 27 28  1  0
 28 29  2  0
 30 22  1  0
 30 29  1  0
 31 33  1  0
 32 31  2  0
M  END
$$$$
