HNW.pdb
     RDKit          3D

 33 35  0  0  1  0  0  0  0  0999 V2000
    7.9686  -17.0882   18.1924 N   0  0  0  0  0  0  0  0  0  0  0  0
    8.5319  -16.2747   19.2508 C   0  0  1  0  0  0  0  0  0  0  0  0
    7.6802  -15.0087   19.3409 C   0  0  0  0  0  0  0  0  0  0  0  0
    7.8832  -14.2537   18.0807 C   0  0  0  0  0  0  0  0  0  0  0  0
    8.6468  -13.1148   17.9408 C   0  0  0  0  0  0  0  0  0  0  0  0
    8.5745  -12.7382   16.6503 N   0  0  0  0  0  0  0  0  0  0  0  0
    7.7982  -13.5946   15.9804 C   0  0  0  0  0  0  0  0  0  0  0  0
    7.3811  -14.5145   16.8574 N   0  0  0  0  0  0  0  0  0  0  0  0
    8.6504  -16.9691   20.5311 C   0  0  0  0  0  0  0  0  0  0  0  0
    7.6232  -17.3913   21.1102 O   0  0  0  0  0  0  0  0  0  0  0  0
   10.7035  -20.7713   24.0357 N   0  0  0  0  0  0  0  0  0  0  0  0
   11.4068  -19.6295   23.5692 C   0  0  0  0  0  0  0  0  0  0  0  0
   12.2854  -19.1280   24.2961 O   0  0  0  0  0  0  0  0  0  0  0  0
   11.1041  -19.0451   22.2458 C   0  0  0  0  0  0  0  0  0  0  0  0
   10.1497  -17.9008   22.3489 C   0  0  2  0  0  0  0  0  0  0  0  0
    9.9213  -17.1767   21.1380 N   0  0  0  0  0  0  0  0  0  0  0  0
   10.5111  -17.0075   23.4850 C   0  0  0  0  0  0  0  0  0  0  0  0
   11.3464  -16.0906   23.2418 O   0  0  0  0  0  0  0  0  0  0  0  0
    9.9296  -17.2062   24.7564 N   0  0  0  0  0  0  0  0  0  0  0  0
   10.3353  -16.3952   25.8878 C   0  0  1  0  0  0  0  0  0  0  0  0
   10.0401  -14.9326   25.6457 C   0  0  0  0  0  0  0  0  0  0  0  0
    8.6005  -14.7051   25.8940 C   0  0  0  0  0  0  0  0  0  0  0  0
    7.6001  -15.6467   25.7722 C   0  0  0  0  0  0  0  0  0  0  0  0
    6.4191  -15.0523   26.0865 N   0  0  0  0  0  0  0  0  0  0  0  0
    6.6164  -13.7641   26.4062 C   0  0  0  0  0  0  0  0  0  0  0  0
    5.8094  -12.7207   26.7900 C   0  0  0  0  0  0  0  0  0  0  0  0
    6.3200  -11.4857   27.0523 C   0  0  0  0  0  0  0  0  0  0  0  0
    7.6649  -11.2716   26.9334 C   0  0  0  0  0  0  0  0  0  0  0  0
    8.5067  -12.2837   26.5537 C   0  0  0  0  0  0  0  0  0  0  0  0
    7.9717  -13.5448   26.2876 C   0  0  0  0  0  0  0  0  0  0  0  0
    9.7003  -16.8979   27.1481 C   0  0  0  0  0  0  0  0  0  0  0  0
    9.9788  -16.3494   28.2572 O   0  0  0  0  0  0  0  0  0  0  0  0
    8.8052  -17.9482   27.1917 O   0  0  0  0  0  0  0  0  0  0  0  0
  2  1  1  6
  2  3  1  0
  3  4  1  0
  4  8  1  0
  5  4  2  0
  5  6  1  0
  6  7  1  0
  8  7  2  0
  9  2  1  0
  9 10  2  0
 11 12  1  0
 12 14  1  0
 13 12  2  0
 15 14  1  6
 15 16  1  0
 16  9  1  0
 17 15  1  0
 18 17  2  0
 19 17  1  0
 20 19  1  0
 20 31  1  0
 20 21  1  6
 22 21  1  0
 23 22  2  0
 24 25  1  0
 24 23  1  0
 25 30  2  0
 26 25  1  0
 26 27  2  0
 27 28  1  0
 28 29  2  0
 30 22  1  0
 30 29  1  0
 31 33  1  0
 32 31  2  0
M  END
$$$$
