HNW.pdb
     RDKit          3D

 33 35  0  0  1  0  0  0  0  0999 V2000
    8.5794  -16.4676   19.8457 N   0  0  0  0  0  0  0  0  0  0  0  0
    8.4612  -15.7682   21.1091 C   0  0  1  0  0  0  0  0  0  0  0  0
    7.3739  -14.7086   20.9317 C   0  0  0  0  0  0  0  0  0  0  0  0
    7.6849  -13.9664   19.6860 C   0  0  0  0  0  0  0  0  0  0  0  0
    8.4178  -12.8019   19.6066 C   0  0  0  0  0  0  0  0  0  0  0  0
    8.4721  -12.4486   18.3086 N   0  0  0  0  0  0  0  0  0  0  0  0
    7.8038  -13.3441   17.5762 C   0  0  0  0  0  0  0  0  0  0  0  0
    7.3275  -14.2651   18.4212 N   0  0  0  0  0  0  0  0  0  0  0  0
    8.2142  -16.6465   22.2505 C   0  0  0  0  0  0  0  0  0  0  0  0
    7.3209  -17.5219   22.1834 O   0  0  0  0  0  0  0  0  0  0  0  0
   12.6237  -18.9222   22.4221 N   0  0  0  0  0  0  0  0  0  0  0  0
   12.5280  -17.5479   22.7656 C   0  0  0  0  0  0  0  0  0  0  0  0
   13.5270  -16.9784   23.2445 O   0  0  0  0  0  0  0  0  0  0  0  0
   11.2673  -16.8044   22.5595 C   0  0  0  0  0  0  0  0  0  0  0  0
   10.2831  -17.0657   23.6521 C   0  0  2  0  0  0  0  0  0  0  0  0
    8.9758  -16.5256   23.4473 N   0  0  0  0  0  0  0  0  0  0  0  0
   10.8497  -16.6934   24.9786 C   0  0  0  0  0  0  0  0  0  0  0  0
   11.9814  -17.1766   25.2675 O   0  0  0  0  0  0  0  0  0  0  0  0
   10.1291  -15.8413   25.8440 N   0  0  0  0  0  0  0  0  0  0  0  0
   10.5366  -15.6782   27.2260 C   0  0  1  0  0  0  0  0  0  0  0  0
    9.5693  -14.7949   27.9804 C   0  0  0  0  0  0  0  0  0  0  0  0
    8.3296  -14.6817   27.1829 C   0  0  0  0  0  0  0  0  0  0  0  0
    7.5604  -15.7331   26.7299 C   0  0  0  0  0  0  0  0  0  0  0  0
    6.5083  -15.2208   26.0390 N   0  0  0  0  0  0  0  0  0  0  0  0
    6.5670  -13.8802   26.0272 C   0  0  0  0  0  0  0  0  0  0  0  0
    5.7954  -12.8757   25.4953 C   0  0  0  0  0  0  0  0  0  0  0  0
    6.1258  -11.5643   25.6557 C   0  0  0  0  0  0  0  0  0  0  0  0
    7.2488  -11.2320   26.3607 C   0  0  0  0  0  0  0  0  0  0  0  0
    8.0471  -12.2013   26.9087 C   0  0  0  0  0  0  0  0  0  0  0  0
    7.6983  -13.5417   26.7375 C   0  0  0  0  0  0  0  0  0  0  0  0
   10.7111  -17.0134   27.8824 C   0  0  0  0  0  0  0  0  0  0  0  0
    9.7357  -17.8221   27.9368 O   0  0  0  0  0  0  0  0  0  0  0  0
   11.8944  -17.4416   28.4507 O   0  0  0  0  0  0  0  0  0  0  0  0
  2  1  1  6
  2  3  1  0
  3  4  1  0
  4  8  1  0
  5  4  2  0
  5  6  1  0
  6  7  1  0
  8  7  2  0
  9  2  1  0
  9 10  2  0
 11 12  1  0
 12 14  1  0
 13 12  2  0
 15 14  1  6
 15 16  1  0
 16  9  1  0
 17 15  1  0
 18 17  2  0
 19 17  1  0
 20 19  1  0
 20 31  1  0
 20 21  1  1
 22 21  1  0
 23 22  2  0
 24 25  1  0
 24 23  1  0
 25 30  2  0
 26 25  1  0
 26 27  2  0
 27 28  1  0
 28 29  2  0
 30 22  1  0
 30 29  1  0
 31 33  1  0
 32 31  2  0
M  END
$$$$
