HNW.pdb
     RDKit          3D

 33 35  0  0  1  0  0  0  0  0999 V2000
    7.7289  -20.5010   18.7880 N   0  0  0  0  0  0  0  0  0  0  0  0
    7.3690  -19.9790   20.0908 C   0  0  1  0  0  0  0  0  0  0  0  0
    7.5590  -21.1161   21.0944 C   0  0  0  0  0  0  0  0  0  0  0  0
    6.2373  -21.7631   21.2785 C   0  0  0  0  0  0  0  0  0  0  0  0
    5.0821  -21.4371   20.6011 C   0  0  0  0  0  0  0  0  0  0  0  0
    4.1080  -22.2488   21.0535 N   0  0  0  0  0  0  0  0  0  0  0  0
    4.6077  -23.0667   21.9842 C   0  0  0  0  0  0  0  0  0  0  0  0
    5.9043  -22.7654   22.1158 N   0  0  0  0  0  0  0  0  0  0  0  0
    8.0960  -18.7677   20.4641 C   0  0  0  0  0  0  0  0  0  0  0  0
    9.2597  -18.5818   20.0397 O   0  0  0  0  0  0  0  0  0  0  0  0
    9.3951  -14.2034   22.3805 N   0  0  0  0  0  0  0  0  0  0  0  0
    8.0553  -14.1167   21.9186 C   0  0  0  0  0  0  0  0  0  0  0  0
    7.5313  -12.9922   21.8061 O   0  0  0  0  0  0  0  0  0  0  0  0
    7.2944  -15.3367   21.5765 C   0  0  0  0  0  0  0  0  0  0  0  0
    8.1251  -16.5693   21.7237 C   0  0  2  0  0  0  0  0  0  0  0  0
    7.5023  -17.7865   21.3077 N   0  0  0  0  0  0  0  0  0  0  0  0
    8.6973  -16.6644   23.0958 C   0  0  0  0  0  0  0  0  0  0  0  0
    8.4165  -17.7048   23.7564 O   0  0  0  0  0  0  0  0  0  0  0  0
    9.5079  -15.6237   23.6001 N   0  0  0  0  0  0  0  0  0  0  0  0
   10.0167  -15.6768   24.9569 C   0  0  1  0  0  0  0  0  0  0  0  0
    9.7057  -14.4022   25.7075 C   0  0  0  0  0  0  0  0  0  0  0  0
    8.2446  -14.1823   25.6579 C   0  0  0  0  0  0  0  0  0  0  0  0
    7.2951  -15.1273   25.3301 C   0  0  0  0  0  0  0  0  0  0  0  0
    6.0716  -14.5397   25.3995 N   0  0  0  0  0  0  0  0  0  0  0  0
    6.1928  -13.2525   25.7588 C   0  0  0  0  0  0  0  0  0  0  0  0
    5.3189  -12.2148   25.9747 C   0  0  0  0  0  0  0  0  0  0  0  0
    5.7587  -10.9791   26.3415 C   0  0  0  0  0  0  0  0  0  0  0  0
    7.0984  -10.7587   26.5006 C   0  0  0  0  0  0  0  0  0  0  0  0
    8.0053  -11.7650   26.2960 C   0  0  0  0  0  0  0  0  0  0  0  0
    7.5426  -13.0269   25.9203 C   0  0  0  0  0  0  0  0  0  0  0  0
    9.4963  -16.8901   25.6651 C   0  0  0  0  0  0  0  0  0  0  0  0
    9.9759  -17.2166   26.7928 O   0  0  0  0  0  0  0  0  0  0  0  0
    8.5006  -17.7046   25.1637 O   0  0  0  0  0  0  0  0  0  0  0  0
  2  1  1  6
  2  3  1  0
  3  4  1  0
  4  8  1  0
  5  4  2  0
  5  6  1  0
  6  7  1  0
  8  7  2  0
  9  2  1  0
  9 10  2  0
 11 12  1  0
 12 14  1  0
 13 12  2  0
 15 14  1  1
 15 16  1  0
 16  9  1  0
 17 15  1  0
 18 17  2  0
 19 17  1  0
 20 19  1  0
 20 31  1  0
 20 21  1  1
 22 21  1  0
 23 22  2  0
 24 25  1  0
 24 23  1  0
 25 30  2  0
 26 25  1  0
 26 27  2  0
 27 28  1  0
 28 29  2  0
 30 22  1  0
 30 29  1  0
 31 33  1  0
 32 31  2  0
M  END
$$$$
