HNW.pdb
     RDKit          3D

 33 35  0  0  1  0  0  0  0  0999 V2000
    7.8736  -16.2704   19.5655 N   0  0  0  0  0  0  0  0  0  0  0  0
    8.0938  -15.2238   20.5429 C   0  0  1  0  0  0  0  0  0  0  0  0
    7.4357  -13.9574   19.9954 C   0  0  0  0  0  0  0  0  0  0  0  0
    8.0605  -13.6723   18.6811 C   0  0  0  0  0  0  0  0  0  0  0  0
    7.3844  -13.4722   17.4967 C   0  0  0  0  0  0  0  0  0  0  0  0
    8.3054  -13.2450   16.5414 N   0  0  0  0  0  0  0  0  0  0  0  0
    9.5266  -13.2950   17.0807 C   0  0  0  0  0  0  0  0  0  0  0  0
    9.3698  -13.5554   18.3833 N   0  0  0  0  0  0  0  0  0  0  0  0
    7.6344  -15.5640   21.8876 C   0  0  0  0  0  0  0  0  0  0  0  0
    6.4339  -15.3910   22.2000 O   0  0  0  0  0  0  0  0  0  0  0  0
    7.1260  -19.2356   26.0384 N   0  0  0  0  0  0  0  0  0  0  0  0
    6.6820  -17.9858   25.5317 C   0  0  0  0  0  0  0  0  0  0  0  0
    5.9952  -17.2507   26.2663 O   0  0  0  0  0  0  0  0  0  0  0  0
    7.0273  -17.5624   24.1583 C   0  0  0  0  0  0  0  0  0  0  0  0
    8.1589  -16.5877   24.1453 C   0  0  2  0  0  0  0  0  0  0  0  0
    8.5323  -16.0928   22.8576 N   0  0  0  0  0  0  0  0  0  0  0  0
    9.3234  -17.1144   24.9107 C   0  0  0  0  0  0  0  0  0  0  0  0
    9.6180  -18.3301   24.7293 O   0  0  0  0  0  0  0  0  0  0  0  0
   10.0380  -16.2681   25.7867 N   0  0  0  0  0  0  0  0  0  0  0  0
   10.1304  -16.5786   27.2001 C   0  0  1  0  0  0  0  0  0  0  0  0
    8.9396  -16.0374   27.9576 C   0  0  0  0  0  0  0  0  0  0  0  0
    8.9284  -14.5664   27.8098 C   0  0  0  0  0  0  0  0  0  0  0  0
    9.9437  -13.7087   28.1783 C   0  0  0  0  0  0  0  0  0  0  0  0
    9.5554  -12.4408   27.8809 N   0  0  0  0  0  0  0  0  0  0  0  0
    8.3294  -12.4449   27.3353 C   0  0  0  0  0  0  0  0  0  0  0  0
    7.4709  -11.4832   26.8606 C   0  0  0  0  0  0  0  0  0  0  0  0
    6.2504  -11.8082   26.3511 C   0  0  0  0  0  0  0  0  0  0  0  0
    5.8638  -13.1186   26.3075 C   0  0  0  0  0  0  0  0  0  0  0  0
    6.6884  -14.1104   26.7698 C   0  0  0  0  0  0  0  0  0  0  0  0
    7.9366  -13.7650   27.2896 C   0  0  0  0  0  0  0  0  0  0  0  0
   10.3058  -18.0525   27.4029 C   0  0  0  0  0  0  0  0  0  0  0  0
   10.1145  -18.8497   26.4353 O   0  0  0  0  0  0  0  0  0  0  0  0
   10.6725  -18.6246   28.6048 O   0  0  0  0  0  0  0  0  0  0  0  0
  2  1  1  6
  2  3  1  0
  3  4  1  0
  4  8  1  0
  5  4  2  0
  5  6  1  0
  6  7  1  0
  8  7  2  0
  9  2  1  0
  9 10  2  0
 11 12  1  0
 12 14  1  0
 13 12  2  0
 15 14  1  6
 15 16  1  0
 16  9  1  0
 17 15  1  0
 18 17  2  0
 19 17  1  0
 20 19  1  0
 20 31  1  0
 20 21  1  1
 22 21  1  0
 23 22  2  0
 24 25  1  0
 24 23  1  0
 25 30  2  0
 26 25  1  0
 26 27  2  0
 27 28  1  0
 28 29  2  0
 30 22  1  0
 30 29  1  0
 31 33  1  0
 32 31  2  0
M  END
$$$$
