HNW.pdb
     RDKit          3D

 33 35  0  0  1  0  0  0  0  0999 V2000
    9.7924  -15.6518   19.7438 N   0  0  0  0  0  0  0  0  0  0  0  0
    8.9668  -15.1942   20.8429 C   0  0  1  0  0  0  0  0  0  0  0  0
    7.5374  -15.0875   20.3119 C   0  0  0  0  0  0  0  0  0  0  0  0
    7.5999  -14.3379   19.0339 C   0  0  0  0  0  0  0  0  0  0  0  0
    8.0554  -13.0460   18.8818 C   0  0  0  0  0  0  0  0  0  0  0  0
    7.9491  -12.7331   17.5768 N   0  0  0  0  0  0  0  0  0  0  0  0
    7.4466  -13.7756   16.9094 C   0  0  0  0  0  0  0  0  0  0  0  0
    7.2367  -14.7489   17.8027 N   0  0  0  0  0  0  0  0  0  0  0  0
    9.0644  -16.0243   22.0415 C   0  0  0  0  0  0  0  0  0  0  0  0
    8.1027  -16.0816   22.8418 O   0  0  0  0  0  0  0  0  0  0  0  0
   10.6934  -20.6489   22.2431 N   0  0  0  0  0  0  0  0  0  0  0  0
   11.4548  -19.4518   22.1858 C   0  0  0  0  0  0  0  0  0  0  0  0
   12.0220  -19.1524   21.1179 O   0  0  0  0  0  0  0  0  0  0  0  0
   11.5734  -18.5754   23.3699 C   0  0  0  0  0  0  0  0  0  0  0  0
   10.4372  -17.6102   23.4630 C   0  0  2  0  0  0  0  0  0  0  0  0
   10.2414  -16.7756   22.3195 N   0  0  0  0  0  0  0  0  0  0  0  0
   10.5044  -16.8303   24.7304 C   0  0  0  0  0  0  0  0  0  0  0  0
   11.3541  -15.8956   24.7766 O   0  0  0  0  0  0  0  0  0  0  0  0
    9.6463  -17.1488   25.8058 N   0  0  0  0  0  0  0  0  0  0  0  0
    9.8399  -16.5421   27.1084 C   0  0  1  0  0  0  0  0  0  0  0  0
    8.5164  -16.2564   27.7805 C   0  0  0  0  0  0  0  0  0  0  0  0
    7.6997  -15.4359   26.8610 C   0  0  0  0  0  0  0  0  0  0  0  0
    6.7634  -15.9121   25.9673 C   0  0  0  0  0  0  0  0  0  0  0  0
    6.2291  -14.8504   25.3083 N   0  0  0  0  0  0  0  0  0  0  0  0
    6.7832  -13.7071   25.7403 C   0  0  0  0  0  0  0  0  0  0  0  0
    6.6328  -12.3758   25.4365 C   0  0  0  0  0  0  0  0  0  0  0  0
    7.3650  -11.4155   26.0663 C   0  0  0  0  0  0  0  0  0  0  0  0
    8.2718  -11.7765   27.0233 C   0  0  0  0  0  0  0  0  0  0  0  0
    8.4541  -13.0925   27.3580 C   0  0  0  0  0  0  0  0  0  0  0  0
    7.6980  -14.0675   26.7058 C   0  0  0  0  0  0  0  0  0  0  0  0
   10.7311  -17.3960   27.9575 C   0  0  0  0  0  0  0  0  0  0  0  0
   11.0402  -17.0169   29.1275 O   0  0  0  0  0  0  0  0  0  0  0  0
   11.2573  -18.6043   27.5459 O   0  0  0  0  0  0  0  0  0  0  0  0
  2  1  1  6
  2  3  1  0
  3  4  1  0
  4  8  1  0
  5  4  2  0
  5  6  1  0
  6  7  1  0
  8  7  2  0
  9  2  1  0
  9 10  2  0
 11 12  1  0
 12 14  1  0
 13 12  2  0
 15 14  1  6
 15 16  1  0
 16  9  1  0
 17 15  1  0
 18 17  2  0
 19 17  1  0
 20 19  1  0
 20 31  1  0
 20 21  1  1
 22 21  1  0
 23 22  2  0
 24 25  1  0
 24 23  1  0
 25 30  2  0
 26 25  1  0
 26 27  2  0
 27 28  1  0
 28 29  2  0
 30 22  1  0
 30 29  1  0
 31 33  1  0
 32 31  2  0
M  END
$$$$
