HNW.pdb
     RDKit          3D

 33 35  0  0  1  0  0  0  0  0999 V2000
    9.6208  -15.7538   18.8272 N   0  0  0  0  0  0  0  0  0  0  0  0
    8.7649  -15.1481   19.8271 C   0  0  1  0  0  0  0  0  0  0  0  0
    7.4008  -14.9301   19.1728 C   0  0  0  0  0  0  0  0  0  0  0  0
    7.6491  -14.4458   17.7933 C   0  0  0  0  0  0  0  0  0  0  0  0
    8.0282  -13.1667   17.4471 C   0  0  0  0  0  0  0  0  0  0  0  0
    8.1489  -13.1319   16.1067 N   0  0  0  0  0  0  0  0  0  0  0  0
    7.8611  -14.3355   15.6033 C   0  0  0  0  0  0  0  0  0  0  0  0
    7.5579  -15.1302   16.6357 N   0  0  0  0  0  0  0  0  0  0  0  0
    8.6801  -15.9083   21.0722 C   0  0  0  0  0  0  0  0  0  0  0  0
    7.8050  -15.6212   21.9210 O   0  0  0  0  0  0  0  0  0  0  0  0
   11.5021  -18.0463   20.5512 N   0  0  0  0  0  0  0  0  0  0  0  0
   11.1749  -19.1982   21.3141 C   0  0  0  0  0  0  0  0  0  0  0  0
   11.7319  -20.2779   21.0389 O   0  0  0  0  0  0  0  0  0  0  0  0
   10.1920  -19.1201   22.4152 C   0  0  0  0  0  0  0  0  0  0  0  0
    9.6079  -17.7514   22.5426 C   0  0  2  0  0  0  0  0  0  0  0  0
    9.5803  -16.9779   21.3412 N   0  0  0  0  0  0  0  0  0  0  0  0
   10.2263  -17.0130   23.6792 C   0  0  0  0  0  0  0  0  0  0  0  0
   11.1617  -16.2124   23.3933 O   0  0  0  0  0  0  0  0  0  0  0  0
    9.7646  -17.2236   24.9970 N   0  0  0  0  0  0  0  0  0  0  0  0
   10.2900  -16.4381   26.0968 C   0  0  1  0  0  0  0  0  0  0  0  0
    9.9706  -14.9711   25.9222 C   0  0  0  0  0  0  0  0  0  0  0  0
    8.5226  -14.7833   26.1547 C   0  0  0  0  0  0  0  0  0  0  0  0
    7.5488  -15.7497   26.0139 C   0  0  0  0  0  0  0  0  0  0  0  0
    6.3489  -15.1889   26.3180 N   0  0  0  0  0  0  0  0  0  0  0  0
    6.5085  -13.8983   26.6493 C   0  0  0  0  0  0  0  0  0  0  0  0
    5.6698  -12.8794   27.0308 C   0  0  0  0  0  0  0  0  0  0  0  0
    6.1446  -11.6334   27.3082 C   0  0  0  0  0  0  0  0  0  0  0  0
    7.4847  -11.3833   27.2072 C   0  0  0  0  0  0  0  0  0  0  0  0
    8.3573  -12.3701   26.8305 C   0  0  0  0  0  0  0  0  0  0  0  0
    7.8589  -13.6428   26.5488 C   0  0  0  0  0  0  0  0  0  0  0  0
    9.7945  -16.9716   27.4061 C   0  0  0  0  0  0  0  0  0  0  0  0
    8.9326  -17.9018   27.4228 O   0  0  0  0  0  0  0  0  0  0  0  0
   10.2214  -16.5098   28.6352 O   0  0  0  0  0  0  0  0  0  0  0  0
  2  1  1  6
  2  3  1  0
  3  4  1  0
  4  8  1  0
  5  4  2  0
  5  6  1  0
  6  7  1  0
  8  7  2  0
  9  2  1  0
  9 10  2  0
 11 12  1  0
 12 14  1  0
 13 12  2  0
 15 14  1  6
 15 16  1  0
 16  9  1  0
 17 15  1  0
 18 17  2  0
 19 17  1  0
 20 19  1  0
 20 31  1  0
 20 21  1  6
 22 21  1  0
 23 22  2  0
 24 25  1  0
 24 23  1  0
 25 30  2  0
 26 25  1  0
 26 27  2  0
 27 28  1  0
 28 29  2  0
 30 22  1  0
 30 29  1  0
 31 33  1  0
 32 31  2  0
M  END
$$$$
