HNW.pdb
     RDKit          3D

 33 35  0  0  1  0  0  0  0  0999 V2000
    8.8137  -16.6860   19.6359 N   0  0  0  0  0  0  0  0  0  0  0  0
    8.7225  -16.1771   20.9893 C   0  0  1  0  0  0  0  0  0  0  0  0
    7.5227  -15.2309   21.0296 C   0  0  0  0  0  0  0  0  0  0  0  0
    7.6593  -14.3015   19.8821 C   0  0  0  0  0  0  0  0  0  0  0  0
    8.3330  -13.0992   19.8980 C   0  0  0  0  0  0  0  0  0  0  0  0
    8.2236  -12.5606   18.6690 N   0  0  0  0  0  0  0  0  0  0  0  0
    7.5102  -13.3768   17.8882 C   0  0  0  0  0  0  0  0  0  0  0  0
    7.1702  -14.4344   18.6332 N   0  0  0  0  0  0  0  0  0  0  0  0
    8.6547  -17.2203   22.0102 C   0  0  0  0  0  0  0  0  0  0  0  0
    8.1012  -18.3135   21.7506 O   0  0  0  0  0  0  0  0  0  0  0  0
   13.6853  -17.3289   22.5245 N   0  0  0  0  0  0  0  0  0  0  0  0
   12.8935  -16.2858   23.0732 C   0  0  0  0  0  0  0  0  0  0  0  0
   13.4287  -15.4716   23.8494 O   0  0  0  0  0  0  0  0  0  0  0  0
   11.4607  -16.1661   22.7311 C   0  0  0  0  0  0  0  0  0  0  0  0
   10.6058  -17.0151   23.6138 C   0  0  2  0  0  0  0  0  0  0  0  0
    9.2103  -17.0166   23.3051 N   0  0  0  0  0  0  0  0  0  0  0  0
   10.8691  -16.7221   25.0505 C   0  0  0  0  0  0  0  0  0  0  0  0
   12.0780  -16.7350   25.4195 O   0  0  0  0  0  0  0  0  0  0  0  0
    9.7961  -16.4490   25.9271 N   0  0  0  0  0  0  0  0  0  0  0  0
   10.0422  -16.1611   27.3267 C   0  0  1  0  0  0  0  0  0  0  0  0
    8.7741  -15.7300   28.0273 C   0  0  0  0  0  0  0  0  0  0  0  0
    7.8555  -15.1679   27.0144 C   0  0  0  0  0  0  0  0  0  0  0  0
    6.9565  -15.8838   26.2519 C   0  0  0  0  0  0  0  0  0  0  0  0
    6.2987  -15.0118   25.4434 N   0  0  0  0  0  0  0  0  0  0  0  0
    6.7371  -13.7609   25.6528 C   0  0  0  0  0  0  0  0  0  0  0  0
    6.4396  -12.5244   25.1333 C   0  0  0  0  0  0  0  0  0  0  0  0
    7.0786  -11.4005   25.5616 C   0  0  0  0  0  0  0  0  0  0  0  0
    8.0386  -11.4969   26.5300 C   0  0  0  0  0  0  0  0  0  0  0  0
    8.3668  -12.7098   27.0761 C   0  0  0  0  0  0  0  0  0  0  0  0
    7.7051  -13.8543   26.6290 C   0  0  0  0  0  0  0  0  0  0  0  0
   10.6868  -17.3349   27.9982 C   0  0  0  0  0  0  0  0  0  0  0  0
   10.8046  -18.4325   27.3740 O   0  0  0  0  0  0  0  0  0  0  0  0
   11.1779  -17.3081   29.2883 O   0  0  0  0  0  0  0  0  0  0  0  0
  2  1  1  6
  2  3  1  0
  3  4  1  0
  4  8  1  0
  5  4  2  0
  5  6  1  0
  6  7  1  0
  8  7  2  0
  9  2  1  0
  9 10  2  0
 11 12  1  0
 12 14  1  0
 13 12  2  0
 15 14  1  6
 15 16  1  0
 16  9  1  0
 17 15  1  0
 18 17  2  0
 19 17  1  0
 20 19  1  0
 20 31  1  0
 20 21  1  1
 22 21  1  0
 23 22  2  0
 24 25  1  0
 24 23  1  0
 25 30  2  0
 26 25  1  0
 26 27  2  0
 27 28  1  0
 28 29  2  0
 30 22  1  0
 30 29  1  0
 31 33  1  0
 32 31  2  0
M  END
$$$$
