HNW.pdb
     RDKit          3D

 33 35  0  0  1  0  0  0  0  0999 V2000
    8.9664  -16.8122   17.5911 N   0  0  0  0  0  0  0  0  0  0  0  0
    8.5901  -16.1087   18.8005 C   0  0  1  0  0  0  0  0  0  0  0  0
    7.3109  -15.3336   18.4852 C   0  0  0  0  0  0  0  0  0  0  0  0
    7.6258  -14.4016   17.3755 C   0  0  0  0  0  0  0  0  0  0  0  0
    8.1563  -13.1371   17.5146 C   0  0  0  0  0  0  0  0  0  0  0  0
    8.2909  -12.6194   16.2791 N   0  0  0  0  0  0  0  0  0  0  0  0
    7.8666  -13.5081   15.3763 C   0  0  0  0  0  0  0  0  0  0  0  0
    7.4634  -14.5905   16.0509 N   0  0  0  0  0  0  0  0  0  0  0  0
    8.4535  -16.9740   19.9700 C   0  0  0  0  0  0  0  0  0  0  0  0
    7.8336  -18.0582   19.8759 O   0  0  0  0  0  0  0  0  0  0  0  0
    9.5196  -20.6314   20.3784 N   0  0  0  0  0  0  0  0  0  0  0  0
    9.1899  -19.8318   21.5044 C   0  0  0  0  0  0  0  0  0  0  0  0
    8.1403  -20.0783   22.1283 O   0  0  0  0  0  0  0  0  0  0  0  0
   10.0742  -18.7268   21.9305 C   0  0  0  0  0  0  0  0  0  0  0  0
    9.2984  -17.5048   22.2991 C   0  0  2  0  0  0  0  0  0  0  0  0
    9.0164  -16.6055   21.2247 N   0  0  0  0  0  0  0  0  0  0  0  0
    9.9136  -16.8170   23.4686 C   0  0  0  0  0  0  0  0  0  0  0  0
   10.8438  -15.9980   23.2198 O   0  0  0  0  0  0  0  0  0  0  0  0
    9.4549  -17.0923   24.7755 N   0  0  0  0  0  0  0  0  0  0  0  0
   10.0673  -16.4505   25.9225 C   0  0  1  0  0  0  0  0  0  0  0  0
    9.9348  -14.9468   25.8429 C   0  0  0  0  0  0  0  0  0  0  0  0
    8.4955  -14.6125   25.7921 C   0  0  0  0  0  0  0  0  0  0  0  0
    7.4611  -15.5122   25.6411 C   0  0  0  0  0  0  0  0  0  0  0  0
    6.2928  -14.8179   25.6436 N   0  0  0  0  0  0  0  0  0  0  0  0
    6.5311  -13.5055   25.7898 C   0  0  0  0  0  0  0  0  0  0  0  0
    5.7528  -12.3754   25.8571 C   0  0  0  0  0  0  0  0  0  0  0  0
    6.3046  -11.1399   26.0118 C   0  0  0  0  0  0  0  0  0  0  0  0
    7.6626  -11.0133   26.1031 C   0  0  0  0  0  0  0  0  0  0  0  0
    8.4768  -12.1136   26.0411 C   0  0  0  0  0  0  0  0  0  0  0  0
    7.8997  -13.3742   25.8825 C   0  0  0  0  0  0  0  0  0  0  0  0
    9.5008  -17.0003   27.1957 C   0  0  0  0  0  0  0  0  0  0  0  0
    8.5221  -17.8058   27.1547 O   0  0  0  0  0  0  0  0  0  0  0  0
    9.9818  -16.6840   28.4506 O   0  0  0  0  0  0  0  0  0  0  0  0
  2  1  1  6
  2  3  1  0
  3  4  1  0
  4  8  1  0
  5  4  2  0
  5  6  1  0
  6  7  1  0
  8  7  2  0
  9  2  1  0
  9 10  2  0
 11 12  1  0
 12 14  1  0
 13 12  2  0
 15 14  1  6
 15 16  1  0
 16  9  1  0
 17 15  1  0
 18 17  2  0
 19 17  1  0
 20 19  1  0
 20 31  1  0
 20 21  1  6
 22 21  1  0
 23 22  2  0
 24 25  1  0
 24 23  1  0
 25 30  2  0
 26 25  1  0
 26 27  2  0
 27 28  1  0
 28 29  2  0
 30 22  1  0
 30 29  1  0
 31 33  1  0
 32 31  2  0
M  END
$$$$
