NQV.pdb
     RDKit          3D

 25 24  0  0  1  0  0  0  0  0999 V2000
    8.1749  -12.6449   17.7876 N   0  0  0  0  0  0  0  0  0  0  0  0
    7.8142  -13.9825   18.0559 C   0  0  0  0  0  0  0  0  0  0  0  0
    8.0235  -14.8617   17.1857 O   0  0  0  0  0  0  0  0  0  0  0  0
    7.1929  -14.3382   19.3576 C   0  0  0  0  0  0  0  0  0  0  0  0
    8.1573  -15.0755   20.2507 C   0  0  2  0  0  0  0  0  0  0  0  0
    8.5672  -16.3561   19.7590 N   0  0  0  0  0  0  0  0  0  0  0  0
    7.5619  -15.1635   21.6134 C   0  0  0  0  0  0  0  0  0  0  0  0
    6.8787  -14.2574   22.1193 O   0  0  0  0  0  0  0  0  0  0  0  0
    6.9089  -21.0873   22.9227 N   0  0  0  0  0  0  0  0  0  0  0  0
    6.3606  -20.1954   23.8876 C   0  0  0  0  0  0  0  0  0  0  0  0
    5.9706  -20.6217   24.9947 O   0  0  0  0  0  0  0  0  0  0  0  0
    6.2852  -18.7463   23.4929 C   0  0  0  0  0  0  0  0  0  0  0  0
    7.3659  -17.9483   24.1460 C   0  0  0  0  0  0  0  0  0  0  0  0
    7.3348  -16.5282   23.7214 C   0  0  2  0  0  0  0  0  0  0  0  0
    7.7985  -16.3469   22.3520 N   0  0  0  0  0  0  0  0  0  0  0  0
    8.0912  -15.5950   24.5772 C   0  0  0  0  0  0  0  0  0  0  0  0
    9.3456  -15.4715   24.5993 O   0  0  0  0  0  0  0  0  0  0  0  0
    6.3442  -12.0864   25.7695 C   0  0  0  0  0  0  0  0  0  0  0  0
    7.1004  -12.7706   26.8865 C   0  0  2  0  0  0  0  0  0  0  0  0
    7.8055  -11.7397   27.7273 C   0  0  0  0  0  0  0  0  0  0  0  0
    8.1028  -13.7786   26.3233 C   0  0  2  0  0  0  0  0  0  0  0  0
    7.3910  -14.7268   25.4857 N   0  0  0  0  0  0  0  0  0  0  0  0
    8.6916  -14.4886   27.5138 C   0  0  0  0  0  0  0  0  0  0  0  0
    9.7647  -14.0051   28.1992 O   0  0  0  0  0  0  0  0  0  0  0  0
    8.1666  -15.5697   27.8832 O   0  0  0  0  0  0  0  0  0  0  0  0
  2  1  1  0
  2  3  2  0
  4  2  1  0
  5  7  1  0
  5  4  1  0
  5  6  1  6
  7  8  2  0
  9 10  1  0
 10 11  2  0
 12 10  1  0
 12 13  1  0
 14 13  1  1
 15 14  1  0
 15  7  1  0
 16 17  2  0
 16 14  1  0
 19 18  1  6
 19 21  1  0
 20 19  1  0
 21 22  1  6
 22 16  1  0
 23 21  1  0
 23 24  1  0
 25 23  2  0
M  END
$$$$
