NQV.pdb
     RDKit          3D

 25 24  0  0  1  0  0  0  0  0999 V2000
    9.1563  -15.0044   18.2690 N   0  0  0  0  0  0  0  0  0  0  0  0
    8.0076  -14.2885   17.8698 C   0  0  0  0  0  0  0  0  0  0  0  0
    7.3385  -14.6972   16.8904 O   0  0  0  0  0  0  0  0  0  0  0  0
    7.6015  -13.0640   18.6064 C   0  0  0  0  0  0  0  0  0  0  0  0
    8.5176  -12.7861   19.7704 C   0  0  2  0  0  0  0  0  0  0  0  0
    9.9122  -12.9307   19.4808 N   0  0  0  0  0  0  0  0  0  0  0  0
    8.0927  -13.6378   20.9163 C   0  0  0  0  0  0  0  0  0  0  0  0
    6.9524  -13.6005   21.4082 O   0  0  0  0  0  0  0  0  0  0  0  0
   10.5966  -19.1229   22.3734 N   0  0  0  0  0  0  0  0  0  0  0  0
    9.7621  -18.9373   23.5120 C   0  0  0  0  0  0  0  0  0  0  0  0
    9.6032  -19.8603   24.3381 O   0  0  0  0  0  0  0  0  0  0  0  0
    9.1038  -17.5920   23.6473 C   0  0  0  0  0  0  0  0  0  0  0  0
    9.4569  -16.6969   22.5048 C   0  0  0  0  0  0  0  0  0  0  0  0
    8.7743  -15.3845   22.6023 C   0  0  2  0  0  0  0  0  0  0  0  0
    9.0511  -14.5272   21.4570 N   0  0  0  0  0  0  0  0  0  0  0  0
    9.0651  -14.6088   23.8225 C   0  0  0  0  0  0  0  0  0  0  0  0
   10.1477  -14.0136   24.0737 O   0  0  0  0  0  0  0  0  0  0  0  0
    5.8743  -13.7246   26.4864 C   0  0  0  0  0  0  0  0  0  0  0  0
    7.1489  -12.9114   26.4473 C   0  0  2  0  0  0  0  0  0  0  0  0
    7.0078  -11.7951   25.4468 C   0  0  0  0  0  0  0  0  0  0  0  0
    8.3452  -13.7966   26.0964 C   0  0  2  0  0  0  0  0  0  0  0  0
    8.0660  -14.4867   24.8502 N   0  0  0  0  0  0  0  0  0  0  0  0
    8.4671  -14.7944   27.2179 C   0  0  0  0  0  0  0  0  0  0  0  0
    9.0038  -14.4753   28.4283 O   0  0  0  0  0  0  0  0  0  0  0  0
    8.0551  -15.9659   27.0212 O   0  0  0  0  0  0  0  0  0  0  0  0
  2  1  1  0
  2  3  2  0
  4  2  1  0
  5  7  1  0
  5  4  1  0
  5  6  1  6
  7  8  2  0
  9 10  1  0
 10 11  2  0
 12 10  1  0
 12 13  1  0
 14 13  1  6
 15 14  1  0
 15  7  1  0
 16 17  2  0
 16 14  1  0
 19 18  1  6
 19 21  1  0
 20 19  1  0
 21 22  1  6
 22 16  1  0
 23 21  1  0
 23 24  1  0
 25 23  2  0
M  END
$$$$
