NQV.pdb
     RDKit          3D

 25 24  0  0  1  0  0  0  0  0999 V2000
    8.0012  -12.7949   17.5416 N   0  0  0  0  0  0  0  0  0  0  0  0
    8.6065  -13.7009   18.4383 C   0  0  0  0  0  0  0  0  0  0  0  0
    9.7062  -14.2232   18.1351 O   0  0  0  0  0  0  0  0  0  0  0  0
    7.9420  -14.0283   19.7260 C   0  0  0  0  0  0  0  0  0  0  0  0
    7.8989  -15.5154   19.9668 C   0  0  2  0  0  0  0  0  0  0  0  0
    7.1697  -16.2589   18.9844 N   0  0  0  0  0  0  0  0  0  0  0  0
    7.3843  -15.7533   21.3444 C   0  0  0  0  0  0  0  0  0  0  0  0
    6.2123  -15.5207   21.6846 O   0  0  0  0  0  0  0  0  0  0  0  0
    5.1122  -19.7665   23.3312 N   0  0  0  0  0  0  0  0  0  0  0  0
    6.3315  -19.5529   24.0346 C   0  0  0  0  0  0  0  0  0  0  0  0
    6.4228  -19.8415   25.2462 O   0  0  0  0  0  0  0  0  0  0  0  0
    7.4692  -18.9721   23.2410 C   0  0  0  0  0  0  0  0  0  0  0  0
    8.2410  -17.9778   24.0454 C   0  0  0  0  0  0  0  0  0  0  0  0
    7.9050  -16.5842   23.6675 C   0  0  2  0  0  0  0  0  0  0  0  0
    8.2925  -16.2704   22.2983 N   0  0  0  0  0  0  0  0  0  0  0  0
    8.4667  -15.5381   24.5424 C   0  0  0  0  0  0  0  0  0  0  0  0
    9.5991  -15.0001   24.4099 O   0  0  0  0  0  0  0  0  0  0  0  0
    6.3280  -12.5044   25.8282 C   0  0  0  0  0  0  0  0  0  0  0  0
    7.0379  -13.1447   27.0003 C   0  0  2  0  0  0  0  0  0  0  0  0
    7.5154  -12.0772   27.9486 C   0  0  0  0  0  0  0  0  0  0  0  0
    8.2118  -13.9991   26.5210 C   0  0  2  0  0  0  0  0  0  0  0  0
    7.7029  -15.0511   25.6598 N   0  0  0  0  0  0  0  0  0  0  0  0
    8.8205  -14.6015   27.7598 C   0  0  0  0  0  0  0  0  0  0  0  0
    9.7094  -13.9282   28.5420 O   0  0  0  0  0  0  0  0  0  0  0  0
    8.4905  -15.7723   28.0778 O   0  0  0  0  0  0  0  0  0  0  0  0
  2  1  1  0
  2  3  2  0
  4  2  1  0
  5  7  1  0
  5  4  1  0
  5  6  1  6
  7  8  2  0
  9 10  1  0
 10 11  2  0
 12 10  1  0
 12 13  1  0
 14 13  1  1
 15 14  1  0
 15  7  1  0
 16 17  2  0
 16 14  1  0
 19 18  1  6
 19 21  1  0
 20 19  1  0
 21 22  1  6
 22 16  1  0
 23 21  1  0
 23 24  1  0
 25 23  2  0
M  END
$$$$
