NQV.pdb
     RDKit          3D

 25 24  0  0  1  0  0  0  0  0999 V2000
   10.5947  -20.6952   17.2922 N   0  0  0  0  0  0  0  0  0  0  0  0
    9.4748  -19.8479   17.1542 C   0  0  0  0  0  0  0  0  0  0  0  0
    8.6820  -20.0280   16.1987 O   0  0  0  0  0  0  0  0  0  0  0  0
    9.2438  -18.7556   18.1343 C   0  0  0  0  0  0  0  0  0  0  0  0
   10.3749  -18.6490   19.1244 C   0  0  2  0  0  0  0  0  0  0  0  0
   10.1458  -19.3207   20.3678 N   0  0  0  0  0  0  0  0  0  0  0  0
   10.6953  -17.2071   19.3179 C   0  0  0  0  0  0  0  0  0  0  0  0
   11.1504  -16.4824   18.4172 O   0  0  0  0  0  0  0  0  0  0  0  0
    8.9625  -12.3807   18.5315 N   0  0  0  0  0  0  0  0  0  0  0  0
    8.0812  -13.4065   18.9766 C   0  0  0  0  0  0  0  0  0  0  0  0
    6.8656  -13.3642   18.6935 O   0  0  0  0  0  0  0  0  0  0  0  0
    8.6971  -14.5125   19.7882 C   0  0  0  0  0  0  0  0  0  0  0  0
   10.1708  -14.3208   19.9380 C   0  0  0  0  0  0  0  0  0  0  0  0
   10.7514  -15.2638   20.9237 C   0  0  2  0  0  0  0  0  0  0  0  0
   10.4624  -16.6548   20.5996 N   0  0  0  0  0  0  0  0  0  0  0  0
   10.3526  -15.0389   22.3257 C   0  0  0  0  0  0  0  0  0  0  0  0
   10.4836  -13.9585   22.9621 O   0  0  0  0  0  0  0  0  0  0  0  0
    7.2724  -17.1273   23.9967 C   0  0  0  0  0  0  0  0  0  0  0  0
    7.9002  -15.9028   24.6245 C   0  0  2  0  0  0  0  0  0  0  0  0
    7.3448  -14.6609   23.9794 C   0  0  0  0  0  0  0  0  0  0  0  0
    9.4223  -15.9434   24.4855 C   0  0  2  0  0  0  0  0  0  0  0  0
    9.7590  -16.1082   23.0831 N   0  0  0  0  0  0  0  0  0  0  0  0
    9.8790  -17.1474   25.2664 C   0  0  0  0  0  0  0  0  0  0  0  0
    9.8224  -17.2044   26.6261 O   0  0  0  0  0  0  0  0  0  0  0  0
   10.3293  -18.1346   24.6312 O   0  0  0  0  0  0  0  0  0  0  0  0
  2  1  1  0
  2  3  2  0
  4  2  1  0
  5  7  1  0
  5  4  1  0
  5  6  1  1
  7  8  2  0
  9 10  1  0
 10 11  2  0
 12 10  1  0
 12 13  1  0
 14 13  1  6
 15 14  1  0
 15  7  1  0
 16 17  2  0
 16 14  1  0
 19 18  1  6
 19 21  1  0
 20 19  1  0
 21 22  1  6
 22 16  1  0
 23 21  1  0
 23 24  1  0
 25 23  2  0
M  END
$$$$
