NQV.pdb
     RDKit          3D

 25 24  0  0  1  0  0  0  0  0999 V2000
    8.4824  -12.6307   17.4362 N   0  0  0  0  0  0  0  0  0  0  0  0
    8.0043  -13.9365   17.6762 C   0  0  0  0  0  0  0  0  0  0  0  0
    8.0671  -14.7918   16.7605 O   0  0  0  0  0  0  0  0  0  0  0  0
    7.4334  -14.2870   19.0021 C   0  0  0  0  0  0  0  0  0  0  0  0
    8.5116  -14.6223   20.0004 C   0  0  2  0  0  0  0  0  0  0  0  0
    9.3342  -15.7371   19.6395 N   0  0  0  0  0  0  0  0  0  0  0  0
    7.8755  -14.8049   21.3350 C   0  0  0  0  0  0  0  0  0  0  0  0
    7.0169  -14.0325   21.7931 O   0  0  0  0  0  0  0  0  0  0  0  0
    6.8711  -20.0692   24.2435 N   0  0  0  0  0  0  0  0  0  0  0  0
    6.8580  -19.2290   25.3930 C   0  0  0  0  0  0  0  0  0  0  0  0
    6.3762  -19.6372   26.4704 O   0  0  0  0  0  0  0  0  0  0  0  0
    7.4471  -17.8556   25.2250 C   0  0  0  0  0  0  0  0  0  0  0  0
    7.8753  -17.6168   23.8140 C   0  0  0  0  0  0  0  0  0  0  0  0
    7.7741  -16.1851   23.4428 C   0  0  2  0  0  0  0  0  0  0  0  0
    8.2839  -15.9204   22.1036 N   0  0  0  0  0  0  0  0  0  0  0  0
    8.4335  -15.2435   24.3668 C   0  0  0  0  0  0  0  0  0  0  0  0
    9.6670  -14.9844   24.3946 O   0  0  0  0  0  0  0  0  0  0  0  0
    6.0128  -13.2295   27.2775 C   0  0  0  0  0  0  0  0  0  0  0  0
    7.1807  -12.5273   26.6216 C   0  0  2  0  0  0  0  0  0  0  0  0
    6.6987  -11.7509   25.4250 C   0  0  0  0  0  0  0  0  0  0  0  0
    8.2552  -13.5339   26.2091 C   0  0  2  0  0  0  0  0  0  0  0  0
    7.6530  -14.5312   25.3430 N   0  0  0  0  0  0  0  0  0  0  0  0
    8.7289  -14.1818   27.4835 C   0  0  0  0  0  0  0  0  0  0  0  0
    9.5343  -13.5418   28.3761 O   0  0  0  0  0  0  0  0  0  0  0  0
    8.3625  -15.3599   27.7256 O   0  0  0  0  0  0  0  0  0  0  0  0
  2  1  1  0
  2  3  2  0
  4  2  1  0
  5  7  1  0
  5  4  1  0
  5  6  1  6
  7  8  2  0
  9 10  1  0
 10 11  2  0
 12 10  1  0
 12 13  1  0
 14 13  1  1
 15 14  1  0
 15  7  1  0
 16 17  2  0
 16 14  1  0
 19 18  1  6
 19 21  1  0
 20 19  1  0
 21 22  1  6
 22 16  1  0
 23 21  1  0
 23 24  1  0
 25 23  2  0
M  END
$$$$
