NQV.pdb
     RDKit          3D

 25 24  0  0  1  0  0  0  0  0999 V2000
    9.2959  -15.4922   17.8669 N   0  0  0  0  0  0  0  0  0  0  0  0
    8.0148  -14.9377   18.0728 C   0  0  0  0  0  0  0  0  0  0  0  0
    7.4534  -14.3227   17.1345 O   0  0  0  0  0  0  0  0  0  0  0  0
    7.3443  -15.0846   19.3903 C   0  0  0  0  0  0  0  0  0  0  0  0
    8.2104  -15.8269   20.3751 C   0  0  2  0  0  0  0  0  0  0  0  0
    8.4447  -17.2008   20.0477 N   0  0  0  0  0  0  0  0  0  0  0  0
    7.6194  -15.6681   21.7333 C   0  0  0  0  0  0  0  0  0  0  0  0
    6.9548  -14.6761   22.0765 O   0  0  0  0  0  0  0  0  0  0  0  0
    7.4442  -20.5038   25.6715 N   0  0  0  0  0  0  0  0  0  0  0  0
    6.4350  -20.3218   24.6838 C   0  0  0  0  0  0  0  0  0  0  0  0
    5.6992  -21.2731   24.3471 O   0  0  0  0  0  0  0  0  0  0  0  0
    6.3196  -18.9448   24.0905 C   0  0  0  0  0  0  0  0  0  0  0  0
    7.3382  -18.0173   24.6678 C   0  0  0  0  0  0  0  0  0  0  0  0
    7.3005  -16.6850   24.0185 C   0  0  2  0  0  0  0  0  0  0  0  0
    7.8378  -16.7110   22.6643 N   0  0  0  0  0  0  0  0  0  0  0  0
    7.9859  -15.6041   24.7512 C   0  0  0  0  0  0  0  0  0  0  0  0
    9.2204  -15.3526   24.7035 O   0  0  0  0  0  0  0  0  0  0  0  0
    6.1274  -12.0732   25.6352 C   0  0  0  0  0  0  0  0  0  0  0  0
    6.8290  -12.6761   26.8318 C   0  0  2  0  0  0  0  0  0  0  0  0
    7.4616  -11.5837   27.6524 C   0  0  0  0  0  0  0  0  0  0  0  0
    7.8834  -13.6902   26.3867 C   0  0  2  0  0  0  0  0  0  0  0  0
    7.2328  -14.7301   25.6105 N   0  0  0  0  0  0  0  0  0  0  0  0
    8.4554  -14.2767   27.6503 C   0  0  0  0  0  0  0  0  0  0  0  0
    8.2169  -15.5610   28.0363 O   0  0  0  0  0  0  0  0  0  0  0  0
    9.1805  -13.5459   28.3721 O   0  0  0  0  0  0  0  0  0  0  0  0
  2  1  1  0
  2  3  2  0
  4  2  1  0
  5  7  1  0
  5  4  1  0
  5  6  1  6
  7  8  2  0
  9 10  1  0
 10 11  2  0
 12 10  1  0
 12 13  1  0
 14 13  1  1
 15 14  1  0
 15  7  1  0
 16 17  2  0
 16 14  1  0
 19 18  1  6
 19 21  1  0
 20 19  1  0
 21 22  1  6
 22 16  1  0
 23 21  1  0
 23 24  1  0
 25 23  2  0
M  END
$$$$
