NQV.pdb
     RDKit          3D

 25 24  0  0  1  0  0  0  0  0999 V2000
    9.1334  -14.3024   16.7714 N   0  0  0  0  0  0  0  0  0  0  0  0
    8.1681  -13.5465   17.4702 C   0  0  0  0  0  0  0  0  0  0  0  0
    7.5505  -12.6340   16.8706 O   0  0  0  0  0  0  0  0  0  0  0  0
    7.8922  -13.8342   18.9013 C   0  0  0  0  0  0  0  0  0  0  0  0
    8.7500  -14.9607   19.4173 C   0  0  2  0  0  0  0  0  0  0  0  0
    8.7231  -16.1472   18.6164 N   0  0  0  0  0  0  0  0  0  0  0  0
    8.3688  -15.2314   20.8317 C   0  0  0  0  0  0  0  0  0  0  0  0
    7.2227  -15.0511   21.2759 O   0  0  0  0  0  0  0  0  0  0  0  0
   11.4633  -20.1278   21.7204 N   0  0  0  0  0  0  0  0  0  0  0  0
   10.4522  -19.7802   22.6607 C   0  0  0  0  0  0  0  0  0  0  0  0
   10.2757  -20.4714   23.6857 O   0  0  0  0  0  0  0  0  0  0  0  0
    9.6346  -18.5586   22.3434 C   0  0  0  0  0  0  0  0  0  0  0  0
    9.8892  -17.4638   23.3272 C   0  0  0  0  0  0  0  0  0  0  0  0
    9.0915  -16.2522   23.0211 C   0  0  2  0  0  0  0  0  0  0  0  0
    9.3779  -15.7178   21.6961 N   0  0  0  0  0  0  0  0  0  0  0  0
    9.2240  -15.1462   23.9878 C   0  0  0  0  0  0  0  0  0  0  0  0
   10.1649  -14.3077   24.0199 O   0  0  0  0  0  0  0  0  0  0  0  0
    6.4966  -12.6215   24.8050 C   0  0  0  0  0  0  0  0  0  0  0  0
    6.9463  -13.2258   26.1166 C   0  0  2  0  0  0  0  0  0  0  0  0
    6.9791  -12.1611   27.1807 C   0  0  0  0  0  0  0  0  0  0  0  0
    8.3214  -13.8778   25.9690 C   0  0  2  0  0  0  0  0  0  0  0  0
    8.2245  -14.9592   25.0054 N   0  0  0  0  0  0  0  0  0  0  0  0
    8.6670  -14.4311   27.3263 C   0  0  0  0  0  0  0  0  0  0  0  0
    9.2974  -13.6918   28.2809 O   0  0  0  0  0  0  0  0  0  0  0  0
    8.3584  -15.6231   27.5807 O   0  0  0  0  0  0  0  0  0  0  0  0
  2  1  1  0
  2  3  2  0
  4  2  1  0
  5  7  1  0
  5  4  1  0
  5  6  1  6
  7  8  2  0
  9 10  1  0
 10 11  2  0
 12 10  1  0
 12 13  1  0
 14 13  1  1
 15 14  1  0
 15  7  1  0
 16 17  2  0
 16 14  1  0
 19 18  1  6
 19 21  1  0
 20 19  1  0
 21 22  1  6
 22 16  1  0
 23 21  1  0
 23 24  1  0
 25 23  2  0
M  END
$$$$
