NQV.pdb
     RDKit          3D

 25 24  0  0  1  0  0  0  0  0999 V2000
    7.8484  -12.3885   17.4854 N   0  0  0  0  0  0  0  0  0  0  0  0
    7.6933  -13.7662   17.7480 C   0  0  0  0  0  0  0  0  0  0  0  0
    7.8193  -14.5887   16.8091 O   0  0  0  0  0  0  0  0  0  0  0  0
    7.3834  -14.2302   19.1248 C   0  0  0  0  0  0  0  0  0  0  0  0
    8.6331  -14.3909   19.9516 C   0  0  2  0  0  0  0  0  0  0  0  0
    9.5749  -15.3365   19.4334 N   0  0  0  0  0  0  0  0  0  0  0  0
    8.2329  -14.7089   21.3508 C   0  0  0  0  0  0  0  0  0  0  0  0
    7.3340  -14.1030   21.9578 O   0  0  0  0  0  0  0  0  0  0  0  0
   10.1922  -20.0018   23.9362 N   0  0  0  0  0  0  0  0  0  0  0  0
    9.4500  -19.8530   22.7303 C   0  0  0  0  0  0  0  0  0  0  0  0
    9.3224  -20.8134   21.9423 O   0  0  0  0  0  0  0  0  0  0  0  0
    8.8477  -18.4983   22.4779 C   0  0  0  0  0  0  0  0  0  0  0  0
    9.0855  -17.5751   23.6278 C   0  0  0  0  0  0  0  0  0  0  0  0
    8.5873  -16.2072   23.3477 C   0  0  2  0  0  0  0  0  0  0  0  0
    8.9238  -15.7572   22.0032 N   0  0  0  0  0  0  0  0  0  0  0  0
    9.0320  -15.1657   24.2926 C   0  0  0  0  0  0  0  0  0  0  0  0
   10.1687  -14.6205   24.3028 O   0  0  0  0  0  0  0  0  0  0  0  0
    6.1539  -13.2563   26.7788 C   0  0  0  0  0  0  0  0  0  0  0  0
    7.4952  -12.6449   26.4404 C   0  0  2  0  0  0  0  0  0  0  0  0
    7.3847  -11.8548   25.1635 C   0  0  0  0  0  0  0  0  0  0  0  0
    8.5662  -13.7282   26.3088 C   0  0  2  0  0  0  0  0  0  0  0  0
    8.1351  -14.6924   25.3129 N   0  0  0  0  0  0  0  0  0  0  0  0
    8.6550  -14.3911   27.6581 C   0  0  0  0  0  0  0  0  0  0  0  0
    9.2538  -13.7984   28.7284 O   0  0  0  0  0  0  0  0  0  0  0  0
    8.1546  -15.5365   27.7941 O   0  0  0  0  0  0  0  0  0  0  0  0
  2  1  1  0
  2  3  2  0
  4  2  1  0
  5  7  1  0
  5  4  1  0
  5  6  1  6
  7  8  2  0
  9 10  1  0
 10 11  2  0
 12 10  1  0
 12 13  1  0
 14 13  1  1
 15 14  1  0
 15  7  1  0
 16 17  2  0
 16 14  1  0
 19 18  1  6
 19 21  1  0
 20 19  1  0
 21 22  1  6
 22 16  1  0
 23 21  1  0
 23 24  1  0
 25 23  2  0
M  END
$$$$
