NQV.pdb
     RDKit          3D

 25 24  0  0  1  0  0  0  0  0999 V2000
    7.5040  -12.7153   17.4081 N   0  0  0  0  0  0  0  0  0  0  0  0
    7.8826  -13.8583   18.1441 C   0  0  0  0  0  0  0  0  0  0  0  0
    8.6455  -14.7034   17.6173 O   0  0  0  0  0  0  0  0  0  0  0  0
    7.3783  -14.0519   19.5280 C   0  0  0  0  0  0  0  0  0  0  0  0
    8.0937  -15.1788   20.2277 C   0  0  2  0  0  0  0  0  0  0  0  0
    7.9629  -16.4552   19.5926 N   0  0  0  0  0  0  0  0  0  0  0  0
    7.6436  -15.2112   21.6473 C   0  0  0  0  0  0  0  0  0  0  0  0
    7.3063  -14.1962   22.2795 O   0  0  0  0  0  0  0  0  0  0  0  0
    7.0901  -20.6159   24.9173 N   0  0  0  0  0  0  0  0  0  0  0  0
    6.6795  -19.6749   25.9038 C   0  0  0  0  0  0  0  0  0  0  0  0
    6.3386  -20.0587   27.0423 O   0  0  0  0  0  0  0  0  0  0  0  0
    6.6840  -18.2285   25.4921 C   0  0  0  0  0  0  0  0  0  0  0  0
    7.0984  -18.0708   24.0657 C   0  0  0  0  0  0  0  0  0  0  0  0
    7.1320  -16.6463   23.6565 C   0  0  2  0  0  0  0  0  0  0  0  0
    7.6055  -16.4714   22.2895 N   0  0  0  0  0  0  0  0  0  0  0  0
    7.9283  -15.7573   24.5230 C   0  0  0  0  0  0  0  0  0  0  0  0
    9.1853  -15.7592   24.6196 O   0  0  0  0  0  0  0  0  0  0  0  0
    6.4520  -12.0681   25.3679 C   0  0  0  0  0  0  0  0  0  0  0  0
    7.1002  -12.7012   26.5789 C   0  0  2  0  0  0  0  0  0  0  0  0
    7.8671  -11.6579   27.3472 C   0  0  0  0  0  0  0  0  0  0  0  0
    8.0242  -13.8459   26.1618 C   0  0  2  0  0  0  0  0  0  0  0  0
    7.2686  -14.7849   25.3528 N   0  0  0  0  0  0  0  0  0  0  0  0
    8.4655  -14.5103   27.4392 C   0  0  0  0  0  0  0  0  0  0  0  0
    9.5146  -14.0543   28.1786 O   0  0  0  0  0  0  0  0  0  0  0  0
    7.8361  -15.5254   27.8319 O   0  0  0  0  0  0  0  0  0  0  0  0
  2  1  1  0
  2  3  2  0
  4  2  1  0
  5  7  1  0
  5  4  1  0
  5  6  1  6
  7  8  2  0
  9 10  1  0
 10 11  2  0
 12 10  1  0
 12 13  1  0
 14 13  1  1
 15 14  1  0
 15  7  1  0
 16 17  2  0
 16 14  1  0
 19 18  1  6
 19 21  1  0
 20 19  1  0
 21 22  1  6
 22 16  1  0
 23 21  1  0
 23 24  1  0
 25 23  2  0
M  END
$$$$
