NQV.pdb
     RDKit          3D

 25 24  0  0  1  0  0  0  0  0999 V2000
    6.4857  -18.9403   17.9336 N   0  0  0  0  0  0  0  0  0  0  0  0
    7.1379  -17.6939   18.0435 C   0  0  0  0  0  0  0  0  0  0  0  0
    8.0655  -17.4135   17.2467 O   0  0  0  0  0  0  0  0  0  0  0  0
    6.7251  -16.7289   19.0949 C   0  0  0  0  0  0  0  0  0  0  0  0
    7.8611  -16.4077   20.0316 C   0  0  2  0  0  0  0  0  0  0  0  0
    8.9325  -17.3573   20.0190 N   0  0  0  0  0  0  0  0  0  0  0  0
    7.3020  -16.2127   21.3985 C   0  0  0  0  0  0  0  0  0  0  0  0
    6.3859  -15.4130   21.6532 O   0  0  0  0  0  0  0  0  0  0  0  0
    7.9209  -20.4003   26.0124 N   0  0  0  0  0  0  0  0  0  0  0  0
    7.2718  -19.3489   26.7197 C   0  0  0  0  0  0  0  0  0  0  0  0
    6.8772  -19.5231   27.8917 O   0  0  0  0  0  0  0  0  0  0  0  0
    7.0986  -18.0514   25.9794 C   0  0  0  0  0  0  0  0  0  0  0  0
    7.5545  -18.1695   24.5619 C   0  0  0  0  0  0  0  0  0  0  0  0
    7.3965  -16.8930   23.8246 C   0  0  2  0  0  0  0  0  0  0  0  0
    7.8562  -16.9871   22.4450 N   0  0  0  0  0  0  0  0  0  0  0  0
    8.0539  -15.7231   24.4365 C   0  0  0  0  0  0  0  0  0  0  0  0
    9.2633  -15.3995   24.2883 O   0  0  0  0  0  0  0  0  0  0  0  0
    5.9544  -12.2514   25.1717 C   0  0  0  0  0  0  0  0  0  0  0  0
    6.7936  -12.7174   26.3404 C   0  0  2  0  0  0  0  0  0  0  0  0
    7.3764  -11.5261   27.0532 C   0  0  0  0  0  0  0  0  0  0  0  0
    7.9051  -13.6555   25.8687 C   0  0  2  0  0  0  0  0  0  0  0  0
    7.3008  -14.8398   25.2862 N   0  0  0  0  0  0  0  0  0  0  0  0
    8.6828  -14.0318   27.1023 C   0  0  0  0  0  0  0  0  0  0  0  0
    9.7136  -13.2789   27.5775 O   0  0  0  0  0  0  0  0  0  0  0  0
    8.3622  -15.0838   27.7116 O   0  0  0  0  0  0  0  0  0  0  0  0
  2  1  1  0
  2  3  2  0
  4  2  1  0
  5  7  1  0
  5  4  1  0
  5  6  1  1
  7  8  2  0
  9 10  1  0
 10 11  2  0
 12 10  1  0
 12 13  1  0
 14 13  1  1
 15 14  1  0
 15  7  1  0
 16 17  2  0
 16 14  1  0
 19 18  1  6
 19 21  1  0
 20 19  1  0
 21 22  1  1
 22 16  1  0
 23 21  1  0
 23 24  1  0
 25 23  2  0
M  END
$$$$
