NQV.pdb
     RDKit          3D

 25 24  0  0  1  0  0  0  0  0999 V2000
   13.8409  -16.0062   13.1371 N   0  0  0  0  0  0  0  0  0  0  0  0
   13.6712  -16.6331   14.3898 C   0  0  0  0  0  0  0  0  0  0  0  0
   13.8649  -17.8686   14.4898 O   0  0  0  0  0  0  0  0  0  0  0  0
   13.2668  -15.8317   15.5735 C   0  0  0  0  0  0  0  0  0  0  0  0
   13.0223  -16.7038   16.7780 C   0  0  2  0  0  0  0  0  0  0  0  0
   12.8268  -18.0908   16.4817 N   0  0  0  0  0  0  0  0  0  0  0  0
   11.8843  -16.1305   17.5497 C   0  0  0  0  0  0  0  0  0  0  0  0
   11.8013  -14.9281   17.8510 O   0  0  0  0  0  0  0  0  0  0  0  0
    6.4374  -19.1074   18.0699 N   0  0  0  0  0  0  0  0  0  0  0  0
    6.7946  -18.3019   16.9515 C   0  0  0  0  0  0  0  0  0  0  0  0
    6.1298  -18.3534   15.8956 O   0  0  0  0  0  0  0  0  0  0  0  0
    7.9934  -17.4106   17.1242 C   0  0  0  0  0  0  0  0  0  0  0  0
    8.5260  -17.4802   18.5180 C   0  0  0  0  0  0  0  0  0  0  0  0
    9.6906  -16.5827   18.7078 C   0  0  2  0  0  0  0  0  0  0  0  0
   10.8570  -17.0172   17.9501 N   0  0  0  0  0  0  0  0  0  0  0  0
   10.1146  -16.3830   20.1063 C   0  0  0  0  0  0  0  0  0  0  0  0
   11.1614  -16.8510   20.6302 O   0  0  0  0  0  0  0  0  0  0  0  0
    9.1752  -14.0420   24.4240 C   0  0  0  0  0  0  0  0  0  0  0  0
    8.7743  -14.3310   22.9945 C   0  0  2  0  0  0  0  0  0  0  0  0
    7.3321  -14.7610   22.9494 C   0  0  0  0  0  0  0  0  0  0  0  0
    9.6735  -15.4083   22.3875 C   0  0  2  0  0  0  0  0  0  0  0  0
    9.3034  -15.5963   20.9965 N   0  0  0  0  0  0  0  0  0  0  0  0
    9.3965  -16.6678   23.1654 C   0  0  0  0  0  0  0  0  0  0  0  0
   10.1120  -17.0201   24.2696 O   0  0  0  0  0  0  0  0  0  0  0  0
    8.4669  -17.4183   22.7739 O   0  0  0  0  0  0  0  0  0  0  0  0
  2  1  1  0
  2  3  2  0
  4  2  1  0
  5  7  1  0
  5  4  1  0
  5  6  1  6
  7  8  2  0
  9 10  1  0
 10 11  2  0
 12 10  1  0
 12 13  1  0
 14 13  1  1
 15 14  1  0
 15  7  1  0
 16 17  2  0
 16 14  1  0
 19 18  1  1
 19 21  1  0
 20 19  1  0
 21 22  1  6
 22 16  1  0
 23 21  1  0
 23 24  1  0
 25 23  2  0
M  END
$$$$
