NQV.pdb
     RDKit          3D

 25 24  0  0  1  0  0  0  0  0999 V2000
    9.7040  -13.7716   17.3278 N   0  0  0  0  0  0  0  0  0  0  0  0
    8.3267  -13.5055   17.4806 C   0  0  0  0  0  0  0  0  0  0  0  0
    7.6663  -13.0991   16.4944 O   0  0  0  0  0  0  0  0  0  0  0  0
    7.6725  -13.7066   18.7992 C   0  0  0  0  0  0  0  0  0  0  0  0
    8.6451  -14.2199   19.8296 C   0  0  2  0  0  0  0  0  0  0  0  0
    9.4639  -15.3083   19.3884 N   0  0  0  0  0  0  0  0  0  0  0  0
    7.8853  -14.5564   21.0660 C   0  0  0  0  0  0  0  0  0  0  0  0
    7.0328  -13.8053   21.5686 O   0  0  0  0  0  0  0  0  0  0  0  0
    4.3778  -18.2407   21.3394 N   0  0  0  0  0  0  0  0  0  0  0  0
    5.2764  -18.2701   22.4435 C   0  0  0  0  0  0  0  0  0  0  0  0
    4.8439  -18.2175   23.6138 O   0  0  0  0  0  0  0  0  0  0  0  0
    6.7402  -18.3659   22.1126 C   0  0  0  0  0  0  0  0  0  0  0  0
    7.5756  -17.6717   23.1380 C   0  0  0  0  0  0  0  0  0  0  0  0
    7.5679  -16.2011   22.9507 C   0  0  2  0  0  0  0  0  0  0  0  0
    8.1637  -15.7987   21.6833 N   0  0  0  0  0  0  0  0  0  0  0  0
    8.2221  -15.4234   24.0196 C   0  0  0  0  0  0  0  0  0  0  0  0
    9.4648  -15.2572   24.1512 O   0  0  0  0  0  0  0  0  0  0  0  0
    6.2487  -12.2592   25.6856 C   0  0  0  0  0  0  0  0  0  0  0  0
    6.9511  -13.1093   26.7207 C   0  0  2  0  0  0  0  0  0  0  0  0
    7.5489  -12.2247   27.7824 C   0  0  0  0  0  0  0  0  0  0  0  0
    8.0336  -13.9707   26.0696 C   0  0  2  0  0  0  0  0  0  0  0  0
    7.4246  -14.7772   25.0275 N   0  0  0  0  0  0  0  0  0  0  0  0
    8.5675  -14.8617   27.1600 C   0  0  0  0  0  0  0  0  0  0  0  0
    9.6332  -14.5153   27.9342 O   0  0  0  0  0  0  0  0  0  0  0  0
    8.0021  -15.9672   27.3572 O   0  0  0  0  0  0  0  0  0  0  0  0
  2  1  1  0
  2  3  2  0
  4  2  1  0
  5  7  1  0
  5  4  1  0
  5  6  1  6
  7  8  2  0
  9 10  1  0
 10 11  2  0
 12 10  1  0
 12 13  1  0
 14 13  1  1
 15 14  1  0
 15  7  1  0
 16 17  2  0
 16 14  1  0
 19 18  1  6
 19 21  1  0
 20 19  1  0
 21 22  1  6
 22 16  1  0
 23 21  1  0
 23 24  1  0
 25 23  2  0
M  END
$$$$
