NQV.pdb
     RDKit          3D

 25 24  0  0  1  0  0  0  0  0999 V2000
    2.3986  -18.2642   20.7736 N   0  0  0  0  0  0  0  0  0  0  0  0
    3.3958  -18.7185   21.6626 C   0  0  0  0  0  0  0  0  0  0  0  0
    3.0584  -19.1915   22.7745 O   0  0  0  0  0  0  0  0  0  0  0  0
    4.8284  -18.6340   21.2788 C   0  0  0  0  0  0  0  0  0  0  0  0
    5.7007  -18.2909   22.4590 C   0  0  2  0  0  0  0  0  0  0  0  0
    5.0091  -17.6871   23.5575 N   0  0  0  0  0  0  0  0  0  0  0  0
    6.8312  -17.4483   21.9782 C   0  0  0  0  0  0  0  0  0  0  0  0
    7.4249  -17.6506   20.9057 O   0  0  0  0  0  0  0  0  0  0  0  0
    8.1317  -12.3203   19.1369 N   0  0  0  0  0  0  0  0  0  0  0  0
    8.0406  -13.7315   18.9715 C   0  0  0  0  0  0  0  0  0  0  0  0
    7.5214  -14.2167   17.9446 O   0  0  0  0  0  0  0  0  0  0  0  0
    8.5964  -14.5734   20.0868 C   0  0  0  0  0  0  0  0  0  0  0  0
    7.7330  -14.5021   21.3036 C   0  0  0  0  0  0  0  0  0  0  0  0
    8.2288  -15.3890   22.3832 C   0  0  2  0  0  0  0  0  0  0  0  0
    7.2334  -16.3685   22.7993 N   0  0  0  0  0  0  0  0  0  0  0  0
    8.7137  -14.7016   23.5945 C   0  0  0  0  0  0  0  0  0  0  0  0
    9.6571  -13.8663   23.6369 O   0  0  0  0  0  0  0  0  0  0  0  0
    6.5679  -12.7891   25.7094 C   0  0  0  0  0  0  0  0  0  0  0  0
    7.3286  -13.6137   26.7238 C   0  0  2  0  0  0  0  0  0  0  0  0
    7.7691  -12.7347   27.8641 C   0  0  0  0  0  0  0  0  0  0  0  0
    8.5348  -14.2928   26.0743 C   0  0  2  0  0  0  0  0  0  0  0  0
    8.0963  -14.9678   24.8663 N   0  0  0  0  0  0  0  0  0  0  0  0
    9.0309  -15.3038   27.0742 C   0  0  0  0  0  0  0  0  0  0  0  0
    9.7607  -14.9545   28.1699 O   0  0  0  0  0  0  0  0  0  0  0  0
    8.7567  -16.5158   26.8830 O   0  0  0  0  0  0  0  0  0  0  0  0
  2  1  1  0
  2  3  2  0
  4  2  1  0
  5  7  1  0
  5  4  1  0
  5  6  1  1
  7  8  2  0
  9 10  1  0
 10 11  2  0
 12 10  1  0
 12 13  1  0
 14 13  1  6
 15 14  1  0
 15  7  1  0
 16 17  2  0
 16 14  1  0
 19 18  1  6
 19 21  1  0
 20 19  1  0
 21 22  1  6
 22 16  1  0
 23 21  1  0
 23 24  1  0
 25 23  2  0
M  END
$$$$
