NQV.pdb
     RDKit          3D

 25 24  0  0  1  0  0  0  0  0999 V2000
    9.0558  -13.1199   17.1976 N   0  0  0  0  0  0  0  0  0  0  0  0
    7.7432  -13.5396   17.5009 C   0  0  0  0  0  0  0  0  0  0  0  0
    6.8477  -13.4348   16.6285 O   0  0  0  0  0  0  0  0  0  0  0  0
    7.4325  -14.0983   18.8418 C   0  0  0  0  0  0  0  0  0  0  0  0
    8.6463  -14.1076   19.7350 C   0  0  2  0  0  0  0  0  0  0  0  0
    9.7880  -14.7734   19.1846 N   0  0  0  0  0  0  0  0  0  0  0  0
    8.2527  -14.6713   21.0565 C   0  0  0  0  0  0  0  0  0  0  0  0
    7.2429  -14.3054   21.6809 O   0  0  0  0  0  0  0  0  0  0  0  0
   10.9300  -19.7826   23.6276 N   0  0  0  0  0  0  0  0  0  0  0  0
   10.1965  -19.2954   24.7465 C   0  0  0  0  0  0  0  0  0  0  0  0
   10.1997  -19.9214   25.8271 O   0  0  0  0  0  0  0  0  0  0  0  0
    9.4391  -18.0123   24.5432 C   0  0  0  0  0  0  0  0  0  0  0  0
    9.6417  -17.4744   23.1645 C   0  0  0  0  0  0  0  0  0  0  0  0
    8.8727  -16.2265   22.9419 C   0  0  2  0  0  0  0  0  0  0  0  0
    9.0845  -15.6727   21.6108 N   0  0  0  0  0  0  0  0  0  0  0  0
    9.1178  -15.1493   23.9190 C   0  0  0  0  0  0  0  0  0  0  0  0
   10.1536  -14.4331   23.9780 O   0  0  0  0  0  0  0  0  0  0  0  0
    6.4626  -12.4383   24.8619 C   0  0  0  0  0  0  0  0  0  0  0  0
    6.9797  -13.0864   26.1269 C   0  0  2  0  0  0  0  0  0  0  0  0
    7.1137  -12.0491   27.2099 C   0  0  0  0  0  0  0  0  0  0  0  0
    8.3224  -13.7726   25.8736 C   0  0  2  0  0  0  0  0  0  0  0  0
    8.1255  -14.8448   24.9150 N   0  0  0  0  0  0  0  0  0  0  0  0
    8.7538  -14.3436   27.1987 C   0  0  0  0  0  0  0  0  0  0  0  0
    9.3840  -13.5979   28.1484 O   0  0  0  0  0  0  0  0  0  0  0  0
    8.5198  -15.5571   27.4299 O   0  0  0  0  0  0  0  0  0  0  0  0
  2  1  1  0
  2  3  2  0
  4  2  1  0
  5  7  1  0
  5  4  1  0
  5  6  1  6
  7  8  2  0
  9 10  1  0
 10 11  2  0
 12 10  1  0
 12 13  1  0
 14 13  1  1
 15 14  1  0
 15  7  1  0
 16 17  2  0
 16 14  1  0
 19 18  1  6
 19 21  1  0
 20 19  1  0
 21 22  1  6
 22 16  1  0
 23 21  1  0
 23 24  1  0
 25 23  2  0
M  END
$$$$
