NQV.pdb
     RDKit          3D

 25 24  0  0  1  0  0  0  0  0999 V2000
    9.0028  -17.6215   18.4144 N   0  0  0  0  0  0  0  0  0  0  0  0
    8.5379  -16.3027   18.6037 C   0  0  0  0  0  0  0  0  0  0  0  0
    8.9412  -15.3934   17.8392 O   0  0  0  0  0  0  0  0  0  0  0  0
    7.5810  -16.0019   19.6995 C   0  0  0  0  0  0  0  0  0  0  0  0
    7.1682  -17.2507   20.4353 C   0  0  2  0  0  0  0  0  0  0  0  0
    6.1275  -18.0016   19.8005 N   0  0  0  0  0  0  0  0  0  0  0  0
    6.8157  -16.8770   21.8336 C   0  0  0  0  0  0  0  0  0  0  0  0
    5.8935  -16.0950   22.1191 O   0  0  0  0  0  0  0  0  0  0  0  0
    8.0233  -20.6195   26.6401 N   0  0  0  0  0  0  0  0  0  0  0  0
    7.3831  -19.5453   27.3210 C   0  0  0  0  0  0  0  0  0  0  0  0
    7.0570  -19.6608   28.5210 O   0  0  0  0  0  0  0  0  0  0  0  0
    7.1335  -18.2982   26.5187 C   0  0  0  0  0  0  0  0  0  0  0  0
    7.4780  -18.5000   25.0793 C   0  0  0  0  0  0  0  0  0  0  0  0
    7.2643  -17.2672   24.2840 C   0  0  2  0  0  0  0  0  0  0  0  0
    7.5823  -17.4528   22.8741 N   0  0  0  0  0  0  0  0  0  0  0  0
    7.9951  -16.0757   24.7545 C   0  0  0  0  0  0  0  0  0  0  0  0
    9.2148  -15.8331   24.5473 O   0  0  0  0  0  0  0  0  0  0  0  0
    5.9133  -12.5347   25.3602 C   0  0  0  0  0  0  0  0  0  0  0  0
    6.9214  -12.8610   26.4394 C   0  0  2  0  0  0  0  0  0  0  0  0
    7.5754  -11.5938   26.9224 C   0  0  0  0  0  0  0  0  0  0  0  0
    7.9729  -13.8416   25.9193 C   0  0  2  0  0  0  0  0  0  0  0  0
    7.3097  -15.0701   25.5214 N   0  0  0  0  0  0  0  0  0  0  0  0
    8.8983  -14.1112   27.0765 C   0  0  0  0  0  0  0  0  0  0  0  0
    9.9430  -13.2939   27.3860 O   0  0  0  0  0  0  0  0  0  0  0  0
    8.6921  -15.1329   27.7796 O   0  0  0  0  0  0  0  0  0  0  0  0
  2  1  1  0
  2  3  2  0
  4  2  1  0
  5  7  1  0
  5  4  1  0
  5  6  1  6
  7  8  2  0
  9 10  1  0
 10 11  2  0
 12 10  1  0
 12 13  1  0
 14 13  1  1
 15 14  1  0
 15  7  1  0
 16 17  2  0
 16 14  1  0
 19 18  1  6
 19 21  1  0
 20 19  1  0
 21 22  1  1
 22 16  1  0
 23 21  1  0
 23 24  1  0
 25 23  2  0
M  END
$$$$
