SND.pdb
     RDKit          3D

 23 22  0  0  1  0  0  0  0  0999 V2000
   28.4955  -19.1307  -17.5656 O   0  0  0  0  0  0  0  0  0  0  0  0
   27.5314  -19.7889  -16.8277 C   0  0  0  0  0  0  0  0  0  0  0  0
   28.1570  -20.8713  -15.9351 C   0  0  2  0  0  0  0  0  0  0  0  0
   28.5319  -21.9516  -16.7894 N   0  0  0  0  0  0  0  0  0  0  0  0
   27.1649  -21.2114  -14.9167 C   0  0  0  0  0  0  0  0  0  0  0  0
   26.3907  -22.1973  -15.1507 O   0  0  0  0  0  0  0  0  0  0  0  0
   24.2720  -21.6123  -10.6108 N   0  0  0  0  0  0  0  0  0  0  0  0
   25.3308  -20.7271  -10.3273 C   0  0  0  0  0  0  0  0  0  0  0  0
   25.4991  -20.3082   -9.1638 O   0  0  0  0  0  0  0  0  0  0  0  0
   26.2450  -20.2893  -11.3969 C   0  0  0  0  0  0  0  0  0  0  0  0
   25.9195  -20.9008  -12.7508 C   0  0  2  0  0  0  0  0  0  0  0  0
   26.9762  -20.5472  -13.6807 N   0  0  0  0  0  0  0  0  0  0  0  0
   24.5923  -20.4517  -13.2077 C   0  0  0  0  0  0  0  0  0  0  0  0
   24.4362  -19.2742  -13.5890 O   0  0  0  0  0  0  0  0  0  0  0  0
   23.5085  -21.3426  -13.2150 N   0  0  0  0  0  0  0  0  0  0  0  0
   22.2095  -21.0669  -13.7669 C   0  0  1  0  0  0  0  0  0  0  0  0
   21.7781  -22.0912  -14.7908 C   0  0  0  0  0  0  0  0  0  0  0  0
   20.4763  -21.6737  -15.3453 C   0  0  0  0  0  0  0  0  0  0  0  0
   20.2015  -20.4428  -15.5279 O   0  0  0  0  0  0  0  0  0  0  0  0
   21.2328  -21.0223  -12.6528 C   0  0  0  0  0  0  0  0  0  0  0  0
   20.2822  -20.0254  -12.5984 O   0  0  0  0  0  0  0  0  0  0  0  0
   19.4631  -22.5590  -15.7070 O   0  0  0  0  0  0  0  0  0  0  0  0
   21.2378  -21.8794  -11.7338 O   0  0  0  0  0  0  0  0  0  0  0  0
  2  3  1  0
  2  1  1  0
  3  4  1  6
  3  5  1  0
  5  6  2  0
  7  8  1  0
  8  9  2  0
  8 10  1  0
 11 10  1  1
 11 13  1  0
 12  5  1  0
 12 11  1  0
 13 14  2  0
 15 16  1  0
 15 13  1  0
 16 20  1  0
 17 18  1  0
 16 17  1  6
 18 19  2  0
 20 21  1  0
 22 18  1  0
 23 20  2  0
M  END
$$$$
