SND.pdb
     RDKit          3D

 23 22  0  0  1  0  0  0  0  0999 V2000
   16.5799  -13.7299  -15.5008 O   0  0  0  0  0  0  0  0  0  0  0  0
   17.7960  -13.1135  -15.7206 C   0  0  0  0  0  0  0  0  0  0  0  0
   17.6251  -11.5990  -15.9124 C   0  0  2  0  0  0  0  0  0  0  0  0
   17.2353  -11.3915  -17.2698 N   0  0  0  0  0  0  0  0  0  0  0  0
   18.8925  -10.9748  -15.5367 C   0  0  0  0  0  0  0  0  0  0  0  0
   19.3645  -11.2419  -14.3825 O   0  0  0  0  0  0  0  0  0  0  0  0
   22.8375  -11.4478  -15.4006 N   0  0  0  0  0  0  0  0  0  0  0  0
   22.8884  -10.7944  -16.6477 C   0  0  0  0  0  0  0  0  0  0  0  0
   23.7280  -11.1452  -17.5020 O   0  0  0  0  0  0  0  0  0  0  0  0
   21.9555   -9.6956  -16.9539 C   0  0  0  0  0  0  0  0  0  0  0  0
   20.8975   -9.4914  -15.8806 C   0  0  2  0  0  0  0  0  0  0  0  0
   19.6579  -10.0927  -16.3370 N   0  0  0  0  0  0  0  0  0  0  0  0
   20.7501   -8.0572  -15.5758 C   0  0  0  0  0  0  0  0  0  0  0  0
   20.0798   -7.3299  -16.3361 O   0  0  0  0  0  0  0  0  0  0  0  0
   21.3595   -7.5104  -14.4365 N   0  0  0  0  0  0  0  0  0  0  0  0
   21.3447   -6.1193  -14.0725 C   0  0  1  0  0  0  0  0  0  0  0  0
   22.5801   -5.3799  -14.5315 C   0  0  0  0  0  0  0  0  0  0  0  0
   22.4707   -3.9756  -14.0928 C   0  0  0  0  0  0  0  0  0  0  0  0
   21.9659   -3.6756  -12.9617 O   0  0  0  0  0  0  0  0  0  0  0  0
   20.1347   -5.4988  -14.6626 C   0  0  0  0  0  0  0  0  0  0  0  0
   19.5614   -6.0308  -15.7977 O   0  0  0  0  0  0  0  0  0  0  0  0
   22.8953   -2.8867  -14.8511 O   0  0  0  0  0  0  0  0  0  0  0  0
   19.5982   -4.4820  -14.1552 O   0  0  0  0  0  0  0  0  0  0  0  0
  2  3  1  0
  2  1  1  0
  3  4  1  6
  3  5  1  0
  5  6  2  0
  7  8  1  0
  8  9  2  0
  8 10  1  0
 11 10  1  6
 11 13  1  0
 12  5  1  0
 12 11  1  0
 13 14  2  0
 15 16  1  0
 15 13  1  0
 16 20  1  0
 17 18  1  0
 16 17  1  6
 18 19  2  0
 20 21  1  0
 22 18  1  0
 23 20  2  0
M  END
$$$$
