SND.pdb
     RDKit          3D

 23 22  0  0  1  0  0  0  0  0999 V2000
   22.5551  -11.3901  -19.9696 O   0  0  0  0  0  0  0  0  0  0  0  0
   21.9217  -10.5299  -19.0942 C   0  0  0  0  0  0  0  0  0  0  0  0
   22.9056   -9.5024  -18.5146 C   0  0  2  0  0  0  0  0  0  0  0  0
   23.9540  -10.2380  -17.8841 N   0  0  0  0  0  0  0  0  0  0  0  0
   22.1408   -8.6360  -17.6194 C   0  0  0  0  0  0  0  0  0  0  0  0
   21.2204   -7.9186  -18.1337 O   0  0  0  0  0  0  0  0  0  0  0  0
   19.5444   -6.6468  -13.6396 N   0  0  0  0  0  0  0  0  0  0  0  0
   20.3250   -7.7168  -13.1594 C   0  0  0  0  0  0  0  0  0  0  0  0
   20.1952   -8.1036  -11.9799 O   0  0  0  0  0  0  0  0  0  0  0  0
   21.2975   -8.3863  -14.0410 C   0  0  0  0  0  0  0  0  0  0  0  0
   21.4636   -7.6940  -15.3850 C   0  0  2  0  0  0  0  0  0  0  0  0
   22.3223   -8.5130  -16.2207 N   0  0  0  0  0  0  0  0  0  0  0  0
   21.9935   -6.3321  -15.1953 C   0  0  0  0  0  0  0  0  0  0  0  0
   23.1633   -6.1753  -14.7910 O   0  0  0  0  0  0  0  0  0  0  0  0
   21.1883   -5.2160  -15.4678 N   0  0  0  0  0  0  0  0  0  0  0  0
   21.6275   -3.8470  -15.4389 C   0  0  1  0  0  0  0  0  0  0  0  0
   21.2129   -3.0721  -16.6682 C   0  0  0  0  0  0  0  0  0  0  0  0
   21.7598   -1.7061  -16.5625 C   0  0  0  0  0  0  0  0  0  0  0  0
   22.9856   -1.5068  -16.2768 O   0  0  0  0  0  0  0  0  0  0  0  0
   21.0688   -3.2067  -14.2245 C   0  0  0  0  0  0  0  0  0  0  0  0
   21.8252   -2.3135  -13.4963 O   0  0  0  0  0  0  0  0  0  0  0  0
   21.0094   -0.5486  -16.7589 O   0  0  0  0  0  0  0  0  0  0  0  0
   19.9034   -3.4525  -13.8236 O   0  0  0  0  0  0  0  0  0  0  0  0
  2  3  1  0
  2  1  1  0
  3  4  1  1
  3  5  1  0
  5  6  2  0
  7  8  1  0
  8  9  2  0
  8 10  1  0
 11 10  1  1
 11 13  1  0
 12  5  1  0
 12 11  1  0
 13 14  2  0
 15 16  1  0
 15 13  1  0
 16 20  1  0
 17 18  1  0
 16 17  1  6
 18 19  2  0
 20 21  1  0
 22 18  1  0
 23 20  2  0
M  END
$$$$
