SND.pdb
     RDKit          3D

 23 22  0  0  1  0  0  0  0  0999 V2000
   22.6479  -17.1054  -18.2929 O   0  0  0  0  0  0  0  0  0  0  0  0
   23.6805  -16.6729  -17.4843 C   0  0  0  0  0  0  0  0  0  0  0  0
   24.8962  -17.6061  -17.5878 C   0  0  2  0  0  0  0  0  0  0  0  0
   25.1818  -17.7671  -18.9771 N   0  0  0  0  0  0  0  0  0  0  0  0
   24.5482  -18.8408  -16.8868 C   0  0  0  0  0  0  0  0  0  0  0  0
   23.9865  -19.7660  -17.5612 O   0  0  0  0  0  0  0  0  0  0  0  0
   26.6899  -21.2302  -16.0970 N   0  0  0  0  0  0  0  0  0  0  0  0
   26.6458  -21.2893  -14.6900 C   0  0  0  0  0  0  0  0  0  0  0  0
   27.6230  -21.7337  -14.0534 O   0  0  0  0  0  0  0  0  0  0  0  0
   25.4511  -20.8295  -13.9602 C   0  0  0  0  0  0  0  0  0  0  0  0
   24.3395  -20.3426  -14.8770 C   0  0  2  0  0  0  0  0  0  0  0  0
   24.7760  -19.1152  -15.5167 N   0  0  0  0  0  0  0  0  0  0  0  0
   23.0898  -20.1685  -14.1156 C   0  0  0  0  0  0  0  0  0  0  0  0
   23.0343  -19.3162  -13.2062 O   0  0  0  0  0  0  0  0  0  0  0  0
   21.9668  -20.9559  -14.4107 N   0  0  0  0  0  0  0  0  0  0  0  0
   20.6854  -20.8510  -13.7666 C   0  0  1  0  0  0  0  0  0  0  0  0
   19.5353  -20.8420  -14.7468 C   0  0  0  0  0  0  0  0  0  0  0  0
   19.2480  -19.4421  -15.1129 C   0  0  0  0  0  0  0  0  0  0  0  0
   19.9650  -18.4850  -14.6727 O   0  0  0  0  0  0  0  0  0  0  0  0
   20.5432  -21.9907  -12.8296 C   0  0  0  0  0  0  0  0  0  0  0  0
   19.6452  -21.9272  -11.7856 O   0  0  0  0  0  0  0  0  0  0  0  0
   18.2007  -19.0534  -15.9456 O   0  0  0  0  0  0  0  0  0  0  0  0
   21.2261  -23.0383  -12.9537 O   0  0  0  0  0  0  0  0  0  0  0  0
  2  3  1  0
  2  1  1  0
  3  4  1  6
  3  5  1  0
  5  6  2  0
  7  8  1  0
  8  9  2  0
  8 10  1  0
 11 10  1  1
 11 13  1  0
 12  5  1  0
 12 11  1  0
 13 14  2  0
 15 16  1  0
 15 13  1  0
 16 20  1  0
 17 18  1  0
 16 17  1  6
 18 19  2  0
 20 21  1  0
 22 18  1  0
 23 20  2  0
M  END
$$$$
