SND.pdb
     RDKit          3D

 23 22  0  0  1  0  0  0  0  0999 V2000
   14.5419  -13.5564  -10.6770 O   0  0  0  0  0  0  0  0  0  0  0  0
   14.8100  -12.2261  -10.9328 C   0  0  0  0  0  0  0  0  0  0  0  0
   13.9325  -11.3062  -10.0705 C   0  0  2  0  0  0  0  0  0  0  0  0
   12.5757  -11.5676  -10.4287 N   0  0  0  0  0  0  0  0  0  0  0  0
   14.3782   -9.9360  -10.3171 C   0  0  0  0  0  0  0  0  0  0  0  0
   13.9475   -9.3534  -11.3666 O   0  0  0  0  0  0  0  0  0  0  0  0
   16.7513   -4.9003   -7.8160 N   0  0  0  0  0  0  0  0  0  0  0  0
   16.0548   -5.5867   -8.8302 C   0  0  0  0  0  0  0  0  0  0  0  0
   15.8381   -5.0290   -9.9255 O   0  0  0  0  0  0  0  0  0  0  0  0
   15.5775   -6.9631   -8.6085 C   0  0  0  0  0  0  0  0  0  0  0  0
   15.6971   -7.8446   -9.8420 C   0  0  2  0  0  0  0  0  0  0  0  0
   15.2511   -9.1818   -9.4962 N   0  0  0  0  0  0  0  0  0  0  0  0
   17.0799   -7.8251  -10.3510 C   0  0  0  0  0  0  0  0  0  0  0  0
   17.9462   -8.5437   -9.8129 O   0  0  0  0  0  0  0  0  0  0  0  0
   17.4224   -7.0037  -11.4355 N   0  0  0  0  0  0  0  0  0  0  0  0
   18.7104   -6.9637  -12.0739 C   0  0  1  0  0  0  0  0  0  0  0  0
   19.1513   -8.3139  -12.5897 C   0  0  0  0  0  0  0  0  0  0  0  0
   20.4705   -8.1577  -13.2314 C   0  0  0  0  0  0  0  0  0  0  0  0
   20.5951   -8.1907  -14.4993 O   0  0  0  0  0  0  0  0  0  0  0  0
   18.6437   -5.9919  -13.1912 C   0  0  0  0  0  0  0  0  0  0  0  0
   17.4244   -5.5596  -13.6674 O   0  0  0  0  0  0  0  0  0  0  0  0
   21.6601   -7.9667  -12.5316 O   0  0  0  0  0  0  0  0  0  0  0  0
   19.6811   -5.5356  -13.7339 O   0  0  0  0  0  0  0  0  0  0  0  0
  2  3  1  0
  2  1  1  0
  3  4  1  6
  3  5  1  0
  5  6  2  0
  7  8  1  0
  8  9  2  0
  8 10  1  0
 11 10  1  1
 11 13  1  0
 12  5  1  0
 12 11  1  0
 13 14  2  0
 15 16  1  0
 15 13  1  0
 16 20  1  0
 17 18  1  0
 16 17  1  6
 18 19  2  0
 20 21  1  0
 22 18  1  0
 23 20  2  0
M  END
$$$$
