SND.pdb
     RDKit          3D

 23 22  0  0  1  0  0  0  0  0999 V2000
   19.2415  -11.2444  -19.7072 O   0  0  0  0  0  0  0  0  0  0  0  0
   19.1181  -10.3170  -18.6914 C   0  0  0  0  0  0  0  0  0  0  0  0
   20.2685  -10.4425  -17.6810 C   0  0  2  0  0  0  0  0  0  0  0  0
   20.1645  -11.7371  -17.0888 N   0  0  0  0  0  0  0  0  0  0  0  0
   20.1380   -9.3279  -16.7442 C   0  0  0  0  0  0  0  0  0  0  0  0
   19.0255   -9.1935  -16.1355 O   0  0  0  0  0  0  0  0  0  0  0  0
   20.7792   -5.0046  -13.8941 N   0  0  0  0  0  0  0  0  0  0  0  0
   22.0019   -5.7008  -13.9660 C   0  0  0  0  0  0  0  0  0  0  0  0
   22.9535   -5.3678  -13.2302 O   0  0  0  0  0  0  0  0  0  0  0  0
   22.1684   -6.8231  -14.9062 C   0  0  0  0  0  0  0  0  0  0  0  0
   20.8814   -7.1992  -15.6240 C   0  0  2  0  0  0  0  0  0  0  0  0
   21.1367   -8.3711  -16.4412 N   0  0  0  0  0  0  0  0  0  0  0  0
   20.3852   -6.0581  -16.4134 C   0  0  0  0  0  0  0  0  0  0  0  0
   20.9689   -5.7363  -17.4680 O   0  0  0  0  0  0  0  0  0  0  0  0
   19.2619   -5.3360  -15.9832 N   0  0  0  0  0  0  0  0  0  0  0  0
   18.6536   -4.2437  -16.6936 C   0  0  1  0  0  0  0  0  0  0  0  0
   17.3427   -4.6237  -17.3423 C   0  0  0  0  0  0  0  0  0  0  0  0
   16.8373   -3.4550  -18.0874 C   0  0  0  0  0  0  0  0  0  0  0  0
   17.6244   -2.5333  -18.4811 O   0  0  0  0  0  0  0  0  0  0  0  0
   18.4417   -3.1304  -15.7382 C   0  0  0  0  0  0  0  0  0  0  0  0
   18.9051   -1.8649  -16.0284 O   0  0  0  0  0  0  0  0  0  0  0  0
   15.4976   -3.2602  -18.4166 O   0  0  0  0  0  0  0  0  0  0  0  0
   17.8409   -3.2999  -14.6476 O   0  0  0  0  0  0  0  0  0  0  0  0
  2  3  1  0
  2  1  1  0
  3  4  1  1
  3  5  1  0
  5  6  2  0
  7  8  1  0
  8  9  2  0
  8 10  1  0
 11 10  1  6
 11 13  1  0
 12  5  1  0
 12 11  1  0
 13 14  2  0
 15 16  1  0
 15 13  1  0
 16 20  1  0
 17 18  1  0
 16 17  1  1
 18 19  2  0
 20 21  1  0
 22 18  1  0
 23 20  2  0
M  END
$$$$
