SND.pdb
     RDKit          3D

 23 22  0  0  1  0  0  0  0  0999 V2000
   16.5180  -10.5050  -17.3238 O   0  0  0  0  0  0  0  0  0  0  0  0
   17.1924   -9.5176  -16.6328 C   0  0  0  0  0  0  0  0  0  0  0  0
   18.1623  -10.1211  -15.6058 C   0  0  2  0  0  0  0  0  0  0  0  0
   17.3870  -10.4882  -14.4649 N   0  0  0  0  0  0  0  0  0  0  0  0
   19.1925   -9.1162  -15.3489 C   0  0  0  0  0  0  0  0  0  0  0  0
   18.8704   -8.1065  -14.6395 O   0  0  0  0  0  0  0  0  0  0  0  0
   23.6521   -6.3618  -15.1830 N   0  0  0  0  0  0  0  0  0  0  0  0
   23.9635   -7.6892  -15.5378 C   0  0  0  0  0  0  0  0  0  0  0  0
   25.1557   -8.0490  -15.6224 O   0  0  0  0  0  0  0  0  0  0  0  0
   22.8900   -8.6607  -15.8114 C   0  0  0  0  0  0  0  0  0  0  0  0
   21.5022   -8.1251  -15.4948 C   0  0  2  0  0  0  0  0  0  0  0  0
   20.5289   -9.1530  -15.8147 N   0  0  0  0  0  0  0  0  0  0  0  0
   21.2598   -6.8705  -16.2290 C   0  0  0  0  0  0  0  0  0  0  0  0
   21.0595   -6.9041  -17.4599 O   0  0  0  0  0  0  0  0  0  0  0  0
   21.2535   -5.6435  -15.5489 N   0  0  0  0  0  0  0  0  0  0  0  0
   20.6390   -4.4331  -16.0235 C   0  0  1  0  0  0  0  0  0  0  0  0
   19.1293   -4.4965  -16.0073 C   0  0  0  0  0  0  0  0  0  0  0  0
   18.6050   -3.2129  -16.5110 C   0  0  0  0  0  0  0  0  0  0  0  0
   19.3837   -2.2362  -16.7636 O   0  0  0  0  0  0  0  0  0  0  0  0
   21.1078   -3.3119  -15.1747 C   0  0  0  0  0  0  0  0  0  0  0  0
   21.9360   -3.5507  -14.0989 O   0  0  0  0  0  0  0  0  0  0  0  0
   17.2553   -2.9611  -16.7477 O   0  0  0  0  0  0  0  0  0  0  0  0
   20.7714   -2.1230  -15.4041 O   0  0  0  0  0  0  0  0  0  0  0  0
  2  3  1  0
  2  1  1  0
  3  4  1  1
  3  5  1  0
  5  6  2  0
  7  8  1  0
  8  9  2  0
  8 10  1  0
 11 10  1  6
 11 13  1  0
 12  5  1  0
 12 11  1  0
 13 14  2  0
 15 16  1  0
 15 13  1  0
 16 20  1  0
 17 18  1  0
 16 17  1  1
 18 19  2  0
 20 21  1  0
 22 18  1  0
 23 20  2  0
M  END
$$$$
