SND.pdb
     RDKit          3D

 23 22  0  0  1  0  0  0  0  0999 V2000
   16.5032  -14.6600  -14.4552 O   0  0  0  0  0  0  0  0  0  0  0  0
   16.9213  -13.3943  -14.8166 C   0  0  0  0  0  0  0  0  0  0  0  0
   15.9456  -12.7497  -15.8126 C   0  0  2  0  0  0  0  0  0  0  0  0
   16.0188  -13.5087  -17.0193 N   0  0  0  0  0  0  0  0  0  0  0  0
   16.3357  -11.3472  -15.9463 C   0  0  0  0  0  0  0  0  0  0  0  0
   17.2578  -11.0665  -16.7813 O   0  0  0  0  0  0  0  0  0  0  0  0
   14.6729   -5.7745  -16.1746 N   0  0  0  0  0  0  0  0  0  0  0  0
   15.3524   -6.5372  -15.2043 C   0  0  0  0  0  0  0  0  0  0  0  0
   16.2197   -6.0011  -14.4845 O   0  0  0  0  0  0  0  0  0  0  0  0
   15.0472   -7.9683  -15.0309 C   0  0  0  0  0  0  0  0  0  0  0  0
   16.1836   -8.8803  -15.4666 C   0  0  2  0  0  0  0  0  0  0  0  0
   15.7844  -10.2559  -15.2325 N   0  0  0  0  0  0  0  0  0  0  0  0
   17.4246   -8.5243  -14.7562 C   0  0  0  0  0  0  0  0  0  0  0  0
   17.7315   -9.1283  -13.7086 O   0  0  0  0  0  0  0  0  0  0  0  0
   18.2585   -7.5118  -15.2539 N   0  0  0  0  0  0  0  0  0  0  0  0
   19.6579   -7.3664  -14.9569 C   0  0  1  0  0  0  0  0  0  0  0  0
   20.4656   -8.5894  -15.3250 C   0  0  0  0  0  0  0  0  0  0  0  0
   21.8710   -8.3493  -14.9458 C   0  0  0  0  0  0  0  0  0  0  0  0
   22.1724   -7.5337  -14.0141 O   0  0  0  0  0  0  0  0  0  0  0  0
   20.1670   -6.1836  -15.6911 C   0  0  0  0  0  0  0  0  0  0  0  0
   21.3253   -5.5563  -15.2851 O   0  0  0  0  0  0  0  0  0  0  0  0
   22.9595   -8.9721  -15.5528 O   0  0  0  0  0  0  0  0  0  0  0  0
   19.5688   -5.7198  -16.6942 O   0  0  0  0  0  0  0  0  0  0  0  0
  2  3  1  0
  2  1  1  0
  3  4  1  6
  3  5  1  0
  5  6  2  0
  7  8  1  0
  8  9  2  0
  8 10  1  0
 11 10  1  1
 11 13  1  0
 12  5  1  0
 12 11  1  0
 13 14  2  0
 15 16  1  0
 15 13  1  0
 16 20  1  0
 17 18  1  0
 16 17  1  6
 18 19  2  0
 20 21  1  0
 22 18  1  0
 23 20  2  0
M  END
$$$$
