SND.pdb
     RDKit          3D

 23 22  0  0  1  0  0  0  0  0999 V2000
   15.1366  -11.8269  -16.2553 O   0  0  0  0  0  0  0  0  0  0  0  0
   15.8983  -10.7227  -15.9270 C   0  0  0  0  0  0  0  0  0  0  0  0
   17.3833  -11.0917  -15.7917 C   0  0  2  0  0  0  0  0  0  0  0  0
   17.4620  -12.1707  -14.8605 N   0  0  0  0  0  0  0  0  0  0  0  0
   18.0899   -9.8785  -15.3847 C   0  0  0  0  0  0  0  0  0  0  0  0
   17.6721   -9.2712  -14.3441 O   0  0  0  0  0  0  0  0  0  0  0  0
   22.6846  -10.3363  -15.4060 N   0  0  0  0  0  0  0  0  0  0  0  0
   21.9813   -9.2340  -14.8814 C   0  0  0  0  0  0  0  0  0  0  0  0
   21.8818   -9.0881  -13.6458 O   0  0  0  0  0  0  0  0  0  0  0  0
   21.3593   -8.2475  -15.7821 C   0  0  0  0  0  0  0  0  0  0  0  0
   19.8614   -8.0986  -15.5647 C   0  0  2  0  0  0  0  0  0  0  0  0
   19.2062   -9.3037  -16.0389 N   0  0  0  0  0  0  0  0  0  0  0  0
   19.3663   -6.8849  -16.2381 C   0  0  0  0  0  0  0  0  0  0  0  0
   19.3245   -6.8436  -17.4843 O   0  0  0  0  0  0  0  0  0  0  0  0
   18.9431   -5.7805  -15.4834 N   0  0  0  0  0  0  0  0  0  0  0  0
   18.3970   -4.5648  -16.0234 C   0  0  1  0  0  0  0  0  0  0  0  0
   17.1852   -4.0779  -15.2630 C   0  0  0  0  0  0  0  0  0  0  0  0
   16.7131   -2.8295  -15.8917 C   0  0  0  0  0  0  0  0  0  0  0  0
   16.3653   -2.7991  -17.1173 O   0  0  0  0  0  0  0  0  0  0  0  0
   19.4582   -3.5301  -16.0009 C   0  0  0  0  0  0  0  0  0  0  0  0
   19.2734   -2.3276  -16.6491 O   0  0  0  0  0  0  0  0  0  0  0  0
   16.6089   -1.6113  -15.2237 O   0  0  0  0  0  0  0  0  0  0  0  0
   20.5461   -3.7113  -15.3986 O   0  0  0  0  0  0  0  0  0  0  0  0
  2  3  1  0
  2  1  1  0
  3  4  1  1
  3  5  1  0
  5  6  2  0
  7  8  1  0
  8  9  2  0
  8 10  1  0
 11 10  1  6
 11 13  1  0
 12  5  1  0
 12 11  1  0
 13 14  2  0
 15 16  1  0
 15 13  1  0
 16 20  1  0
 17 18  1  0
 16 17  1  1
 18 19  2  0
 20 21  1  0
 22 18  1  0
 23 20  2  0
M  END
$$$$
