SND.pdb
     RDKit          3D

 23 22  0  0  1  0  0  0  0  0999 V2000
   17.7500  -12.0277  -18.8789 O   0  0  0  0  0  0  0  0  0  0  0  0
   17.8239  -11.0283  -17.9287 C   0  0  0  0  0  0  0  0  0  0  0  0
   18.8820  -11.3513  -16.8630 C   0  0  2  0  0  0  0  0  0  0  0  0
   18.4388  -12.5214  -16.1760 N   0  0  0  0  0  0  0  0  0  0  0  0
   19.0195  -10.1628  -16.0231 C   0  0  0  0  0  0  0  0  0  0  0  0
   18.1634   -9.9929  -15.0933 O   0  0  0  0  0  0  0  0  0  0  0  0
   22.4054   -5.4106  -14.4000 N   0  0  0  0  0  0  0  0  0  0  0  0
   21.7320   -6.5929  -14.0345 C   0  0  0  0  0  0  0  0  0  0  0  0
   21.2883   -6.7252  -12.8755 O   0  0  0  0  0  0  0  0  0  0  0  0
   21.5461   -7.6795  -15.0123 C   0  0  0  0  0  0  0  0  0  0  0  0
   20.0841   -8.0087  -15.2714 C   0  0  2  0  0  0  0  0  0  0  0  0
   20.0215   -9.1694  -16.1404 N   0  0  0  0  0  0  0  0  0  0  0  0
   19.3909   -6.8395  -15.8407 C   0  0  0  0  0  0  0  0  0  0  0  0
   19.5668   -6.5404  -17.0391 O   0  0  0  0  0  0  0  0  0  0  0  0
   18.5367   -6.0655  -15.0410 N   0  0  0  0  0  0  0  0  0  0  0  0
   17.8189   -4.8988  -15.4785 C   0  0  1  0  0  0  0  0  0  0  0  0
   16.3321   -4.9965  -15.2266 C   0  0  0  0  0  0  0  0  0  0  0  0
   15.6935   -3.7667  -15.7328 C   0  0  0  0  0  0  0  0  0  0  0  0
   16.3818   -2.8416  -16.2753 O   0  0  0  0  0  0  0  0  0  0  0  0
   18.3756   -3.7205  -14.7724 C   0  0  0  0  0  0  0  0  0  0  0  0
   19.3944   -3.8736  -13.8564 O   0  0  0  0  0  0  0  0  0  0  0  0
   14.3249   -3.5143  -15.6650 O   0  0  0  0  0  0  0  0  0  0  0  0
   17.9445   -2.5588  -14.9822 O   0  0  0  0  0  0  0  0  0  0  0  0
  2  3  1  0
  2  1  1  0
  3  4  1  1
  3  5  1  0
  5  6  2  0
  7  8  1  0
  8  9  2  0
  8 10  1  0
 11 10  1  6
 11 13  1  0
 12  5  1  0
 12 11  1  0
 13 14  2  0
 15 16  1  0
 15 13  1  0
 16 20  1  0
 17 18  1  0
 16 17  1  1
 18 19  2  0
 20 21  1  0
 22 18  1  0
 23 20  2  0
M  END
$$$$
