SND.pdb
     RDKit          3D

 23 22  0  0  1  0  0  0  0  0999 V2000
   26.5176  -13.2632  -21.2584 O   0  0  0  0  0  0  0  0  0  0  0  0
   27.0621  -13.9538  -20.1936 C   0  0  0  0  0  0  0  0  0  0  0  0
   26.4880  -13.4586  -18.8576 C   0  0  2  0  0  0  0  0  0  0  0  0
   25.0720  -13.6263  -18.9241 N   0  0  0  0  0  0  0  0  0  0  0  0
   26.9339  -12.0770  -18.6865 C   0  0  0  0  0  0  0  0  0  0  0  0
   26.0395  -11.1706  -18.6178 O   0  0  0  0  0  0  0  0  0  0  0  0
   31.5281   -8.3999  -16.8899 N   0  0  0  0  0  0  0  0  0  0  0  0
   30.1948   -8.7753  -17.1475 C   0  0  0  0  0  0  0  0  0  0  0  0
   29.2769   -7.9379  -17.0285 O   0  0  0  0  0  0  0  0  0  0  0  0
   29.8727  -10.1534  -17.5576 C   0  0  0  0  0  0  0  0  0  0  0  0
   28.6407  -10.2420  -18.4448 C   0  0  2  0  0  0  0  0  0  0  0  0
   28.2769  -11.6398  -18.5877 N   0  0  0  0  0  0  0  0  0  0  0  0
   28.8977   -9.5905  -19.7414 C   0  0  0  0  0  0  0  0  0  0  0  0
   29.7561  -10.0658  -20.5120 O   0  0  0  0  0  0  0  0  0  0  0  0
   28.1815   -8.4418  -20.1096 N   0  0  0  0  0  0  0  0  0  0  0  0
   28.3724   -7.6969  -21.3248 C   0  0  1  0  0  0  0  0  0  0  0  0
   27.1808   -6.8378  -21.6793 C   0  0  0  0  0  0  0  0  0  0  0  0
   26.1568   -7.6980  -22.3019 C   0  0  0  0  0  0  0  0  0  0  0  0
   25.3658   -8.4011  -21.5919 O   0  0  0  0  0  0  0  0  0  0  0  0
   29.5778   -6.8493  -21.1641 C   0  0  0  0  0  0  0  0  0  0  0  0
   29.7606   -6.1074  -20.0168 O   0  0  0  0  0  0  0  0  0  0  0  0
   25.9688   -7.8155  -23.6774 O   0  0  0  0  0  0  0  0  0  0  0  0
   30.4613   -6.7799  -22.0551 O   0  0  0  0  0  0  0  0  0  0  0  0
  2  3  1  0
  2  1  1  0
  3  4  1  6
  3  5  1  0
  5  6  2  0
  7  8  1  0
  8  9  2  0
  8 10  1  0
 11 10  1  1
 11 13  1  0
 12  5  1  0
 12 11  1  0
 13 14  2  0
 15 16  1  0
 15 13  1  0
 16 20  1  0
 17 18  1  0
 16 17  1  1
 18 19  2  0
 20 21  1  0
 22 18  1  0
 23 20  2  0
M  END
$$$$
