SND.pdb
     RDKit          3D

 23 22  0  0  1  0  0  0  0  0999 V2000
   27.0074  -13.9595  -18.3435 O   0  0  0  0  0  0  0  0  0  0  0  0
   26.1196  -12.9063  -18.4417 C   0  0  0  0  0  0  0  0  0  0  0  0
   26.5381  -11.7398  -17.5339 C   0  0  2  0  0  0  0  0  0  0  0  0
   27.0608  -12.3109  -16.3347 N   0  0  0  0  0  0  0  0  0  0  0  0
   25.3574  -10.8982  -17.3478 C   0  0  0  0  0  0  0  0  0  0  0  0
   24.8946  -10.2933  -18.3706 O   0  0  0  0  0  0  0  0  0  0  0  0
   20.2475   -9.8125  -15.9366 N   0  0  0  0  0  0  0  0  0  0  0  0
   21.2473   -9.7284  -14.9475 C   0  0  0  0  0  0  0  0  0  0  0  0
   21.0733   -9.0062  -13.9445 O   0  0  0  0  0  0  0  0  0  0  0  0
   22.5019  -10.4885  -15.0870 C   0  0  0  0  0  0  0  0  0  0  0  0
   23.5006   -9.8292  -16.0256 C   0  0  2  0  0  0  0  0  0  0  0  0
   24.6678  -10.6855  -16.1297 N   0  0  0  0  0  0  0  0  0  0  0  0
   23.8345   -8.4761  -15.5466 C   0  0  0  0  0  0  0  0  0  0  0  0
   24.8597   -8.3003  -14.8578 O   0  0  0  0  0  0  0  0  0  0  0  0
   23.0051   -7.3897  -15.8629 N   0  0  0  0  0  0  0  0  0  0  0  0
   23.2693   -6.0166  -15.5269 C   0  0  1  0  0  0  0  0  0  0  0  0
   23.5703   -5.1641  -16.7377 C   0  0  0  0  0  0  0  0  0  0  0  0
   23.8608   -3.7923  -16.2792 C   0  0  0  0  0  0  0  0  0  0  0  0
   24.6001   -3.5793  -15.2633 O   0  0  0  0  0  0  0  0  0  0  0  0
   22.0881   -5.4795  -14.8104 C   0  0  0  0  0  0  0  0  0  0  0  0
   22.2115   -4.3791  -13.9894 O   0  0  0  0  0  0  0  0  0  0  0  0
   23.3687   -2.6437  -16.8955 O   0  0  0  0  0  0  0  0  0  0  0  0
   20.9506   -6.0012  -14.9259 O   0  0  0  0  0  0  0  0  0  0  0  0
  2  3  1  0
  2  1  1  0
  3  4  1  1
  3  5  1  0
  5  6  2  0
  7  8  1  0
  8  9  2  0
  8 10  1  0
 11 10  1  1
 11 13  1  0
 12  5  1  0
 12 11  1  0
 13 14  2  0
 15 16  1  0
 15 13  1  0
 16 20  1  0
 17 18  1  0
 16 17  1  6
 18 19  2  0
 20 21  1  0
 22 18  1  0
 23 20  2  0
M  END
$$$$
