LML.pdb
     RDKit          3D

 25 24  0  0  1  0  0  0  0  0999 V2000
   29.2159  -17.8995  -15.5691 C   0  0  0  0  0  0  0  0  0  0  0  0
   28.2967  -18.6304  -16.5497 C   0  0  2  0  0  0  0  0  0  0  0  0
   27.7073  -17.5917  -17.4633 C   0  0  0  0  0  0  0  0  0  0  0  0
   27.2545  -19.4314  -15.8157 C   0  0  0  0  0  0  0  0  0  0  0  0
   27.8962  -20.3905  -14.8656 C   0  0  2  0  0  0  0  0  0  0  0  0
   28.4629  -21.4887  -15.6254 N   0  0  0  0  0  0  0  0  0  0  0  0
   26.9552  -20.9499  -13.8784 C   0  0  0  0  0  0  0  0  0  0  0  0
   26.1620  -21.8914  -14.1889 O   0  0  0  0  0  0  0  0  0  0  0  0
   27.4053  -20.0497   -7.4307 C   0  0  0  0  0  0  0  0  0  0  0  0
   25.6332  -20.2909   -7.5458 S   0  0  0  0  0  0  0  0  0  0  0  0
   25.1194  -20.8081   -9.2269 C   0  0  0  0  0  0  0  0  0  0  0  0
   26.1530  -20.4615  -10.2349 C   0  0  0  0  0  0  0  0  0  0  0  0
   25.8065  -20.9480  -11.6133 C   0  0  2  0  0  0  0  0  0  0  0  0
   26.8599  -20.4953  -12.5366 N   0  0  0  0  0  0  0  0  0  0  0  0
   24.4838  -20.4678  -12.1062 C   0  0  0  0  0  0  0  0  0  0  0  0
   24.3893  -19.2819  -12.4931 O   0  0  0  0  0  0  0  0  0  0  0  0
   21.4154  -20.9169  -16.4980 C   0  0  0  0  0  0  0  0  0  0  0  0
   20.9441  -20.6952  -15.0079 C   0  0  1  0  0  0  0  0  0  0  0  0
   19.7997  -21.7018  -14.9081 C   0  0  0  0  0  0  0  0  0  0  0  0
   22.1244  -21.0169  -14.1948 C   0  0  0  0  0  0  0  0  0  0  0  0
   22.1080  -20.7456  -12.7458 C   0  0  2  0  0  0  0  0  0  0  0  0
   23.3507  -21.2952  -12.1499 N   0  0  0  0  0  0  0  0  0  0  0  0
   20.9966  -21.3380  -12.0243 C   0  0  0  0  0  0  0  0  0  0  0  0
   19.8976  -20.6920  -11.9425 O   0  0  0  0  0  0  0  0  0  0  0  0
   20.9963  -22.5648  -11.4062 O   0  0  0  0  0  0  0  0  0  0  0  0
  2  1  1  1
  3  2  1  0
  4  2  1  0
  4  5  1  0
  5  6  1  6
  7  5  1  0
  7  8  2  0
  9 10  1  0
 10 11  1  0
 11 12  1  0
 13 12  1  1
 13 14  1  0
 14  7  1  0
 15 13  1  0
 16 15  2  0
 18 17  1  6
 18 19  1  0
 21 20  1  6
 20 18  1  0
 21 22  1  0
 22 15  1  0
 23 21  1  0
 24 23  2  0
 25 23  1  0
M  END
$$$$
