LML.pdb
     RDKit          3D

 25 24  0  0  1  0  0  0  0  0999 V2000
   26.7304  -17.2283  -17.1123 C   0  0  0  0  0  0  0  0  0  0  0  0
   28.1060  -17.8972  -17.0787 C   0  0  2  0  0  0  0  0  0  0  0  0
   28.5657  -18.0379  -18.5034 C   0  0  0  0  0  0  0  0  0  0  0  0
   28.0485  -19.2101  -16.3441 C   0  0  0  0  0  0  0  0  0  0  0  0
   27.4334  -19.0342  -14.9932 C   0  0  2  0  0  0  0  0  0  0  0  0
   28.1631  -18.0023  -14.2809 N   0  0  0  0  0  0  0  0  0  0  0  0
   27.4576  -20.2622  -14.1779 C   0  0  0  0  0  0  0  0  0  0  0  0
   26.8967  -21.3277  -14.5804 O   0  0  0  0  0  0  0  0  0  0  0  0
   31.8575  -21.4280   -9.5486 C   0  0  0  0  0  0  0  0  0  0  0  0
   32.1467  -21.7430  -11.2890 S   0  0  0  0  0  0  0  0  0  0  0  0
   30.5824  -21.8310  -12.2391 C   0  0  0  0  0  0  0  0  0  0  0  0
   29.4053  -21.6384  -11.3549 C   0  0  0  0  0  0  0  0  0  0  0  0
   28.1099  -21.5907  -12.1140 C   0  0  2  0  0  0  0  0  0  0  0  0
   28.0917  -20.3530  -12.9106 N   0  0  0  0  0  0  0  0  0  0  0  0
   26.9002  -21.6306  -11.2433 C   0  0  0  0  0  0  0  0  0  0  0  0
   26.6698  -22.6750  -10.5946 O   0  0  0  0  0  0  0  0  0  0  0  0
   26.3551  -19.4748   -6.9076 C   0  0  0  0  0  0  0  0  0  0  0  0
   26.2017  -20.5482   -8.0549 C   0  0  1  0  0  0  0  0  0  0  0  0
   25.7600  -21.7725   -7.2556 C   0  0  0  0  0  0  0  0  0  0  0  0
   25.1787  -19.9903   -8.9491 C   0  0  0  0  0  0  0  0  0  0  0  0
   24.8595  -20.6800  -10.2124 C   0  0  2  0  0  0  0  0  0  0  0  0
   26.0187  -20.5441  -11.1286 N   0  0  0  0  0  0  0  0  0  0  0  0
   23.7016  -20.1616  -10.9177 C   0  0  0  0  0  0  0  0  0  0  0  0
   23.8691  -19.5996  -12.0525 O   0  0  0  0  0  0  0  0  0  0  0  0
   22.3990  -20.2200  -10.4854 O   0  0  0  0  0  0  0  0  0  0  0  0
  2  1  1  6
  3  2  1  0
  4  2  1  0
  4  5  1  0
  5  6  1  1
  7  5  1  0
  7  8  2  0
  9 10  1  0
 10 11  1  0
 11 12  1  0
 13 12  1  1
 13 14  1  0
 14  7  1  0
 15 13  1  0
 16 15  2  0
 18 17  1  1
 18 19  1  0
 21 20  1  1
 20 18  1  0
 21 22  1  0
 22 15  1  0
 23 21  1  0
 24 23  2  0
 25 23  1  0
M  END
$$$$
