LML.pdb
     RDKit          3D

 25 24  0  0  1  0  0  0  0  0999 V2000
   28.8412  -17.1526  -15.6417 C   0  0  0  0  0  0  0  0  0  0  0  0
   27.8759  -17.8338  -16.6138 C   0  0  2  0  0  0  0  0  0  0  0  0
   27.2250  -16.7486  -17.4259 C   0  0  0  0  0  0  0  0  0  0  0  0
   26.8853  -18.6936  -15.8750 C   0  0  0  0  0  0  0  0  0  0  0  0
   27.5894  -19.7115  -15.0368 C   0  0  2  0  0  0  0  0  0  0  0  0
   28.2136  -20.6843  -15.9135 N   0  0  0  0  0  0  0  0  0  0  0  0
   26.6904  -20.4305  -14.1160 C   0  0  0  0  0  0  0  0  0  0  0  0
   26.0306  -21.4442  -14.5019 O   0  0  0  0  0  0  0  0  0  0  0  0
   26.6683  -19.8611   -7.3408 C   0  0  0  0  0  0  0  0  0  0  0  0
   25.7222  -21.2764   -7.9010 S   0  0  0  0  0  0  0  0  0  0  0  0
   24.8748  -20.9483   -9.4921 C   0  0  0  0  0  0  0  0  0  0  0  0
   25.7941  -20.3119  -10.4691 C   0  0  0  0  0  0  0  0  0  0  0  0
   25.5099  -20.7215  -11.8862 C   0  0  2  0  0  0  0  0  0  0  0  0
   26.4929  -20.0597  -12.7596 N   0  0  0  0  0  0  0  0  0  0  0  0
   24.1346  -20.3773  -12.3480 C   0  0  0  0  0  0  0  0  0  0  0  0
   23.8730  -19.1787  -12.5923 O   0  0  0  0  0  0  0  0  0  0  0  0
   21.9611  -21.9651  -16.7105 C   0  0  0  0  0  0  0  0  0  0  0  0
   22.3565  -21.0008  -15.5249 C   0  0  1  0  0  0  0  0  0  0  0  0
   21.8657  -19.6576  -16.0614 C   0  0  0  0  0  0  0  0  0  0  0  0
   21.6128  -21.5142  -14.3668 C   0  0  0  0  0  0  0  0  0  0  0  0
   21.8164  -20.9038  -13.0403 C   0  0  2  0  0  0  0  0  0  0  0  0
   23.1322  -21.3456  -12.5159 N   0  0  0  0  0  0  0  0  0  0  0  0
   20.8238  -21.2605  -12.0432 C   0  0  0  0  0  0  0  0  0  0  0  0
   21.0786  -22.2115  -11.2294 O   0  0  0  0  0  0  0  0  0  0  0  0
   19.6012  -20.6589  -11.8685 O   0  0  0  0  0  0  0  0  0  0  0  0
  2  1  1  1
  3  2  1  0
  4  2  1  0
  4  5  1  0
  5  6  1  6
  7  5  1  0
  7  8  2  0
  9 10  1  0
 10 11  1  0
 11 12  1  0
 13 12  1  1
 13 14  1  0
 14  7  1  0
 15 13  1  0
 16 15  2  0
 18 17  1  6
 18 19  1  0
 21 20  1  6
 20 18  1  0
 21 22  1  0
 22 15  1  0
 23 21  1  0
 24 23  2  0
 25 23  1  0
M  END
$$$$
