LML.pdb
     RDKit          3D

 25 24  0  0  1  0  0  0  0  0999 V2000
   22.7072  -17.2196  -20.7585 C   0  0  0  0  0  0  0  0  0  0  0  0
   23.0801  -17.0421  -19.2853 C   0  0  2  0  0  0  0  0  0  0  0  0
   23.8595  -15.7609  -19.1764 C   0  0  0  0  0  0  0  0  0  0  0  0
   23.8364  -18.2390  -18.7734 C   0  0  0  0  0  0  0  0  0  0  0  0
   23.7064  -18.3518  -17.2885 C   0  0  2  0  0  0  0  0  0  0  0  0
   24.3374  -17.1972  -16.6775 N   0  0  0  0  0  0  0  0  0  0  0  0
   24.3365  -19.5661  -16.7393 C   0  0  0  0  0  0  0  0  0  0  0  0
   24.0145  -20.7197  -17.1605 O   0  0  0  0  0  0  0  0  0  0  0  0
   29.8885  -19.3586  -13.3042 C   0  0  0  0  0  0  0  0  0  0  0  0
   29.7787  -21.1090  -13.6733 S   0  0  0  0  0  0  0  0  0  0  0  0
   28.0995  -21.5886  -14.2279 C   0  0  0  0  0  0  0  0  0  0  0  0
   27.3571  -20.4205  -14.7653 C   0  0  0  0  0  0  0  0  0  0  0  0
   25.9640  -20.7698  -15.2055 C   0  0  2  0  0  0  0  0  0  0  0  0
   25.3274  -19.5473  -15.7224 N   0  0  0  0  0  0  0  0  0  0  0  0
   25.1160  -21.3426  -14.1212 C   0  0  0  0  0  0  0  0  0  0  0  0
   25.3630  -22.5030  -13.7246 O   0  0  0  0  0  0  0  0  0  0  0  0
   25.2775  -19.4488   -9.5284 C   0  0  0  0  0  0  0  0  0  0  0  0
   25.2307  -20.3949  -10.7912 C   0  0  1  0  0  0  0  0  0  0  0  0
   25.8048  -21.6868  -10.2128 C   0  0  0  0  0  0  0  0  0  0  0  0
   23.8088  -20.4571  -11.1543 C   0  0  0  0  0  0  0  0  0  0  0  0
   23.3932  -21.2175  -12.3471 C   0  0  2  0  0  0  0  0  0  0  0  0
   24.0583  -20.6290  -13.5357 N   0  0  0  0  0  0  0  0  0  0  0  0
   21.9665  -21.2067  -12.6138 C   0  0  0  0  0  0  0  0  0  0  0  0
   21.5363  -20.6034  -13.6544 O   0  0  0  0  0  0  0  0  0  0  0  0
   20.9962  -21.8036  -11.8460 O   0  0  0  0  0  0  0  0  0  0  0  0
  2  1  1  6
  3  2  1  0
  4  2  1  0
  4  5  1  0
  5  6  1  1
  7  5  1  0
  7  8  2  0
  9 10  1  0
 10 11  1  0
 11 12  1  0
 13 12  1  1
 13 14  1  0
 14  7  1  0
 15 13  1  0
 16 15  2  0
 18 17  1  1
 18 19  1  0
 21 20  1  1
 20 18  1  0
 21 22  1  0
 22 15  1  0
 23 21  1  0
 24 23  2  0
 25 23  1  0
M  END
$$$$
