LML.pdb
     RDKit          3D

 25 24  0  0  1  0  0  0  0  0999 V2000
   22.2612  -17.2557  -15.8063 C   0  0  0  0  0  0  0  0  0  0  0  0
   23.0071  -18.4627  -16.3785 C   0  0  2  0  0  0  0  0  0  0  0  0
   22.2352  -18.9321  -17.5805 C   0  0  0  0  0  0  0  0  0  0  0  0
   23.1816  -19.5326  -15.3338 C   0  0  0  0  0  0  0  0  0  0  0  0
   24.0934  -19.0658  -14.2453 C   0  0  2  0  0  0  0  0  0  0  0  0
   25.1655  -18.2888  -14.8381 N   0  0  0  0  0  0  0  0  0  0  0  0
   24.6951  -20.1700  -13.4759 C   0  0  0  0  0  0  0  0  0  0  0  0
   24.0446  -21.2339  -13.2376 O   0  0  0  0  0  0  0  0  0  0  0  0
   31.0887  -20.5398  -13.1008 C   0  0  0  0  0  0  0  0  0  0  0  0
   30.1653  -21.5500  -14.2579 S   0  0  0  0  0  0  0  0  0  0  0  0
   28.3615  -21.4768  -13.9443 C   0  0  0  0  0  0  0  0  0  0  0  0
   28.0745  -21.2981  -12.4985 C   0  0  0  0  0  0  0  0  0  0  0  0
   26.6030  -21.2562  -12.1992 C   0  0  2  0  0  0  0  0  0  0  0  0
   26.0145  -20.1365  -12.9521 N   0  0  0  0  0  0  0  0  0  0  0  0
   26.2878  -21.0920  -10.7511 C   0  0  0  0  0  0  0  0  0  0  0  0
   27.2011  -20.7153   -9.9838 O   0  0  0  0  0  0  0  0  0  0  0  0
   27.1111  -18.6748   -7.0793 C   0  0  0  0  0  0  0  0  0  0  0  0
   26.8801  -20.0542   -7.8113 C   0  0  1  0  0  0  0  0  0  0  0  0
   27.0997  -21.0373   -6.6632 C   0  0  0  0  0  0  0  0  0  0  0  0
   25.5002  -19.9821   -8.3096 C   0  0  0  0  0  0  0  0  0  0  0  0
   24.8219  -21.2115   -8.7592 C   0  0  2  0  0  0  0  0  0  0  0  0
   25.0111  -21.3442  -10.2249 N   0  0  0  0  0  0  0  0  0  0  0  0
   23.3918  -21.2466   -8.5138 C   0  0  0  0  0  0  0  0  0  0  0  0
   22.5937  -20.9375   -9.4620 O   0  0  0  0  0  0  0  0  0  0  0  0
   22.7827  -21.5971   -7.3334 O   0  0  0  0  0  0  0  0  0  0  0  0
  2  1  1  1
  3  2  1  0
  4  2  1  0
  4  5  1  0
  5  6  1  6
  7  5  1  0
  7  8  2  0
  9 10  1  0
 10 11  1  0
 11 12  1  0
 13 12  1  1
 13 14  1  0
 14  7  1  0
 15 13  1  0
 16 15  2  0
 18 17  1  1
 18 19  1  0
 21 20  1  6
 20 18  1  0
 21 22  1  0
 22 15  1  0
 23 21  1  0
 24 23  2  0
 25 23  1  0
M  END
$$$$
