LML.pdb
     RDKit          3D

 25 24  0  0  1  0  0  0  0  0999 V2000
   20.0791  -17.5167  -14.2989 C   0  0  0  0  0  0  0  0  0  0  0  0
   21.0941  -17.4762  -15.4431 C   0  0  2  0  0  0  0  0  0  0  0  0
   22.3990  -17.9853  -14.8965 C   0  0  0  0  0  0  0  0  0  0  0  0
   21.1967  -16.0906  -16.0228 C   0  0  0  0  0  0  0  0  0  0  0  0
   19.8704  -15.6329  -16.5383 C   0  0  2  0  0  0  0  0  0  0  0  0
   19.4997  -16.4625  -17.6691 N   0  0  0  0  0  0  0  0  0  0  0  0
   19.8707  -14.2261  -16.9789 C   0  0  0  0  0  0  0  0  0  0  0  0
   20.3669  -13.8896  -18.0980 O   0  0  0  0  0  0  0  0  0  0  0  0
   14.5415  -12.0831  -19.2639 C   0  0  0  0  0  0  0  0  0  0  0  0
   15.4895  -11.2504  -17.9911 S   0  0  0  0  0  0  0  0  0  0  0  0
   17.2201  -11.8486  -17.9234 C   0  0  0  0  0  0  0  0  0  0  0  0
   17.9425  -11.2725  -16.7611 C   0  0  0  0  0  0  0  0  0  0  0  0
   19.3601  -11.7589  -16.6588 C   0  0  2  0  0  0  0  0  0  0  0  0
   19.3317  -13.1607  -16.2104 N   0  0  0  0  0  0  0  0  0  0  0  0
   20.2037  -10.9622  -15.7225 C   0  0  0  0  0  0  0  0  0  0  0  0
   20.0065  -11.0868  -14.4935 O   0  0  0  0  0  0  0  0  0  0  0  0
   25.5004  -10.5200  -15.5936 C   0  0  0  0  0  0  0  0  0  0  0  0
   24.0100  -10.7099  -15.1092 C   0  0  1  0  0  0  0  0  0  0  0  0
   24.2195  -11.0338  -13.6314 C   0  0  0  0  0  0  0  0  0  0  0  0
   23.3671   -9.4160  -15.3746 C   0  0  0  0  0  0  0  0  0  0  0  0
   21.9163   -9.2647  -15.1601 C   0  0  2  0  0  0  0  0  0  0  0  0
   21.2033  -10.0844  -16.1707 N   0  0  0  0  0  0  0  0  0  0  0  0
   21.4164   -7.9082  -15.2885 C   0  0  0  0  0  0  0  0  0  0  0  0
   21.7677   -7.0352  -14.4247 O   0  0  0  0  0  0  0  0  0  0  0  0
   20.5845   -7.4437  -16.2781 O   0  0  0  0  0  0  0  0  0  0  0  0
  2  1  1  1
  3  2  1  0
  4  2  1  0
  4  5  1  0
  5  6  1  6
  7  5  1  0
  7  8  2  0
  9 10  1  0
 10 11  1  0
 11 12  1  0
 13 12  1  1
 13 14  1  0
 14  7  1  0
 15 13  1  0
 16 15  2  0
 18 17  1  6
 18 19  1  0
 21 20  1  6
 20 18  1  0
 21 22  1  0
 22 15  1  0
 23 21  1  0
 24 23  2  0
 25 23  1  0
M  END
$$$$
