LML.pdb
     RDKit          3D

 25 24  0  0  1  0  0  0  0  0999 V2000
   17.5944  -11.4289  -18.9258 C   0  0  0  0  0  0  0  0  0  0  0  0
   16.6738  -11.7795  -17.7551 C   0  0  2  0  0  0  0  0  0  0  0  0
   15.3237  -12.1012  -18.3336 C   0  0  0  0  0  0  0  0  0  0  0  0
   16.6337  -10.6611  -16.7481 C   0  0  0  0  0  0  0  0  0  0  0  0
   17.9534  -10.5205  -16.0603 C   0  0  2  0  0  0  0  0  0  0  0  0
   18.2189  -11.7343  -15.3113 N   0  0  0  0  0  0  0  0  0  0  0  0
   18.0049   -9.3815  -15.1260 C   0  0  0  0  0  0  0  0  0  0  0  0
   17.4558   -9.4456  -13.9830 O   0  0  0  0  0  0  0  0  0  0  0  0
   22.6412   -5.7844  -12.7527 C   0  0  0  0  0  0  0  0  0  0  0  0
   22.4983   -5.6960  -14.5370 S   0  0  0  0  0  0  0  0  0  0  0  0
   20.9609   -6.4887  -15.1417 C   0  0  0  0  0  0  0  0  0  0  0  0
   20.0023   -6.7184  -14.0314 C   0  0  0  0  0  0  0  0  0  0  0  0
   18.6067   -6.9908  -14.5157 C   0  0  2  0  0  0  0  0  0  0  0  0
   18.6541   -8.1529  -15.4181 N   0  0  0  0  0  0  0  0  0  0  0  0
   17.9825   -5.8408  -15.2307 C   0  0  0  0  0  0  0  0  0  0  0  0
   18.1061   -5.7769  -16.4739 O   0  0  0  0  0  0  0  0  0  0  0  0
   13.0193   -3.9220  -15.6482 C   0  0  0  0  0  0  0  0  0  0  0  0
   14.4820   -4.3383  -16.0714 C   0  0  1  0  0  0  0  0  0  0  0  0
   14.4857   -3.9427  -17.5467 C   0  0  0  0  0  0  0  0  0  0  0  0
   15.3593   -3.5325  -15.2119 C   0  0  0  0  0  0  0  0  0  0  0  0
   16.8226   -3.6561  -15.3429 C   0  0  2  0  0  0  0  0  0  0  0  0
   17.2670   -4.8360  -14.5606 N   0  0  0  0  0  0  0  0  0  0  0  0
   17.5795   -2.5176  -14.8556 C   0  0  0  0  0  0  0  0  0  0  0  0
   18.1075   -2.5774  -13.6940 O   0  0  0  0  0  0  0  0  0  0  0  0
   17.8044   -1.3456  -15.5359 O   0  0  0  0  0  0  0  0  0  0  0  0
  2  1  1  6
  3  2  1  0
  4  2  1  0
  4  5  1  0
  5  6  1  1
  7  5  1  0
  7  8  2  0
  9 10  1  0
 10 11  1  0
 11 12  1  0
 13 12  1  6
 13 14  1  0
 14  7  1  0
 15 13  1  0
 16 15  2  0
 18 17  1  1
 18 19  1  0
 21 20  1  1
 20 18  1  0
 21 22  1  0
 22 15  1  0
 23 21  1  0
 24 23  2  0
 25 23  1  0
M  END
$$$$
