LML.pdb
     RDKit          3D

 25 24  0  0  1  0  0  0  0  0999 V2000
   25.7049  -17.8719  -16.1067 C   0  0  0  0  0  0  0  0  0  0  0  0
   26.5905  -18.6309  -15.1166 C   0  0  2  0  0  0  0  0  0  0  0  0
   27.6345  -17.6665  -14.6258 C   0  0  0  0  0  0  0  0  0  0  0  0
   27.1770  -19.8627  -15.7535 C   0  0  0  0  0  0  0  0  0  0  0  0
   26.1189  -20.6490  -16.4581 C   0  0  2  0  0  0  0  0  0  0  0  0
   25.1868  -21.1623  -15.4720 N   0  0  0  0  0  0  0  0  0  0  0  0
   26.6538  -21.7891  -17.2244 C   0  0  0  0  0  0  0  0  0  0  0  0
   27.6910  -21.6654  -17.9460 O   0  0  0  0  0  0  0  0  0  0  0  0
   29.5618  -27.1285  -17.2840 C   0  0  0  0  0  0  0  0  0  0  0  0
   28.2892  -27.1155  -16.0222 S   0  0  0  0  0  0  0  0  0  0  0  0
   27.3456  -25.5448  -16.0163 C   0  0  0  0  0  0  0  0  0  0  0  0
   26.4293  -25.4643  -17.1818 C   0  0  0  0  0  0  0  0  0  0  0  0
   26.6227  -24.2113  -17.9875 C   0  0  2  0  0  0  0  0  0  0  0  0
   26.0700  -23.0836  -17.2196 N   0  0  0  0  0  0  0  0  0  0  0  0
   25.9759  -24.2532  -19.3302 C   0  0  0  0  0  0  0  0  0  0  0  0
   24.7761  -23.9114  -19.4222 O   0  0  0  0  0  0  0  0  0  0  0  0
   28.3221  -22.6220  -24.0430 C   0  0  0  0  0  0  0  0  0  0  0  0
   27.4040  -22.7510  -22.7654 C   0  0  1  0  0  0  0  0  0  0  0  0
   26.3626  -21.6680  -23.0405 C   0  0  0  0  0  0  0  0  0  0  0  0
   26.8936  -24.1275  -22.8141 C   0  0  0  0  0  0  0  0  0  0  0  0
   25.9475  -24.5916  -21.7829 C   0  0  2  0  0  0  0  0  0  0  0  0
   26.6628  -24.6604  -20.4848 N   0  0  0  0  0  0  0  0  0  0  0  0
   25.3782  -25.9053  -22.0208 C   0  0  0  0  0  0  0  0  0  0  0  0
   25.8639  -26.9113  -21.4013 O   0  0  0  0  0  0  0  0  0  0  0  0
   24.3314  -26.1921  -22.8629 O   0  0  0  0  0  0  0  0  0  0  0  0
  2  1  1  6
  3  2  1  0
  4  2  1  0
  4  5  1  0
  5  6  1  1
  7  5  1  0
  7  8  2  0
  9 10  1  0
 10 11  1  0
 11 12  1  0
 13 12  1  1
 13 14  1  0
 14  7  1  0
 15 13  1  0
 16 15  2  0
 18 17  1  6
 18 19  1  0
 21 20  1  6
 20 18  1  0
 21 22  1  0
 22 15  1  0
 23 21  1  0
 24 23  2  0
 25 23  1  0
M  END
$$$$
