LML.pdb
     RDKit          3D

 25 24  0  0  1  0  0  0  0  0999 V2000
   22.8647  -16.8400  -18.6753 C   0  0  0  0  0  0  0  0  0  0  0  0
   24.3855  -16.7918  -18.8355 C   0  0  2  0  0  0  0  0  0  0  0  0
   24.6710  -16.5776  -20.2961 C   0  0  0  0  0  0  0  0  0  0  0  0
   25.0246  -18.0389  -18.2853 C   0  0  0  0  0  0  0  0  0  0  0  0
   24.5822  -18.2840  -16.8787 C   0  0  2  0  0  0  0  0  0  0  0  0
   25.0183  -17.1730  -16.0539 N   0  0  0  0  0  0  0  0  0  0  0  0
   25.1287  -19.5269  -16.3044 C   0  0  0  0  0  0  0  0  0  0  0  0
   24.9223  -20.6509  -16.8575 O   0  0  0  0  0  0  0  0  0  0  0  0
   30.6302  -20.4029  -12.7004 C   0  0  0  0  0  0  0  0  0  0  0  0
   30.4528  -19.7290  -14.3516 S   0  0  0  0  0  0  0  0  0  0  0  0
   28.8151  -20.1148  -15.0773 C   0  0  0  0  0  0  0  0  0  0  0  0
   27.8406  -20.5048  -14.0272 C   0  0  0  0  0  0  0  0  0  0  0  0
   26.4804  -20.8159  -14.5835 C   0  0  2  0  0  0  0  0  0  0  0  0
   25.9088  -19.5694  -15.1187 N   0  0  0  0  0  0  0  0  0  0  0  0
   25.5393  -21.3962  -13.5832 C   0  0  0  0  0  0  0  0  0  0  0  0
   25.7175  -22.5789  -13.2167 O   0  0  0  0  0  0  0  0  0  0  0  0
   25.3723  -19.8729   -8.8992 C   0  0  0  0  0  0  0  0  0  0  0  0
   25.3828  -20.7264  -10.2271 C   0  0  1  0  0  0  0  0  0  0  0  0
   25.8665  -22.0778   -9.7048 C   0  0  0  0  0  0  0  0  0  0  0  0
   23.9896  -20.7047  -10.6919 C   0  0  0  0  0  0  0  0  0  0  0  0
   23.6447  -21.3095  -11.9914 C   0  0  2  0  0  0  0  0  0  0  0  0
   24.4688  -20.6655  -13.0438 N   0  0  0  0  0  0  0  0  0  0  0  0
   22.2573  -21.1560  -12.3894 C   0  0  0  0  0  0  0  0  0  0  0  0
   21.3437  -21.6677  -11.6579 O   0  0  0  0  0  0  0  0  0  0  0  0
   21.8048  -20.4891  -13.5019 O   0  0  0  0  0  0  0  0  0  0  0  0
  2  1  1  6
  3  2  1  0
  4  2  1  0
  4  5  1  0
  5  6  1  1
  7  5  1  0
  7  8  2  0
  9 10  1  0
 10 11  1  0
 11 12  1  0
 13 12  1  1
 13 14  1  0
 14  7  1  0
 15 13  1  0
 16 15  2  0
 18 17  1  1
 18 19  1  0
 21 20  1  1
 20 18  1  0
 21 22  1  0
 22 15  1  0
 23 21  1  0
 24 23  2  0
 25 23  1  0
M  END
$$$$
