LML.pdb
     RDKit          3D

 25 24  0  0  1  0  0  0  0  0999 V2000
   23.8245  -19.1004  -13.5519 C   0  0  0  0  0  0  0  0  0  0  0  0
   23.0554  -20.1139  -12.7022 C   0  0  2  0  0  0  0  0  0  0  0  0
   21.7369  -19.4847  -12.3466 C   0  0  0  0  0  0  0  0  0  0  0  0
   23.8580  -20.5251  -11.4967 C   0  0  0  0  0  0  0  0  0  0  0  0
   25.1992  -21.0434  -11.9055 C   0  0  2  0  0  0  0  0  0  0  0  0
   25.0103  -22.2164  -12.7379 N   0  0  0  0  0  0  0  0  0  0  0  0
   26.0506  -21.4211  -10.7629 C   0  0  0  0  0  0  0  0  0  0  0  0
   25.6210  -22.1947   -9.8525 O   0  0  0  0  0  0  0  0  0  0  0  0
   32.4114  -21.4939  -11.2973 C   0  0  0  0  0  0  0  0  0  0  0  0
   32.2969  -22.1459   -9.6318 S   0  0  0  0  0  0  0  0  0  0  0  0
   30.5960  -22.0209   -8.9621 C   0  0  0  0  0  0  0  0  0  0  0  0
   29.6431  -21.5523   -9.9999 C   0  0  0  0  0  0  0  0  0  0  0  0
   28.2417  -21.4068   -9.4788 C   0  0  2  0  0  0  0  0  0  0  0  0
   27.3839  -20.9641  -10.5901 N   0  0  0  0  0  0  0  0  0  0  0  0
   28.1168  -20.4415   -8.3493 C   0  0  0  0  0  0  0  0  0  0  0  0
   27.6820  -19.2944   -8.5940 O   0  0  0  0  0  0  0  0  0  0  0  0
   26.0970  -20.0284   -2.9600 C   0  0  0  0  0  0  0  0  0  0  0  0
   27.1918  -19.2652   -3.8031 C   0  0  1  0  0  0  0  0  0  0  0  0
   28.3606  -19.2467   -2.8199 C   0  0  0  0  0  0  0  0  0  0  0  0
   27.3953  -20.1045   -4.9913 C   0  0  0  0  0  0  0  0  0  0  0  0
   28.3956  -19.7104   -6.0001 C   0  0  2  0  0  0  0  0  0  0  0  0
   28.4682  -20.7745   -7.0316 N   0  0  0  0  0  0  0  0  0  0  0  0
   29.7414  -19.5263   -5.4887 C   0  0  0  0  0  0  0  0  0  0  0  0
   30.0937  -18.3697   -5.0767 O   0  0  0  0  0  0  0  0  0  0  0  0
   30.7078  -20.4975   -5.3885 O   0  0  0  0  0  0  0  0  0  0  0  0
  2  1  1  1
  3  2  1  0
  4  2  1  0
  4  5  1  0
  5  6  1  6
  7  5  1  0
  7  8  2  0
  9 10  1  0
 10 11  1  0
 11 12  1  0
 13 12  1  6
 13 14  1  0
 14  7  1  0
 15 13  1  0
 16 15  2  0
 18 17  1  1
 18 19  1  0
 21 20  1  1
 20 18  1  0
 21 22  1  0
 22 15  1  0
 23 21  1  0
 24 23  2  0
 25 23  1  0
M  END
$$$$
