LML.pdb
     RDKit          3D

 25 24  0  0  1  0  0  0  0  0999 V2000
   34.9888  -22.7480    8.6797 C   0  0  0  0  0  0  0  0  0  0  0  0
   34.5491  -22.3418    7.2716 C   0  0  2  0  0  0  0  0  0  0  0  0
   33.3818  -21.4064    7.4241 C   0  0  0  0  0  0  0  0  0  0  0  0
   34.2300  -23.5534    6.4368 C   0  0  0  0  0  0  0  0  0  0  0  0
   35.4363  -24.4225    6.2826 C   0  0  2  0  0  0  0  0  0  0  0  0
   36.2659  -23.8825    5.2220 N   0  0  0  0  0  0  0  0  0  0  0  0
   35.1084  -25.8196    5.9455 C   0  0  0  0  0  0  0  0  0  0  0  0
   34.8255  -26.1579    4.7550 O   0  0  0  0  0  0  0  0  0  0  0  0
   39.4045  -30.4803    4.7375 C   0  0  0  0  0  0  0  0  0  0  0  0
   38.1712  -30.4534    6.0375 S   0  0  0  0  0  0  0  0  0  0  0  0
   36.8469  -29.2324    5.7010 C   0  0  0  0  0  0  0  0  0  0  0  0
   35.9020  -29.1367    6.8422 C   0  0  0  0  0  0  0  0  0  0  0  0
   34.7210  -28.2566    6.5465 C   0  0  2  0  0  0  0  0  0  0  0  0
   35.0821  -26.8733    6.8971 N   0  0  0  0  0  0  0  0  0  0  0  0
   33.4837  -28.6417    7.2840 C   0  0  0  0  0  0  0  0  0  0  0  0
   33.3413  -28.2343    8.4581 O   0  0  0  0  0  0  0  0  0  0  0  0
   28.3403  -28.5313    5.4225 C   0  0  0  0  0  0  0  0  0  0  0  0
   29.5353  -28.2795    6.4227 C   0  0  1  0  0  0  0  0  0  0  0  0
   28.8028  -27.6449    7.6032 C   0  0  0  0  0  0  0  0  0  0  0  0
   30.0880  -29.6155    6.6826 C   0  0  0  0  0  0  0  0  0  0  0  0
   31.2867  -29.7570    7.5291 C   0  0  2  0  0  0  0  0  0  0  0  0
   32.4819  -29.4398    6.7093 N   0  0  0  0  0  0  0  0  0  0  0  0
   31.4937  -31.0834    8.0809 C   0  0  0  0  0  0  0  0  0  0  0  0
   30.6554  -31.5374    8.9311 O   0  0  0  0  0  0  0  0  0  0  0  0
   32.5248  -31.9362    7.7699 O   0  0  0  0  0  0  0  0  0  0  0  0
  2  1  1  1
  3  2  1  0
  4  2  1  0
  4  5  1  0
  5  6  1  6
  7  5  1  0
  7  8  2  0
  9 10  1  0
 10 11  1  0
 11 12  1  0
 13 12  1  1
 13 14  1  0
 14  7  1  0
 15 13  1  0
 16 15  2  0
 18 17  1  6
 18 19  1  0
 21 20  1  6
 20 18  1  0
 21 22  1  0
 22 15  1  0
 23 21  1  0
 24 23  2  0
 25 23  1  0
M  END
$$$$
