LML.pdb
     RDKit          3D

 25 24  0  0  1  0  0  0  0  0999 V2000
   28.7218  -21.4352  -15.1404 C   0  0  0  0  0  0  0  0  0  0  0  0
   28.2408  -20.0727  -15.6434 C   0  0  2  0  0  0  0  0  0  0  0  0
   29.4598  -19.2999  -16.0648 C   0  0  0  0  0  0  0  0  0  0  0  0
   27.4283  -19.3664  -14.5910 C   0  0  0  0  0  0  0  0  0  0  0  0
   26.3599  -20.2646  -14.0559 C   0  0  2  0  0  0  0  0  0  0  0  0
   25.2912  -20.3494  -15.0333 N   0  0  0  0  0  0  0  0  0  0  0  0
   25.7848  -19.7918  -12.7836 C   0  0  0  0  0  0  0  0  0  0  0  0
   25.4171  -18.5853  -12.6384 O   0  0  0  0  0  0  0  0  0  0  0  0
   20.3977  -20.5540   -9.5554 C   0  0  0  0  0  0  0  0  0  0  0  0
   20.9762  -20.4251  -11.2467 S   0  0  0  0  0  0  0  0  0  0  0  0
   22.7165  -19.8585  -11.3348 C   0  0  0  0  0  0  0  0  0  0  0  0
   23.5671  -20.5821  -10.3563 C   0  0  0  0  0  0  0  0  0  0  0  0
   25.0014  -20.1372  -10.3925 C   0  0  2  0  0  0  0  0  0  0  0  0
   25.5996  -20.6225  -11.6470 N   0  0  0  0  0  0  0  0  0  0  0  0
   25.8128  -20.6270   -9.2415 C   0  0  0  0  0  0  0  0  0  0  0  0
   26.3730  -21.7411   -9.3414 O   0  0  0  0  0  0  0  0  0  0  0  0
   28.8517  -18.0478   -5.3630 C   0  0  0  0  0  0  0  0  0  0  0  0
   28.4429  -19.1028   -6.4638 C   0  0  1  0  0  0  0  0  0  0  0  0
   29.6239  -20.0692   -6.3986 C   0  0  0  0  0  0  0  0  0  0  0  0
   27.1654  -19.6534   -5.9921 C   0  0  0  0  0  0  0  0  0  0  0  0
   26.4217  -20.6015   -6.8416 C   0  0  2  0  0  0  0  0  0  0  0  0
   25.9674  -19.8858   -8.0594 N   0  0  0  0  0  0  0  0  0  0  0  0
   25.2405  -21.1785   -6.2264 C   0  0  0  0  0  0  0  0  0  0  0  0
   24.0880  -20.8301   -6.6531 O   0  0  0  0  0  0  0  0  0  0  0  0
   25.2281  -22.0974   -5.2053 O   0  0  0  0  0  0  0  0  0  0  0  0
  2  1  1  1
  3  2  1  0
  4  2  1  0
  4  5  1  0
  5  6  1  6
  7  5  1  0
  7  8  2  0
  9 10  1  0
 10 11  1  0
 11 12  1  0
 13 12  1  1
 13 14  1  0
 14  7  1  0
 15 13  1  0
 16 15  2  0
 18 17  1  1
 18 19  1  0
 21 20  1  1
 20 18  1  0
 21 22  1  0
 22 15  1  0
 23 21  1  0
 24 23  2  0
 25 23  1  0
M  END
$$$$
