LML.pdb
     RDKit          3D

 25 24  0  0  1  0  0  0  0  0999 V2000
   28.6039  -16.8158  -15.4112 C   0  0  0  0  0  0  0  0  0  0  0  0
   27.6540  -17.5061  -16.3921 C   0  0  2  0  0  0  0  0  0  0  0  0
   26.9231  -16.4240  -17.1375 C   0  0  0  0  0  0  0  0  0  0  0  0
   26.7320  -18.4537  -15.6721 C   0  0  0  0  0  0  0  0  0  0  0  0
   27.5129  -19.4743  -14.9085 C   0  0  2  0  0  0  0  0  0  0  0  0
   28.1627  -20.3640  -15.8522 N   0  0  0  0  0  0  0  0  0  0  0  0
   26.6800  -20.2888  -14.0052 C   0  0  0  0  0  0  0  0  0  0  0  0
   26.1219  -21.3546  -14.4107 O   0  0  0  0  0  0  0  0  0  0  0  0
   26.9910  -19.9048   -7.5530 C   0  0  0  0  0  0  0  0  0  0  0  0
   25.3918  -20.7059   -7.6657 S   0  0  0  0  0  0  0  0  0  0  0  0
   24.9416  -21.0971   -9.3983 C   0  0  0  0  0  0  0  0  0  0  0  0
   25.8458  -20.4120  -10.3561 C   0  0  0  0  0  0  0  0  0  0  0  0
   25.5193  -20.7246  -11.7887 C   0  0  2  0  0  0  0  0  0  0  0  0
   26.4392  -19.9585  -12.6453 N   0  0  0  0  0  0  0  0  0  0  0  0
   24.1139  -20.4037  -12.1695 C   0  0  0  0  0  0  0  0  0  0  0  0
   23.7989  -19.2024  -12.3196 O   0  0  0  0  0  0  0  0  0  0  0  0
   21.7505  -21.6069  -16.5248 C   0  0  0  0  0  0  0  0  0  0  0  0
   22.1841  -20.7696  -15.2588 C   0  0  1  0  0  0  0  0  0  0  0  0
   21.6315  -19.3907  -15.6143 C   0  0  0  0  0  0  0  0  0  0  0  0
   21.5165  -21.4322  -14.1306 C   0  0  0  0  0  0  0  0  0  0  0  0
   21.7753  -20.9682  -12.7553 C   0  0  2  0  0  0  0  0  0  0  0  0
   23.1406  -21.3967  -12.3632 N   0  0  0  0  0  0  0  0  0  0  0  0
   20.8653  -21.4893  -11.7518 C   0  0  0  0  0  0  0  0  0  0  0  0
   21.2186  -22.5070  -11.0653 O   0  0  0  0  0  0  0  0  0  0  0  0
   19.6259  -20.9832  -11.4439 O   0  0  0  0  0  0  0  0  0  0  0  0
  2  1  1  1
  3  2  1  0
  4  2  1  0
  4  5  1  0
  5  6  1  6
  7  5  1  0
  7  8  2  0
  9 10  1  0
 10 11  1  0
 11 12  1  0
 13 12  1  1
 13 14  1  0
 14  7  1  0
 15 13  1  0
 16 15  2  0
 18 17  1  6
 18 19  1  0
 21 20  1  6
 20 18  1  0
 21 22  1  0
 22 15  1  0
 23 21  1  0
 24 23  2  0
 25 23  1  0
M  END
$$$$
