LML.pdb
     RDKit          3D

 25 24  0  0  1  0  0  0  0  0999 V2000
   26.9377  -17.3857  -17.4945 C   0  0  0  0  0  0  0  0  0  0  0  0
   27.9999  -17.1897  -16.4109 C   0  0  2  0  0  0  0  0  0  0  0  0
   29.3237  -17.0437  -17.1088 C   0  0  0  0  0  0  0  0  0  0  0  0
   27.9755  -18.3243  -15.4217 C   0  0  0  0  0  0  0  0  0  0  0  0
   26.5946  -18.5322  -14.8886 C   0  0  2  0  0  0  0  0  0  0  0  0
   26.2033  -17.3536  -14.1388 N   0  0  0  0  0  0  0  0  0  0  0  0
   26.4837  -19.7025  -13.9991 C   0  0  0  0  0  0  0  0  0  0  0  0
   26.6266  -20.8820  -14.4464 O   0  0  0  0  0  0  0  0  0  0  0  0
   26.2808  -19.3733   -7.2797 C   0  0  0  0  0  0  0  0  0  0  0  0
   26.7529  -21.0500   -7.7011 S   0  0  0  0  0  0  0  0  0  0  0  0
   26.1882  -21.5199   -9.3797 C   0  0  0  0  0  0  0  0  0  0  0  0
   26.4655  -20.4410  -10.3614 C   0  0  0  0  0  0  0  0  0  0  0  0
   26.0210  -20.7930  -11.7525 C   0  0  2  0  0  0  0  0  0  0  0  0
   26.2151  -19.6106  -12.6078 N   0  0  0  0  0  0  0  0  0  0  0  0
   24.5981  -21.2304  -11.8372 C   0  0  0  0  0  0  0  0  0  0  0  0
   24.2494  -22.2443  -11.1929 O   0  0  0  0  0  0  0  0  0  0  0  0
   19.7736  -20.8927  -10.4835 C   0  0  0  0  0  0  0  0  0  0  0  0
   19.9863  -20.0301  -11.7884 C   0  0  1  0  0  0  0  0  0  0  0  0
   19.2489  -18.7455  -11.4157 C   0  0  0  0  0  0  0  0  0  0  0  0
   21.4440  -19.8948  -11.9088 C   0  0  0  0  0  0  0  0  0  0  0  0
   22.2299  -20.9840  -12.5167 C   0  0  2  0  0  0  0  0  0  0  0  0
   23.6451  -20.5479  -12.6097 N   0  0  0  0  0  0  0  0  0  0  0  0
   21.8170  -21.3638  -13.8553 C   0  0  0  0  0  0  0  0  0  0  0  0
   20.6555  -21.8679  -14.0246 O   0  0  0  0  0  0  0  0  0  0  0  0
   22.5629  -21.2267  -15.0007 O   0  0  0  0  0  0  0  0  0  0  0  0
  2  1  1  6
  3  2  1  0
  4  2  1  0
  4  5  1  0
  5  6  1  1
  7  5  1  0
  7  8  2  0
  9 10  1  0
 10 11  1  0
 11 12  1  0
 13 12  1  1
 13 14  1  0
 14  7  1  0
 15 13  1  0
 16 15  2  0
 18 17  1  1
 18 19  1  0
 21 20  1  6
 20 18  1  0
 21 22  1  0
 22 15  1  0
 23 21  1  0
 24 23  2  0
 25 23  1  0
M  END
$$$$
