LML.pdb
     RDKit          3D

 25 24  0  0  1  0  0  0  0  0999 V2000
   24.6668  -25.1192  -19.4560 C   0  0  0  0  0  0  0  0  0  0  0  0
   24.0067  -25.9362  -18.3435 C   0  0  2  0  0  0  0  0  0  0  0  0
   22.5917  -26.2084  -18.7730 C   0  0  0  0  0  0  0  0  0  0  0  0
   24.0956  -25.2182  -17.0232 C   0  0  0  0  0  0  0  0  0  0  0  0
   25.5223  -25.0134  -16.6270 C   0  0  2  0  0  0  0  0  0  0  0  0
   26.0653  -26.2799  -16.1735 N   0  0  0  0  0  0  0  0  0  0  0  0
   25.6904  -24.0258  -15.5455 C   0  0  0  0  0  0  0  0  0  0  0  0
   25.4950  -24.3429  -14.3318 O   0  0  0  0  0  0  0  0  0  0  0  0
   29.3670  -18.6870  -16.0971 C   0  0  0  0  0  0  0  0  0  0  0  0
   28.3101  -18.1578  -14.7499 S   0  0  0  0  0  0  0  0  0  0  0  0
   27.2748  -19.5284  -14.1117 C   0  0  0  0  0  0  0  0  0  0  0  0
   27.0860  -20.5827  -15.1399 C   0  0  0  0  0  0  0  0  0  0  0  0
   26.1835  -21.6907  -14.6770 C   0  0  2  0  0  0  0  0  0  0  0  0
   26.0738  -22.6763  -15.7649 N   0  0  0  0  0  0  0  0  0  0  0  0
   24.8178  -21.2332  -14.2912 C   0  0  0  0  0  0  0  0  0  0  0  0
   23.9268  -21.2178  -15.1691 O   0  0  0  0  0  0  0  0  0  0  0  0
   22.5536  -20.7890   -9.0076 C   0  0  0  0  0  0  0  0  0  0  0  0
   22.4502  -21.2535  -10.5127 C   0  0  1  0  0  0  0  0  0  0  0  0
   20.9483  -21.4990  -10.6427 C   0  0  0  0  0  0  0  0  0  0  0  0
   22.9609  -20.1147  -11.2872 C   0  0  0  0  0  0  0  0  0  0  0  0
   23.1546  -20.2504  -12.7425 C   0  0  2  0  0  0  0  0  0  0  0  0
   24.5017  -20.8225  -12.9866 N   0  0  0  0  0  0  0  0  0  0  0  0
   23.0828  -19.0074  -13.4884 C   0  0  0  0  0  0  0  0  0  0  0  0
   24.1437  -18.3109  -13.6332 O   0  0  0  0  0  0  0  0  0  0  0  0
   21.9600  -18.4857  -14.0836 O   0  0  0  0  0  0  0  0  0  0  0  0
  2  1  1  6
  3  2  1  0
  4  2  1  0
  4  5  1  0
  5  6  1  1
  7  5  1  0
  7  8  2  0
  9 10  1  0
 10 11  1  0
 11 12  1  0
 13 12  1  6
 13 14  1  0
 14  7  1  0
 15 13  1  0
 16 15  2  0
 18 17  1  1
 18 19  1  0
 21 20  1  1
 20 18  1  0
 21 22  1  0
 22 15  1  0
 23 21  1  0
 24 23  2  0
 25 23  1  0
M  END
$$$$
