LML.pdb
     RDKit          3D

 25 24  0  0  1  0  0  0  0  0999 V2000
   28.8794  -19.2434  -15.8290 C   0  0  0  0  0  0  0  0  0  0  0  0
   27.7778  -18.2376  -16.1690 C   0  0  2  0  0  0  0  0  0  0  0  0
   28.4503  -17.0180  -16.7357 C   0  0  0  0  0  0  0  0  0  0  0  0
   26.9310  -17.9377  -14.9609 C   0  0  0  0  0  0  0  0  0  0  0  0
   26.4376  -19.2015  -14.3334 C   0  0  2  0  0  0  0  0  0  0  0  0
   25.4732  -19.8175  -15.2250 N   0  0  0  0  0  0  0  0  0  0  0  0
   25.7878  -18.9882  -13.0275 C   0  0  0  0  0  0  0  0  0  0  0  0
   24.8540  -18.1391  -12.8906 O   0  0  0  0  0  0  0  0  0  0  0  0
   21.4204  -21.6349  -11.9587 C   0  0  0  0  0  0  0  0  0  0  0  0
   21.4986  -21.1947  -10.2231 S   0  0  0  0  0  0  0  0  0  0  0  0
   23.0603  -20.3328   -9.8041 C   0  0  0  0  0  0  0  0  0  0  0  0
   24.0023  -20.3397  -10.9517 C   0  0  0  0  0  0  0  0  0  0  0  0
   25.3141  -19.6819  -10.6307 C   0  0  2  0  0  0  0  0  0  0  0  0
   26.1422  -19.6944  -11.8476 N   0  0  0  0  0  0  0  0  0  0  0  0
   26.0625  -20.3408   -9.5222 C   0  0  0  0  0  0  0  0  0  0  0  0
   26.4657  -21.5127   -9.6925 O   0  0  0  0  0  0  0  0  0  0  0  0
   29.6328  -18.6696   -5.0189 C   0  0  0  0  0  0  0  0  0  0  0  0
   28.7912  -19.9364   -5.4416 C   0  0  1  0  0  0  0  0  0  0  0  0
   27.9896  -20.1959   -4.1676 C   0  0  0  0  0  0  0  0  0  0  0  0
   27.9969  -19.4858   -6.5921 C   0  0  0  0  0  0  0  0  0  0  0  0
   27.0998  -20.4351   -7.2759 C   0  0  2  0  0  0  0  0  0  0  0  0
   26.3271  -19.6953   -8.3040 N   0  0  0  0  0  0  0  0  0  0  0  0
   26.1340  -21.0934   -6.4153 C   0  0  0  0  0  0  0  0  0  0  0  0
   24.9476  -20.6252   -6.3455 O   0  0  0  0  0  0  0  0  0  0  0  0
   26.3638  -22.2095   -5.6480 O   0  0  0  0  0  0  0  0  0  0  0  0
  2  1  1  1
  3  2  1  0
  4  2  1  0
  4  5  1  0
  5  6  1  6
  7  5  1  0
  7  8  2  0
  9 10  1  0
 10 11  1  0
 11 12  1  0
 13 12  1  6
 13 14  1  0
 14  7  1  0
 15 13  1  0
 16 15  2  0
 18 17  1  1
 18 19  1  0
 21 20  1  1
 20 18  1  0
 21 22  1  0
 22 15  1  0
 23 21  1  0
 24 23  2  0
 25 23  1  0
M  END
$$$$
