LML.pdb
     RDKit          3D

 25 24  0  0  1  0  0  0  0  0999 V2000
   17.2300  -15.2961  -15.1238 C   0  0  0  0  0  0  0  0  0  0  0  0
   17.2428  -14.8345  -16.5824 C   0  0  2  0  0  0  0  0  0  0  0  0
   17.2052  -16.0698  -17.4388 C   0  0  0  0  0  0  0  0  0  0  0  0
   18.4362  -13.9596  -16.8597 C   0  0  0  0  0  0  0  0  0  0  0  0
   18.2913  -13.2689  -18.1774 C   0  0  2  0  0  0  0  0  0  0  0  0
   18.9254  -14.0799  -19.1996 N   0  0  0  0  0  0  0  0  0  0  0  0
   18.9067  -11.9296  -18.2038 C   0  0  0  0  0  0  0  0  0  0  0  0
   20.1350  -11.7778  -18.4870 O   0  0  0  0  0  0  0  0  0  0  0  0
   17.4890   -4.2332  -19.3656 C   0  0  0  0  0  0  0  0  0  0  0  0
   16.9400   -5.9378  -19.2961 S   0  0  0  0  0  0  0  0  0  0  0  0
   18.2533   -7.0564  -18.6786 C   0  0  0  0  0  0  0  0  0  0  0  0
   17.7511   -8.4462  -18.5340 C   0  0  0  0  0  0  0  0  0  0  0  0
   18.8055   -9.3970  -18.0435 C   0  0  2  0  0  0  0  0  0  0  0  0
   18.1974  -10.7321  -17.9226 N   0  0  0  0  0  0  0  0  0  0  0  0
   19.4021   -9.0102  -16.7329 C   0  0  0  0  0  0  0  0  0  0  0  0
   18.7469   -9.2382  -15.6919 O   0  0  0  0  0  0  0  0  0  0  0  0
   24.0128  -10.6618  -14.7237 C   0  0  0  0  0  0  0  0  0  0  0  0
   22.4855  -10.2876  -14.8628 C   0  0  1  0  0  0  0  0  0  0  0  0
   21.9559  -10.6959  -13.4897 C   0  0  0  0  0  0  0  0  0  0  0  0
   22.4811   -8.8420  -15.1235 C   0  0  0  0  0  0  0  0  0  0  0  0
   21.1979   -8.1315  -15.2721 C   0  0  2  0  0  0  0  0  0  0  0  0
   20.6638   -8.4035  -16.6294 N   0  0  0  0  0  0  0  0  0  0  0  0
   21.2766   -6.6890  -15.1312 C   0  0  0  0  0  0  0  0  0  0  0  0
   21.1725   -5.9591  -16.1744 O   0  0  0  0  0  0  0  0  0  0  0  0
   21.4481   -6.0000  -13.9553 O   0  0  0  0  0  0  0  0  0  0  0  0
  2  1  1  1
  3  2  1  0
  4  2  1  0
  4  5  1  0
  5  6  1  6
  7  5  1  0
  7  8  2  0
  9 10  1  0
 10 11  1  0
 11 12  1  0
 13 12  1  1
 13 14  1  0
 14  7  1  0
 15 13  1  0
 16 15  2  0
 18 17  1  1
 18 19  1  0
 21 20  1  6
 20 18  1  0
 21 22  1  0
 22 15  1  0
 23 21  1  0
 24 23  2  0
 25 23  1  0
M  END
$$$$
