DNT.pdb
     RDKit          3D

 24 23  0  0  1  0  0  0  0  0999 V2000
   15.9664  -10.4746  -14.0393 N   0  0  0  0  0  0  0  0  0  0  0  0
   17.1785  -10.5305  -14.8714 C   0  0  1  0  0  0  0  0  0  0  0  0
   16.7638  -11.1696  -16.1504 C   0  0  0  0  0  0  0  0  0  0  0  0
   16.3392  -12.5464  -15.9660 C   0  0  0  0  0  0  0  0  0  0  0  0
   16.2881  -13.2018  -14.9125 O   0  0  0  0  0  0  0  0  0  0  0  0
   17.7369   -9.1591  -15.0031 C   0  0  0  0  0  0  0  0  0  0  0  0
   18.5551   -8.8112  -15.8755 O   0  0  0  0  0  0  0  0  0  0  0  0
   15.9260  -13.2517  -17.1189 O   0  0  0  0  0  0  0  0  0  0  0  0
   15.5190   -6.3579  -15.8841 N   0  0  0  0  0  0  0  0  0  0  0  0
   15.5998   -5.6576  -14.6612 C   0  0  0  0  0  0  0  0  0  0  0  0
   14.6317   -4.9444  -14.3145 O   0  0  0  0  0  0  0  0  0  0  0  0
   16.7855   -5.7394  -13.7817 C   0  0  0  0  0  0  0  0  0  0  0  0
   17.7724   -6.7549  -14.2940 C   0  0  2  0  0  0  0  0  0  0  0  0
   17.3404   -8.1148  -14.0840 N   0  0  0  0  0  0  0  0  0  0  0  0
   19.0519   -6.5181  -13.5500 C   0  0  0  0  0  0  0  0  0  0  0  0
   19.0687   -6.7644  -12.3237 O   0  0  0  0  0  0  0  0  0  0  0  0
   22.1731   -8.2003  -13.8991 C   0  0  0  0  0  0  0  0  0  0  0  0
   22.4242   -6.7565  -14.1859 C   0  0  1  0  0  0  0  0  0  0  0  0
   22.3636   -6.5705  -15.5821 O   0  0  0  0  0  0  0  0  0  0  0  0
   21.4399   -5.8049  -13.5913 C   0  0  2  0  0  0  0  0  0  0  0  0
   20.1717   -6.0301  -14.2670 N   0  0  0  0  0  0  0  0  0  0  0  0
   21.7900   -4.3867  -13.6961 C   0  0  0  0  0  0  0  0  0  0  0  0
   22.7825   -3.7810  -12.9225 O   0  0  0  0  0  0  0  0  0  0  0  0
   21.1939   -3.6530  -14.5054 O   0  0  0  0  0  0  0  0  0  0  0  0
  2  1  1  1
  2  3  1  0
  3  4  1  0
  4  5  2  0
  4  8  1  0
  6  2  1  0
  6 14  1  0
  7  6  2  0
  9 10  1  0
 10 12  1  0
 10 11  2  0
 13 12  1  1
 13 14  1  0
 13 15  1  0
 15 16  2  0
 18 17  1  6
 18 19  1  0
 20 18  1  0
 21 15  1  0
 20 21  1  6
 22 23  1  0
 22 20  1  0
 24 22  2  0
M  END
$$$$
