DNT.pdb
     RDKit          3D

 24 23  0  0  1  0  0  0  0  0999 V2000
   14.0007   -8.8113  -14.2291 N   0  0  0  0  0  0  0  0  0  0  0  0
   14.8940   -8.0130  -15.0832 C   0  0  1  0  0  0  0  0  0  0  0  0
   14.3897   -6.6146  -15.0031 C   0  0  0  0  0  0  0  0  0  0  0  0
   13.2088   -6.4070  -15.8231 C   0  0  0  0  0  0  0  0  0  0  0  0
   12.7893   -7.1060  -16.7599 O   0  0  0  0  0  0  0  0  0  0  0  0
   16.2959   -8.2054  -14.6278 C   0  0  0  0  0  0  0  0  0  0  0  0
   16.6782   -8.0804  -13.4489 O   0  0  0  0  0  0  0  0  0  0  0  0
   12.4191   -5.2705  -15.5370 O   0  0  0  0  0  0  0  0  0  0  0  0
   17.7703  -11.1928  -14.2323 N   0  0  0  0  0  0  0  0  0  0  0  0
   18.7831  -11.1856  -15.2155 C   0  0  0  0  0  0  0  0  0  0  0  0
   19.1984  -12.2811  -15.6553 O   0  0  0  0  0  0  0  0  0  0  0  0
   19.3658   -9.9317  -15.7392 C   0  0  0  0  0  0  0  0  0  0  0  0
   18.6951   -8.7270  -15.1338 C   0  0  2  0  0  0  0  0  0  0  0  0
   17.3312   -8.5626  -15.5729 N   0  0  0  0  0  0  0  0  0  0  0  0
   19.5008   -7.5350  -15.5540 C   0  0  0  0  0  0  0  0  0  0  0  0
   19.2214   -6.9975  -16.6485 O   0  0  0  0  0  0  0  0  0  0  0  0
   22.6614   -4.0868  -13.9506 C   0  0  0  0  0  0  0  0  0  0  0  0
   21.8531   -5.3327  -13.7946 C   0  0  1  0  0  0  0  0  0  0  0  0
   20.7195   -5.0243  -13.0151 O   0  0  0  0  0  0  0  0  0  0  0  0
   21.3416   -5.9273  -15.0645 C   0  0  2  0  0  0  0  0  0  0  0  0
   20.5323   -7.0787  -14.6973 N   0  0  0  0  0  0  0  0  0  0  0  0
   22.3665   -6.3513  -16.0209 C   0  0  0  0  0  0  0  0  0  0  0  0
   22.7496   -5.5875  -17.1256 O   0  0  0  0  0  0  0  0  0  0  0  0
   22.9473   -7.4419  -15.8735 O   0  0  0  0  0  0  0  0  0  0  0  0
  2  1  1  1
  2  3  1  0
  3  4  1  0
  4  5  2  0
  4  8  1  0
  6  2  1  0
  6 14  1  0
  7  6  2  0
  9 10  1  0
 10 12  1  0
 10 11  2  0
 13 12  1  6
 13 14  1  0
 13 15  1  0
 15 16  2  0
 18 17  1  6
 18 19  1  0
 20 18  1  0
 21 15  1  0
 20 21  1  1
 22 23  1  0
 22 20  1  0
 24 22  2  0
M  END
$$$$
