DNT.pdb
     RDKit          3D

 24 23  0  0  1  0  0  0  0  0999 V2000
   24.7619  -18.1785  -20.7853 N   0  0  0  0  0  0  0  0  0  0  0  0
   24.1932  -17.8100  -19.4794 C   0  0  1  0  0  0  0  0  0  0  0  0
   22.7192  -17.7527  -19.6799 C   0  0  0  0  0  0  0  0  0  0  0  0
   22.3178  -16.6195  -20.4954 C   0  0  0  0  0  0  0  0  0  0  0  0
   23.0394  -15.7639  -21.0331 O   0  0  0  0  0  0  0  0  0  0  0  0
   24.6538  -18.7882  -18.4593 C   0  0  0  0  0  0  0  0  0  0  0  0
   24.1925  -18.8743  -17.3054 O   0  0  0  0  0  0  0  0  0  0  0  0
   20.9332  -16.4478  -20.7204 O   0  0  0  0  0  0  0  0  0  0  0  0
   25.5250  -22.5064  -15.0689 N   0  0  0  0  0  0  0  0  0  0  0  0
   25.4205  -22.6785  -16.4661 C   0  0  0  0  0  0  0  0  0  0  0  0
   25.7352  -23.7852  -16.9582 O   0  0  0  0  0  0  0  0  0  0  0  0
   24.9538  -21.5986  -17.3616 C   0  0  0  0  0  0  0  0  0  0  0  0
   26.1000  -20.7291  -17.8067 C   0  0  2  0  0  0  0  0  0  0  0  0
   25.7070  -19.7299  -18.7697 N   0  0  0  0  0  0  0  0  0  0  0  0
   27.1141  -21.6442  -18.4238 C   0  0  0  0  0  0  0  0  0  0  0  0
   26.8267  -22.1832  -19.5155 O   0  0  0  0  0  0  0  0  0  0  0  0
   30.1365  -20.8709  -19.7986 C   0  0  0  0  0  0  0  0  0  0  0  0
   30.4806  -21.8838  -18.7567 C   0  0  1  0  0  0  0  0  0  0  0  0
   30.9457  -21.1980  -17.6160 O   0  0  0  0  0  0  0  0  0  0  0  0
   29.3483  -22.7421  -18.2994 C   0  0  2  0  0  0  0  0  0  0  0  0
   28.3396  -21.8528  -17.7451 N   0  0  0  0  0  0  0  0  0  0  0  0
   29.6890  -23.7573  -17.3002 C   0  0  0  0  0  0  0  0  0  0  0  0
   30.5041  -24.8585  -17.5707 O   0  0  0  0  0  0  0  0  0  0  0  0
   29.2477  -23.6665  -16.1402 O   0  0  0  0  0  0  0  0  0  0  0  0
  2  1  1  6
  2  3  1  0
  3  4  1  0
  4  5  2  0
  4  8  1  0
  6  2  1  0
  6 14  1  0
  7  6  2  0
  9 10  1  0
 10 12  1  0
 10 11  2  0
 13 12  1  6
 13 14  1  0
 13 15  1  0
 15 16  2  0
 18 17  1  6
 18 19  1  0
 20 18  1  0
 21 15  1  0
 20 21  1  1
 22 23  1  0
 22 20  1  0
 24 22  2  0
M  END
$$$$
