DNT.pdb
     RDKit          3D

 24 23  0  0  1  0  0  0  0  0999 V2000
   17.0829  -10.7320  -16.9077 N   0  0  0  0  0  0  0  0  0  0  0  0
   17.7880  -10.8310  -15.6202 C   0  0  1  0  0  0  0  0  0  0  0  0
   18.0028  -12.2853  -15.3857 C   0  0  0  0  0  0  0  0  0  0  0  0
   16.7636  -12.9855  -15.0954 C   0  0  0  0  0  0  0  0  0  0  0  0
   15.6694  -12.5059  -14.7567 O   0  0  0  0  0  0  0  0  0  0  0  0
   19.0271  -10.0124  -15.6846 C   0  0  0  0  0  0  0  0  0  0  0  0
   20.0134  -10.1654  -14.9393 O   0  0  0  0  0  0  0  0  0  0  0  0
   16.7801  -14.3943  -15.2062 O   0  0  0  0  0  0  0  0  0  0  0  0
   22.3336   -8.9608  -19.2383 N   0  0  0  0  0  0  0  0  0  0  0  0
   20.9893   -8.5892  -19.0206 C   0  0  0  0  0  0  0  0  0  0  0  0
   20.0941   -9.1713  -19.6730 O   0  0  0  0  0  0  0  0  0  0  0  0
   20.6076   -7.5399  -18.0515 C   0  0  0  0  0  0  0  0  0  0  0  0
   20.3389   -8.1284  -16.6917 C   0  0  2  0  0  0  0  0  0  0  0  0
   19.1543   -8.9505  -16.6587 N   0  0  0  0  0  0  0  0  0  0  0  0
   20.1691   -6.9720  -15.7532 C   0  0  0  0  0  0  0  0  0  0  0  0
   19.1443   -6.2653  -15.8765 O   0  0  0  0  0  0  0  0  0  0  0  0
   19.7521   -7.2210  -12.3256 C   0  0  0  0  0  0  0  0  0  0  0  0
   20.8902   -6.2659  -12.4758 C   0  0  1  0  0  0  0  0  0  0  0  0
   22.0874   -6.9696  -12.2322 O   0  0  0  0  0  0  0  0  0  0  0  0
   21.0329   -5.6473  -13.8267 C   0  0  2  0  0  0  0  0  0  0  0  0
   21.1706   -6.7376  -14.7795 N   0  0  0  0  0  0  0  0  0  0  0  0
   22.1642   -4.7307  -13.9851 C   0  0  0  0  0  0  0  0  0  0  0  0
   22.2799   -3.5255  -13.2892 O   0  0  0  0  0  0  0  0  0  0  0  0
   23.0884   -5.0073  -14.7712 O   0  0  0  0  0  0  0  0  0  0  0  0
  2  1  1  6
  2  3  1  0
  3  4  1  0
  4  5  2  0
  4  8  1  0
  6  2  1  0
  6 14  1  0
  7  6  2  0
  9 10  1  0
 10 12  1  0
 10 11  2  0
 13 12  1  6
 13 14  1  0
 13 15  1  0
 15 16  2  0
 18 17  1  6
 18 19  1  0
 20 18  1  0
 21 15  1  0
 20 21  1  6
 22 23  1  0
 22 20  1  0
 24 22  2  0
M  END
$$$$
