DNT.pdb
     RDKit          3D

 24 23  0  0  1  0  0  0  0  0999 V2000
   15.6168  -12.6177  -14.4293 N   0  0  0  0  0  0  0  0  0  0  0  0
   16.6566  -13.0304  -15.3850 C   0  0  1  0  0  0  0  0  0  0  0  0
   15.9699  -13.8940  -16.3843 C   0  0  0  0  0  0  0  0  0  0  0  0
   15.4415  -15.1101  -15.7910 C   0  0  0  0  0  0  0  0  0  0  0  0
   15.7121  -15.6083  -14.6861 O   0  0  0  0  0  0  0  0  0  0  0  0
   17.3089  -11.8164  -15.9422 C   0  0  0  0  0  0  0  0  0  0  0  0
   18.1096  -11.8207  -16.8964 O   0  0  0  0  0  0  0  0  0  0  0  0
   14.4960  -15.8372  -16.5491 O   0  0  0  0  0  0  0  0  0  0  0  0
   17.6009   -6.7263  -17.9426 N   0  0  0  0  0  0  0  0  0  0  0  0
   17.4177   -6.9716  -16.5647 C   0  0  0  0  0  0  0  0  0  0  0  0
   17.8658   -6.1402  -15.7438 O   0  0  0  0  0  0  0  0  0  0  0  0
   16.7172   -8.1732  -16.0633 C   0  0  0  0  0  0  0  0  0  0  0  0
   17.6648   -9.3351  -15.9226 C   0  0  2  0  0  0  0  0  0  0  0  0
   17.0342  -10.5127  -15.3789 N   0  0  0  0  0  0  0  0  0  0  0  0
   18.7573   -8.8842  -15.0007 C   0  0  0  0  0  0  0  0  0  0  0  0
   18.5264   -8.8969  -13.7713 O   0  0  0  0  0  0  0  0  0  0  0  0
   21.9751  -10.4323  -14.6196 C   0  0  0  0  0  0  0  0  0  0  0  0
   22.2220   -9.0055  -14.9847 C   0  0  1  0  0  0  0  0  0  0  0  0
   22.4561   -8.9433  -16.3737 O   0  0  0  0  0  0  0  0  0  0  0  0
   21.0941   -8.0687  -14.7055 C   0  0  2  0  0  0  0  0  0  0  0  0
   19.9891   -8.4686  -15.5627 N   0  0  0  0  0  0  0  0  0  0  0  0
   21.3812   -6.6502  -14.9296 C   0  0  0  0  0  0  0  0  0  0  0  0
   22.1840   -5.8853  -14.0806 O   0  0  0  0  0  0  0  0  0  0  0  0
   20.9026   -6.0630  -15.9169 O   0  0  0  0  0  0  0  0  0  0  0  0
  2  1  1  1
  2  3  1  0
  3  4  1  0
  4  5  2  0
  4  8  1  0
  6  2  1  0
  6 14  1  0
  7  6  2  0
  9 10  1  0
 10 12  1  0
 10 11  2  0
 13 12  1  1
 13 14  1  0
 13 15  1  0
 15 16  2  0
 18 17  1  6
 18 19  1  0
 20 18  1  0
 21 15  1  0
 20 21  1  6
 22 23  1  0
 22 20  1  0
 24 22  2  0
M  END
$$$$
