DNT.pdb
     RDKit          3D

 24 23  0  0  1  0  0  0  0  0999 V2000
   20.4142  -11.8332  -17.1899 N   0  0  0  0  0  0  0  0  0  0  0  0
   19.7423  -10.7851  -17.9741 C   0  0  1  0  0  0  0  0  0  0  0  0
   18.5438  -11.4326  -18.5745 C   0  0  0  0  0  0  0  0  0  0  0  0
   18.8942  -12.3787  -19.6195 C   0  0  0  0  0  0  0  0  0  0  0  0
   19.5527  -13.4268  -19.5201 O   0  0  0  0  0  0  0  0  0  0  0  0
   19.4561   -9.6274  -17.0866 C   0  0  0  0  0  0  0  0  0  0  0  0
   18.7582   -8.6471  -17.4085 O   0  0  0  0  0  0  0  0  0  0  0  0
   18.4381  -12.0917  -20.9260 O   0  0  0  0  0  0  0  0  0  0  0  0
   17.1570   -9.3350  -14.5636 N   0  0  0  0  0  0  0  0  0  0  0  0
   17.9907   -9.2764  -13.4261 C   0  0  0  0  0  0  0  0  0  0  0  0
   17.5250   -9.6408  -12.3231 O   0  0  0  0  0  0  0  0  0  0  0  0
   19.3888   -8.8008  -13.4959 C   0  0  0  0  0  0  0  0  0  0  0  0
   19.7667   -8.4307  -14.9058 C   0  0  2  0  0  0  0  0  0  0  0  0
   19.9981   -9.5797  -15.7462 N   0  0  0  0  0  0  0  0  0  0  0  0
   21.0247   -7.6213  -14.8110 C   0  0  0  0  0  0  0  0  0  0  0  0
   22.1118   -8.2368  -14.7469 O   0  0  0  0  0  0  0  0  0  0  0  0
   22.0828   -5.0811  -17.2533 C   0  0  0  0  0  0  0  0  0  0  0  0
   22.0451   -4.4415  -15.9044 C   0  0  1  0  0  0  0  0  0  0  0  0
   20.8213   -3.7523  -15.7808 O   0  0  0  0  0  0  0  0  0  0  0  0
   22.1173   -5.3819  -14.7476 C   0  0  2  0  0  0  0  0  0  0  0  0
   20.9217   -6.2088  -14.7985 N   0  0  0  0  0  0  0  0  0  0  0  0
   22.2057   -4.7536  -13.4276 C   0  0  0  0  0  0  0  0  0  0  0  0
   23.3496   -4.1014  -12.9621 O   0  0  0  0  0  0  0  0  0  0  0  0
   21.2312   -4.7824  -12.6542 O   0  0  0  0  0  0  0  0  0  0  0  0
  2  1  1  1
  2  3  1  0
  3  4  1  0
  4  5  2  0
  4  8  1  0
  6  2  1  0
  6 14  1  0
  7  6  2  0
  9 10  1  0
 10 12  1  0
 10 11  2  0
 13 12  1  1
 13 14  1  0
 13 15  1  0
 15 16  2  0
 18 17  1  6
 18 19  1  0
 20 18  1  0
 21 15  1  0
 20 21  1  1
 22 23  1  0
 22 20  1  0
 24 22  2  0
M  END
$$$$
