DNT.pdb
     RDKit          3D

 24 23  0  0  1  0  0  0  0  0999 V2000
   13.0923   -9.2706   -9.1264 N   0  0  0  0  0  0  0  0  0  0  0  0
   14.4251   -9.4601   -9.7202 C   0  0  1  0  0  0  0  0  0  0  0  0
   14.2200  -10.3340  -10.9078 C   0  0  0  0  0  0  0  0  0  0  0  0
   13.9102  -11.7038  -10.5368 C   0  0  0  0  0  0  0  0  0  0  0  0
   14.4231  -12.7516  -10.9626 O   0  0  0  0  0  0  0  0  0  0  0  0
   15.0171   -8.1280  -10.0116 C   0  0  0  0  0  0  0  0  0  0  0  0
   14.4958   -7.2703  -10.7493 O   0  0  0  0  0  0  0  0  0  0  0  0
   12.8989  -11.8946   -9.5683 O   0  0  0  0  0  0  0  0  0  0  0  0
   18.4322   -3.5644   -8.1959 N   0  0  0  0  0  0  0  0  0  0  0  0
   17.4440   -4.2033   -8.9756 C   0  0  0  0  0  0  0  0  0  0  0  0
   17.0556   -3.6442  -10.0256 O   0  0  0  0  0  0  0  0  0  0  0  0
   16.8565   -5.5050   -8.5930 C   0  0  0  0  0  0  0  0  0  0  0  0
   16.8802   -6.4716   -9.7475 C   0  0  2  0  0  0  0  0  0  0  0  0
   16.2838   -7.7451   -9.4272 N   0  0  0  0  0  0  0  0  0  0  0  0
   18.3218   -6.6725  -10.1052 C   0  0  0  0  0  0  0  0  0  0  0  0
   19.0184   -7.3824   -9.3465 O   0  0  0  0  0  0  0  0  0  0  0  0
   19.3412   -8.1502  -13.2076 C   0  0  0  0  0  0  0  0  0  0  0  0
   20.2648   -7.7351  -12.1102 C   0  0  1  0  0  0  0  0  0  0  0  0
   21.5878   -7.9568  -12.5441 O   0  0  0  0  0  0  0  0  0  0  0  0
   20.1862   -6.2975  -11.7165 C   0  0  2  0  0  0  0  0  0  0  0  0
   18.8215   -6.0527  -11.2766 N   0  0  0  0  0  0  0  0  0  0  0  0
   20.5276   -5.3356  -12.7668 C   0  0  0  0  0  0  0  0  0  0  0  0
   19.6298   -4.3872  -13.2616 O   0  0  0  0  0  0  0  0  0  0  0  0
   21.6669   -5.3337  -13.2674 O   0  0  0  0  0  0  0  0  0  0  0  0
  2  1  1  6
  2  3  1  0
  3  4  1  0
  4  5  2  0
  4  8  1  0
  6  2  1  0
  6 14  1  0
  7  6  2  0
  9 10  1  0
 10 12  1  0
 10 11  2  0
 13 12  1  1
 13 14  1  0
 13 15  1  0
 15 16  2  0
 18 17  1  6
 18 19  1  0
 20 18  1  0
 21 15  1  0
 20 21  1  6
 22 23  1  0
 22 20  1  0
 24 22  2  0
M  END
$$$$
