DNT.pdb
     RDKit          3D

 24 23  0  0  1  0  0  0  0  0999 V2000
   17.2473  -15.2854  -16.1005 N   0  0  0  0  0  0  0  0  0  0  0  0
   18.4054  -14.5091  -16.5703 C   0  0  1  0  0  0  0  0  0  0  0  0
   18.8247  -15.1405  -17.8515 C   0  0  0  0  0  0  0  0  0  0  0  0
   19.5478  -16.3829  -17.6428 C   0  0  0  0  0  0  0  0  0  0  0  0
   20.0404  -16.8194  -16.5897 O   0  0  0  0  0  0  0  0  0  0  0  0
   18.0183  -13.0773  -16.6693 C   0  0  0  0  0  0  0  0  0  0  0  0
   17.0258  -12.6562  -17.2934 O   0  0  0  0  0  0  0  0  0  0  0  0
   19.7259  -17.2199  -18.7675 O   0  0  0  0  0  0  0  0  0  0  0  0
   17.1171   -8.1875  -16.8444 N   0  0  0  0  0  0  0  0  0  0  0  0
   16.7149   -8.9548  -15.7299 C   0  0  0  0  0  0  0  0  0  0  0  0
   16.0454   -8.3990  -14.8305 O   0  0  0  0  0  0  0  0  0  0  0  0
   17.0578  -10.3864  -15.5922 C   0  0  0  0  0  0  0  0  0  0  0  0
   18.4391  -10.6673  -16.1223 C   0  0  2  0  0  0  0  0  0  0  0  0
   18.8099  -12.0571  -16.0174 N   0  0  0  0  0  0  0  0  0  0  0  0
   19.3846   -9.8364  -15.3084 C   0  0  0  0  0  0  0  0  0  0  0  0
   19.4682  -10.0775  -14.0838 O   0  0  0  0  0  0  0  0  0  0  0  0
   23.0127   -9.1188  -16.5957 C   0  0  0  0  0  0  0  0  0  0  0  0
   22.2903   -7.8777  -16.1862 C   0  0  1  0  0  0  0  0  0  0  0  0
   21.7445   -7.2866  -17.3440 O   0  0  0  0  0  0  0  0  0  0  0  0
   21.1529   -8.0811  -15.2412 C   0  0  2  0  0  0  0  0  0  0  0  0
   20.1318   -8.8258  -15.9613 N   0  0  0  0  0  0  0  0  0  0  0  0
   20.5567   -6.8585  -14.6983 C   0  0  0  0  0  0  0  0  0  0  0  0
   21.1341   -6.1143  -13.6672 O   0  0  0  0  0  0  0  0  0  0  0  0
   19.4809   -6.4307  -15.1548 O   0  0  0  0  0  0  0  0  0  0  0  0
  2  1  1  6
  2  3  1  0
  3  4  1  0
  4  5  2  0
  4  8  1  0
  6  2  1  0
  6 14  1  0
  7  6  2  0
  9 10  1  0
 10 12  1  0
 10 11  2  0
 13 12  1  1
 13 14  1  0
 13 15  1  0
 15 16  2  0
 18 17  1  6
 18 19  1  0
 20 18  1  0
 21 15  1  0
 20 21  1  6
 22 23  1  0
 22 20  1  0
 24 22  2  0
M  END
$$$$
