DNT.pdb
     RDKit          3D

 24 23  0  0  1  0  0  0  0  0999 V2000
   17.4477  -11.6525  -16.7137 N   0  0  0  0  0  0  0  0  0  0  0  0
   16.7177  -11.0662  -15.5788 C   0  0  1  0  0  0  0  0  0  0  0  0
   16.4968  -12.1817  -14.6182 C   0  0  0  0  0  0  0  0  0  0  0  0
   15.7474  -13.2771  -15.2087 C   0  0  0  0  0  0  0  0  0  0  0  0
   15.3431  -13.3915  -16.3772 O   0  0  0  0  0  0  0  0  0  0  0  0
   17.4972   -9.9185  -15.0449 C   0  0  0  0  0  0  0  0  0  0  0  0
   17.1662   -9.2410  -14.0534 O   0  0  0  0  0  0  0  0  0  0  0  0
   15.4256  -14.3643  -14.3651 O   0  0  0  0  0  0  0  0  0  0  0  0
   21.1079   -6.5066  -13.9048 N   0  0  0  0  0  0  0  0  0  0  0  0
   21.7360   -7.6833  -14.3669 C   0  0  0  0  0  0  0  0  0  0  0  0
   22.9735   -7.7985  -14.2203 O   0  0  0  0  0  0  0  0  0  0  0  0
   20.9825   -8.7778  -15.0150 C   0  0  0  0  0  0  0  0  0  0  0  0
   19.5193   -8.4390  -15.1245 C   0  0  2  0  0  0  0  0  0  0  0  0
   18.7331   -9.5138  -15.6785 N   0  0  0  0  0  0  0  0  0  0  0  0
   19.4256   -7.2405  -16.0197 C   0  0  0  0  0  0  0  0  0  0  0  0
   19.6475   -7.4039  -17.2399 O   0  0  0  0  0  0  0  0  0  0  0  0
   16.5415   -5.2895  -16.7671 C   0  0  0  0  0  0  0  0  0  0  0  0
   17.5489   -4.3539  -16.1843 C   0  0  1  0  0  0  0  0  0  0  0  0
   17.2667   -4.2070  -14.8108 O   0  0  0  0  0  0  0  0  0  0  0  0
   18.9691   -4.8036  -16.2766 C   0  0  2  0  0  0  0  0  0  0  0  0
   19.0928   -5.9899  -15.4441 N   0  0  0  0  0  0  0  0  0  0  0  0
   19.9711   -3.8211  -15.8574 C   0  0  0  0  0  0  0  0  0  0  0  0
   20.2824   -2.6778  -16.5966 O   0  0  0  0  0  0  0  0  0  0  0  0
   20.5968   -3.9802  -14.7936 O   0  0  0  0  0  0  0  0  0  0  0  0
  2  1  1  6
  2  3  1  0
  3  4  1  0
  4  5  2  0
  4  8  1  0
  6  2  1  0
  6 14  1  0
  7  6  2  0
  9 10  1  0
 10 12  1  0
 10 11  2  0
 13 12  1  6
 13 14  1  0
 13 15  1  0
 15 16  2  0
 18 17  1  1
 18 19  1  0
 20 18  1  0
 21 15  1  0
 20 21  1  1
 22 23  1  0
 22 20  1  0
 24 22  2  0
M  END
$$$$
