DNT.pdb
     RDKit          3D

 24 23  0  0  1  0  0  0  0  0999 V2000
   18.5712  -10.7400  -17.1849 N   0  0  0  0  0  0  0  0  0  0  0  0
   18.0872  -10.1942  -15.9072 C   0  0  1  0  0  0  0  0  0  0  0  0
   17.4738  -11.3406  -15.1822 C   0  0  0  0  0  0  0  0  0  0  0  0
   16.2504  -11.8018  -15.8153 C   0  0  0  0  0  0  0  0  0  0  0  0
   15.4453  -11.1505  -16.5005 O   0  0  0  0  0  0  0  0  0  0  0  0
   19.2194   -9.5358  -15.2041 C   0  0  0  0  0  0  0  0  0  0  0  0
   19.2522   -9.3062  -13.9802 O   0  0  0  0  0  0  0  0  0  0  0  0
   15.9118  -13.1632  -15.6443 O   0  0  0  0  0  0  0  0  0  0  0  0
   23.1666  -11.4985  -16.2245 N   0  0  0  0  0  0  0  0  0  0  0  0
   23.0179  -10.4498  -15.2914 C   0  0  0  0  0  0  0  0  0  0  0  0
   23.0409  -10.7264  -14.0712 O   0  0  0  0  0  0  0  0  0  0  0  0
   22.8368   -9.0428  -15.7077 C   0  0  0  0  0  0  0  0  0  0  0  0
   21.5055   -8.5082  -15.2498 C   0  0  2  0  0  0  0  0  0  0  0  0
   20.3905   -9.1102  -15.9388 N   0  0  0  0  0  0  0  0  0  0  0  0
   21.5222   -7.0343  -15.5217 C   0  0  0  0  0  0  0  0  0  0  0  0
   21.7223   -6.6595  -16.6982 O   0  0  0  0  0  0  0  0  0  0  0  0
   18.9470   -4.8417  -15.5160 C   0  0  0  0  0  0  0  0  0  0  0  0
   19.9021   -4.2437  -14.5362 C   0  0  1  0  0  0  0  0  0  0  0  0
   19.4775   -4.5975  -13.2392 O   0  0  0  0  0  0  0  0  0  0  0  0
   21.3163   -4.7056  -14.6569 C   0  0  2  0  0  0  0  0  0  0  0  0
   21.3121   -6.1439  -14.4403 N   0  0  0  0  0  0  0  0  0  0  0  0
   22.2642   -4.0870  -13.7276 C   0  0  0  0  0  0  0  0  0  0  0  0
   22.6959   -2.7634  -13.8381 O   0  0  0  0  0  0  0  0  0  0  0  0
   22.7295   -4.7439  -12.7786 O   0  0  0  0  0  0  0  0  0  0  0  0
  2  1  1  6
  2  3  1  0
  3  4  1  0
  4  5  2  0
  4  8  1  0
  6  2  1  0
  6 14  1  0
  7  6  2  0
  9 10  1  0
 10 12  1  0
 10 11  2  0
 13 12  1  6
 13 14  1  0
 13 15  1  0
 15 16  2  0
 18 17  1  6
 18 19  1  0
 20 18  1  0
 21 15  1  0
 20 21  1  1
 22 23  1  0
 22 20  1  0
 24 22  2  0
M  END
$$$$
