DNT.pdb
     RDKit          3D

 24 23  0  0  1  0  0  0  0  0999 V2000
   17.0964  -11.1972  -14.3452 N   0  0  0  0  0  0  0  0  0  0  0  0
   17.5303  -10.8019  -15.6943 C   0  0  1  0  0  0  0  0  0  0  0  0
   16.4527  -11.2543  -16.6164 C   0  0  0  0  0  0  0  0  0  0  0  0
   16.3799  -12.7020  -16.7104 C   0  0  0  0  0  0  0  0  0  0  0  0
   16.0988  -13.5184  -15.8179 O   0  0  0  0  0  0  0  0  0  0  0  0
   17.7982   -9.3398  -15.7058 C   0  0  0  0  0  0  0  0  0  0  0  0
   18.3083   -8.7234  -16.6606 O   0  0  0  0  0  0  0  0  0  0  0  0
   16.6602  -13.2794  -17.9695 O   0  0  0  0  0  0  0  0  0  0  0  0
   15.3402   -6.5445  -15.9618 N   0  0  0  0  0  0  0  0  0  0  0  0
   15.4241   -6.1588  -14.6066 C   0  0  0  0  0  0  0  0  0  0  0  0
   14.4135   -5.6604  -14.0622 O   0  0  0  0  0  0  0  0  0  0  0  0
   16.6614   -6.3240  -13.8142 C   0  0  0  0  0  0  0  0  0  0  0  0
   17.6980   -7.1013  -14.5817 C   0  0  2  0  0  0  0  0  0  0  0  0
   17.4653   -8.5245  -14.5581 N   0  0  0  0  0  0  0  0  0  0  0  0
   19.0180   -6.8016  -13.9380 C   0  0  0  0  0  0  0  0  0  0  0  0
   19.2285   -7.2633  -12.7946 O   0  0  0  0  0  0  0  0  0  0  0  0
   23.6974   -6.1721  -14.6259 C   0  0  0  0  0  0  0  0  0  0  0  0
   22.2654   -6.4472  -14.9476 C   0  0  1  0  0  0  0  0  0  0  0  0
   22.0348   -7.8272  -14.7735 O   0  0  0  0  0  0  0  0  0  0  0  0
   21.2692   -5.7422  -14.0883 C   0  0  2  0  0  0  0  0  0  0  0  0
   19.9559   -6.0154  -14.6509 N   0  0  0  0  0  0  0  0  0  0  0  0
   21.4465   -4.2928  -13.9750 C   0  0  0  0  0  0  0  0  0  0  0  0
   22.2600   -3.6912  -13.0123 O   0  0  0  0  0  0  0  0  0  0  0  0
   20.8580   -3.5271  -14.7597 O   0  0  0  0  0  0  0  0  0  0  0  0
  2  1  1  1
  2  3  1  0
  3  4  1  0
  4  5  2  0
  4  8  1  0
  6  2  1  0
  6 14  1  0
  7  6  2  0
  9 10  1  0
 10 12  1  0
 10 11  2  0
 13 12  1  1
 13 14  1  0
 13 15  1  0
 15 16  2  0
 18 17  1  1
 18 19  1  0
 20 18  1  0
 21 15  1  0
 20 21  1  6
 22 23  1  0
 22 20  1  0
 24 22  2  0
M  END
$$$$
