LEM.pdb
     RDKit          3D

 26 25  0  0  1  0  0  0  0  0999 V2000
    7.0460  -12.2630   19.1597 C   0  0  0  0  0  0  0  0  0  0  0  0
    7.7176  -13.5392   18.7205 C   0  0  1  0  0  0  0  0  0  0  0  0
    9.0795  -13.1893   18.1557 C   0  0  0  0  0  0  0  0  0  0  0  0
    7.8902  -14.4758   19.8795 C   0  0  0  0  0  0  0  0  0  0  0  0
    8.5841  -15.7591   19.5199 C   0  0  2  0  0  0  0  0  0  0  0  0
    7.6998  -16.6006   18.7695 N   0  0  0  0  0  0  0  0  0  0  0  0
    8.9840  -16.4432   20.7572 C   0  0  0  0  0  0  0  0  0  0  0  0
    8.0775  -17.0062   21.4560 O   0  0  0  0  0  0  0  0  0  0  0  0
   10.3323  -16.5268   21.2456 N   0  0  0  0  0  0  0  0  0  0  0  0
   10.5986  -17.1163   22.5130 C   0  0  1  0  0  0  0  0  0  0  0  0
   11.9844  -17.6259   22.6247 C   0  0  0  0  0  0  0  0  0  0  0  0
   12.3868  -18.8059   21.8403 C   0  0  0  0  0  0  0  0  0  0  0  0
   13.7480  -18.7907   21.2722 C   0  0  0  0  0  0  0  0  0  0  0  0
   14.7969  -18.6530   21.9836 O   0  0  0  0  0  0  0  0  0  0  0  0
   10.1902  -16.2551   23.6533 C   0  0  0  0  0  0  0  0  0  0  0  0
   10.6880  -15.1123   23.8221 O   0  0  0  0  0  0  0  0  0  0  0  0
   13.9557  -18.9285   19.9074 O   0  0  0  0  0  0  0  0  0  0  0  0
    7.4932  -11.4327   27.6895 C   0  0  0  0  0  0  0  0  0  0  0  0
    7.9334  -12.5622   26.3294 S   0  0  0  0  0  0  0  0  0  0  0  0
    7.1403  -14.1999   26.6056 C   0  0  0  0  0  0  0  0  0  0  0  0
    7.6131  -15.0781   25.4918 C   0  0  0  0  0  0  0  0  0  0  0  0
    8.8843  -15.8182   25.7374 C   0  0  2  0  0  0  0  0  0  0  0  0
    9.2205  -16.6849   24.6013 N   0  0  0  0  0  0  0  0  0  0  0  0
    8.7725  -16.6625   26.9338 C   0  0  0  0  0  0  0  0  0  0  0  0
    9.3225  -16.2029   28.1462 O   0  0  0  0  0  0  0  0  0  0  0  0
    8.2125  -17.7910   26.9695 O   0  0  0  0  0  0  0  0  0  0  0  0
  2  1  1  1
  2  3  1  0
  4  5  1  0
  4  2  1  0
  5  6  1  1
  7  8  2  0
  7  5  1  0
  9  7  1  0
 10  9  1  0
 10 11  1  1
 12 13  1  0
 12 11  1  0
 13 14  2  0
 13 17  1  0
 15 23  1  0
 15 10  1  0
 16 15  2  0
 19 20  1  0
 19 18  1  0
 20 21  1  0
 22 21  1  6
 22 24  1  0
 22 23  1  0
 24 25  1  0
 26 24  2  0
M  END
$$$$
