LEM.pdb
     RDKit          3D

 26 25  0  0  1  0  0  0  0  0999 V2000
    7.1389  -12.0754   19.5993 C   0  0  0  0  0  0  0  0  0  0  0  0
    7.6311  -13.4449   19.2061 C   0  0  1  0  0  0  0  0  0  0  0  0
    8.8935  -13.2783   18.3845 C   0  0  0  0  0  0  0  0  0  0  0  0
    7.9388  -14.2690   20.4212 C   0  0  0  0  0  0  0  0  0  0  0  0
    8.3966  -15.6644   20.1038 C   0  0  2  0  0  0  0  0  0  0  0  0
    7.3192  -16.4149   19.5301 N   0  0  0  0  0  0  0  0  0  0  0  0
    8.8407  -16.3105   21.3464 C   0  0  0  0  0  0  0  0  0  0  0  0
    7.9529  -16.6969   22.1768 O   0  0  0  0  0  0  0  0  0  0  0  0
   10.2132  -16.5423   21.7017 N   0  0  0  0  0  0  0  0  0  0  0  0
   10.5376  -17.1302   22.9562 C   0  0  1  0  0  0  0  0  0  0  0  0
   11.8037  -17.8971   22.9157 C   0  0  0  0  0  0  0  0  0  0  0  0
   12.2669  -18.5932   24.1284 C   0  0  0  0  0  0  0  0  0  0  0  0
   13.5599  -19.2969   24.0349 C   0  0  0  0  0  0  0  0  0  0  0  0
   13.7460  -20.4731   24.4902 O   0  0  0  0  0  0  0  0  0  0  0  0
   10.4633  -16.1684   24.0867 C   0  0  0  0  0  0  0  0  0  0  0  0
   11.2214  -15.1664   24.1451 O   0  0  0  0  0  0  0  0  0  0  0  0
   14.6584  -18.6993   23.4340 O   0  0  0  0  0  0  0  0  0  0  0  0
    7.2902  -11.3147   25.7029 C   0  0  0  0  0  0  0  0  0  0  0  0
    6.8447  -12.4608   27.0473 S   0  0  0  0  0  0  0  0  0  0  0  0
    8.2754  -13.5553   27.4253 C   0  0  0  0  0  0  0  0  0  0  0  0
    8.4114  -14.4728   26.2527 C   0  0  0  0  0  0  0  0  0  0  0  0
    9.5634  -15.4189   26.2931 C   0  0  2  0  0  0  0  0  0  0  0  0
    9.5334  -16.3390   25.1497 N   0  0  0  0  0  0  0  0  0  0  0  0
    9.5345  -16.2224   27.5220 C   0  0  0  0  0  0  0  0  0  0  0  0
    9.8024  -15.5940   28.7537 O   0  0  0  0  0  0  0  0  0  0  0  0
    9.2842  -17.4567   27.5702 O   0  0  0  0  0  0  0  0  0  0  0  0
  2  1  1  1
  2  3  1  0
  4  5  1  0
  4  2  1  0
  5  6  1  1
  7  8  2  0
  7  5  1  0
  9  7  1  0
 10  9  1  0
 10 11  1  6
 12 13  1  0
 12 11  1  0
 13 14  2  0
 13 17  1  0
 15 23  1  0
 15 10  1  0
 16 15  2  0
 19 20  1  0
 19 18  1  0
 20 21  1  0
 22 21  1  6
 22 24  1  0
 22 23  1  0
 24 25  1  0
 26 24  2  0
M  END
$$$$
