LEM.pdb
     RDKit          3D

 26 25  0  0  1  0  0  0  0  0999 V2000
    9.2296  -13.0493   19.0300 C   0  0  0  0  0  0  0  0  0  0  0  0
    8.3507  -13.7793   20.0134 C   0  0  1  0  0  0  0  0  0  0  0  0
    7.2714  -12.8258   20.4848 C   0  0  0  0  0  0  0  0  0  0  0  0
    7.7080  -14.9720   19.3694 C   0  0  0  0  0  0  0  0  0  0  0  0
    8.6447  -16.1308   19.1754 C   0  0  2  0  0  0  0  0  0  0  0  0
    7.9942  -17.1669   18.4294 N   0  0  0  0  0  0  0  0  0  0  0  0
    9.0390  -16.6458   20.4938 C   0  0  0  0  0  0  0  0  0  0  0  0
    8.1437  -17.1879   21.2229 O   0  0  0  0  0  0  0  0  0  0  0  0
   10.3701  -16.5842   21.0304 N   0  0  0  0  0  0  0  0  0  0  0  0
   10.6502  -17.1330   22.3130 C   0  0  1  0  0  0  0  0  0  0  0  0
   11.9262  -17.8837   22.3454 C   0  0  0  0  0  0  0  0  0  0  0  0
   12.1470  -18.9769   21.3833 C   0  0  0  0  0  0  0  0  0  0  0  0
   13.4465  -19.6712   21.4567 C   0  0  0  0  0  0  0  0  0  0  0  0
   14.5480  -19.1221   21.1244 O   0  0  0  0  0  0  0  0  0  0  0  0
   10.5178  -16.1416   23.4122 C   0  0  0  0  0  0  0  0  0  0  0  0
   11.2920  -15.1541   23.5003 O   0  0  0  0  0  0  0  0  0  0  0  0
   13.5333  -20.9828   21.9005 O   0  0  0  0  0  0  0  0  0  0  0  0
    5.8351  -11.4281   27.2204 C   0  0  0  0  0  0  0  0  0  0  0  0
    6.2149  -12.7427   26.0176 S   0  0  0  0  0  0  0  0  0  0  0  0
    7.8204  -13.5313   26.4511 C   0  0  0  0  0  0  0  0  0  0  0  0
    8.1051  -14.5108   25.3579 C   0  0  0  0  0  0  0  0  0  0  0  0
    9.4000  -15.2437   25.4577 C   0  0  2  0  0  0  0  0  0  0  0  0
    9.5119  -16.2661   24.4104 N   0  0  0  0  0  0  0  0  0  0  0  0
    9.5206  -15.9132   26.7592 C   0  0  0  0  0  0  0  0  0  0  0  0
    9.7602  -15.1333   27.9073 O   0  0  0  0  0  0  0  0  0  0  0  0
    9.4254  -17.1566   26.9414 O   0  0  0  0  0  0  0  0  0  0  0  0
  2  1  1  6
  2  3  1  0
  4  5  1  0
  4  2  1  0
  5  6  1  6
  7  8  2  0
  7  5  1  0
  9  7  1  0
 10  9  1  0
 10 11  1  6
 12 13  1  0
 12 11  1  0
 13 14  2  0
 13 17  1  0
 15 23  1  0
 15 10  1  0
 16 15  2  0
 19 20  1  0
 19 18  1  0
 20 21  1  0
 22 21  1  1
 22 24  1  0
 22 23  1  0
 24 25  1  0
 26 24  2  0
M  END
$$$$
