LEM.pdb
     RDKit          3D

 26 25  0  0  1  0  0  0  0  0999 V2000
    7.3743  -11.8212   19.5328 C   0  0  0  0  0  0  0  0  0  0  0  0
    7.8899  -13.1545   19.0541 C   0  0  1  0  0  0  0  0  0  0  0  0
    9.2769  -12.9491   18.4795 C   0  0  0  0  0  0  0  0  0  0  0  0
    7.9658  -14.1338   20.1879 C   0  0  0  0  0  0  0  0  0  0  0  0
    8.5783  -15.4518   19.8066 C   0  0  2  0  0  0  0  0  0  0  0  0
    7.6956  -16.1680   18.9341 N   0  0  0  0  0  0  0  0  0  0  0  0
    8.8090  -16.2367   21.0271 C   0  0  0  0  0  0  0  0  0  0  0  0
    7.7982  -16.7340   21.6254 O   0  0  0  0  0  0  0  0  0  0  0  0
   10.0999  -16.4891   21.6045 N   0  0  0  0  0  0  0  0  0  0  0  0
   10.2051  -17.1552   22.8574 C   0  0  1  0  0  0  0  0  0  0  0  0
   11.4169  -18.0008   22.9535 C   0  0  0  0  0  0  0  0  0  0  0  0
   11.6800  -18.7496   24.1943 C   0  0  0  0  0  0  0  0  0  0  0  0
   12.9024  -19.5746   24.2233 C   0  0  0  0  0  0  0  0  0  0  0  0
   13.8890  -19.3291   24.9925 O   0  0  0  0  0  0  0  0  0  0  0  0
   10.0244  -16.2446   24.0180 C   0  0  0  0  0  0  0  0  0  0  0  0
   10.9586  -15.5056   24.4223 O   0  0  0  0  0  0  0  0  0  0  0  0
   13.0393  -20.6807   23.3971 O   0  0  0  0  0  0  0  0  0  0  0  0
    7.2433  -11.4602   25.5955 C   0  0  0  0  0  0  0  0  0  0  0  0
    6.1514  -12.4665   26.6511 S   0  0  0  0  0  0  0  0  0  0  0  0
    7.0767  -13.9271   27.2818 C   0  0  0  0  0  0  0  0  0  0  0  0
    7.2992  -14.8142   26.0990 C   0  0  0  0  0  0  0  0  0  0  0  0
    8.6879  -15.3269   25.9184 C   0  0  2  0  0  0  0  0  0  0  0  0
    8.7897  -16.1694   24.7206 N   0  0  0  0  0  0  0  0  0  0  0  0
    9.1003  -16.1322   27.0751 C   0  0  0  0  0  0  0  0  0  0  0  0
    8.4910  -17.3845   27.2859 O   0  0  0  0  0  0  0  0  0  0  0  0
    9.9746  -15.7905   27.9161 O   0  0  0  0  0  0  0  0  0  0  0  0
  2  1  1  1
  2  3  1  0
  4  5  1  0
  4  2  1  0
  5  6  1  6
  7  8  2  0
  7  5  1  0
  9  7  1  0
 10  9  1  0
 10 11  1  1
 12 13  1  0
 12 11  1  0
 13 14  2  0
 13 17  1  0
 15 23  1  0
 15 10  1  0
 16 15  2  0
 19 20  1  0
 19 18  1  0
 20 21  1  0
 22 21  1  1
 22 24  1  0
 22 23  1  0
 24 25  1  0
 26 24  2  0
M  END
$$$$
