LEM.pdb
     RDKit          3D

 26 25  0  0  1  0  0  0  0  0999 V2000
    6.3274  -13.3032   18.7047 C   0  0  0  0  0  0  0  0  0  0  0  0
    7.7332  -13.7048   19.0721 C   0  0  1  0  0  0  0  0  0  0  0  0
    8.6894  -12.7018   18.4587 C   0  0  0  0  0  0  0  0  0  0  0  0
    7.9130  -13.7105   20.5613 C   0  0  0  0  0  0  0  0  0  0  0  0
    9.3237  -13.9889   20.9976 C   0  0  2  0  0  0  0  0  0  0  0  0
   10.0581  -14.5920   19.9252 N   0  0  0  0  0  0  0  0  0  0  0  0
    9.2913  -14.9025   22.1478 C   0  0  0  0  0  0  0  0  0  0  0  0
    8.5215  -14.6173   23.1241 O   0  0  0  0  0  0  0  0  0  0  0  0
   10.0690  -16.1052   22.2583 N   0  0  0  0  0  0  0  0  0  0  0  0
   10.0173  -16.8835   23.4484 C   0  0  1  0  0  0  0  0  0  0  0  0
   10.7487  -18.1650   23.3236 C   0  0  0  0  0  0  0  0  0  0  0  0
   10.7401  -19.1154   24.4488 C   0  0  0  0  0  0  0  0  0  0  0  0
   11.5667  -20.3278   24.2979 C   0  0  0  0  0  0  0  0  0  0  0  0
   12.8410  -20.3093   24.3325 O   0  0  0  0  0  0  0  0  0  0  0  0
   10.3786  -16.1111   24.6656 C   0  0  0  0  0  0  0  0  0  0  0  0
   11.4864  -15.5234   24.7635 O   0  0  0  0  0  0  0  0  0  0  0  0
   10.9840  -21.5723   24.1071 O   0  0  0  0  0  0  0  0  0  0  0  0
    6.2940  -11.1599   25.9500 C   0  0  0  0  0  0  0  0  0  0  0  0
    6.8994  -12.4380   27.0986 S   0  0  0  0  0  0  0  0  0  0  0  0
    8.3170  -13.3312   26.3371 C   0  0  0  0  0  0  0  0  0  0  0  0
    8.7984  -14.2961   27.3727 C   0  0  0  0  0  0  0  0  0  0  0  0
    9.8875  -15.2219   26.9477 C   0  0  2  0  0  0  0  0  0  0  0  0
    9.4891  -16.0032   25.7706 N   0  0  0  0  0  0  0  0  0  0  0  0
   10.2207  -16.1632   28.0246 C   0  0  0  0  0  0  0  0  0  0  0  0
   10.8891  -15.6825   29.1674 O   0  0  0  0  0  0  0  0  0  0  0  0
    9.9530  -17.3947   28.0137 O   0  0  0  0  0  0  0  0  0  0  0  0
  2  1  1  1
  2  3  1  0
  4  5  1  0
  4  2  1  0
  5  6  1  6
  7  8  2  0
  7  5  1  0
  9  7  1  0
 10  9  1  0
 10 11  1  6
 12 13  1  0
 12 11  1  0
 13 14  2  0
 13 17  1  0
 15 23  1  0
 15 10  1  0
 16 15  2  0
 19 20  1  0
 19 18  1  0
 20 21  1  0
 22 21  1  1
 22 24  1  0
 22 23  1  0
 24 25  1  0
 26 24  2  0
M  END
$$$$
