LEM.pdb
     RDKit          3D

 26 25  0  0  1  0  0  0  0  0999 V2000
    6.6718  -11.5022   24.7833 C   0  0  0  0  0  0  0  0  0  0  0  0
    6.8160  -12.7001   25.6869 C   0  0  1  0  0  0  0  0  0  0  0  0
    5.9085  -12.5037   26.8846 C   0  0  0  0  0  0  0  0  0  0  0  0
    6.4217  -13.9577   24.9704 C   0  0  0  0  0  0  0  0  0  0  0  0
    7.1927  -15.1699   25.4107 C   0  0  2  0  0  0  0  0  0  0  0  0
    8.3163  -14.7734   26.2065 N   0  0  0  0  0  0  0  0  0  0  0  0
    7.6622  -15.8900   24.2191 C   0  0  0  0  0  0  0  0  0  0  0  0
    7.0006  -16.9086   23.8294 O   0  0  0  0  0  0  0  0  0  0  0  0
    8.8221  -15.5311   23.4515 N   0  0  0  0  0  0  0  0  0  0  0  0
    9.8745  -16.4702   23.2643 C   0  0  1  0  0  0  0  0  0  0  0  0
   10.6070  -16.2599   21.9947 C   0  0  0  0  0  0  0  0  0  0  0  0
   11.6485  -17.2207   21.5927 C   0  0  0  0  0  0  0  0  0  0  0  0
   11.5829  -17.7280   20.2091 C   0  0  0  0  0  0  0  0  0  0  0  0
   11.5495  -18.9703   19.9248 O   0  0  0  0  0  0  0  0  0  0  0  0
   10.7642  -16.5917   24.4486 C   0  0  0  0  0  0  0  0  0  0  0  0
   11.6689  -15.7481   24.6774 O   0  0  0  0  0  0  0  0  0  0  0  0
   11.5538  -16.8585   19.1284 O   0  0  0  0  0  0  0  0  0  0  0  0
   10.1788  -13.1125   28.9184 C   0  0  0  0  0  0  0  0  0  0  0  0
   10.6522  -14.8635   29.0888 S   0  0  0  0  0  0  0  0  0  0  0  0
   10.9467  -15.5886   27.4230 C   0  0  0  0  0  0  0  0  0  0  0  0
   11.2405  -17.0366   27.6516 C   0  0  0  0  0  0  0  0  0  0  0  0
   11.6220  -17.8247   26.4444 C   0  0  2  0  0  0  0  0  0  0  0  0
   10.6317  -17.6649   25.3728 N   0  0  0  0  0  0  0  0  0  0  0  0
   11.7163  -19.2549   26.7646 C   0  0  0  0  0  0  0  0  0  0  0  0
   12.7930  -19.7076   27.5518 O   0  0  0  0  0  0  0  0  0  0  0  0
   10.8959  -20.1336   26.3863 O   0  0  0  0  0  0  0  0  0  0  0  0
  2  1  1  6
  2  3  1  0
  4  5  1  0
  4  2  1  0
  5  6  1  1
  7  8  2  0
  7  5  1  0
  9  7  1  0
 10  9  1  0
 10 11  1  6
 12 13  1  0
 12 11  1  0
 13 14  2  0
 13 17  1  0
 15 23  1  0
 15 10  1  0
 16 15  2  0
 19 20  1  0
 19 18  1  0
 20 21  1  0
 22 21  1  1
 22 24  1  0
 22 23  1  0
 24 25  1  0
 26 24  2  0
M  END
$$$$
