LEM.pdb
     RDKit          3D

 26 25  0  0  1  0  0  0  0  0999 V2000
    7.1281  -12.0479   19.7536 C   0  0  0  0  0  0  0  0  0  0  0  0
    7.8824  -13.3273   19.4959 C   0  0  1  0  0  0  0  0  0  0  0  0
    9.3090  -12.9720   19.1285 C   0  0  0  0  0  0  0  0  0  0  0  0
    7.8899  -14.1962   20.7188 C   0  0  0  0  0  0  0  0  0  0  0  0
    8.6992  -15.4523   20.5613 C   0  0  2  0  0  0  0  0  0  0  0  0
    8.0060  -16.3791   19.7164 N   0  0  0  0  0  0  0  0  0  0  0  0
    8.9041  -16.0520   21.8869 C   0  0  0  0  0  0  0  0  0  0  0  0
    7.8974  -16.1610   22.6626 O   0  0  0  0  0  0  0  0  0  0  0  0
   10.1653  -16.5297   22.3817 N   0  0  0  0  0  0  0  0  0  0  0  0
   10.2510  -17.1127   23.6768 C   0  0  1  0  0  0  0  0  0  0  0  0
   11.1957  -18.2518   23.7277 C   0  0  0  0  0  0  0  0  0  0  0  0
   11.4393  -18.9329   25.0108 C   0  0  0  0  0  0  0  0  0  0  0  0
   12.3912  -20.0597   24.9921 C   0  0  0  0  0  0  0  0  0  0  0  0
   13.5304  -20.0170   25.5629 O   0  0  0  0  0  0  0  0  0  0  0  0
   10.4714  -16.1116   24.7528 C   0  0  0  0  0  0  0  0  0  0  0  0
   11.4433  -15.3138   24.7161 O   0  0  0  0  0  0  0  0  0  0  0  0
   12.0852  -21.2446   24.3386 O   0  0  0  0  0  0  0  0  0  0  0  0
    6.4757  -10.9687   26.1698 C   0  0  0  0  0  0  0  0  0  0  0  0
    6.8634  -12.5053   27.0687 S   0  0  0  0  0  0  0  0  0  0  0  0
    8.5524  -13.0776   26.6137 C   0  0  0  0  0  0  0  0  0  0  0  0
    8.8016  -14.3079   27.4258 C   0  0  0  0  0  0  0  0  0  0  0  0
    9.9567  -15.1495   26.9999 C   0  0  2  0  0  0  0  0  0  0  0  0
    9.5947  -16.0122   25.8687 N   0  0  0  0  0  0  0  0  0  0  0  0
   10.4073  -16.0110   28.1006 C   0  0  0  0  0  0  0  0  0  0  0  0
   11.0309  -15.4204   29.2169 O   0  0  0  0  0  0  0  0  0  0  0  0
   10.2805  -17.2645   28.1329 O   0  0  0  0  0  0  0  0  0  0  0  0
  2  1  1  1
  2  3  1  0
  4  5  1  0
  4  2  1  0
  5  6  1  6
  7  8  2  0
  7  5  1  0
  9  7  1  0
 10  9  1  0
 10 11  1  6
 12 13  1  0
 12 11  1  0
 13 14  2  0
 13 17  1  0
 15 23  1  0
 15 10  1  0
 16 15  2  0
 19 20  1  0
 19 18  1  0
 20 21  1  0
 22 21  1  1
 22 24  1  0
 22 23  1  0
 24 25  1  0
 26 24  2  0
M  END
$$$$
