LEM.pdb
     RDKit          3D

 26 25  0  0  1  0  0  0  0  0999 V2000
    6.2702  -12.1504   26.5570 C   0  0  0  0  0  0  0  0  0  0  0  0
    6.1192  -13.1284   25.4198 C   0  0  1  0  0  0  0  0  0  0  0  0
    6.7006  -12.4980   24.1705 C   0  0  0  0  0  0  0  0  0  0  0  0
    6.8508  -14.4044   25.7146 C   0  0  0  0  0  0  0  0  0  0  0  0
    6.6151  -15.4841   24.6965 C   0  0  2  0  0  0  0  0  0  0  0  0
    5.5643  -16.3526   25.1380 N   0  0  0  0  0  0  0  0  0  0  0  0
    7.8545  -16.2552   24.5295 C   0  0  0  0  0  0  0  0  0  0  0  0
    8.1753  -17.0878   25.4410 O   0  0  0  0  0  0  0  0  0  0  0  0
    8.7426  -16.1414   23.4061 N   0  0  0  0  0  0  0  0  0  0  0  0
    9.9240  -16.9322   23.3454 C   0  0  1  0  0  0  0  0  0  0  0  0
   10.5251  -16.9559   21.9924 C   0  0  0  0  0  0  0  0  0  0  0  0
   11.7057  -17.7998   21.7400 C   0  0  0  0  0  0  0  0  0  0  0  0
   12.2574  -17.7746   20.3722 C   0  0  0  0  0  0  0  0  0  0  0  0
   12.0248  -18.6859   19.5115 O   0  0  0  0  0  0  0  0  0  0  0  0
   10.8975  -16.6082   24.4207 C   0  0  0  0  0  0  0  0  0  0  0  0
   11.6725  -15.6219   24.3272 O   0  0  0  0  0  0  0  0  0  0  0  0
   13.0732  -16.7354   19.9484 O   0  0  0  0  0  0  0  0  0  0  0  0
   11.5497  -13.3302   28.9761 C   0  0  0  0  0  0  0  0  0  0  0  0
   10.2404  -14.5920   29.0897 S   0  0  0  0  0  0  0  0  0  0  0  0
   10.3306  -15.7088   27.6296 C   0  0  0  0  0  0  0  0  0  0  0  0
   11.6162  -16.4598   27.7660 C   0  0  0  0  0  0  0  0  0  0  0  0
   12.0963  -17.1619   26.5410 C   0  0  2  0  0  0  0  0  0  0  0  0
   10.9948  -17.3980   25.5999 N   0  0  0  0  0  0  0  0  0  0  0  0
   12.6861  -18.4625   26.8836 C   0  0  0  0  0  0  0  0  0  0  0  0
   13.9046  -18.4937   27.5894 O   0  0  0  0  0  0  0  0  0  0  0  0
   12.1828  -19.5808   26.5933 O   0  0  0  0  0  0  0  0  0  0  0  0
  2  1  1  1
  2  3  1  0
  4  5  1  0
  4  2  1  0
  5  6  1  1
  7  8  2  0
  7  5  1  0
  9  7  1  0
 10  9  1  0
 10 11  1  6
 12 13  1  0
 12 11  1  0
 13 14  2  0
 13 17  1  0
 15 23  1  0
 15 10  1  0
 16 15  2  0
 19 20  1  0
 19 18  1  0
 20 21  1  0
 22 21  1  1
 22 24  1  0
 22 23  1  0
 24 25  1  0
 26 24  2  0
M  END
$$$$
