LEM.pdb
     RDKit          3D

 26 25  0  0  1  0  0  0  0  0999 V2000
    6.3278  -12.3945   19.0360 C   0  0  0  0  0  0  0  0  0  0  0  0
    7.6018  -13.1733   18.8289 C   0  0  1  0  0  0  0  0  0  0  0  0
    8.7652  -12.2038   18.8816 C   0  0  0  0  0  0  0  0  0  0  0  0
    7.7732  -14.2082   19.9013 C   0  0  0  0  0  0  0  0  0  0  0  0
    9.1969  -14.6487   20.0925 C   0  0  2  0  0  0  0  0  0  0  0  0
    9.6359  -15.3960   18.9514 N   0  0  0  0  0  0  0  0  0  0  0  0
    9.2738  -15.4919   21.2933 C   0  0  0  0  0  0  0  0  0  0  0  0
    8.4727  -15.2472   22.2553 O   0  0  0  0  0  0  0  0  0  0  0  0
   10.1924  -16.5822   21.4688 N   0  0  0  0  0  0  0  0  0  0  0  0
   10.1219  -17.3963   22.6337 C   0  0  1  0  0  0  0  0  0  0  0  0
   11.0537  -18.5460   22.5828 C   0  0  0  0  0  0  0  0  0  0  0  0
   11.0738  -19.5107   23.6958 C   0  0  0  0  0  0  0  0  0  0  0  0
   12.0780  -20.5886   23.6197 C   0  0  0  0  0  0  0  0  0  0  0  0
   11.9157  -21.6421   22.9204 O   0  0  0  0  0  0  0  0  0  0  0  0
   10.2116  -16.6163   23.8956 C   0  0  0  0  0  0  0  0  0  0  0  0
   11.2517  -15.9765   24.1976 O   0  0  0  0  0  0  0  0  0  0  0  0
   13.2724  -20.5050   24.3205 O   0  0  0  0  0  0  0  0  0  0  0  0
    7.0414  -10.7604   26.5285 C   0  0  0  0  0  0  0  0  0  0  0  0
    6.7772  -12.5562   26.3724 S   0  0  0  0  0  0  0  0  0  0  0  0
    8.4010  -13.4077   26.2126 C   0  0  0  0  0  0  0  0  0  0  0  0
    8.1020  -14.8722   26.2499 C   0  0  0  0  0  0  0  0  0  0  0  0
    9.2666  -15.7824   26.0523 C   0  0  2  0  0  0  0  0  0  0  0  0
    9.1274  -16.5596   24.8148 N   0  0  0  0  0  0  0  0  0  0  0  0
    9.3844  -16.7277   27.1701 C   0  0  0  0  0  0  0  0  0  0  0  0
    9.4071  -18.1089   26.8952 O   0  0  0  0  0  0  0  0  0  0  0  0
    9.4691  -16.4007   28.3843 O   0  0  0  0  0  0  0  0  0  0  0  0
  2  1  1  1
  2  3  1  0
  4  5  1  0
  4  2  1  0
  5  6  1  6
  7  8  2  0
  7  5  1  0
  9  7  1  0
 10  9  1  0
 10 11  1  6
 12 13  1  0
 12 11  1  0
 13 14  2  0
 13 17  1  0
 15 23  1  0
 15 10  1  0
 16 15  2  0
 19 20  1  0
 19 18  1  0
 20 21  1  0
 22 21  1  1
 22 24  1  0
 22 23  1  0
 24 25  1  0
 26 24  2  0
M  END
$$$$
