LTF.pdb
     RDKit          3D

 27 27  0  0  1  0  0  0  0  0999 V2000
   27.2046  -14.8714  -16.0025 C   0  0  0  0  0  0  0  0  0  0  0  0
   27.2320  -16.3783  -16.0204 C   0  0  1  0  0  0  0  0  0  0  0  0
   28.6443  -16.8385  -15.7602 C   0  0  0  0  0  0  0  0  0  0  0  0
   26.2091  -17.0401  -15.1862 C   0  0  0  0  0  0  0  0  0  0  0  0
   26.2846  -18.5043  -15.0051 C   0  0  2  0  0  0  0  0  0  0  0  0
   26.0122  -19.3213  -16.1365 N   0  0  0  0  0  0  0  0  0  0  0  0
   25.5421  -18.9818  -13.7944 C   0  0  0  0  0  0  0  0  0  0  0  0
   24.2843  -18.9694  -13.8365 O   0  0  0  0  0  0  0  0  0  0  0  0
   24.0407  -21.1963  -13.2953 C   0  0  0  0  0  0  0  0  0  0  0  0
   25.0182  -21.4382  -12.1531 C   0  0  1  0  0  0  0  0  0  0  0  0
   26.0350  -22.2940  -12.5218 O   0  0  0  0  0  0  0  0  0  0  0  0
   25.5108  -20.1232  -11.6063 C   0  0  2  0  0  0  0  0  0  0  0  0
   26.2224  -19.4288  -12.6451 N   0  0  0  0  0  0  0  0  0  0  0  0
   26.3811  -20.3359  -10.4064 C   0  0  0  0  0  0  0  0  0  0  0  0
   27.5927  -20.6352  -10.5546 O   0  0  0  0  0  0  0  0  0  0  0  0
   25.8637  -20.2059   -9.0774 N   0  0  0  0  0  0  0  0  0  0  0  0
   26.6548  -20.4865   -7.9078 C   0  0  1  0  0  0  0  0  0  0  0  0
   27.3327  -19.2571   -7.3611 C   0  0  0  0  0  0  0  0  0  0  0  0
   28.1324  -19.5116   -6.1607 C   0  0  0  0  0  0  0  0  0  0  0  0
   29.3992  -20.0428   -6.2453 C   0  0  0  0  0  0  0  0  0  0  0  0
   30.0927  -20.2546   -5.0731 C   0  0  0  0  0  0  0  0  0  0  0  0
   29.5448  -19.9477   -3.8474 C   0  0  0  0  0  0  0  0  0  0  0  0
   28.2712  -19.4126   -3.7453 C   0  0  0  0  0  0  0  0  0  0  0  0
   27.6042  -19.2124   -4.9280 C   0  0  0  0  0  0  0  0  0  0  0  0
   25.8585  -21.1938   -6.8605 C   0  0  0  0  0  0  0  0  0  0  0  0
   24.6045  -21.2670   -6.9337 O   0  0  0  0  0  0  0  0  0  0  0  0
   26.4646  -21.7967   -5.7683 O   0  0  0  0  0  0  0  0  0  0  0  0
  2  1  1  1
  2  3  1  0
  4  2  1  0
  5  4  1  0
  5  6  1  6
  7  8  2  0
  7  5  1  0
 10  9  1  6
 10 12  1  0
 11 10  1  0
 12 13  1  6
 13  7  1  0
 14 15  2  0
 14 12  1  0
 16 14  1  0
 17 16  1  0
 17 18  1  1
 19 18  1  0
 19 20  2  0
 21 20  1  0
 22 21  2  0
 23 24  2  0
 23 22  1  0
 24 19  1  0
 25 17  1  0
 26 25  2  0
 27 25  1  0
M  END
$$$$
