LTF.pdb
     RDKit          3D

 27 27  0  0  1  0  0  0  0  0999 V2000
   16.6024  -15.2811  -17.5397 C   0  0  0  0  0  0  0  0  0  0  0  0
   16.9500  -14.4279  -16.3468 C   0  0  1  0  0  0  0  0  0  0  0  0
   17.7931  -15.2435  -15.3992 C   0  0  0  0  0  0  0  0  0  0  0  0
   17.4989  -13.0937  -16.6609 C   0  0  0  0  0  0  0  0  0  0  0  0
   17.7303  -12.1461  -15.5515 C   0  0  2  0  0  0  0  0  0  0  0  0
   16.6162  -11.8022  -14.7378 N   0  0  0  0  0  0  0  0  0  0  0  0
   18.4954  -10.9288  -15.9736 C   0  0  0  0  0  0  0  0  0  0  0  0
   19.5347  -11.1003  -16.6622 O   0  0  0  0  0  0  0  0  0  0  0  0
   17.5445   -8.3929  -18.3080 C   0  0  0  0  0  0  0  0  0  0  0  0
   17.7778   -7.6897  -16.9776 C   0  0  1  0  0  0  0  0  0  0  0  0
   16.5921   -7.4127  -16.3299 O   0  0  0  0  0  0  0  0  0  0  0  0
   18.7488   -8.4792  -16.1382 C   0  0  2  0  0  0  0  0  0  0  0  0
   18.0723   -9.6346  -15.6137 N   0  0  0  0  0  0  0  0  0  0  0  0
   19.3097   -7.6363  -15.0350 C   0  0  0  0  0  0  0  0  0  0  0  0
   18.7613   -7.6357  -13.9042 O   0  0  0  0  0  0  0  0  0  0  0  0
   20.4692   -6.8200  -15.2361 N   0  0  0  0  0  0  0  0  0  0  0  0
   21.0070   -5.9717  -14.2048 C   0  0  1  0  0  0  0  0  0  0  0  0
   21.9758   -6.6971  -13.3076 C   0  0  0  0  0  0  0  0  0  0  0  0
   22.9443   -7.5220  -14.0334 C   0  0  0  0  0  0  0  0  0  0  0  0
   23.7768   -6.9768  -14.9843 C   0  0  0  0  0  0  0  0  0  0  0  0
   24.6632   -7.8144  -15.6265 C   0  0  0  0  0  0  0  0  0  0  0  0
   24.7235   -9.1589  -15.3340 C   0  0  0  0  0  0  0  0  0  0  0  0
   23.8926   -9.7229  -14.3798 C   0  0  0  0  0  0  0  0  0  0  0  0
   23.0205   -8.8657  -13.7566 C   0  0  0  0  0  0  0  0  0  0  0  0
   21.6022   -4.7245  -14.7718 C   0  0  0  0  0  0  0  0  0  0  0  0
   21.6886   -4.5501  -16.0149 O   0  0  0  0  0  0  0  0  0  0  0  0
   22.0826   -3.7108  -13.9560 O   0  0  0  0  0  0  0  0  0  0  0  0
  2  1  1  6
  2  3  1  0
  4  2  1  0
  5  4  1  0
  5  6  1  6
  7  8  2  0
  7  5  1  0
 10  9  1  6
 10 12  1  0
 11 10  1  0
 12 13  1  1
 13  7  1  0
 14 15  2  0
 14 12  1  0
 16 14  1  0
 17 16  1  0
 17 18  1  6
 19 18  1  0
 19 20  2  0
 21 20  1  0
 22 21  2  0
 23 24  2  0
 23 22  1  0
 24 19  1  0
 25 17  1  0
 26 25  2  0
 27 25  1  0
M  END
$$$$
