LTF.pdb
     RDKit          3D

 27 27  0  0  1  0  0  0  0  0999 V2000
   26.5623  -22.2890  -10.3737 C   0  0  0  0  0  0  0  0  0  0  0  0
   25.5945  -21.2799  -10.9368 C   0  0  1  0  0  0  0  0  0  0  0  0
   25.0574  -20.4421   -9.8039 C   0  0  0  0  0  0  0  0  0  0  0  0
   26.0894  -20.5035  -12.0911 C   0  0  0  0  0  0  0  0  0  0  0  0
   25.1890  -19.5114  -12.7133 C   0  0  2  0  0  0  0  0  0  0  0  0
   23.8298  -19.8842  -12.9010 N   0  0  0  0  0  0  0  0  0  0  0  0
   25.7640  -18.8983  -13.9538 C   0  0  0  0  0  0  0  0  0  0  0  0
   26.9616  -18.5134  -13.9154 O   0  0  0  0  0  0  0  0  0  0  0  0
   25.4730  -18.2624  -18.8033 C   0  0  0  0  0  0  0  0  0  0  0  0
   24.8312  -18.7542  -17.5130 C   0  0  1  0  0  0  0  0  0  0  0  0
   24.6803  -20.1251  -17.5062 O   0  0  0  0  0  0  0  0  0  0  0  0
   25.5929  -18.2294  -16.3234 C   0  0  2  0  0  0  0  0  0  0  0  0
   24.9953  -18.7533  -15.1250 N   0  0  0  0  0  0  0  0  0  0  0  0
   25.6002  -16.7321  -16.3117 C   0  0  0  0  0  0  0  0  0  0  0  0
   24.7126  -16.1046  -15.6810 O   0  0  0  0  0  0  0  0  0  0  0  0
   26.6042  -15.9858  -17.0089 N   0  0  0  0  0  0  0  0  0  0  0  0
   26.6306  -14.5465  -17.0204 C   0  0  1  0  0  0  0  0  0  0  0  0
   27.5102  -13.9767  -15.9380 C   0  0  0  0  0  0  0  0  0  0  0  0
   27.7950  -12.5495  -16.1027 C   0  0  0  0  0  0  0  0  0  0  0  0
   28.9079  -12.1172  -16.7873 C   0  0  0  0  0  0  0  0  0  0  0  0
   29.1108  -10.7587  -16.9024 C   0  0  0  0  0  0  0  0  0  0  0  0
   28.2329   -9.8510  -16.3528 C   0  0  0  0  0  0  0  0  0  0  0  0
   27.1084  -10.2699  -15.6609 C   0  0  0  0  0  0  0  0  0  0  0  0
   26.9316  -11.6273  -15.5620 C   0  0  0  0  0  0  0  0  0  0  0  0
   26.9918  -14.0127  -18.3680 C   0  0  0  0  0  0  0  0  0  0  0  0
   26.4192  -12.9975  -18.8419 O   0  0  0  0  0  0  0  0  0  0  0  0
   27.9689  -14.6106  -19.1501 O   0  0  0  0  0  0  0  0  0  0  0  0
  2  1  1  1
  2  3  1  0
  4  2  1  0
  5  4  1  0
  5  6  1  6
  7  8  2  0
  7  5  1  0
 10  9  1  6
 10 12  1  0
 11 10  1  0
 12 13  1  1
 13  7  1  0
 14 15  2  0
 14 12  1  0
 16 14  1  0
 17 16  1  0
 17 18  1  1
 19 18  1  0
 19 20  2  0
 21 20  1  0
 22 21  2  0
 23 24  2  0
 23 22  1  0
 24 19  1  0
 25 17  1  0
 26 25  2  0
 27 25  1  0
M  END
$$$$
