LTF.pdb
     RDKit          3D

 27 27  0  0  1  0  0  0  0  0999 V2000
   29.1557  -18.7891  -20.9801 C   0  0  0  0  0  0  0  0  0  0  0  0
   28.5609  -19.9093  -20.1656 C   0  0  1  0  0  0  0  0  0  0  0  0
   29.0903  -21.2206  -20.6893 C   0  0  0  0  0  0  0  0  0  0  0  0
   28.6612  -19.7497  -18.7011 C   0  0  0  0  0  0  0  0  0  0  0  0
   28.1742  -20.8440  -17.8365 C   0  0  2  0  0  0  0  0  0  0  0  0
   26.9163  -21.4244  -18.1568 N   0  0  0  0  0  0  0  0  0  0  0  0
   28.2714  -20.5216  -16.3763 C   0  0  0  0  0  0  0  0  0  0  0  0
   29.4197  -20.3542  -15.8891 O   0  0  0  0  0  0  0  0  0  0  0  0
   27.6970  -17.6030  -14.7953 C   0  0  0  0  0  0  0  0  0  0  0  0
   26.7243  -18.5546  -14.1119 C   0  0  1  0  0  0  0  0  0  0  0  0
   25.4385  -18.4005  -14.5866 O   0  0  0  0  0  0  0  0  0  0  0  0
   27.2322  -19.9701  -14.2066 C   0  0  2  0  0  0  0  0  0  0  0  0
   27.1213  -20.4100  -15.5711 N   0  0  0  0  0  0  0  0  0  0  0  0
   26.4717  -20.8735  -13.2858 C   0  0  0  0  0  0  0  0  0  0  0  0
   25.7960  -21.8237  -13.7548 O   0  0  0  0  0  0  0  0  0  0  0  0
   26.4937  -20.6816  -11.8667 N   0  0  0  0  0  0  0  0  0  0  0  0
   25.6602  -21.4392  -10.9701 C   0  0  1  0  0  0  0  0  0  0  0  0
   26.4338  -22.0200   -9.8151 C   0  0  0  0  0  0  0  0  0  0  0  0
   27.0264  -21.0087   -8.9368 C   0  0  0  0  0  0  0  0  0  0  0  0
   28.3482  -21.0762   -8.5592 C   0  0  0  0  0  0  0  0  0  0  0  0
   28.8368  -20.0887   -7.7310 C   0  0  0  0  0  0  0  0  0  0  0  0
   28.0357  -19.0599   -7.2877 C   0  0  0  0  0  0  0  0  0  0  0  0
   26.7036  -18.9777   -7.6586 C   0  0  0  0  0  0  0  0  0  0  0  0
   26.2444  -19.9739   -8.4835 C   0  0  0  0  0  0  0  0  0  0  0  0
   24.4838  -20.6438  -10.5067 C   0  0  0  0  0  0  0  0  0  0  0  0
   24.4595  -19.3907  -10.6179 O   0  0  0  0  0  0  0  0  0  0  0  0
   23.3739  -21.2499   -9.9371 O   0  0  0  0  0  0  0  0  0  0  0  0
  2  1  1  6
  2  3  1  0
  4  2  1  0
  5  4  1  0
  5  6  1  6
  7  8  2  0
  7  5  1  0
 10  9  1  6
 10 12  1  0
 11 10  1  0
 12 13  1  6
 13  7  1  0
 14 15  2  0
 14 12  1  0
 16 14  1  0
 17 16  1  0
 17 18  1  1
 19 18  1  0
 19 20  2  0
 21 20  1  0
 22 21  2  0
 23 24  2  0
 23 22  1  0
 24 19  1  0
 25 17  1  0
 26 25  2  0
 27 25  1  0
M  END
$$$$
