LTF.pdb
     RDKit          3D

 27 27  0  0  1  0  0  0  0  0999 V2000
   27.0410  -20.5333  -18.9435 C   0  0  0  0  0  0  0  0  0  0  0  0
   26.8010  -21.4508  -17.7720 C   0  0  1  0  0  0  0  0  0  0  0  0
   28.0167  -22.3232  -17.5852 C   0  0  0  0  0  0  0  0  0  0  0  0
   26.3248  -20.7924  -16.5392 C   0  0  0  0  0  0  0  0  0  0  0  0
   26.3434  -21.5590  -15.2766 C   0  0  2  0  0  0  0  0  0  0  0  0
   25.6100  -22.7765  -15.2362 N   0  0  0  0  0  0  0  0  0  0  0  0
   26.0612  -20.7106  -14.0743 C   0  0  0  0  0  0  0  0  0  0  0  0
   26.0120  -19.4636  -14.2364 O   0  0  0  0  0  0  0  0  0  0  0  0
   23.2190  -19.9747  -12.8524 C   0  0  0  0  0  0  0  0  0  0  0  0
   23.8712  -20.6278  -11.6413 C   0  0  1  0  0  0  0  0  0  0  0  0
   23.4578  -21.9336  -11.4790 O   0  0  0  0  0  0  0  0  0  0  0  0
   25.3688  -20.4787  -11.7166 C   0  0  2  0  0  0  0  0  0  0  0  0
   25.8588  -21.2828  -12.8033 N   0  0  0  0  0  0  0  0  0  0  0  0
   26.0108  -20.8730  -10.4225 C   0  0  0  0  0  0  0  0  0  0  0  0
   26.3900  -22.0579  -10.2450 O   0  0  0  0  0  0  0  0  0  0  0  0
   26.2069  -19.9242   -9.3678 N   0  0  0  0  0  0  0  0  0  0  0  0
   26.8128  -20.2782   -8.1108 C   0  0  1  0  0  0  0  0  0  0  0  0
   27.6235  -19.1523   -7.5235 C   0  0  0  0  0  0  0  0  0  0  0  0
   28.2380  -19.4804   -6.2351 C   0  0  0  0  0  0  0  0  0  0  0  0
   27.7414  -18.9720   -5.0564 C   0  0  0  0  0  0  0  0  0  0  0  0
   28.3711  -19.3248   -3.8822 C   0  0  0  0  0  0  0  0  0  0  0  0
   29.4658  -20.1605   -3.8758 C   0  0  0  0  0  0  0  0  0  0  0  0
   29.9776  -20.6805   -5.0533 C   0  0  0  0  0  0  0  0  0  0  0  0
   29.3310  -20.3126   -6.2066 C   0  0  0  0  0  0  0  0  0  0  0  0
   25.8043  -20.8013   -7.1408 C   0  0  0  0  0  0  0  0  0  0  0  0
   24.5866  -20.5009   -7.2410 O   0  0  0  0  0  0  0  0  0  0  0  0
   26.1658  -21.6362   -6.0939 O   0  0  0  0  0  0  0  0  0  0  0  0
  2  1  1  6
  2  3  1  0
  4  2  1  0
  5  4  1  0
  5  6  1  6
  7  8  2  0
  7  5  1  0
 10  9  1  6
 10 12  1  0
 11 10  1  0
 12 13  1  6
 13  7  1  0
 14 15  2  0
 14 12  1  0
 16 14  1  0
 17 16  1  0
 17 18  1  1
 19 18  1  0
 19 20  2  0
 21 20  1  0
 22 21  2  0
 23 24  2  0
 23 22  1  0
 24 19  1  0
 25 17  1  0
 26 25  2  0
 27 25  1  0
M  END
$$$$
