LTF.pdb
     RDKit          3D

 27 27  0  0  1  0  0  0  0  0999 V2000
   21.0839  -23.3241  -18.4627 C   0  0  0  0  0  0  0  0  0  0  0  0
   21.4498  -23.5115  -17.0126 C   0  0  1  0  0  0  0  0  0  0  0  0
   21.2115  -22.2134  -16.2831 C   0  0  0  0  0  0  0  0  0  0  0  0
   20.8615  -24.6977  -16.3592 C   0  0  0  0  0  0  0  0  0  0  0  0
   21.1211  -24.9135  -14.9211 C   0  0  2  0  0  0  0  0  0  0  0  0
   22.4773  -24.9378  -14.4946 N   0  0  0  0  0  0  0  0  0  0  0  0
   20.3493  -26.0664  -14.3551 C   0  0  0  0  0  0  0  0  0  0  0  0
   19.1332  -26.1645  -14.6638 O   0  0  0  0  0  0  0  0  0  0  0  0
   21.2592  -29.6628  -14.7027 C   0  0  0  0  0  0  0  0  0  0  0  0
   21.0549  -29.3848  -13.2195 C   0  0  1  0  0  0  0  0  0  0  0  0
   22.2527  -29.3398  -12.5372 O   0  0  0  0  0  0  0  0  0  0  0  0
   20.2139  -28.1480  -13.0358 C   0  0  2  0  0  0  0  0  0  0  0  0
   20.9576  -27.0103  -13.5050 N   0  0  0  0  0  0  0  0  0  0  0  0
   19.8184  -27.9790  -11.6015 C   0  0  0  0  0  0  0  0  0  0  0  0
   20.1672  -26.9492  -10.9711 O   0  0  0  0  0  0  0  0  0  0  0  0
   19.0435  -28.9717  -10.9197 N   0  0  0  0  0  0  0  0  0  0  0  0
   18.5467  -28.7819   -9.5819 C   0  0  1  0  0  0  0  0  0  0  0  0
   17.6127  -27.6046   -9.4748 C   0  0  0  0  0  0  0  0  0  0  0  0
   18.2698  -26.3710   -9.0368 C   0  0  0  0  0  0  0  0  0  0  0  0
   18.6092  -26.1715   -7.7180 C   0  0  0  0  0  0  0  0  0  0  0  0
   19.2257  -24.9861   -7.3797 C   0  0  0  0  0  0  0  0  0  0  0  0
   19.4992  -24.0221   -8.3246 C   0  0  0  0  0  0  0  0  0  0  0  0
   19.1639  -24.2075   -9.6558 C   0  0  0  0  0  0  0  0  0  0  0  0
   18.5515  -25.3965   -9.9637 C   0  0  0  0  0  0  0  0  0  0  0  0
   17.9309  -30.0304   -9.0403 C   0  0  0  0  0  0  0  0  0  0  0  0
   17.6307  -30.9903   -9.7965 O   0  0  0  0  0  0  0  0  0  0  0  0
   17.6653  -30.1838   -7.6877 O   0  0  0  0  0  0  0  0  0  0  0  0
  2  1  1  6
  2  3  1  0
  4  2  1  0
  5  4  1  0
  5  6  1  6
  7  8  2  0
  7  5  1  0
 10  9  1  6
 10 12  1  0
 11 10  1  0
 12 13  1  1
 13  7  1  0
 14 15  2  0
 14 12  1  0
 16 14  1  0
 17 16  1  0
 17 18  1  6
 19 18  1  0
 19 20  2  0
 21 20  1  0
 22 21  2  0
 23 24  2  0
 23 22  1  0
 24 19  1  0
 25 17  1  0
 26 25  2  0
 27 25  1  0
M  END
$$$$
