LTF.pdb
     RDKit          3D

 27 27  0  0  1  0  0  0  0  0999 V2000
   13.3069  -22.4531    1.5352 C   0  0  0  0  0  0  0  0  0  0  0  0
   14.0625  -21.1548    1.4114 C   0  0  1  0  0  0  0  0  0  0  0  0
   15.2334  -21.3643    0.4846 C   0  0  0  0  0  0  0  0  0  0  0  0
   13.2387  -19.9700    1.0987 C   0  0  0  0  0  0  0  0  0  0  0  0
   12.2018  -19.5555    2.0657 C   0  0  2  0  0  0  0  0  0  0  0  0
   10.9450  -19.1423    1.5448 N   0  0  0  0  0  0  0  0  0  0  0  0
   12.7127  -18.5899    3.0913 C   0  0  0  0  0  0  0  0  0  0  0  0
   12.6637  -17.3629    2.8156 O   0  0  0  0  0  0  0  0  0  0  0  0
   11.4543  -18.0790    6.5467 C   0  0  0  0  0  0  0  0  0  0  0  0
   12.9312  -18.4421    6.6224 C   0  0  1  0  0  0  0  0  0  0  0  0
   13.1169  -19.7566    6.9962 O   0  0  0  0  0  0  0  0  0  0  0  0
   13.6192  -18.0837    5.3305 C   0  0  2  0  0  0  0  0  0  0  0  0
   13.2326  -19.0337    4.3227 N   0  0  0  0  0  0  0  0  0  0  0  0
   15.1061  -18.0592    5.5058 C   0  0  0  0  0  0  0  0  0  0  0  0
   15.8063  -19.0040    5.0625 O   0  0  0  0  0  0  0  0  0  0  0  0
   15.7605  -16.9745    6.1737 N   0  0  0  0  0  0  0  0  0  0  0  0
   17.1740  -16.9731    6.4464 C   0  0  1  0  0  0  0  0  0  0  0  0
   17.8155  -15.6401    6.1611 C   0  0  0  0  0  0  0  0  0  0  0  0
   17.8616  -15.3028    4.7365 C   0  0  0  0  0  0  0  0  0  0  0  0
   18.3337  -16.1992    3.8048 C   0  0  0  0  0  0  0  0  0  0  0  0
   18.3467  -15.8123    2.4819 C   0  0  0  0  0  0  0  0  0  0  0  0
   17.9032  -14.5683    2.0917 C   0  0  0  0  0  0  0  0  0  0  0  0
   17.4252  -13.6548    3.0169 C   0  0  0  0  0  0  0  0  0  0  0  0
   17.4237  -14.0667    4.3261 C   0  0  0  0  0  0  0  0  0  0  0  0
   17.4683  -17.4458    7.8325 C   0  0  0  0  0  0  0  0  0  0  0  0
   16.6716  -17.2223    8.7804 O   0  0  0  0  0  0  0  0  0  0  0  0
   18.6265  -18.1476    8.1318 O   0  0  0  0  0  0  0  0  0  0  0  0
  2  1  1  6
  2  3  1  0
  4  2  1  0
  5  4  1  0
  5  6  1  6
  7  8  2  0
  7  5  1  0
 10  9  1  6
 10 12  1  0
 11 10  1  0
 12 13  1  6
 13  7  1  0
 14 15  2  0
 14 12  1  0
 16 14  1  0
 17 16  1  0
 17 18  1  1
 19 18  1  0
 19 20  2  0
 21 20  1  0
 22 21  2  0
 23 24  2  0
 23 22  1  0
 24 19  1  0
 25 17  1  0
 26 25  2  0
 27 25  1  0
M  END
$$$$
