LTF.pdb
     RDKit          3D

 27 27  0  0  1  0  0  0  0  0999 V2000
   28.4788  -15.3283  -20.4023 C   0  0  0  0  0  0  0  0  0  0  0  0
   27.9020  -16.1361  -19.2679 C   0  0  1  0  0  0  0  0  0  0  0  0
   27.9200  -15.2934  -18.0175 C   0  0  0  0  0  0  0  0  0  0  0  0
   26.6069  -16.7872  -19.5487 C   0  0  0  0  0  0  0  0  0  0  0  0
   26.0123  -17.6537  -18.5106 C   0  0  2  0  0  0  0  0  0  0  0  0
   26.8378  -18.6647  -17.9465 N   0  0  0  0  0  0  0  0  0  0  0  0
   24.6719  -18.1976  -18.9016 C   0  0  0  0  0  0  0  0  0  0  0  0
   24.3220  -18.0828  -20.1050 O   0  0  0  0  0  0  0  0  0  0  0  0
   23.7249  -21.5747  -19.0613 C   0  0  0  0  0  0  0  0  0  0  0  0
   22.7259  -20.9357  -18.1062 C   0  0  1  0  0  0  0  0  0  0  0  0
   23.0197  -21.2237  -16.7897 O   0  0  0  0  0  0  0  0  0  0  0  0
   22.6142  -19.4592  -18.3858 C   0  0  2  0  0  0  0  0  0  0  0  0
   23.8271  -18.8155  -17.9591 N   0  0  0  0  0  0  0  0  0  0  0  0
   21.4216  -18.8733  -17.6953 C   0  0  0  0  0  0  0  0  0  0  0  0
   21.5696  -18.2212  -16.6312 O   0  0  0  0  0  0  0  0  0  0  0  0
   20.0998  -19.0380  -18.2213 N   0  0  0  0  0  0  0  0  0  0  0  0
   18.9352  -18.4947  -17.5725 C   0  0  1  0  0  0  0  0  0  0  0  0
   18.1509  -17.5738  -18.4707 C   0  0  0  0  0  0  0  0  0  0  0  0
   18.8801  -16.3617  -18.8505 C   0  0  0  0  0  0  0  0  0  0  0  0
   18.7557  -15.1969  -18.1278 C   0  0  0  0  0  0  0  0  0  0  0  0
   19.4729  -14.0961  -18.5445 C   0  0  0  0  0  0  0  0  0  0  0  0
   20.2929  -14.1478  -19.6497 C   0  0  0  0  0  0  0  0  0  0  0  0
   20.4290  -15.3122  -20.3876 C   0  0  0  0  0  0  0  0  0  0  0  0
   19.7036  -16.3920  -19.9500 C   0  0  0  0  0  0  0  0  0  0  0  0
   18.0755  -19.5698  -16.9924 C   0  0  0  0  0  0  0  0  0  0  0  0
   18.3114  -20.7852  -17.2167 O   0  0  0  0  0  0  0  0  0  0  0  0
   16.9861  -19.2753  -16.1860 O   0  0  0  0  0  0  0  0  0  0  0  0
  2  1  1  6
  2  3  1  0
  4  2  1  0
  5  4  1  0
  5  6  1  6
  7  8  2  0
  7  5  1  0
 10  9  1  6
 10 12  1  0
 11 10  1  0
 12 13  1  1
 13  7  1  0
 14 15  2  0
 14 12  1  0
 16 14  1  0
 17 16  1  0
 17 18  1  6
 19 18  1  0
 19 20  2  0
 21 20  1  0
 22 21  2  0
 23 24  2  0
 23 22  1  0
 24 19  1  0
 25 17  1  0
 26 25  2  0
 27 25  1  0
M  END
$$$$
