LTF.pdb
     RDKit          3D

 27 27  0  0  1  0  0  0  0  0999 V2000
   31.6685  -20.5508  -19.8186 C   0  0  0  0  0  0  0  0  0  0  0  0
   30.2192  -20.7111  -19.4367 C   0  0  1  0  0  0  0  0  0  0  0  0
   29.9241  -22.1803  -19.2687 C   0  0  0  0  0  0  0  0  0  0  0  0
   29.7616  -19.8629  -18.3180 C   0  0  0  0  0  0  0  0  0  0  0  0
   28.3906  -20.0536  -17.8022 C   0  0  2  0  0  0  0  0  0  0  0  0
   27.3117  -19.6775  -18.6486 N   0  0  0  0  0  0  0  0  0  0  0  0
   28.2092  -19.5178  -16.4146 C   0  0  0  0  0  0  0  0  0  0  0  0
   28.5221  -18.3169  -16.2054 O   0  0  0  0  0  0  0  0  0  0  0  0
   26.3883  -17.7885  -15.5867 C   0  0  0  0  0  0  0  0  0  0  0  0
   25.9339  -18.8947  -14.6440 C   0  0  1  0  0  0  0  0  0  0  0  0
   24.9093  -19.6414  -15.1869 O   0  0  0  0  0  0  0  0  0  0  0  0
   27.1155  -19.7239  -14.2116 C   0  0  2  0  0  0  0  0  0  0  0  0
   27.7078  -20.3256  -15.3756 N   0  0  0  0  0  0  0  0  0  0  0  0
   26.7025  -20.7652  -13.2179 C   0  0  0  0  0  0  0  0  0  0  0  0
   26.4477  -21.9342  -13.6024 O   0  0  0  0  0  0  0  0  0  0  0  0
   26.5885  -20.4611  -11.8230 N   0  0  0  0  0  0  0  0  0  0  0  0
   26.0957  -21.4122  -10.8612 C   0  0  1  0  0  0  0  0  0  0  0  0
   27.1305  -21.7783   -9.8292 C   0  0  0  0  0  0  0  0  0  0  0  0
   27.3552  -20.7348   -8.8263 C   0  0  0  0  0  0  0  0  0  0  0  0
   26.5825  -19.5963   -8.7940 C   0  0  0  0  0  0  0  0  0  0  0  0
   26.8517  -18.6577   -7.8212 C   0  0  0  0  0  0  0  0  0  0  0  0
   27.8615  -18.8423   -6.9031 C   0  0  0  0  0  0  0  0  0  0  0  0
   28.6481  -19.9824   -6.9222 C   0  0  0  0  0  0  0  0  0  0  0  0
   28.3577  -20.8995   -7.9011 C   0  0  0  0  0  0  0  0  0  0  0  0
   24.8225  -20.9498  -10.2314 C   0  0  0  0  0  0  0  0  0  0  0  0
   24.3473  -19.8119  -10.4815 O   0  0  0  0  0  0  0  0  0  0  0  0
   24.1139  -21.7513   -9.3487 O   0  0  0  0  0  0  0  0  0  0  0  0
  2  1  1  1
  2  3  1  0
  4  2  1  0
  5  4  1  0
  5  6  1  6
  7  8  2  0
  7  5  1  0
 10  9  1  6
 10 12  1  0
 11 10  1  0
 12 13  1  6
 13  7  1  0
 14 15  2  0
 14 12  1  0
 16 14  1  0
 17 16  1  0
 17 18  1  1
 19 18  1  0
 19 20  2  0
 21 20  1  0
 22 21  2  0
 23 24  2  0
 23 22  1  0
 24 19  1  0
 25 17  1  0
 26 25  2  0
 27 25  1  0
M  END
$$$$
