LTF.pdb
     RDKit          3D

 27 27  0  0  1  0  0  0  0  0999 V2000
   22.9430  -16.3326  -17.2493 C   0  0  0  0  0  0  0  0  0  0  0  0
   24.1901  -16.7720  -16.5258 C   0  0  1  0  0  0  0  0  0  0  0  0
   25.1358  -15.6007  -16.4390 C   0  0  0  0  0  0  0  0  0  0  0  0
   23.9658  -17.4738  -15.2463 C   0  0  0  0  0  0  0  0  0  0  0  0
   25.1407  -17.8845  -14.4506 C   0  0  2  0  0  0  0  0  0  0  0  0
   26.3564  -18.1227  -15.1485 N   0  0  0  0  0  0  0  0  0  0  0  0
   24.8362  -18.9927  -13.4891 C   0  0  0  0  0  0  0  0  0  0  0  0
   23.6547  -19.0937  -13.0675 O   0  0  0  0  0  0  0  0  0  0  0  0
   24.8514  -22.5457  -13.9477 C   0  0  0  0  0  0  0  0  0  0  0  0
   25.8333  -22.2731  -12.8162 C   0  0  1  0  0  0  0  0  0  0  0  0
   27.1423  -22.3667  -13.2405 O   0  0  0  0  0  0  0  0  0  0  0  0
   25.5102  -20.9576  -12.1561 C   0  0  2  0  0  0  0  0  0  0  0  0
   25.8338  -19.8926  -13.0664 N   0  0  0  0  0  0  0  0  0  0  0  0
   26.2564  -20.8094  -10.8664 C   0  0  0  0  0  0  0  0  0  0  0  0
   27.4845  -20.5426  -10.8784 O   0  0  0  0  0  0  0  0  0  0  0  0
   25.6003  -20.9655   -9.6030 N   0  0  0  0  0  0  0  0  0  0  0  0
   26.3162  -20.9693   -8.3541 C   0  0  1  0  0  0  0  0  0  0  0  0
   27.1917  -19.7546   -8.1870 C   0  0  0  0  0  0  0  0  0  0  0  0
   27.8945  -19.7088   -6.9027 C   0  0  0  0  0  0  0  0  0  0  0  0
   27.5470  -18.7993   -5.9299 C   0  0  0  0  0  0  0  0  0  0  0  0
   28.2527  -18.8153   -4.7461 C   0  0  0  0  0  0  0  0  0  0  0  0
   29.2774  -19.7101   -4.5313 C   0  0  0  0  0  0  0  0  0  0  0  0
   29.6394  -20.6316   -5.5002 C   0  0  0  0  0  0  0  0  0  0  0  0
   28.9199  -20.5929   -6.6683 C   0  0  0  0  0  0  0  0  0  0  0  0
   25.3962  -21.1550   -7.1920 C   0  0  0  0  0  0  0  0  0  0  0  0
   24.1815  -20.8351   -7.2646 O   0  0  0  0  0  0  0  0  0  0  0  0
   25.8398  -21.6853   -5.9896 O   0  0  0  0  0  0  0  0  0  0  0  0
  2  1  1  1
  2  3  1  0
  4  2  1  0
  5  4  1  0
  5  6  1  6
  7  8  2  0
  7  5  1  0
 10  9  1  6
 10 12  1  0
 11 10  1  0
 12 13  1  6
 13  7  1  0
 14 15  2  0
 14 12  1  0
 16 14  1  0
 17 16  1  0
 17 18  1  1
 19 18  1  0
 19 20  2  0
 21 20  1  0
 22 21  2  0
 23 24  2  0
 23 22  1  0
 24 19  1  0
 25 17  1  0
 26 25  2  0
 27 25  1  0
M  END
$$$$
