LTF.pdb
     RDKit          3D

 27 27  0  0  1  0  0  0  0  0999 V2000
   27.8703  -15.7562  -17.5490 C   0  0  0  0  0  0  0  0  0  0  0  0
   27.9168  -17.1300  -16.9308 C   0  0  1  0  0  0  0  0  0  0  0  0
   29.3092  -17.6857  -17.0939 C   0  0  0  0  0  0  0  0  0  0  0  0
   27.3760  -17.2264  -15.5602 C   0  0  0  0  0  0  0  0  0  0  0  0
   27.5518  -18.4920  -14.8190 C   0  0  2  0  0  0  0  0  0  0  0  0
   27.3492  -19.7051  -15.5325 N   0  0  0  0  0  0  0  0  0  0  0  0
   26.8315  -18.5039  -13.5051 C   0  0  0  0  0  0  0  0  0  0  0  0
   26.6769  -17.4045  -12.9124 O   0  0  0  0  0  0  0  0  0  0  0  0
   23.5180  -19.0747  -12.7882 C   0  0  0  0  0  0  0  0  0  0  0  0
   24.2242  -20.0951  -11.9057 C   0  0  1  0  0  0  0  0  0  0  0  0
   24.0919  -21.3767  -12.3982 O   0  0  0  0  0  0  0  0  0  0  0  0
   25.6566  -19.6837  -11.6832 C   0  0  2  0  0  0  0  0  0  0  0  0
   26.3434  -19.7010  -12.9463 N   0  0  0  0  0  0  0  0  0  0  0  0
   26.3248  -20.5880  -10.6941 C   0  0  0  0  0  0  0  0  0  0  0  0
   26.9647  -21.5929  -11.0944 O   0  0  0  0  0  0  0  0  0  0  0  0
   26.2535  -20.3357   -9.2862 N   0  0  0  0  0  0  0  0  0  0  0  0
   26.5573  -21.3424   -8.3030 C   0  0  1  0  0  0  0  0  0  0  0  0
   28.0027  -21.3167   -7.8784 C   0  0  0  0  0  0  0  0  0  0  0  0
   28.2823  -20.3631   -6.8024 C   0  0  0  0  0  0  0  0  0  0  0  0
   29.4860  -20.3715   -6.1350 C   0  0  0  0  0  0  0  0  0  0  0  0
   29.6783  -19.4440   -5.1338 C   0  0  0  0  0  0  0  0  0  0  0  0
   28.7023  -18.5308   -4.8018 C   0  0  0  0  0  0  0  0  0  0  0  0
   27.4857  -18.5093   -5.4638 C   0  0  0  0  0  0  0  0  0  0  0  0
   27.3219  -19.4436   -6.4557 C   0  0  0  0  0  0  0  0  0  0  0  0
   25.6330  -21.2658   -7.1321 C   0  0  0  0  0  0  0  0  0  0  0  0
   25.6202  -22.1648   -6.2518 O   0  0  0  0  0  0  0  0  0  0  0  0
   24.7540  -20.2059   -6.9664 O   0  0  0  0  0  0  0  0  0  0  0  0
  2  1  1  1
  2  3  1  0
  4  2  1  0
  5  4  1  0
  5  6  1  6
  7  8  2  0
  7  5  1  0
 10  9  1  6
 10 12  1  0
 11 10  1  0
 12 13  1  6
 13  7  1  0
 14 15  2  0
 14 12  1  0
 16 14  1  0
 17 16  1  0
 17 18  1  1
 19 18  1  0
 19 20  2  0
 21 20  1  0
 22 21  2  0
 23 24  2  0
 23 22  1  0
 24 19  1  0
 25 17  1  0
 26 25  2  0
 27 25  1  0
M  END
$$$$
