LTF.pdb
     RDKit          3D

 27 27  0  0  1  0  0  0  0  0999 V2000
   16.9375  -22.0010  -15.6097 C   0  0  0  0  0  0  0  0  0  0  0  0
   17.6518  -20.9137  -14.8485 C   0  0  1  0  0  0  0  0  0  0  0  0
   16.6867  -19.7807  -14.6056 C   0  0  0  0  0  0  0  0  0  0  0  0
   18.3873  -21.3593  -13.6483 C   0  0  0  0  0  0  0  0  0  0  0  0
   19.5432  -20.5609  -13.1913 C   0  0  2  0  0  0  0  0  0  0  0  0
   19.6011  -19.1985  -13.5939 N   0  0  0  0  0  0  0  0  0  0  0  0
   20.8541  -21.2524  -13.4121 C   0  0  0  0  0  0  0  0  0  0  0  0
   21.0246  -22.3725  -12.8643 O   0  0  0  0  0  0  0  0  0  0  0  0
   22.3838  -22.7472  -16.3447 C   0  0  0  0  0  0  0  0  0  0  0  0
   23.2846  -21.6072  -15.8891 C   0  0  1  0  0  0  0  0  0  0  0  0
   23.1039  -20.4744  -16.6548 O   0  0  0  0  0  0  0  0  0  0  0  0
   23.1077  -21.3664  -14.4121 C   0  0  2  0  0  0  0  0  0  0  0  0
   21.8654  -20.6732  -14.2030 N   0  0  0  0  0  0  0  0  0  0  0  0
   24.2595  -20.5876  -13.8559 C   0  0  0  0  0  0  0  0  0  0  0  0
   24.1186  -19.3700  -13.5783 O   0  0  0  0  0  0  0  0  0  0  0  0
   25.5338  -21.2005  -13.6289 N   0  0  0  0  0  0  0  0  0  0  0  0
   26.6817  -20.4565  -13.1804 C   0  0  1  0  0  0  0  0  0  0  0  0
   27.3106  -21.0531  -11.9481 C   0  0  0  0  0  0  0  0  0  0  0  0
   26.4859  -20.9217  -10.7449 C   0  0  0  0  0  0  0  0  0  0  0  0
   25.5874  -21.8999  -10.3840 C   0  0  0  0  0  0  0  0  0  0  0  0
   24.8456  -21.7077   -9.2383 C   0  0  0  0  0  0  0  0  0  0  0  0
   24.9903  -20.5744   -8.4692 C   0  0  0  0  0  0  0  0  0  0  0  0
   25.8900  -19.5808   -8.8187 C   0  0  0  0  0  0  0  0  0  0  0  0
   26.6148  -19.7988   -9.9636 C   0  0  0  0  0  0  0  0  0  0  0  0
   27.6785  -20.2672  -14.2766 C   0  0  0  0  0  0  0  0  0  0  0  0
   27.7805  -21.0985  -15.2156 O   0  0  0  0  0  0  0  0  0  0  0  0
   28.5297  -19.1726  -14.3057 O   0  0  0  0  0  0  0  0  0  0  0  0
  2  1  1  1
  2  3  1  0
  4  2  1  0
  5  4  1  0
  5  6  1  6
  7  8  2  0
  7  5  1  0
 10  9  1  6
 10 12  1  0
 11 10  1  0
 12 13  1  6
 13  7  1  0
 14 15  2  0
 14 12  1  0
 16 14  1  0
 17 16  1  0
 17 18  1  1
 19 18  1  0
 19 20  2  0
 21 20  1  0
 22 21  2  0
 23 24  2  0
 23 22  1  0
 24 19  1  0
 25 17  1  0
 26 25  2  0
 27 25  1  0
M  END
$$$$
