LTF.pdb
     RDKit          3D

 27 27  0  0  1  0  0  0  0  0999 V2000
   27.6344  -15.4517  -16.8718 C   0  0  0  0  0  0  0  0  0  0  0  0
   27.7163  -16.9060  -16.4843 C   0  0  1  0  0  0  0  0  0  0  0  0
   29.1529  -17.2424  -16.1731 C   0  0  0  0  0  0  0  0  0  0  0  0
   26.7491  -17.3433  -15.4578 C   0  0  0  0  0  0  0  0  0  0  0  0
   26.9416  -18.6629  -14.8226 C   0  0  2  0  0  0  0  0  0  0  0  0
   26.9268  -19.8070  -15.6667 N   0  0  0  0  0  0  0  0  0  0  0  0
   26.0750  -18.8622  -13.6165 C   0  0  0  0  0  0  0  0  0  0  0  0
   24.8709  -18.5048  -13.6954 O   0  0  0  0  0  0  0  0  0  0  0  0
   24.0267  -20.5995  -13.1164 C   0  0  0  0  0  0  0  0  0  0  0  0
   24.9001  -21.0606  -11.9574 C   0  0  1  0  0  0  0  0  0  0  0  0
   25.6837  -22.1411  -12.3049 O   0  0  0  0  0  0  0  0  0  0  0  0
   25.6894  -19.8994  -11.4103 C   0  0  2  0  0  0  0  0  0  0  0  0
   26.5849  -19.4279  -12.4317 N   0  0  0  0  0  0  0  0  0  0  0  0
   26.4401  -20.2973  -10.1772 C   0  0  0  0  0  0  0  0  0  0  0  0
   27.4109  -21.0909  -10.2618 O   0  0  0  0  0  0  0  0  0  0  0  0
   26.0772  -19.7915   -8.8875 N   0  0  0  0  0  0  0  0  0  0  0  0
   26.7578  -20.1859   -7.6818 C   0  0  1  0  0  0  0  0  0  0  0  0
   27.2819  -19.0075   -6.9030 C   0  0  0  0  0  0  0  0  0  0  0  0
   27.9896  -19.3814   -5.6764 C   0  0  0  0  0  0  0  0  0  0  0  0
   29.3471  -19.6086   -5.6756 C   0  0  0  0  0  0  0  0  0  0  0  0
   29.9452  -19.9566   -4.4835 C   0  0  0  0  0  0  0  0  0  0  0  0
   29.2166  -20.0766   -3.3210 C   0  0  0  0  0  0  0  0  0  0  0  0
   27.8498  -19.8514   -3.3051 C   0  0  0  0  0  0  0  0  0  0  0  0
   27.2812  -19.5065   -4.5057 C   0  0  0  0  0  0  0  0  0  0  0  0
   25.9084  -21.0773   -6.8359 C   0  0  0  0  0  0  0  0  0  0  0  0
   24.6529  -21.0472   -6.9138 O   0  0  0  0  0  0  0  0  0  0  0  0
   26.4649  -21.9714   -5.9334 O   0  0  0  0  0  0  0  0  0  0  0  0
  2  1  1  1
  2  3  1  0
  4  2  1  0
  5  4  1  0
  5  6  1  6
  7  8  2  0
  7  5  1  0
 10  9  1  6
 10 12  1  0
 11 10  1  0
 12 13  1  6
 13  7  1  0
 14 15  2  0
 14 12  1  0
 16 14  1  0
 17 16  1  0
 17 18  1  1
 19 18  1  0
 19 20  2  0
 21 20  1  0
 22 21  2  0
 23 24  2  0
 23 22  1  0
 24 19  1  0
 25 17  1  0
 26 25  2  0
 27 25  1  0
M  END
$$$$
