LTF.pdb
     RDKit          3D

 27 27  0  0  1  0  0  0  0  0999 V2000
   22.9721  -17.0799  -18.2982 C   0  0  0  0  0  0  0  0  0  0  0  0
   22.8833  -15.6464  -18.7555 C   0  0  1  0  0  0  0  0  0  0  0  0
   21.9989  -15.5829  -19.9752 C   0  0  0  0  0  0  0  0  0  0  0  0
   22.5471  -14.6661  -17.7038 C   0  0  0  0  0  0  0  0  0  0  0  0
   22.4094  -13.2446  -18.0814 C   0  0  2  0  0  0  0  0  0  0  0  0
   23.5191  -12.6230  -18.7169 N   0  0  0  0  0  0  0  0  0  0  0  0
   21.8690  -12.3954  -16.9713 C   0  0  0  0  0  0  0  0  0  0  0  0
   20.8797  -12.8328  -16.3282 O   0  0  0  0  0  0  0  0  0  0  0  0
   23.2925  -11.5116  -13.8728 C   0  0  0  0  0  0  0  0  0  0  0  0
   22.9769  -10.1765  -14.5336 C   0  0  1  0  0  0  0  0  0  0  0  0
   24.1144   -9.5603  -15.0120 O   0  0  0  0  0  0  0  0  0  0  0  0
   21.9081  -10.3569  -15.5803 C   0  0  2  0  0  0  0  0  0  0  0  0
   22.4431  -11.1488  -16.6547 N   0  0  0  0  0  0  0  0  0  0  0  0
   21.4195   -9.0322  -16.0790 C   0  0  0  0  0  0  0  0  0  0  0  0
   21.8512   -8.5723  -17.1660 O   0  0  0  0  0  0  0  0  0  0  0  0
   20.4613   -8.2649  -15.3414 N   0  0  0  0  0  0  0  0  0  0  0  0
   20.0155   -6.9648  -15.7697 C   0  0  1  0  0  0  0  0  0  0  0  0
   19.1786   -7.0249  -17.0210 C   0  0  0  0  0  0  0  0  0  0  0  0
   17.8952   -7.7064  -16.8375 C   0  0  0  0  0  0  0  0  0  0  0  0
   16.7887   -7.0331  -16.3720 C   0  0  0  0  0  0  0  0  0  0  0  0
   15.6145   -7.7398  -16.2250 C   0  0  0  0  0  0  0  0  0  0  0  0
   15.5384   -9.0804  -16.5314 C   0  0  0  0  0  0  0  0  0  0  0  0
   16.6428   -9.7723  -17.0008 C   0  0  0  0  0  0  0  0  0  0  0  0
   17.7979   -9.0438  -17.1374 C   0  0  0  0  0  0  0  0  0  0  0  0
   19.3192   -6.2312  -14.6705 C   0  0  0  0  0  0  0  0  0  0  0  0
   19.0343   -6.8004  -13.5851 O   0  0  0  0  0  0  0  0  0  0  0  0
   18.9591   -4.8980  -14.7990 O   0  0  0  0  0  0  0  0  0  0  0  0
  2  1  1  1
  2  3  1  0
  4  2  1  0
  5  4  1  0
  5  6  1  1
  7  8  2  0
  7  5  1  0
 10  9  1  6
 10 12  1  0
 11 10  1  0
 12 13  1  6
 13  7  1  0
 14 15  2  0
 14 12  1  0
 16 14  1  0
 17 16  1  0
 17 18  1  6
 19 18  1  0
 19 20  2  0
 21 20  1  0
 22 21  2  0
 23 24  2  0
 23 22  1  0
 24 19  1  0
 25 17  1  0
 26 25  2  0
 27 25  1  0
M  END
$$$$
