YHA.pdb
     RDKit          3D

 28 29  0  0  1  0  0  0  0  0999 V2000
   22.0498  -16.8894  -14.6213 O   0  0  0  0  0  0  0  0  0  0  0  0
   22.2575  -15.5305  -14.8740 C   0  0  0  0  0  0  0  0  0  0  0  0
   21.2956  -14.7680  -15.4887 C   0  0  0  0  0  0  0  0  0  0  0  0
   21.4970  -13.4122  -15.7433 C   0  0  0  0  0  0  0  0  0  0  0  0
   22.6752  -12.7882  -15.3847 C   0  0  0  0  0  0  0  0  0  0  0  0
   22.9125  -11.3351  -15.6522 C   0  0  0  0  0  0  0  0  0  0  0  0
   22.5694  -11.0172  -17.1138 C   0  0  2  0  0  0  0  0  0  0  0  0
   23.5822  -11.7168  -17.9182 N   0  0  0  0  0  0  0  0  0  0  0  0
   22.7490   -9.5780  -17.3150 C   0  0  0  0  0  0  0  0  0  0  0  0
   23.8857   -9.0960  -17.5987 O   0  0  0  0  0  0  0  0  0  0  0  0
   23.6306  -13.5678  -14.7687 C   0  0  0  0  0  0  0  0  0  0  0  0
   23.4379  -14.9109  -14.5134 C   0  0  0  0  0  0  0  0  0  0  0  0
   21.6168   -8.6916  -17.1899 N   0  0  0  0  0  0  0  0  0  0  0  0
   21.7604   -7.2678  -17.3944 C   0  0  1  0  0  0  0  0  0  0  0  0
   20.7916   -6.7649  -18.4556 C   0  0  0  0  0  0  0  0  0  0  0  0
   21.1357   -7.2838  -19.8046 C   0  0  0  0  0  0  0  0  0  0  0  0
   22.2398   -8.0179  -20.1851 C   0  0  0  0  0  0  0  0  0  0  0  0
   22.1783   -8.2933  -21.5061 N   0  0  0  0  0  0  0  0  0  0  0  0
   21.0352   -7.7307  -21.9501 C   0  0  0  0  0  0  0  0  0  0  0  0
   20.4132   -7.1283  -20.9341 N   0  0  0  0  0  0  0  0  0  0  0  0
   21.5454   -6.4854  -16.1491 C   0  0  0  0  0  0  0  0  0  0  0  0
   20.7699   -6.8884  -15.2371 O   0  0  0  0  0  0  0  0  0  0  0  0
   20.5025   -4.1239  -14.4889 C   0  0  0  0  0  0  0  0  0  0  0  0
   21.9630   -4.4874  -14.6650 C   0  0  2  0  0  0  0  0  0  0  0  0
   22.1883   -5.2323  -15.8823 N   0  0  0  0  0  0  0  0  0  0  0  0
   22.5207   -5.1237  -13.4608 C   0  0  0  0  0  0  0  0  0  0  0  0
   23.0057   -6.4184  -13.5140 O   0  0  0  0  0  0  0  0  0  0  0  0
   22.5724   -4.5202  -12.3645 O   0  0  0  0  0  0  0  0  0  0  0  0
  2  3  2  0
  2  1  1  0
  4  3  1  0
  5  4  2  0
  6  5  1  0
  7  9  1  0
  7  6  1  0
  7  8  1  6
  9 10  2  0
 11  5  1  0
 11 12  2  0
 12  2  1  0
 13 14  1  0
 13  9  1  0
 14 15  1  6
 15 16  1  0
 16 17  2  0
 18 17  1  0
 19 18  1  0
 20 19  2  0
 20 16  1  0
 21 14  1  0
 22 21  2  0
 24 23  1  1
 24 25  1  0
 25 21  1  0
 26 24  1  0
 26 27  1  0
 28 26  2  0
M  END
$$$$
