YHA.pdb
     RDKit          3D

 28 29  0  0  1  0  0  0  0  0999 V2000
   23.1759  -13.6111  -20.8358 O   0  0  0  0  0  0  0  0  0  0  0  0
   22.2880  -12.6751  -20.2981 C   0  0  0  0  0  0  0  0  0  0  0  0
   21.0181  -12.5323  -20.7995 C   0  0  0  0  0  0  0  0  0  0  0  0
   20.1280  -11.6005  -20.2674 C   0  0  0  0  0  0  0  0  0  0  0  0
   20.4950  -10.7868  -19.2142 C   0  0  0  0  0  0  0  0  0  0  0  0
   19.5560   -9.7781  -18.6311 C   0  0  0  0  0  0  0  0  0  0  0  0
   19.1084  -10.2360  -17.2364 C   0  0  2  0  0  0  0  0  0  0  0  0
   18.2308  -11.3938  -17.4640 N   0  0  0  0  0  0  0  0  0  0  0  0
   18.2998   -9.1656  -16.6497 C   0  0  0  0  0  0  0  0  0  0  0  0
   17.1122   -8.9575  -17.0385 O   0  0  0  0  0  0  0  0  0  0  0  0
   21.7733  -10.9427  -18.7226 C   0  0  0  0  0  0  0  0  0  0  0  0
   22.6600  -11.8634  -19.2446 C   0  0  0  0  0  0  0  0  0  0  0  0
   18.8597   -8.3332  -15.6121 N   0  0  0  0  0  0  0  0  0  0  0  0
   18.0562   -7.3329  -14.9460 C   0  0  1  0  0  0  0  0  0  0  0  0
   18.3080   -7.3367  -13.4446 C   0  0  0  0  0  0  0  0  0  0  0  0
   17.6356   -8.4811  -12.7772 C   0  0  0  0  0  0  0  0  0  0  0  0
   16.9709   -9.5419  -13.3566 C   0  0  0  0  0  0  0  0  0  0  0  0
   16.5003  -10.3704  -12.3992 N   0  0  0  0  0  0  0  0  0  0  0  0
   16.8715   -9.8263  -11.2216 C   0  0  0  0  0  0  0  0  0  0  0  0
   17.5491   -8.6986  -11.4478 N   0  0  0  0  0  0  0  0  0  0  0  0
   18.3034   -5.9616  -15.4635 C   0  0  0  0  0  0  0  0  0  0  0  0
   19.4730   -5.5072  -15.6084 O   0  0  0  0  0  0  0  0  0  0  0  0
   16.2530   -3.1210  -16.9578 C   0  0  0  0  0  0  0  0  0  0  0  0
   17.5186   -3.7668  -16.4309 C   0  0  2  0  0  0  0  0  0  0  0  0
   17.2557   -5.0568  -15.8356 N   0  0  0  0  0  0  0  0  0  0  0  0
   18.2845   -2.8531  -15.5682 C   0  0  0  0  0  0  0  0  0  0  0  0
   19.0819   -1.8687  -16.1248 O   0  0  0  0  0  0  0  0  0  0  0  0
   18.2387   -2.9375  -14.3195 O   0  0  0  0  0  0  0  0  0  0  0  0
  2  3  2  0
  2  1  1  0
  4  3  1  0
  5  4  2  0
  6  5  1  0
  7  9  1  0
  7  6  1  0
  7  8  1  6
  9 10  2  0
 11  5  1  0
 11 12  2  0
 12  2  1  0
 13 14  1  0
 13  9  1  0
 14 15  1  1
 15 16  1  0
 16 17  2  0
 18 17  1  0
 19 18  1  0
 20 19  2  0
 20 16  1  0
 21 14  1  0
 22 21  2  0
 24 23  1  1
 24 25  1  0
 25 21  1  0
 26 24  1  0
 26 27  1  0
 28 26  2  0
M  END
$$$$
