YHA.pdb
     RDKit          3D

 28 29  0  0  1  0  0  0  0  0999 V2000
   21.4848    0.4689  -15.9288 O   0  0  0  0  0  0  0  0  0  0  0  0
   21.2616   -0.8930  -16.1504 C   0  0  0  0  0  0  0  0  0  0  0  0
   21.2628   -1.7903  -15.1116 C   0  0  0  0  0  0  0  0  0  0  0  0
   21.0407   -3.1498  -15.3265 C   0  0  0  0  0  0  0  0  0  0  0  0
   20.8112   -3.6414  -16.5960 C   0  0  0  0  0  0  0  0  0  0  0  0
   20.5743   -5.0972  -16.8483 C   0  0  0  0  0  0  0  0  0  0  0  0
   21.8842   -5.8735  -16.6574 C   0  0  2  0  0  0  0  0  0  0  0  0
   22.7536   -5.4600  -17.7689 N   0  0  0  0  0  0  0  0  0  0  0  0
   21.5902   -7.2986  -16.8210 C   0  0  0  0  0  0  0  0  0  0  0  0
   21.5078   -7.8195  -17.9728 O   0  0  0  0  0  0  0  0  0  0  0  0
   20.8134   -2.7274  -17.6278 C   0  0  0  0  0  0  0  0  0  0  0  0
   21.0325   -1.3797  -17.4224 C   0  0  0  0  0  0  0  0  0  0  0  0
   21.3914   -8.1262  -15.6553 N   0  0  0  0  0  0  0  0  0  0  0  0
   21.0665   -9.5288  -15.7852 C   0  0  1  0  0  0  0  0  0  0  0  0
   22.1266  -10.4014  -15.1279 C   0  0  0  0  0  0  0  0  0  0  0  0
   23.3868  -10.4223  -15.9145 C   0  0  0  0  0  0  0  0  0  0  0  0
   24.4995   -9.6194  -15.7732 C   0  0  0  0  0  0  0  0  0  0  0  0
   25.4337   -9.9598  -16.6875 N   0  0  0  0  0  0  0  0  0  0  0  0
   24.9037  -10.9757  -17.3998 C   0  0  0  0  0  0  0  0  0  0  0  0
   23.6819  -11.2515  -16.9381 N   0  0  0  0  0  0  0  0  0  0  0  0
   19.7441   -9.8674  -15.1971 C   0  0  0  0  0  0  0  0  0  0  0  0
   19.1858   -9.1215  -14.3443 O   0  0  0  0  0  0  0  0  0  0  0  0
   16.7537  -10.0811  -15.4158 C   0  0  0  0  0  0  0  0  0  0  0  0
   17.6454  -11.2659  -15.1036 C   0  0  2  0  0  0  0  0  0  0  0  0
   19.0043  -11.0458  -15.5421 N   0  0  0  0  0  0  0  0  0  0  0  0
   17.0615  -12.5327  -15.5729 C   0  0  0  0  0  0  0  0  0  0  0  0
   16.0230  -13.1252  -14.8765 O   0  0  0  0  0  0  0  0  0  0  0  0
   17.4817  -13.1061  -16.6040 O   0  0  0  0  0  0  0  0  0  0  0  0
  2  3  2  0
  2  1  1  0
  4  3  1  0
  5  4  2  0
  6  5  1  0
  7  9  1  0
  7  6  1  0
  7  8  1  6
  9 10  2  0
 11  5  1  0
 11 12  2  0
 12  2  1  0
 13 14  1  0
 13  9  1  0
 14 15  1  1
 15 16  1  0
 16 17  2  0
 18 17  1  0
 19 18  1  0
 20 19  2  0
 20 16  1  0
 21 14  1  0
 22 21  2  0
 24 23  1  6
 24 25  1  0
 25 21  1  0
 26 24  1  0
 26 27  1  0
 28 26  2  0
M  END
$$$$
