YHA.pdb
     RDKit          3D

 28 29  0  0  1  0  0  0  0  0999 V2000
   17.5746  -10.6623  -23.9847 O   0  0  0  0  0  0  0  0  0  0  0  0
   17.6265  -10.2652  -22.6456 C   0  0  0  0  0  0  0  0  0  0  0  0
   17.0555  -11.0276  -21.6570 C   0  0  0  0  0  0  0  0  0  0  0  0
   17.1039  -10.6368  -20.3196 C   0  0  0  0  0  0  0  0  0  0  0  0
   17.7301   -9.4655  -19.9429 C   0  0  0  0  0  0  0  0  0  0  0  0
   17.7901   -9.0264  -18.5135 C   0  0  0  0  0  0  0  0  0  0  0  0
   19.1965   -9.2807  -17.9546 C   0  0  2  0  0  0  0  0  0  0  0  0
   19.2610  -10.7258  -17.6904 N   0  0  0  0  0  0  0  0  0  0  0  0
   19.3036   -8.5825  -16.6720 C   0  0  0  0  0  0  0  0  0  0  0  0
   18.6610   -8.9824  -15.6561 O   0  0  0  0  0  0  0  0  0  0  0  0
   18.2982   -8.7117  -20.9474 C   0  0  0  0  0  0  0  0  0  0  0  0
   18.2540   -9.0926  -22.2738 C   0  0  0  0  0  0  0  0  0  0  0  0
   20.1534   -7.4214  -16.5586 N   0  0  0  0  0  0  0  0  0  0  0  0
   20.3191   -6.7413  -15.2938 C   0  0  1  0  0  0  0  0  0  0  0  0
   21.7617   -6.8185  -14.8135 C   0  0  0  0  0  0  0  0  0  0  0  0
   22.2193   -8.2248  -14.6711 C   0  0  0  0  0  0  0  0  0  0  0  0
   23.0985   -8.9257  -15.4702 C   0  0  0  0  0  0  0  0  0  0  0  0
   23.2496  -10.1824  -14.9988 N   0  0  0  0  0  0  0  0  0  0  0  0
   22.4642  -10.2659  -13.9049 C   0  0  0  0  0  0  0  0  0  0  0  0
   21.8494   -9.0971  -13.7097 N   0  0  0  0  0  0  0  0  0  0  0  0
   19.9169   -5.3117  -15.3548 C   0  0  0  0  0  0  0  0  0  0  0  0
   19.9907   -4.5573  -14.3444 O   0  0  0  0  0  0  0  0  0  0  0  0
   18.9496   -2.7703  -18.0061 C   0  0  0  0  0  0  0  0  0  0  0  0
   19.0539   -3.2836  -16.5841 C   0  0  2  0  0  0  0  0  0  0  0  0
   19.4220   -4.6801  -16.5427 N   0  0  0  0  0  0  0  0  0  0  0  0
   17.8585   -2.9548  -15.7913 C   0  0  0  0  0  0  0  0  0  0  0  0
   17.6675   -1.6707  -15.3125 O   0  0  0  0  0  0  0  0  0  0  0  0
   16.9883   -3.8165  -15.5289 O   0  0  0  0  0  0  0  0  0  0  0  0
  2  3  2  0
  2  1  1  0
  4  3  1  0
  5  4  2  0
  6  5  1  0
  7  9  1  0
  7  6  1  0
  7  8  1  1
  9 10  2  0
 11  5  1  0
 11 12  2  0
 12  2  1  0
 13 14  1  0
 13  9  1  0
 14 15  1  6
 15 16  1  0
 16 17  2  0
 18 17  1  0
 19 18  1  0
 20 19  2  0
 20 16  1  0
 21 14  1  0
 22 21  2  0
 24 23  1  6
 24 25  1  0
 25 21  1  0
 26 24  1  0
 26 27  1  0
 28 26  2  0
M  END
$$$$
