YHA.pdb
     RDKit          3D

 28 29  0  0  1  0  0  0  0  0999 V2000
   19.2545   -8.9539  -25.5048 O   0  0  0  0  0  0  0  0  0  0  0  0
   19.1668   -8.4711  -24.1960 C   0  0  0  0  0  0  0  0  0  0  0  0
   20.0434   -8.8885  -23.2256 C   0  0  0  0  0  0  0  0  0  0  0  0
   19.9609   -8.4105  -21.9186 C   0  0  0  0  0  0  0  0  0  0  0  0
   18.9911   -7.4978  -21.5546 C   0  0  0  0  0  0  0  0  0  0  0  0
   18.8833   -6.9753  -20.1565 C   0  0  0  0  0  0  0  0  0  0  0  0
   18.5009   -8.1185  -19.2068 C   0  0  2  0  0  0  0  0  0  0  0  0
   17.0816   -8.3952  -19.4735 N   0  0  0  0  0  0  0  0  0  0  0  0
   18.6131   -7.6196  -17.8347 C   0  0  0  0  0  0  0  0  0  0  0  0
   17.7180   -6.8743  -17.3365 O   0  0  0  0  0  0  0  0  0  0  0  0
   18.1188   -7.0891  -22.5406 C   0  0  0  0  0  0  0  0  0  0  0  0
   18.1947   -7.5582  -23.8369 C   0  0  0  0  0  0  0  0  0  0  0  0
   19.7583   -7.9806  -17.0340 N   0  0  0  0  0  0  0  0  0  0  0  0
   19.9427   -7.4321  -15.7093 C   0  0  1  0  0  0  0  0  0  0  0  0
   20.5770   -8.4532  -14.7753 C   0  0  0  0  0  0  0  0  0  0  0  0
   19.6924   -9.6278  -14.5624 C   0  0  0  0  0  0  0  0  0  0  0  0
   18.3936   -9.8118  -14.9890 C   0  0  0  0  0  0  0  0  0  0  0  0
   17.9426  -11.0201  -14.5877 N   0  0  0  0  0  0  0  0  0  0  0  0
   18.9604  -11.5904  -13.9101 C   0  0  0  0  0  0  0  0  0  0  0  0
   20.0047  -10.7590  -13.8953 N   0  0  0  0  0  0  0  0  0  0  0  0
   20.7820   -6.2053  -15.7087 C   0  0  0  0  0  0  0  0  0  0  0  0
   21.8516   -6.1321  -16.3765 O   0  0  0  0  0  0  0  0  0  0  0  0
   21.4514   -3.4178  -16.5269 C   0  0  0  0  0  0  0  0  0  0  0  0
   21.2123   -3.7994  -15.0800 C   0  0  2  0  0  0  0  0  0  0  0  0
   20.4544   -5.0241  -14.9656 N   0  0  0  0  0  0  0  0  0  0  0  0
   20.6633   -2.6793  -14.2991 C   0  0  0  0  0  0  0  0  0  0  0  0
   21.3863   -1.5089  -14.1504 O   0  0  0  0  0  0  0  0  0  0  0  0
   19.5390   -2.7503  -13.7518 O   0  0  0  0  0  0  0  0  0  0  0  0
  2  3  2  0
  2  1  1  0
  4  3  1  0
  5  4  2  0
  6  5  1  0
  7  9  1  0
  7  6  1  0
  7  8  1  6
  9 10  2  0
 11  5  1  0
 11 12  2  0
 12  2  1  0
 13 14  1  0
 13  9  1  0
 14 15  1  1
 15 16  1  0
 16 17  2  0
 18 17  1  0
 19 18  1  0
 20 19  2  0
 20 16  1  0
 21 14  1  0
 22 21  2  0
 24 23  1  6
 24 25  1  0
 25 21  1  0
 26 24  1  0
 26 27  1  0
 28 26  2  0
M  END
$$$$
