YHA.pdb
     RDKit          3D

 28 29  0  0  1  0  0  0  0  0999 V2000
   28.6858  -19.7894   -3.5226 O   0  0  0  0  0  0  0  0  0  0  0  0
   28.2937  -19.7845   -4.8642 C   0  0  0  0  0  0  0  0  0  0  0  0
   27.4314  -20.7332   -5.3548 C   0  0  0  0  0  0  0  0  0  0  0  0
   27.0367  -20.7334   -6.6919 C   0  0  0  0  0  0  0  0  0  0  0  0
   27.5016  -19.7759   -7.5712 C   0  0  0  0  0  0  0  0  0  0  0  0
   27.0930  -19.7606   -9.0107 C   0  0  0  0  0  0  0  0  0  0  0  0
   27.2818  -21.1585   -9.6151 C   0  0  2  0  0  0  0  0  0  0  0  0
   28.7315  -21.3131   -9.8070 N   0  0  0  0  0  0  0  0  0  0  0  0
   26.6488  -21.1667  -10.9355 C   0  0  0  0  0  0  0  0  0  0  0  0
   27.1727  -20.5557  -11.9137 O   0  0  0  0  0  0  0  0  0  0  0  0
   28.3666  -18.8308   -7.0628 C   0  0  0  0  0  0  0  0  0  0  0  0
   28.7617  -18.8245   -5.7398 C   0  0  0  0  0  0  0  0  0  0  0  0
   25.4098  -21.8809  -11.1300 N   0  0  0  0  0  0  0  0  0  0  0  0
   24.8307  -22.0212  -12.4471 C   0  0  1  0  0  0  0  0  0  0  0  0
   24.0325  -23.3125  -12.5616 C   0  0  0  0  0  0  0  0  0  0  0  0
   23.5262  -23.5254  -13.9420 C   0  0  0  0  0  0  0  0  0  0  0  0
   23.6537  -22.6992  -15.0393 C   0  0  0  0  0  0  0  0  0  0  0  0
   23.0507  -23.2583  -16.1108 N   0  0  0  0  0  0  0  0  0  0  0  0
   22.5465  -24.4340  -15.6821 C   0  0  0  0  0  0  0  0  0  0  0  0
   22.8306  -24.5930  -14.3874 N   0  0  0  0  0  0  0  0  0  0  0  0
   23.9442  -20.8838  -12.8074 C   0  0  0  0  0  0  0  0  0  0  0  0
   23.1639  -20.3573  -11.9652 O   0  0  0  0  0  0  0  0  0  0  0  0
   23.5649  -18.3664  -15.5865 C   0  0  0  0  0  0  0  0  0  0  0  0
   23.0186  -19.2047  -14.4484 C   0  0  2  0  0  0  0  0  0  0  0  0
   23.9014  -20.2990  -14.1154 N   0  0  0  0  0  0  0  0  0  0  0  0
   21.6236  -19.6099  -14.6839 C   0  0  0  0  0  0  0  0  0  0  0  0
   20.6105  -18.6675  -14.6788 O   0  0  0  0  0  0  0  0  0  0  0  0
   21.3145  -20.8054  -14.8934 O   0  0  0  0  0  0  0  0  0  0  0  0
  2  3  2  0
  2  1  1  0
  4  3  1  0
  5  4  2  0
  6  5  1  0
  7  9  1  0
  7  6  1  0
  7  8  1  6
  9 10  2  0
 11  5  1  0
 11 12  2  0
 12  2  1  0
 13 14  1  0
 13  9  1  0
 14 15  1  1
 15 16  1  0
 16 17  2  0
 18 17  1  0
 19 18  1  0
 20 19  2  0
 20 16  1  0
 21 14  1  0
 22 21  2  0
 24 23  1  6
 24 25  1  0
 25 21  1  0
 26 24  1  0
 26 27  1  0
 28 26  2  0
M  END
$$$$
