YHA.pdb
     RDKit          3D

 28 29  0  0  1  0  0  0  0  0999 V2000
   34.8801   -7.9779  -29.7087 O   0  0  0  0  0  0  0  0  0  0  0  0
   34.8227   -8.3411  -28.3602 C   0  0  0  0  0  0  0  0  0  0  0  0
   33.6442   -8.2811  -27.6588 C   0  0  0  0  0  0  0  0  0  0  0  0
   33.5808   -8.6421  -26.3137 C   0  0  0  0  0  0  0  0  0  0  0  0
   34.7053   -9.0737  -25.6390 C   0  0  0  0  0  0  0  0  0  0  0  0
   34.6593   -9.4624  -24.1947 C   0  0  0  0  0  0  0  0  0  0  0  0
   34.5448   -8.2030  -23.3253 C   0  0  2  0  0  0  0  0  0  0  0  0
   35.9228   -7.7241  -23.1407 N   0  0  0  0  0  0  0  0  0  0  0  0
   34.0283   -8.6061  -22.0157 C   0  0  0  0  0  0  0  0  0  0  0  0
   34.8111   -8.8128  -21.0414 O   0  0  0  0  0  0  0  0  0  0  0  0
   35.8804   -9.1282  -26.3576 C   0  0  0  0  0  0  0  0  0  0  0  0
   35.9505   -8.7723  -27.6898 C   0  0  0  0  0  0  0  0  0  0  0  0
   32.6068   -8.7707  -21.8275 N   0  0  0  0  0  0  0  0  0  0  0  0
   32.0657   -9.1514  -20.5422 C   0  0  1  0  0  0  0  0  0  0  0  0
   30.9321   -8.2239  -20.1269 C   0  0  0  0  0  0  0  0  0  0  0  0
   30.3634   -8.6066  -18.8088 C   0  0  0  0  0  0  0  0  0  0  0  0
   30.9124   -8.4341  -17.5551 C   0  0  0  0  0  0  0  0  0  0  0  0
   30.0749   -8.9201  -16.6134 N   0  0  0  0  0  0  0  0  0  0  0  0
   29.0026   -9.3962  -17.2797 C   0  0  0  0  0  0  0  0  0  0  0  0
   29.1753   -9.2088  -18.5901 N   0  0  0  0  0  0  0  0  0  0  0  0
   31.5631  -10.5501  -20.5236 C   0  0  0  0  0  0  0  0  0  0  0  0
   30.8192  -11.0008  -21.4395 O   0  0  0  0  0  0  0  0  0  0  0  0
   31.8416  -13.6219  -18.2780 C   0  0  0  0  0  0  0  0  0  0  0  0
   31.2753  -12.8009  -19.4189 C   0  0  2  0  0  0  0  0  0  0  0  0
   31.8748  -11.4880  -19.4853 N   0  0  0  0  0  0  0  0  0  0  0  0
   29.8037  -12.7883  -19.4102 C   0  0  0  0  0  0  0  0  0  0  0  0
   29.0914  -13.7881  -20.0486 O   0  0  0  0  0  0  0  0  0  0  0  0
   29.1591  -11.8835  -18.8319 O   0  0  0  0  0  0  0  0  0  0  0  0
  2  3  2  0
  2  1  1  0
  4  3  1  0
  5  4  2  0
  6  5  1  0
  7  9  1  0
  7  6  1  0
  7  8  1  1
  9 10  2  0
 11  5  1  0
 11 12  2  0
 12  2  1  0
 13 14  1  0
 13  9  1  0
 14 15  1  6
 15 16  1  0
 16 17  2  0
 18 17  1  0
 19 18  1  0
 20 19  2  0
 20 16  1  0
 21 14  1  0
 22 21  2  0
 24 23  1  1
 24 25  1  0
 25 21  1  0
 26 24  1  0
 26 27  1  0
 28 26  2  0
M  END
$$$$
