YHA.pdb
     RDKit          3D

 28 29  0  0  1  0  0  0  0  0999 V2000
   23.8244    0.5824  -22.2330 O   0  0  0  0  0  0  0  0  0  0  0  0
   23.7200   -0.7312  -21.7670 C   0  0  0  0  0  0  0  0  0  0  0  0
   24.3731   -1.1343  -20.6289 C   0  0  0  0  0  0  0  0  0  0  0  0
   24.2727   -2.4431  -20.1592 C   0  0  0  0  0  0  0  0  0  0  0  0
   23.5101   -3.3816  -20.8254 C   0  0  0  0  0  0  0  0  0  0  0  0
   23.3922   -4.7921  -20.3399 C   0  0  0  0  0  0  0  0  0  0  0  0
   24.6135   -5.5996  -20.7997 C   0  0  2  0  0  0  0  0  0  0  0  0
   24.4263   -5.8113  -22.2427 N   0  0  0  0  0  0  0  0  0  0  0  0
   24.5620   -6.9066  -20.1417 C   0  0  0  0  0  0  0  0  0  0  0  0
   23.8690   -7.8519  -20.6222 O   0  0  0  0  0  0  0  0  0  0  0  0
   22.8610   -2.9608  -21.9662 C   0  0  0  0  0  0  0  0  0  0  0  0
   22.9559   -1.6663  -22.4370 C   0  0  0  0  0  0  0  0  0  0  0  0
   25.3112   -7.1260  -18.9277 N   0  0  0  0  0  0  0  0  0  0  0  0
   25.2681   -8.4005  -18.2469 C   0  0  1  0  0  0  0  0  0  0  0  0
   26.4790   -8.5812  -17.3420 C   0  0  0  0  0  0  0  0  0  0  0  0
   26.5111   -9.9346  -16.7300 C   0  0  0  0  0  0  0  0  0  0  0  0
   25.6848  -11.0099  -16.9825 C   0  0  0  0  0  0  0  0  0  0  0  0
   26.0466  -12.0606  -16.2147 N   0  0  0  0  0  0  0  0  0  0  0  0
   27.0993  -11.6408  -15.4826 C   0  0  0  0  0  0  0  0  0  0  0  0
   27.3762  -10.3717  -15.7905 N   0  0  0  0  0  0  0  0  0  0  0  0
   24.0380   -8.5729  -17.4305 C   0  0  0  0  0  0  0  0  0  0  0  0
   23.8047   -9.6411  -16.7983 O   0  0  0  0  0  0  0  0  0  0  0  0
   20.9839   -8.9079  -17.2722 C   0  0  0  0  0  0  0  0  0  0  0  0
   21.7789   -7.7977  -16.6152 C   0  0  2  0  0  0  0  0  0  0  0  0
   23.0324   -7.5605  -17.2935 N   0  0  0  0  0  0  0  0  0  0  0  0
   21.9117   -8.0007  -15.1637 C   0  0  0  0  0  0  0  0  0  0  0  0
   20.7877   -8.0512  -14.3583 O   0  0  0  0  0  0  0  0  0  0  0  0
   23.0321   -8.1322  -14.6197 O   0  0  0  0  0  0  0  0  0  0  0  0
  2  3  2  0
  2  1  1  0
  4  3  1  0
  5  4  2  0
  6  5  1  0
  7  9  1  0
  7  6  1  0
  7  8  1  6
  9 10  2  0
 11  5  1  0
 11 12  2  0
 12  2  1  0
 13 14  1  0
 13  9  1  0
 14 15  1  1
 15 16  1  0
 16 17  2  0
 18 17  1  0
 19 18  1  0
 20 19  2  0
 20 16  1  0
 21 14  1  0
 22 21  2  0
 24 23  1  6
 24 25  1  0
 25 21  1  0
 26 24  1  0
 26 27  1  0
 28 26  2  0
M  END
$$$$
