YHA.pdb
     RDKit          3D

 28 29  0  0  1  0  0  0  0  0999 V2000
   21.2234  -10.6138  -25.6004 O   0  0  0  0  0  0  0  0  0  0  0  0
   20.7597  -10.1638  -24.3610 C   0  0  0  0  0  0  0  0  0  0  0  0
   21.4138   -9.1692  -23.6773 C   0  0  0  0  0  0  0  0  0  0  0  0
   20.9561   -8.7163  -22.4408 C   0  0  0  0  0  0  0  0  0  0  0  0
   19.8253   -9.2547  -21.8598 C   0  0  0  0  0  0  0  0  0  0  0  0
   19.3196   -8.7851  -20.5320 C   0  0  0  0  0  0  0  0  0  0  0  0
   20.2717   -9.2527  -19.4230 C   0  0  2  0  0  0  0  0  0  0  0  0
   20.0254  -10.6946  -19.2734 N   0  0  0  0  0  0  0  0  0  0  0  0
   19.8693   -8.5949  -18.1782 C   0  0  0  0  0  0  0  0  0  0  0  0
   18.8701   -9.0060  -17.5168 O   0  0  0  0  0  0  0  0  0  0  0  0
   19.1804  -10.2522  -22.5591 C   0  0  0  0  0  0  0  0  0  0  0  0
   19.6280  -10.7057  -23.7841 C   0  0  0  0  0  0  0  0  0  0  0  0
   20.6200   -7.4616  -17.6933 N   0  0  0  0  0  0  0  0  0  0  0  0
   20.2278   -6.7712  -16.4852 C   0  0  1  0  0  0  0  0  0  0  0  0
   21.3541   -6.7736  -15.4610 C   0  0  0  0  0  0  0  0  0  0  0  0
   21.6012   -8.1345  -14.9185 C   0  0  0  0  0  0  0  0  0  0  0  0
   20.9793   -9.3185  -15.2565 C   0  0  0  0  0  0  0  0  0  0  0  0
   21.4948  -10.3344  -14.5308 N   0  0  0  0  0  0  0  0  0  0  0  0
   22.4389   -9.7842  -13.7394 C   0  0  0  0  0  0  0  0  0  0  0  0
   22.5020   -8.4710  -13.9712 N   0  0  0  0  0  0  0  0  0  0  0  0
   19.8198   -5.3642  -16.7360 C   0  0  0  0  0  0  0  0  0  0  0  0
   20.5268   -4.5814  -17.4308 O   0  0  0  0  0  0  0  0  0  0  0  0
   16.8115   -3.1351  -16.0287 C   0  0  0  0  0  0  0  0  0  0  0  0
   18.2229   -3.4245  -16.4984 C   0  0  2  0  0  0  0  0  0  0  0  0
   18.6124   -4.7879  -16.2213 N   0  0  0  0  0  0  0  0  0  0  0  0
   19.1809   -2.4172  -16.0154 C   0  0  0  0  0  0  0  0  0  0  0  0
   19.3413   -1.2219  -16.6936 O   0  0  0  0  0  0  0  0  0  0  0  0
   19.8717   -2.6087  -14.9884 O   0  0  0  0  0  0  0  0  0  0  0  0
  2  3  2  0
  2  1  1  0
  4  3  1  0
  5  4  2  0
  6  5  1  0
  7  9  1  0
  7  6  1  0
  7  8  1  1
  9 10  2  0
 11  5  1  0
 11 12  2  0
 12  2  1  0
 13 14  1  0
 13  9  1  0
 14 15  1  1
 15 16  1  0
 16 17  2  0
 18 17  1  0
 19 18  1  0
 20 19  2  0
 20 16  1  0
 21 14  1  0
 22 21  2  0
 24 23  1  1
 24 25  1  0
 25 21  1  0
 26 24  1  0
 26 27  1  0
 28 26  2  0
M  END
$$$$
