YHA.pdb
     RDKit          3D

 28 29  0  0  1  0  0  0  0  0999 V2000
   16.3253   -7.4900  -25.2388 O   0  0  0  0  0  0  0  0  0  0  0  0
   17.0187   -7.7217  -24.0475 C   0  0  0  0  0  0  0  0  0  0  0  0
   16.3556   -7.8320  -22.8506 C   0  0  0  0  0  0  0  0  0  0  0  0
   17.0417   -8.0630  -21.6592 C   0  0  0  0  0  0  0  0  0  0  0  0
   18.4164   -8.1891  -21.6427 C   0  0  0  0  0  0  0  0  0  0  0  0
   19.1720   -8.4337  -20.3744 C   0  0  0  0  0  0  0  0  0  0  0  0
   19.8255   -9.8213  -20.4228 C   0  0  2  0  0  0  0  0  0  0  0  0
   18.7226  -10.7824  -20.2737 N   0  0  0  0  0  0  0  0  0  0  0  0
   20.6964   -9.9493  -19.2527 C   0  0  0  0  0  0  0  0  0  0  0  0
   20.2454  -10.3726  -18.1472 O   0  0  0  0  0  0  0  0  0  0  0  0
   19.0670   -8.0757  -22.8526 C   0  0  0  0  0  0  0  0  0  0  0  0
   18.3940   -7.8470  -24.0363 C   0  0  0  0  0  0  0  0  0  0  0  0
   22.0904   -9.5896  -19.3562 N   0  0  0  0  0  0  0  0  0  0  0  0
   22.9712   -9.6894  -18.2143 C   0  0  1  0  0  0  0  0  0  0  0  0
   24.3656  -10.1341  -18.6333 C   0  0  0  0  0  0  0  0  0  0  0  0
   25.2488  -10.3535  -17.4591 C   0  0  0  0  0  0  0  0  0  0  0  0
   25.3963  -11.4946  -16.6981 C   0  0  0  0  0  0  0  0  0  0  0  0
   26.3013  -11.2824  -15.7181 N   0  0  0  0  0  0  0  0  0  0  0  0
   26.7188  -10.0081  -15.8675 C   0  0  0  0  0  0  0  0  0  0  0  0
   26.0903   -9.4541  -16.9068 N   0  0  0  0  0  0  0  0  0  0  0  0
   23.0877   -8.4099  -17.4668 C   0  0  0  0  0  0  0  0  0  0  0  0
   23.0939   -7.2936  -18.0578 O   0  0  0  0  0  0  0  0  0  0  0  0
   24.5374   -6.2812  -16.0305 C   0  0  0  0  0  0  0  0  0  0  0  0
   23.4602   -7.0966  -15.3442 C   0  0  2  0  0  0  0  0  0  0  0  0
   23.1995   -8.3360  -16.0396 N   0  0  0  0  0  0  0  0  0  0  0  0
   22.2551   -6.2973  -15.0711 C   0  0  0  0  0  0  0  0  0  0  0  0
   22.3449   -5.1192  -14.3509 O   0  0  0  0  0  0  0  0  0  0  0  0
   21.1254   -6.6545  -15.4769 O   0  0  0  0  0  0  0  0  0  0  0  0
  2  3  2  0
  2  1  1  0
  4  3  1  0
  5  4  2  0
  6  5  1  0
  7  9  1  0
  7  6  1  0
  7  8  1  1
  9 10  2  0
 11  5  1  0
 11 12  2  0
 12  2  1  0
 13 14  1  0
 13  9  1  0
 14 15  1  6
 15 16  1  0
 16 17  2  0
 18 17  1  0
 19 18  1  0
 20 19  2  0
 20 16  1  0
 21 14  1  0
 22 21  2  0
 24 23  1  6
 24 25  1  0
 25 21  1  0
 26 24  1  0
 26 27  1  0
 28 26  2  0
M  END
$$$$
