YHA.pdb
     RDKit          3D

 28 29  0  0  1  0  0  0  0  0999 V2000
   29.5508  -19.9387   -6.4796 O   0  0  0  0  0  0  0  0  0  0  0  0
   28.5085  -20.1866   -7.3772 C   0  0  0  0  0  0  0  0  0  0  0  0
   28.6803  -21.0265   -8.4494 C   0  0  0  0  0  0  0  0  0  0  0  0
   27.6444  -21.2776   -9.3481 C   0  0  0  0  0  0  0  0  0  0  0  0
   26.4062  -20.6880   -9.1895 C   0  0  0  0  0  0  0  0  0  0  0  0
   25.2825  -20.9416  -10.1447 C   0  0  0  0  0  0  0  0  0  0  0  0
   25.8499  -21.3234  -11.5185 C   0  0  2  0  0  0  0  0  0  0  0  0
   27.1203  -20.5927  -11.6379 N   0  0  0  0  0  0  0  0  0  0  0  0
   24.9362  -20.8094  -12.5409 C   0  0  0  0  0  0  0  0  0  0  0  0
   24.8643  -19.5688  -12.7871 O   0  0  0  0  0  0  0  0  0  0  0  0
   26.2503  -19.8474   -8.1082 C   0  0  0  0  0  0  0  0  0  0  0  0
   27.2717  -19.5942   -7.2143 C   0  0  0  0  0  0  0  0  0  0  0  0
   24.1039  -21.7264  -13.2822 N   0  0  0  0  0  0  0  0  0  0  0  0
   23.1893  -21.2488  -14.2947 C   0  0  1  0  0  0  0  0  0  0  0  0
   23.4618  -21.9117  -15.6378 C   0  0  0  0  0  0  0  0  0  0  0  0
   24.6755  -21.3553  -16.2894 C   0  0  0  0  0  0  0  0  0  0  0  0
   25.4545  -20.2910  -15.8852 C   0  0  0  0  0  0  0  0  0  0  0  0
   26.4701  -20.1051  -16.7562 N   0  0  0  0  0  0  0  0  0  0  0  0
   26.3249  -21.0539  -17.7044 C   0  0  0  0  0  0  0  0  0  0  0  0
   25.2535  -21.7999  -17.4253 N   0  0  0  0  0  0  0  0  0  0  0  0
   21.7655  -21.4776  -13.9347 C   0  0  0  0  0  0  0  0  0  0  0  0
   21.4336  -22.2695  -13.0082 O   0  0  0  0  0  0  0  0  0  0  0  0
   19.0632  -22.5474  -13.8989 C   0  0  0  0  0  0  0  0  0  0  0  0
   19.2914  -21.0906  -14.2482 C   0  0  2  0  0  0  0  0  0  0  0  0
   20.6697  -20.8309  -14.5949 N   0  0  0  0  0  0  0  0  0  0  0  0
   18.7512  -20.1871  -13.2198 C   0  0  0  0  0  0  0  0  0  0  0  0
   17.4216  -20.2678  -12.8456 O   0  0  0  0  0  0  0  0  0  0  0  0
   19.4696  -19.3280  -12.6589 O   0  0  0  0  0  0  0  0  0  0  0  0
  2  3  2  0
  2  1  1  0
  4  3  1  0
  5  4  2  0
  6  5  1  0
  7  9  1  0
  7  6  1  0
  7  8  1  6
  9 10  2  0
 11  5  1  0
 11 12  2  0
 12  2  1  0
 13 14  1  0
 13  9  1  0
 14 15  1  6
 15 16  1  0
 16 17  2  0
 18 17  1  0
 19 18  1  0
 20 19  2  0
 20 16  1  0
 21 14  1  0
 22 21  2  0
 24 23  1  1
 24 25  1  0
 25 21  1  0
 26 24  1  0
 26 27  1  0
 28 26  2  0
M  END
$$$$
