YHA.pdb
     RDKit          3D

 28 29  0  0  1  0  0  0  0  0999 V2000
   24.1543  -31.3674   -9.1195 O   0  0  0  0  0  0  0  0  0  0  0  0
   25.0954  -31.9785   -8.2861 C   0  0  0  0  0  0  0  0  0  0  0  0
   26.3866  -32.1835   -8.7047 C   0  0  0  0  0  0  0  0  0  0  0  0
   27.3297  -32.7925   -7.8779 C   0  0  0  0  0  0  0  0  0  0  0  0
   26.9956  -33.2115   -6.6056 C   0  0  0  0  0  0  0  0  0  0  0  0
   27.9919  -33.8703   -5.7040 C   0  0  0  0  0  0  0  0  0  0  0  0
   28.4244  -35.2133   -6.3075 C   0  0  2  0  0  0  0  0  0  0  0  0
   27.1767  -35.9297   -6.6113 N   0  0  0  0  0  0  0  0  0  0  0  0
   29.1346  -35.9644   -5.2703 C   0  0  0  0  0  0  0  0  0  0  0  0
   28.5551  -36.8828   -4.6179 O   0  0  0  0  0  0  0  0  0  0  0  0
   25.6953  -32.9984   -6.2008 C   0  0  0  0  0  0  0  0  0  0  0  0
   24.7562  -32.3960   -7.0142 C   0  0  0  0  0  0  0  0  0  0  0  0
   30.5156  -35.6577   -4.9843 N   0  0  0  0  0  0  0  0  0  0  0  0
   31.2330  -36.3581   -3.9429 C   0  0  1  0  0  0  0  0  0  0  0  0
   32.7365  -36.1698   -4.0896 C   0  0  0  0  0  0  0  0  0  0  0  0
   33.2832  -36.9673   -5.2176 C   0  0  0  0  0  0  0  0  0  0  0  0
   32.6437  -37.9195   -5.9839 C   0  0  0  0  0  0  0  0  0  0  0  0
   33.4931  -38.4128   -6.9110 N   0  0  0  0  0  0  0  0  0  0  0  0
   34.6634  -37.7681   -6.7233 C   0  0  0  0  0  0  0  0  0  0  0  0
   34.5376  -36.9054   -5.7124 N   0  0  0  0  0  0  0  0  0  0  0  0
   30.8328  -35.9230   -2.5791 C   0  0  0  0  0  0  0  0  0  0  0  0
   30.6133  -34.7093   -2.3069 O   0  0  0  0  0  0  0  0  0  0  0  0
   29.3807  -37.4908    0.5015 C   0  0  0  0  0  0  0  0  0  0  0  0
   30.1704  -36.3983   -0.1908 C   0  0  2  0  0  0  0  0  0  0  0  0
   30.6645  -36.8266   -1.4791 N   0  0  0  0  0  0  0  0  0  0  0  0
   31.2030  -35.8252    0.6873 C   0  0  0  0  0  0  0  0  0  0  0  0
   30.8440  -35.0739    1.7923 O   0  0  0  0  0  0  0  0  0  0  0  0
   32.4232  -35.9977    0.4638 O   0  0  0  0  0  0  0  0  0  0  0  0
  2  3  2  0
  2  1  1  0
  4  3  1  0
  5  4  2  0
  6  5  1  0
  7  9  1  0
  7  6  1  0
  7  8  1  1
  9 10  2  0
 11  5  1  0
 11 12  2  0
 12  2  1  0
 13 14  1  0
 13  9  1  0
 14 15  1  6
 15 16  1  0
 16 17  2  0
 18 17  1  0
 19 18  1  0
 20 19  2  0
 20 16  1  0
 21 14  1  0
 22 21  2  0
 24 23  1  1
 24 25  1  0
 25 21  1  0
 26 24  1  0
 26 27  1  0
 28 26  2  0
M  END
$$$$
