YHA.pdb
     RDKit          3D

 28 29  0  0  1  0  0  0  0  0999 V2000
   28.8211  -19.8283   -3.4291 O   0  0  0  0  0  0  0  0  0  0  0  0
   28.3825  -19.7363   -4.7531 C   0  0  0  0  0  0  0  0  0  0  0  0
   27.2352  -20.3669   -5.1658 C   0  0  0  0  0  0  0  0  0  0  0  0
   26.7927  -20.2788   -6.4850 C   0  0  0  0  0  0  0  0  0  0  0  0
   27.4961  -19.5515   -7.4243 C   0  0  0  0  0  0  0  0  0  0  0  0
   27.0402  -19.4473   -8.8458 C   0  0  0  0  0  0  0  0  0  0  0  0
   27.0993  -20.8299   -9.5089 C   0  0  2  0  0  0  0  0  0  0  0  0
   28.5298  -21.1298   -9.6697 N   0  0  0  0  0  0  0  0  0  0  0  0
   26.5101  -20.7136  -10.8444 C   0  0  0  0  0  0  0  0  0  0  0  0
   27.0718  -20.0252  -11.7473 O   0  0  0  0  0  0  0  0  0  0  0  0
   28.6457  -18.9245   -6.9937 C   0  0  0  0  0  0  0  0  0  0  0  0
   29.0897  -19.0075   -5.6890 C   0  0  0  0  0  0  0  0  0  0  0  0
   25.2714  -21.3924  -11.1410 N   0  0  0  0  0  0  0  0  0  0  0  0
   24.6852  -21.3280  -12.4609 C   0  0  1  0  0  0  0  0  0  0  0  0
   24.6435  -22.7039  -13.1110 C   0  0  0  0  0  0  0  0  0  0  0  0
   24.0825  -22.6458  -14.4855 C   0  0  0  0  0  0  0  0  0  0  0  0
   22.9048  -23.1894  -14.9549 C   0  0  0  0  0  0  0  0  0  0  0  0
   22.7591  -22.9111  -16.2686 N   0  0  0  0  0  0  0  0  0  0  0  0
   23.8465  -22.1934  -16.6193 C   0  0  0  0  0  0  0  0  0  0  0  0
   24.6361  -22.0353  -15.5546 N   0  0  0  0  0  0  0  0  0  0  0  0
   23.3083  -20.7683  -12.4497 C   0  0  0  0  0  0  0  0  0  0  0  0
   22.5049  -20.9998  -11.5030 O   0  0  0  0  0  0  0  0  0  0  0  0
   21.2272  -18.3431  -14.5170 C   0  0  0  0  0  0  0  0  0  0  0  0
   21.4353  -19.4217  -13.4732 C   0  0  2  0  0  0  0  0  0  0  0  0
   22.7862  -19.9338  -13.4917 N   0  0  0  0  0  0  0  0  0  0  0  0
   20.3981  -20.4633  -13.5439 C   0  0  0  0  0  0  0  0  0  0  0  0
   19.2377  -20.3474  -12.7991 O   0  0  0  0  0  0  0  0  0  0  0  0
   20.5323  -21.4740  -14.2712 O   0  0  0  0  0  0  0  0  0  0  0  0
  2  3  2  0
  2  1  1  0
  4  3  1  0
  5  4  2  0
  6  5  1  0
  7  9  1  0
  7  6  1  0
  7  8  1  6
  9 10  2  0
 11  5  1  0
 11 12  2  0
 12  2  1  0
 13 14  1  0
 13  9  1  0
 14 15  1  1
 15 16  1  0
 16 17  2  0
 18 17  1  0
 19 18  1  0
 20 19  2  0
 20 16  1  0
 21 14  1  0
 22 21  2  0
 24 23  1  6
 24 25  1  0
 25 21  1  0
 26 24  1  0
 26 27  1  0
 28 26  2  0
M  END
$$$$
