RYT.pdb
     RDKit          3D

 31 31  0  0  1  0  0  0  0  0999 V2000
   30.5928  -21.6468   -9.8571 N   0  0  0  0  0  0  0  0  0  0  0  0
   31.4811  -22.3374  -10.7169 C   0  0  0  0  0  0  0  0  0  0  0  0
   32.3436  -23.1815  -10.3006 N   0  0  0  0  0  0  0  0  0  0  0  0
   31.4073  -22.0763  -12.1145 N   0  0  0  0  0  0  0  0  0  0  0  0
   30.4901  -21.0307  -12.6112 C   0  0  0  0  0  0  0  0  0  0  0  0
   29.1843  -21.6896  -12.8510 C   0  0  0  0  0  0  0  0  0  0  0  0
   28.1815  -20.8014  -13.4661 C   0  0  0  0  0  0  0  0  0  0  0  0
   27.8625  -21.1620  -14.8757 C   0  0  2  0  0  0  0  0  0  0  0  0
   28.8787  -20.8597  -15.8411 N   0  0  0  0  0  0  0  0  0  0  0  0
   26.5894  -20.5236  -15.2685 C   0  0  0  0  0  0  0  0  0  0  0  0
   26.6152  -19.3531  -15.6970 O   0  0  0  0  0  0  0  0  0  0  0  0
   32.9905  -23.6817  -10.9641 O   0  0  0  0  0  0  0  0  0  0  0  0
   26.6436  -18.9122  -21.1850 C   0  0  0  0  0  0  0  0  0  0  0  0
   25.9289  -19.4914  -20.1484 C   0  0  0  0  0  0  0  0  0  0  0  0
   26.3281  -20.6568  -19.5401 C   0  0  0  0  0  0  0  0  0  0  0  0
   25.5816  -21.1966  -18.5103 C   0  0  0  0  0  0  0  0  0  0  0  0
   24.4259  -20.6062  -18.0527 C   0  0  0  0  0  0  0  0  0  0  0  0
   23.6797  -21.2489  -16.9436 C   0  0  2  0  0  0  0  0  0  0  0  0
   24.1232  -20.6835  -15.6018 N   0  0  0  0  0  0  0  0  0  0  0  0
   25.3801  -21.2330  -15.1573 C   0  0  0  0  0  0  0  0  0  0  0  0
   23.0515  -20.7939  -14.5832 O   0  0  0  0  0  0  0  0  0  0  0  0
   23.0938  -21.7740  -13.8012 C   0  0  0  0  0  0  0  0  0  0  0  0
   24.0410  -19.4410  -18.6720 C   0  0  0  0  0  0  0  0  0  0  0  0
   24.7664  -18.8764  -19.7044 C   0  0  0  0  0  0  0  0  0  0  0  0
   19.2411  -18.9565  -12.0908 C   0  0  2  0  0  0  0  0  0  0  0  0
   20.1840  -18.7509  -13.2506 O   0  0  0  0  0  0  0  0  0  0  0  0
   20.8945  -17.5858  -13.0405 C   0  0  1  0  0  0  0  0  0  0  0  0
   21.0736  -19.9607  -13.3756 N   0  0  0  0  0  0  0  0  0  0  0  0
   22.0011  -19.8553  -14.4604 C   0  0  0  0  0  0  0  0  0  0  0  0
   20.2776  -21.1887  -13.5859 O   0  0  0  0  0  0  0  0  0  0  0  0
   19.8963  -21.5893  -14.7286 O   0  0  0  0  0  0  0  0  0  0  0  0
  2  1  1  0
  2  3  2  0
  4  2  1  0
  5  4  1  0
  6  7  1  0
  6  5  1  0
  8 10  1  0
  8  7  1  0
  8  9  1  6
 10 11  2  0
 13 23  2  0
 13 12  1  0
 14 13  1  0
 15 16  1  0
 15 14  2  0
 16 22  2  0
 17 16  1  0
 18 17  1  6
 19 18  1  0
 19 10  1  0
 20 28  1  0
 20 18  1  0
 21 20  2  0
 22 23  1  0
 25 24  1  6
 26 25  1  0
 27 29  1  0
 27 25  1  0
 27 28  1  6
 29 31  1  0
 30 29  2  0
M  END
$$$$
