RYT.pdb
     RDKit          3D

 31 31  0  0  1  0  0  0  0  0999 V2000
   33.2402  -28.2506  -18.3691 N   0  0  0  0  0  0  0  0  0  0  0  0
   33.3388  -29.4668  -19.0878 C   0  0  0  0  0  0  0  0  0  0  0  0
   34.4371  -29.9128  -19.5615 N   0  0  0  0  0  0  0  0  0  0  0  0
   32.1534  -30.2285  -19.2912 N   0  0  0  0  0  0  0  0  0  0  0  0
   30.9089  -29.8349  -18.6002 C   0  0  0  0  0  0  0  0  0  0  0  0
   29.8565  -30.7765  -19.0503 C   0  0  0  0  0  0  0  0  0  0  0  0
   28.4940  -30.3609  -18.6713 C   0  0  0  0  0  0  0  0  0  0  0  0
   28.2291  -30.4766  -17.2101 C   0  0  2  0  0  0  0  0  0  0  0  0
   27.9971  -31.8048  -16.7224 N   0  0  0  0  0  0  0  0  0  0  0  0
   27.0951  -29.6020  -16.8471 C   0  0  0  0  0  0  0  0  0  0  0  0
   26.0496  -30.1271  -16.4163 O   0  0  0  0  0  0  0  0  0  0  0  0
   34.4957  -30.8582  -20.0214 O   0  0  0  0  0  0  0  0  0  0  0  0
   22.3875  -22.4831  -14.7820 C   0  0  0  0  0  0  0  0  0  0  0  0
   23.4354  -23.3303  -15.1058 C   0  0  0  0  0  0  0  0  0  0  0  0
   24.1878  -23.1689  -16.2439 C   0  0  0  0  0  0  0  0  0  0  0  0
   25.2228  -24.0402  -16.5246 C   0  0  0  0  0  0  0  0  0  0  0  0
   25.5444  -25.0905  -15.6957 C   0  0  0  0  0  0  0  0  0  0  0  0
   26.6691  -25.9830  -16.0679 C   0  0  1  0  0  0  0  0  0  0  0  0
   26.1461  -27.3090  -16.6018 N   0  0  0  0  0  0  0  0  0  0  0  0
   27.2058  -28.2071  -16.9886 C   0  0  0  0  0  0  0  0  0  0  0  0
   25.1403  -27.1064  -17.6721 O   0  0  0  0  0  0  0  0  0  0  0  0
   25.5416  -26.6333  -18.7626 C   0  0  0  0  0  0  0  0  0  0  0  0
   24.7819  -25.2374  -14.5614 C   0  0  0  0  0  0  0  0  0  0  0  0
   23.7404  -24.3823  -14.2532 C   0  0  0  0  0  0  0  0  0  0  0  0
   22.8988  -29.4795  -19.4678 C   0  0  2  0  0  0  0  0  0  0  0  0
   22.0120  -28.3939  -18.9097 O   0  0  0  0  0  0  0  0  0  0  0  0
   21.3534  -28.8883  -17.8015 C   0  0  2  0  0  0  0  0  0  0  0  0
   22.8582  -27.1877  -18.5940 N   0  0  0  0  0  0  0  0  0  0  0  0
   23.7702  -27.4190  -17.5156 C   0  0  0  0  0  0  0  0  0  0  0  0
   22.0180  -26.0277  -18.2279 O   0  0  0  0  0  0  0  0  0  0  0  0
   21.8838  -25.6079  -17.0372 O   0  0  0  0  0  0  0  0  0  0  0  0
  2  1  1  0
  2  3  2  0
  4  2  1  0
  5  4  1  0
  6  7  1  0
  6  5  1  0
  8 10  1  0
  8  7  1  0
  8  9  1  6
 10 11  2  0
 13 23  2  0
 13 12  1  0
 14 13  1  0
 15 16  1  0
 15 14  2  0
 16 22  2  0
 17 16  1  0
 18 17  1  1
 19 18  1  0
 19 10  1  0
 20 28  1  0
 20 18  1  0
 21 20  2  0
 22 23  1  0
 25 24  1  6
 26 25  1  0
 27 29  1  0
 27 25  1  0
 27 28  1  6
 29 31  1  0
 30 29  2  0
M  END
$$$$
