RYT.pdb
     RDKit          3D

 31 31  0  0  1  0  0  0  0  0999 V2000
   26.3875  -21.0188  -21.6849 N   0  0  0  0  0  0  0  0  0  0  0  0
   25.8532  -19.7588  -21.3215 C   0  0  0  0  0  0  0  0  0  0  0  0
   25.3796  -18.9288  -22.1679 N   0  0  0  0  0  0  0  0  0  0  0  0
   25.8447  -19.4014  -19.9434 N   0  0  0  0  0  0  0  0  0  0  0  0
   27.1228  -19.3050  -19.2096 C   0  0  0  0  0  0  0  0  0  0  0  0
   27.3909  -20.6486  -18.6443 C   0  0  0  0  0  0  0  0  0  0  0  0
   26.5743  -20.9612  -17.4576 C   0  0  0  0  0  0  0  0  0  0  0  0
   27.3160  -21.7301  -16.4195 C   0  0  2  0  0  0  0  0  0  0  0  0
   27.8404  -22.9970  -16.8388 N   0  0  0  0  0  0  0  0  0  0  0  0
   26.4533  -21.9101  -15.2337 C   0  0  0  0  0  0  0  0  0  0  0  0
   25.7016  -22.9035  -15.1870 O   0  0  0  0  0  0  0  0  0  0  0  0
   24.9666  -18.0085  -21.8660 O   0  0  0  0  0  0  0  0  0  0  0  0
   22.6960  -21.0610   -7.3701 C   0  0  0  0  0  0  0  0  0  0  0  0
   23.5422  -20.8918   -8.4546 C   0  0  0  0  0  0  0  0  0  0  0  0
   24.7366  -21.5611   -8.5679 C   0  0  0  0  0  0  0  0  0  0  0  0
   25.5473  -21.3587   -9.6682 C   0  0  0  0  0  0  0  0  0  0  0  0
   25.2058  -20.4951  -10.6837 C   0  0  0  0  0  0  0  0  0  0  0  0
   26.1312  -20.3315  -11.8313 C   0  0  2  0  0  0  0  0  0  0  0  0
   25.5865  -21.0401  -13.0633 N   0  0  0  0  0  0  0  0  0  0  0  0
   26.4895  -20.9730  -14.1856 C   0  0  0  0  0  0  0  0  0  0  0  0
   24.2166  -20.5800  -13.3952 O   0  0  0  0  0  0  0  0  0  0  0  0
   24.0821  -19.3959  -13.7875 C   0  0  0  0  0  0  0  0  0  0  0  0
   24.0076  -19.8338  -10.5547 C   0  0  0  0  0  0  0  0  0  0  0  0
   23.1750  -20.0152   -9.4662 C   0  0  0  0  0  0  0  0  0  0  0  0
   22.0779  -21.0608  -16.0278 C   0  0  2  0  0  0  0  0  0  0  0  0
   21.2051  -21.4630  -14.8647 O   0  0  0  0  0  0  0  0  0  0  0  0
   21.1235  -22.8409  -14.8298 C   0  0  2  0  0  0  0  0  0  0  0  0
   21.7812  -20.8818  -13.5994 N   0  0  0  0  0  0  0  0  0  0  0  0
   23.0753  -21.4078  -13.2884 C   0  0  0  0  0  0  0  0  0  0  0  0
   20.9009  -21.1468  -12.4415 O   0  0  0  0  0  0  0  0  0  0  0  0
   21.2394  -21.8713  -11.4555 O   0  0  0  0  0  0  0  0  0  0  0  0
  2  1  1  0
  2  3  2  0
  4  2  1  0
  5  4  1  0
  6  7  1  0
  6  5  1  0
  8 10  1  0
  8  7  1  0
  8  9  1  6
 10 11  2  0
 13 23  2  0
 13 12  1  0
 14 13  1  0
 15 16  1  0
 15 14  2  0
 16 22  2  0
 17 16  1  0
 18 17  1  1
 19 18  1  0
 19 10  1  0
 20 28  1  0
 20 18  1  0
 21 20  2  0
 22 23  1  0
 25 24  1  6
 26 25  1  0
 27 29  1  0
 27 25  1  0
 27 28  1  1
 29 31  1  0
 30 29  2  0
M  END
$$$$
