RYT.pdb
     RDKit          3D

 31 31  0  0  1  0  0  0  0  0999 V2000
   18.6690  -19.4495  -16.9329 N   0  0  0  0  0  0  0  0  0  0  0  0
   18.7009  -18.1996  -16.2679 C   0  0  0  0  0  0  0  0  0  0  0  0
   17.9053  -17.8916  -15.3183 N   0  0  0  0  0  0  0  0  0  0  0  0
   19.6687  -17.2404  -16.6801 N   0  0  0  0  0  0  0  0  0  0  0  0
   21.0697  -17.6617  -16.8819 C   0  0  0  0  0  0  0  0  0  0  0  0
   21.1084  -18.4118  -18.1596 C   0  0  0  0  0  0  0  0  0  0  0  0
   22.1585  -19.4453  -18.2035 C   0  0  0  0  0  0  0  0  0  0  0  0
   23.5309  -18.8835  -18.3441 C   0  0  2  0  0  0  0  0  0  0  0  0
   24.2229  -19.2250  -19.5526 N   0  0  0  0  0  0  0  0  0  0  0  0
   24.3421  -19.2730  -17.1724 C   0  0  0  0  0  0  0  0  0  0  0  0
   24.9271  -20.3737  -17.1901 O   0  0  0  0  0  0  0  0  0  0  0  0
   17.9883  -16.9762  -14.8045 O   0  0  0  0  0  0  0  0  0  0  0  0
   30.0288  -16.6150  -18.6391 C   0  0  0  0  0  0  0  0  0  0  0  0
   29.0993  -16.8494  -17.6381 C   0  0  0  0  0  0  0  0  0  0  0  0
   29.2533  -17.8510  -16.7103 C   0  0  0  0  0  0  0  0  0  0  0  0
   28.2986  -18.0465  -15.7309 C   0  0  0  0  0  0  0  0  0  0  0  0
   27.1702  -17.2645  -15.6380 C   0  0  0  0  0  0  0  0  0  0  0  0
   26.1909  -17.5390  -14.5584 C   0  0  2  0  0  0  0  0  0  0  0  0
   25.2904  -18.7064  -14.9367 N   0  0  0  0  0  0  0  0  0  0  0  0
   24.4447  -18.4102  -16.0665 C   0  0  0  0  0  0  0  0  0  0  0  0
   24.5347  -19.2130  -13.7660 O   0  0  0  0  0  0  0  0  0  0  0  0
   23.5300  -18.5583  -13.3971 C   0  0  0  0  0  0  0  0  0  0  0  0
   27.0318  -16.2670  -16.5737 C   0  0  0  0  0  0  0  0  0  0  0  0
   27.9694  -16.0465  -17.5653 C   0  0  0  0  0  0  0  0  0  0  0  0
   25.2002  -23.0146  -11.8478 C   0  0  2  0  0  0  0  0  0  0  0  0
   23.8682  -22.3158  -11.9656 O   0  0  0  0  0  0  0  0  0  0  0  0
   23.0563  -22.7362  -10.9309 C   0  0  1  0  0  0  0  0  0  0  0  0
   24.0969  -20.8265  -11.9579 N   0  0  0  0  0  0  0  0  0  0  0  0
   24.8952  -20.3839  -13.0601 C   0  0  0  0  0  0  0  0  0  0  0  0
   24.7732  -20.3971  -10.7152 O   0  0  0  0  0  0  0  0  0  0  0  0
   24.1917  -20.3294   -9.5887 O   0  0  0  0  0  0  0  0  0  0  0  0
  2  1  1  0
  2  3  2  0
  4  2  1  0
  5  4  1  0
  6  7  1  0
  6  5  1  0
  8 10  1  0
  8  7  1  0
  8  9  1  6
 10 11  2  0
 13 23  2  0
 13 12  1  0
 14 13  1  0
 15 16  1  0
 15 14  2  0
 16 22  2  0
 17 16  1  0
 18 17  1  6
 19 18  1  0
 19 10  1  0
 20 28  1  0
 20 18  1  0
 21 20  2  0
 22 23  1  0
 25 24  1  6
 26 25  1  0
 27 29  1  0
 27 25  1  0
 27 28  1  6
 29 31  1  0
 30 29  2  0
M  END
$$$$
