RYT.pdb
     RDKit          3D

 31 31  0  0  1  0  0  0  0  0999 V2000
   28.6641  -17.7229  -18.4813 N   0  0  0  0  0  0  0  0  0  0  0  0
   27.7428  -17.2115  -17.5351 C   0  0  0  0  0  0  0  0  0  0  0  0
   26.9215  -16.2698  -17.7962 N   0  0  0  0  0  0  0  0  0  0  0  0
   27.7337  -17.7767  -16.2285 N   0  0  0  0  0  0  0  0  0  0  0  0
   28.5543  -18.9721  -15.9477 C   0  0  0  0  0  0  0  0  0  0  0  0
   28.0354  -19.5580  -14.6891 C   0  0  0  0  0  0  0  0  0  0  0  0
   27.4525  -20.9008  -14.8618 C   0  0  0  0  0  0  0  0  0  0  0  0
   26.0561  -20.8734  -15.3798 C   0  0  2  0  0  0  0  0  0  0  0  0
   25.6010  -19.6078  -15.8770 N   0  0  0  0  0  0  0  0  0  0  0  0
   25.1357  -21.3633  -14.3332 C   0  0  0  0  0  0  0  0  0  0  0  0
   25.2765  -22.5280  -13.9113 O   0  0  0  0  0  0  0  0  0  0  0  0
   26.2302  -15.9267  -17.0799 O   0  0  0  0  0  0  0  0  0  0  0  0
   27.9193  -21.4882   -8.6360 C   0  0  0  0  0  0  0  0  0  0  0  0
   26.7802  -21.1640   -9.3558 C   0  0  0  0  0  0  0  0  0  0  0  0
   26.2618  -21.9889  -10.3244 C   0  0  0  0  0  0  0  0  0  0  0  0
   25.1236  -21.6219  -11.0164 C   0  0  0  0  0  0  0  0  0  0  0  0
   24.4667  -20.4372  -10.7747 C   0  0  0  0  0  0  0  0  0  0  0  0
   23.2514  -20.1145  -11.5614 C   0  0  2  0  0  0  0  0  0  0  0  0
   23.1910  -20.9614  -12.8248 N   0  0  0  0  0  0  0  0  0  0  0  0
   24.1262  -20.5227  -13.8310 C   0  0  0  0  0  0  0  0  0  0  0  0
   21.8043  -21.0786  -13.3361 O   0  0  0  0  0  0  0  0  0  0  0  0
   21.2532  -20.0349  -13.7615 C   0  0  0  0  0  0  0  0  0  0  0  0
   24.9984  -19.6238   -9.8024 C   0  0  0  0  0  0  0  0  0  0  0  0
   26.1353  -19.9632   -9.0932 C   0  0  0  0  0  0  0  0  0  0  0  0
   19.9695  -24.7951  -14.1379 C   0  0  2  0  0  0  0  0  0  0  0  0
   19.6364  -23.5331  -14.8948 O   0  0  0  0  0  0  0  0  0  0  0  0
   18.3563  -23.6463  -15.3998 C   0  0  1  0  0  0  0  0  0  0  0  0
   19.7954  -22.3541  -13.9701 N   0  0  0  0  0  0  0  0  0  0  0  0
   21.0899  -22.2986  -13.3623 C   0  0  0  0  0  0  0  0  0  0  0  0
   18.7928  -22.3889  -12.8841 O   0  0  0  0  0  0  0  0  0  0  0  0
   19.0955  -22.4617  -11.6533 O   0  0  0  0  0  0  0  0  0  0  0  0
  2  1  1  0
  2  3  2  0
  4  2  1  0
  5  4  1  0
  6  7  1  0
  6  5  1  0
  8 10  1  0
  8  7  1  0
  8  9  1  1
 10 11  2  0
 13 23  2  0
 13 12  1  0
 14 13  1  0
 15 16  1  0
 15 14  2  0
 16 22  2  0
 17 16  1  0
 18 17  1  1
 19 18  1  0
 19 10  1  0
 20 28  1  0
 20 18  1  0
 21 20  2  0
 22 23  1  0
 25 24  1  6
 26 25  1  0
 27 29  1  0
 27 25  1  0
 27 28  1  6
 29 31  1  0
 30 29  2  0
M  END
$$$$
