RYT.pdb
     RDKit          3D

 31 31  0  0  1  0  0  0  0  0999 V2000
   33.7372   -8.9162  -17.1548 N   0  0  0  0  0  0  0  0  0  0  0  0
   34.0407  -10.0578  -17.9359 C   0  0  0  0  0  0  0  0  0  0  0  0
   35.2016  -10.5868  -17.9808 N   0  0  0  0  0  0  0  0  0  0  0  0
   32.9983  -10.6431  -18.7090 N   0  0  0  0  0  0  0  0  0  0  0  0
   31.5912  -10.3301  -18.3873 C   0  0  0  0  0  0  0  0  0  0  0  0
   30.7612  -10.9921  -19.4215 C   0  0  0  0  0  0  0  0  0  0  0  0
   29.3122  -10.8248  -19.2088 C   0  0  0  0  0  0  0  0  0  0  0  0
   28.7156  -11.8927  -18.3588 C   0  0  2  0  0  0  0  0  0  0  0  0
   28.7033  -13.2083  -18.9288 N   0  0  0  0  0  0  0  0  0  0  0  0
   27.3457  -11.5003  -17.9689 C   0  0  0  0  0  0  0  0  0  0  0  0
   26.3866  -11.9385  -18.6340 O   0  0  0  0  0  0  0  0  0  0  0  0
   35.4033  -11.4233  -18.5876 O   0  0  0  0  0  0  0  0  0  0  0  0
   20.2858   -9.0072  -13.5424 C   0  0  0  0  0  0  0  0  0  0  0  0
   21.5874   -9.3390  -13.8838 C   0  0  0  0  0  0  0  0  0  0  0  0
   22.6193   -8.4343  -13.8177 C   0  0  0  0  0  0  0  0  0  0  0  0
   23.9009   -8.8120  -14.1692 C   0  0  0  0  0  0  0  0  0  0  0  0
   24.2011  -10.0861  -14.5940 C   0  0  0  0  0  0  0  0  0  0  0  0
   25.6020  -10.4131  -14.9552 C   0  0  2  0  0  0  0  0  0  0  0  0
   25.8246  -10.2357  -16.4505 N   0  0  0  0  0  0  0  0  0  0  0  0
   27.1414  -10.6499  -16.8676 C   0  0  0  0  0  0  0  0  0  0  0  0
   25.4834   -8.8622  -16.8926 O   0  0  0  0  0  0  0  0  0  0  0  0
   26.3172   -7.9543  -16.6592 C   0  0  0  0  0  0  0  0  0  0  0  0
   23.1574  -10.9786  -14.6541 C   0  0  0  0  0  0  0  0  0  0  0  0
   21.8648  -10.6309  -14.3089 C   0  0  0  0  0  0  0  0  0  0  0  0
   25.2576   -7.1768  -20.0643 C   0  0  2  0  0  0  0  0  0  0  0  0
   23.8913   -7.0304  -19.4411 O   0  0  0  0  0  0  0  0  0  0  0  0
   23.0458   -7.9639  -20.0070 C   0  0  2  0  0  0  0  0  0  0  0  0
   24.0173   -7.1885  -17.9479 N   0  0  0  0  0  0  0  0  0  0  0  0
   24.2764   -8.5400  -17.5549 C   0  0  0  0  0  0  0  0  0  0  0  0
   22.7843   -6.7512  -17.2592 O   0  0  0  0  0  0  0  0  0  0  0  0
   22.4252   -5.5368  -17.1694 O   0  0  0  0  0  0  0  0  0  0  0  0
  2  1  1  0
  2  3  2  0
  4  2  1  0
  5  4  1  0
  6  7  1  0
  6  5  1  0
  8 10  1  0
  8  7  1  0
  8  9  1  6
 10 11  2  0
 13 23  2  0
 13 12  1  0
 14 13  1  0
 15 16  1  0
 15 14  2  0
 16 22  2  0
 17 16  1  0
 18 17  1  6
 19 18  1  0
 19 10  1  0
 20 28  1  0
 20 18  1  0
 21 20  2  0
 22 23  1  0
 25 24  1  6
 26 25  1  0
 27 29  1  0
 27 25  1  0
 27 28  1  1
 29 31  1  0
 30 29  2  0
M  END
$$$$
