RYT.pdb
     RDKit          3D

 31 31  0  0  1  0  0  0  0  0999 V2000
   47.7940  -16.2651   -6.2727 N   0  0  0  0  0  0  0  0  0  0  0  0
   47.9389  -15.0105   -5.6322 C   0  0  0  0  0  0  0  0  0  0  0  0
   48.9051  -14.7340   -4.8449 N   0  0  0  0  0  0  0  0  0  0  0  0
   46.9577  -14.0091   -5.8795 N   0  0  0  0  0  0  0  0  0  0  0  0
   45.8590  -14.2863   -6.8268 C   0  0  0  0  0  0  0  0  0  0  0  0
   46.4062  -14.0712   -8.1873 C   0  0  0  0  0  0  0  0  0  0  0  0
   45.6059  -13.1400   -9.0029 C   0  0  0  0  0  0  0  0  0  0  0  0
   45.0528  -13.7651  -10.2367 C   0  0  2  0  0  0  0  0  0  0  0  0
   46.0103  -14.0891  -11.2536 N   0  0  0  0  0  0  0  0  0  0  0  0
   43.9989  -12.8944  -10.7968 C   0  0  0  0  0  0  0  0  0  0  0  0
   44.2793  -12.1672  -11.7698 O   0  0  0  0  0  0  0  0  0  0  0  0
   49.0189  -13.7740   -4.4277 O   0  0  0  0  0  0  0  0  0  0  0  0
   36.2847   -9.8401  -13.4006 C   0  0  0  0  0  0  0  0  0  0  0  0
   37.2621  -10.5601  -12.7319 C   0  0  0  0  0  0  0  0  0  0  0  0
   37.9931  -11.5508  -13.3414 C   0  0  0  0  0  0  0  0  0  0  0  0
   38.9571  -12.2419  -12.6328 C   0  0  0  0  0  0  0  0  0  0  0  0
   39.2270  -11.9777  -11.3096 C   0  0  0  0  0  0  0  0  0  0  0  0
   40.2766  -12.7650  -10.6178 C   0  0  2  0  0  0  0  0  0  0  0  0
   41.6359  -12.0979  -10.7733 N   0  0  0  0  0  0  0  0  0  0  0  0
   42.7095  -12.8959  -10.2350 C   0  0  0  0  0  0  0  0  0  0  0  0
   41.6257  -10.7118  -10.2469 O   0  0  0  0  0  0  0  0  0  0  0  0
   41.4538  -10.5617   -9.0132 C   0  0  0  0  0  0  0  0  0  0  0  0
   38.4868  -10.9834  -10.7152 C   0  0  0  0  0  0  0  0  0  0  0  0
   37.5159  -10.2744  -11.3975 C   0  0  0  0  0  0  0  0  0  0  0  0
   44.1068   -8.0173   -9.9646 C   0  0  2  0  0  0  0  0  0  0  0  0
   42.9580   -7.4404  -10.7546 O   0  0  0  0  0  0  0  0  0  0  0  0
   43.3084   -7.4170  -12.0900 C   0  0  2  0  0  0  0  0  0  0  0  0
   41.7236   -8.2633  -10.4910 N   0  0  0  0  0  0  0  0  0  0  0  0
   41.7982   -9.5720  -11.0655 C   0  0  0  0  0  0  0  0  0  0  0  0
   40.5170   -7.6045  -11.0350 O   0  0  0  0  0  0  0  0  0  0  0  0
   39.8544   -8.0580  -12.0184 O   0  0  0  0  0  0  0  0  0  0  0  0
  2  1  1  0
  2  3  2  0
  4  2  1  0
  5  4  1  0
  6  7  1  0
  6  5  1  0
  8 10  1  0
  8  7  1  0
  8  9  1  6
 10 11  2  0
 13 23  2  0
 13 12  1  0
 14 13  1  0
 15 16  1  0
 15 14  2  0
 16 22  2  0
 17 16  1  0
 18 17  1  6
 19 18  1  0
 19 10  1  0
 20 28  1  0
 20 18  1  0
 21 20  2  0
 22 23  1  0
 25 24  1  1
 26 25  1  0
 27 29  1  0
 27 25  1  0
 27 28  1  1
 29 31  1  0
 30 29  2  0
M  END
$$$$
