RYT.pdb
     RDKit          3D

 31 31  0  0  1  0  0  0  0  0999 V2000
   24.6738  -20.5984  -19.5220 N   0  0  0  0  0  0  0  0  0  0  0  0
   25.1262  -19.4074  -20.1401 C   0  0  0  0  0  0  0  0  0  0  0  0
   24.3954  -18.6962  -20.9081 N   0  0  0  0  0  0  0  0  0  0  0  0
   26.4624  -18.9837  -19.8917 N   0  0  0  0  0  0  0  0  0  0  0  0
   27.2898  -19.7222  -18.9164 C   0  0  0  0  0  0  0  0  0  0  0  0
   27.2373  -18.9567  -17.6483 C   0  0  0  0  0  0  0  0  0  0  0  0
   26.4342  -19.6106  -16.5993 C   0  0  0  0  0  0  0  0  0  0  0  0
   27.2295  -20.5276  -15.7359 C   0  0  2  0  0  0  0  0  0  0  0  0
   27.8208  -21.6522  -16.4005 N   0  0  0  0  0  0  0  0  0  0  0  0
   26.3913  -20.9913  -14.6112 C   0  0  0  0  0  0  0  0  0  0  0  0
   25.7982  -22.0826  -14.7183 O   0  0  0  0  0  0  0  0  0  0  0  0
   24.7551  -17.8078  -21.3441 O   0  0  0  0  0  0  0  0  0  0  0  0
   31.3631  -21.8548  -10.3156 C   0  0  0  0  0  0  0  0  0  0  0  0
   30.0581  -21.4226  -10.4921 C   0  0  0  0  0  0  0  0  0  0  0  0
   29.7158  -20.4785  -11.4297 C   0  0  0  0  0  0  0  0  0  0  0  0
   28.4005  -20.0788  -11.5682 C   0  0  0  0  0  0  0  0  0  0  0  0
   27.3896  -20.5955  -10.7905 C   0  0  0  0  0  0  0  0  0  0  0  0
   26.0026  -20.1133  -10.9992 C   0  0  2  0  0  0  0  0  0  0  0  0
   25.4575  -20.6112  -12.3304 N   0  0  0  0  0  0  0  0  0  0  0  0
   26.2738  -20.2084  -13.4487 C   0  0  0  0  0  0  0  0  0  0  0  0
   24.0280  -20.2562  -12.5005 O   0  0  0  0  0  0  0  0  0  0  0  0
   23.7643  -19.1750  -13.0797 C   0  0  0  0  0  0  0  0  0  0  0  0
   27.7493  -21.5391   -9.8578 C   0  0  0  0  0  0  0  0  0  0  0  0
   29.0562  -21.9595   -9.6955 C   0  0  0  0  0  0  0  0  0  0  0  0
   19.7872  -21.4383  -13.9873 C   0  0  2  0  0  0  0  0  0  0  0  0
   21.2340  -21.7019  -13.6502 O   0  0  0  0  0  0  0  0  0  0  0  0
   21.9982  -21.4755  -14.7776 C   0  0  1  0  0  0  0  0  0  0  0  0
   21.6320  -20.8247  -12.4914 N   0  0  0  0  0  0  0  0  0  0  0  0
   22.9683  -21.0731  -12.0433 C   0  0  0  0  0  0  0  0  0  0  0  0
   20.7294  -21.0234  -11.3374 O   0  0  0  0  0  0  0  0  0  0  0  0
   21.1052  -21.5211  -10.2316 O   0  0  0  0  0  0  0  0  0  0  0  0
  2  1  1  0
  2  3  2  0
  4  2  1  0
  5  4  1  0
  6  7  1  0
  6  5  1  0
  8 10  1  0
  8  7  1  0
  8  9  1  6
 10 11  2  0
 13 23  2  0
 13 12  1  0
 14 13  1  0
 15 16  1  0
 15 14  2  0
 16 22  2  0
 17 16  1  0
 18 17  1  1
 19 18  1  0
 19 10  1  0
 20 28  1  0
 20 18  1  0
 21 20  2  0
 22 23  1  0
 25 24  1  6
 26 25  1  0
 27 29  1  0
 27 25  1  0
 27 28  1  1
 29 31  1  0
 30 29  2  0
M  END
$$$$
