RYT.pdb
     RDKit          3D

 31 31  0  0  1  0  0  0  0  0999 V2000
   28.6083  -18.6179  -21.6535 N   0  0  0  0  0  0  0  0  0  0  0  0
   27.4184  -18.8767  -20.9305 C   0  0  0  0  0  0  0  0  0  0  0  0
   26.2847  -18.3840  -21.2491 N   0  0  0  0  0  0  0  0  0  0  0  0
   27.4921  -19.7287  -19.7923 N   0  0  0  0  0  0  0  0  0  0  0  0
   28.5727  -20.7315  -19.7037 C   0  0  0  0  0  0  0  0  0  0  0  0
   27.9320  -22.0152  -19.3316 C   0  0  0  0  0  0  0  0  0  0  0  0
   27.1142  -21.9316  -18.1081 C   0  0  0  0  0  0  0  0  0  0  0  0
   27.8432  -22.3639  -16.8831 C   0  0  2  0  0  0  0  0  0  0  0  0
   28.4311  -23.6705  -16.9367 N   0  0  0  0  0  0  0  0  0  0  0  0
   26.9422  -22.2649  -15.7164 C   0  0  0  0  0  0  0  0  0  0  0  0
   25.9013  -22.9510  -15.7055 O   0  0  0  0  0  0  0  0  0  0  0  0
   25.4041  -18.6505  -20.7370 O   0  0  0  0  0  0  0  0  0  0  0  0
   23.6226  -20.2065   -7.8561 C   0  0  0  0  0  0  0  0  0  0  0  0
   24.4692  -20.2923   -8.9500 C   0  0  0  0  0  0  0  0  0  0  0  0
   25.4409  -21.2578   -9.0550 C   0  0  0  0  0  0  0  0  0  0  0  0
   26.2619  -21.3026  -10.1653 C   0  0  0  0  0  0  0  0  0  0  0  0
   26.1494  -20.4015  -11.1992 C   0  0  0  0  0  0  0  0  0  0  0  0
   27.0700  -20.5152  -12.3566 C   0  0  2  0  0  0  0  0  0  0  0  0
   26.3919  -21.2399  -13.5107 N   0  0  0  0  0  0  0  0  0  0  0  0
   27.2640  -21.4110  -14.6463 C   0  0  0  0  0  0  0  0  0  0  0  0
   25.0981  -20.6084  -13.8653 O   0  0  0  0  0  0  0  0  0  0  0  0
   25.1340  -19.5629  -14.5578 C   0  0  0  0  0  0  0  0  0  0  0  0
   25.1721  -19.4424  -11.0784 C   0  0  0  0  0  0  0  0  0  0  0  0
   24.3354  -19.3718   -9.9803 C   0  0  0  0  0  0  0  0  0  0  0  0
   20.5813  -20.5391  -15.1807 C   0  0  2  0  0  0  0  0  0  0  0  0
   21.9606  -21.1287  -15.0184 O   0  0  0  0  0  0  0  0  0  0  0  0
   22.6531  -20.9637  -16.2014 C   0  0  1  0  0  0  0  0  0  0  0  0
   22.6398  -20.4645  -13.8487 N   0  0  0  0  0  0  0  0  0  0  0  0
   23.8470  -21.1281  -13.4605 C   0  0  0  0  0  0  0  0  0  0  0  0
   21.7514  -20.4258  -12.6676 O   0  0  0  0  0  0  0  0  0  0  0  0
   21.8824  -21.1960  -11.6669 O   0  0  0  0  0  0  0  0  0  0  0  0
  2  1  1  0
  2  3  2  0
  4  2  1  0
  5  4  1  0
  6  7  1  0
  6  5  1  0
  8 10  1  0
  8  7  1  0
  8  9  1  6
 10 11  2  0
 13 23  2  0
 13 12  1  0
 14 13  1  0
 15 16  1  0
 15 14  2  0
 16 22  2  0
 17 16  1  0
 18 17  1  1
 19 18  1  0
 19 10  1  0
 20 28  1  0
 20 18  1  0
 21 20  2  0
 22 23  1  0
 25 24  1  6
 26 25  1  0
 27 29  1  0
 27 25  1  0
 27 28  1  1
 29 31  1  0
 30 29  2  0
M  END
$$$$
