RYT.pdb
     RDKit          3D

 31 31  0  0  1  0  0  0  0  0999 V2000
   30.5334  -22.4708  -21.2196 N   0  0  0  0  0  0  0  0  0  0  0  0
   31.1384  -21.6124  -20.2696 C   0  0  0  0  0  0  0  0  0  0  0  0
   32.2878  -21.0827  -20.4368 N   0  0  0  0  0  0  0  0  0  0  0  0
   30.4282  -21.3270  -19.0692 N   0  0  0  0  0  0  0  0  0  0  0  0
   29.1339  -20.6192  -19.1410 C   0  0  0  0  0  0  0  0  0  0  0  0
   28.0987  -21.6502  -19.3902 C   0  0  0  0  0  0  0  0  0  0  0  0
   27.0728  -21.7210  -18.3341 C   0  0  0  0  0  0  0  0  0  0  0  0
   27.4494  -22.6202  -17.2078 C   0  0  2  0  0  0  0  0  0  0  0  0
   27.5265  -24.0164  -17.5247 N   0  0  0  0  0  0  0  0  0  0  0  0
   26.5173  -22.4105  -16.0809 C   0  0  0  0  0  0  0  0  0  0  0  0
   25.5237  -23.1568  -15.9807 O   0  0  0  0  0  0  0  0  0  0  0  0
   32.7616  -20.5397  -19.6692 O   0  0  0  0  0  0  0  0  0  0  0  0
   23.7177  -20.4545   -8.0268 C   0  0  0  0  0  0  0  0  0  0  0  0
   24.4391  -20.4443   -9.2102 C   0  0  0  0  0  0  0  0  0  0  0  0
   25.6936  -20.9948   -9.3124 C   0  0  0  0  0  0  0  0  0  0  0  0
   26.3744  -20.9596  -10.5142 C   0  0  0  0  0  0  0  0  0  0  0  0
   25.8408  -20.3838  -11.6444 C   0  0  0  0  0  0  0  0  0  0  0  0
   26.6357  -20.3848  -12.8967 C   0  0  2  0  0  0  0  0  0  0  0  0
   25.9443  -21.2152  -13.9687 N   0  0  0  0  0  0  0  0  0  0  0  0
   26.7578  -21.3870  -15.1469 C   0  0  0  0  0  0  0  0  0  0  0  0
   24.5899  -20.6938  -14.2723 O   0  0  0  0  0  0  0  0  0  0  0  0
   24.5130  -19.5932  -14.8695 C   0  0  0  0  0  0  0  0  0  0  0  0
   24.5849  -19.8380  -11.5248 C   0  0  0  0  0  0  0  0  0  0  0  0
   23.8788  -19.8576  -10.3366 C   0  0  0  0  0  0  0  0  0  0  0  0
   22.3917  -21.1006  -16.6801 C   0  0  2  0  0  0  0  0  0  0  0  0
   21.5259  -21.4341  -15.4903 O   0  0  0  0  0  0  0  0  0  0  0  0
   21.4161  -22.8072  -15.3954 C   0  0  2  0  0  0  0  0  0  0  0  0
   22.1302  -20.8118  -14.2582 N   0  0  0  0  0  0  0  0  0  0  0  0
   23.4018  -21.3753  -13.9211 C   0  0  0  0  0  0  0  0  0  0  0  0
   21.2432  -20.9775  -13.0871 O   0  0  0  0  0  0  0  0  0  0  0  0
   20.0956  -20.4423  -12.9962 O   0  0  0  0  0  0  0  0  0  0  0  0
  2  1  1  0
  2  3  2  0
  4  2  1  0
  5  4  1  0
  6  7  1  0
  6  5  1  0
  8 10  1  0
  8  7  1  0
  8  9  1  6
 10 11  2  0
 13 23  2  0
 13 12  1  0
 14 13  1  0
 15 16  1  0
 15 14  2  0
 16 22  2  0
 17 16  1  0
 18 17  1  1
 19 18  1  0
 19 10  1  0
 20 28  1  0
 20 18  1  0
 21 20  2  0
 22 23  1  0
 25 24  1  6
 26 25  1  0
 27 29  1  0
 27 25  1  0
 27 28  1  1
 29 31  1  0
 30 29  2  0
M  END
$$$$
