LID.pdb
     RDKit          3D

 25 24  0  0  1  0  0  0  0  0999 V2000
    5.5848  -11.5987   27.1517 C   0  0  0  0  0  0  0  0  0  0  0  0
    6.6578  -12.6839   27.0007 C   0  0  2  0  0  0  0  0  0  0  0  0
    7.8236  -12.0805   26.2571 C   0  0  0  0  0  0  0  0  0  0  0  0
    6.0398  -13.7601   26.1666 C   0  0  0  0  0  0  0  0  0  0  0  0
    6.8271  -15.0211   26.2137 C   0  0  2  0  0  0  0  0  0  0  0  0
    8.1462  -14.8881   26.7872 N   0  0  0  0  0  0  0  0  0  0  0  0
    7.0051  -15.5196   24.8228 C   0  0  0  0  0  0  0  0  0  0  0  0
    6.0348  -16.1324   24.2755 O   0  0  0  0  0  0  0  0  0  0  0  0
    8.6264  -12.5499   20.8204 C   0  0  0  0  0  0  0  0  0  0  0  0
    8.8290  -13.6041   21.8509 C   0  0  0  0  0  0  0  0  0  0  0  0
    8.0645  -14.8548   21.7106 C   0  0  2  0  0  0  0  0  0  0  0  0
    6.6419  -14.6555   21.2192 C   0  0  0  0  0  0  0  0  0  0  0  0
    8.2737  -15.9254   22.6934 C   0  0  2  0  0  0  0  0  0  0  0  0
    8.1831  -15.3572   24.0690 N   0  0  0  0  0  0  0  0  0  0  0  0
    9.4667  -16.7756   22.6233 C   0  0  0  0  0  0  0  0  0  0  0  0
    9.3346  -18.0656   22.5795 O   0  0  0  0  0  0  0  0  0  0  0  0
   10.8262  -16.3774   22.5836 N   0  0  0  0  0  0  0  0  0  0  0  0
   11.8793  -17.2443   22.1045 C   0  0  1  0  0  0  0  0  0  0  0  0
   11.7684  -17.4908   20.6111 C   0  0  0  0  0  0  0  0  0  0  0  0
   12.8479  -18.3303   20.0792 C   0  0  0  0  0  0  0  0  0  0  0  0
   13.1870  -19.4263   20.5837 O   0  0  0  0  0  0  0  0  0  0  0  0
   13.2013  -16.6313   22.3226 C   0  0  0  0  0  0  0  0  0  0  0  0
   13.3346  -15.3703   22.9184 O   0  0  0  0  0  0  0  0  0  0  0  0
   13.5300  -17.8887   18.9589 O   0  0  0  0  0  0  0  0  0  0  0  0
   14.2892  -17.1703   22.0028 O   0  0  0  0  0  0  0  0  0  0  0  0
  2  1  1  6
  2  3  1  0
  4  2  1  0
  4  5  1  0
  5  7  1  0
  5  6  1  6
  7  8  2  0
  9 10  1  0
 10 11  1  0
 11 12  1  1
 13 11  1  0
 14  7  1  0
 13 14  1  1
 15 13  1  0
 15 16  2  0
 17 15  1  0
 18 17  1  0
 18 19  1  6
 20 19  1  0
 20 24  1  0
 21 20  2  0
 22 18  1  0
 22 23  1  0
 25 22  2  0
M  END
$$$$
