LID.pdb
     RDKit          3D

 25 24  0  0  1  0  0  0  0  0999 V2000
    8.1962  -14.4821   18.4937 C   0  0  0  0  0  0  0  0  0  0  0  0
    7.3447  -13.5390   19.3526 C   0  0  2  0  0  0  0  0  0  0  0  0
    7.3586  -12.1797   18.6984 C   0  0  0  0  0  0  0  0  0  0  0  0
    8.0303  -13.4592   20.6790 C   0  0  0  0  0  0  0  0  0  0  0  0
    8.0289  -14.7681   21.3852 C   0  0  2  0  0  0  0  0  0  0  0  0
    6.7227  -15.3613   21.5546 N   0  0  0  0  0  0  0  0  0  0  0  0
    8.5978  -14.5716   22.7464 C   0  0  0  0  0  0  0  0  0  0  0  0
    9.7742  -14.0993   22.8433 O   0  0  0  0  0  0  0  0  0  0  0  0
    5.9660  -12.0498   26.4311 C   0  0  0  0  0  0  0  0  0  0  0  0
    7.0454  -12.6703   25.6163 C   0  0  0  0  0  0  0  0  0  0  0  0
    7.6750  -13.8967   26.1337 C   0  0  2  0  0  0  0  0  0  0  0  0
    8.0623  -13.8193   27.5996 C   0  0  0  0  0  0  0  0  0  0  0  0
    8.5790  -14.6515   25.2567 C   0  0  2  0  0  0  0  0  0  0  0  0
    7.9161  -14.8758   23.9401 N   0  0  0  0  0  0  0  0  0  0  0  0
    9.1585  -15.9224   25.7039 C   0  0  0  0  0  0  0  0  0  0  0  0
    8.4020  -16.9712   25.8104 O   0  0  0  0  0  0  0  0  0  0  0  0
   10.5047  -16.1989   26.0494 N   0  0  0  0  0  0  0  0  0  0  0  0
   10.9445  -17.5031   26.4917 C   0  0  1  0  0  0  0  0  0  0  0  0
   12.4207  -17.7220   26.2151 C   0  0  0  0  0  0  0  0  0  0  0  0
   12.7871  -17.5044   24.8111 C   0  0  0  0  0  0  0  0  0  0  0  0
   13.8775  -17.0046   24.4481 O   0  0  0  0  0  0  0  0  0  0  0  0
   10.7738  -17.6467   27.9481 C   0  0  0  0  0  0  0  0  0  0  0  0
   10.5036  -16.5420   28.7663 O   0  0  0  0  0  0  0  0  0  0  0  0
   11.8793  -17.8708   23.8327 O   0  0  0  0  0  0  0  0  0  0  0  0
   10.8535  -18.7387   28.5625 O   0  0  0  0  0  0  0  0  0  0  0  0
  2  1  1  6
  2  3  1  0
  4  2  1  0
  4  5  1  0
  5  7  1  0
  5  6  1  1
  7  8  2  0
  9 10  1  0
 10 11  1  0
 11 12  1  1
 13 11  1  0
 14  7  1  0
 13 14  1  6
 15 13  1  0
 15 16  2  0
 17 15  1  0
 18 17  1  0
 18 19  1  1
 20 19  1  0
 20 24  1  0
 21 20  2  0
 22 18  1  0
 22 23  1  0
 25 22  2  0
M  END
$$$$
