LID.pdb
     RDKit          3D

 25 24  0  0  1  0  0  0  0  0999 V2000
    5.4400  -17.1597   19.7446 C   0  0  0  0  0  0  0  0  0  0  0  0
    6.8316  -17.7657   19.9646 C   0  0  2  0  0  0  0  0  0  0  0  0
    6.6621  -19.2515   20.1638 C   0  0  0  0  0  0  0  0  0  0  0  0
    7.3530  -17.1518   21.2244 C   0  0  0  0  0  0  0  0  0  0  0  0
    7.4265  -15.6692   21.1314 C   0  0  2  0  0  0  0  0  0  0  0  0
    8.1900  -15.1718   20.0104 N   0  0  0  0  0  0  0  0  0  0  0  0
    8.0761  -15.1497   22.3655 C   0  0  0  0  0  0  0  0  0  0  0  0
    9.3463  -15.1214   22.4094 O   0  0  0  0  0  0  0  0  0  0  0  0
    7.0662  -11.5658   27.3129 C   0  0  0  0  0  0  0  0  0  0  0  0
    7.8928  -12.5856   26.6122 C   0  0  0  0  0  0  0  0  0  0  0  0
    7.3167  -13.2341   25.4223 C   0  0  2  0  0  0  0  0  0  0  0  0
    5.8283  -13.5129   25.5323 C   0  0  0  0  0  0  0  0  0  0  0  0
    8.1183  -14.2322   24.7032 C   0  0  2  0  0  0  0  0  0  0  0  0
    7.3733  -14.6852   23.4937 N   0  0  0  0  0  0  0  0  0  0  0  0
    8.6298  -15.4167   25.4005 C   0  0  0  0  0  0  0  0  0  0  0  0
    8.0407  -16.5616   25.2391 O   0  0  0  0  0  0  0  0  0  0  0  0
    9.7448  -15.5090   26.2703 N   0  0  0  0  0  0  0  0  0  0  0  0
   10.3971  -16.7634   26.5720 C   0  0  1  0  0  0  0  0  0  0  0  0
   11.7412  -16.8793   25.8769 C   0  0  0  0  0  0  0  0  0  0  0  0
   11.7373  -17.8307   24.7599 C   0  0  0  0  0  0  0  0  0  0  0  0
   10.7268  -18.4829   24.4077 O   0  0  0  0  0  0  0  0  0  0  0  0
   10.6700  -16.8773   28.0155 C   0  0  0  0  0  0  0  0  0  0  0  0
   10.6763  -18.1192   28.6639 O   0  0  0  0  0  0  0  0  0  0  0  0
   12.9138  -18.0192   24.0557 O   0  0  0  0  0  0  0  0  0  0  0  0
   10.9131  -15.9004   28.7657 O   0  0  0  0  0  0  0  0  0  0  0  0
  2  1  1  1
  2  3  1  0
  4  2  1  0
  4  5  1  0
  5  7  1  0
  5  6  1  6
  7  8  2  0
  9 10  1  0
 10 11  1  0
 11 12  1  1
 13 11  1  0
 14  7  1  0
 13 14  1  6
 15 13  1  0
 15 16  2  0
 17 15  1  0
 18 17  1  0
 18 19  1  6
 20 19  1  0
 20 24  1  0
 21 20  2  0
 22 18  1  0
 22 23  1  0
 25 22  2  0
M  END
$$$$
