LID.pdb
     RDKit          3D

 25 24  0  0  1  0  0  0  0  0999 V2000
    8.2163  -14.4753   18.4988 C   0  0  0  0  0  0  0  0  0  0  0  0
    7.3100  -13.4968   19.2558 C   0  0  2  0  0  0  0  0  0  0  0  0
    7.4334  -12.1467   18.5940 C   0  0  0  0  0  0  0  0  0  0  0  0
    7.8566  -13.4209   20.6455 C   0  0  0  0  0  0  0  0  0  0  0  0
    7.8608  -14.7491   21.3146 C   0  0  2  0  0  0  0  0  0  0  0  0
    6.5546  -15.3403   21.4910 N   0  0  0  0  0  0  0  0  0  0  0  0
    8.4552  -14.5938   22.6702 C   0  0  0  0  0  0  0  0  0  0  0  0
    9.6678  -14.2213   22.7552 O   0  0  0  0  0  0  0  0  0  0  0  0
    5.9660  -11.8521   26.3265 C   0  0  0  0  0  0  0  0  0  0  0  0
    7.0388  -12.5226   25.5431 C   0  0  0  0  0  0  0  0  0  0  0  0
    7.5531  -13.8073   26.0462 C   0  0  2  0  0  0  0  0  0  0  0  0
    7.8855  -13.8003   27.5276 C   0  0  0  0  0  0  0  0  0  0  0  0
    8.4327  -14.6041   25.1817 C   0  0  2  0  0  0  0  0  0  0  0  0
    7.7602  -14.8336   23.8709 N   0  0  0  0  0  0  0  0  0  0  0  0
    8.9763  -15.8827   25.6513 C   0  0  0  0  0  0  0  0  0  0  0  0
    8.1842  -16.8981   25.8103 O   0  0  0  0  0  0  0  0  0  0  0  0
   10.3204  -16.2006   25.9684 N   0  0  0  0  0  0  0  0  0  0  0  0
   10.7334  -17.5244   26.3772 C   0  0  1  0  0  0  0  0  0  0  0  0
   12.1068  -17.8767   25.8361 C   0  0  0  0  0  0  0  0  0  0  0  0
   12.6036  -19.1728   26.3119 C   0  0  0  0  0  0  0  0  0  0  0  0
   12.1727  -20.2748   25.8992 O   0  0  0  0  0  0  0  0  0  0  0  0
   10.8355  -17.6107   27.8446 C   0  0  0  0  0  0  0  0  0  0  0  0
   10.7958  -18.8428   28.5103 O   0  0  0  0  0  0  0  0  0  0  0  0
   13.6032  -19.1799   27.2692 O   0  0  0  0  0  0  0  0  0  0  0  0
   10.9630  -16.6172   28.6016 O   0  0  0  0  0  0  0  0  0  0  0  0
  2  1  1  6
  2  3  1  0
  4  2  1  0
  4  5  1  0
  5  7  1  0
  5  6  1  1
  7  8  2  0
  9 10  1  0
 10 11  1  0
 11 12  1  1
 13 11  1  0
 14  7  1  0
 13 14  1  6
 15 13  1  0
 15 16  2  0
 17 15  1  0
 18 17  1  0
 18 19  1  6
 20 19  1  0
 20 24  1  0
 21 20  2  0
 22 18  1  0
 22 23  1  0
 25 22  2  0
M  END
$$$$
