LID.pdb
     RDKit          3D

 25 24  0  0  1  0  0  0  0  0999 V2000
    7.2815  -12.3093   19.8639 C   0  0  0  0  0  0  0  0  0  0  0  0
    8.0391  -13.6293   19.6748 C   0  0  2  0  0  0  0  0  0  0  0  0
    8.1300  -13.9015   18.1937 C   0  0  0  0  0  0  0  0  0  0  0  0
    7.1985  -14.6825   20.3228 C   0  0  0  0  0  0  0  0  0  0  0  0
    7.9827  -15.5100   21.2780 C   0  0  2  0  0  0  0  0  0  0  0  0
    7.2812  -16.6615   21.7962 N   0  0  0  0  0  0  0  0  0  0  0  0
    8.3516  -14.6632   22.4449 C   0  0  0  0  0  0  0  0  0  0  0  0
    9.2379  -13.7666   22.2802 O   0  0  0  0  0  0  0  0  0  0  0  0
    6.2946  -11.3391   26.8289 C   0  0  0  0  0  0  0  0  0  0  0  0
    7.2713  -12.4506   26.6712 C   0  0  0  0  0  0  0  0  0  0  0  0
    7.0628  -13.3927   25.5589 C   0  0  2  0  0  0  0  0  0  0  0  0
    5.9273  -14.3743   25.7874 C   0  0  0  0  0  0  0  0  0  0  0  0
    8.2343  -13.9036   24.8361 C   0  0  2  0  0  0  0  0  0  0  0  0
    7.7814  -14.7900   23.7260 N   0  0  0  0  0  0  0  0  0  0  0  0
    9.3144  -14.5839   25.5583 C   0  0  0  0  0  0  0  0  0  0  0  0
    9.4857  -14.3536   26.8237 O   0  0  0  0  0  0  0  0  0  0  0  0
   10.2517  -15.5202   25.0553 N   0  0  0  0  0  0  0  0  0  0  0  0
   10.7829  -16.5998   25.8568 C   0  0  1  0  0  0  0  0  0  0  0  0
    9.6835  -17.5098   26.3732 C   0  0  0  0  0  0  0  0  0  0  0  0
   10.1847  -18.6191   27.1924 C   0  0  0  0  0  0  0  0  0  0  0  0
   10.4588  -19.7523   26.7327 O   0  0  0  0  0  0  0  0  0  0  0  0
   11.6802  -17.4524   25.0574 C   0  0  0  0  0  0  0  0  0  0  0  0
   12.6777  -18.2314   25.6582 O   0  0  0  0  0  0  0  0  0  0  0  0
   10.3653  -18.4034   28.5476 O   0  0  0  0  0  0  0  0  0  0  0  0
   11.6293  -17.5510   23.8069 O   0  0  0  0  0  0  0  0  0  0  0  0
  2  1  1  6
  2  3  1  0
  4  2  1  0
  4  5  1  0
  5  7  1  0
  5  6  1  1
  7  8  2  0
  9 10  1  0
 10 11  1  0
 11 12  1  1
 13 11  1  0
 14  7  1  0
 13 14  1  6
 15 13  1  0
 15 16  2  0
 17 15  1  0
 18 17  1  0
 18 19  1  6
 20 19  1  0
 20 24  1  0
 21 20  2  0
 22 18  1  0
 22 23  1  0
 25 22  2  0
M  END
$$$$
