LID.pdb
     RDKit          3D

 25 24  0  0  1  0  0  0  0  0999 V2000
    3.7372  -20.2838   24.0358 C   0  0  0  0  0  0  0  0  0  0  0  0
    5.0829  -20.3065   23.3007 C   0  0  2  0  0  0  0  0  0  0  0  0
    5.7800  -21.5972   23.6531 C   0  0  0  0  0  0  0  0  0  0  0  0
    5.8670  -19.1544   23.8423 C   0  0  0  0  0  0  0  0  0  0  0  0
    5.4174  -17.8576   23.2694 C   0  0  2  0  0  0  0  0  0  0  0  0
    5.2428  -17.8593   21.8354 N   0  0  0  0  0  0  0  0  0  0  0  0
    6.4400  -16.8225   23.5823 C   0  0  0  0  0  0  0  0  0  0  0  0
    7.3047  -16.5442   22.6928 O   0  0  0  0  0  0  0  0  0  0  0  0
    5.3849  -12.4134   26.4209 C   0  0  0  0  0  0  0  0  0  0  0  0
    6.1328  -13.2259   25.4237 C   0  0  0  0  0  0  0  0  0  0  0  0
    7.2064  -14.1023   25.9212 C   0  0  2  0  0  0  0  0  0  0  0  0
    8.2764  -13.3755   26.7162 C   0  0  0  0  0  0  0  0  0  0  0  0
    7.6604  -15.2138   25.0760 C   0  0  2  0  0  0  0  0  0  0  0  0
    6.5139  -16.1276   24.8046 N   0  0  0  0  0  0  0  0  0  0  0  0
    8.8141  -16.0270   25.4745 C   0  0  0  0  0  0  0  0  0  0  0  0
    8.6558  -16.9930   26.3261 O   0  0  0  0  0  0  0  0  0  0  0  0
   10.1573  -15.9177   25.0361 N   0  0  0  0  0  0  0  0  0  0  0  0
   11.1450  -16.9436   25.2849 C   0  0  1  0  0  0  0  0  0  0  0  0
   12.3804  -16.7549   24.4237 C   0  0  0  0  0  0  0  0  0  0  0  0
   13.4176  -17.7638   24.6669 C   0  0  0  0  0  0  0  0  0  0  0  0
   13.3122  -18.6752   25.5206 O   0  0  0  0  0  0  0  0  0  0  0  0
   11.6078  -16.8963   26.6830 C   0  0  0  0  0  0  0  0  0  0  0  0
   12.1611  -18.0205   27.3097 O   0  0  0  0  0  0  0  0  0  0  0  0
   14.5767  -17.7068   23.9128 O   0  0  0  0  0  0  0  0  0  0  0  0
   11.5477  -15.8750   27.4108 O   0  0  0  0  0  0  0  0  0  0  0  0
  2  1  1  1
  2  3  1  0
  4  2  1  0
  4  5  1  0
  5  7  1  0
  5  6  1  6
  7  8  2  0
  9 10  1  0
 10 11  1  0
 11 12  1  6
 13 11  1  0
 14  7  1  0
 13 14  1  1
 15 13  1  0
 15 16  2  0
 17 15  1  0
 18 17  1  0
 18 19  1  6
 20 19  1  0
 20 24  1  0
 21 20  2  0
 22 18  1  0
 22 23  1  0
 25 22  2  0
M  END
$$$$
