LID.pdb
     RDKit          3D

 25 24  0  0  1  0  0  0  0  0999 V2000
    8.8596  -14.2177   18.4444 C   0  0  0  0  0  0  0  0  0  0  0  0
    7.4523  -13.7849   18.8735 C   0  0  2  0  0  0  0  0  0  0  0  0
    7.1810  -12.4299   18.2680 C   0  0  0  0  0  0  0  0  0  0  0  0
    7.4954  -13.6638   20.3632 C   0  0  0  0  0  0  0  0  0  0  0  0
    7.8172  -14.9602   21.0173 C   0  0  2  0  0  0  0  0  0  0  0  0
    6.6792  -15.8204   21.2446 N   0  0  0  0  0  0  0  0  0  0  0  0
    8.4246  -14.6810   22.3470 C   0  0  0  0  0  0  0  0  0  0  0  0
    9.5096  -14.0194   22.3847 O   0  0  0  0  0  0  0  0  0  0  0  0
    7.0017  -12.3329   27.5646 C   0  0  0  0  0  0  0  0  0  0  0  0
    7.9780  -13.2008   26.8519 C   0  0  0  0  0  0  0  0  0  0  0  0
    7.5325  -13.8576   25.6116 C   0  0  2  0  0  0  0  0  0  0  0  0
    6.1055  -14.3731   25.6658 C   0  0  0  0  0  0  0  0  0  0  0  0
    8.4944  -14.6713   24.8576 C   0  0  2  0  0  0  0  0  0  0  0  0
    7.8746  -15.1035   23.5723 N   0  0  0  0  0  0  0  0  0  0  0  0
    9.1285  -15.8384   25.4794 C   0  0  0  0  0  0  0  0  0  0  0  0
    8.5690  -17.0046   25.3765 O   0  0  0  0  0  0  0  0  0  0  0  0
   10.3399  -15.8914   26.2128 N   0  0  0  0  0  0  0  0  0  0  0  0
   11.0846  -17.1161   26.4017 C   0  0  1  0  0  0  0  0  0  0  0  0
   10.1784  -18.2711   26.7868 C   0  0  0  0  0  0  0  0  0  0  0  0
    9.8019  -18.2661   28.2049 C   0  0  0  0  0  0  0  0  0  0  0  0
   10.4245  -17.6281   29.0857 O   0  0  0  0  0  0  0  0  0  0  0  0
   11.7550  -17.5187   25.1529 C   0  0  0  0  0  0  0  0  0  0  0  0
   12.6817  -18.5690   25.1250 O   0  0  0  0  0  0  0  0  0  0  0  0
    8.6985  -19.0064   28.5924 O   0  0  0  0  0  0  0  0  0  0  0  0
   11.5592  -16.9713   24.0401 O   0  0  0  0  0  0  0  0  0  0  0  0
  2  1  1  6
  2  3  1  0
  4  2  1  0
  4  5  1  0
  5  7  1  0
  5  6  1  1
  7  8  2  0
  9 10  1  0
 10 11  1  0
 11 12  1  1
 13 11  1  0
 14  7  1  0
 13 14  1  6
 15 13  1  0
 15 16  2  0
 17 15  1  0
 18 17  1  0
 18 19  1  6
 20 19  1  0
 20 24  1  0
 21 20  2  0
 22 18  1  0
 22 23  1  0
 25 22  2  0
M  END
$$$$
