LID.pdb
     RDKit          3D

 25 24  0  0  1  0  0  0  0  0999 V2000
    7.1439  -12.6075   19.4104 C   0  0  0  0  0  0  0  0  0  0  0  0
    8.1188  -13.7793   19.2416 C   0  0  2  0  0  0  0  0  0  0  0  0
    7.3037  -15.0353   19.0567 C   0  0  0  0  0  0  0  0  0  0  0  0
    8.8826  -13.8669   20.5240 C   0  0  0  0  0  0  0  0  0  0  0  0
    8.3581  -14.9392   21.4113 C   0  0  2  0  0  0  0  0  0  0  0  0
    6.9172  -15.0220   21.4714 N   0  0  0  0  0  0  0  0  0  0  0  0
    8.8378  -14.6832   22.7967 C   0  0  0  0  0  0  0  0  0  0  0  0
   10.0489  -14.3314   22.9576 O   0  0  0  0  0  0  0  0  0  0  0  0
    6.0516  -11.7440   26.1004 C   0  0  0  0  0  0  0  0  0  0  0  0
    7.1254  -12.4869   25.3867 C   0  0  0  0  0  0  0  0  0  0  0  0
    7.6964  -13.6707   26.0506 C   0  0  2  0  0  0  0  0  0  0  0  0
    8.0244  -13.4565   27.5174 C   0  0  0  0  0  0  0  0  0  0  0  0
    8.6136  -14.5321   25.2937 C   0  0  2  0  0  0  0  0  0  0  0  0
    8.0352  -14.8059   23.9470 N   0  0  0  0  0  0  0  0  0  0  0  0
    9.0801  -15.8011   25.8620 C   0  0  0  0  0  0  0  0  0  0  0  0
    8.2304  -16.7560   26.0855 O   0  0  0  0  0  0  0  0  0  0  0  0
   10.4015  -16.1697   26.2172 N   0  0  0  0  0  0  0  0  0  0  0  0
   10.7183  -17.4375   26.8356 C   0  0  1  0  0  0  0  0  0  0  0  0
   12.1825  -17.7973   26.6615 C   0  0  0  0  0  0  0  0  0  0  0  0
   12.5586  -18.0410   25.2644 C   0  0  0  0  0  0  0  0  0  0  0  0
   13.7335  -18.2666   24.8915 O   0  0  0  0  0  0  0  0  0  0  0  0
   10.4780  -17.3856   28.2884 C   0  0  0  0  0  0  0  0  0  0  0  0
   10.4916  -18.5450   29.0748 O   0  0  0  0  0  0  0  0  0  0  0  0
   11.5618  -18.0208   24.3044 O   0  0  0  0  0  0  0  0  0  0  0  0
   10.2474  -16.3296   28.9270 O   0  0  0  0  0  0  0  0  0  0  0  0
  2  1  1  1
  2  3  1  0
  4  2  1  0
  4  5  1  0
  5  7  1  0
  5  6  1  1
  7  8  2  0
  9 10  1  0
 10 11  1  0
 11 12  1  1
 13 11  1  0
 14  7  1  0
 13 14  1  6
 15 13  1  0
 15 16  2  0
 17 15  1  0
 18 17  1  0
 18 19  1  1
 20 19  1  0
 20 24  1  0
 21 20  2  0
 22 18  1  0
 22 23  1  0
 25 22  2  0
M  END
$$$$
