LID.pdb
     RDKit          3D

 25 24  0  0  1  0  0  0  0  0999 V2000
    8.3778  -14.3465   18.6300 C   0  0  0  0  0  0  0  0  0  0  0  0
    7.4518  -13.3805   19.3792 C   0  0  2  0  0  0  0  0  0  0  0  0
    7.6505  -12.0038   18.7950 C   0  0  0  0  0  0  0  0  0  0  0  0
    7.9133  -13.3881   20.8014 C   0  0  0  0  0  0  0  0  0  0  0  0
    7.8762  -14.7532   21.3906 C   0  0  2  0  0  0  0  0  0  0  0  0
    6.5509  -15.3037   21.5554 N   0  0  0  0  0  0  0  0  0  0  0  0
    8.4977  -14.7020   22.7419 C   0  0  0  0  0  0  0  0  0  0  0  0
    9.7490  -14.4909   22.8200 O   0  0  0  0  0  0  0  0  0  0  0  0
    6.0241  -11.9554   26.4704 C   0  0  0  0  0  0  0  0  0  0  0  0
    7.0783  -12.6165   25.6544 C   0  0  0  0  0  0  0  0  0  0  0  0
    7.6253  -13.8922   26.1458 C   0  0  2  0  0  0  0  0  0  0  0  0
    8.0139  -13.8714   27.6133 C   0  0  0  0  0  0  0  0  0  0  0  0
    8.4797  -14.6856   25.2535 C   0  0  2  0  0  0  0  0  0  0  0  0
    7.7881  -14.8731   23.9459 N   0  0  0  0  0  0  0  0  0  0  0  0
    9.0045  -15.9844   25.6882 C   0  0  0  0  0  0  0  0  0  0  0  0
    8.2029  -16.9995   25.7905 O   0  0  0  0  0  0  0  0  0  0  0  0
   10.3387  -16.3228   26.0250 N   0  0  0  0  0  0  0  0  0  0  0  0
   10.7432  -17.6723   26.3491 C   0  0  1  0  0  0  0  0  0  0  0  0
   12.1219  -17.9927   25.8014 C   0  0  0  0  0  0  0  0  0  0  0  0
   12.6076  -19.3211   26.1916 C   0  0  0  0  0  0  0  0  0  0  0  0
   11.8829  -20.3430   26.2233 O   0  0  0  0  0  0  0  0  0  0  0  0
   10.8279  -17.8570   27.8085 C   0  0  0  0  0  0  0  0  0  0  0  0
   10.8730  -19.1336   28.3838 O   0  0  0  0  0  0  0  0  0  0  0  0
   13.9393  -19.4542   26.5443 O   0  0  0  0  0  0  0  0  0  0  0  0
   10.8657  -16.9143   28.6368 O   0  0  0  0  0  0  0  0  0  0  0  0
  2  1  1  6
  2  3  1  0
  4  2  1  0
  4  5  1  0
  5  7  1  0
  5  6  1  1
  7  8  2  0
  9 10  1  0
 10 11  1  0
 11 12  1  1
 13 11  1  0
 14  7  1  0
 13 14  1  6
 15 13  1  0
 15 16  2  0
 17 15  1  0
 18 17  1  0
 18 19  1  6
 20 19  1  0
 20 24  1  0
 21 20  2  0
 22 18  1  0
 22 23  1  0
 25 22  2  0
M  END
$$$$
