LID.pdb
     RDKit          3D

 25 24  0  0  1  0  0  0  0  0999 V2000
    7.5764  -12.6227   27.4753 C   0  0  0  0  0  0  0  0  0  0  0  0
    6.8406  -12.5492   26.1317 C   0  0  2  0  0  0  0  0  0  0  0  0
    5.6008  -11.7126   26.3293 C   0  0  0  0  0  0  0  0  0  0  0  0
    6.4453  -13.9530   25.8018 C   0  0  0  0  0  0  0  0  0  0  0  0
    7.6247  -14.8042   25.4912 C   0  0  2  0  0  0  0  0  0  0  0  0
    8.9009  -14.1424   25.6330 N   0  0  0  0  0  0  0  0  0  0  0  0
    7.5229  -15.2553   24.0766 C   0  0  0  0  0  0  0  0  0  0  0  0
    6.5327  -15.9818   23.7477 O   0  0  0  0  0  0  0  0  0  0  0  0
    8.9548  -12.0395   19.7744 C   0  0  0  0  0  0  0  0  0  0  0  0
    9.1152  -13.1666   20.7326 C   0  0  0  0  0  0  0  0  0  0  0  0
    8.0155  -14.1406   20.8344 C   0  0  2  0  0  0  0  0  0  0  0  0
    6.6348  -13.5100   20.8652 C   0  0  0  0  0  0  0  0  0  0  0  0
    8.2067  -15.3388   21.6613 C   0  0  2  0  0  0  0  0  0  0  0  0
    8.4553  -14.9295   23.0733 N   0  0  0  0  0  0  0  0  0  0  0  0
    9.2061  -16.3459   21.2901 C   0  0  0  0  0  0  0  0  0  0  0  0
    9.3262  -16.7049   20.0490 O   0  0  0  0  0  0  0  0  0  0  0  0
   10.1245  -17.0216   22.1317 N   0  0  0  0  0  0  0  0  0  0  0  0
   11.5287  -17.1476   21.8118 C   0  0  1  0  0  0  0  0  0  0  0  0
   11.9202  -16.2629   20.6424 C   0  0  0  0  0  0  0  0  0  0  0  0
   12.5514  -17.0002   19.5420 C   0  0  0  0  0  0  0  0  0  0  0  0
   12.3383  -18.2126   19.3073 O   0  0  0  0  0  0  0  0  0  0  0  0
   12.3644  -16.7206   22.9477 C   0  0  0  0  0  0  0  0  0  0  0  0
   13.6556  -17.2295   23.1390 O   0  0  0  0  0  0  0  0  0  0  0  0
   13.4307  -16.3205   18.7172 O   0  0  0  0  0  0  0  0  0  0  0  0
   12.0020  -15.8889   23.8156 O   0  0  0  0  0  0  0  0  0  0  0  0
  2  1  1  1
  2  3  1  0
  4  2  1  0
  4  5  1  0
  5  7  1  0
  5  6  1  6
  7  8  2  0
  9 10  1  0
 10 11  1  0
 11 12  1  1
 13 11  1  0
 14  7  1  0
 13 14  1  1
 15 13  1  0
 15 16  2  0
 17 15  1  0
 18 17  1  0
 18 19  1  6
 20 19  1  0
 20 24  1  0
 21 20  2  0
 22 18  1  0
 22 23  1  0
 25 22  2  0
M  END
$$$$
