LID.pdb
     RDKit          3D

 25 24  0  0  1  0  0  0  0  0999 V2000
    8.3612  -14.9596   18.6419 C   0  0  0  0  0  0  0  0  0  0  0  0
    7.4807  -13.9652   19.4088 C   0  0  2  0  0  0  0  0  0  0  0  0
    7.4189  -12.6890   18.6066 C   0  0  0  0  0  0  0  0  0  0  0  0
    8.1843  -13.7054   20.7023 C   0  0  0  0  0  0  0  0  0  0  0  0
    8.1881  -14.9036   21.5835 C   0  0  2  0  0  0  0  0  0  0  0  0
    6.8844  -15.4735   21.8331 N   0  0  0  0  0  0  0  0  0  0  0  0
    8.7547  -14.5173   22.9044 C   0  0  0  0  0  0  0  0  0  0  0  0
    9.9637  -14.1263   22.9482 O   0  0  0  0  0  0  0  0  0  0  0  0
    5.6849  -11.7246   26.1936 C   0  0  0  0  0  0  0  0  0  0  0  0
    6.8576  -12.2802   25.4654 C   0  0  0  0  0  0  0  0  0  0  0  0
    7.6628  -13.3077   26.1468 C   0  0  2  0  0  0  0  0  0  0  0  0
    8.0427  -12.9478   27.5720 C   0  0  0  0  0  0  0  0  0  0  0  0
    8.6626  -14.0520   25.3708 C   0  0  2  0  0  0  0  0  0  0  0  0
    8.0370  -14.5567   24.1150 N   0  0  0  0  0  0  0  0  0  0  0  0
    9.4131  -15.1514   25.9865 C   0  0  0  0  0  0  0  0  0  0  0  0
   10.1861  -14.9127   27.0010 O   0  0  0  0  0  0  0  0  0  0  0  0
    9.4151  -16.5218   25.6258 N   0  0  0  0  0  0  0  0  0  0  0  0
   10.1704  -17.5184   26.3513 C   0  0  1  0  0  0  0  0  0  0  0  0
    9.3835  -18.8046   26.5236 C   0  0  0  0  0  0  0  0  0  0  0  0
    9.9947  -19.7361   27.4784 C   0  0  0  0  0  0  0  0  0  0  0  0
   11.0378  -19.4816   28.1249 O   0  0  0  0  0  0  0  0  0  0  0  0
   11.3961  -17.8817   25.6186 C   0  0  0  0  0  0  0  0  0  0  0  0
   12.4046  -18.6504   26.2143 O   0  0  0  0  0  0  0  0  0  0  0  0
    9.3870  -20.9635   27.6769 O   0  0  0  0  0  0  0  0  0  0  0  0
   11.6346  -17.5438   24.4333 O   0  0  0  0  0  0  0  0  0  0  0  0
  2  1  1  6
  2  3  1  0
  4  2  1  0
  4  5  1  0
  5  7  1  0
  5  6  1  1
  7  8  2  0
  9 10  1  0
 10 11  1  0
 11 12  1  1
 13 11  1  0
 14  7  1  0
 13 14  1  6
 15 13  1  0
 15 16  2  0
 17 15  1  0
 18 17  1  0
 18 19  1  6
 20 19  1  0
 20 24  1  0
 21 20  2  0
 22 18  1  0
 22 23  1  0
 25 22  2  0
M  END
$$$$
