LID.pdb
     RDKit          3D

 25 24  0  0  1  0  0  0  0  0999 V2000
    8.2851  -12.5944   18.4504 C   0  0  0  0  0  0  0  0  0  0  0  0
    7.7730  -13.7854   19.2697 C   0  0  2  0  0  0  0  0  0  0  0  0
    6.3461  -13.4950   19.6645 C   0  0  0  0  0  0  0  0  0  0  0  0
    8.6268  -13.8384   20.4961 C   0  0  0  0  0  0  0  0  0  0  0  0
    8.3550  -15.0528   21.3106 C   0  0  2  0  0  0  0  0  0  0  0  0
    6.9651  -15.4420   21.3688 N   0  0  0  0  0  0  0  0  0  0  0  0
    8.7932  -14.7922   22.7089 C   0  0  0  0  0  0  0  0  0  0  0  0
    9.9849  -14.3927   22.9003 O   0  0  0  0  0  0  0  0  0  0  0  0
    6.0106  -11.8754   26.0359 C   0  0  0  0  0  0  0  0  0  0  0  0
    7.0685  -12.6367   25.3179 C   0  0  0  0  0  0  0  0  0  0  0  0
    7.5819  -13.8614   25.9540 C   0  0  2  0  0  0  0  0  0  0  0  0
    7.8414  -13.7201   27.4432 C   0  0  0  0  0  0  0  0  0  0  0  0
    8.5177  -14.7087   25.2040 C   0  0  2  0  0  0  0  0  0  0  0  0
    7.9712  -14.9598   23.8396 N   0  0  0  0  0  0  0  0  0  0  0  0
    8.9728  -15.9868   25.7610 C   0  0  0  0  0  0  0  0  0  0  0  0
    8.1058  -16.9104   26.0417 O   0  0  0  0  0  0  0  0  0  0  0  0
   10.2989  -16.3957   26.0481 N   0  0  0  0  0  0  0  0  0  0  0  0
   10.6100  -17.6821   26.6298 C   0  0  1  0  0  0  0  0  0  0  0  0
   12.0670  -18.0541   26.4245 C   0  0  0  0  0  0  0  0  0  0  0  0
   12.4310  -18.2189   25.0127 C   0  0  0  0  0  0  0  0  0  0  0  0
   11.5922  -18.3394   24.0895 O   0  0  0  0  0  0  0  0  0  0  0  0
   10.3920  -17.6640   28.0869 C   0  0  0  0  0  0  0  0  0  0  0  0
   10.5099  -16.4824   28.8304 O   0  0  0  0  0  0  0  0  0  0  0  0
   13.7745  -18.2429   24.6810 O   0  0  0  0  0  0  0  0  0  0  0  0
   10.0910  -18.6756   28.7668 O   0  0  0  0  0  0  0  0  0  0  0  0
  2  1  1  6
  2  3  1  0
  4  2  1  0
  4  5  1  0
  5  7  1  0
  5  6  1  1
  7  8  2  0
  9 10  1  0
 10 11  1  0
 11 12  1  1
 13 11  1  0
 14  7  1  0
 13 14  1  6
 15 13  1  0
 15 16  2  0
 17 15  1  0
 18 17  1  0
 18 19  1  1
 20 19  1  0
 20 24  1  0
 21 20  2  0
 22 18  1  0
 22 23  1  0
 25 22  2  0
M  END
$$$$
