LID.pdb
     RDKit          3D

 25 24  0  0  1  0  0  0  0  0999 V2000
    6.0117  -14.3315   20.1067 C   0  0  0  0  0  0  0  0  0  0  0  0
    7.3930  -13.9176   20.6290 C   0  0  2  0  0  0  0  0  0  0  0  0
    8.1670  -13.3319   19.4740 C   0  0  0  0  0  0  0  0  0  0  0  0
    8.0560  -15.1787   21.0828 C   0  0  0  0  0  0  0  0  0  0  0  0
    9.3868  -14.9184   21.6937 C   0  0  2  0  0  0  0  0  0  0  0  0
   10.4153  -15.8635   21.3255 N   0  0  0  0  0  0  0  0  0  0  0  0
    9.2478  -14.9807   23.1742 C   0  0  0  0  0  0  0  0  0  0  0  0
   10.0873  -15.6770   23.8275 O   0  0  0  0  0  0  0  0  0  0  0  0
    6.6357  -11.4297   27.5697 C   0  0  0  0  0  0  0  0  0  0  0  0
    7.5442  -12.5428   27.1827 C   0  0  0  0  0  0  0  0  0  0  0  0
    7.4628  -13.0441   25.8006 C   0  0  2  0  0  0  0  0  0  0  0  0
    6.0445  -13.1726   25.2743 C   0  0  0  0  0  0  0  0  0  0  0  0
    8.4189  -14.0688   25.3627 C   0  0  2  0  0  0  0  0  0  0  0  0
    8.2428  -14.3165   23.9030 N   0  0  0  0  0  0  0  0  0  0  0  0
    8.4839  -15.3649   26.0460 C   0  0  0  0  0  0  0  0  0  0  0  0
    8.8360  -15.4164   27.2938 O   0  0  0  0  0  0  0  0  0  0  0  0
    8.1930  -16.6485   25.5209 N   0  0  0  0  0  0  0  0  0  0  0  0
    8.3543  -17.8613   26.2911 C   0  0  1  0  0  0  0  0  0  0  0  0
    8.1631  -19.1001   25.4353 C   0  0  0  0  0  0  0  0  0  0  0  0
    8.2967  -20.3524   26.1880 C   0  0  0  0  0  0  0  0  0  0  0  0
    7.8323  -20.5226   27.3395 O   0  0  0  0  0  0  0  0  0  0  0  0
    9.7163  -17.9516   26.8458 C   0  0  0  0  0  0  0  0  0  0  0  0
    9.9388  -18.0882   28.2223 O   0  0  0  0  0  0  0  0  0  0  0  0
    8.9726  -21.4044   25.5949 O   0  0  0  0  0  0  0  0  0  0  0  0
   10.7629  -17.9148   26.1534 O   0  0  0  0  0  0  0  0  0  0  0  0
  2  1  1  6
  2  3  1  0
  4  2  1  0
  4  5  1  0
  5  7  1  0
  5  6  1  6
  7  8  2  0
  9 10  1  0
 10 11  1  0
 11 12  1  1
 13 11  1  0
 14  7  1  0
 13 14  1  6
 15 13  1  0
 15 16  2  0
 17 15  1  0
 18 17  1  0
 18 19  1  6
 20 19  1  0
 20 24  1  0
 21 20  2  0
 22 18  1  0
 22 23  1  0
 25 22  2  0
M  END
$$$$
