LID.pdb
     RDKit          3D

 25 24  0  0  1  0  0  0  0  0999 V2000
    8.0974  -14.4836   18.6073 C   0  0  0  0  0  0  0  0  0  0  0  0
    7.4617  -13.4099   19.4989 C   0  0  2  0  0  0  0  0  0  0  0  0
    7.7040  -12.0690   18.8512 C   0  0  0  0  0  0  0  0  0  0  0  0
    8.1924  -13.4716   20.8019 C   0  0  0  0  0  0  0  0  0  0  0  0
    8.0024  -14.7793   21.4845 C   0  0  2  0  0  0  0  0  0  0  0  0
    6.6242  -15.1777   21.6529 N   0  0  0  0  0  0  0  0  0  0  0  0
    8.6005  -14.6941   22.8446 C   0  0  0  0  0  0  0  0  0  0  0  0
    9.8168  -14.3378   22.9447 O   0  0  0  0  0  0  0  0  0  0  0  0
    6.1800  -11.9965   26.4823 C   0  0  0  0  0  0  0  0  0  0  0  0
    7.2107  -12.7102   25.6805 C   0  0  0  0  0  0  0  0  0  0  0  0
    7.7456  -13.9715   26.2201 C   0  0  2  0  0  0  0  0  0  0  0  0
    8.1510  -13.8940   27.6811 C   0  0  0  0  0  0  0  0  0  0  0  0
    8.5790  -14.8142   25.3533 C   0  0  2  0  0  0  0  0  0  0  0  0
    7.9051  -14.9836   24.0341 N   0  0  0  0  0  0  0  0  0  0  0  0
    9.0332  -16.1311   25.8118 C   0  0  0  0  0  0  0  0  0  0  0  0
    8.1631  -17.0103   26.2037 O   0  0  0  0  0  0  0  0  0  0  0  0
   10.3598  -16.6238   25.8873 N   0  0  0  0  0  0  0  0  0  0  0  0
   10.6725  -17.9528   26.3626 C   0  0  1  0  0  0  0  0  0  0  0  0
   12.0672  -18.3843   25.9478 C   0  0  0  0  0  0  0  0  0  0  0  0
   12.4187  -17.9785   24.5823 C   0  0  0  0  0  0  0  0  0  0  0  0
   13.4362  -17.3039   24.2993 O   0  0  0  0  0  0  0  0  0  0  0  0
   10.6486  -18.0010   27.8351 C   0  0  0  0  0  0  0  0  0  0  0  0
   10.6814  -19.2178   28.5287 O   0  0  0  0  0  0  0  0  0  0  0  0
   11.5812  -18.3611   23.5490 O   0  0  0  0  0  0  0  0  0  0  0  0
   10.5981  -16.9860   28.5724 O   0  0  0  0  0  0  0  0  0  0  0  0
  2  1  1  6
  2  3  1  0
  4  2  1  0
  4  5  1  0
  5  7  1  0
  5  6  1  1
  7  8  2  0
  9 10  1  0
 10 11  1  0
 11 12  1  1
 13 11  1  0
 14  7  1  0
 13 14  1  6
 15 13  1  0
 15 16  2  0
 17 15  1  0
 18 17  1  0
 18 19  1  1
 20 19  1  0
 20 24  1  0
 21 20  2  0
 22 18  1  0
 22 23  1  0
 25 22  2  0
M  END
$$$$
