HQK.pdb
     RDKit          3D

 29 29  0  0  1  0  0  0  0  0999 V2000
    8.3891  -13.1484   18.1403 N   0  0  0  0  0  0  0  0  0  0  0  0
    8.2433  -14.5869   18.2137 C   0  0  1  0  0  0  0  0  0  0  0  0
    9.3277  -15.1810   17.3029 C   0  0  0  0  0  0  0  0  0  0  0  0
    8.8746  -15.1064   15.9155 C   0  0  0  0  0  0  0  0  0  0  0  0
    7.7056  -14.5185   15.4827 C   0  0  0  0  0  0  0  0  0  0  0  0
    7.6538  -14.6597   14.1331 N   0  0  0  0  0  0  0  0  0  0  0  0
    8.7472  -15.3117   13.7264 C   0  0  0  0  0  0  0  0  0  0  0  0
    9.4740  -15.5731   14.8236 N   0  0  0  0  0  0  0  0  0  0  0  0
    8.5760  -15.0245   19.5815 C   0  0  0  0  0  0  0  0  0  0  0  0
    9.3685  -14.3330   20.2600 O   0  0  0  0  0  0  0  0  0  0  0  0
    5.4430  -19.5634   22.0485 N   0  0  0  0  0  0  0  0  0  0  0  0
    6.3509  -19.4338   23.1236 C   0  0  0  0  0  0  0  0  0  0  0  0
    6.2544  -20.1801   24.1255 O   0  0  0  0  0  0  0  0  0  0  0  0
    7.4478  -18.3952   23.0789 C   0  0  0  0  0  0  0  0  0  0  0  0
    7.3092  -17.6535   21.8065 C   0  0  0  0  0  0  0  0  0  0  0  0
    8.3026  -16.6022   21.4892 C   0  0  2  0  0  0  0  0  0  0  0  0
    8.0107  -16.1920   20.1003 N   0  0  0  0  0  0  0  0  0  0  0  0
    9.7061  -17.0377   21.4723 C   0  0  0  0  0  0  0  0  0  0  0  0
   10.1056  -18.0065   20.7271 O   0  0  0  0  0  0  0  0  0  0  0  0
   10.6703  -16.4069   22.2670 N   0  0  0  0  0  0  0  0  0  0  0  0
   12.0151  -16.9372   22.4832 C   0  0  1  0  0  0  0  0  0  0  0  0
   12.9982  -15.9260   22.0151 C   0  0  0  0  0  0  0  0  0  0  0  0
   13.0785  -15.6473   20.5664 C   0  0  0  0  0  0  0  0  0  0  0  0
   14.1329  -14.6405   20.1919 C   0  0  0  0  0  0  0  0  0  0  0  0
   14.0639  -14.5371   18.6516 C   0  0  0  0  0  0  0  0  0  0  0  0
   14.9933  -13.5330   18.2192 N   0  0  0  0  0  0  0  0  0  0  0  0
   12.1497  -17.4321   23.8370 C   0  0  0  0  0  0  0  0  0  0  0  0
   11.2763  -17.1069   24.7030 O   0  0  0  0  0  0  0  0  0  0  0  0
   13.1744  -18.2439   24.2701 O   0  0  0  0  0  0  0  0  0  0  0  0
  2  1  1  1
  2  9  1  0
  3  2  1  0
  3  4  1  0
  4  5  2  0
  5  6  1  0
  7  6  1  0
  8  4  1  0
  8  7  2  0
  9 17  1  0
  9 10  2  0
 11 12  1  0
 12 14  1  0
 13 12  2  0
 14 15  1  0
 16 15  1  6
 16 18  1  0
 17 16  1  0
 18 19  2  0
 20 21  1  0
 20 18  1  0
 21 22  1  1
 23 22  1  0
 24 25  1  0
 24 23  1  0
 26 25  1  0
 27 21  1  0
 27 29  1  0
 28 27  2  0
M  END
$$$$
