HQK.pdb
     RDKit          3D

 29 29  0  0  1  0  0  0  0  0999 V2000
    7.8251  -16.8291   17.8689 N   0  0  0  0  0  0  0  0  0  0  0  0
    8.7581  -16.0822   18.6860 C   0  0  1  0  0  0  0  0  0  0  0  0
    8.3806  -14.6014   18.5340 C   0  0  0  0  0  0  0  0  0  0  0  0
    8.4232  -14.2443   17.1175 C   0  0  0  0  0  0  0  0  0  0  0  0
    7.4160  -13.6166   16.4167 C   0  0  0  0  0  0  0  0  0  0  0  0
    7.8436  -13.4647   15.1368 N   0  0  0  0  0  0  0  0  0  0  0  0
    9.0738  -13.9760   15.0306 C   0  0  0  0  0  0  0  0  0  0  0  0
    9.4060  -14.4435   16.2436 N   0  0  0  0  0  0  0  0  0  0  0  0
    8.5196  -16.4198   20.1010 C   0  0  0  0  0  0  0  0  0  0  0  0
    7.3706  -16.7708   20.4519 O   0  0  0  0  0  0  0  0  0  0  0  0
   12.4469  -19.7880   22.5702 N   0  0  0  0  0  0  0  0  0  0  0  0
   11.2384  -20.2802   22.0276 C   0  0  0  0  0  0  0  0  0  0  0  0
   11.1479  -21.4775   21.6697 O   0  0  0  0  0  0  0  0  0  0  0  0
   10.0418  -19.3703   21.8725 C   0  0  0  0  0  0  0  0  0  0  0  0
   10.4152  -18.0450   22.4135 C   0  0  0  0  0  0  0  0  0  0  0  0
    9.4157  -16.9536   22.3627 C   0  0  2  0  0  0  0  0  0  0  0  0
    9.5651  -16.3456   21.0246 N   0  0  0  0  0  0  0  0  0  0  0  0
    9.6298  -15.8505   23.3099 C   0  0  0  0  0  0  0  0  0  0  0  0
   10.7206  -15.1699   23.3213 O   0  0  0  0  0  0  0  0  0  0  0  0
    8.6458  -15.4912   24.2383 N   0  0  0  0  0  0  0  0  0  0  0  0
    8.8476  -14.4936   25.2873 C   0  0  1  0  0  0  0  0  0  0  0  0
    7.5684  -13.7663   25.4943 C   0  0  0  0  0  0  0  0  0  0  0  0
    7.5056  -12.7541   26.5687 C   0  0  0  0  0  0  0  0  0  0  0  0
    6.1497  -12.1233   26.7401 C   0  0  0  0  0  0  0  0  0  0  0  0
    6.3191  -11.1085   27.8932 C   0  0  0  0  0  0  0  0  0  0  0  0
    5.0835  -10.3988   28.0621 N   0  0  0  0  0  0  0  0  0  0  0  0
    9.4738  -15.0986   26.4439 C   0  0  0  0  0  0  0  0  0  0  0  0
    9.2515  -16.3257   26.6953 O   0  0  0  0  0  0  0  0  0  0  0  0
   10.3085  -14.4328   27.3137 O   0  0  0  0  0  0  0  0  0  0  0  0
  2  1  1  6
  2  9  1  0
  3  2  1  0
  3  4  1  0
  4  5  2  0
  5  6  1  0
  7  6  1  0
  8  4  1  0
  8  7  2  0
  9 17  1  0
  9 10  2  0
 11 12  1  0
 12 14  1  0
 13 12  2  0
 14 15  1  0
 16 15  1  1
 16 18  1  0
 17 16  1  0
 18 19  2  0
 20 21  1  0
 20 18  1  0
 21 22  1  1
 23 22  1  0
 24 25  1  0
 24 23  1  0
 26 25  1  0
 27 21  1  0
 27 29  1  0
 28 27  2  0
M  END
$$$$
