HQK.pdb
     RDKit          3D

 29 29  0  0  1  0  0  0  0  0999 V2000
   10.2590  -15.5203   17.1360 N   0  0  0  0  0  0  0  0  0  0  0  0
   11.0672  -14.6743   17.9887 C   0  0  1  0  0  0  0  0  0  0  0  0
   10.2005  -14.3329   19.2097 C   0  0  0  0  0  0  0  0  0  0  0  0
    8.9964  -13.6393   18.7573 C   0  0  0  0  0  0  0  0  0  0  0  0
    8.6016  -13.4878   17.4455 C   0  0  0  0  0  0  0  0  0  0  0  0
    7.4375  -12.7885   17.4485 N   0  0  0  0  0  0  0  0  0  0  0  0
    7.1074  -12.5078   18.7127 C   0  0  0  0  0  0  0  0  0  0  0  0
    8.0666  -13.0331   19.4901 N   0  0  0  0  0  0  0  0  0  0  0  0
   12.1990  -15.4673   18.5020 C   0  0  0  0  0  0  0  0  0  0  0  0
   12.3831  -16.6192   18.0484 O   0  0  0  0  0  0  0  0  0  0  0  0
   15.6258  -13.5994   15.8208 N   0  0  0  0  0  0  0  0  0  0  0  0
   16.6910  -14.1766   16.5482 C   0  0  0  0  0  0  0  0  0  0  0  0
   17.8621  -14.1189   16.1064 O   0  0  0  0  0  0  0  0  0  0  0  0
   16.4319  -14.8698   17.8659 C   0  0  0  0  0  0  0  0  0  0  0  0
   14.9938  -14.7156   18.1765 C   0  0  0  0  0  0  0  0  0  0  0  0
   14.4870  -15.2491   19.4615 C   0  0  2  0  0  0  0  0  0  0  0  0
   13.0441  -14.9320   19.4770 N   0  0  0  0  0  0  0  0  0  0  0  0
   15.0305  -14.6164   20.6715 C   0  0  0  0  0  0  0  0  0  0  0  0
   14.7666  -13.3948   20.9737 O   0  0  0  0  0  0  0  0  0  0  0  0
   15.8569  -15.3253   21.5512 N   0  0  0  0  0  0  0  0  0  0  0  0
   15.4876  -15.6460   22.9285 C   0  0  1  0  0  0  0  0  0  0  0  0
   14.1507  -16.2945   22.9160 C   0  0  0  0  0  0  0  0  0  0  0  0
   13.6064  -16.7990   24.1936 C   0  0  0  0  0  0  0  0  0  0  0  0
   12.2336  -17.4058   24.0798 C   0  0  0  0  0  0  0  0  0  0  0  0
   11.9605  -18.0486   25.4582 C   0  0  0  0  0  0  0  0  0  0  0  0
   10.6511  -18.6353   25.4371 N   0  0  0  0  0  0  0  0  0  0  0  0
   16.5694  -16.3442   23.5904 C   0  0  0  0  0  0  0  0  0  0  0  0
   17.2083  -17.2400   22.9519 O   0  0  0  0  0  0  0  0  0  0  0  0
   16.9676  -16.1099   24.8878 O   0  0  0  0  0  0  0  0  0  0  0  0
  2  1  1  6
  2  9  1  0
  3  2  1  0
  3  4  1  0
  4  5  2  0
  5  6  1  0
  7  6  1  0
  8  4  1  0
  8  7  2  0
  9 17  1  0
  9 10  2  0
 11 12  1  0
 12 14  1  0
 13 12  2  0
 14 15  1  0
 16 15  1  6
 16 18  1  0
 17 16  1  0
 18 19  2  0
 20 21  1  0
 20 18  1  0
 21 22  1  6
 23 22  1  0
 24 25  1  0
 24 23  1  0
 26 25  1  0
 27 21  1  0
 27 29  1  0
 28 27  2  0
M  END
$$$$
