HQK.pdb
     RDKit          3D

 29 29  0  0  1  0  0  0  0  0999 V2000
   11.7872  -14.5377   17.9773 N   0  0  0  0  0  0  0  0  0  0  0  0
   12.4050  -15.1262   19.1469 C   0  0  1  0  0  0  0  0  0  0  0  0
   13.3780  -14.0747   19.7003 C   0  0  0  0  0  0  0  0  0  0  0  0
   14.6716  -14.2313   19.0387 C   0  0  0  0  0  0  0  0  0  0  0  0
   15.1850  -15.4123   18.5475 C   0  0  0  0  0  0  0  0  0  0  0  0
   16.4019  -15.1360   18.0117 N   0  0  0  0  0  0  0  0  0  0  0  0
   16.6500  -13.8310   18.1576 C   0  0  0  0  0  0  0  0  0  0  0  0
   15.5876  -13.3013   18.7829 N   0  0  0  0  0  0  0  0  0  0  0  0
   11.3723  -15.3100   20.1827 C   0  0  0  0  0  0  0  0  0  0  0  0
   10.4735  -14.4466   20.2981 O   0  0  0  0  0  0  0  0  0  0  0  0
    8.3925  -20.0288   20.4153 N   0  0  0  0  0  0  0  0  0  0  0  0
    9.0705  -20.2683   21.6318 C   0  0  0  0  0  0  0  0  0  0  0  0
    9.0416  -21.4051   22.1581 O   0  0  0  0  0  0  0  0  0  0  0  0
    9.8377  -19.1584   22.3126 C   0  0  0  0  0  0  0  0  0  0  0  0
    9.6604  -17.9320   21.5044 C   0  0  0  0  0  0  0  0  0  0  0  0
   10.3049  -16.6815   21.9668 C   0  0  2  0  0  0  0  0  0  0  0  0
   11.4065  -16.4318   21.0146 N   0  0  0  0  0  0  0  0  0  0  0  0
   10.9479  -16.7477   23.2866 C   0  0  0  0  0  0  0  0  0  0  0  0
   12.1636  -17.1417   23.4285 O   0  0  0  0  0  0  0  0  0  0  0  0
   10.2598  -16.3760   24.4474 N   0  0  0  0  0  0  0  0  0  0  0  0
   10.8201  -16.4896   25.7926 C   0  0  1  0  0  0  0  0  0  0  0  0
   10.0383  -15.6113   26.7012 C   0  0  0  0  0  0  0  0  0  0  0  0
   10.3729  -15.6194   28.1403 C   0  0  0  0  0  0  0  0  0  0  0  0
    9.5227  -14.6987   28.9740 C   0  0  0  0  0  0  0  0  0  0  0  0
   10.0532  -14.8549   30.4169 C   0  0  0  0  0  0  0  0  0  0  0  0
    9.2793  -14.0112   31.2819 N   0  0  0  0  0  0  0  0  0  0  0  0
   10.9660  -17.8819   26.1615 C   0  0  0  0  0  0  0  0  0  0  0  0
   10.1754  -18.7408   25.6558 O   0  0  0  0  0  0  0  0  0  0  0  0
   11.9143  -18.3587   27.0389 O   0  0  0  0  0  0  0  0  0  0  0  0
  2  1  1  6
  2  9  1  0
  3  2  1  0
  3  4  1  0
  4  5  2  0
  5  6  1  0
  7  6  1  0
  8  4  1  0
  8  7  2  0
  9 17  1  0
  9 10  2  0
 11 12  1  0
 12 14  1  0
 13 12  2  0
 14 15  1  0
 16 15  1  6
 16 18  1  0
 17 16  1  0
 18 19  2  0
 20 21  1  0
 20 18  1  0
 21 22  1  1
 23 22  1  0
 24 25  1  0
 24 23  1  0
 26 25  1  0
 27 21  1  0
 27 29  1  0
 28 27  2  0
M  END
$$$$
