HQK.pdb
     RDKit          3D

 29 29  0  0  1  0  0  0  0  0999 V2000
   11.9904  -19.0309   16.8283 N   0  0  0  0  0  0  0  0  0  0  0  0
   12.6974  -18.8602   18.0802 C   0  0  1  0  0  0  0  0  0  0  0  0
   13.5690  -17.6060   17.9198 C   0  0  0  0  0  0  0  0  0  0  0  0
   14.9204  -18.0133   17.5407 C   0  0  0  0  0  0  0  0  0  0  0  0
   15.2496  -18.7871   16.4488 C   0  0  0  0  0  0  0  0  0  0  0  0
   16.5991  -18.9384   16.4485 N   0  0  0  0  0  0  0  0  0  0  0  0
   17.1054  -18.2860   17.4992 C   0  0  0  0  0  0  0  0  0  0  0  0
   16.0698  -17.7320   18.1481 N   0  0  0  0  0  0  0  0  0  0  0  0
   11.7174  -18.5426   19.1347 C   0  0  0  0  0  0  0  0  0  0  0  0
   10.6260  -18.0246   18.8075 O   0  0  0  0  0  0  0  0  0  0  0  0
    9.7546  -22.0765   23.4672 N   0  0  0  0  0  0  0  0  0  0  0  0
   11.1598  -21.9474   23.3917 C   0  0  0  0  0  0  0  0  0  0  0  0
   11.9020  -22.7594   23.9916 O   0  0  0  0  0  0  0  0  0  0  0  0
   11.7844  -20.8305   22.5878 C   0  0  0  0  0  0  0  0  0  0  0  0
   10.6854  -20.0545   21.9724 C   0  0  0  0  0  0  0  0  0  0  0  0
   10.9673  -18.6777   21.5058 C   0  0  2  0  0  0  0  0  0  0  0  0
   12.0128  -18.8195   20.4717 N   0  0  0  0  0  0  0  0  0  0  0  0
   11.5426  -17.7713   22.5094 C   0  0  0  0  0  0  0  0  0  0  0  0
   12.8068  -17.5453   22.5721 O   0  0  0  0  0  0  0  0  0  0  0  0
   10.7310  -17.1094   23.4381 N   0  0  0  0  0  0  0  0  0  0  0  0
   11.2514  -16.2682   24.5142 C   0  0  1  0  0  0  0  0  0  0  0  0
   10.1006  -15.6637   25.2342 C   0  0  0  0  0  0  0  0  0  0  0  0
   10.3826  -14.7330   26.3465 C   0  0  0  0  0  0  0  0  0  0  0  0
    9.1512  -14.1868   27.0179 C   0  0  0  0  0  0  0  0  0  0  0  0
    9.6780  -13.2388   28.1186 C   0  0  0  0  0  0  0  0  0  0  0  0
    8.5585  -12.7345   28.8612 N   0  0  0  0  0  0  0  0  0  0  0  0
   12.2279  -16.9971   25.2958 C   0  0  0  0  0  0  0  0  0  0  0  0
   11.9305  -18.1548   25.7316 O   0  0  0  0  0  0  0  0  0  0  0  0
   13.4811  -16.5226   25.6131 O   0  0  0  0  0  0  0  0  0  0  0  0
  2  1  1  6
  2  9  1  0
  3  2  1  0
  3  4  1  0
  4  5  2  0
  5  6  1  0
  7  6  1  0
  8  4  1  0
  8  7  2  0
  9 17  1  0
  9 10  2  0
 11 12  1  0
 12 14  1  0
 13 12  2  0
 14 15  1  0
 16 15  1  1
 16 18  1  0
 17 16  1  0
 18 19  2  0
 20 21  1  0
 20 18  1  0
 21 22  1  1
 23 22  1  0
 24 25  1  0
 24 23  1  0
 26 25  1  0
 27 21  1  0
 27 29  1  0
 28 27  2  0
M  END
$$$$
