HQK.pdb
     RDKit          3D

 29 29  0  0  1  0  0  0  0  0999 V2000
    7.4790  -16.8515   18.0671 N   0  0  0  0  0  0  0  0  0  0  0  0
    8.0703  -15.9068   18.9913 C   0  0  1  0  0  0  0  0  0  0  0  0
    7.8211  -14.5099   18.4041 C   0  0  0  0  0  0  0  0  0  0  0  0
    8.1578  -14.5264   16.9821 C   0  0  0  0  0  0  0  0  0  0  0  0
    8.6565  -15.6071   16.2871 C   0  0  0  0  0  0  0  0  0  0  0  0
    8.8350  -15.2161   14.9989 N   0  0  0  0  0  0  0  0  0  0  0  0
    8.4639  -13.9376   14.8820 C   0  0  0  0  0  0  0  0  0  0  0  0
    8.0565  -13.5390   16.0967 N   0  0  0  0  0  0  0  0  0  0  0  0
    7.3192  -15.9554   20.2589 C   0  0  0  0  0  0  0  0  0  0  0  0
    6.1472  -15.5171   20.2826 O   0  0  0  0  0  0  0  0  0  0  0  0
    5.2040  -20.2169   22.7649 N   0  0  0  0  0  0  0  0  0  0  0  0
    6.6128  -20.3160   22.8166 C   0  0  0  0  0  0  0  0  0  0  0  0
    7.1644  -21.4373   22.9068 O   0  0  0  0  0  0  0  0  0  0  0  0
    7.4704  -19.0728   22.7638 C   0  0  0  0  0  0  0  0  0  0  0  0
    6.5628  -17.9061   22.7048 C   0  0  0  0  0  0  0  0  0  0  0  0
    7.1563  -16.5498   22.6720 C   0  0  2  0  0  0  0  0  0  0  0  0
    7.9156  -16.4835   21.4065 N   0  0  0  0  0  0  0  0  0  0  0  0
    8.1408  -16.2607   23.7242 C   0  0  0  0  0  0  0  0  0  0  0  0
    9.3639  -16.6461   23.6314 O   0  0  0  0  0  0  0  0  0  0  0  0
    7.7848  -15.5443   24.8727 N   0  0  0  0  0  0  0  0  0  0  0  0
    8.6218  -15.4621   26.0681 C   0  0  1  0  0  0  0  0  0  0  0  0
    8.0301  -14.4542   26.9858 C   0  0  0  0  0  0  0  0  0  0  0  0
    8.9134  -13.8094   27.9792 C   0  0  0  0  0  0  0  0  0  0  0  0
    9.8191  -14.7654   28.7083 C   0  0  0  0  0  0  0  0  0  0  0  0
   10.5942  -13.8941   29.7222 C   0  0  0  0  0  0  0  0  0  0  0  0
   11.4163  -14.7518   30.5268 N   0  0  0  0  0  0  0  0  0  0  0  0
    8.8779  -16.7858   26.5955 C   0  0  0  0  0  0  0  0  0  0  0  0
   10.0056  -17.0293   27.1319 O   0  0  0  0  0  0  0  0  0  0  0  0
    7.9758  -17.8257   26.5587 O   0  0  0  0  0  0  0  0  0  0  0  0
  2  1  1  6
  2  9  1  0
  3  2  1  0
  3  4  1  0
  4  5  2  0
  5  6  1  0
  7  6  1  0
  8  4  1  0
  8  7  2  0
  9 17  1  0
  9 10  2  0
 11 12  1  0
 12 14  1  0
 13 12  2  0
 14 15  1  0
 16 15  1  1
 16 18  1  0
 17 16  1  0
 18 19  2  0
 20 21  1  0
 20 18  1  0
 21 22  1  1
 23 22  1  0
 24 25  1  0
 24 23  1  0
 26 25  1  0
 27 21  1  0
 27 29  1  0
 28 27  2  0
M  END
$$$$
