HQK.pdb
     RDKit          3D

 29 29  0  0  1  0  0  0  0  0999 V2000
    9.7960  -15.9047   19.0604 N   0  0  0  0  0  0  0  0  0  0  0  0
    9.9547  -17.0414   19.9429 C   0  0  1  0  0  0  0  0  0  0  0  0
   11.3892  -17.5513   19.7416 C   0  0  0  0  0  0  0  0  0  0  0  0
   11.5084  -18.1132   18.3978 C   0  0  0  0  0  0  0  0  0  0  0  0
   10.5172  -18.7883   17.7186 C   0  0  0  0  0  0  0  0  0  0  0  0
   11.0224  -19.1457   16.5098 N   0  0  0  0  0  0  0  0  0  0  0  0
   12.2844  -18.7140   16.4262 C   0  0  0  0  0  0  0  0  0  0  0  0
   12.5588  -18.0904   17.5822 N   0  0  0  0  0  0  0  0  0  0  0  0
    9.8828  -16.5684   21.3373 C   0  0  0  0  0  0  0  0  0  0  0  0
   10.7840  -15.8124   21.7650 O   0  0  0  0  0  0  0  0  0  0  0  0
    7.7675  -14.3330   25.8227 N   0  0  0  0  0  0  0  0  0  0  0  0
    7.5673  -13.5725   24.6486 C   0  0  0  0  0  0  0  0  0  0  0  0
    7.5467  -12.3209   24.7023 O   0  0  0  0  0  0  0  0  0  0  0  0
    7.3760  -14.2579   23.3153 C   0  0  0  0  0  0  0  0  0  0  0  0
    7.3983  -15.7174   23.5561 C   0  0  0  0  0  0  0  0  0  0  0  0
    8.7020  -16.4190   23.5252 C   0  0  2  0  0  0  0  0  0  0  0  0
    8.8229  -16.9635   22.1571 N   0  0  0  0  0  0  0  0  0  0  0  0
    8.8180  -17.5849   24.4123 C   0  0  0  0  0  0  0  0  0  0  0  0
    8.5257  -18.7716   24.0128 O   0  0  0  0  0  0  0  0  0  0  0  0
    9.2602  -17.4491   25.7334 N   0  0  0  0  0  0  0  0  0  0  0  0
    9.3817  -18.5680   26.6659 C   0  0  1  0  0  0  0  0  0  0  0  0
   10.2993  -18.1655   27.7633 C   0  0  0  0  0  0  0  0  0  0  0  0
   10.5763  -19.1423   28.8367 C   0  0  0  0  0  0  0  0  0  0  0  0
   11.6154  -18.6890   29.8268 C   0  0  0  0  0  0  0  0  0  0  0  0
   11.8659  -19.9118   30.7378 C   0  0  0  0  0  0  0  0  0  0  0  0
   12.9529  -19.6064   31.6235 N   0  0  0  0  0  0  0  0  0  0  0  0
    8.0715  -19.0642   27.0307 C   0  0  0  0  0  0  0  0  0  0  0  0
    7.0917  -18.2534   27.0651 O   0  0  0  0  0  0  0  0  0  0  0  0
    7.7982  -20.3750   27.3527 O   0  0  0  0  0  0  0  0  0  0  0  0
  2  1  1  6
  2  9  1  0
  3  2  1  0
  3  4  1  0
  4  5  2  0
  5  6  1  0
  7  6  1  0
  8  4  1  0
  8  7  2  0
  9 17  1  0
  9 10  2  0
 11 12  1  0
 12 14  1  0
 13 12  2  0
 14 15  1  0
 16 15  1  6
 16 18  1  0
 17 16  1  0
 18 19  2  0
 20 21  1  0
 20 18  1  0
 21 22  1  1
 23 22  1  0
 24 25  1  0
 24 23  1  0
 26 25  1  0
 27 21  1  0
 27 29  1  0
 28 27  2  0
M  END
$$$$
