HQK.pdb
     RDKit          3D

 29 29  0  0  1  0  0  0  0  0999 V2000
    8.4294  -17.4294   18.2497 N   0  0  0  0  0  0  0  0  0  0  0  0
    8.8773  -16.4091   19.1741 C   0  0  1  0  0  0  0  0  0  0  0  0
    7.8257  -15.2908   19.1304 C   0  0  0  0  0  0  0  0  0  0  0  0
    7.9613  -14.5615   17.8712 C   0  0  0  0  0  0  0  0  0  0  0  0
    8.5129  -13.3070   17.7249 C   0  0  0  0  0  0  0  0  0  0  0  0
    8.4520  -12.9863   16.4067 N   0  0  0  0  0  0  0  0  0  0  0  0
    7.8841  -13.9980   15.7435 C   0  0  0  0  0  0  0  0  0  0  0  0
    7.5943  -14.9429   16.6510 N   0  0  0  0  0  0  0  0  0  0  0  0
    8.8301  -16.9590   20.5411 C   0  0  0  0  0  0  0  0  0  0  0  0
    7.8315  -17.6293   20.8874 O   0  0  0  0  0  0  0  0  0  0  0  0
   12.0506  -20.6755   22.5884 N   0  0  0  0  0  0  0  0  0  0  0  0
   11.6685  -20.2974   23.8952 C   0  0  0  0  0  0  0  0  0  0  0  0
   11.6834  -21.1366   24.8256 O   0  0  0  0  0  0  0  0  0  0  0  0
   11.2377  -18.8786   24.1870 C   0  0  0  0  0  0  0  0  0  0  0  0
   10.9734  -18.2165   22.8908 C   0  0  0  0  0  0  0  0  0  0  0  0
    9.8358  -17.2731   22.7979 C   0  0  2  0  0  0  0  0  0  0  0  0
    9.8871  -16.7294   21.4252 N   0  0  0  0  0  0  0  0  0  0  0  0
    9.9104  -16.0981   23.6775 C   0  0  0  0  0  0  0  0  0  0  0  0
   10.9489  -15.3407   23.7091 O   0  0  0  0  0  0  0  0  0  0  0  0
    8.8445  -15.7517   24.5160 N   0  0  0  0  0  0  0  0  0  0  0  0
    8.8985  -14.6593   25.4855 C   0  0  1  0  0  0  0  0  0  0  0  0
    7.5819  -13.9702   25.4883 C   0  0  0  0  0  0  0  0  0  0  0  0
    7.3745  -12.8628   26.4442 C   0  0  0  0  0  0  0  0  0  0  0  0
    6.0116  -12.2289   26.3638 C   0  0  0  0  0  0  0  0  0  0  0  0
    6.0420  -11.0741   27.3901 C   0  0  0  0  0  0  0  0  0  0  0  0
    4.8127  -10.3408   27.2891 N   0  0  0  0  0  0  0  0  0  0  0  0
    9.4129  -15.1351   26.7523 C   0  0  0  0  0  0  0  0  0  0  0  0
    9.7393  -14.2880   27.6436 O   0  0  0  0  0  0  0  0  0  0  0  0
    9.5822  -16.4635   27.0734 O   0  0  0  0  0  0  0  0  0  0  0  0
  2  1  1  6
  2  9  1  0
  3  2  1  0
  3  4  1  0
  4  5  2  0
  5  6  1  0
  7  6  1  0
  8  4  1  0
  8  7  2  0
  9 17  1  0
  9 10  2  0
 11 12  1  0
 12 14  1  0
 13 12  2  0
 14 15  1  0
 16 15  1  1
 16 18  1  0
 17 16  1  0
 18 19  2  0
 20 21  1  0
 20 18  1  0
 21 22  1  1
 23 22  1  0
 24 25  1  0
 24 23  1  0
 26 25  1  0
 27 21  1  0
 27 29  1  0
 28 27  2  0
M  END
$$$$
