HQK.pdb
     RDKit          3D

 29 29  0  0  1  0  0  0  0  0999 V2000
    7.8412  -17.3530   18.6886 N   0  0  0  0  0  0  0  0  0  0  0  0
    8.9015  -17.4570   19.6689 C   0  0  1  0  0  0  0  0  0  0  0  0
    9.7997  -16.2274   19.4700 C   0  0  0  0  0  0  0  0  0  0  0  0
    8.9647  -15.0837   19.1092 C   0  0  0  0  0  0  0  0  0  0  0  0
    7.5942  -15.1035   18.9646 C   0  0  0  0  0  0  0  0  0  0  0  0
    7.2020  -13.8483   18.6257 N   0  0  0  0  0  0  0  0  0  0  0  0
    8.2817  -13.0637   18.5581 C   0  0  0  0  0  0  0  0  0  0  0  0
    9.3400  -13.8332   18.8550 N   0  0  0  0  0  0  0  0  0  0  0  0
    8.3142  -17.3187   21.0139 C   0  0  0  0  0  0  0  0  0  0  0  0
    7.1215  -16.9534   21.1166 O   0  0  0  0  0  0  0  0  0  0  0  0
    6.0463  -21.3227   24.1339 N   0  0  0  0  0  0  0  0  0  0  0  0
    7.2018  -20.6225   24.5481 C   0  0  0  0  0  0  0  0  0  0  0  0
    7.3458  -20.2954   25.7490 O   0  0  0  0  0  0  0  0  0  0  0  0
    8.2768  -20.2600   23.5496 C   0  0  0  0  0  0  0  0  0  0  0  0
    8.9180  -19.0115   24.0171 C   0  0  0  0  0  0  0  0  0  0  0  0
    8.4386  -17.7223   23.4685 C   0  0  2  0  0  0  0  0  0  0  0  0
    9.0849  -17.5933   22.1463 N   0  0  0  0  0  0  0  0  0  0  0  0
    8.8477  -16.5229   24.2127 C   0  0  0  0  0  0  0  0  0  0  0  0
    9.9711  -15.9384   23.9902 O   0  0  0  0  0  0  0  0  0  0  0  0
    8.0224  -15.9627   25.1946 N   0  0  0  0  0  0  0  0  0  0  0  0
    8.3487  -14.7401   25.9261 C   0  0  1  0  0  0  0  0  0  0  0  0
    7.0896  -13.9889   26.1681 C   0  0  0  0  0  0  0  0  0  0  0  0
    7.1601  -12.7422   26.9579 C   0  0  0  0  0  0  0  0  0  0  0  0
    5.8250  -12.0888   27.1951 C   0  0  0  0  0  0  0  0  0  0  0  0
    6.1317  -10.8455   28.0599 C   0  0  0  0  0  0  0  0  0  0  0  0
    4.9031  -10.1463   28.3064 N   0  0  0  0  0  0  0  0  0  0  0  0
    9.1824  -15.0447   27.0698 C   0  0  0  0  0  0  0  0  0  0  0  0
    9.3274  -16.2585   27.4224 O   0  0  0  0  0  0  0  0  0  0  0  0
    9.8435  -14.1009   27.8238 O   0  0  0  0  0  0  0  0  0  0  0  0
  2  1  1  6
  2  9  1  0
  3  2  1  0
  3  4  1  0
  4  5  2  0
  5  6  1  0
  7  6  1  0
  8  4  1  0
  8  7  2  0
  9 17  1  0
  9 10  2  0
 11 12  1  0
 12 14  1  0
 13 12  2  0
 14 15  1  0
 16 15  1  1
 16 18  1  0
 17 16  1  0
 18 19  2  0
 20 21  1  0
 20 18  1  0
 21 22  1  1
 23 22  1  0
 24 25  1  0
 24 23  1  0
 26 25  1  0
 27 21  1  0
 27 29  1  0
 28 27  2  0
M  END
$$$$
