HQK.pdb
     RDKit          3D

 29 29  0  0  1  0  0  0  0  0999 V2000
    9.7314  -15.7803   18.8074 N   0  0  0  0  0  0  0  0  0  0  0  0
    8.8393  -15.0077   19.6461 C   0  0  1  0  0  0  0  0  0  0  0  0
    7.4554  -15.0716   18.9836 C   0  0  0  0  0  0  0  0  0  0  0  0
    7.5675  -14.6002   17.6048 C   0  0  0  0  0  0  0  0  0  0  0  0
    7.6906  -13.2845   17.2132 C   0  0  0  0  0  0  0  0  0  0  0  0
    7.7663  -13.2683   15.8574 N   0  0  0  0  0  0  0  0  0  0  0  0
    7.6941  -14.5245   15.4074 C   0  0  0  0  0  0  0  0  0  0  0  0
    7.5739  -15.3163   16.4840 N   0  0  0  0  0  0  0  0  0  0  0  0
    8.7015  -15.6934   20.9437 C   0  0  0  0  0  0  0  0  0  0  0  0
    7.6392  -15.5526   21.5904 O   0  0  0  0  0  0  0  0  0  0  0  0
   12.4714  -20.1523   22.5537 N   0  0  0  0  0  0  0  0  0  0  0  0
   12.0581  -19.8276   23.8654 C   0  0  0  0  0  0  0  0  0  0  0  0
   12.6241  -20.3499   24.8537 O   0  0  0  0  0  0  0  0  0  0  0  0
   10.9300  -18.8479   24.0927 C   0  0  0  0  0  0  0  0  0  0  0  0
   10.7192  -18.1084   22.8289 C   0  0  0  0  0  0  0  0  0  0  0  0
    9.6497  -17.0854   22.7785 C   0  0  2  0  0  0  0  0  0  0  0  0
    9.7446  -16.4836   21.4326 N   0  0  0  0  0  0  0  0  0  0  0  0
    9.8011  -15.9604   23.7119 C   0  0  0  0  0  0  0  0  0  0  0  0
   10.7620  -15.1132   23.6010 O   0  0  0  0  0  0  0  0  0  0  0  0
    8.8960  -15.7623   24.7610 N   0  0  0  0  0  0  0  0  0  0  0  0
    9.0161  -14.6856   25.7421 C   0  0  1  0  0  0  0  0  0  0  0  0
    7.7407  -13.9231   25.7592 C   0  0  0  0  0  0  0  0  0  0  0  0
    7.5913  -12.8327   26.7449 C   0  0  0  0  0  0  0  0  0  0  0  0
    6.2758  -12.1059   26.6624 C   0  0  0  0  0  0  0  0  0  0  0  0
    6.3554  -11.0026   27.7414 C   0  0  0  0  0  0  0  0  0  0  0  0
    5.1153  -10.2806   27.7487 N   0  0  0  0  0  0  0  0  0  0  0  0
    9.5085  -15.2038   27.0009 C   0  0  0  0  0  0  0  0  0  0  0  0
   10.5157  -14.6492   27.5455 O   0  0  0  0  0  0  0  0  0  0  0  0
    8.9600  -16.2763   27.6683 O   0  0  0  0  0  0  0  0  0  0  0  0
  2  1  1  6
  2  9  1  0
  3  2  1  0
  3  4  1  0
  4  5  2  0
  5  6  1  0
  7  6  1  0
  8  4  1  0
  8  7  2  0
  9 17  1  0
  9 10  2  0
 11 12  1  0
 12 14  1  0
 13 12  2  0
 14 15  1  0
 16 15  1  1
 16 18  1  0
 17 16  1  0
 18 19  2  0
 20 21  1  0
 20 18  1  0
 21 22  1  1
 23 22  1  0
 24 25  1  0
 24 23  1  0
 26 25  1  0
 27 21  1  0
 27 29  1  0
 28 27  2  0
M  END
$$$$
