HQK.pdb
     RDKit          3D

 29 29  0  0  1  0  0  0  0  0999 V2000
   10.2682  -16.2139   16.4780 N   0  0  0  0  0  0  0  0  0  0  0  0
   10.3616  -15.1538   17.4596 C   0  0  1  0  0  0  0  0  0  0  0  0
    8.9756  -15.0412   18.1113 C   0  0  0  0  0  0  0  0  0  0  0  0
    8.0247  -14.5427   17.1199 C   0  0  0  0  0  0  0  0  0  0  0  0
    7.6196  -13.2324   16.9832 C   0  0  0  0  0  0  0  0  0  0  0  0
    6.7356  -13.1845   15.9534 N   0  0  0  0  0  0  0  0  0  0  0  0
    6.5862  -14.4162   15.4569 C   0  0  0  0  0  0  0  0  0  0  0  0
    7.3771  -15.2244   16.1791 N   0  0  0  0  0  0  0  0  0  0  0  0
   11.2808  -15.5826   18.5294 C   0  0  0  0  0  0  0  0  0  0  0  0
   11.3197  -16.7941   18.8414 O   0  0  0  0  0  0  0  0  0  0  0  0
   15.9168  -16.0473   17.6777 N   0  0  0  0  0  0  0  0  0  0  0  0
   15.9617  -15.0836   18.7103 C   0  0  0  0  0  0  0  0  0  0  0  0
   16.8456  -15.1474   19.5961 O   0  0  0  0  0  0  0  0  0  0  0  0
   14.9460  -13.9656   18.7593 C   0  0  0  0  0  0  0  0  0  0  0  0
   14.2082  -14.0881   20.0356 C   0  0  0  0  0  0  0  0  0  0  0  0
   13.1233  -15.0914   20.1316 C   0  0  2  0  0  0  0  0  0  0  0  0
   12.0889  -14.6444   19.1761 N   0  0  0  0  0  0  0  0  0  0  0  0
   12.4384  -15.1654   21.4297 C   0  0  0  0  0  0  0  0  0  0  0  0
   11.3781  -14.4810   21.6759 O   0  0  0  0  0  0  0  0  0  0  0  0
   12.9128  -15.9940   22.4532 N   0  0  0  0  0  0  0  0  0  0  0  0
   12.0432  -16.7598   23.3440 C   0  0  1  0  0  0  0  0  0  0  0  0
   11.3387  -17.7909   22.5385 C   0  0  0  0  0  0  0  0  0  0  0  0
    9.8758  -17.6687   22.3718 C   0  0  0  0  0  0  0  0  0  0  0  0
    9.2811  -18.6658   21.4138 C   0  0  0  0  0  0  0  0  0  0  0  0
    7.7628  -18.3785   21.4224 C   0  0  0  0  0  0  0  0  0  0  0  0
    7.1203  -19.2903   20.5197 N   0  0  0  0  0  0  0  0  0  0  0  0
   12.7798  -17.2020   24.5093 C   0  0  0  0  0  0  0  0  0  0  0  0
   14.0427  -17.3320   24.4288 O   0  0  0  0  0  0  0  0  0  0  0  0
   12.2058  -17.5016   25.7247 O   0  0  0  0  0  0  0  0  0  0  0  0
  2  1  1  6
  2  9  1  0
  3  2  1  0
  3  4  1  0
  4  5  2  0
  5  6  1  0
  7  6  1  0
  8  4  1  0
  8  7  2  0
  9 17  1  0
  9 10  2  0
 11 12  1  0
 12 14  1  0
 13 12  2  0
 14 15  1  0
 16 15  1  1
 16 18  1  0
 17 16  1  0
 18 19  2  0
 20 21  1  0
 20 18  1  0
 21 22  1  6
 23 22  1  0
 24 25  1  0
 24 23  1  0
 26 25  1  0
 27 21  1  0
 27 29  1  0
 28 27  2  0
M  END
$$$$
