HQK.pdb
     RDKit          3D

 29 29  0  0  1  0  0  0  0  0999 V2000
   10.4347  -15.5672   13.7971 N   0  0  0  0  0  0  0  0  0  0  0  0
   11.4057  -16.2493   14.6265 C   0  0  1  0  0  0  0  0  0  0  0  0
   12.7817  -15.6927   14.2325 C   0  0  0  0  0  0  0  0  0  0  0  0
   13.2440  -16.3798   13.0284 C   0  0  0  0  0  0  0  0  0  0  0  0
   12.7798  -16.1595   11.7495 C   0  0  0  0  0  0  0  0  0  0  0  0
   13.4598  -16.9925   10.9201 N   0  0  0  0  0  0  0  0  0  0  0  0
   14.3212  -17.7126   11.6450 C   0  0  0  0  0  0  0  0  0  0  0  0
   14.1737  -17.3249   12.9211 N   0  0  0  0  0  0  0  0  0  0  0  0
   11.1910  -15.8488   16.0289 C   0  0  0  0  0  0  0  0  0  0  0  0
   10.7664  -14.6961   16.2687 O   0  0  0  0  0  0  0  0  0  0  0  0
    8.2658  -19.2568   19.6212 N   0  0  0  0  0  0  0  0  0  0  0  0
    7.7407  -18.2364   18.7966 C   0  0  0  0  0  0  0  0  0  0  0  0
    6.5192  -18.2149   18.5184 O   0  0  0  0  0  0  0  0  0  0  0  0
    8.6441  -17.1598   18.2408 C   0  0  0  0  0  0  0  0  0  0  0  0
    9.9976  -17.3826   18.7947 C   0  0  0  0  0  0  0  0  0  0  0  0
   11.0696  -16.4210   18.4499 C   0  0  2  0  0  0  0  0  0  0  0  0
   11.4602  -16.7484   17.0632 N   0  0  0  0  0  0  0  0  0  0  0  0
   12.3070  -16.5398   19.2338 C   0  0  0  0  0  0  0  0  0  0  0  0
   13.1113  -17.5316   19.0834 O   0  0  0  0  0  0  0  0  0  0  0  0
   12.6638  -15.5684   20.1764 N   0  0  0  0  0  0  0  0  0  0  0  0
   13.8623  -15.6494   21.0090 C   0  0  1  0  0  0  0  0  0  0  0  0
   14.6788  -14.4302   20.7744 C   0  0  0  0  0  0  0  0  0  0  0  0
   15.4410  -14.3313   19.5125 C   0  0  0  0  0  0  0  0  0  0  0  0
   16.2926  -13.0949   19.4043 C   0  0  0  0  0  0  0  0  0  0  0  0
   16.8960  -13.1431   17.9825 C   0  0  0  0  0  0  0  0  0  0  0  0
   17.5773  -11.9050   17.7334 N   0  0  0  0  0  0  0  0  0  0  0  0
   13.5058  -15.9693   22.3751 C   0  0  0  0  0  0  0  0  0  0  0  0
   14.4314  -16.1975   23.2176 O   0  0  0  0  0  0  0  0  0  0  0  0
   12.2132  -16.0497   22.8432 O   0  0  0  0  0  0  0  0  0  0  0  0
  2  1  1  6
  2  9  1  0
  3  2  1  0
  3  4  1  0
  4  5  2  0
  5  6  1  0
  7  6  1  0
  8  4  1  0
  8  7  2  0
  9 17  1  0
  9 10  2  0
 11 12  1  0
 12 14  1  0
 13 12  2  0
 14 15  1  0
 16 15  1  1
 16 18  1  0
 17 16  1  0
 18 19  2  0
 20 21  1  0
 20 18  1  0
 21 22  1  1
 23 22  1  0
 24 25  1  0
 24 23  1  0
 26 25  1  0
 27 21  1  0
 27 29  1  0
 28 27  2  0
M  END
$$$$
