HQK.pdb
     RDKit          3D

 29 29  0  0  1  0  0  0  0  0999 V2000
    1.5914  -23.4728   23.0468 N   0  0  0  0  0  0  0  0  0  0  0  0
    0.6222  -22.9552   23.9896 C   0  0  1  0  0  0  0  0  0  0  0  0
   -0.4158  -22.1803   23.1647 C   0  0  0  0  0  0  0  0  0  0  0  0
    0.2079  -20.9698   22.6343 C   0  0  0  0  0  0  0  0  0  0  0  0
    0.6233  -20.7840   21.3334 C   0  0  0  0  0  0  0  0  0  0  0  0
    1.1465  -19.5338   21.2472 N   0  0  0  0  0  0  0  0  0  0  0  0
    1.0658  -18.9500   22.4466 C   0  0  0  0  0  0  0  0  0  0  0  0
    0.4933  -19.8386   23.2732 N   0  0  0  0  0  0  0  0  0  0  0  0
   -0.1011  -24.0897   24.5918 C   0  0  0  0  0  0  0  0  0  0  0  0
   -0.2798  -25.1225   23.9078 O   0  0  0  0  0  0  0  0  0  0  0  0
    0.3300  -25.2677   30.4543 N   0  0  0  0  0  0  0  0  0  0  0  0
    1.1098  -26.0041   29.5342 C   0  0  0  0  0  0  0  0  0  0  0  0
    2.1431  -26.6005   29.9169 O   0  0  0  0  0  0  0  0  0  0  0  0
    0.7080  -26.0817   28.0793 C   0  0  0  0  0  0  0  0  0  0  0  0
   -0.4964  -25.2409   27.9031 C   0  0  0  0  0  0  0  0  0  0  0  0
   -1.1371  -25.1948   26.5689 C   0  0  2  0  0  0  0  0  0  0  0  0
   -0.5739  -24.0020   25.9034 N   0  0  0  0  0  0  0  0  0  0  0  0
   -2.5912  -24.9818   26.5687 C   0  0  0  0  0  0  0  0  0  0  0  0
   -3.1030  -23.8031   26.6148 O   0  0  0  0  0  0  0  0  0  0  0  0
   -3.4816  -26.0603   26.5115 N   0  0  0  0  0  0  0  0  0  0  0  0
   -4.9345  -25.9156   26.5790 C   0  0  1  0  0  0  0  0  0  0  0  0
   -5.5534  -27.1877   26.1239 C   0  0  0  0  0  0  0  0  0  0  0  0
   -6.4110  -27.9268   27.0731 C   0  0  0  0  0  0  0  0  0  0  0  0
   -7.0702  -29.1455   26.4850 C   0  0  0  0  0  0  0  0  0  0  0  0
   -7.9144  -29.7421   27.6336 C   0  0  0  0  0  0  0  0  0  0  0  0
   -8.6525  -30.8621   27.1237 N   0  0  0  0  0  0  0  0  0  0  0  0
   -5.3296  -25.3987   27.8722 C   0  0  0  0  0  0  0  0  0  0  0  0
   -6.3930  -24.7060   27.9617 O   0  0  0  0  0  0  0  0  0  0  0  0
   -4.6264  -25.6013   29.0388 O   0  0  0  0  0  0  0  0  0  0  0  0
  2  1  1  6
  2  9  1  0
  3  2  1  0
  3  4  1  0
  4  5  2  0
  5  6  1  0
  7  6  1  0
  8  4  1  0
  8  7  2  0
  9 17  1  0
  9 10  2  0
 11 12  1  0
 12 14  1  0
 13 12  2  0
 14 15  1  0
 16 15  1  1
 16 18  1  0
 17 16  1  0
 18 19  2  0
 20 21  1  0
 20 18  1  0
 21 22  1  1
 23 22  1  0
 24 25  1  0
 24 23  1  0
 26 25  1  0
 27 21  1  0
 27 29  1  0
 28 27  2  0
M  END
$$$$
