WRE.pdb
     RDKit          3D

 35 36  0  0  1  0  0  0  0  0999 V2000
    6.2337  -17.1432   24.5548 N   0  0  0  0  0  0  0  0  0  0  0  0
    7.0513  -16.0029   24.0866 C   0  0  1  0  0  0  0  0  0  0  0  0
    7.8224  -15.5625   25.2815 C   0  0  0  0  0  0  0  0  0  0  0  0
    7.1229  -14.7008   26.2442 C   0  0  0  0  0  0  0  0  0  0  0  0
    6.2262  -14.9964   27.2284 C   0  0  0  0  0  0  0  0  0  0  0  0
    5.8724  -13.8475   27.8361 N   0  0  0  0  0  0  0  0  0  0  0  0
    6.5210  -12.8411   27.2634 C   0  0  0  0  0  0  0  0  0  0  0  0
    6.5255  -11.4762   27.5012 C   0  0  0  0  0  0  0  0  0  0  0  0
    7.3193  -10.6219   26.7409 C   0  0  0  0  0  0  0  0  0  0  0  0
    8.1181  -11.1113   25.7343 C   0  0  0  0  0  0  0  0  0  0  0  0
    8.1205  -12.4648   25.4893 C   0  0  0  0  0  0  0  0  0  0  0  0
    7.3268  -13.3083   26.2522 C   0  0  0  0  0  0  0  0  0  0  0  0
    7.8719  -16.5197   22.9625 C   0  0  0  0  0  0  0  0  0  0  0  0
    8.2805  -17.7294   22.9322 O   0  0  0  0  0  0  0  0  0  0  0  0
    9.0807  -14.5368   14.8207 N   0  0  0  0  0  0  0  0  0  0  0  0
    8.2608  -13.9779   15.8319 C   0  0  0  0  0  0  0  0  0  0  0  0
    7.5015  -12.9480   15.5802 N   0  0  0  0  0  0  0  0  0  0  0  0
    8.2710  -14.5507   17.1246 N   0  0  0  0  0  0  0  0  0  0  0  0
    7.5419  -13.9403   18.2162 C   0  0  0  0  0  0  0  0  0  0  0  0
    7.6957  -14.7357   19.4799 C   0  0  0  0  0  0  0  0  0  0  0  0
    9.0024  -15.4912   19.5228 C   0  0  0  0  0  0  0  0  0  0  0  0
    9.1942  -16.1841   20.8159 C   0  0  2  0  0  0  0  0  0  0  0  0
    8.2591  -15.7191   21.8494 N   0  0  0  0  0  0  0  0  0  0  0  0
   10.5455  -16.3061   21.3498 C   0  0  0  0  0  0  0  0  0  0  0  0
   11.0741  -15.4626   22.1298 O   0  0  0  0  0  0  0  0  0  0  0  0
    6.8607  -12.5486   16.2829 N   0  0  0  0  0  0  0  0  0  0  0  0
   11.3792  -17.4199   21.0068 C   0  0  1  0  0  0  0  0  0  0  0  0
   12.8115  -17.2721   20.9430 C   0  0  0  0  0  0  0  0  0  0  0  0
   13.1631  -16.0294   20.2262 C   0  0  0  0  0  0  0  0  0  0  0  0
   14.6125  -15.7017   20.1446 C   0  0  0  0  0  0  0  0  0  0  0  0
   14.9431  -14.5023   19.3587 O   0  0  0  0  0  0  0  0  0  0  0  0
   15.3547  -13.4044   19.8403 C   0  0  0  0  0  0  0  0  0  0  0  0
   13.3491  -17.3486   22.3183 O   0  0  0  0  0  0  0  0  0  0  0  0
   12.5702  -17.2814   23.4673 O   0  0  0  0  0  0  0  0  0  0  0  0
   14.7999  -14.5550   17.9724 O   0  0  0  0  0  0  0  0  0  0  0  0
  2  1  1  1
  3  4  1  0
  3  2  1  0
  4  5  2  0
  5  6  1  0
  7  6  1  0
  8  7  2  0
  9  8  1  0
 10 11  1  0
 10  9  2  0
 11 12  2  0
 12  4  1  0
 12  7  1  0
 13  2  1  0
 13 14  2  0
 15 16  1  0
 16 17  2  0
 18 16  1  0
 18 19  1  0
 20 21  1  0
 20 19  1  0
 22 21  1  6
 22 23  1  0
 23 13  1  0
 24 22  1  0
 25 24  2  0
 26 24  1  0
 27 26  1  0
 27 28  1  6
 29 28  1  0
 30 34  1  0
 30 29  1  0
 31 30  2  0
 32 27  1  0
 32 33  1  0
 35 32  2  0
M  END
$$$$
