WRE.pdb
     RDKit          3D

 35 36  0  0  1  0  0  0  0  0999 V2000
    6.9136  -18.3840   25.6999 N   0  0  0  0  0  0  0  0  0  0  0  0
    7.4935  -17.1444   25.1386 C   0  0  1  0  0  0  0  0  0  0  0  0
    7.9874  -16.3797   26.3166 C   0  0  0  0  0  0  0  0  0  0  0  0
    7.1344  -15.2884   26.8066 C   0  0  0  0  0  0  0  0  0  0  0  0
    6.0319  -15.3010   27.6094 C   0  0  0  0  0  0  0  0  0  0  0  0
    5.6065  -14.0321   27.7622 N   0  0  0  0  0  0  0  0  0  0  0  0
    6.4096  -13.2246   27.0805 C   0  0  0  0  0  0  0  0  0  0  0  0
    6.4241  -11.8503   26.9059 C   0  0  0  0  0  0  0  0  0  0  0  0
    7.4028  -11.2402   26.1261 C   0  0  0  0  0  0  0  0  0  0  0  0
    8.3790  -11.9865   25.5091 C   0  0  0  0  0  0  0  0  0  0  0  0
    8.3733  -13.3519   25.6753 C   0  0  0  0  0  0  0  0  0  0  0  0
    7.3947  -13.9509   26.4543 C   0  0  0  0  0  0  0  0  0  0  0  0
    8.5439  -17.5779   24.1833 C   0  0  0  0  0  0  0  0  0  0  0  0
    9.2852  -18.5914   24.4173 O   0  0  0  0  0  0  0  0  0  0  0  0
    7.9690  -13.9996   16.6301 N   0  0  0  0  0  0  0  0  0  0  0  0
    8.2355  -13.1352   17.7205 C   0  0  0  0  0  0  0  0  0  0  0  0
    8.1124  -11.8434   17.5919 N   0  0  0  0  0  0  0  0  0  0  0  0
    8.6370  -13.6883   18.9582 N   0  0  0  0  0  0  0  0  0  0  0  0
    8.9678  -15.0929   19.0749 C   0  0  0  0  0  0  0  0  0  0  0  0
    9.2536  -15.4637   20.5010 C   0  0  0  0  0  0  0  0  0  0  0  0
    9.6378  -16.9166   20.6465 C   0  0  0  0  0  0  0  0  0  0  0  0
    9.9058  -17.2755   22.0567 C   0  0  2  0  0  0  0  0  0  0  0  0
    8.8005  -16.9082   22.9522 N   0  0  0  0  0  0  0  0  0  0  0  0
   11.1928  -16.9123   22.6379 C   0  0  0  0  0  0  0  0  0  0  0  0
   11.3471  -15.9877   23.4868 O   0  0  0  0  0  0  0  0  0  0  0  0
    8.3548  -11.1867   18.3496 N   0  0  0  0  0  0  0  0  0  0  0  0
   12.3937  -17.5995   22.2653 C   0  0  2  0  0  0  0  0  0  0  0  0
   13.6656  -17.2066   22.8181 C   0  0  0  0  0  0  0  0  0  0  0  0
   14.5954  -18.3543   22.8205 C   0  0  0  0  0  0  0  0  0  0  0  0
   15.9507  -18.1048   23.3823 C   0  0  0  0  0  0  0  0  0  0  0  0
   16.8532  -19.2672   23.3878 O   0  0  0  0  0  0  0  0  0  0  0  0
   16.6216  -20.3685   23.9711 C   0  0  0  0  0  0  0  0  0  0  0  0
   14.1574  -16.0326   22.0657 O   0  0  0  0  0  0  0  0  0  0  0  0
   14.3634  -16.0146   20.6915 O   0  0  0  0  0  0  0  0  0  0  0  0
   18.0646  -19.1721   22.7035 O   0  0  0  0  0  0  0  0  0  0  0  0
  2  1  1  1
  3  4  1  0
  3  2  1  0
  4  5  2  0
  5  6  1  0
  7  6  1  0
  8  7  2  0
  9  8  1  0
 10 11  1  0
 10  9  2  0
 11 12  2  0
 12  4  1  0
 12  7  1  0
 13  2  1  0
 13 14  2  0
 15 16  1  0
 16 17  2  0
 18 16  1  0
 18 19  1  0
 20 21  1  0
 20 19  1  0
 22 21  1  6
 22 23  1  0
 23 13  1  0
 24 22  1  0
 25 24  2  0
 26 24  1  0
 27 26  1  0
 27 28  1  6
 29 28  1  0
 30 34  1  0
 30 29  1  0
 31 30  2  0
 32 27  1  0
 32 33  1  0
 35 32  2  0
M  END
$$$$
