WRE.pdb
     RDKit          3D

 35 36  0  0  1  0  0  0  0  0999 V2000
    6.6355  -17.6713   25.1940 N   0  0  0  0  0  0  0  0  0  0  0  0
    7.2619  -16.6745   24.2985 C   0  0  1  0  0  0  0  0  0  0  0  0
    8.0817  -15.8114   25.1925 C   0  0  0  0  0  0  0  0  0  0  0  0
    7.3619  -15.0367   26.2125 C   0  0  0  0  0  0  0  0  0  0  0  0
    6.8386  -15.4049   27.4170 C   0  0  0  0  0  0  0  0  0  0  0  0
    6.2697  -14.3210   27.9792 N   0  0  0  0  0  0  0  0  0  0  0  0
    6.4217  -13.2845   27.1640 C   0  0  0  0  0  0  0  0  0  0  0  0
    6.0353  -11.9574   27.2578 C   0  0  0  0  0  0  0  0  0  0  0  0
    6.3306  -11.0545   26.2402 C   0  0  0  0  0  0  0  0  0  0  0  0
    7.0124  -11.4575   25.1162 C   0  0  0  0  0  0  0  0  0  0  0  0
    7.4000  -12.7732   25.0126 C   0  0  0  0  0  0  0  0  0  0  0  0
    7.1018  -13.6655   26.0317 C   0  0  0  0  0  0  0  0  0  0  0  0
    8.0309  -17.4507   23.2934 C   0  0  0  0  0  0  0  0  0  0  0  0
    7.5751  -18.5328   22.7908 O   0  0  0  0  0  0  0  0  0  0  0  0
    7.5945  -13.7390   15.7624 N   0  0  0  0  0  0  0  0  0  0  0  0
    7.8445  -13.4643   17.1295 C   0  0  0  0  0  0  0  0  0  0  0  0
    8.5850  -12.4499   17.4805 N   0  0  0  0  0  0  0  0  0  0  0  0
    7.2791  -14.3033   18.1172 N   0  0  0  0  0  0  0  0  0  0  0  0
    7.4175  -13.9956   19.5251 C   0  0  0  0  0  0  0  0  0  0  0  0
    8.7180  -14.5146   20.0659 C   0  0  0  0  0  0  0  0  0  0  0  0
    8.5458  -15.2117   21.3941 C   0  0  0  0  0  0  0  0  0  0  0  0
    9.5120  -16.3195   21.5626 C   0  0  2  0  0  0  0  0  0  0  0  0
    9.3147  -17.0539   22.8198 N   0  0  0  0  0  0  0  0  0  0  0  0
   10.9265  -16.0550   21.3277 C   0  0  0  0  0  0  0  0  0  0  0  0
   11.3643  -15.3713   20.3581 O   0  0  0  0  0  0  0  0  0  0  0  0
    8.8844  -12.2951   18.4554 N   0  0  0  0  0  0  0  0  0  0  0  0
   11.9325  -16.5749   22.2058 C   0  0  1  0  0  0  0  0  0  0  0  0
   13.2226  -15.9391   22.3015 C   0  0  0  0  0  0  0  0  0  0  0  0
   13.9505  -16.4413   23.4846 C   0  0  0  0  0  0  0  0  0  0  0  0
   13.1418  -17.1772   24.4941 C   0  0  0  0  0  0  0  0  0  0  0  0
   13.9106  -17.7993   25.5839 O   0  0  0  0  0  0  0  0  0  0  0  0
   15.1747  -17.8020   25.6765 C   0  0  0  0  0  0  0  0  0  0  0  0
   13.9368  -16.1408   21.0226 O   0  0  0  0  0  0  0  0  0  0  0  0
   15.1984  -15.6299   20.7424 O   0  0  0  0  0  0  0  0  0  0  0  0
   13.2138  -18.4422   26.6067 O   0  0  0  0  0  0  0  0  0  0  0  0
  2  1  1  1
  3  4  1  0
  3  2  1  0
  4  5  2  0
  5  6  1  0
  7  6  1  0
  8  7  2  0
  9  8  1  0
 10 11  1  0
 10  9  2  0
 11 12  2  0
 12  4  1  0
 12  7  1  0
 13  2  1  0
 13 14  2  0
 15 16  1  0
 16 17  2  0
 18 16  1  0
 18 19  1  0
 20 21  1  0
 20 19  1  0
 22 21  1  1
 22 23  1  0
 23 13  1  0
 24 22  1  0
 25 24  2  0
 26 24  1  0
 27 26  1  0
 27 28  1  6
 29 28  1  0
 30 34  1  0
 30 29  1  0
 31 30  2  0
 32 27  1  0
 32 33  1  0
 35 32  2  0
M  END
$$$$
