WRE.pdb
     RDKit          3D

 35 36  0  0  1  0  0  0  0  0999 V2000
    7.8098  -17.5947   26.1497 N   0  0  0  0  0  0  0  0  0  0  0  0
    8.0457  -16.5360   25.1439 C   0  0  1  0  0  0  0  0  0  0  0  0
    8.9938  -15.5893   25.7929 C   0  0  0  0  0  0  0  0  0  0  0  0
    8.4590  -14.7463   26.8708 C   0  0  0  0  0  0  0  0  0  0  0  0
    8.6206  -14.8076   28.2236 C   0  0  0  0  0  0  0  0  0  0  0  0
    7.9156  -13.8031   28.7789 N   0  0  0  0  0  0  0  0  0  0  0  0
    7.3179  -13.1135   27.8151 C   0  0  0  0  0  0  0  0  0  0  0  0
    6.4918  -12.0016   27.8360 C   0  0  0  0  0  0  0  0  0  0  0  0
    5.9924  -11.4611   26.6542 C   0  0  0  0  0  0  0  0  0  0  0  0
    6.3061  -12.0180   25.4367 C   0  0  0  0  0  0  0  0  0  0  0  0
    7.1248  -13.1227   25.4048 C   0  0  0  0  0  0  0  0  0  0  0  0
    7.6180  -13.6540   26.5872 C   0  0  0  0  0  0  0  0  0  0  0  0
    8.5696  -17.2246   23.9375 C   0  0  0  0  0  0  0  0  0  0  0  0
    8.9492  -18.4436   23.9737 O   0  0  0  0  0  0  0  0  0  0  0  0
    8.2528  -13.7394   17.0825 N   0  0  0  0  0  0  0  0  0  0  0  0
    8.2176  -12.8968   18.2208 C   0  0  0  0  0  0  0  0  0  0  0  0
    8.2446  -11.5996   18.0903 N   0  0  0  0  0  0  0  0  0  0  0  0
    8.1506  -13.4775   19.5082 N   0  0  0  0  0  0  0  0  0  0  0  0
    8.7426  -14.7716   19.7740 C   0  0  0  0  0  0  0  0  0  0  0  0
    7.6996  -15.7669   20.1921 C   0  0  0  0  0  0  0  0  0  0  0  0
    8.2619  -17.1623   20.3207 C   0  0  0  0  0  0  0  0  0  0  0  0
    9.1857  -17.2786   21.4705 C   0  0  2  0  0  0  0  0  0  0  0  0
    8.6861  -16.5890   22.6677 N   0  0  0  0  0  0  0  0  0  0  0  0
   10.6018  -17.0019   21.2601 C   0  0  0  0  0  0  0  0  0  0  0  0
   11.2789  -17.4790   20.3045 O   0  0  0  0  0  0  0  0  0  0  0  0
    8.3300  -10.9643   18.8985 N   0  0  0  0  0  0  0  0  0  0  0  0
   11.3307  -16.1517   22.1541 C   0  0  1  0  0  0  0  0  0  0  0  0
   12.7479  -15.9512   21.9840 C   0  0  0  0  0  0  0  0  0  0  0  0
   13.4919  -17.1198   22.4961 C   0  0  0  0  0  0  0  0  0  0  0  0
   13.3397  -17.4155   23.9467 C   0  0  0  0  0  0  0  0  0  0  0  0
   14.1297  -18.5537   24.4431 O   0  0  0  0  0  0  0  0  0  0  0  0
   15.1972  -18.9871   23.9148 C   0  0  0  0  0  0  0  0  0  0  0  0
   13.0073  -15.6468   20.5605 O   0  0  0  0  0  0  0  0  0  0  0  0
   12.1911  -16.0544   19.5122 O   0  0  0  0  0  0  0  0  0  0  0  0
   13.6875  -19.2231   25.5838 O   0  0  0  0  0  0  0  0  0  0  0  0
  2  1  1  1
  3  4  1  0
  3  2  1  0
  4  5  2  0
  5  6  1  0
  7  6  1  0
  8  7  2  0
  9  8  1  0
 10 11  1  0
 10  9  2  0
 11 12  2  0
 12  4  1  0
 12  7  1  0
 13  2  1  0
 13 14  2  0
 15 16  1  0
 16 17  2  0
 18 16  1  0
 18 19  1  0
 20 21  1  0
 20 19  1  0
 22 21  1  6
 22 23  1  0
 23 13  1  0
 24 22  1  0
 25 24  2  0
 26 24  1  0
 27 26  1  0
 27 28  1  6
 29 28  1  0
 30 34  1  0
 30 29  1  0
 31 30  2  0
 32 27  1  0
 32 33  1  0
 35 32  2  0
M  END
$$$$
