WRE.pdb
     RDKit          3D

 35 36  0  0  1  0  0  0  0  0999 V2000
    6.3606  -17.2176   23.7296 N   0  0  0  0  0  0  0  0  0  0  0  0
    7.3371  -16.1638   23.3776 C   0  0  1  0  0  0  0  0  0  0  0  0
    7.9187  -15.7251   24.6759 C   0  0  0  0  0  0  0  0  0  0  0  0
    7.0818  -14.8642   25.5228 C   0  0  0  0  0  0  0  0  0  0  0  0
    6.2121  -15.1663   26.5290 C   0  0  0  0  0  0  0  0  0  0  0  0
    5.6855  -14.0159   26.9914 N   0  0  0  0  0  0  0  0  0  0  0  0
    6.1997  -13.0021   26.3062 C   0  0  0  0  0  0  0  0  0  0  0  0
    6.0062  -11.6321   26.3779 C   0  0  0  0  0  0  0  0  0  0  0  0
    6.6900  -10.7692   25.5257 C   0  0  0  0  0  0  0  0  0  0  0  0
    7.5738  -11.2552   24.5912 C   0  0  0  0  0  0  0  0  0  0  0  0
    7.7726  -12.6139   24.5111 C   0  0  0  0  0  0  0  0  0  0  0  0
    7.0873  -13.4659   25.3644 C   0  0  0  0  0  0  0  0  0  0  0  0
    8.2984  -16.7918   22.4366 C   0  0  0  0  0  0  0  0  0  0  0  0
    8.7207  -17.9851   22.6076 O   0  0  0  0  0  0  0  0  0  0  0  0
    6.3465  -13.3673   16.0477 N   0  0  0  0  0  0  0  0  0  0  0  0
    7.5549  -13.9561   16.4952 C   0  0  0  0  0  0  0  0  0  0  0  0
    7.9288  -15.1255   16.0556 N   0  0  0  0  0  0  0  0  0  0  0  0
    8.3587  -13.2601   17.4272 N   0  0  0  0  0  0  0  0  0  0  0  0
    9.5709  -13.8508   17.9538 C   0  0  0  0  0  0  0  0  0  0  0  0
    9.2736  -14.7381   19.1275 C   0  0  0  0  0  0  0  0  0  0  0  0
   10.5231  -15.3597   19.7036 C   0  0  0  0  0  0  0  0  0  0  0  0
   10.2251  -16.1970   20.8865 C   0  0  2  0  0  0  0  0  0  0  0  0
    8.8141  -16.1229   21.2892 N   0  0  0  0  0  0  0  0  0  0  0  0
   11.1053  -16.1079   22.0456 C   0  0  0  0  0  0  0  0  0  0  0  0
   11.5869  -15.0236   22.4833 O   0  0  0  0  0  0  0  0  0  0  0  0
    8.8030  -15.5782   16.3634 N   0  0  0  0  0  0  0  0  0  0  0  0
   11.4907  -17.2801   22.7742 C   0  0  2  0  0  0  0  0  0  0  0  0
   12.8084  -17.3867   23.3485 C   0  0  0  0  0  0  0  0  0  0  0  0
   13.0505  -18.7678   23.8129 C   0  0  0  0  0  0  0  0  0  0  0  0
   14.4221  -19.0675   24.3067 C   0  0  0  0  0  0  0  0  0  0  0  0
   14.6563  -20.4650   24.7041 O   0  0  0  0  0  0  0  0  0  0  0  0
   14.3997  -21.4800   23.9895 C   0  0  0  0  0  0  0  0  0  0  0  0
   13.7901  -16.9032   22.3541 O   0  0  0  0  0  0  0  0  0  0  0  0
   13.7532  -17.2189   21.0013 O   0  0  0  0  0  0  0  0  0  0  0  0
   15.2034  -20.7160   25.9620 O   0  0  0  0  0  0  0  0  0  0  0  0
  2  1  1  1
  3  4  1  0
  3  2  1  0
  4  5  2  0
  5  6  1  0
  7  6  1  0
  8  7  2  0
  9  8  1  0
 10 11  1  0
 10  9  2  0
 11 12  2  0
 12  4  1  0
 12  7  1  0
 13  2  1  0
 13 14  2  0
 15 16  1  0
 16 17  2  0
 18 16  1  0
 18 19  1  0
 20 21  1  0
 20 19  1  0
 22 21  1  6
 22 23  1  0
 23 13  1  0
 24 22  1  0
 25 24  2  0
 26 24  1  0
 27 26  1  0
 27 28  1  1
 29 28  1  0
 30 34  1  0
 30 29  1  0
 31 30  2  0
 32 27  1  0
 32 33  1  0
 35 32  2  0
M  END
$$$$
