WRE.pdb
     RDKit          3D

 35 36  0  0  1  0  0  0  0  0999 V2000
    6.6251  -17.7894   25.5656 N   0  0  0  0  0  0  0  0  0  0  0  0
    7.1807  -16.7042   24.7281 C   0  0  1  0  0  0  0  0  0  0  0  0
    7.9340  -15.8334   25.6718 C   0  0  0  0  0  0  0  0  0  0  0  0
    7.1493  -14.8802   26.4683 C   0  0  0  0  0  0  0  0  0  0  0  0
    6.2663  -15.0754   27.4893 C   0  0  0  0  0  0  0  0  0  0  0  0
    5.8069  -13.8729   27.8858 N   0  0  0  0  0  0  0  0  0  0  0  0
    6.3760  -12.9299   27.1450 C   0  0  0  0  0  0  0  0  0  0  0  0
    6.2607  -11.5493   27.1394 C   0  0  0  0  0  0  0  0  0  0  0  0
    6.9902  -10.7759   26.2406 C   0  0  0  0  0  0  0  0  0  0  0  0
    7.8428  -11.3630   25.3356 C   0  0  0  0  0  0  0  0  0  0  0  0
    7.9641  -12.7331   25.3322 C   0  0  0  0  0  0  0  0  0  0  0  0
    7.2337  -13.4955   26.2315 C   0  0  0  0  0  0  0  0  0  0  0  0
    8.0061  -17.3687   23.6884 C   0  0  0  0  0  0  0  0  0  0  0  0
    8.8213  -18.3080   23.9794 O   0  0  0  0  0  0  0  0  0  0  0  0
    7.2674  -12.6418   18.5852 N   0  0  0  0  0  0  0  0  0  0  0  0
    8.3946  -13.2486   17.9782 C   0  0  0  0  0  0  0  0  0  0  0  0
    9.4270  -12.5338   17.6265 N   0  0  0  0  0  0  0  0  0  0  0  0
    8.3919  -14.6451   17.7570 N   0  0  0  0  0  0  0  0  0  0  0  0
    7.4216  -15.5009   18.4066 C   0  0  0  0  0  0  0  0  0  0  0  0
    7.7960  -15.7521   19.8383 C   0  0  0  0  0  0  0  0  0  0  0  0
    8.7329  -16.9270   19.9852 C   0  0  0  0  0  0  0  0  0  0  0  0
    9.0962  -17.1666   21.3993 C   0  0  2  0  0  0  0  0  0  0  0  0
    7.9523  -17.0161   22.3090 N   0  0  0  0  0  0  0  0  0  0  0  0
   10.2820  -16.5105   21.9371 C   0  0  0  0  0  0  0  0  0  0  0  0
   10.2492  -15.4559   22.6344 O   0  0  0  0  0  0  0  0  0  0  0  0
   10.2485  -12.9433   17.1558 N   0  0  0  0  0  0  0  0  0  0  0  0
   11.5929  -17.0361   21.6947 C   0  0  2  0  0  0  0  0  0  0  0  0
   12.7645  -16.3030   22.1040 C   0  0  0  0  0  0  0  0  0  0  0  0
   13.3359  -16.8999   23.3283 C   0  0  0  0  0  0  0  0  0  0  0  0
   13.6327  -18.3573   23.2760 C   0  0  0  0  0  0  0  0  0  0  0  0
   14.3325  -18.8994   24.4516 O   0  0  0  0  0  0  0  0  0  0  0  0
   14.7867  -18.2098   25.4132 C   0  0  0  0  0  0  0  0  0  0  0  0
   13.7033  -16.2512   20.9628 O   0  0  0  0  0  0  0  0  0  0  0  0
   14.9241  -15.5875   20.9838 O   0  0  0  0  0  0  0  0  0  0  0  0
   14.5219  -20.2786   24.5355 O   0  0  0  0  0  0  0  0  0  0  0  0
  2  1  1  1
  3  4  1  0
  3  2  1  0
  4  5  2  0
  5  6  1  0
  7  6  1  0
  8  7  2  0
  9  8  1  0
 10 11  1  0
 10  9  2  0
 11 12  2  0
 12  4  1  0
 12  7  1  0
 13  2  1  0
 13 14  2  0
 15 16  1  0
 16 17  2  0
 18 16  1  0
 18 19  1  0
 20 21  1  0
 20 19  1  0
 22 21  1  6
 22 23  1  0
 23 13  1  0
 24 22  1  0
 25 24  2  0
 26 24  1  0
 27 26  1  0
 27 28  1  6
 29 28  1  0
 30 34  1  0
 30 29  1  0
 31 30  2  0
 32 27  1  0
 32 33  1  0
 35 32  2  0
M  END
$$$$
