WRE.pdb
     RDKit          3D

 35 36  0  0  1  0  0  0  0  0999 V2000
    6.6832  -17.0724   24.5512 N   0  0  0  0  0  0  0  0  0  0  0  0
    7.1641  -15.7259   24.1723 C   0  0  1  0  0  0  0  0  0  0  0  0
    8.3782  -15.4998   25.0036 C   0  0  0  0  0  0  0  0  0  0  0  0
    8.1859  -14.8167   26.2901 C   0  0  0  0  0  0  0  0  0  0  0  0
    8.3652  -15.2473   27.5717 C   0  0  0  0  0  0  0  0  0  0  0  0
    8.0470  -14.2377   28.4047 N   0  0  0  0  0  0  0  0  0  0  0  0
    7.6747  -13.1872   27.6840 C   0  0  0  0  0  0  0  0  0  0  0  0
    7.2588  -11.9131   28.0350 C   0  0  0  0  0  0  0  0  0  0  0  0
    6.9230  -10.9780   27.0598 C   0  0  0  0  0  0  0  0  0  0  0  0
    6.9951  -11.2958   25.7239 C   0  0  0  0  0  0  0  0  0  0  0  0
    7.4061  -12.5583   25.3646 C   0  0  0  0  0  0  0  0  0  0  0  0
    7.7390  -13.4832   26.3430 C   0  0  0  0  0  0  0  0  0  0  0  0
    7.4028  -15.7719   22.7077 C   0  0  0  0  0  0  0  0  0  0  0  0
    7.2462  -16.8474   22.0368 O   0  0  0  0  0  0  0  0  0  0  0  0
    7.6538  -13.6318   14.5979 N   0  0  0  0  0  0  0  0  0  0  0  0
    7.9801  -14.8108   15.3125 C   0  0  0  0  0  0  0  0  0  0  0  0
    8.5808  -15.8046   14.7191 N   0  0  0  0  0  0  0  0  0  0  0  0
    7.6487  -14.9013   16.6841 N   0  0  0  0  0  0  0  0  0  0  0  0
    7.3360  -13.7166   17.4552 C   0  0  0  0  0  0  0  0  0  0  0  0
    8.4356  -13.3986   18.4262 C   0  0  0  0  0  0  0  0  0  0  0  0
    7.9454  -13.3714   19.8541 C   0  0  0  0  0  0  0  0  0  0  0  0
    8.0796  -14.6927   20.5063 C   0  0  2  0  0  0  0  0  0  0  0  0
    7.8172  -14.6381   21.9509 N   0  0  0  0  0  0  0  0  0  0  0  0
    9.2615  -15.4970   20.2194 C   0  0  0  0  0  0  0  0  0  0  0  0
    9.4206  -16.1615   19.1553 O   0  0  0  0  0  0  0  0  0  0  0  0
    8.9473  -16.6179   15.2371 N   0  0  0  0  0  0  0  0  0  0  0  0
   10.3409  -15.5873   21.1574 C   0  0  1  0  0  0  0  0  0  0  0  0
   11.5590  -16.2754   20.8103 C   0  0  0  0  0  0  0  0  0  0  0  0
   12.7076  -15.6569   21.5030 C   0  0  0  0  0  0  0  0  0  0  0  0
   13.2832  -16.4236   22.6413 C   0  0  0  0  0  0  0  0  0  0  0  0
   14.1401  -15.6485   23.5526 O   0  0  0  0  0  0  0  0  0  0  0  0
   15.2236  -15.0770   23.2267 C   0  0  0  0  0  0  0  0  0  0  0  0
   11.3806  -17.7137   21.1030 O   0  0  0  0  0  0  0  0  0  0  0  0
   12.2081  -18.7191   20.6177 O   0  0  0  0  0  0  0  0  0  0  0  0
   13.7487  -15.5193   24.8849 O   0  0  0  0  0  0  0  0  0  0  0  0
  2  1  1  1
  3  4  1  0
  3  2  1  0
  4  5  2  0
  5  6  1  0
  7  6  1  0
  8  7  2  0
  9  8  1  0
 10 11  1  0
 10  9  2  0
 11 12  2  0
 12  4  1  0
 12  7  1  0
 13  2  1  0
 13 14  2  0
 15 16  1  0
 16 17  2  0
 18 16  1  0
 18 19  1  0
 20 21  1  0
 20 19  1  0
 22 21  1  1
 22 23  1  0
 23 13  1  0
 24 22  1  0
 25 24  2  0
 26 24  1  0
 27 26  1  0
 27 28  1  1
 29 28  1  0
 30 34  1  0
 30 29  1  0
 31 30  2  0
 32 27  1  0
 32 33  1  0
 35 32  2  0
M  END
$$$$
