WRE.pdb
     RDKit          3D

 35 36  0  0  1  0  0  0  0  0999 V2000
    6.7299  -17.4521   24.3711 N   0  0  0  0  0  0  0  0  0  0  0  0
    7.6450  -16.3431   24.0239 C   0  0  1  0  0  0  0  0  0  0  0  0
    8.2268  -15.9002   25.3208 C   0  0  0  0  0  0  0  0  0  0  0  0
    7.3740  -15.0722   26.1844 C   0  0  0  0  0  0  0  0  0  0  0  0
    6.5501  -15.4055   27.2189 C   0  0  0  0  0  0  0  0  0  0  0  0
    5.9816  -14.2773   27.6862 N   0  0  0  0  0  0  0  0  0  0  0  0
    6.4251  -13.2470   26.9766 C   0  0  0  0  0  0  0  0  0  0  0  0
    6.1669  -11.8874   27.0414 C   0  0  0  0  0  0  0  0  0  0  0  0
    6.7823  -11.0013   26.1614 C   0  0  0  0  0  0  0  0  0  0  0  0
    7.6610  -11.4537   25.2053 C   0  0  0  0  0  0  0  0  0  0  0  0
    7.9236  -12.8018   25.1318 C   0  0  0  0  0  0  0  0  0  0  0  0
    7.3064  -13.6770   26.0131 C   0  0  0  0  0  0  0  0  0  0  0  0
    8.6200  -16.9028   23.0544 C   0  0  0  0  0  0  0  0  0  0  0  0
    8.8344  -18.1591   22.9695 O   0  0  0  0  0  0  0  0  0  0  0  0
    7.2869  -14.7184   17.0761 N   0  0  0  0  0  0  0  0  0  0  0  0
    7.5407  -13.5353   17.8129 C   0  0  0  0  0  0  0  0  0  0  0  0
    6.5647  -12.7399   18.1525 N   0  0  0  0  0  0  0  0  0  0  0  0
    8.8695  -13.2226   18.1814 N   0  0  0  0  0  0  0  0  0  0  0  0
    9.8819  -14.2539   18.2662 C   0  0  0  0  0  0  0  0  0  0  0  0
   10.0730  -14.7078   19.6841 C   0  0  0  0  0  0  0  0  0  0  0  0
   10.0667  -16.2127   19.8070 C   0  0  0  0  0  0  0  0  0  0  0  0
   10.3361  -16.6518   21.1940 C   0  0  2  0  0  0  0  0  0  0  0  0
    9.3778  -16.0947   22.1584 N   0  0  0  0  0  0  0  0  0  0  0  0
   11.7000  -16.5649   21.7022 C   0  0  0  0  0  0  0  0  0  0  0  0
   12.3216  -15.4765   21.8705 O   0  0  0  0  0  0  0  0  0  0  0  0
    6.7272  -11.8265   18.6034 N   0  0  0  0  0  0  0  0  0  0  0  0
   12.4385  -17.7439   22.0456 C   0  0  2  0  0  0  0  0  0  0  0  0
   13.8245  -17.6552   22.4312 C   0  0  0  0  0  0  0  0  0  0  0  0
   14.5027  -16.5997   21.6516 C   0  0  0  0  0  0  0  0  0  0  0  0
   15.8992  -16.2770   22.0523 C   0  0  0  0  0  0  0  0  0  0  0  0
   16.5668  -15.2509   21.2357 O   0  0  0  0  0  0  0  0  0  0  0  0
   16.2948  -14.9900   20.0255 C   0  0  0  0  0  0  0  0  0  0  0  0
   13.8887  -17.4599   23.8955 O   0  0  0  0  0  0  0  0  0  0  0  0
   12.7881  -17.1783   24.6959 O   0  0  0  0  0  0  0  0  0  0  0  0
   17.5821  -14.4933   21.8190 O   0  0  0  0  0  0  0  0  0  0  0  0
  2  1  1  1
  3  4  1  0
  3  2  1  0
  4  5  2  0
  5  6  1  0
  7  6  1  0
  8  7  2  0
  9  8  1  0
 10 11  1  0
 10  9  2  0
 11 12  2  0
 12  4  1  0
 12  7  1  0
 13  2  1  0
 13 14  2  0
 15 16  1  0
 16 17  2  0
 18 16  1  0
 18 19  1  0
 20 21  1  0
 20 19  1  0
 22 21  1  6
 22 23  1  0
 23 13  1  0
 24 22  1  0
 25 24  2  0
 26 24  1  0
 27 26  1  0
 27 28  1  6
 29 28  1  0
 30 34  1  0
 30 29  1  0
 31 30  2  0
 32 27  1  0
 32 33  1  0
 35 32  2  0
M  END
$$$$
