WRE.pdb
     RDKit          3D

 35 36  0  0  1  0  0  0  0  0999 V2000
    7.2425  -16.7100   26.4149 N   0  0  0  0  0  0  0  0  0  0  0  0
    7.6900  -15.7946   25.3426 C   0  0  1  0  0  0  0  0  0  0  0  0
    8.8128  -15.0195   25.9384 C   0  0  0  0  0  0  0  0  0  0  0  0
    8.4709  -14.0607   26.9979 C   0  0  0  0  0  0  0  0  0  0  0  0
    8.8563  -13.9901   28.3043 C   0  0  0  0  0  0  0  0  0  0  0  0
    8.2602  -12.9191   28.8630 N   0  0  0  0  0  0  0  0  0  0  0  0
    7.5139  -12.3158   27.9461 C   0  0  0  0  0  0  0  0  0  0  0  0
    6.7097  -11.1885   27.9896 C   0  0  0  0  0  0  0  0  0  0  0  0
    6.0229  -10.7576   26.8579 C   0  0  0  0  0  0  0  0  0  0  0  0
    6.1250  -11.4406   25.6688 C   0  0  0  0  0  0  0  0  0  0  0  0
    6.9202  -12.5616   25.6149 C   0  0  0  0  0  0  0  0  0  0  0  0
    7.6010  -12.9832   26.7473 C   0  0  0  0  0  0  0  0  0  0  0  0
    8.0605  -16.6579   24.1932 C   0  0  0  0  0  0  0  0  0  0  0  0
    8.4986  -17.8459   24.3614 O   0  0  0  0  0  0  0  0  0  0  0  0
    7.9894  -12.1443   18.5271 N   0  0  0  0  0  0  0  0  0  0  0  0
    8.5887  -13.1683   17.7530 C   0  0  0  0  0  0  0  0  0  0  0  0
    9.5642  -12.8974   16.9311 N   0  0  0  0  0  0  0  0  0  0  0  0
    8.1187  -14.4957   17.8809 N   0  0  0  0  0  0  0  0  0  0  0  0
    7.1638  -14.8526   18.9088 C   0  0  0  0  0  0  0  0  0  0  0  0
    7.8482  -15.0866   20.2240 C   0  0  0  0  0  0  0  0  0  0  0  0
    8.2322  -16.5340   20.4176 C   0  0  0  0  0  0  0  0  0  0  0  0
    8.7995  -16.7767   21.7624 C   0  0  2  0  0  0  0  0  0  0  0  0
    7.9565  -16.2347   22.8367 N   0  0  0  0  0  0  0  0  0  0  0  0
   10.2054  -16.4673   21.9941 C   0  0  0  0  0  0  0  0  0  0  0  0
   10.6103  -15.4175   22.5714 O   0  0  0  0  0  0  0  0  0  0  0  0
    9.9602  -13.6031   16.2913 N   0  0  0  0  0  0  0  0  0  0  0  0
   11.2405  -17.3598   21.5634 C   0  0  2  0  0  0  0  0  0  0  0  0
   12.6283  -17.0185   21.7505 C   0  0  0  0  0  0  0  0  0  0  0  0
   13.4756  -18.2141   21.5648 C   0  0  0  0  0  0  0  0  0  0  0  0
   14.9313  -18.0377   21.8186 C   0  0  0  0  0  0  0  0  0  0  0  0
   15.6679  -19.2705   22.1400 O   0  0  0  0  0  0  0  0  0  0  0  0
   15.7887  -20.2704   21.3704 C   0  0  0  0  0  0  0  0  0  0  0  0
   12.9584  -15.8979   20.8441 O   0  0  0  0  0  0  0  0  0  0  0  0
   12.4191  -15.7346   19.5738 O   0  0  0  0  0  0  0  0  0  0  0  0
   16.2903  -19.3683   23.3842 O   0  0  0  0  0  0  0  0  0  0  0  0
  2  1  1  1
  3  4  1  0
  3  2  1  0
  4  5  2  0
  5  6  1  0
  7  6  1  0
  8  7  2  0
  9  8  1  0
 10 11  1  0
 10  9  2  0
 11 12  2  0
 12  4  1  0
 12  7  1  0
 13  2  1  0
 13 14  2  0
 15 16  1  0
 16 17  2  0
 18 16  1  0
 18 19  1  0
 20 21  1  0
 20 19  1  0
 22 21  1  6
 22 23  1  0
 23 13  1  0
 24 22  1  0
 25 24  2  0
 26 24  1  0
 27 26  1  0
 27 28  1  6
 29 28  1  0
 30 34  1  0
 30 29  1  0
 31 30  2  0
 32 27  1  0
 32 33  1  0
 35 32  2  0
M  END
$$$$
