WRE.pdb
     RDKit          3D

 35 36  0  0  1  0  0  0  0  0999 V2000
    7.2860  -16.9283   26.2212 N   0  0  0  0  0  0  0  0  0  0  0  0
    7.4378  -16.1401   24.9788 C   0  0  1  0  0  0  0  0  0  0  0  0
    8.5264  -15.1667   25.2680 C   0  0  0  0  0  0  0  0  0  0  0  0
    8.3597  -14.3149   26.4534 C   0  0  0  0  0  0  0  0  0  0  0  0
    9.0430  -14.2732   27.6331 C   0  0  0  0  0  0  0  0  0  0  0  0
    8.4978  -13.3116   28.4029 N   0  0  0  0  0  0  0  0  0  0  0  0
    7.4943  -12.7488   27.7411 C   0  0  0  0  0  0  0  0  0  0  0  0
    6.6172  -11.7268   28.0660 C   0  0  0  0  0  0  0  0  0  0  0  0
    5.6359  -11.3160   27.1679 C   0  0  0  0  0  0  0  0  0  0  0  0
    5.5123  -11.9149   25.9364 C   0  0  0  0  0  0  0  0  0  0  0  0
    6.3776  -12.9311   25.6041 C   0  0  0  0  0  0  0  0  0  0  0  0
    7.3524  -13.3334   26.5049 C   0  0  0  0  0  0  0  0  0  0  0  0
    7.7376  -17.1199   23.9045 C   0  0  0  0  0  0  0  0  0  0  0  0
    6.9553  -18.0975   23.6521 O   0  0  0  0  0  0  0  0  0  0  0  0
    9.5174  -13.3716   17.8113 N   0  0  0  0  0  0  0  0  0  0  0  0
    8.7495  -12.7932   18.8519 C   0  0  0  0  0  0  0  0  0  0  0  0
    8.8553  -11.5238   19.1312 N   0  0  0  0  0  0  0  0  0  0  0  0
    7.8602  -13.6086   19.5891 N   0  0  0  0  0  0  0  0  0  0  0  0
    7.9606  -15.0521   19.5436 C   0  0  0  0  0  0  0  0  0  0  0  0
    7.6782  -15.6557   20.8886 C   0  0  0  0  0  0  0  0  0  0  0  0
    7.8286  -17.1581   20.8824 C   0  0  0  0  0  0  0  0  0  0  0  0
    8.9603  -17.6004   21.7267 C   0  0  2  0  0  0  0  0  0  0  0  0
    8.9012  -17.0452   23.0857 N   0  0  0  0  0  0  0  0  0  0  0  0
   10.3114  -17.5152   21.1852 C   0  0  0  0  0  0  0  0  0  0  0  0
   10.6673  -18.0420   20.0919 O   0  0  0  0  0  0  0  0  0  0  0  0
    8.3816  -11.0945   19.9408 N   0  0  0  0  0  0  0  0  0  0  0  0
   11.3462  -16.8126   21.8845 C   0  0  2  0  0  0  0  0  0  0  0  0
   12.6784  -17.3572   21.9636 C   0  0  0  0  0  0  0  0  0  0  0  0
   13.6309  -16.4755   21.2585 C   0  0  0  0  0  0  0  0  0  0  0  0
   13.2487  -16.0568   19.8825 C   0  0  0  0  0  0  0  0  0  0  0  0
   14.2493  -15.2456   19.1709 O   0  0  0  0  0  0  0  0  0  0  0  0
   14.5476  -14.0454   19.4487 C   0  0  0  0  0  0  0  0  0  0  0  0
   13.0052  -17.5826   23.3880 O   0  0  0  0  0  0  0  0  0  0  0  0
   14.1625  -18.2086   23.8353 O   0  0  0  0  0  0  0  0  0  0  0  0
   14.9361  -15.8228   18.1032 O   0  0  0  0  0  0  0  0  0  0  0  0
  2  1  1  1
  3  4  1  0
  3  2  1  0
  4  5  2  0
  5  6  1  0
  7  6  1  0
  8  7  2  0
  9  8  1  0
 10 11  1  0
 10  9  2  0
 11 12  2  0
 12  4  1  0
 12  7  1  0
 13  2  1  0
 13 14  2  0
 15 16  1  0
 16 17  2  0
 18 16  1  0
 18 19  1  0
 20 21  1  0
 20 19  1  0
 22 21  1  6
 22 23  1  0
 23 13  1  0
 24 22  1  0
 25 24  2  0
 26 24  1  0
 27 26  1  0
 27 28  1  6
 29 28  1  0
 30 34  1  0
 30 29  1  0
 31 30  2  0
 32 27  1  0
 32 33  1  0
 35 32  2  0
M  END
$$$$
