WRE.pdb
     RDKit          3D

 35 36  0  0  1  0  0  0  0  0999 V2000
    6.6484  -17.0257   25.5212 N   0  0  0  0  0  0  0  0  0  0  0  0
    7.5253  -16.0615   24.8217 C   0  0  1  0  0  0  0  0  0  0  0  0
    8.6331  -15.7820   25.7763 C   0  0  0  0  0  0  0  0  0  0  0  0
    8.3490  -14.8405   26.8678 C   0  0  0  0  0  0  0  0  0  0  0  0
    8.3885  -14.9967   28.2221 C   0  0  0  0  0  0  0  0  0  0  0  0
    8.0356  -13.8285   28.7923 N   0  0  0  0  0  0  0  0  0  0  0  0
    7.7772  -12.9446   27.8364 C   0  0  0  0  0  0  0  0  0  0  0  0
    7.3837  -11.6168   27.8730 C   0  0  0  0  0  0  0  0  0  0  0  0
    7.1808  -10.8998   26.6970 C   0  0  0  0  0  0  0  0  0  0  0  0
    7.3652  -11.4920   25.4698 C   0  0  0  0  0  0  0  0  0  0  0  0
    7.7551  -12.8102   25.4222 C   0  0  0  0  0  0  0  0  0  0  0  0
    7.9553  -13.5164   26.5989 C   0  0  0  0  0  0  0  0  0  0  0  0
    7.9352  -16.7215   23.5566 C   0  0  0  0  0  0  0  0  0  0  0  0
    7.7367  -17.9672   23.3561 O   0  0  0  0  0  0  0  0  0  0  0  0
    8.4119  -14.0338   16.5920 N   0  0  0  0  0  0  0  0  0  0  0  0
    8.2907  -13.1971   17.7288 C   0  0  0  0  0  0  0  0  0  0  0  0
    8.9115  -12.0515   17.7818 N   0  0  0  0  0  0  0  0  0  0  0  0
    7.4842  -13.6159   18.8120 N   0  0  0  0  0  0  0  0  0  0  0  0
    6.8071  -14.8953   18.7862 C   0  0  0  0  0  0  0  0  0  0  0  0
    7.1889  -15.7323   19.9722 C   0  0  0  0  0  0  0  0  0  0  0  0
    8.6759  -15.9861   20.0363 C   0  0  0  0  0  0  0  0  0  0  0  0
    9.0588  -16.6989   21.2750 C   0  0  2  0  0  0  0  0  0  0  0  0
    8.5699  -16.0270   22.4866 N   0  0  0  0  0  0  0  0  0  0  0  0
   10.4438  -17.1256   21.4362 C   0  0  0  0  0  0  0  0  0  0  0  0
   10.9654  -18.0833   20.7960 O   0  0  0  0  0  0  0  0  0  0  0  0
    8.8449  -11.4238   18.5976 N   0  0  0  0  0  0  0  0  0  0  0  0
   11.3182  -16.4675   22.3612 C   0  0  1  0  0  0  0  0  0  0  0  0
   12.7170  -16.8102   22.4194 C   0  0  0  0  0  0  0  0  0  0  0  0
   13.5291  -15.7377   21.8096 C   0  0  0  0  0  0  0  0  0  0  0  0
   13.1900  -15.3682   20.4084 C   0  0  0  0  0  0  0  0  0  0  0  0
   14.1769  -14.5161   19.7259 O   0  0  0  0  0  0  0  0  0  0  0  0
   14.2819  -13.2612   19.8703 C   0  0  0  0  0  0  0  0  0  0  0  0
   13.0656  -17.1062   23.8255 O   0  0  0  0  0  0  0  0  0  0  0  0
   14.3292  -17.4965   24.2525 O   0  0  0  0  0  0  0  0  0  0  0  0
   15.0781  -15.1155   18.8464 O   0  0  0  0  0  0  0  0  0  0  0  0
  2  1  1  1
  3  4  1  0
  3  2  1  0
  4  5  2  0
  5  6  1  0
  7  6  1  0
  8  7  2  0
  9  8  1  0
 10 11  1  0
 10  9  2  0
 11 12  2  0
 12  4  1  0
 12  7  1  0
 13  2  1  0
 13 14  2  0
 15 16  1  0
 16 17  2  0
 18 16  1  0
 18 19  1  0
 20 21  1  0
 20 19  1  0
 22 21  1  6
 22 23  1  0
 23 13  1  0
 24 22  1  0
 25 24  2  0
 26 24  1  0
 27 26  1  0
 27 28  1  6
 29 28  1  0
 30 34  1  0
 30 29  1  0
 31 30  2  0
 32 27  1  0
 32 33  1  0
 35 32  2  0
M  END
$$$$
