WRE.pdb
     RDKit          3D

 35 36  0  0  1  0  0  0  0  0999 V2000
    7.3986  -17.2124   25.6263 N   0  0  0  0  0  0  0  0  0  0  0  0
    7.6237  -15.9234   24.9365 C   0  0  1  0  0  0  0  0  0  0  0  0
    8.7282  -15.2684   25.6899 C   0  0  0  0  0  0  0  0  0  0  0  0
    8.3483  -14.4472   26.8474 C   0  0  0  0  0  0  0  0  0  0  0  0
    8.5586  -14.6253   28.1832 C   0  0  0  0  0  0  0  0  0  0  0  0
    8.0079  -13.5859   28.8395 N   0  0  0  0  0  0  0  0  0  0  0  0
    7.4599  -12.7613   27.9555 C   0  0  0  0  0  0  0  0  0  0  0  0
    6.7797  -11.5621   28.0926 C   0  0  0  0  0  0  0  0  0  0  0  0
    6.3013  -10.8812   26.9765 C   0  0  0  0  0  0  0  0  0  0  0  0
    6.4914  -11.3824   25.7102 C   0  0  0  0  0  0  0  0  0  0  0  0
    7.1647  -12.5726   25.5630 C   0  0  0  0  0  0  0  0  0  0  0  0
    7.6381  -13.2437   26.6806 C   0  0  0  0  0  0  0  0  0  0  0  0
    7.9375  -16.2617   23.5255 C   0  0  0  0  0  0  0  0  0  0  0  0
    8.4265  -17.3962   23.2014 O   0  0  0  0  0  0  0  0  0  0  0  0
    8.0000  -15.1781   14.0174 N   0  0  0  0  0  0  0  0  0  0  0  0
    8.0657  -14.4065   15.2037 C   0  0  0  0  0  0  0  0  0  0  0  0
    8.6350  -13.2333   15.2045 N   0  0  0  0  0  0  0  0  0  0  0  0
    7.5035  -14.9213   16.3946 N   0  0  0  0  0  0  0  0  0  0  0  0
    7.5886  -14.1850   17.6381 C   0  0  0  0  0  0  0  0  0  0  0  0
    8.2512  -15.0046   18.7068 C   0  0  0  0  0  0  0  0  0  0  0  0
    7.7065  -14.6976   20.0812 C   0  0  0  0  0  0  0  0  0  0  0  0
    8.3459  -15.5298   21.1241 C   0  0  2  0  0  0  0  0  0  0  0  0
    7.7198  -15.3617   22.4426 N   0  0  0  0  0  0  0  0  0  0  0  0
    9.8001  -15.5214   21.2308 C   0  0  0  0  0  0  0  0  0  0  0  0
   10.4582  -14.6195   21.8249 O   0  0  0  0  0  0  0  0  0  0  0  0
    8.8915  -12.7426   14.3341 N   0  0  0  0  0  0  0  0  0  0  0  0
   10.5912  -16.5635   20.6464 C   0  0  2  0  0  0  0  0  0  0  0  0
   12.0294  -16.5308   20.7359 C   0  0  0  0  0  0  0  0  0  0  0  0
   12.5217  -17.7257   21.4511 C   0  0  0  0  0  0  0  0  0  0  0  0
   13.2501  -17.4793   22.7253 C   0  0  0  0  0  0  0  0  0  0  0  0
   13.7961  -18.6788   23.3801 O   0  0  0  0  0  0  0  0  0  0  0  0
   14.5297  -18.6762   24.4138 C   0  0  0  0  0  0  0  0  0  0  0  0
   12.5773  -16.3755   19.3714 O   0  0  0  0  0  0  0  0  0  0  0  0
   11.8942  -16.7178   18.2106 O   0  0  0  0  0  0  0  0  0  0  0  0
   13.4953  -19.9278   22.8377 O   0  0  0  0  0  0  0  0  0  0  0  0
  2  1  1  1
  3  4  1  0
  3  2  1  0
  4  5  2  0
  5  6  1  0
  7  6  1  0
  8  7  2  0
  9  8  1  0
 10 11  1  0
 10  9  2  0
 11 12  2  0
 12  4  1  0
 12  7  1  0
 13  2  1  0
 13 14  2  0
 15 16  1  0
 16 17  2  0
 18 16  1  0
 18 19  1  0
 20 21  1  0
 20 19  1  0
 22 21  1  6
 22 23  1  0
 23 13  1  0
 24 22  1  0
 25 24  2  0
 26 24  1  0
 27 26  1  0
 27 28  1  6
 29 28  1  0
 30 34  1  0
 30 29  1  0
 31 30  2  0
 32 27  1  0
 32 33  1  0
 35 32  2  0
M  END
$$$$
