WRE.pdb
     RDKit          3D

 35 36  0  0  1  0  0  0  0  0999 V2000
    6.9801  -16.8065   25.5143 N   0  0  0  0  0  0  0  0  0  0  0  0
    7.3556  -15.6246   24.7081 C   0  0  1  0  0  0  0  0  0  0  0  0
    8.4842  -14.9944   25.4467 C   0  0  0  0  0  0  0  0  0  0  0  0
    8.1380  -14.1632   26.6077 C   0  0  0  0  0  0  0  0  0  0  0  0
    8.5231  -14.2391   27.9138 C   0  0  0  0  0  0  0  0  0  0  0  0
    7.9221  -13.2410   28.5898 N   0  0  0  0  0  0  0  0  0  0  0  0
    7.1729  -12.5413   27.7467 C   0  0  0  0  0  0  0  0  0  0  0  0
    6.3634  -11.4300   27.9172 C   0  0  0  0  0  0  0  0  0  0  0  0
    5.6745  -10.8770   26.8412 C   0  0  0  0  0  0  0  0  0  0  0  0
    5.7797  -11.4205   25.5826 C   0  0  0  0  0  0  0  0  0  0  0  0
    6.5801  -12.5245   25.4025 C   0  0  0  0  0  0  0  0  0  0  0  0
    7.2630  -13.0683   26.4802 C   0  0  0  0  0  0  0  0  0  0  0  0
    7.6955  -16.1392   23.3577 C   0  0  0  0  0  0  0  0  0  0  0  0
    8.0888  -17.3411   23.1783 O   0  0  0  0  0  0  0  0  0  0  0  0
    7.6641  -12.7690   15.0801 N   0  0  0  0  0  0  0  0  0  0  0  0
    8.3052  -14.0315   15.0330 C   0  0  0  0  0  0  0  0  0  0  0  0
    8.7610  -14.5054   13.9069 N   0  0  0  0  0  0  0  0  0  0  0  0
    8.4496  -14.7778   16.2252 N   0  0  0  0  0  0  0  0  0  0  0  0
    7.8606  -14.3213   17.4664 C   0  0  0  0  0  0  0  0  0  0  0  0
    8.1602  -15.2724   18.5883 C   0  0  0  0  0  0  0  0  0  0  0  0
    8.2117  -14.5768   19.9274 C   0  0  0  0  0  0  0  0  0  0  0  0
    8.5053  -15.5225   21.0269 C   0  0  2  0  0  0  0  0  0  0  0  0
    7.6095  -15.3451   22.1778 N   0  0  0  0  0  0  0  0  0  0  0  0
    9.8882  -15.6829   21.4602 C   0  0  0  0  0  0  0  0  0  0  0  0
   10.4118  -15.0251   22.4049 O   0  0  0  0  0  0  0  0  0  0  0  0
    9.1518  -15.4565   13.8251 N   0  0  0  0  0  0  0  0  0  0  0  0
   10.7613  -16.6200   20.8175 C   0  0  2  0  0  0  0  0  0  0  0  0
   12.1226  -16.7797   21.2637 C   0  0  0  0  0  0  0  0  0  0  0  0
   12.2525  -18.0107   22.0696 C   0  0  0  0  0  0  0  0  0  0  0  0
   13.6391  -18.4573   22.3739 C   0  0  0  0  0  0  0  0  0  0  0  0
   13.7422  -19.6790   23.1878 O   0  0  0  0  0  0  0  0  0  0  0  0
   14.7451  -20.4536   23.2182 C   0  0  0  0  0  0  0  0  0  0  0  0
   13.0083  -16.7363   20.0805 O   0  0  0  0  0  0  0  0  0  0  0  0
   14.3719  -16.4736   20.1334 O   0  0  0  0  0  0  0  0  0  0  0  0
   12.6630  -20.0318   23.9977 O   0  0  0  0  0  0  0  0  0  0  0  0
  2  1  1  1
  3  4  1  0
  3  2  1  0
  4  5  2  0
  5  6  1  0
  7  6  1  0
  8  7  2  0
  9  8  1  0
 10 11  1  0
 10  9  2  0
 11 12  2  0
 12  4  1  0
 12  7  1  0
 13  2  1  0
 13 14  2  0
 15 16  1  0
 16 17  2  0
 18 16  1  0
 18 19  1  0
 20 21  1  0
 20 19  1  0
 22 21  1  6
 22 23  1  0
 23 13  1  0
 24 22  1  0
 25 24  2  0
 26 24  1  0
 27 26  1  0
 27 28  1  1
 29 28  1  0
 30 34  1  0
 30 29  1  0
 31 30  2  0
 32 27  1  0
 32 33  1  0
 35 32  2  0
M  END
$$$$
