WRE.pdb
     RDKit          3D

 35 36  0  0  1  0  0  0  0  0999 V2000
    7.4617  -18.4435   25.6266 N   0  0  0  0  0  0  0  0  0  0  0  0
    7.2142  -17.0993   25.0610 C   0  0  1  0  0  0  0  0  0  0  0  0
    7.6881  -16.1473   26.1029 C   0  0  0  0  0  0  0  0  0  0  0  0
    6.8120  -15.0092   26.4122 C   0  0  0  0  0  0  0  0  0  0  0  0
    5.4701  -14.9465   26.6480 C   0  0  0  0  0  0  0  0  0  0  0  0
    5.1421  -13.6610   26.8813 N   0  0  0  0  0  0  0  0  0  0  0  0
    6.2378  -12.9164   26.7998 C   0  0  0  0  0  0  0  0  0  0  0  0
    6.4578  -11.5574   26.9547 C   0  0  0  0  0  0  0  0  0  0  0  0
    7.7352  -11.0210   26.8180 C   0  0  0  0  0  0  0  0  0  0  0  0
    8.8103  -11.8266   26.5251 C   0  0  0  0  0  0  0  0  0  0  0  0
    8.6028  -13.1773   26.3685 C   0  0  0  0  0  0  0  0  0  0  0  0
    7.3268  -13.7028   26.5070 C   0  0  0  0  0  0  0  0  0  0  0  0
    7.9582  -17.0501   23.7773 C   0  0  0  0  0  0  0  0  0  0  0  0
    9.0516  -17.6891   23.6118 O   0  0  0  0  0  0  0  0  0  0  0  0
    9.2426  -15.0490   16.4042 N   0  0  0  0  0  0  0  0  0  0  0  0
    8.2726  -14.0211   16.3062 C   0  0  0  0  0  0  0  0  0  0  0  0
    8.2114  -13.2618   15.2477 N   0  0  0  0  0  0  0  0  0  0  0  0
    7.3640  -13.8249   17.3716 N   0  0  0  0  0  0  0  0  0  0  0  0
    7.2572  -14.7879   18.4472 C   0  0  0  0  0  0  0  0  0  0  0  0
    8.3608  -14.6043   19.4480 C   0  0  0  0  0  0  0  0  0  0  0  0
    7.8542  -14.6459   20.8698 C   0  0  0  0  0  0  0  0  0  0  0  0
    8.4321  -15.7787   21.6260 C   0  0  2  0  0  0  0  0  0  0  0  0
    7.5160  -16.2994   22.6499 N   0  0  0  0  0  0  0  0  0  0  0  0
    9.7858  -15.6499   22.1522 C   0  0  0  0  0  0  0  0  0  0  0  0
   10.0942  -14.9117   23.1316 O   0  0  0  0  0  0  0  0  0  0  0  0
    7.5627  -12.4629   15.1772 N   0  0  0  0  0  0  0  0  0  0  0  0
   10.8785  -16.3702   21.5685 C   0  0  2  0  0  0  0  0  0  0  0  0
   12.2406  -16.0032   21.8645 C   0  0  0  0  0  0  0  0  0  0  0  0
   13.0009  -17.1882   22.3113 C   0  0  0  0  0  0  0  0  0  0  0  0
   13.0728  -17.4109   23.7810 C   0  0  0  0  0  0  0  0  0  0  0  0
   13.8423  -18.5927   24.2013 O   0  0  0  0  0  0  0  0  0  0  0  0
   13.6204  -19.7815   23.8214 C   0  0  0  0  0  0  0  0  0  0  0  0
   12.8107  -15.3329   20.6762 O   0  0  0  0  0  0  0  0  0  0  0  0
   13.9644  -14.5584   20.6934 O   0  0  0  0  0  0  0  0  0  0  0  0
   14.9045  -18.4143   25.0873 O   0  0  0  0  0  0  0  0  0  0  0  0
  2  1  1  1
  3  4  1  0
  3  2  1  0
  4  5  2  0
  5  6  1  0
  7  6  1  0
  8  7  2  0
  9  8  1  0
 10 11  1  0
 10  9  2  0
 11 12  2  0
 12  4  1  0
 12  7  1  0
 13  2  1  0
 13 14  2  0
 15 16  1  0
 16 17  2  0
 18 16  1  0
 18 19  1  0
 20 21  1  0
 20 19  1  0
 22 21  1  1
 22 23  1  0
 23 13  1  0
 24 22  1  0
 25 24  2  0
 26 24  1  0
 27 26  1  0
 27 28  1  1
 29 28  1  0
 30 34  1  0
 30 29  1  0
 31 30  2  0
 32 27  1  0
 32 33  1  0
 35 32  2  0
M  END
$$$$
