WWY.pdb
     RDKit          3D

 41 45  0  0  1  0  0  0  0  0999 V2000
   24.1364  -19.2390  -11.3073 N   0  0  0  0  0  0  0  0  0  0  0  0
   24.4324  -20.6254  -11.4600 C   0  0  1  0  0  0  0  0  0  0  0  0
   25.3639  -20.9164  -12.6134 C   0  0  0  0  0  0  0  0  0  0  0  0
   24.9304  -20.2433  -13.8572 C   0  0  0  0  0  0  0  0  0  0  0  0
   25.6447  -19.2828  -14.5463 C   0  0  0  0  0  0  0  0  0  0  0  0
   24.9295  -18.9008  -15.6365 N   0  0  0  0  0  0  0  0  0  0  0  0
   23.7713  -19.5809  -15.6812 C   0  0  0  0  0  0  0  0  0  0  0  0
   22.6979  -19.5917  -16.5427 C   0  0  0  0  0  0  0  0  0  0  0  0
   21.6259  -20.4237  -16.3149 C   0  0  0  0  0  0  0  0  0  0  0  0
   21.5971  -21.2572  -15.2340 C   0  0  0  0  0  0  0  0  0  0  0  0
   22.6727  -21.2468  -14.3703 C   0  0  0  0  0  0  0  0  0  0  0  0
   23.7649  -20.4269  -14.5656 C   0  0  0  0  0  0  0  0  0  0  0  0
   24.9803  -21.1464  -10.1873 C   0  0  0  0  0  0  0  0  0  0  0  0
   25.5578  -22.2589  -10.1477 O   0  0  0  0  0  0  0  0  0  0  0  0
   24.8364  -20.3590   -9.0158 N   0  0  0  0  0  0  0  0  0  0  0  0
   24.2562  -20.9374   -7.8309 C   0  0  1  0  0  0  0  0  0  0  0  0
   24.7045  -20.2999   -6.5538 C   0  0  0  0  0  0  0  0  0  0  0  0
   26.1132  -19.8947   -6.5345 C   0  0  0  0  0  0  0  0  0  0  0  0
   26.6745  -18.8982   -7.3010 C   0  0  0  0  0  0  0  0  0  0  0  0
   27.9799  -18.7721   -7.0215 N   0  0  0  0  0  0  0  0  0  0  0  0
   28.2617  -19.6848   -6.0772 C   0  0  0  0  0  0  0  0  0  0  0  0
   29.4509  -19.9708   -5.4527 C   0  0  0  0  0  0  0  0  0  0  0  0
   29.5385  -20.9633   -4.5012 C   0  0  0  0  0  0  0  0  0  0  0  0
   28.3993  -21.6712   -4.1843 C   0  0  0  0  0  0  0  0  0  0  0  0
   27.1881  -21.3826   -4.8174 C   0  0  0  0  0  0  0  0  0  0  0  0
   27.1115  -20.4013   -5.7544 C   0  0  0  0  0  0  0  0  0  0  0  0
   22.7772  -20.9172   -7.9823 C   0  0  0  0  0  0  0  0  0  0  0  0
   22.2193  -20.3594   -8.9608 O   0  0  0  0  0  0  0  0  0  0  0  0
   17.5980  -26.8985  -10.4630 O   0  0  0  0  0  0  0  0  0  0  0  0
   18.5364  -25.9831   -9.9857 C   0  0  0  0  0  0  0  0  0  0  0  0
   18.4072  -24.6532  -10.2481 C   0  0  0  0  0  0  0  0  0  0  0  0
   19.3388  -23.7439   -9.7743 C   0  0  0  0  0  0  0  0  0  0  0  0
   20.4039  -24.2104   -9.0293 C   0  0  0  0  0  0  0  0  0  0  0  0
   21.4346  -23.3152   -8.4984 C   0  0  0  0  0  0  0  0  0  0  0  0
   20.8450  -22.3941   -7.4529 C   0  0  2  0  0  0  0  0  0  0  0  0
   21.9471  -21.5354   -7.0134 N   0  0  0  0  0  0  0  0  0  0  0  0
   20.2413  -23.1016   -6.3117 C   0  0  0  0  0  0  0  0  0  0  0  0
   19.0938  -23.6034   -6.3528 O   0  0  0  0  0  0  0  0  0  0  0  0
   20.5513  -25.5689   -8.7514 C   0  0  0  0  0  0  0  0  0  0  0  0
   19.6000  -26.4304   -9.2441 C   0  0  0  0  0  0  0  0  0  0  0  0
   20.9325  -23.2489   -5.1075 O   0  0  0  0  0  0  0  0  0  0  0  0
  2  3  1  0
  2  1  1  1
  4  3  1  0
  4  5  2  0
  6  5  1  0
  7  6  1  0
  8  7  2  0
  9  8  1  0
 10  9  2  0
 10 11  1  0
 11 12  2  0
 12  7  1  0
 12  4  1  0
 13  2  1  0
 14 13  2  0
 15 13  1  0
 16 27  1  0
 16 15  1  0
 16 17  1  1
 18 17  1  0
 18 26  1  0
 19 20  1  0
 19 18  2  0
 20 21  1  0
 21 22  2  0
 21 26  1  0
 22 23  1  0
 23 24  2  0
 25 24  1  0
 26 25  2  0
 27 36  1  0
 28 27  2  0
 29 30  1  0
 30 40  2  0
 31 30  1  0
 31 32  2  0
 32 33  1  0
 33 39  2  0
 33 34  1  0
 35 34  1  6
 35 37  1  0
 36 35  1  0
 37 38  2  0
 37 41  1  0
 40 39  1  0
M  END
$$$$
