WWY.pdb
     RDKit          3D

 41 45  0  0  1  0  0  0  0  0999 V2000
   25.8409  -18.8803  -12.9488 N   0  0  0  0  0  0  0  0  0  0  0  0
   24.6861  -19.6319  -12.5821 C   0  0  1  0  0  0  0  0  0  0  0  0
   23.9269  -20.1816  -13.7671 C   0  0  0  0  0  0  0  0  0  0  0  0
   23.5452  -19.1173  -14.7208 C   0  0  0  0  0  0  0  0  0  0  0  0
   24.1581  -18.8608  -15.9318 C   0  0  0  0  0  0  0  0  0  0  0  0
   23.5329  -17.8119  -16.5275 N   0  0  0  0  0  0  0  0  0  0  0  0
   22.5316  -17.3754  -15.7445 C   0  0  0  0  0  0  0  0  0  0  0  0
   21.5988  -16.3691  -15.8519 C   0  0  0  0  0  0  0  0  0  0  0  0
   20.6743  -16.1622  -14.8540 C   0  0  0  0  0  0  0  0  0  0  0  0
   20.6565  -16.9449  -13.7356 C   0  0  0  0  0  0  0  0  0  0  0  0
   21.5913  -17.9537  -13.6274 C   0  0  0  0  0  0  0  0  0  0  0  0
   22.5335  -18.1915  -14.6068 C   0  0  0  0  0  0  0  0  0  0  0  0
   25.0875  -20.7153  -11.6565 C   0  0  0  0  0  0  0  0  0  0  0  0
   24.7441  -21.9017  -11.8739 O   0  0  0  0  0  0  0  0  0  0  0  0
   25.8678  -20.3800  -10.5201 N   0  0  0  0  0  0  0  0  0  0  0  0
   25.9720  -21.3084   -9.4235 C   0  0  1  0  0  0  0  0  0  0  0  0
   27.2505  -21.2078   -8.6531 C   0  0  0  0  0  0  0  0  0  0  0  0
   27.3520  -20.0281   -7.7887 C   0  0  0  0  0  0  0  0  0  0  0  0
   26.8466  -18.7786   -8.0698 C   0  0  0  0  0  0  0  0  0  0  0  0
   27.0955  -17.9348   -7.0579 N   0  0  0  0  0  0  0  0  0  0  0  0
   27.7603  -18.6367   -6.1254 C   0  0  0  0  0  0  0  0  0  0  0  0
   28.2496  -18.2413   -4.9047 C   0  0  0  0  0  0  0  0  0  0  0  0
   28.9192  -19.1215   -4.0832 C   0  0  0  0  0  0  0  0  0  0  0  0
   29.0911  -20.4194   -4.5134 C   0  0  0  0  0  0  0  0  0  0  0  0
   28.5945  -20.8251   -5.7543 C   0  0  0  0  0  0  0  0  0  0  0  0
   27.9346  -19.9496   -6.5574 C   0  0  0  0  0  0  0  0  0  0  0  0
   24.7763  -21.1368   -8.5564 C   0  0  0  0  0  0  0  0  0  0  0  0
   24.2015  -20.0259   -8.4333 O   0  0  0  0  0  0  0  0  0  0  0  0
   16.5927  -22.6641   -7.1667 O   0  0  0  0  0  0  0  0  0  0  0  0
   17.9351  -22.4756   -7.4970 C   0  0  0  0  0  0  0  0  0  0  0  0
   18.5404  -21.2736   -7.2900 C   0  0  0  0  0  0  0  0  0  0  0  0
   19.8733  -21.0860   -7.6179 C   0  0  0  0  0  0  0  0  0  0  0  0
   20.5797  -22.1417   -8.1599 C   0  0  0  0  0  0  0  0  0  0  0  0
   21.9894  -22.0226   -8.5394 C   0  0  0  0  0  0  0  0  0  0  0  0
   22.8768  -22.1690   -7.3229 C   0  0  2  0  0  0  0  0  0  0  0  0
   24.2467  -22.2375   -7.8367 N   0  0  0  0  0  0  0  0  0  0  0  0
   22.5639  -23.3481   -6.4988 C   0  0  0  0  0  0  0  0  0  0  0  0
   21.7644  -23.3109   -5.5345 O   0  0  0  0  0  0  0  0  0  0  0  0
   19.9751  -23.3791   -8.3783 C   0  0  0  0  0  0  0  0  0  0  0  0
   18.6505  -23.5143   -8.0360 C   0  0  0  0  0  0  0  0  0  0  0  0
   23.1548  -24.5863   -6.7583 O   0  0  0  0  0  0  0  0  0  0  0  0
  2  3  1  0
  2  1  1  6
  4  3  1  0
  4  5  2  0
  6  5  1  0
  7  6  1  0
  8  7  2  0
  9  8  1  0
 10  9  2  0
 10 11  1  0
 11 12  2  0
 12  7  1  0
 12  4  1  0
 13  2  1  0
 14 13  2  0
 15 13  1  0
 16 27  1  0
 16 15  1  0
 16 17  1  1
 18 17  1  0
 18 26  1  0
 19 20  1  0
 19 18  2  0
 20 21  1  0
 21 22  2  0
 21 26  1  0
 22 23  1  0
 23 24  2  0
 25 24  1  0
 26 25  2  0
 27 36  1  0
 28 27  2  0
 29 30  1  0
 30 40  2  0
 31 30  1  0
 31 32  2  0
 32 33  1  0
 33 39  2  0
 33 34  1  0
 35 34  1  6
 35 37  1  0
 36 35  1  0
 37 38  2  0
 37 41  1  0
 40 39  1  0
M  END
$$$$
