WWY.pdb
     RDKit          3D

 41 45  0  0  1  0  0  0  0  0999 V2000
   11.3523  -10.9749  -24.7810 N   0  0  0  0  0  0  0  0  0  0  0  0
   10.3685  -10.6827  -23.7911 C   0  0  1  0  0  0  0  0  0  0  0  0
    9.1174  -11.5194  -23.9234 C   0  0  0  0  0  0  0  0  0  0  0  0
    8.5073  -11.3928  -25.2650 C   0  0  0  0  0  0  0  0  0  0  0  0
    8.6304  -10.3059  -26.1084 C   0  0  0  0  0  0  0  0  0  0  0  0
    7.9347  -10.5533  -27.2488 N   0  0  0  0  0  0  0  0  0  0  0  0
    7.3612  -11.7666  -27.1771 C   0  0  0  0  0  0  0  0  0  0  0  0
    6.5658  -12.5033  -28.0250 C   0  0  0  0  0  0  0  0  0  0  0  0
    6.1213  -13.7529  -27.6587 C   0  0  0  0  0  0  0  0  0  0  0  0
    6.4550  -14.2941  -26.4505 C   0  0  0  0  0  0  0  0  0  0  0  0
    7.2523  -13.5561  -25.6002 C   0  0  0  0  0  0  0  0  0  0  0  0
    7.7170  -12.3003  -25.9325 C   0  0  0  0  0  0  0  0  0  0  0  0
   10.9727  -10.8352  -22.4483 C   0  0  0  0  0  0  0  0  0  0  0  0
   11.2365  -11.9730  -21.9915 O   0  0  0  0  0  0  0  0  0  0  0  0
   11.2453   -9.6662  -21.6921 N   0  0  0  0  0  0  0  0  0  0  0  0
   11.7799   -9.7836  -20.3595 C   0  0  1  0  0  0  0  0  0  0  0  0
   13.0971   -9.1016  -20.1640 C   0  0  0  0  0  0  0  0  0  0  0  0
   14.1964   -9.6561  -20.9597 C   0  0  0  0  0  0  0  0  0  0  0  0
   14.9362   -8.9713  -21.8975 C   0  0  0  0  0  0  0  0  0  0  0  0
   15.8766   -9.7685  -22.4246 N   0  0  0  0  0  0  0  0  0  0  0  0
   15.7450  -10.9655  -21.8295 C   0  0  0  0  0  0  0  0  0  0  0  0
   16.4562  -12.1258  -22.0132 C   0  0  0  0  0  0  0  0  0  0  0  0
   16.1596  -13.2670  -21.3007 C   0  0  0  0  0  0  0  0  0  0  0  0
   15.1253  -13.2225  -20.3910 C   0  0  0  0  0  0  0  0  0  0  0  0
   14.4001  -12.0439  -20.2015 C   0  0  0  0  0  0  0  0  0  0  0  0
   14.7006  -10.9230  -20.9087 C   0  0  0  0  0  0  0  0  0  0  0  0
   10.7483   -9.3023  -19.4028 C   0  0  0  0  0  0  0  0  0  0  0  0
   10.2558   -8.1489  -19.4850 O   0  0  0  0  0  0  0  0  0  0  0  0
    4.9425  -10.4010  -21.9984 O   0  0  0  0  0  0  0  0  0  0  0  0
    5.7661  -10.5119  -20.8778 C   0  0  0  0  0  0  0  0  0  0  0  0
    6.7411  -11.4608  -20.8218 C   0  0  0  0  0  0  0  0  0  0  0  0
    7.5590  -11.5712  -19.7091 C   0  0  0  0  0  0  0  0  0  0  0  0
    7.3682  -10.7003  -18.6545 C   0  0  0  0  0  0  0  0  0  0  0  0
    8.1858  -10.7560  -17.4406 C   0  0  0  0  0  0  0  0  0  0  0  0
    9.2344   -9.6656  -17.4609 C   0  0  2  0  0  0  0  0  0  0  0  0
   10.2875  -10.1442  -18.3594 N   0  0  0  0  0  0  0  0  0  0  0  0
    9.7814   -9.3438  -16.1325 C   0  0  0  0  0  0  0  0  0  0  0  0
   10.9602   -9.6088  -15.8002 O   0  0  0  0  0  0  0  0  0  0  0  0
    6.3745   -9.7229  -18.6955 C   0  0  0  0  0  0  0  0  0  0  0  0
    5.5894   -9.6543  -19.8220 C   0  0  0  0  0  0  0  0  0  0  0  0
    8.9969   -8.7164  -15.1627 O   0  0  0  0  0  0  0  0  0  0  0  0
  2  3  1  0
  2  1  1  6
  4  3  1  0
  4  5  2  0
  6  5  1  0
  7  6  1  0
  8  7  2  0
  9  8  1  0
 10  9  2  0
 10 11  1  0
 11 12  2  0
 12  7  1  0
 12  4  1  0
 13  2  1  0
 14 13  2  0
 15 13  1  0
 16 27  1  0
 16 15  1  0
 16 17  1  6
 18 17  1  0
 18 26  1  0
 19 20  1  0
 19 18  2  0
 20 21  1  0
 21 22  2  0
 21 26  1  0
 22 23  1  0
 23 24  2  0
 25 24  1  0
 26 25  2  0
 27 36  1  0
 28 27  2  0
 29 30  1  0
 30 40  2  0
 31 30  1  0
 31 32  2  0
 32 33  1  0
 33 39  2  0
 33 34  1  0
 35 34  1  1
 35 37  1  0
 36 35  1  0
 37 38  2  0
 37 41  1  0
 40 39  1  0
M  END
$$$$
