WWY.pdb
     RDKit          3D

 41 45  0  0  1  0  0  0  0  0999 V2000
   23.3899  -20.9165  -20.2593 N   0  0  0  0  0  0  0  0  0  0  0  0
   22.2284  -20.2156  -19.8202 C   0  0  1  0  0  0  0  0  0  0  0  0
   20.9403  -20.7911  -20.3610 C   0  0  0  0  0  0  0  0  0  0  0  0
   20.7070  -20.3980  -21.7678 C   0  0  0  0  0  0  0  0  0  0  0  0
   21.0958  -21.1164  -22.8817 C   0  0  0  0  0  0  0  0  0  0  0  0
   20.7082  -20.4432  -23.9963 N   0  0  0  0  0  0  0  0  0  0  0  0
   20.0791  -19.3085  -23.6461 C   0  0  0  0  0  0  0  0  0  0  0  0
   19.4973  -18.2780  -24.3490 C   0  0  0  0  0  0  0  0  0  0  0  0
   18.9153  -17.2208  -23.6880 C   0  0  0  0  0  0  0  0  0  0  0  0
   18.8988  -17.1646  -22.3240 C   0  0  0  0  0  0  0  0  0  0  0  0
   19.4818  -18.1971  -21.6190 C   0  0  0  0  0  0  0  0  0  0  0  0
   20.0747  -19.2734  -22.2464 C   0  0  0  0  0  0  0  0  0  0  0  0
   22.2162  -20.1781  -18.3405 C   0  0  0  0  0  0  0  0  0  0  0  0
   22.5209  -21.1950  -17.6727 O   0  0  0  0  0  0  0  0  0  0  0  0
   21.8520  -18.9672  -17.6970 N   0  0  0  0  0  0  0  0  0  0  0  0
   21.8843  -18.8822  -16.2593 C   0  0  1  0  0  0  0  0  0  0  0  0
   22.4285  -17.5920  -15.7326 C   0  0  0  0  0  0  0  0  0  0  0  0
   23.6660  -17.1422  -16.3770 C   0  0  0  0  0  0  0  0  0  0  0  0
   23.7690  -16.1277  -17.3021 C   0  0  0  0  0  0  0  0  0  0  0  0
   25.0467  -15.9605  -17.6728 N   0  0  0  0  0  0  0  0  0  0  0  0
   25.7677  -16.8645  -16.9894 C   0  0  0  0  0  0  0  0  0  0  0  0
   27.1182  -17.1131  -17.0078 C   0  0  0  0  0  0  0  0  0  0  0  0
   27.6740  -18.1031  -16.2273 C   0  0  0  0  0  0  0  0  0  0  0  0
   26.8413  -18.8471  -15.4195 C   0  0  0  0  0  0  0  0  0  0  0  0
   25.4673  -18.5967  -15.3983 C   0  0  0  0  0  0  0  0  0  0  0  0
   24.9285  -17.6175  -16.1713 C   0  0  0  0  0  0  0  0  0  0  0  0
   20.5177  -19.1684  -15.7478 C   0  0  0  0  0  0  0  0  0  0  0  0
   19.4934  -18.6750  -16.2835 O   0  0  0  0  0  0  0  0  0  0  0  0
   13.5216  -22.9196  -12.5263 O   0  0  0  0  0  0  0  0  0  0  0  0
   14.8196  -22.6276  -12.9462 C   0  0  0  0  0  0  0  0  0  0  0  0
   15.8804  -22.8236  -12.1154 C   0  0  0  0  0  0  0  0  0  0  0  0
   17.1695  -22.5337  -12.5320 C   0  0  0  0  0  0  0  0  0  0  0  0
   17.3610  -22.0411  -13.8078 C   0  0  0  0  0  0  0  0  0  0  0  0
   18.6907  -21.7037  -14.3212 C   0  0  0  0  0  0  0  0  0  0  0  0
   18.9822  -20.2351  -14.1048 C   0  0  2  0  0  0  0  0  0  0  0  0
   20.3330  -20.0172  -14.6274 N   0  0  0  0  0  0  0  0  0  0  0  0
   18.8872  -19.8125  -12.6978 C   0  0  0  0  0  0  0  0  0  0  0  0
   17.8830  -19.2269  -12.2301 O   0  0  0  0  0  0  0  0  0  0  0  0
   16.2858  -21.8345  -14.6714 C   0  0  0  0  0  0  0  0  0  0  0  0
   15.0266  -22.1377  -14.2106 C   0  0  0  0  0  0  0  0  0  0  0  0
   19.9319  -20.0491  -11.8021 O   0  0  0  0  0  0  0  0  0  0  0  0
  2  3  1  0
  2  1  1  1
  4  3  1  0
  4  5  2  0
  6  5  1  0
  7  6  1  0
  8  7  2  0
  9  8  1  0
 10  9  2  0
 10 11  1  0
 11 12  2  0
 12  7  1  0
 12  4  1  0
 13  2  1  0
 14 13  2  0
 15 13  1  0
 16 27  1  0
 16 15  1  0
 16 17  1  6
 18 17  1  0
 18 26  1  0
 19 20  1  0
 19 18  2  0
 20 21  1  0
 21 22  2  0
 21 26  1  0
 22 23  1  0
 23 24  2  0
 25 24  1  0
 26 25  2  0
 27 36  1  0
 28 27  2  0
 29 30  1  0
 30 40  2  0
 31 30  1  0
 31 32  2  0
 32 33  1  0
 33 39  2  0
 33 34  1  0
 35 34  1  1
 35 37  1  0
 36 35  1  0
 37 38  2  0
 37 41  1  0
 40 39  1  0
M  END
$$$$
