WWY.pdb
     RDKit          3D

 41 45  0  0  1  0  0  0  0  0999 V2000
   26.3548  -22.2344  -11.4953 N   0  0  0  0  0  0  0  0  0  0  0  0
   25.6967  -21.2351  -10.7199 C   0  0  1  0  0  0  0  0  0  0  0  0
   26.5428  -20.0060  -10.4828 C   0  0  0  0  0  0  0  0  0  0  0  0
   27.7970  -20.3280   -9.7676 C   0  0  0  0  0  0  0  0  0  0  0  0
   28.9843  -20.7177  -10.3560 C   0  0  0  0  0  0  0  0  0  0  0  0
   29.9099  -20.9243   -9.3831 N   0  0  0  0  0  0  0  0  0  0  0  0
   29.3651  -20.6822   -8.1787 C   0  0  0  0  0  0  0  0  0  0  0  0
   29.8344  -20.7333   -6.8858 C   0  0  0  0  0  0  0  0  0  0  0  0
   29.0107  -20.4195   -5.8292 C   0  0  0  0  0  0  0  0  0  0  0  0
   27.7119  -20.0509   -6.0326 C   0  0  0  0  0  0  0  0  0  0  0  0
   27.2410  -19.9996   -7.3283 C   0  0  0  0  0  0  0  0  0  0  0  0
   28.0367  -20.3069   -8.4127 C   0  0  0  0  0  0  0  0  0  0  0  0
   24.4150  -20.8829  -11.3716 C   0  0  0  0  0  0  0  0  0  0  0  0
   23.6674  -20.0048  -10.8788 O   0  0  0  0  0  0  0  0  0  0  0  0
   24.0532  -21.5612  -12.5640 N   0  0  0  0  0  0  0  0  0  0  0  0
   22.7840  -21.2863  -13.1876 C   0  0  1  0  0  0  0  0  0  0  0  0
   22.8669  -21.0207  -14.6576 C   0  0  0  0  0  0  0  0  0  0  0  0
   23.1114  -19.6195  -15.0127 C   0  0  0  0  0  0  0  0  0  0  0  0
   24.3471  -19.0327  -15.1690 C   0  0  0  0  0  0  0  0  0  0  0  0
   24.2127  -17.7444  -15.5156 N   0  0  0  0  0  0  0  0  0  0  0  0
   22.8938  -17.4989  -15.5828 C   0  0  0  0  0  0  0  0  0  0  0  0
   22.2262  -16.3388  -15.8900 C   0  0  0  0  0  0  0  0  0  0  0  0
   20.8495  -16.2867  -15.8990 C   0  0  0  0  0  0  0  0  0  0  0  0
   20.1474  -17.4317  -15.5905 C   0  0  0  0  0  0  0  0  0  0  0  0
   20.8233  -18.6134  -15.2777 C   0  0  0  0  0  0  0  0  0  0  0  0
   22.1816  -18.6551  -15.2723 C   0  0  0  0  0  0  0  0  0  0  0  0
   21.8591  -22.4058  -12.8682 C   0  0  0  0  0  0  0  0  0  0  0  0
   22.2825  -23.5279  -12.4923 O   0  0  0  0  0  0  0  0  0  0  0  0
   16.5652  -24.9840   -6.9294 O   0  0  0  0  0  0  0  0  0  0  0  0
   17.4188  -24.3929   -7.8613 C   0  0  0  0  0  0  0  0  0  0  0  0
   18.6349  -24.9402   -8.1364 C   0  0  0  0  0  0  0  0  0  0  0  0
   19.4828  -24.3535   -9.0616 C   0  0  0  0  0  0  0  0  0  0  0  0
   19.0728  -23.2007   -9.7019 C   0  0  0  0  0  0  0  0  0  0  0  0
   19.9129  -22.5161  -10.6874 C   0  0  0  0  0  0  0  0  0  0  0  0
   19.5661  -22.9764  -12.0862 C   0  0  2  0  0  0  0  0  0  0  0  0
   20.4564  -22.2334  -12.9809 N   0  0  0  0  0  0  0  0  0  0  0  0
   18.1556  -22.7613  -12.4488 C   0  0  0  0  0  0  0  0  0  0  0  0
   17.3343  -23.6997  -12.5717 O   0  0  0  0  0  0  0  0  0  0  0  0
   17.8308  -22.6271   -9.4321 C   0  0  0  0  0  0  0  0  0  0  0  0
   17.0262  -23.2477   -8.5060 C   0  0  0  0  0  0  0  0  0  0  0  0
   17.6579  -21.4768  -12.6772 O   0  0  0  0  0  0  0  0  0  0  0  0
  2  3  1  0
  2  1  1  6
  4  3  1  0
  4  5  2  0
  6  5  1  0
  7  6  1  0
  8  7  2  0
  9  8  1  0
 10  9  2  0
 10 11  1  0
 11 12  2  0
 12  7  1  0
 12  4  1  0
 13  2  1  0
 14 13  2  0
 15 13  1  0
 16 27  1  0
 16 15  1  0
 16 17  1  6
 18 17  1  0
 18 26  1  0
 19 20  1  0
 19 18  2  0
 20 21  1  0
 21 22  2  0
 21 26  1  0
 22 23  1  0
 23 24  2  0
 25 24  1  0
 26 25  2  0
 27 36  1  0
 28 27  2  0
 29 30  1  0
 30 40  2  0
 31 30  1  0
 31 32  2  0
 32 33  1  0
 33 39  2  0
 33 34  1  0
 35 34  1  1
 35 37  1  0
 36 35  1  0
 37 38  2  0
 37 41  1  0
 40 39  1  0
M  END
$$$$
