WWY.pdb
     RDKit          3D

 41 45  0  0  1  0  0  0  0  0999 V2000
   23.0259  -20.9939  -18.7066 N   0  0  0  0  0  0  0  0  0  0  0  0
   22.1112  -20.4176  -17.7769 C   0  0  1  0  0  0  0  0  0  0  0  0
   20.7602  -20.1077  -18.3782 C   0  0  0  0  0  0  0  0  0  0  0  0
   20.8530  -19.0973  -19.4546 C   0  0  0  0  0  0  0  0  0  0  0  0
   20.8134  -19.3567  -20.8107 C   0  0  0  0  0  0  0  0  0  0  0  0
   20.9256  -18.1833  -21.4862 N   0  0  0  0  0  0  0  0  0  0  0  0
   21.0373  -17.1662  -20.6149 C   0  0  0  0  0  0  0  0  0  0  0  0
   21.1746  -15.8029  -20.7443 C   0  0  0  0  0  0  0  0  0  0  0  0
   21.2675  -14.9998  -19.6309 C   0  0  0  0  0  0  0  0  0  0  0  0
   21.2262  -15.5299  -18.3734 C   0  0  0  0  0  0  0  0  0  0  0  0
   21.0886  -16.8964  -18.2431 C   0  0  0  0  0  0  0  0  0  0  0  0
   20.9925  -17.7335  -19.3356 C   0  0  0  0  0  0  0  0  0  0  0  0
   21.9811  -21.3145  -16.6065 C   0  0  0  0  0  0  0  0  0  0  0  0
   22.0188  -22.5600  -16.7482 O   0  0  0  0  0  0  0  0  0  0  0  0
   21.8128  -20.7329  -15.3234 N   0  0  0  0  0  0  0  0  0  0  0  0
   21.5750  -21.5765  -14.1801 C   0  0  1  0  0  0  0  0  0  0  0  0
   21.8023  -20.9041  -12.8631 C   0  0  0  0  0  0  0  0  0  0  0  0
   20.9457  -19.7406  -12.6149 C   0  0  0  0  0  0  0  0  0  0  0  0
   19.9100  -19.6821  -11.7096 C   0  0  0  0  0  0  0  0  0  0  0  0
   19.3480  -18.4647  -11.7197 N   0  0  0  0  0  0  0  0  0  0  0  0
   20.0183  -17.7383  -12.6292 C   0  0  0  0  0  0  0  0  0  0  0  0
   19.8383  -16.4359  -13.0256 C   0  0  0  0  0  0  0  0  0  0  0  0
   20.6367  -15.8656  -13.9928 C   0  0  0  0  0  0  0  0  0  0  0  0
   21.6295  -16.6341  -14.5612 C   0  0  0  0  0  0  0  0  0  0  0  0
   21.8155  -17.9592  -14.1602 C   0  0  0  0  0  0  0  0  0  0  0  0
   21.0232  -18.5126  -13.2048 C   0  0  0  0  0  0  0  0  0  0  0  0
   20.2034  -22.1387  -14.2969 C   0  0  0  0  0  0  0  0  0  0  0  0
   19.2390  -21.4501  -14.7160 O   0  0  0  0  0  0  0  0  0  0  0  0
   13.2116  -25.9363  -16.6613 O   0  0  0  0  0  0  0  0  0  0  0  0
   14.4868  -25.4188  -16.4321 C   0  0  0  0  0  0  0  0  0  0  0  0
   15.2144  -24.8842  -17.4514 C   0  0  0  0  0  0  0  0  0  0  0  0
   16.4807  -24.3703  -17.2242 C   0  0  0  0  0  0  0  0  0  0  0  0
   16.9943  -24.4096  -15.9428 C   0  0  0  0  0  0  0  0  0  0  0  0
   18.3268  -23.8935  -15.6215 C   0  0  0  0  0  0  0  0  0  0  0  0
   18.6068  -24.0418  -14.1422 C   0  0  2  0  0  0  0  0  0  0  0  0
   19.9452  -23.4845  -13.9335 N   0  0  0  0  0  0  0  0  0  0  0  0
   18.5340  -25.4312  -13.6610 C   0  0  0  0  0  0  0  0  0  0  0  0
   17.5016  -25.9187  -13.1445 O   0  0  0  0  0  0  0  0  0  0  0  0
   16.2625  -24.9535  -14.8877 C   0  0  0  0  0  0  0  0  0  0  0  0
   15.0110  -25.4503  -15.1650 C   0  0  0  0  0  0  0  0  0  0  0  0
   19.6332  -26.2867  -13.7597 O   0  0  0  0  0  0  0  0  0  0  0  0
  2  3  1  0
  2  1  1  6
  4  3  1  0
  4  5  2  0
  6  5  1  0
  7  6  1  0
  8  7  2  0
  9  8  1  0
 10  9  2  0
 10 11  1  0
 11 12  2  0
 12  7  1  0
 12  4  1  0
 13  2  1  0
 14 13  2  0
 15 13  1  0
 16 27  1  0
 16 15  1  0
 16 17  1  1
 18 17  1  0
 18 26  1  0
 19 20  1  0
 19 18  2  0
 20 21  1  0
 21 22  2  0
 21 26  1  0
 22 23  1  0
 23 24  2  0
 25 24  1  0
 26 25  2  0
 27 36  1  0
 28 27  2  0
 29 30  1  0
 30 40  2  0
 31 30  1  0
 31 32  2  0
 32 33  1  0
 33 39  2  0
 33 34  1  0
 35 34  1  6
 35 37  1  0
 36 35  1  0
 37 38  2  0
 37 41  1  0
 40 39  1  0
M  END
$$$$
