WWY.pdb
     RDKit          3D

 41 45  0  0  1  0  0  0  0  0999 V2000
   24.5109  -19.2501  -10.2395 N   0  0  0  0  0  0  0  0  0  0  0  0
   25.8113  -19.7555  -10.5342 C   0  0  1  0  0  0  0  0  0  0  0  0
   26.1396  -21.0327   -9.7969 C   0  0  0  0  0  0  0  0  0  0  0  0
   26.4009  -20.7905   -8.3612 C   0  0  0  0  0  0  0  0  0  0  0  0
   25.4429  -20.5482   -7.3962 C   0  0  0  0  0  0  0  0  0  0  0  0
   26.0597  -20.3752   -6.1981 N   0  0  0  0  0  0  0  0  0  0  0  0
   27.3894  -20.4968   -6.3498 C   0  0  0  0  0  0  0  0  0  0  0  0
   28.4639  -20.4175   -5.4933 C   0  0  0  0  0  0  0  0  0  0  0  0
   29.7462  -20.5924   -5.9608 C   0  0  0  0  0  0  0  0  0  0  0  0
   29.9873  -20.8479   -7.2801 C   0  0  0  0  0  0  0  0  0  0  0  0
   28.9107  -20.9275   -8.1390 C   0  0  0  0  0  0  0  0  0  0  0  0
   27.6113  -20.7579   -7.7074 C   0  0  0  0  0  0  0  0  0  0  0  0
   25.9401  -19.9361  -11.9978 C   0  0  0  0  0  0  0  0  0  0  0  0
   24.9628  -20.3211  -12.6829 O   0  0  0  0  0  0  0  0  0  0  0  0
   27.1930  -19.6642  -12.6055 N   0  0  0  0  0  0  0  0  0  0  0  0
   27.2985  -19.6229  -14.0417 C   0  0  1  0  0  0  0  0  0  0  0  0
   28.3501  -18.6899  -14.5535 C   0  0  0  0  0  0  0  0  0  0  0  0
   27.8418  -17.5888  -15.3772 C   0  0  0  0  0  0  0  0  0  0  0  0
   26.9715  -16.6070  -14.9600 C   0  0  0  0  0  0  0  0  0  0  0  0
   26.7280  -15.7434  -15.9565 N   0  0  0  0  0  0  0  0  0  0  0  0
   27.4386  -16.1661  -17.0150 C   0  0  0  0  0  0  0  0  0  0  0  0
   27.5357  -15.6405  -18.2800 C   0  0  0  0  0  0  0  0  0  0  0  0
   28.3243  -16.2327  -19.2421 C   0  0  0  0  0  0  0  0  0  0  0  0
   29.0209  -17.3740  -18.9084 C   0  0  0  0  0  0  0  0  0  0  0  0
   28.9246  -17.9111  -17.6226 C   0  0  0  0  0  0  0  0  0  0  0  0
   28.1446  -17.3193  -16.6801 C   0  0  0  0  0  0  0  0  0  0  0  0
   27.4914  -21.0133  -14.5319 C   0  0  0  0  0  0  0  0  0  0  0  0
   28.3292  -21.7900  -14.0078 O   0  0  0  0  0  0  0  0  0  0  0  0
   21.0141  -22.9615  -14.1437 O   0  0  0  0  0  0  0  0  0  0  0  0
   22.3649  -23.1809  -14.4150 C   0  0  0  0  0  0  0  0  0  0  0  0
   22.7637  -23.6490  -15.6298 C   0  0  0  0  0  0  0  0  0  0  0  0
   24.1049  -23.8671  -15.8995 C   0  0  0  0  0  0  0  0  0  0  0  0
   25.0334  -23.6010  -14.9126 C   0  0  0  0  0  0  0  0  0  0  0  0
   26.4686  -23.8113  -15.1161 C   0  0  0  0  0  0  0  0  0  0  0  0
   27.0023  -22.8421  -16.1479 C   0  0  2  0  0  0  0  0  0  0  0  0
   26.7244  -21.5052  -15.6180 N   0  0  0  0  0  0  0  0  0  0  0  0
   26.4093  -23.0126  -17.4845 C   0  0  0  0  0  0  0  0  0  0  0  0
   26.5680  -24.0484  -18.1717 O   0  0  0  0  0  0  0  0  0  0  0  0
   24.6422  -23.1211  -13.6631 C   0  0  0  0  0  0  0  0  0  0  0  0
   23.2996  -22.9213  -13.4453 C   0  0  0  0  0  0  0  0  0  0  0  0
   25.6275  -22.0088  -18.0596 O   0  0  0  0  0  0  0  0  0  0  0  0
  2  3  1  0
  2  1  1  6
  4  3  1  0
  4  5  2  0
  6  5  1  0
  7  6  1  0
  8  7  2  0
  9  8  1  0
 10  9  2  0
 10 11  1  0
 11 12  2  0
 12  7  1  0
 12  4  1  0
 13  2  1  0
 14 13  2  0
 15 13  1  0
 16 27  1  0
 16 15  1  0
 16 17  1  1
 18 17  1  0
 18 26  1  0
 19 20  1  0
 19 18  2  0
 20 21  1  0
 21 22  2  0
 21 26  1  0
 22 23  1  0
 23 24  2  0
 25 24  1  0
 26 25  2  0
 27 36  1  0
 28 27  2  0
 29 30  1  0
 30 40  2  0
 31 30  1  0
 31 32  2  0
 32 33  1  0
 33 39  2  0
 33 34  1  0
 35 34  1  1
 35 37  1  0
 36 35  1  0
 37 38  2  0
 37 41  1  0
 40 39  1  0
M  END
$$$$
