WWY.pdb
     RDKit          3D

 41 45  0  0  1  0  0  0  0  0999 V2000
   28.9616  -19.9902  -15.9525 N   0  0  0  0  0  0  0  0  0  0  0  0
   27.7898  -19.6301  -15.2242 C   0  0  1  0  0  0  0  0  0  0  0  0
   26.8222  -18.7882  -16.0229 C   0  0  0  0  0  0  0  0  0  0  0  0
   27.4412  -17.5289  -16.4908 C   0  0  0  0  0  0  0  0  0  0  0  0
   27.8571  -17.2647  -17.7812 C   0  0  0  0  0  0  0  0  0  0  0  0
   28.3726  -16.0086  -17.8285 N   0  0  0  0  0  0  0  0  0  0  0  0
   28.3068  -15.4442  -16.6106 C   0  0  0  0  0  0  0  0  0  0  0  0
   28.6756  -14.2209  -16.0990 C   0  0  0  0  0  0  0  0  0  0  0  0
   28.4743  -13.9285  -14.7696 C   0  0  0  0  0  0  0  0  0  0  0  0
   27.9064  -14.8388  -13.9254 C   0  0  0  0  0  0  0  0  0  0  0  0
   27.5366  -16.0652  -14.4376 C   0  0  0  0  0  0  0  0  0  0  0  0
   27.7223  -16.3944  -15.7644 C   0  0  0  0  0  0  0  0  0  0  0  0
   27.1370  -20.8590  -14.7194 C   0  0  0  0  0  0  0  0  0  0  0  0
   26.9634  -21.8463  -15.4729 O   0  0  0  0  0  0  0  0  0  0  0  0
   26.7129  -20.8929  -13.3659 N   0  0  0  0  0  0  0  0  0  0  0  0
   26.0058  -22.0440  -12.8655 C   0  0  1  0  0  0  0  0  0  0  0  0
   26.3955  -22.4492  -11.4791 C   0  0  0  0  0  0  0  0  0  0  0  0
   26.2635  -21.3909  -10.4732 C   0  0  0  0  0  0  0  0  0  0  0  0
   25.2169  -20.5019  -10.3730 C   0  0  0  0  0  0  0  0  0  0  0  0
   25.3994  -19.6803   -9.3290 N   0  0  0  0  0  0  0  0  0  0  0  0
   26.5607  -20.0370   -8.7562 C   0  0  0  0  0  0  0  0  0  0  0  0
   27.2036  -19.5118   -7.6623 C   0  0  0  0  0  0  0  0  0  0  0  0
   28.4084  -20.0199   -7.2284 C   0  0  0  0  0  0  0  0  0  0  0  0
   28.9625  -21.0757   -7.9195 C   0  0  0  0  0  0  0  0  0  0  0  0
   28.3112  -21.6124   -9.0325 C   0  0  0  0  0  0  0  0  0  0  0  0
   27.1226  -21.1048   -9.4524 C   0  0  0  0  0  0  0  0  0  0  0  0
   24.5474  -21.7802  -12.9868 C   0  0  0  0  0  0  0  0  0  0  0  0
   24.0901  -20.6121  -13.0653 O   0  0  0  0  0  0  0  0  0  0  0  0
   15.9445  -23.3431  -13.5339 O   0  0  0  0  0  0  0  0  0  0  0  0
   17.3335  -23.4720  -13.5104 C   0  0  0  0  0  0  0  0  0  0  0  0
   18.0794  -23.1664  -14.6078 C   0  0  0  0  0  0  0  0  0  0  0  0
   19.4587  -23.2944  -14.5849 C   0  0  0  0  0  0  0  0  0  0  0  0
   20.0661  -23.7386  -13.4269 C   0  0  0  0  0  0  0  0  0  0  0  0
   21.5174  -23.9072  -13.3238 C   0  0  0  0  0  0  0  0  0  0  0  0
   22.1900  -22.5682  -13.1155 C   0  0  2  0  0  0  0  0  0  0  0  0
   23.6231  -22.8547  -13.0178 N   0  0  0  0  0  0  0  0  0  0  0  0
   21.7152  -21.8447  -11.9246 C   0  0  0  0  0  0  0  0  0  0  0  0
   22.2374  -21.9802  -10.7936 O   0  0  0  0  0  0  0  0  0  0  0  0
   19.3171  -24.0559  -12.2942 C   0  0  0  0  0  0  0  0  0  0  0  0
   17.9519  -23.9119  -12.3679 C   0  0  0  0  0  0  0  0  0  0  0  0
   20.6400  -20.9570  -12.0015 O   0  0  0  0  0  0  0  0  0  0  0  0
  2  3  1  0
  2  1  1  6
  4  3  1  0
  4  5  2  0
  6  5  1  0
  7  6  1  0
  8  7  2  0
  9  8  1  0
 10  9  2  0
 10 11  1  0
 11 12  2  0
 12  7  1  0
 12  4  1  0
 13  2  1  0
 14 13  2  0
 15 13  1  0
 16 27  1  0
 16 15  1  0
 16 17  1  1
 18 17  1  0
 18 26  1  0
 19 20  1  0
 19 18  2  0
 20 21  1  0
 21 22  2  0
 21 26  1  0
 22 23  1  0
 23 24  2  0
 25 24  1  0
 26 25  2  0
 27 36  1  0
 28 27  2  0
 29 30  1  0
 30 40  2  0
 31 30  1  0
 31 32  2  0
 32 33  1  0
 33 39  2  0
 33 34  1  0
 35 34  1  1
 35 37  1  0
 36 35  1  0
 37 38  2  0
 37 41  1  0
 40 39  1  0
M  END
$$$$
