WWY.pdb
     RDKit          3D

 41 45  0  0  1  0  0  0  0  0999 V2000
   27.5162  -23.6403  -16.9323 N   0  0  0  0  0  0  0  0  0  0  0  0
   26.5630  -22.5799  -16.9216 C   0  0  1  0  0  0  0  0  0  0  0  0
   25.4058  -22.8040  -17.8669 C   0  0  0  0  0  0  0  0  0  0  0  0
   25.6381  -22.1723  -19.1842 C   0  0  0  0  0  0  0  0  0  0  0  0
   26.3294  -22.7358  -20.2389 C   0  0  0  0  0  0  0  0  0  0  0  0
   26.3339  -21.8615  -21.2788 N   0  0  0  0  0  0  0  0  0  0  0  0
   25.6680  -20.7454  -20.9370 C   0  0  0  0  0  0  0  0  0  0  0  0
   25.3722  -19.5682  -21.5858 C   0  0  0  0  0  0  0  0  0  0  0  0
   24.6510  -18.5820  -20.9528 C   0  0  0  0  0  0  0  0  0  0  0  0
   24.2111  -18.7428  -19.6704 C   0  0  0  0  0  0  0  0  0  0  0  0
   24.5073  -19.9225  -19.0196 C   0  0  0  0  0  0  0  0  0  0  0  0
   25.2277  -20.9337  -19.6213 C   0  0  0  0  0  0  0  0  0  0  0  0
   26.0869  -22.3711  -15.5356 C   0  0  0  0  0  0  0  0  0  0  0  0
   25.9641  -23.3401  -14.7490 O   0  0  0  0  0  0  0  0  0  0  0  0
   25.7730  -21.0516  -15.1194 N   0  0  0  0  0  0  0  0  0  0  0  0
   25.2572  -20.8222  -13.7940 C   0  0  1  0  0  0  0  0  0  0  0  0
   25.9188  -19.6962  -13.0641 C   0  0  0  0  0  0  0  0  0  0  0  0
   26.8392  -20.1133  -12.0020 C   0  0  0  0  0  0  0  0  0  0  0  0
   28.1257  -20.5683  -12.1848 C   0  0  0  0  0  0  0  0  0  0  0  0
   28.6968  -20.8440  -11.0033 N   0  0  0  0  0  0  0  0  0  0  0  0
   27.7818  -20.5683  -10.0594 C   0  0  0  0  0  0  0  0  0  0  0  0
   27.8608  -20.6823   -8.6932 C   0  0  0  0  0  0  0  0  0  0  0  0
   26.7955  -20.3509   -7.8849 C   0  0  0  0  0  0  0  0  0  0  0  0
   25.6371  -19.8983   -8.4786 C   0  0  0  0  0  0  0  0  0  0  0  0
   25.5534  -19.7810   -9.8680 C   0  0  0  0  0  0  0  0  0  0  0  0
   26.6100  -20.1098  -10.6569 C   0  0  0  0  0  0  0  0  0  0  0  0
   23.7849  -20.6407  -13.8952 C   0  0  0  0  0  0  0  0  0  0  0  0
   23.2624  -19.9708  -14.8215 O   0  0  0  0  0  0  0  0  0  0  0  0
   21.3694  -27.1905  -14.0507 O   0  0  0  0  0  0  0  0  0  0  0  0
   21.3157  -25.7992  -14.1390 C   0  0  0  0  0  0  0  0  0  0  0  0
   22.3326  -25.0985  -14.7127 C   0  0  0  0  0  0  0  0  0  0  0  0
   22.2797  -23.7169  -14.8005 C   0  0  0  0  0  0  0  0  0  0  0  0
   21.1750  -23.0604  -14.2948 C   0  0  0  0  0  0  0  0  0  0  0  0
   21.0459  -21.6022  -14.3427 C   0  0  0  0  0  0  0  0  0  0  0  0
   21.4784  -20.9913  -13.0279 C   0  0  2  0  0  0  0  0  0  0  0  0
   22.9211  -21.2270  -12.9361 N   0  0  0  0  0  0  0  0  0  0  0  0
   20.7785  -21.5459  -11.8575 C   0  0  0  0  0  0  0  0  0  0  0  0
   19.5464  -21.4098  -11.6745 O   0  0  0  0  0  0  0  0  0  0  0  0
   20.1249  -23.7626  -13.7042 C   0  0  0  0  0  0  0  0  0  0  0  0
   20.2253  -25.1322  -13.6415 C   0  0  0  0  0  0  0  0  0  0  0  0
   21.4686  -22.2629  -10.8780 O   0  0  0  0  0  0  0  0  0  0  0  0
  2  3  1  0
  2  1  1  1
  4  3  1  0
  4  5  2  0
  6  5  1  0
  7  6  1  0
  8  7  2  0
  9  8  1  0
 10  9  2  0
 10 11  1  0
 11 12  2  0
 12  7  1  0
 12  4  1  0
 13  2  1  0
 14 13  2  0
 15 13  1  0
 16 27  1  0
 16 15  1  0
 16 17  1  6
 18 17  1  0
 18 26  1  0
 19 20  1  0
 19 18  2  0
 20 21  1  0
 21 22  2  0
 21 26  1  0
 22 23  1  0
 23 24  2  0
 25 24  1  0
 26 25  2  0
 27 36  1  0
 28 27  2  0
 29 30  1  0
 30 40  2  0
 31 30  1  0
 31 32  2  0
 32 33  1  0
 33 39  2  0
 33 34  1  0
 35 34  1  6
 35 37  1  0
 36 35  1  0
 37 38  2  0
 37 41  1  0
 40 39  1  0
M  END
$$$$
