WWY.pdb
     RDKit          3D

 41 45  0  0  1  0  0  0  0  0999 V2000
   27.7168  -31.7558  -20.8255 N   0  0  0  0  0  0  0  0  0  0  0  0
   26.8061  -31.8281  -19.7307 C   0  0  1  0  0  0  0  0  0  0  0  0
   25.5639  -32.6323  -20.0359 C   0  0  0  0  0  0  0  0  0  0  0  0
   24.6360  -31.8997  -20.9250 C   0  0  0  0  0  0  0  0  0  0  0  0
   24.8658  -30.6581  -21.4848 C   0  0  0  0  0  0  0  0  0  0  0  0
   23.7917  -30.3111  -22.2409 N   0  0  0  0  0  0  0  0  0  0  0  0
   22.8680  -31.2861  -22.1927 C   0  0  0  0  0  0  0  0  0  0  0  0
   21.6231  -31.4567  -22.7544 C   0  0  0  0  0  0  0  0  0  0  0  0
   20.8957  -32.5990  -22.5106 C   0  0  0  0  0  0  0  0  0  0  0  0
   21.3858  -33.5896  -21.7092 C   0  0  0  0  0  0  0  0  0  0  0  0
   22.6335  -33.4192  -21.1459 C   0  0  0  0  0  0  0  0  0  0  0  0
   23.3921  -32.2882  -21.3671 C   0  0  0  0  0  0  0  0  0  0  0  0
   27.5135  -32.3675  -18.5475 C   0  0  0  0  0  0  0  0  0  0  0  0
   28.3511  -33.2926  -18.6703 O   0  0  0  0  0  0  0  0  0  0  0  0
   27.2215  -31.8143  -17.2741 N   0  0  0  0  0  0  0  0  0  0  0  0
   27.9149  -32.2972  -16.1073 C   0  0  1  0  0  0  0  0  0  0  0  0
   28.8374  -31.2979  -15.4838 C   0  0  0  0  0  0  0  0  0  0  0  0
   30.0064  -30.9536  -16.2986 C   0  0  0  0  0  0  0  0  0  0  0  0
   30.0672  -29.9437  -17.2325 C   0  0  0  0  0  0  0  0  0  0  0  0
   31.2894  -29.8868  -17.7811 N   0  0  0  0  0  0  0  0  0  0  0  0
   32.0166  -30.8575  -17.2038 C   0  0  0  0  0  0  0  0  0  0  0  0
   33.3233  -31.2245  -17.4125 C   0  0  0  0  0  0  0  0  0  0  0  0
   33.8936  -32.2669  -16.7153 C   0  0  0  0  0  0  0  0  0  0  0  0
   33.1208  -32.9417  -15.7951 C   0  0  0  0  0  0  0  0  0  0  0  0
   31.7914  -32.5708  -15.5802 C   0  0  0  0  0  0  0  0  0  0  0  0
   31.2379  -31.5406  -16.2724 C   0  0  0  0  0  0  0  0  0  0  0  0
   26.9025  -32.8071  -15.1450 C   0  0  0  0  0  0  0  0  0  0  0  0
   25.9184  -32.1113  -14.7885 O   0  0  0  0  0  0  0  0  0  0  0  0
   23.5268  -37.7674  -18.4634 O   0  0  0  0  0  0  0  0  0  0  0  0
   24.1802  -37.3531  -17.3025 C   0  0  0  0  0  0  0  0  0  0  0  0
   25.5397  -37.2957  -17.2518 C   0  0  0  0  0  0  0  0  0  0  0  0
   26.1889  -36.8844  -16.0991 C   0  0  0  0  0  0  0  0  0  0  0  0
   25.4317  -36.5326  -14.9990 C   0  0  0  0  0  0  0  0  0  0  0  0
   26.0416  -36.0941  -13.7416 C   0  0  0  0  0  0  0  0  0  0  0  0
   26.0191  -34.5845  -13.6433 C   0  0  2  0  0  0  0  0  0  0  0  0
   27.0232  -34.1094  -14.5979 N   0  0  0  0  0  0  0  0  0  0  0  0
   26.2955  -34.0741  -12.2904 C   0  0  0  0  0  0  0  0  0  0  0  0
   27.4443  -33.7527  -11.9065 O   0  0  0  0  0  0  0  0  0  0  0  0
   24.0387  -36.5856  -15.0340 C   0  0  0  0  0  0  0  0  0  0  0  0
   23.4425  -37.0002  -16.2013 C   0  0  0  0  0  0  0  0  0  0  0  0
   25.2708  -33.9214  -11.3542 O   0  0  0  0  0  0  0  0  0  0  0  0
  2  3  1  0
  2  1  1  6
  4  3  1  0
  4  5  2  0
  6  5  1  0
  7  6  1  0
  8  7  2  0
  9  8  1  0
 10  9  2  0
 10 11  1  0
 11 12  2  0
 12  7  1  0
 12  4  1  0
 13  2  1  0
 14 13  2  0
 15 13  1  0
 16 27  1  0
 16 15  1  0
 16 17  1  1
 18 17  1  0
 18 26  1  0
 19 20  1  0
 19 18  2  0
 20 21  1  0
 21 22  2  0
 21 26  1  0
 22 23  1  0
 23 24  2  0
 25 24  1  0
 26 25  2  0
 27 36  1  0
 28 27  2  0
 29 30  1  0
 30 40  2  0
 31 30  1  0
 31 32  2  0
 32 33  1  0
 33 39  2  0
 33 34  1  0
 35 34  1  1
 35 37  1  0
 36 35  1  0
 37 38  2  0
 37 41  1  0
 40 39  1  0
M  END
$$$$
