WWY.pdb
     RDKit          3D

 41 45  0  0  1  0  0  0  0  0999 V2000
   28.5635  -22.2252  -15.8442 N   0  0  0  0  0  0  0  0  0  0  0  0
   27.5107  -21.2883  -16.0615 C   0  0  1  0  0  0  0  0  0  0  0  0
   26.8302  -21.4507  -17.4007 C   0  0  0  0  0  0  0  0  0  0  0  0
   26.1148  -20.2222  -17.8095 C   0  0  0  0  0  0  0  0  0  0  0  0
   26.7051  -19.0278  -18.1741 C   0  0  0  0  0  0  0  0  0  0  0  0
   25.7312  -18.1329  -18.4847 N   0  0  0  0  0  0  0  0  0  0  0  0
   24.5242  -18.7045  -18.3347 C   0  0  0  0  0  0  0  0  0  0  0  0
   23.2293  -18.2707  -18.5066 C   0  0  0  0  0  0  0  0  0  0  0  0
   22.1702  -19.1153  -18.2653 C   0  0  0  0  0  0  0  0  0  0  0  0
   22.3730  -20.4002  -17.8508 C   0  0  0  0  0  0  0  0  0  0  0  0
   23.6706  -20.8356  -17.6783 C   0  0  0  0  0  0  0  0  0  0  0  0
   24.7576  -20.0182  -17.9103 C   0  0  0  0  0  0  0  0  0  0  0  0
   26.5360  -21.3896  -14.9520 C   0  0  0  0  0  0  0  0  0  0  0  0
   26.1643  -22.5098  -14.5280 O   0  0  0  0  0  0  0  0  0  0  0  0
   26.0332  -20.1919  -14.3814 N   0  0  0  0  0  0  0  0  0  0  0  0
   25.1841  -20.2536  -13.2192 C   0  0  1  0  0  0  0  0  0  0  0  0
   25.6977  -19.4860  -12.0422 C   0  0  0  0  0  0  0  0  0  0  0  0
   26.6057  -20.2381  -11.1710 C   0  0  0  0  0  0  0  0  0  0  0  0
   26.2481  -20.9084  -10.0228 C   0  0  0  0  0  0  0  0  0  0  0  0
   27.3171  -21.5081   -9.4790 N   0  0  0  0  0  0  0  0  0  0  0  0
   28.3628  -21.2259  -10.2733 C   0  0  0  0  0  0  0  0  0  0  0  0
   29.6812  -21.5935  -10.1611 C   0  0  0  0  0  0  0  0  0  0  0  0
   30.6173  -21.1917  -11.0887 C   0  0  0  0  0  0  0  0  0  0  0  0
   30.2021  -20.4059  -12.1420 C   0  0  0  0  0  0  0  0  0  0  0  0
   28.8619  -20.0304  -12.2593 C   0  0  0  0  0  0  0  0  0  0  0  0
   27.9457  -20.4323  -11.3395 C   0  0  0  0  0  0  0  0  0  0  0  0
   23.8184  -19.8237  -13.6204 C   0  0  0  0  0  0  0  0  0  0  0  0
   23.6292  -18.8283  -14.3642 O   0  0  0  0  0  0  0  0  0  0  0  0
   16.2026  -19.7623  -17.2575 O   0  0  0  0  0  0  0  0  0  0  0  0
   17.4871  -19.8980  -16.7302 C   0  0  0  0  0  0  0  0  0  0  0  0
   18.3166  -18.8225  -16.6328 C   0  0  0  0  0  0  0  0  0  0  0  0
   19.5922  -18.9568  -16.1094 C   0  0  0  0  0  0  0  0  0  0  0  0
   20.0096  -20.2036  -15.6868 C   0  0  0  0  0  0  0  0  0  0  0  0
   21.3446  -20.4302  -15.1284 C   0  0  0  0  0  0  0  0  0  0  0  0
   21.3502  -20.1437  -13.6429 C   0  0  2  0  0  0  0  0  0  0  0  0
   22.6791  -20.5358  -13.1679 N   0  0  0  0  0  0  0  0  0  0  0  0
   20.2950  -20.8506  -12.8985 C   0  0  0  0  0  0  0  0  0  0  0  0
   20.4738  -21.9691  -12.3625 O   0  0  0  0  0  0  0  0  0  0  0  0
   19.1729  -21.3153  -15.7793 C   0  0  0  0  0  0  0  0  0  0  0  0
   17.9167  -21.1296  -16.3059 C   0  0  0  0  0  0  0  0  0  0  0  0
   19.0215  -20.2969  -12.7524 O   0  0  0  0  0  0  0  0  0  0  0  0
  2  3  1  0
  2  1  1  1
  4  3  1  0
  4  5  2  0
  6  5  1  0
  7  6  1  0
  8  7  2  0
  9  8  1  0
 10  9  2  0
 10 11  1  0
 11 12  2  0
 12  7  1  0
 12  4  1  0
 13  2  1  0
 14 13  2  0
 15 13  1  0
 16 27  1  0
 16 15  1  0
 16 17  1  1
 18 17  1  0
 18 26  1  0
 19 20  1  0
 19 18  2  0
 20 21  1  0
 21 22  2  0
 21 26  1  0
 22 23  1  0
 23 24  2  0
 25 24  1  0
 26 25  2  0
 27 36  1  0
 28 27  2  0
 29 30  1  0
 30 40  2  0
 31 30  1  0
 31 32  2  0
 32 33  1  0
 33 39  2  0
 33 34  1  0
 35 34  1  6
 35 37  1  0
 36 35  1  0
 37 38  2  0
 37 41  1  0
 40 39  1  0
M  END
$$$$
