WWY.pdb
     RDKit          3D

 41 45  0  0  1  0  0  0  0  0999 V2000
   20.5843  -20.8083  -18.1294 N   0  0  0  0  0  0  0  0  0  0  0  0
   21.1906  -21.5993  -17.1096 C   0  0  1  0  0  0  0  0  0  0  0  0
   22.3094  -20.8883  -16.3846 C   0  0  0  0  0  0  0  0  0  0  0  0
   23.3256  -20.3590  -17.3202 C   0  0  0  0  0  0  0  0  0  0  0  0
   23.8503  -19.0814  -17.3037 C   0  0  0  0  0  0  0  0  0  0  0  0
   24.7548  -18.9646  -18.3107 N   0  0  0  0  0  0  0  0  0  0  0  0
   24.8374  -20.1246  -18.9841 C   0  0  0  0  0  0  0  0  0  0  0  0
   25.5725  -20.5562  -20.0648 C   0  0  0  0  0  0  0  0  0  0  0  0
   25.4327  -21.8405  -20.5386 C   0  0  0  0  0  0  0  0  0  0  0  0
   24.5657  -22.7178  -19.9533 C   0  0  0  0  0  0  0  0  0  0  0  0
   23.8286  -22.2857  -18.8701 C   0  0  0  0  0  0  0  0  0  0  0  0
   23.9416  -21.0061  -18.3669 C   0  0  0  0  0  0  0  0  0  0  0  0
   20.1461  -22.0535  -16.1641 C   0  0  0  0  0  0  0  0  0  0  0  0
   19.3310  -21.2375  -15.6718 O   0  0  0  0  0  0  0  0  0  0  0  0
   20.0895  -23.4309  -15.8287 N   0  0  0  0  0  0  0  0  0  0  0  0
   19.0136  -23.9245  -15.0076 C   0  0  1  0  0  0  0  0  0  0  0  0
   18.0563  -24.8229  -15.7249 C   0  0  0  0  0  0  0  0  0  0  0  0
   17.2141  -24.1500  -16.7184 C   0  0  0  0  0  0  0  0  0  0  0  0
   17.0551  -22.7886  -16.8491 C   0  0  0  0  0  0  0  0  0  0  0  0
   16.2329  -22.5096  -17.8709 N   0  0  0  0  0  0  0  0  0  0  0  0
   15.8610  -23.6873  -18.3990 C   0  0  0  0  0  0  0  0  0  0  0  0
   15.0264  -23.9568  -19.4557 C   0  0  0  0  0  0  0  0  0  0  0  0
   14.7611  -25.2513  -19.8456 C   0  0  0  0  0  0  0  0  0  0  0  0
   15.3546  -26.2814  -19.1484 C   0  0  0  0  0  0  0  0  0  0  0  0
   16.2041  -26.0107  -18.0732 C   0  0  0  0  0  0  0  0  0  0  0  0
   16.4602  -24.7304  -17.6966 C   0  0  0  0  0  0  0  0  0  0  0  0
   19.6067  -24.5747  -13.8090 C   0  0  0  0  0  0  0  0  0  0  0  0
   20.5333  -25.4185  -13.9038 O   0  0  0  0  0  0  0  0  0  0  0  0
   14.6799  -28.9938   -8.3993 O   0  0  0  0  0  0  0  0  0  0  0  0
   15.2765  -28.0646   -9.2519 C   0  0  0  0  0  0  0  0  0  0  0  0
   15.4352  -28.3371  -10.5765 C   0  0  0  0  0  0  0  0  0  0  0  0
   16.0276  -27.4147  -11.4235 C   0  0  0  0  0  0  0  0  0  0  0  0
   16.4560  -26.2106  -10.9002 C   0  0  0  0  0  0  0  0  0  0  0  0
   17.0976  -25.1860  -11.7271 C   0  0  0  0  0  0  0  0  0  0  0  0
   18.6030  -25.3180  -11.6561 C   0  0  2  0  0  0  0  0  0  0  0  0
   19.1356  -24.2544  -12.5108 N   0  0  0  0  0  0  0  0  0  0  0  0
   19.1037  -26.6355  -12.0812 C   0  0  0  0  0  0  0  0  0  0  0  0
   18.9797  -27.0647  -13.2520 O   0  0  0  0  0  0  0  0  0  0  0  0
   16.3012  -25.9155   -9.5461 C   0  0  0  0  0  0  0  0  0  0  0  0
   15.7073  -26.8640   -8.7476 C   0  0  0  0  0  0  0  0  0  0  0  0
   19.7523  -27.4845  -11.1821 O   0  0  0  0  0  0  0  0  0  0  0  0
  2  3  1  0
  2  1  1  6
  4  3  1  0
  4  5  2  0
  6  5  1  0
  7  6  1  0
  8  7  2  0
  9  8  1  0
 10  9  2  0
 10 11  1  0
 11 12  2  0
 12  7  1  0
 12  4  1  0
 13  2  1  0
 14 13  2  0
 15 13  1  0
 16 27  1  0
 16 15  1  0
 16 17  1  6
 18 17  1  0
 18 26  1  0
 19 20  1  0
 19 18  2  0
 20 21  1  0
 21 22  2  0
 21 26  1  0
 22 23  1  0
 23 24  2  0
 25 24  1  0
 26 25  2  0
 27 36  1  0
 28 27  2  0
 29 30  1  0
 30 40  2  0
 31 30  1  0
 31 32  2  0
 32 33  1  0
 33 39  2  0
 33 34  1  0
 35 34  1  6
 35 37  1  0
 36 35  1  0
 37 38  2  0
 37 41  1  0
 40 39  1  0
M  END
$$$$
