DDF.pdb
     RDKit          3D

 28 28  0  0  1  0  0  0  0  0999 V2000
    9.2016  -18.5950   18.3974 N   0  0  0  0  0  0  0  0  0  0  0  0
    8.4949  -17.3848   18.6937 C   0  0  1  0  0  0  0  0  0  0  0  0
    7.3598  -17.1804   17.7091 C   0  0  0  0  0  0  0  0  0  0  0  0
    7.9325  -17.0978   16.3448 C   0  0  0  0  0  0  0  0  0  0  0  0
    8.4912  -18.0654   15.7560 O   0  0  0  0  0  0  0  0  0  0  0  0
    8.0103  -17.2988   20.0977 C   0  0  0  0  0  0  0  0  0  0  0  0
    6.7652  -17.5092   20.2427 O   0  0  0  0  0  0  0  0  0  0  0  0
    7.8772  -15.9075   15.6276 O   0  0  0  0  0  0  0  0  0  0  0  0
    8.8735  -17.0052   21.1910 N   0  0  0  0  0  0  0  0  0  0  0  0
    8.3310  -17.1025   22.5275 C   0  0  1  0  0  0  0  0  0  0  0  0
    7.8808  -18.5155   22.8682 C   0  0  0  0  0  0  0  0  0  0  0  0
    8.9909  -19.4860   22.8321 C   0  0  0  0  0  0  0  0  0  0  0  0
    9.9000  -19.4074   21.9756 O   0  0  0  0  0  0  0  0  0  0  0  0
    9.3314  -16.7440   23.5673 C   0  0  0  0  0  0  0  0  0  0  0  0
   10.4940  -17.1996   23.4021 O   0  0  0  0  0  0  0  0  0  0  0  0
    9.0118  -20.4890   23.7640 O   0  0  0  0  0  0  0  0  0  0  0  0
    8.9672  -15.9347   24.6667 N   0  0  0  0  0  0  0  0  0  0  0  0
   10.0004  -15.4321   25.5804 C   0  0  1  0  0  0  0  0  0  0  0  0
   10.0266  -13.9256   25.5377 C   0  0  0  0  0  0  0  0  0  0  0  0
    8.7136  -13.3725   25.8761 C   0  0  0  0  0  0  0  0  0  0  0  0
    7.7196  -13.2712   24.9306 C   0  0  0  0  0  0  0  0  0  0  0  0
    6.4738  -12.7728   25.2369 C   0  0  0  0  0  0  0  0  0  0  0  0
    6.1988  -12.3589   26.5238 C   0  0  0  0  0  0  0  0  0  0  0  0
    7.1812  -12.4553   27.4732 C   0  0  0  0  0  0  0  0  0  0  0  0
    8.4306  -12.9609   27.1429 C   0  0  0  0  0  0  0  0  0  0  0  0
    9.8111  -15.9918   26.9345 C   0  0  0  0  0  0  0  0  0  0  0  0
    8.8035  -16.8551   27.2613 O   0  0  0  0  0  0  0  0  0  0  0  0
   10.6138  -15.6667   27.8620 O   0  0  0  0  0  0  0  0  0  0  0  0
  2  1  1  6
  3  2  1  0
  4  3  1  0
  5  4  2  0
  6  2  1  0
  7  6  2  0
  8  4  1  0
  9  6  1  0
 10 11  1  1
 10  9  1  0
 12 16  1  0
 12 11  1  0
 13 12  2  0
 14 10  1  0
 15 14  2  0
 17 14  1  0
 18 17  1  0
 18 19  1  1
 19 20  1  0
 20 21  2  0
 21 22  1  0
 23 22  2  0
 24 23  1  0
 25 20  1  0
 25 24  2  0
 26 18  1  0
 26 27  1  0
 28 26  2  0
M  END
$$$$
