DDF.pdb
     RDKit          3D

 28 28  0  0  1  0  0  0  0  0999 V2000
   10.1733  -13.0616   19.2255 N   0  0  0  0  0  0  0  0  0  0  0  0
    8.8414  -13.2028   19.7330 C   0  0  1  0  0  0  0  0  0  0  0  0
    7.8418  -13.2390   18.5931 C   0  0  0  0  0  0  0  0  0  0  0  0
    8.3332  -14.1911   17.5694 C   0  0  0  0  0  0  0  0  0  0  0  0
    7.9147  -14.2220   16.3781 O   0  0  0  0  0  0  0  0  0  0  0  0
    8.6633  -14.3679   20.6410 C   0  0  0  0  0  0  0  0  0  0  0  0
    7.5488  -14.3990   21.2512 O   0  0  0  0  0  0  0  0  0  0  0  0
    9.3126  -15.1258   17.8879 O   0  0  0  0  0  0  0  0  0  0  0  0
    9.6620  -15.3680   20.8112 N   0  0  0  0  0  0  0  0  0  0  0  0
    9.4356  -16.3880   21.8104 C   0  0  1  0  0  0  0  0  0  0  0  0
   10.0576  -17.7226   21.4266 C   0  0  0  0  0  0  0  0  0  0  0  0
    9.0517  -18.7114   20.9954 C   0  0  0  0  0  0  0  0  0  0  0  0
    8.1860  -19.1502   21.7855 O   0  0  0  0  0  0  0  0  0  0  0  0
   10.0385  -16.0328   23.1222 C   0  0  0  0  0  0  0  0  0  0  0  0
   11.2776  -15.8069   23.1228 O   0  0  0  0  0  0  0  0  0  0  0  0
    9.0799  -19.1480   19.6979 O   0  0  0  0  0  0  0  0  0  0  0  0
    9.2388  -15.9600   24.2848 N   0  0  0  0  0  0  0  0  0  0  0  0
    9.8479  -15.6021   25.5717 C   0  0  1  0  0  0  0  0  0  0  0  0
    9.8672  -14.1027   25.7247 C   0  0  0  0  0  0  0  0  0  0  0  0
    8.5058  -13.5721   25.8228 C   0  0  0  0  0  0  0  0  0  0  0  0
    8.0056  -13.1143   27.0197 C   0  0  0  0  0  0  0  0  0  0  0  0
    6.7359  -12.5937   27.1249 C   0  0  0  0  0  0  0  0  0  0  0  0
    5.9299  -12.5224   26.0076 C   0  0  0  0  0  0  0  0  0  0  0  0
    6.4178  -12.9754   24.8106 C   0  0  0  0  0  0  0  0  0  0  0  0
    7.7012  -13.4966   24.7268 C   0  0  0  0  0  0  0  0  0  0  0  0
    9.1735  -16.3107   26.6787 C   0  0  0  0  0  0  0  0  0  0  0  0
    9.6379  -16.3207   27.9638 O   0  0  0  0  0  0  0  0  0  0  0  0
    8.1041  -16.9538   26.4483 O   0  0  0  0  0  0  0  0  0  0  0  0
  2  1  1  6
  3  2  1  0
  4  3  1  0
  5  4  2  0
  6  2  1  0
  7  6  2  0
  8  4  1  0
  9  6  1  0
 10 11  1  6
 10  9  1  0
 12 16  1  0
 12 11  1  0
 13 12  2  0
 14 10  1  0
 15 14  2  0
 17 14  1  0
 18 17  1  0
 18 19  1  1
 19 20  1  0
 20 21  2  0
 21 22  1  0
 23 22  2  0
 24 23  1  0
 25 20  1  0
 25 24  2  0
 26 18  1  0
 26 27  1  0
 28 26  2  0
M  END
$$$$
