DDF.pdb
     RDKit          3D

 28 28  0  0  1  0  0  0  0  0999 V2000
    9.9917  -13.3701   19.0425 N   0  0  0  0  0  0  0  0  0  0  0  0
    8.6919  -13.2665   19.6352 C   0  0  1  0  0  0  0  0  0  0  0  0
    7.6246  -13.1932   18.5604 C   0  0  0  0  0  0  0  0  0  0  0  0
    7.8719  -14.2768   17.5802 C   0  0  0  0  0  0  0  0  0  0  0  0
    7.8415  -15.5064   17.8675 O   0  0  0  0  0  0  0  0  0  0  0  0
    8.3912  -14.3414   20.6188 C   0  0  0  0  0  0  0  0  0  0  0  0
    7.3633  -14.1311   21.3362 O   0  0  0  0  0  0  0  0  0  0  0  0
    8.1584  -13.9756   16.2531 O   0  0  0  0  0  0  0  0  0  0  0  0
    9.1911  -15.5123   20.7448 N   0  0  0  0  0  0  0  0  0  0  0  0
    8.8661  -16.4441   21.8011 C   0  0  1  0  0  0  0  0  0  0  0  0
    9.2391  -17.8758   21.4454 C   0  0  0  0  0  0  0  0  0  0  0  0
    8.8530  -18.2344   20.0679 C   0  0  0  0  0  0  0  0  0  0  0  0
    9.7004  -18.3083   19.1499 O   0  0  0  0  0  0  0  0  0  0  0  0
    9.5993  -16.1448   23.0594 C   0  0  0  0  0  0  0  0  0  0  0  0
   10.8266  -15.8876   22.9411 O   0  0  0  0  0  0  0  0  0  0  0  0
    7.5336  -18.4895   19.8050 O   0  0  0  0  0  0  0  0  0  0  0  0
    8.9279  -16.1553   24.3026 N   0  0  0  0  0  0  0  0  0  0  0  0
    9.6434  -15.7688   25.5248 C   0  0  1  0  0  0  0  0  0  0  0  0
    9.7689  -14.2680   25.5866 C   0  0  0  0  0  0  0  0  0  0  0  0
    8.4675  -13.6470   25.8422 C   0  0  0  0  0  0  0  0  0  0  0  0
    8.1402  -13.1697   27.0901 C   0  0  0  0  0  0  0  0  0  0  0  0
    6.9298  -12.5651   27.3422 C   0  0  0  0  0  0  0  0  0  0  0  0
    6.0081  -12.4267   26.3251 C   0  0  0  0  0  0  0  0  0  0  0  0
    6.3235  -12.8984   25.0785 C   0  0  0  0  0  0  0  0  0  0  0  0
    7.5499  -13.5047   24.8462 C   0  0  0  0  0  0  0  0  0  0  0  0
    9.0006  -16.3676   26.7125 C   0  0  0  0  0  0  0  0  0  0  0  0
    7.8239  -17.0608   26.6662 O   0  0  0  0  0  0  0  0  0  0  0  0
    9.5508  -16.2434   27.8492 O   0  0  0  0  0  0  0  0  0  0  0  0
  2  1  1  6
  3  2  1  0
  4  3  1  0
  5  4  2  0
  6  2  1  0
  7  6  2  0
  8  4  1  0
  9  6  1  0
 10 11  1  6
 10  9  1  0
 12 16  1  0
 12 11  1  0
 13 12  2  0
 14 10  1  0
 15 14  2  0
 17 14  1  0
 18 17  1  0
 18 19  1  1
 19 20  1  0
 20 21  2  0
 21 22  1  0
 23 22  2  0
 24 23  1  0
 25 20  1  0
 25 24  2  0
 26 18  1  0
 26 27  1  0
 28 26  2  0
M  END
$$$$
