DDF.pdb
     RDKit          3D

 28 28  0  0  1  0  0  0  0  0999 V2000
    9.0579  -13.4392   19.7150 N   0  0  0  0  0  0  0  0  0  0  0  0
    8.1320  -14.5247   19.8414 C   0  0  1  0  0  0  0  0  0  0  0  0
    7.8844  -15.1689   18.4910 C   0  0  0  0  0  0  0  0  0  0  0  0
    7.7301  -14.0953   17.4813 C   0  0  0  0  0  0  0  0  0  0  0  0
    6.6140  -13.6782   17.0622 O   0  0  0  0  0  0  0  0  0  0  0  0
    8.5275  -15.5384   20.8560 C   0  0  0  0  0  0  0  0  0  0  0  0
    7.5705  -16.2505   21.2950 O   0  0  0  0  0  0  0  0  0  0  0  0
    8.8485  -13.4780   16.9316 O   0  0  0  0  0  0  0  0  0  0  0  0
    9.8712  -15.6979   21.2984 N   0  0  0  0  0  0  0  0  0  0  0  0
   10.1265  -16.6438   22.3615 C   0  0  1  0  0  0  0  0  0  0  0  0
   11.5890  -17.0583   22.4289 C   0  0  0  0  0  0  0  0  0  0  0  0
   11.9443  -18.0465   21.3932 C   0  0  0  0  0  0  0  0  0  0  0  0
   11.1544  -18.9592   21.0624 O   0  0  0  0  0  0  0  0  0  0  0  0
    9.8122  -16.0811   23.7013 C   0  0  0  0  0  0  0  0  0  0  0  0
   10.3624  -14.9850   23.9881 O   0  0  0  0  0  0  0  0  0  0  0  0
   13.1696  -17.9484   20.7902 O   0  0  0  0  0  0  0  0  0  0  0  0
    8.9403  -16.7618   24.5804 N   0  0  0  0  0  0  0  0  0  0  0  0
    8.6913  -16.2271   25.9248 C   0  0  1  0  0  0  0  0  0  0  0  0
    7.2566  -15.7784   26.0350 C   0  0  0  0  0  0  0  0  0  0  0  0
    7.1664  -14.3168   26.0272 C   0  0  0  0  0  0  0  0  0  0  0  0
    7.7439  -13.5635   27.0228 C   0  0  0  0  0  0  0  0  0  0  0  0
    7.6860  -12.1883   27.0196 C   0  0  0  0  0  0  0  0  0  0  0  0
    7.0338  -11.5324   25.9961 C   0  0  0  0  0  0  0  0  0  0  0  0
    6.4551  -12.2726   24.9995 C   0  0  0  0  0  0  0  0  0  0  0  0
    6.5254  -13.6584   25.0222 C   0  0  0  0  0  0  0  0  0  0  0  0
    9.0956  -17.2062   26.9545 C   0  0  0  0  0  0  0  0  0  0  0  0
    9.2977  -16.8829   28.2668 O   0  0  0  0  0  0  0  0  0  0  0  0
    9.2731  -18.4192   26.6268 O   0  0  0  0  0  0  0  0  0  0  0  0
  2  1  1  6
  3  2  1  0
  4  3  1  0
  5  4  2  0
  6  2  1  0
  7  6  2  0
  8  4  1  0
  9  6  1  0
 10 11  1  1
 10  9  1  0
 12 16  1  0
 12 11  1  0
 13 12  2  0
 14 10  1  0
 15 14  2  0
 17 14  1  0
 18 17  1  0
 18 19  1  6
 19 20  1  0
 20 21  2  0
 21 22  1  0
 23 22  2  0
 24 23  1  0
 25 20  1  0
 25 24  2  0
 26 18  1  0
 26 27  1  0
 28 26  2  0
M  END
$$$$
