DDF.pdb
     RDKit          3D

 28 28  0  0  1  0  0  0  0  0999 V2000
    9.0614  -13.4443   20.0139 N   0  0  0  0  0  0  0  0  0  0  0  0
    7.8802  -14.0919   20.5007 C   0  0  1  0  0  0  0  0  0  0  0  0
    7.0116  -14.5473   19.3440 C   0  0  0  0  0  0  0  0  0  0  0  0
    7.8751  -14.7307   18.1537 C   0  0  0  0  0  0  0  0  0  0  0  0
    9.1322  -14.6101   18.1707 O   0  0  0  0  0  0  0  0  0  0  0  0
    8.1518  -15.2115   21.4420 C   0  0  0  0  0  0  0  0  0  0  0  0
    7.1170  -15.7074   21.9887 O   0  0  0  0  0  0  0  0  0  0  0  0
    7.3181  -15.0555   16.9215 O   0  0  0  0  0  0  0  0  0  0  0  0
    9.4663  -15.6892   21.7077 N   0  0  0  0  0  0  0  0  0  0  0  0
    9.6146  -16.7750   22.6506 C   0  0  1  0  0  0  0  0  0  0  0  0
   10.9105  -17.5459   22.4467 C   0  0  0  0  0  0  0  0  0  0  0  0
   10.9701  -18.2130   21.1327 C   0  0  0  0  0  0  0  0  0  0  0  0
   10.0662  -18.9909   20.7530 O   0  0  0  0  0  0  0  0  0  0  0  0
    9.6562  -16.2955   24.0574 C   0  0  0  0  0  0  0  0  0  0  0  0
   10.5092  -15.4061   24.3176 O   0  0  0  0  0  0  0  0  0  0  0  0
   12.0455  -17.9642   20.3223 O   0  0  0  0  0  0  0  0  0  0  0  0
    8.7739  -16.8272   25.0245 N   0  0  0  0  0  0  0  0  0  0  0  0
    8.9336  -16.4666   26.4386 C   0  0  1  0  0  0  0  0  0  0  0  0
    7.6383  -15.9078   26.9694 C   0  0  0  0  0  0  0  0  0  0  0  0
    7.5775  -14.4579   26.7726 C   0  0  0  0  0  0  0  0  0  0  0  0
    8.4077  -13.6105   27.4689 C   0  0  0  0  0  0  0  0  0  0  0  0
    8.3776  -12.2474   27.2808 C   0  0  0  0  0  0  0  0  0  0  0  0
    7.4955  -11.7004   26.3721 C   0  0  0  0  0  0  0  0  0  0  0  0
    6.6642  -12.5350   25.6733 C   0  0  0  0  0  0  0  0  0  0  0  0
    6.7111  -13.9066   25.8783 C   0  0  0  0  0  0  0  0  0  0  0  0
    9.4542  -17.6140   27.2099 C   0  0  0  0  0  0  0  0  0  0  0  0
    9.9823  -17.5034   28.4654 O   0  0  0  0  0  0  0  0  0  0  0  0
    9.4217  -18.7753   26.6995 O   0  0  0  0  0  0  0  0  0  0  0  0
  2  1  1  6
  3  2  1  0
  4  3  1  0
  5  4  2  0
  6  2  1  0
  7  6  2  0
  8  4  1  0
  9  6  1  0
 10 11  1  6
 10  9  1  0
 12 16  1  0
 12 11  1  0
 13 12  2  0
 14 10  1  0
 15 14  2  0
 17 14  1  0
 18 17  1  0
 18 19  1  1
 19 20  1  0
 20 21  2  0
 21 22  1  0
 23 22  2  0
 24 23  1  0
 25 20  1  0
 25 24  2  0
 26 18  1  0
 26 27  1  0
 28 26  2  0
M  END
$$$$
