DDF.pdb
     RDKit          3D

 28 28  0  0  1  0  0  0  0  0999 V2000
    7.8111  -17.6958   21.0045 N   0  0  0  0  0  0  0  0  0  0  0  0
    8.6560  -18.7709   21.4311 C   0  0  1  0  0  0  0  0  0  0  0  0
    9.1150  -19.5882   20.2389 C   0  0  0  0  0  0  0  0  0  0  0  0
    7.9432  -19.8467   19.3694 C   0  0  0  0  0  0  0  0  0  0  0  0
    7.2639  -18.9378   18.8147 O   0  0  0  0  0  0  0  0  0  0  0  0
    9.8115  -18.3358   22.2611 C   0  0  0  0  0  0  0  0  0  0  0  0
   10.5510  -19.2818   22.6778 O   0  0  0  0  0  0  0  0  0  0  0  0
    7.5258  -21.1491   19.1171 O   0  0  0  0  0  0  0  0  0  0  0  0
   10.0679  -16.9684   22.5632 N   0  0  0  0  0  0  0  0  0  0  0  0
   11.1686  -16.6656   23.4502 C   0  0  1  0  0  0  0  0  0  0  0  0
   11.9285  -15.4178   23.0250 C   0  0  0  0  0  0  0  0  0  0  0  0
   12.7897  -15.6536   21.8511 C   0  0  0  0  0  0  0  0  0  0  0  0
   13.2996  -16.7748   21.6292 O   0  0  0  0  0  0  0  0  0  0  0  0
   10.7127  -16.3973   24.8397 C   0  0  0  0  0  0  0  0  0  0  0  0
   11.5968  -16.0177   25.6524 O   0  0  0  0  0  0  0  0  0  0  0  0
   13.0261  -14.6115   20.9948 O   0  0  0  0  0  0  0  0  0  0  0  0
    9.3561  -16.5672   25.1966 N   0  0  0  0  0  0  0  0  0  0  0  0
    8.9511  -16.4681   26.6042 C   0  0  1  0  0  0  0  0  0  0  0  0
    7.5387  -15.9489   26.6907 C   0  0  0  0  0  0  0  0  0  0  0  0
    7.4706  -14.5515   26.2582 C   0  0  0  0  0  0  0  0  0  0  0  0
    6.9823  -14.2143   25.0172 C   0  0  0  0  0  0  0  0  0  0  0  0
    6.8923  -12.9048   24.6031 C   0  0  0  0  0  0  0  0  0  0  0  0
    7.2996  -11.8906   25.4449 C   0  0  0  0  0  0  0  0  0  0  0  0
    7.7875  -12.2149   26.6829 C   0  0  0  0  0  0  0  0  0  0  0  0
    7.8695  -13.5419   27.0804 C   0  0  0  0  0  0  0  0  0  0  0  0
    9.1612  -17.7568   27.2955 C   0  0  0  0  0  0  0  0  0  0  0  0
    9.4623  -18.9216   26.6476 O   0  0  0  0  0  0  0  0  0  0  0  0
    9.0601  -17.8107   28.5592 O   0  0  0  0  0  0  0  0  0  0  0  0
  2  1  1  6
  3  2  1  0
  4  3  1  0
  5  4  2  0
  6  2  1  0
  7  6  2  0
  8  4  1  0
  9  6  1  0
 10 11  1  6
 10  9  1  0
 12 16  1  0
 12 11  1  0
 13 12  2  0
 14 10  1  0
 15 14  2  0
 17 14  1  0
 18 17  1  0
 18 19  1  6
 19 20  1  0
 20 21  2  0
 21 22  1  0
 23 22  2  0
 24 23  1  0
 25 20  1  0
 25 24  2  0
 26 18  1  0
 26 27  1  0
 28 26  2  0
M  END
$$$$
