DDF.pdb
     RDKit          3D

 28 28  0  0  1  0  0  0  0  0999 V2000
   10.0352  -13.2142   19.0897 N   0  0  0  0  0  0  0  0  0  0  0  0
    8.6828  -13.3467   19.5428 C   0  0  1  0  0  0  0  0  0  0  0  0
    7.7362  -13.4432   18.3619 C   0  0  0  0  0  0  0  0  0  0  0  0
    8.2547  -14.4710   17.4288 C   0  0  0  0  0  0  0  0  0  0  0  0
    7.9932  -14.4964   16.1934 O   0  0  0  0  0  0  0  0  0  0  0  0
    8.4735  -14.4725   20.4926 C   0  0  0  0  0  0  0  0  0  0  0  0
    7.3185  -14.5121   21.0216 O   0  0  0  0  0  0  0  0  0  0  0  0
    9.0823  -15.4891   17.8900 O   0  0  0  0  0  0  0  0  0  0  0  0
    9.4867  -15.4292   20.7842 N   0  0  0  0  0  0  0  0  0  0  0  0
    9.2322  -16.3852   21.8383 C   0  0  1  0  0  0  0  0  0  0  0  0
    9.7293  -17.7799   21.4875 C   0  0  0  0  0  0  0  0  0  0  0  0
    9.5193  -18.7462   22.5817 C   0  0  0  0  0  0  0  0  0  0  0  0
    8.4351  -18.8030   23.2043 O   0  0  0  0  0  0  0  0  0  0  0  0
    9.9254  -16.0244   23.1032 C   0  0  0  0  0  0  0  0  0  0  0  0
   11.1558  -15.7711   23.0114 O   0  0  0  0  0  0  0  0  0  0  0  0
   10.5439  -19.5929   22.9107 O   0  0  0  0  0  0  0  0  0  0  0  0
    9.2151  -15.9761   24.3237 N   0  0  0  0  0  0  0  0  0  0  0  0
    9.8948  -15.5411   25.5501 C   0  0  1  0  0  0  0  0  0  0  0  0
    9.8301  -14.0393   25.6610 C   0  0  0  0  0  0  0  0  0  0  0  0
    8.4974  -13.6058   26.0859 C   0  0  0  0  0  0  0  0  0  0  0  0
    8.2031  -13.4120   27.4156 C   0  0  0  0  0  0  0  0  0  0  0  0
    6.9621  -12.9852   27.8303 C   0  0  0  0  0  0  0  0  0  0  0  0
    5.9749  -12.7408   26.8982 C   0  0  0  0  0  0  0  0  0  0  0  0
    6.2569  -12.9305   25.5714 C   0  0  0  0  0  0  0  0  0  0  0  0
    7.5151  -13.3614   25.1751 C   0  0  0  0  0  0  0  0  0  0  0  0
    9.3515  -16.2546   26.7241 C   0  0  0  0  0  0  0  0  0  0  0  0
    9.9352  -16.2312   27.9594 O   0  0  0  0  0  0  0  0  0  0  0  0
    8.2868  -16.9344   26.6035 O   0  0  0  0  0  0  0  0  0  0  0  0
  2  1  1  6
  3  2  1  0
  4  3  1  0
  5  4  2  0
  6  2  1  0
  7  6  2  0
  8  4  1  0
  9  6  1  0
 10 11  1  6
 10  9  1  0
 12 16  1  0
 12 11  1  0
 13 12  2  0
 14 10  1  0
 15 14  2  0
 17 14  1  0
 18 17  1  0
 18 19  1  1
 19 20  1  0
 20 21  2  0
 21 22  1  0
 23 22  2  0
 24 23  1  0
 25 20  1  0
 25 24  2  0
 26 18  1  0
 26 27  1  0
 28 26  2  0
M  END
$$$$
