DDF.pdb
     RDKit          3D

 28 28  0  0  1  0  0  0  0  0999 V2000
    9.1487  -12.5868   19.5246 N   0  0  0  0  0  0  0  0  0  0  0  0
    7.9349  -13.2746   19.8493 C   0  0  1  0  0  0  0  0  0  0  0  0
    7.2093  -13.6928   18.5850 C   0  0  0  0  0  0  0  0  0  0  0  0
    8.1694  -14.4022   17.7069 C   0  0  0  0  0  0  0  0  0  0  0  0
    9.0876  -15.1575   18.1330 O   0  0  0  0  0  0  0  0  0  0  0  0
    8.1244  -14.4299   20.7672 C   0  0  0  0  0  0  0  0  0  0  0  0
    7.0525  -15.0314   21.0908 O   0  0  0  0  0  0  0  0  0  0  0  0
    8.0981  -14.2618   16.3251 O   0  0  0  0  0  0  0  0  0  0  0  0
    9.4050  -14.8296   21.2438 N   0  0  0  0  0  0  0  0  0  0  0  0
    9.4794  -16.0066   22.0799 C   0  0  1  0  0  0  0  0  0  0  0  0
   10.7257  -16.8348   21.8044 C   0  0  0  0  0  0  0  0  0  0  0  0
   10.4510  -17.9987   20.9411 C   0  0  0  0  0  0  0  0  0  0  0  0
    9.2815  -18.3810   20.7122 O   0  0  0  0  0  0  0  0  0  0  0  0
    9.5423  -15.6654   23.5257 C   0  0  0  0  0  0  0  0  0  0  0  0
   10.4208  -14.8280   23.8626 O   0  0  0  0  0  0  0  0  0  0  0  0
   11.5109  -18.6641   20.3854 O   0  0  0  0  0  0  0  0  0  0  0  0
    8.6516  -16.2636   24.4449 N   0  0  0  0  0  0  0  0  0  0  0  0
    8.8538  -16.0787   25.8872 C   0  0  1  0  0  0  0  0  0  0  0  0
    7.5526  -15.6802   26.5353 C   0  0  0  0  0  0  0  0  0  0  0  0
    7.4253  -14.2225   26.5938 C   0  0  0  0  0  0  0  0  0  0  0  0
    8.5120  -13.4242   26.8658 C   0  0  0  0  0  0  0  0  0  0  0  0
    8.4139  -12.0519   26.9043 C   0  0  0  0  0  0  0  0  0  0  0  0
    7.1982  -11.4450   26.6657 C   0  0  0  0  0  0  0  0  0  0  0  0
    6.1095  -12.2302   26.3939 C   0  0  0  0  0  0  0  0  0  0  0  0
    6.2307  -13.6122   26.3599 C   0  0  0  0  0  0  0  0  0  0  0  0
    9.4782  -17.2788   26.4807 C   0  0  0  0  0  0  0  0  0  0  0  0
    9.7556  -18.4146   25.7733 O   0  0  0  0  0  0  0  0  0  0  0  0
    9.7809  -17.2801   27.7130 O   0  0  0  0  0  0  0  0  0  0  0  0
  2  1  1  6
  3  2  1  0
  4  3  1  0
  5  4  2  0
  6  2  1  0
  7  6  2  0
  8  4  1  0
  9  6  1  0
 10 11  1  6
 10  9  1  0
 12 16  1  0
 12 11  1  0
 13 12  2  0
 14 10  1  0
 15 14  2  0
 17 14  1  0
 18 17  1  0
 18 19  1  1
 19 20  1  0
 20 21  2  0
 21 22  1  0
 23 22  2  0
 24 23  1  0
 25 20  1  0
 25 24  2  0
 26 18  1  0
 26 27  1  0
 28 26  2  0
M  END
$$$$
