DDF.pdb
     RDKit          3D

 28 28  0  0  1  0  0  0  0  0999 V2000
    8.4966  -19.3866   21.3897 N   0  0  0  0  0  0  0  0  0  0  0  0
    9.7419  -18.8496   20.9287 C   0  0  1  0  0  0  0  0  0  0  0  0
    9.8602  -19.0038   19.4247 C   0  0  0  0  0  0  0  0  0  0  0  0
    9.8476  -20.4496   19.0998 C   0  0  0  0  0  0  0  0  0  0  0  0
    9.3127  -20.9336   18.0631 O   0  0  0  0  0  0  0  0  0  0  0  0
    9.9813  -17.4415   21.3450 C   0  0  0  0  0  0  0  0  0  0  0  0
   11.1937  -17.0665   21.2740 O   0  0  0  0  0  0  0  0  0  0  0  0
   10.4465  -21.3696   19.9537 O   0  0  0  0  0  0  0  0  0  0  0  0
    8.9349  -16.5830   21.7865 N   0  0  0  0  0  0  0  0  0  0  0  0
    9.2830  -15.2341   22.1725 C   0  0  1  0  0  0  0  0  0  0  0  0
    8.2169  -14.2243   21.7736 C   0  0  0  0  0  0  0  0  0  0  0  0
    7.9747  -14.2036   20.3189 C   0  0  0  0  0  0  0  0  0  0  0  0
    8.6834  -14.8667   19.5288 O   0  0  0  0  0  0  0  0  0  0  0  0
    9.4318  -15.0919   23.6450 C   0  0  0  0  0  0  0  0  0  0  0  0
    9.7639  -13.9514   24.0637 O   0  0  0  0  0  0  0  0  0  0  0  0
    6.9470  -13.4364   19.8390 O   0  0  0  0  0  0  0  0  0  0  0  0
    9.2053  -16.1937   24.5001 N   0  0  0  0  0  0  0  0  0  0  0  0
    9.4027  -16.0501   25.9478 C   0  0  1  0  0  0  0  0  0  0  0  0
    8.0653  -15.9374   26.6337 C   0  0  0  0  0  0  0  0  0  0  0  0
    7.6150  -14.5444   26.6706 C   0  0  0  0  0  0  0  0  0  0  0  0
    6.4464  -14.1584   26.0561 C   0  0  0  0  0  0  0  0  0  0  0  0
    5.9985  -12.8577   26.0987 C   0  0  0  0  0  0  0  0  0  0  0  0
    6.7312  -11.9025   26.7725 C   0  0  0  0  0  0  0  0  0  0  0  0
    7.8964  -12.2758   27.3880 C   0  0  0  0  0  0  0  0  0  0  0  0
    8.3296  -13.5930   27.3327 C   0  0  0  0  0  0  0  0  0  0  0  0
   10.2536  -17.1412   26.4652 C   0  0  0  0  0  0  0  0  0  0  0  0
   10.7888  -18.1208   25.6770 O   0  0  0  0  0  0  0  0  0  0  0  0
   10.5145  -17.1944   27.7059 O   0  0  0  0  0  0  0  0  0  0  0  0
  2  1  1  6
  3  2  1  0
  4  3  1  0
  5  4  2  0
  6  2  1  0
  7  6  2  0
  8  4  1  0
  9  6  1  0
 10 11  1  1
 10  9  1  0
 12 16  1  0
 12 11  1  0
 13 12  2  0
 14 10  1  0
 15 14  2  0
 17 14  1  0
 18 17  1  0
 18 19  1  1
 19 20  1  0
 20 21  2  0
 21 22  1  0
 23 22  2  0
 24 23  1  0
 25 20  1  0
 25 24  2  0
 26 18  1  0
 26 27  1  0
 28 26  2  0
M  END
$$$$
