DDF.pdb
     RDKit          3D

 28 28  0  0  1  0  0  0  0  0999 V2000
    9.7959  -19.1216   18.9944 N   0  0  0  0  0  0  0  0  0  0  0  0
    8.8662  -18.0383   18.8765 C   0  0  1  0  0  0  0  0  0  0  0  0
    7.8274  -18.3457   17.8153 C   0  0  0  0  0  0  0  0  0  0  0  0
    8.5023  -19.0176   16.6800 C   0  0  0  0  0  0  0  0  0  0  0  0
    9.2872  -19.9988   16.8084 O   0  0  0  0  0  0  0  0  0  0  0  0
    8.2237  -17.6536   20.1620 C   0  0  0  0  0  0  0  0  0  0  0  0
    6.9636  -17.4995   20.0997 O   0  0  0  0  0  0  0  0  0  0  0  0
    8.2926  -18.5810   15.3763 O   0  0  0  0  0  0  0  0  0  0  0  0
    8.9623  -17.4738   21.3657 N   0  0  0  0  0  0  0  0  0  0  0  0
    8.2541  -17.5975   22.6199 C   0  0  1  0  0  0  0  0  0  0  0  0
    7.7837  -19.0208   22.8813 C   0  0  0  0  0  0  0  0  0  0  0  0
    7.0445  -19.1471   24.1512 C   0  0  0  0  0  0  0  0  0  0  0  0
    7.5425  -19.7265   25.1425 O   0  0  0  0  0  0  0  0  0  0  0  0
    9.1076  -17.2424   23.7844 C   0  0  0  0  0  0  0  0  0  0  0  0
    9.2281  -18.1238   24.6759 O   0  0  0  0  0  0  0  0  0  0  0  0
    5.7863  -18.6126   24.2303 O   0  0  0  0  0  0  0  0  0  0  0  0
    9.7357  -15.9788   23.8565 N   0  0  0  0  0  0  0  0  0  0  0  0
    9.2500  -14.9727   24.8090 C   0  0  1  0  0  0  0  0  0  0  0  0
    7.8867  -14.4891   24.3856 C   0  0  0  0  0  0  0  0  0  0  0  0
    7.4155  -13.4212   25.2699 C   0  0  0  0  0  0  0  0  0  0  0  0
    7.5031  -13.5401   26.6375 C   0  0  0  0  0  0  0  0  0  0  0  0
    7.0839  -12.5375   27.4822 C   0  0  0  0  0  0  0  0  0  0  0  0
    6.5585  -11.3748   26.9578 C   0  0  0  0  0  0  0  0  0  0  0  0
    6.4665  -11.2457   25.5973 C   0  0  0  0  0  0  0  0  0  0  0  0
    6.8953  -12.2690   24.7638 C   0  0  0  0  0  0  0  0  0  0  0  0
    9.2993  -15.4993   26.1885 C   0  0  0  0  0  0  0  0  0  0  0  0
    8.5228  -16.5330   26.6310 O   0  0  0  0  0  0  0  0  0  0  0  0
   10.0968  -14.9787   27.0270 O   0  0  0  0  0  0  0  0  0  0  0  0
  2  1  1  1
  3  2  1  0
  4  3  1  0
  5  4  2  0
  6  2  1  0
  7  6  2  0
  8  4  1  0
  9  6  1  0
 10 11  1  1
 10  9  1  0
 12 16  1  0
 12 11  1  0
 13 12  2  0
 14 10  1  0
 15 14  2  0
 17 14  1  0
 18 17  1  0
 18 19  1  6
 19 20  1  0
 20 21  2  0
 21 22  1  0
 23 22  2  0
 24 23  1  0
 25 20  1  0
 25 24  2  0
 26 18  1  0
 26 27  1  0
 28 26  2  0
M  END
$$$$
