DDF.pdb
     RDKit          3D

 28 28  0  0  1  0  0  0  0  0999 V2000
    7.3202  -16.7474   19.6076 N   0  0  0  0  0  0  0  0  0  0  0  0
    8.1488  -15.9824   20.4906 C   0  0  1  0  0  0  0  0  0  0  0  0
    7.9681  -14.4989   20.2331 C   0  0  0  0  0  0  0  0  0  0  0  0
    8.5833  -14.1722   18.9251 C   0  0  0  0  0  0  0  0  0  0  0  0
    7.9247  -13.8287   17.9036 O   0  0  0  0  0  0  0  0  0  0  0  0
    7.9545  -16.3056   21.9297 C   0  0  0  0  0  0  0  0  0  0  0  0
    6.7805  -16.0919   22.3673 O   0  0  0  0  0  0  0  0  0  0  0  0
    9.9629  -14.2318   18.7600 O   0  0  0  0  0  0  0  0  0  0  0  0
    9.0007  -16.8146   22.7502 N   0  0  0  0  0  0  0  0  0  0  0  0
    8.6721  -17.2032   24.1033 C   0  0  1  0  0  0  0  0  0  0  0  0
    8.9580  -18.6738   24.3691 C   0  0  0  0  0  0  0  0  0  0  0  0
    8.0863  -19.5692   23.5856 C   0  0  0  0  0  0  0  0  0  0  0  0
    8.5438  -20.2910   22.6712 O   0  0  0  0  0  0  0  0  0  0  0  0
    9.4696  -16.4562   25.1116 C   0  0  0  0  0  0  0  0  0  0  0  0
   10.6891  -16.2890   24.8444 O   0  0  0  0  0  0  0  0  0  0  0  0
    6.7491  -19.5994   23.8786 O   0  0  0  0  0  0  0  0  0  0  0  0
    8.8637  -15.9730   26.2930 N   0  0  0  0  0  0  0  0  0  0  0  0
    9.6765  -15.2885   27.3060 C   0  0  1  0  0  0  0  0  0  0  0  0
    8.8016  -14.3769   28.1277 C   0  0  0  0  0  0  0  0  0  0  0  0
    8.0863  -13.4297   27.2700 C   0  0  0  0  0  0  0  0  0  0  0  0
    6.7240  -13.5136   27.0994 C   0  0  0  0  0  0  0  0  0  0  0  0
    6.0338  -12.6191   26.3133 C   0  0  0  0  0  0  0  0  0  0  0  0
    6.7134  -11.6045   25.6716 C   0  0  0  0  0  0  0  0  0  0  0  0
    8.0701  -11.5115   25.8344 C   0  0  0  0  0  0  0  0  0  0  0  0
    8.7464  -12.4241   26.6317 C   0  0  0  0  0  0  0  0  0  0  0  0
   10.4415  -16.2681   28.1046 C   0  0  0  0  0  0  0  0  0  0  0  0
   11.4517  -15.9234   28.9578 O   0  0  0  0  0  0  0  0  0  0  0  0
   10.1653  -17.5030   28.0088 O   0  0  0  0  0  0  0  0  0  0  0  0
  2  1  1  6
  3  2  1  0
  4  3  1  0
  5  4  2  0
  6  2  1  0
  7  6  2  0
  8  4  1  0
  9  6  1  0
 10 11  1  6
 10  9  1  0
 12 16  1  0
 12 11  1  0
 13 12  2  0
 14 10  1  0
 15 14  2  0
 17 14  1  0
 18 17  1  0
 18 19  1  1
 19 20  1  0
 20 21  2  0
 21 22  1  0
 23 22  2  0
 24 23  1  0
 25 20  1  0
 25 24  2  0
 26 18  1  0
 26 27  1  0
 28 26  2  0
M  END
$$$$
