DDF.pdb
     RDKit          3D

 28 28  0  0  1  0  0  0  0  0999 V2000
    7.8653  -17.9345   20.2148 N   0  0  0  0  0  0  0  0  0  0  0  0
    8.3140  -18.9498   21.1202 C   0  0  1  0  0  0  0  0  0  0  0  0
    8.4973  -20.2663   20.3901 C   0  0  0  0  0  0  0  0  0  0  0  0
    7.3538  -20.4527   19.4662 C   0  0  0  0  0  0  0  0  0  0  0  0
    6.1436  -20.3920   19.8227 O   0  0  0  0  0  0  0  0  0  0  0  0
    9.5392  -18.5810   21.8792 C   0  0  0  0  0  0  0  0  0  0  0  0
    9.8687  -19.4067   22.7876 O   0  0  0  0  0  0  0  0  0  0  0  0
    7.5718  -20.7117   18.1173 O   0  0  0  0  0  0  0  0  0  0  0  0
   10.2831  -17.3979   21.6081 N   0  0  0  0  0  0  0  0  0  0  0  0
   11.3783  -17.0689   22.4925 C   0  0  1  0  0  0  0  0  0  0  0  0
   12.5194  -16.3716   21.7665 C   0  0  0  0  0  0  0  0  0  0  0  0
   13.2059  -17.2592   20.8093 C   0  0  0  0  0  0  0  0  0  0  0  0
   13.3692  -18.4768   21.0484 O   0  0  0  0  0  0  0  0  0  0  0  0
   10.9665  -16.1342   23.5730 C   0  0  0  0  0  0  0  0  0  0  0  0
   11.4126  -14.9591   23.4928 O   0  0  0  0  0  0  0  0  0  0  0  0
   13.6686  -16.7226   19.6376 O   0  0  0  0  0  0  0  0  0  0  0  0
   10.1201  -16.5703   24.6169 N   0  0  0  0  0  0  0  0  0  0  0  0
    9.4144  -15.5866   25.4471 C   0  0  1  0  0  0  0  0  0  0  0  0
    8.5334  -14.7270   24.5772 C   0  0  0  0  0  0  0  0  0  0  0  0
    7.7661  -13.7796   25.3887 C   0  0  0  0  0  0  0  0  0  0  0  0
    8.3158  -12.5878   25.8002 C   0  0  0  0  0  0  0  0  0  0  0  0
    7.6018  -11.6774   26.5458 C   0  0  0  0  0  0  0  0  0  0  0  0
    6.2970  -11.9538   26.8984 C   0  0  0  0  0  0  0  0  0  0  0  0
    5.7396  -13.1377   26.4940 C   0  0  0  0  0  0  0  0  0  0  0  0
    6.4775  -14.0415   25.7427 C   0  0  0  0  0  0  0  0  0  0  0  0
    8.6977  -16.2589   26.5502 C   0  0  0  0  0  0  0  0  0  0  0  0
    7.9702  -17.4047   26.3914 O   0  0  0  0  0  0  0  0  0  0  0  0
    8.7434  -15.7635   27.7176 O   0  0  0  0  0  0  0  0  0  0  0  0
  2  1  1  6
  3  2  1  0
  4  3  1  0
  5  4  2  0
  6  2  1  0
  7  6  2  0
  8  4  1  0
  9  6  1  0
 10 11  1  6
 10  9  1  0
 12 16  1  0
 12 11  1  0
 13 12  2  0
 14 10  1  0
 15 14  2  0
 17 14  1  0
 18 17  1  0
 18 19  1  6
 19 20  1  0
 20 21  2  0
 21 22  1  0
 23 22  2  0
 24 23  1  0
 25 20  1  0
 25 24  2  0
 26 18  1  0
 26 27  1  0
 28 26  2  0
M  END
$$$$
