DDF.pdb
     RDKit          3D

 28 28  0  0  1  0  0  0  0  0999 V2000
    9.3251  -15.9502   19.3535 N   0  0  0  0  0  0  0  0  0  0  0  0
    8.0664  -15.4425   19.8115 C   0  0  1  0  0  0  0  0  0  0  0  0
    6.9740  -15.7510   18.8059 C   0  0  0  0  0  0  0  0  0  0  0  0
    7.1035  -17.1686   18.3940 C   0  0  0  0  0  0  0  0  0  0  0  0
    7.9422  -17.9721   18.8902 O   0  0  0  0  0  0  0  0  0  0  0  0
    7.6896  -15.9067   21.1738 C   0  0  0  0  0  0  0  0  0  0  0  0
    6.6863  -15.3112   21.6781 O   0  0  0  0  0  0  0  0  0  0  0  0
    6.2765  -17.6948   17.4074 O   0  0  0  0  0  0  0  0  0  0  0  0
    8.3965  -16.9365   21.8567 N   0  0  0  0  0  0  0  0  0  0  0  0
    7.9952  -17.2511   23.2094 C   0  0  1  0  0  0  0  0  0  0  0  0
    7.7428  -18.7386   23.4074 C   0  0  0  0  0  0  0  0  0  0  0  0
    7.4091  -19.0738   24.8044 C   0  0  0  0  0  0  0  0  0  0  0  0
    6.4793  -18.4960   25.4109 O   0  0  0  0  0  0  0  0  0  0  0  0
    9.0406  -16.8911   24.2035 C   0  0  0  0  0  0  0  0  0  0  0  0
   10.2295  -17.1545   23.8817 O   0  0  0  0  0  0  0  0  0  0  0  0
    8.1430  -20.0415   25.4368 O   0  0  0  0  0  0  0  0  0  0  0  0
    8.6876  -16.2873   25.4312 N   0  0  0  0  0  0  0  0  0  0  0  0
    9.7365  -15.8271   26.3495 C   0  0  1  0  0  0  0  0  0  0  0  0
    9.9449  -14.3440   26.1799 C   0  0  0  0  0  0  0  0  0  0  0  0
    8.7103  -13.6092   26.4633 C   0  0  0  0  0  0  0  0  0  0  0  0
    7.7572  -13.4181   25.4900 C   0  0  0  0  0  0  0  0  0  0  0  0
    6.5825  -12.7478   25.7453 C   0  0  0  0  0  0  0  0  0  0  0  0
    6.3396  -12.2474   27.0077 C   0  0  0  0  0  0  0  0  0  0  0  0
    7.2818  -12.4319   27.9845 C   0  0  0  0  0  0  0  0  0  0  0  0
    8.4595  -13.1109   27.7055 C   0  0  0  0  0  0  0  0  0  0  0  0
    9.4277  -16.2362   27.7351 C   0  0  0  0  0  0  0  0  0  0  0  0
   10.2740  -16.0349   28.7889 O   0  0  0  0  0  0  0  0  0  0  0  0
    8.3234  -16.8091   27.9852 O   0  0  0  0  0  0  0  0  0  0  0  0
  2  1  1  6
  3  2  1  0
  4  3  1  0
  5  4  2  0
  6  2  1  0
  7  6  2  0
  8  4  1  0
  9  6  1  0
 10 11  1  6
 10  9  1  0
 12 16  1  0
 12 11  1  0
 13 12  2  0
 14 10  1  0
 15 14  2  0
 17 14  1  0
 18 17  1  0
 18 19  1  1
 19 20  1  0
 20 21  2  0
 21 22  1  0
 23 22  2  0
 24 23  1  0
 25 20  1  0
 25 24  2  0
 26 18  1  0
 26 27  1  0
 28 26  2  0
M  END
$$$$
