DDF.pdb
     RDKit          3D

 28 28  0  0  1  0  0  0  0  0999 V2000
    9.6342  -13.3923   19.4873 N   0  0  0  0  0  0  0  0  0  0  0  0
    8.3079  -13.5133   20.0146 C   0  0  1  0  0  0  0  0  0  0  0  0
    7.2931  -13.5610   18.8886 C   0  0  0  0  0  0  0  0  0  0  0  0
    8.0039  -13.8936   17.6315 C   0  0  0  0  0  0  0  0  0  0  0  0
    9.0751  -13.3370   17.2599 O   0  0  0  0  0  0  0  0  0  0  0  0
    8.1321  -14.6605   20.9453 C   0  0  0  0  0  0  0  0  0  0  0  0
    6.9582  -14.7864   21.4160 O   0  0  0  0  0  0  0  0  0  0  0  0
    7.5038  -14.8689   16.7754 O   0  0  0  0  0  0  0  0  0  0  0  0
    9.1947  -15.5468   21.2804 N   0  0  0  0  0  0  0  0  0  0  0  0
    8.9308  -16.5835   22.2528 C   0  0  1  0  0  0  0  0  0  0  0  0
    9.8242  -17.7999   22.0593 C   0  0  0  0  0  0  0  0  0  0  0  0
    9.9075  -18.2208   20.6482 C   0  0  0  0  0  0  0  0  0  0  0  0
    9.3336  -17.5791   19.7398 O   0  0  0  0  0  0  0  0  0  0  0  0
    9.1819  -16.1251   23.6447 C   0  0  0  0  0  0  0  0  0  0  0  0
   10.2202  -15.4354   23.8252 O   0  0  0  0  0  0  0  0  0  0  0  0
   10.6332  -19.3411   20.3428 O   0  0  0  0  0  0  0  0  0  0  0  0
    8.2859  -16.4603   24.6846 N   0  0  0  0  0  0  0  0  0  0  0  0
    8.5818  -16.0569   26.0648 C   0  0  1  0  0  0  0  0  0  0  0  0
    7.3203  -15.5752   26.7344 C   0  0  0  0  0  0  0  0  0  0  0  0
    7.1424  -14.1354   26.5350 C   0  0  0  0  0  0  0  0  0  0  0  0
    8.2209  -13.2819   26.5141 C   0  0  0  0  0  0  0  0  0  0  0  0
    8.0730  -11.9292   26.3074 C   0  0  0  0  0  0  0  0  0  0  0  0
    6.8140  -11.3993   26.1145 C   0  0  0  0  0  0  0  0  0  0  0  0
    5.7329  -12.2400   26.1333 C   0  0  0  0  0  0  0  0  0  0  0  0
    5.9047  -13.6009   26.3433 C   0  0  0  0  0  0  0  0  0  0  0  0
    9.2671  -17.1480   26.7876 C   0  0  0  0  0  0  0  0  0  0  0  0
    9.4713  -18.3921   26.2606 O   0  0  0  0  0  0  0  0  0  0  0  0
    9.6968  -16.9438   27.9640 O   0  0  0  0  0  0  0  0  0  0  0  0
  2  1  1  6
  3  2  1  0
  4  3  1  0
  5  4  2  0
  6  2  1  0
  7  6  2  0
  8  4  1  0
  9  6  1  0
 10 11  1  6
 10  9  1  0
 12 16  1  0
 12 11  1  0
 13 12  2  0
 14 10  1  0
 15 14  2  0
 17 14  1  0
 18 17  1  0
 18 19  1  1
 19 20  1  0
 20 21  2  0
 21 22  1  0
 23 22  2  0
 24 23  1  0
 25 20  1  0
 25 24  2  0
 26 18  1  0
 26 27  1  0
 28 26  2  0
M  END
$$$$
