DDF.pdb
     RDKit          3D

 28 28  0  0  1  0  0  0  0  0999 V2000
   10.1583  -13.7847   18.8884 N   0  0  0  0  0  0  0  0  0  0  0  0
    8.9368  -13.4608   19.5628 C   0  0  1  0  0  0  0  0  0  0  0  0
    7.8022  -13.3238   18.5659 C   0  0  0  0  0  0  0  0  0  0  0  0
    8.1377  -14.1204   17.3622 C   0  0  0  0  0  0  0  0  0  0  0  0
    9.0866  -14.9524   17.3106 O   0  0  0  0  0  0  0  0  0  0  0  0
    8.5820  -14.4080   20.6539 C   0  0  0  0  0  0  0  0  0  0  0  0
    7.6103  -14.0359   21.3838 O   0  0  0  0  0  0  0  0  0  0  0  0
    7.3949  -13.9811   16.1947 O   0  0  0  0  0  0  0  0  0  0  0  0
    9.2757  -15.6336   20.8621 N   0  0  0  0  0  0  0  0  0  0  0  0
    8.8682  -16.4618   21.9748 C   0  0  1  0  0  0  0  0  0  0  0  0
    9.1476  -17.9376   21.7309 C   0  0  0  0  0  0  0  0  0  0  0  0
    8.5256  -18.4324   20.4885 C   0  0  0  0  0  0  0  0  0  0  0  0
    7.2935  -18.6380   20.4114 O   0  0  0  0  0  0  0  0  0  0  0  0
    9.5980  -16.1220   23.2248 C   0  0  0  0  0  0  0  0  0  0  0  0
   10.7795  -15.7086   23.0851 O   0  0  0  0  0  0  0  0  0  0  0  0
    9.3288  -18.6666   19.4045 O   0  0  0  0  0  0  0  0  0  0  0  0
    8.9726  -16.2646   24.4837 N   0  0  0  0  0  0  0  0  0  0  0  0
    9.6841  -15.8660   25.7044 C   0  0  1  0  0  0  0  0  0  0  0  0
    9.8327  -14.3664   25.7386 C   0  0  0  0  0  0  0  0  0  0  0  0
    8.5288  -13.7176   25.8916 C   0  0  0  0  0  0  0  0  0  0  0  0
    8.1318  -13.1959   27.1009 C   0  0  0  0  0  0  0  0  0  0  0  0
    6.9186  -12.5649   27.2567 C   0  0  0  0  0  0  0  0  0  0  0  0
    6.0656  -12.4445   26.1792 C   0  0  0  0  0  0  0  0  0  0  0  0
    6.4507  -12.9604   24.9703 C   0  0  0  0  0  0  0  0  0  0  0  0
    7.6786  -13.5927   24.8353 C   0  0  0  0  0  0  0  0  0  0  0  0
    9.0221  -16.4318   26.8978 C   0  0  0  0  0  0  0  0  0  0  0  0
    9.5396  -16.3488   28.1598 O   0  0  0  0  0  0  0  0  0  0  0  0
    7.9125  -17.0339   26.7693 O   0  0  0  0  0  0  0  0  0  0  0  0
  2  1  1  6
  3  2  1  0
  4  3  1  0
  5  4  2  0
  6  2  1  0
  7  6  2  0
  8  4  1  0
  9  6  1  0
 10 11  1  6
 10  9  1  0
 12 16  1  0
 12 11  1  0
 13 12  2  0
 14 10  1  0
 15 14  2  0
 17 14  1  0
 18 17  1  0
 18 19  1  1
 19 20  1  0
 20 21  2  0
 21 22  1  0
 23 22  2  0
 24 23  1  0
 25 20  1  0
 25 24  2  0
 26 18  1  0
 26 27  1  0
 28 26  2  0
M  END
$$$$
