DDF.pdb
     RDKit          3D

 28 28  0  0  1  0  0  0  0  0999 V2000
    9.5382  -13.0739   19.6218 N   0  0  0  0  0  0  0  0  0  0  0  0
    8.2357  -13.3026   20.1722 C   0  0  1  0  0  0  0  0  0  0  0  0
    7.2032  -13.3993   19.0657 C   0  0  0  0  0  0  0  0  0  0  0  0
    7.8713  -13.9091   17.8451 C   0  0  0  0  0  0  0  0  0  0  0  0
    8.8565  -13.3432   17.2933 O   0  0  0  0  0  0  0  0  0  0  0  0
    8.1635  -14.4798   21.0790 C   0  0  0  0  0  0  0  0  0  0  0  0
    7.0218  -14.6771   21.6018 O   0  0  0  0  0  0  0  0  0  0  0  0
    7.4262  -15.0754   17.2322 O   0  0  0  0  0  0  0  0  0  0  0  0
    9.2841  -15.3184   21.3390 N   0  0  0  0  0  0  0  0  0  0  0  0
    9.1027  -16.4295   22.2459 C   0  0  1  0  0  0  0  0  0  0  0  0
   10.0923  -17.5559   21.9870 C   0  0  0  0  0  0  0  0  0  0  0  0
    9.9353  -18.1485   20.6455 C   0  0  0  0  0  0  0  0  0  0  0  0
    8.9294  -18.8302   20.3458 O   0  0  0  0  0  0  0  0  0  0  0  0
    9.3123  -16.0366   23.6645 C   0  0  0  0  0  0  0  0  0  0  0  0
   10.3522  -15.3696   23.9099 O   0  0  0  0  0  0  0  0  0  0  0  0
   10.9214  -17.9379   19.7192 O   0  0  0  0  0  0  0  0  0  0  0  0
    8.3779  -16.4053   24.6582 N   0  0  0  0  0  0  0  0  0  0  0  0
    8.6660  -16.1330   26.0717 C   0  0  1  0  0  0  0  0  0  0  0  0
    7.4131  -15.6596   26.7630 C   0  0  0  0  0  0  0  0  0  0  0  0
    7.1458  -14.2540   26.4508 C   0  0  0  0  0  0  0  0  0  0  0  0
    7.9647  -13.2533   26.9199 C   0  0  0  0  0  0  0  0  0  0  0  0
    7.7395  -11.9293   26.6188 C   0  0  0  0  0  0  0  0  0  0  0  0
    6.6662  -11.5800   25.8256 C   0  0  0  0  0  0  0  0  0  0  0  0
    5.8442  -12.5684   25.3530 C   0  0  0  0  0  0  0  0  0  0  0  0
    6.0896  -13.8973   25.6688 C   0  0  0  0  0  0  0  0  0  0  0  0
    9.2959  -17.3083   26.7076 C   0  0  0  0  0  0  0  0  0  0  0  0
    9.4869  -18.5013   26.0692 O   0  0  0  0  0  0  0  0  0  0  0  0
    9.6876  -17.2311   27.9121 O   0  0  0  0  0  0  0  0  0  0  0  0
  2  1  1  6
  3  2  1  0
  4  3  1  0
  5  4  2  0
  6  2  1  0
  7  6  2  0
  8  4  1  0
  9  6  1  0
 10 11  1  6
 10  9  1  0
 12 16  1  0
 12 11  1  0
 13 12  2  0
 14 10  1  0
 15 14  2  0
 17 14  1  0
 18 17  1  0
 18 19  1  1
 19 20  1  0
 20 21  2  0
 21 22  1  0
 23 22  2  0
 24 23  1  0
 25 20  1  0
 25 24  2  0
 26 18  1  0
 26 27  1  0
 28 26  2  0
M  END
$$$$
