MGY.pdb
     RDKit          3D

 25 25  0  0  1  0  0  0  0  0999 V2000
   29.5504  -16.2009  -17.9838 C   0  0  0  0  0  0  0  0  0  0  0  0
   28.4772  -17.5539  -17.4258 S   0  0  0  0  0  0  0  0  0  0  0  0
   27.0845  -17.6310  -18.6319 C   0  0  0  0  0  0  0  0  0  0  0  0
   26.2026  -18.7244  -18.1574 C   0  0  0  0  0  0  0  0  0  0  0  0
   26.6429  -19.4952  -16.9638 C   0  0  2  0  0  0  0  0  0  0  0  0
   27.6695  -20.4382  -17.4619 N   0  0  0  0  0  0  0  0  0  0  0  0
   25.6417  -20.3061  -16.2890 C   0  0  0  0  0  0  0  0  0  0  0  0
   24.5552  -19.8577  -15.8470 O   0  0  0  0  0  0  0  0  0  0  0  0
   25.8873  -21.6934  -16.1099 N   0  0  0  0  0  0  0  0  0  0  0  0
   24.9551  -22.5084  -15.4188 C   0  0  0  0  0  0  0  0  0  0  0  0
   24.9323  -22.3613  -13.9452 C   0  0  0  0  0  0  0  0  0  0  0  0
   23.8533  -22.6909  -13.3303 O   0  0  0  0  0  0  0  0  0  0  0  0
   26.3050  -19.7263   -5.5618 O   0  0  0  0  0  0  0  0  0  0  0  0
   26.4634  -20.0676   -6.8878 C   0  0  0  0  0  0  0  0  0  0  0  0
   26.4699  -19.0864   -7.8489 C   0  0  0  0  0  0  0  0  0  0  0  0
   26.6281  -19.4002   -9.1987 C   0  0  0  0  0  0  0  0  0  0  0  0
   26.7828  -20.7046   -9.6129 C   0  0  0  0  0  0  0  0  0  0  0  0
   26.9502  -21.0360  -11.0421 C   0  0  0  0  0  0  0  0  0  0  0  0
   25.7254  -21.5450  -11.7239 C   0  0  2  0  0  0  0  0  0  0  0  0
   25.9756  -21.8890  -13.1319 N   0  0  0  0  0  0  0  0  0  0  0  0
   24.6776  -20.4976  -11.6508 C   0  0  0  0  0  0  0  0  0  0  0  0
   23.7524  -20.5506  -10.6379 O   0  0  0  0  0  0  0  0  0  0  0  0
   26.7757  -21.6758   -8.6492 C   0  0  0  0  0  0  0  0  0  0  0  0
   26.6180  -21.3737   -7.2935 C   0  0  0  0  0  0  0  0  0  0  0  0
   24.6313  -19.5826  -12.4904 O   0  0  0  0  0  0  0  0  0  0  0  0
  2  1  1  0
  3  2  1  0
  3  4  1  0
  5  4  1  0
  5  6  1  6
  7  5  1  0
  7  9  1  0
  8  7  2  0
 10 11  1  0
 10  9  1  0
 11 12  2  0
 14 13  1  0
 15 14  2  0
 16 15  1  0
 17 16  2  0
 17 23  1  0
 18 17  1  0
 19 18  1  6
 20 19  1  0
 20 11  1  0
 21 22  1  0
 21 19  1  0
 23 24  2  0
 24 14  1  0
 25 21  2  0
M  END
$$$$
