MGY.pdb
     RDKit          3D

 25 25  0  0  1  0  0  0  0  0999 V2000
   19.0342  -16.8210  -18.7370 C   0  0  0  0  0  0  0  0  0  0  0  0
   18.6660  -15.0496  -18.8802 S   0  0  0  0  0  0  0  0  0  0  0  0
   19.2924  -14.2713  -17.3303 C   0  0  0  0  0  0  0  0  0  0  0  0
   19.1422  -12.8093  -17.5261 C   0  0  0  0  0  0  0  0  0  0  0  0
   19.4945  -11.9221  -16.3852 C   0  0  2  0  0  0  0  0  0  0  0  0
   18.6698  -12.3950  -15.2505 N   0  0  0  0  0  0  0  0  0  0  0  0
   19.2067  -10.5040  -16.5316 C   0  0  0  0  0  0  0  0  0  0  0  0
   19.7152   -9.7711  -17.4154 O   0  0  0  0  0  0  0  0  0  0  0  0
   18.2959   -9.8908  -15.6309 N   0  0  0  0  0  0  0  0  0  0  0  0
   17.9728   -8.5157  -15.7553 C   0  0  0  0  0  0  0  0  0  0  0  0
   18.8653   -7.5727  -15.0428 C   0  0  0  0  0  0  0  0  0  0  0  0
   18.8507   -7.5940  -13.7582 O   0  0  0  0  0  0  0  0  0  0  0  0
   23.5089  -11.5681  -14.5859 O   0  0  0  0  0  0  0  0  0  0  0  0
   23.1556  -10.2382  -14.6647 C   0  0  0  0  0  0  0  0  0  0  0  0
   22.9815   -9.6500  -15.8936 C   0  0  0  0  0  0  0  0  0  0  0  0
   22.6241   -8.3064  -16.0058 C   0  0  0  0  0  0  0  0  0  0  0  0
   22.4341   -7.5246  -14.8879 C   0  0  0  0  0  0  0  0  0  0  0  0
   22.0558   -6.1023  -15.0075 C   0  0  0  0  0  0  0  0  0  0  0  0
   20.6111   -5.8081  -14.7828 C   0  0  2  0  0  0  0  0  0  0  0  0
   19.7373   -6.6384  -15.6256 N   0  0  0  0  0  0  0  0  0  0  0  0
   20.3711   -4.3757  -15.0844 C   0  0  0  0  0  0  0  0  0  0  0  0
   20.9802   -3.4205  -14.3089 O   0  0  0  0  0  0  0  0  0  0  0  0
   22.6091   -8.1183  -13.6677 C   0  0  0  0  0  0  0  0  0  0  0  0
   22.9671   -9.4637  -13.5425 C   0  0  0  0  0  0  0  0  0  0  0  0
   19.6308   -4.0374  -16.0235 O   0  0  0  0  0  0  0  0  0  0  0  0
  2  1  1  0
  3  2  1  0
  3  4  1  0
  5  4  1  0
  5  6  1  1
  7  5  1  0
  7  9  1  0
  8  7  2  0
 10 11  1  0
 10  9  1  0
 11 12  2  0
 14 13  1  0
 15 14  2  0
 16 15  1  0
 17 16  2  0
 17 23  1  0
 18 17  1  0
 19 18  1  6
 20 19  1  0
 20 11  1  0
 21 22  1  0
 21 19  1  0
 23 24  2  0
 24 14  1  0
 25 21  2  0
M  END
$$$$
