MGY.pdb
     RDKit          3D

 25 25  0  0  1  0  0  0  0  0999 V2000
   23.6159  -12.2800  -23.9836 C   0  0  0  0  0  0  0  0  0  0  0  0
   22.8313  -10.7103  -23.5204 S   0  0  0  0  0  0  0  0  0  0  0  0
   22.5873  -10.7813  -21.6940 C   0  0  0  0  0  0  0  0  0  0  0  0
   21.8640   -9.5372  -21.3370 C   0  0  0  0  0  0  0  0  0  0  0  0
   21.5534   -9.3097  -19.9001 C   0  0  2  0  0  0  0  0  0  0  0  0
   20.4143  -10.2054  -19.5978 N   0  0  0  0  0  0  0  0  0  0  0  0
   21.1305   -7.9726  -19.5145 C   0  0  0  0  0  0  0  0  0  0  0  0
   21.8743   -6.9616  -19.5532 O   0  0  0  0  0  0  0  0  0  0  0  0
   19.7978   -7.7759  -19.0651 N   0  0  0  0  0  0  0  0  0  0  0  0
   19.3439   -6.4846  -18.6945 C   0  0  0  0  0  0  0  0  0  0  0  0
   19.6499   -6.0626  -17.3082 C   0  0  0  0  0  0  0  0  0  0  0  0
   18.7894   -5.3214  -16.7074 O   0  0  0  0  0  0  0  0  0  0  0  0
   23.7080  -11.7931  -15.5180 O   0  0  0  0  0  0  0  0  0  0  0  0
   22.9598  -10.6752  -15.2178 C   0  0  0  0  0  0  0  0  0  0  0  0
   23.5159   -9.6602  -14.4783 C   0  0  0  0  0  0  0  0  0  0  0  0
   22.7841   -8.5166  -14.1583 C   0  0  0  0  0  0  0  0  0  0  0  0
   21.4793   -8.3673  -14.5730 C   0  0  0  0  0  0  0  0  0  0  0  0
   20.7053   -7.1564  -14.2339 C   0  0  0  0  0  0  0  0  0  0  0  0
   20.9042   -5.9976  -15.1513 C   0  0  2  0  0  0  0  0  0  0  0  0
   20.7985   -6.3845  -16.5664 N   0  0  0  0  0  0  0  0  0  0  0  0
   22.2472   -5.4219  -14.8965 C   0  0  0  0  0  0  0  0  0  0  0  0
   23.1448   -5.3411  -15.9321 O   0  0  0  0  0  0  0  0  0  0  0  0
   20.9331   -9.3828  -15.3095 C   0  0  0  0  0  0  0  0  0  0  0  0
   21.6562  -10.5334  -15.6365 C   0  0  0  0  0  0  0  0  0  0  0  0
   22.5627   -5.0165  -13.7649 O   0  0  0  0  0  0  0  0  0  0  0  0
  2  1  1  0
  3  2  1  0
  3  4  1  0
  5  4  1  0
  5  6  1  6
  7  5  1  0
  7  9  1  0
  8  7  2  0
 10 11  1  0
 10  9  1  0
 11 12  2  0
 14 13  1  0
 15 14  2  0
 16 15  1  0
 17 16  2  0
 17 23  1  0
 18 17  1  0
 19 18  1  1
 20 19  1  0
 20 11  1  0
 21 22  1  0
 21 19  1  0
 23 24  2  0
 24 14  1  0
 25 21  2  0
M  END
$$$$
