MGY.pdb
     RDKit          3D

 25 25  0  0  1  0  0  0  0  0999 V2000
   29.2194  -20.8180   -7.7186 C   0  0  0  0  0  0  0  0  0  0  0  0
   27.7207  -20.0925   -6.9966 S   0  0  0  0  0  0  0  0  0  0  0  0
   26.5773  -19.7738   -8.4077 C   0  0  0  0  0  0  0  0  0  0  0  0
   26.2939  -21.1021   -9.0026 C   0  0  0  0  0  0  0  0  0  0  0  0
   26.9521  -21.4322  -10.2951 C   0  0  2  0  0  0  0  0  0  0  0  0
   27.7694  -20.2455  -10.6341 N   0  0  0  0  0  0  0  0  0  0  0  0
   26.0878  -21.6692  -11.4405 C   0  0  0  0  0  0  0  0  0  0  0  0
   25.3995  -22.7074  -11.5989 O   0  0  0  0  0  0  0  0  0  0  0  0
   26.0010  -20.6772  -12.4531 N   0  0  0  0  0  0  0  0  0  0  0  0
   25.1108  -20.8364  -13.5454 C   0  0  0  0  0  0  0  0  0  0  0  0
   23.6689  -20.8632  -13.2084 C   0  0  0  0  0  0  0  0  0  0  0  0
   23.3322  -20.5576  -12.0067 O   0  0  0  0  0  0  0  0  0  0  0  0
   20.9980  -16.4169  -17.9790 O   0  0  0  0  0  0  0  0  0  0  0  0
   20.9578  -17.2161  -16.8568 C   0  0  0  0  0  0  0  0  0  0  0  0
   19.9046  -18.0778  -16.6702 C   0  0  0  0  0  0  0  0  0  0  0  0
   19.8357  -18.8990  -15.5448 C   0  0  0  0  0  0  0  0  0  0  0  0
   20.8211  -18.8729  -14.5830 C   0  0  0  0  0  0  0  0  0  0  0  0
   20.7474  -19.7426  -13.3919 C   0  0  0  0  0  0  0  0  0  0  0  0
   21.2193  -21.1423  -13.5970 C   0  0  2  0  0  0  0  0  0  0  0  0
   22.6108  -21.1959  -14.0703 N   0  0  0  0  0  0  0  0  0  0  0  0
   20.3343  -21.7952  -14.5925 C   0  0  0  0  0  0  0  0  0  0  0  0
   19.0123  -21.9931  -14.2801 O   0  0  0  0  0  0  0  0  0  0  0  0
   21.8667  -18.0120  -14.7767 C   0  0  0  0  0  0  0  0  0  0  0  0
   21.9470  -17.1843  -15.9003 C   0  0  0  0  0  0  0  0  0  0  0  0
   20.7759  -22.1604  -15.6952 O   0  0  0  0  0  0  0  0  0  0  0  0
  2  1  1  0
  3  2  1  0
  3  4  1  0
  5  4  1  0
  5  6  1  6
  7  5  1  0
  7  9  1  0
  8  7  2  0
 10 11  1  0
 10  9  1  0
 11 12  2  0
 14 13  1  0
 15 14  2  0
 16 15  1  0
 17 16  2  0
 17 23  1  0
 18 17  1  0
 19 18  1  6
 20 19  1  0
 20 11  1  0
 21 22  1  0
 21 19  1  0
 23 24  2  0
 24 14  1  0
 25 21  2  0
M  END
$$$$
