MGY.pdb
     RDKit          3D

 25 25  0  0  1  0  0  0  0  0999 V2000
   20.5536  -14.8964  -21.7666 C   0  0  0  0  0  0  0  0  0  0  0  0
   20.9813  -13.1395  -21.9223 S   0  0  0  0  0  0  0  0  0  0  0  0
   20.9611  -12.4557  -20.2100 C   0  0  0  0  0  0  0  0  0  0  0  0
   21.3570  -11.0328  -20.3411 C   0  0  0  0  0  0  0  0  0  0  0  0
   21.3468  -10.1990  -19.1094 C   0  0  2  0  0  0  0  0  0  0  0  0
   19.9849  -10.3445  -18.5478 N   0  0  0  0  0  0  0  0  0  0  0  0
   21.5675   -8.7706  -19.2710 C   0  0  0  0  0  0  0  0  0  0  0  0
   22.6157   -8.2709  -19.7490 O   0  0  0  0  0  0  0  0  0  0  0  0
   20.5468   -7.8676  -18.8716 N   0  0  0  0  0  0  0  0  0  0  0  0
   20.7589   -6.4667  -18.9292 C   0  0  0  0  0  0  0  0  0  0  0  0
   20.8450   -5.7696  -17.6253 C   0  0  0  0  0  0  0  0  0  0  0  0
   19.8940   -5.9619  -16.7830 O   0  0  0  0  0  0  0  0  0  0  0  0
   22.5968  -10.5336  -14.1820 O   0  0  0  0  0  0  0  0  0  0  0  0
   22.6608   -9.1682  -14.3590 C   0  0  0  0  0  0  0  0  0  0  0  0
   23.4687   -8.6441  -15.3384 C   0  0  0  0  0  0  0  0  0  0  0  0
   23.5547   -7.2669  -15.5417 C   0  0  0  0  0  0  0  0  0  0  0  0
   22.8325   -6.3864  -14.7670 C   0  0  0  0  0  0  0  0  0  0  0  0
   22.9241   -4.9285  -14.9828 C   0  0  0  0  0  0  0  0  0  0  0  0
   21.8533   -4.3449  -15.8412 C   0  0  2  0  0  0  0  0  0  0  0  0
   21.8661   -4.9029  -17.2020 N   0  0  0  0  0  0  0  0  0  0  0  0
   22.0533   -2.8766  -15.9084 C   0  0  0  0  0  0  0  0  0  0  0  0
   21.9887   -2.1419  -14.7505 O   0  0  0  0  0  0  0  0  0  0  0  0
   22.0300   -6.9167  -13.7940 C   0  0  0  0  0  0  0  0  0  0  0  0
   21.9354   -8.2949  -13.5807 C   0  0  0  0  0  0  0  0  0  0  0  0
   22.2765   -2.3127  -16.9930 O   0  0  0  0  0  0  0  0  0  0  0  0
  2  1  1  0
  3  2  1  0
  3  4  1  0
  5  4  1  0
  5  6  1  6
  7  5  1  0
  7  9  1  0
  8  7  2  0
 10 11  1  0
 10  9  1  0
 11 12  2  0
 14 13  1  0
 15 14  2  0
 16 15  1  0
 17 16  2  0
 17 23  1  0
 18 17  1  0
 19 18  1  1
 20 19  1  0
 20 11  1  0
 21 22  1  0
 21 19  1  0
 23 24  2  0
 24 14  1  0
 25 21  2  0
M  END
$$$$
