MGY.pdb
     RDKit          3D

 25 25  0  0  1  0  0  0  0  0999 V2000
   17.8341  -16.2786  -17.7620 C   0  0  0  0  0  0  0  0  0  0  0  0
   18.8163  -14.8672  -17.1816 S   0  0  0  0  0  0  0  0  0  0  0  0
   17.6089  -13.5244  -16.8082 C   0  0  0  0  0  0  0  0  0  0  0  0
   18.3827  -12.4727  -16.1056 C   0  0  0  0  0  0  0  0  0  0  0  0
   17.6650  -11.2252  -15.7297 C   0  0  2  0  0  0  0  0  0  0  0  0
   18.0130  -10.2404  -16.7787 N   0  0  0  0  0  0  0  0  0  0  0  0
   18.0215  -10.6089  -14.4615 C   0  0  0  0  0  0  0  0  0  0  0  0
   17.9514  -11.1926  -13.3519 O   0  0  0  0  0  0  0  0  0  0  0  0
   18.4813   -9.2652  -14.4553 N   0  0  0  0  0  0  0  0  0  0  0  0
   18.6819   -8.5763  -13.2322 C   0  0  0  0  0  0  0  0  0  0  0  0
   17.4653   -8.3110  -12.4301 C   0  0  0  0  0  0  0  0  0  0  0  0
   16.3270   -8.5267  -12.9855 O   0  0  0  0  0  0  0  0  0  0  0  0
   11.2366   -6.7433   -6.3450 O   0  0  0  0  0  0  0  0  0  0  0  0
   12.4129   -7.0305   -7.0036 C   0  0  0  0  0  0  0  0  0  0  0  0
   13.4575   -6.1401   -6.9544 C   0  0  0  0  0  0  0  0  0  0  0  0
   14.6601   -6.4024   -7.6105 C   0  0  0  0  0  0  0  0  0  0  0  0
   14.8401   -7.5631   -8.3298 C   0  0  0  0  0  0  0  0  0  0  0  0
   16.1135   -7.8401   -9.0241 C   0  0  0  0  0  0  0  0  0  0  0  0
   16.1277   -7.5143  -10.4794 C   0  0  2  0  0  0  0  0  0  0  0  0
   17.4173   -7.8373  -11.1087 N   0  0  0  0  0  0  0  0  0  0  0  0
   15.8500   -6.0660  -10.6392 C   0  0  0  0  0  0  0  0  0  0  0  0
   14.5595   -5.6562  -10.8657 O   0  0  0  0  0  0  0  0  0  0  0  0
   13.7948   -8.4448   -8.3734 C   0  0  0  0  0  0  0  0  0  0  0  0
   12.5850   -8.1931   -7.7201 C   0  0  0  0  0  0  0  0  0  0  0  0
   16.7667   -5.2298  -10.5704 O   0  0  0  0  0  0  0  0  0  0  0  0
  2  1  1  0
  3  2  1  0
  3  4  1  0
  5  4  1  0
  5  6  1  6
  7  5  1  0
  7  9  1  0
  8  7  2  0
 10 11  1  0
 10  9  1  0
 11 12  2  0
 14 13  1  0
 15 14  2  0
 16 15  1  0
 17 16  2  0
 17 23  1  0
 18 17  1  0
 19 18  1  1
 20 19  1  0
 20 11  1  0
 21 22  1  0
 21 19  1  0
 23 24  2  0
 24 14  1  0
 25 21  2  0
M  END
$$$$
