MGY.pdb
     RDKit          3D

 25 25  0  0  1  0  0  0  0  0999 V2000
   14.9469  -16.7116  -19.1668 C   0  0  0  0  0  0  0  0  0  0  0  0
   15.7197  -15.3599  -18.2343 S   0  0  0  0  0  0  0  0  0  0  0  0
   17.1934  -14.8415  -19.2139 C   0  0  0  0  0  0  0  0  0  0  0  0
   17.6442  -13.5624  -18.6146 C   0  0  0  0  0  0  0  0  0  0  0  0
   18.8915  -12.9533  -19.1495 C   0  0  2  0  0  0  0  0  0  0  0  0
   19.9986  -13.6892  -18.4983 N   0  0  0  0  0  0  0  0  0  0  0  0
   19.1191  -11.5452  -18.8655 C   0  0  0  0  0  0  0  0  0  0  0  0
   18.4350  -10.6107  -19.3508 O   0  0  0  0  0  0  0  0  0  0  0  0
   20.1740  -11.1830  -17.9864 N   0  0  0  0  0  0  0  0  0  0  0  0
   20.4546   -9.8190  -17.7187 C   0  0  0  0  0  0  0  0  0  0  0  0
   20.3625   -9.4042  -16.2998 C   0  0  0  0  0  0  0  0  0  0  0  0
   20.1339  -10.3178  -15.4258 O   0  0  0  0  0  0  0  0  0  0  0  0
   24.8036   -3.4583  -16.2587 O   0  0  0  0  0  0  0  0  0  0  0  0
   24.0760   -4.4588  -15.6508 C   0  0  0  0  0  0  0  0  0  0  0  0
   24.3681   -5.7739  -15.9184 C   0  0  0  0  0  0  0  0  0  0  0  0
   23.6498   -6.8085  -15.3190 C   0  0  0  0  0  0  0  0  0  0  0  0
   22.6233   -6.5458  -14.4391 C   0  0  0  0  0  0  0  0  0  0  0  0
   21.8633   -7.6416  -13.8051 C   0  0  0  0  0  0  0  0  0  0  0  0
   20.4900   -7.8576  -14.3450 C   0  0  2  0  0  0  0  0  0  0  0  0
   20.4949   -8.0998  -15.7957 N   0  0  0  0  0  0  0  0  0  0  0  0
   19.6741   -6.6548  -14.0486 C   0  0  0  0  0  0  0  0  0  0  0  0
   19.3534   -6.3723  -12.7440 O   0  0  0  0  0  0  0  0  0  0  0  0
   22.3390   -5.2332  -14.1779 C   0  0  0  0  0  0  0  0  0  0  0  0
   23.0517   -4.1878  -14.7722 C   0  0  0  0  0  0  0  0  0  0  0  0
   19.2830   -5.9089  -14.9624 O   0  0  0  0  0  0  0  0  0  0  0  0
  2  1  1  0
  3  2  1  0
  3  4  1  0
  5  4  1  0
  5  6  1  1
  7  5  1  0
  7  9  1  0
  8  7  2  0
 10 11  1  0
 10  9  1  0
 11 12  2  0
 14 13  1  0
 15 14  2  0
 16 15  1  0
 17 16  2  0
 17 23  1  0
 18 17  1  0
 19 18  1  6
 20 19  1  0
 20 11  1  0
 21 22  1  0
 21 19  1  0
 23 24  2  0
 24 14  1  0
 25 21  2  0
M  END
$$$$
