MGY.pdb
     RDKit          3D

 25 25  0  0  1  0  0  0  0  0999 V2000
   25.6435  -14.3203  -20.7882 C   0  0  0  0  0  0  0  0  0  0  0  0
   26.3497  -15.6802  -19.8159 S   0  0  0  0  0  0  0  0  0  0  0  0
   24.9445  -16.4218  -18.8801 C   0  0  0  0  0  0  0  0  0  0  0  0
   25.5272  -17.5404  -18.1005 C   0  0  0  0  0  0  0  0  0  0  0  0
   26.5008  -18.4275  -18.7917 C   0  0  2  0  0  0  0  0  0  0  0  0
   25.6837  -19.3144  -19.6501 N   0  0  0  0  0  0  0  0  0  0  0  0
   27.3103  -19.3033  -17.9592 C   0  0  0  0  0  0  0  0  0  0  0  0
   28.1575  -18.8962  -17.1265 O   0  0  0  0  0  0  0  0  0  0  0  0
   27.1471  -20.7091  -18.0783 N   0  0  0  0  0  0  0  0  0  0  0  0
   27.8705  -21.5937  -17.2387 C   0  0  0  0  0  0  0  0  0  0  0  0
   27.3590  -21.7397  -15.8564 C   0  0  0  0  0  0  0  0  0  0  0  0
   27.9081  -22.6289  -15.1090 O   0  0  0  0  0  0  0  0  0  0  0  0
   23.5261  -21.3503   -7.9086 O   0  0  0  0  0  0  0  0  0  0  0  0
   24.1218  -21.0974   -9.1256 C   0  0  0  0  0  0  0  0  0  0  0  0
   23.3618  -20.6455  -10.1766 C   0  0  0  0  0  0  0  0  0  0  0  0
   23.9357  -20.3809  -11.4201 C   0  0  0  0  0  0  0  0  0  0  0  0
   25.2836  -20.5643  -11.6356 C   0  0  0  0  0  0  0  0  0  0  0  0
   25.8903  -20.2840  -12.9523 C   0  0  0  0  0  0  0  0  0  0  0  0
   25.7905  -21.3911  -13.9465 C   0  0  2  0  0  0  0  0  0  0  0  0
   26.3192  -21.0046  -15.2635 N   0  0  0  0  0  0  0  0  0  0  0  0
   24.3639  -21.7744  -14.0810 C   0  0  0  0  0  0  0  0  0  0  0  0
   23.8761  -22.8049  -13.3162 O   0  0  0  0  0  0  0  0  0  0  0  0
   26.0334  -21.0143  -10.5834 C   0  0  0  0  0  0  0  0  0  0  0  0
   25.4699  -21.2829   -9.3327 C   0  0  0  0  0  0  0  0  0  0  0  0
   23.6150  -21.1763  -14.8721 O   0  0  0  0  0  0  0  0  0  0  0  0
  2  1  1  0
  3  2  1  0
  3  4  1  0
  5  4  1  0
  5  6  1  6
  7  5  1  0
  7  9  1  0
  8  7  2  0
 10 11  1  0
 10  9  1  0
 11 12  2  0
 14 13  1  0
 15 14  2  0
 16 15  1  0
 17 16  2  0
 17 23  1  0
 18 17  1  0
 19 18  1  1
 20 19  1  0
 20 11  1  0
 21 22  1  0
 21 19  1  0
 23 24  2  0
 24 14  1  0
 25 21  2  0
M  END
$$$$
