MGY.pdb
     RDKit          3D

 25 25  0  0  1  0  0  0  0  0999 V2000
   32.9853  -22.3715   -9.6759 C   0  0  0  0  0  0  0  0  0  0  0  0
   31.6867  -21.3152   -8.9749 S   0  0  0  0  0  0  0  0  0  0  0  0
   30.1111  -21.8466   -9.7720 C   0  0  0  0  0  0  0  0  0  0  0  0
   30.2163  -21.4253  -11.1897 C   0  0  0  0  0  0  0  0  0  0  0  0
   28.9930  -20.8830  -11.8394 C   0  0  2  0  0  0  0  0  0  0  0  0
   28.0011  -21.9806  -11.7874 N   0  0  0  0  0  0  0  0  0  0  0  0
   29.0975  -20.4977  -13.2379 C   0  0  0  0  0  0  0  0  0  0  0  0
   29.6244  -19.4294  -13.6352 O   0  0  0  0  0  0  0  0  0  0  0  0
   28.5795  -21.3699  -14.2318 N   0  0  0  0  0  0  0  0  0  0  0  0
   27.5735  -20.9272  -15.1277 C   0  0  0  0  0  0  0  0  0  0  0  0
   26.1783  -21.2424  -14.7434 C   0  0  0  0  0  0  0  0  0  0  0  0
   25.9975  -21.9618  -13.6943 O   0  0  0  0  0  0  0  0  0  0  0  0
   24.9421  -21.1309   -8.3374 O   0  0  0  0  0  0  0  0  0  0  0  0
   24.7146  -20.7085   -9.6295 C   0  0  0  0  0  0  0  0  0  0  0  0
   25.7601  -20.2441  -10.3897 C   0  0  0  0  0  0  0  0  0  0  0  0
   25.5616  -19.8096  -11.7002 C   0  0  0  0  0  0  0  0  0  0  0  0
   24.3104  -19.8314  -12.2756 C   0  0  0  0  0  0  0  0  0  0  0  0
   24.1011  -19.3713  -13.6630 C   0  0  0  0  0  0  0  0  0  0  0  0
   23.8137  -20.4488  -14.6532 C   0  0  2  0  0  0  0  0  0  0  0  0
   25.0111  -20.8393  -15.4128 N   0  0  0  0  0  0  0  0  0  0  0  0
   22.7728  -19.9602  -15.5902 C   0  0  0  0  0  0  0  0  0  0  0  0
   23.1606  -19.3614  -16.7632 O   0  0  0  0  0  0  0  0  0  0  0  0
   23.2746  -20.2957  -11.5117 C   0  0  0  0  0  0  0  0  0  0  0  0
   23.4611  -20.7338  -10.1975 C   0  0  0  0  0  0  0  0  0  0  0  0
   21.5655  -20.0874  -15.3245 O   0  0  0  0  0  0  0  0  0  0  0  0
  2  1  1  0
  3  2  1  0
  3  4  1  0
  5  4  1  0
  5  6  1  6
  7  5  1  0
  7  9  1  0
  8  7  2  0
 10 11  1  0
 10  9  1  0
 11 12  2  0
 14 13  1  0
 15 14  2  0
 16 15  1  0
 17 16  2  0
 17 23  1  0
 18 17  1  0
 19 18  1  1
 20 19  1  0
 20 11  1  0
 21 22  1  0
 21 19  1  0
 23 24  2  0
 24 14  1  0
 25 21  2  0
M  END
$$$$
