MGY.pdb
     RDKit          3D

 25 25  0  0  1  0  0  0  0  0999 V2000
   14.6911   -8.3131  -13.8255 C   0  0  0  0  0  0  0  0  0  0  0  0
   15.9505   -9.4488  -13.1792 S   0  0  0  0  0  0  0  0  0  0  0  0
   17.4252   -9.2484  -14.2680 C   0  0  0  0  0  0  0  0  0  0  0  0
   17.6181  -10.5619  -14.9283 C   0  0  0  0  0  0  0  0  0  0  0  0
   18.7257  -10.6809  -15.9141 C   0  0  2  0  0  0  0  0  0  0  0  0
   19.8975  -11.1404  -15.1350 N   0  0  0  0  0  0  0  0  0  0  0  0
   19.1437   -9.4656  -16.5951 C   0  0  0  0  0  0  0  0  0  0  0  0
   18.3560   -8.6792  -17.1765 O   0  0  0  0  0  0  0  0  0  0  0  0
   20.5229   -9.1278  -16.6141 N   0  0  0  0  0  0  0  0  0  0  0  0
   20.9783   -7.9916  -17.3299 C   0  0  0  0  0  0  0  0  0  0  0  0
   21.0934   -6.7373  -16.5506 C   0  0  0  0  0  0  0  0  0  0  0  0
   21.5711   -5.7058  -17.1495 O   0  0  0  0  0  0  0  0  0  0  0  0
   17.6868   -7.9492   -9.6765 O   0  0  0  0  0  0  0  0  0  0  0  0
   18.1354   -7.1855  -10.7325 C   0  0  0  0  0  0  0  0  0  0  0  0
   19.1223   -6.2521  -10.5289 C   0  0  0  0  0  0  0  0  0  0  0  0
   19.5969   -5.4643  -11.5775 C   0  0  0  0  0  0  0  0  0  0  0  0
   19.0917   -5.5958  -12.8520 C   0  0  0  0  0  0  0  0  0  0  0  0
   19.5947   -4.7613  -13.9616 C   0  0  0  0  0  0  0  0  0  0  0  0
   20.8713   -5.2254  -14.5773 C   0  0  2  0  0  0  0  0  0  0  0  0
   20.7367   -6.5486  -15.2052 N   0  0  0  0  0  0  0  0  0  0  0  0
   21.9088   -5.2851  -13.5189 C   0  0  0  0  0  0  0  0  0  0  0  0
   22.2616   -4.1301  -12.8660 O   0  0  0  0  0  0  0  0  0  0  0  0
   18.1093   -6.5280  -13.0463 C   0  0  0  0  0  0  0  0  0  0  0  0
   17.6255   -7.3234  -12.0036 C   0  0  0  0  0  0  0  0  0  0  0  0
   22.4552   -6.3610  -13.2219 O   0  0  0  0  0  0  0  0  0  0  0  0
  2  1  1  0
  3  2  1  0
  3  4  1  0
  5  4  1  0
  5  6  1  1
  7  5  1  0
  7  9  1  0
  8  7  2  0
 10 11  1  0
 10  9  1  0
 11 12  2  0
 14 13  1  0
 15 14  2  0
 16 15  1  0
 17 16  2  0
 17 23  1  0
 18 17  1  0
 19 18  1  1
 20 19  1  0
 20 11  1  0
 21 22  1  0
 21 19  1  0
 23 24  2  0
 24 14  1  0
 25 21  2  0
M  END
$$$$
