MGY.pdb
     RDKit          3D

 25 25  0  0  1  0  0  0  0  0999 V2000
   27.1256  -13.4537  -16.1924 C   0  0  0  0  0  0  0  0  0  0  0  0
   26.4387  -15.1328  -16.1402 S   0  0  0  0  0  0  0  0  0  0  0  0
   27.3629  -16.1018  -17.4079 C   0  0  0  0  0  0  0  0  0  0  0  0
   26.7703  -17.4608  -17.3851 C   0  0  0  0  0  0  0  0  0  0  0  0
   26.5786  -18.1061  -16.0586 C   0  0  2  0  0  0  0  0  0  0  0  0
   27.9398  -18.2685  -15.5002 N   0  0  0  0  0  0  0  0  0  0  0  0
   25.9742  -19.4289  -16.0433 C   0  0  0  0  0  0  0  0  0  0  0  0
   24.8345  -19.6864  -16.5033 O   0  0  0  0  0  0  0  0  0  0  0  0
   26.7016  -20.5105  -15.4796 N   0  0  0  0  0  0  0  0  0  0  0  0
   26.0791  -21.7670  -15.2683 C   0  0  0  0  0  0  0  0  0  0  0  0
   25.9571  -22.2014  -13.8576 C   0  0  0  0  0  0  0  0  0  0  0  0
   26.7129  -23.1624  -13.4628 O   0  0  0  0  0  0  0  0  0  0  0  0
   28.2996  -20.0414   -5.8915 O   0  0  0  0  0  0  0  0  0  0  0  0
   27.9540  -20.2614   -7.2075 C   0  0  0  0  0  0  0  0  0  0  0  0
   26.7292  -19.8460   -7.6699 C   0  0  0  0  0  0  0  0  0  0  0  0
   26.3507  -20.0545   -8.9962 C   0  0  0  0  0  0  0  0  0  0  0  0
   27.1925  -20.6840   -9.8862 C   0  0  0  0  0  0  0  0  0  0  0  0
   26.7910  -20.9042  -11.2900 C   0  0  0  0  0  0  0  0  0  0  0  0
   25.4942  -21.6169  -11.4757 C   0  0  2  0  0  0  0  0  0  0  0  0
   25.0884  -21.6733  -12.8883 N   0  0  0  0  0  0  0  0  0  0  0  0
   24.4529  -20.9092  -10.6914 C   0  0  0  0  0  0  0  0  0  0  0  0
   24.1207  -21.3820   -9.4460 O   0  0  0  0  0  0  0  0  0  0  0  0
   28.4107  -21.0942   -9.4175 C   0  0  0  0  0  0  0  0  0  0  0  0
   28.8013  -20.8910   -8.0908 C   0  0  0  0  0  0  0  0  0  0  0  0
   23.8851  -19.9026  -11.1480 O   0  0  0  0  0  0  0  0  0  0  0  0
  2  1  1  0
  3  2  1  0
  3  4  1  0
  5  4  1  0
  5  6  1  6
  7  5  1  0
  7  9  1  0
  8  7  2  0
 10 11  1  0
 10  9  1  0
 11 12  2  0
 14 13  1  0
 15 14  2  0
 16 15  1  0
 17 16  2  0
 17 23  1  0
 18 17  1  0
 19 18  1  6
 20 19  1  0
 20 11  1  0
 21 22  1  0
 21 19  1  0
 23 24  2  0
 24 14  1  0
 25 21  2  0
M  END
$$$$
