MGY.pdb
     RDKit          3D

 25 25  0  0  1  0  0  0  0  0999 V2000
   23.7080  -21.0714  -20.8124 C   0  0  0  0  0  0  0  0  0  0  0  0
   24.0940  -21.0086  -19.0401 S   0  0  0  0  0  0  0  0  0  0  0  0
   25.8444  -21.5655  -18.8791 C   0  0  0  0  0  0  0  0  0  0  0  0
   26.1258  -21.5897  -17.4235 C   0  0  0  0  0  0  0  0  0  0  0  0
   27.1385  -20.6330  -16.9021 C   0  0  2  0  0  0  0  0  0  0  0  0
   28.4267  -21.3608  -16.9482 N   0  0  0  0  0  0  0  0  0  0  0  0
   26.9795  -20.1780  -15.5299 C   0  0  0  0  0  0  0  0  0  0  0  0
   26.0638  -19.4094  -15.1458 O   0  0  0  0  0  0  0  0  0  0  0  0
   27.9051  -20.6196  -14.5475 N   0  0  0  0  0  0  0  0  0  0  0  0
   27.7804  -20.2015  -13.1983 C   0  0  0  0  0  0  0  0  0  0  0  0
   26.6477  -20.7824  -12.4412 C   0  0  0  0  0  0  0  0  0  0  0  0
   26.3371  -22.0062  -12.6797 O   0  0  0  0  0  0  0  0  0  0  0  0
   29.3267  -20.0336   -6.1723 O   0  0  0  0  0  0  0  0  0  0  0  0
   28.1819  -20.0815   -6.9384 C   0  0  0  0  0  0  0  0  0  0  0  0
   27.8859  -21.2165   -7.6530 C   0  0  0  0  0  0  0  0  0  0  0  0
   26.7351  -21.2952   -8.4373 C   0  0  0  0  0  0  0  0  0  0  0  0
   25.8573  -20.2372   -8.5216 C   0  0  0  0  0  0  0  0  0  0  0  0
   24.6393  -20.3213   -9.3521 C   0  0  0  0  0  0  0  0  0  0  0  0
   24.8412  -20.8761  -10.7216 C   0  0  2  0  0  0  0  0  0  0  0  0
   25.8590  -20.1314  -11.4784 N   0  0  0  0  0  0  0  0  0  0  0  0
   23.5482  -20.8197  -11.4465 C   0  0  0  0  0  0  0  0  0  0  0  0
   22.5066  -21.6017  -11.0126 O   0  0  0  0  0  0  0  0  0  0  0  0
   26.1594  -19.1106   -7.8064 C   0  0  0  0  0  0  0  0  0  0  0  0
   27.3094  -19.0198   -7.0170 C   0  0  0  0  0  0  0  0  0  0  0  0
   23.4024  -20.0781  -12.4329 O   0  0  0  0  0  0  0  0  0  0  0  0
  2  1  1  0
  3  2  1  0
  3  4  1  0
  5  4  1  0
  5  6  1  1
  7  5  1  0
  7  9  1  0
  8  7  2  0
 10 11  1  0
 10  9  1  0
 11 12  2  0
 14 13  1  0
 15 14  2  0
 16 15  1  0
 17 16  2  0
 17 23  1  0
 18 17  1  0
 19 18  1  1
 20 19  1  0
 20 11  1  0
 21 22  1  0
 21 19  1  0
 23 24  2  0
 24 14  1  0
 25 21  2  0
M  END
$$$$
