MGY.pdb
     RDKit          3D

 25 25  0  0  1  0  0  0  0  0999 V2000
   29.0269  -20.2849   -8.1620 C   0  0  0  0  0  0  0  0  0  0  0  0
   27.5491  -19.8496   -7.2027 S   0  0  0  0  0  0  0  0  0  0  0  0
   26.1216  -20.6017   -8.0952 C   0  0  0  0  0  0  0  0  0  0  0  0
   26.5559  -20.7359   -9.5065 C   0  0  0  0  0  0  0  0  0  0  0  0
   25.6253  -20.2539  -10.5621 C   0  0  2  0  0  0  0  0  0  0  0  0
   24.3914  -21.0541  -10.3932 N   0  0  0  0  0  0  0  0  0  0  0  0
   26.0378  -20.4330  -11.9452 C   0  0  0  0  0  0  0  0  0  0  0  0
   26.0688  -21.5430  -12.5314 O   0  0  0  0  0  0  0  0  0  0  0  0
   26.4324  -19.2951  -12.6977 N   0  0  0  0  0  0  0  0  0  0  0  0
   26.7010  -19.4050  -14.0857 C   0  0  0  0  0  0  0  0  0  0  0  0
   25.5482  -19.7651  -14.9430 C   0  0  0  0  0  0  0  0  0  0  0  0
   25.7019  -19.6776  -16.2156 O   0  0  0  0  0  0  0  0  0  0  0  0
   27.3240  -24.8182  -17.9236 O   0  0  0  0  0  0  0  0  0  0  0  0
   26.2621  -24.1163  -17.3949 C   0  0  0  0  0  0  0  0  0  0  0  0
   26.1777  -23.9268  -16.0371 C   0  0  0  0  0  0  0  0  0  0  0  0
   25.1154  -23.2212  -15.4722 C   0  0  0  0  0  0  0  0  0  0  0  0
   24.1153  -22.6912  -16.2571 C   0  0  0  0  0  0  0  0  0  0  0  0
   22.9910  -21.9443  -15.6583 C   0  0  0  0  0  0  0  0  0  0  0  0
   23.2199  -20.4806  -15.4876 C   0  0  2  0  0  0  0  0  0  0  0  0
   24.2823  -20.1943  -14.5115 N   0  0  0  0  0  0  0  0  0  0  0  0
   21.9527  -19.8568  -15.0344 C   0  0  0  0  0  0  0  0  0  0  0  0
   20.8255  -20.0031  -15.8044 O   0  0  0  0  0  0  0  0  0  0  0  0
   24.2072  -22.8842  -17.6085 C   0  0  0  0  0  0  0  0  0  0  0  0
   25.2668  -23.5894  -18.1863 C   0  0  0  0  0  0  0  0  0  0  0  0
   21.9042  -19.2097  -13.9746 O   0  0  0  0  0  0  0  0  0  0  0  0
  2  1  1  0
  3  2  1  0
  3  4  1  0
  5  4  1  0
  5  6  1  6
  7  5  1  0
  7  9  1  0
  8  7  2  0
 10 11  1  0
 10  9  1  0
 11 12  2  0
 14 13  1  0
 15 14  2  0
 16 15  1  0
 17 16  2  0
 17 23  1  0
 18 17  1  0
 19 18  1  1
 20 19  1  0
 20 11  1  0
 21 22  1  0
 21 19  1  0
 23 24  2  0
 24 14  1  0
 25 21  2  0
M  END
$$$$
