MGY.pdb
     RDKit          3D

 25 25  0  0  1  0  0  0  0  0999 V2000
   15.8391  -13.0814  -20.9381 C   0  0  0  0  0  0  0  0  0  0  0  0
   16.1034  -11.3238  -20.5710 S   0  0  0  0  0  0  0  0  0  0  0  0
   17.6725  -11.2343  -19.6066 C   0  0  0  0  0  0  0  0  0  0  0  0
   17.5092  -12.1896  -18.4845 C   0  0  0  0  0  0  0  0  0  0  0  0
   18.6799  -12.4128  -17.5944 C   0  0  2  0  0  0  0  0  0  0  0  0
   19.2021  -11.0624  -17.2860 N   0  0  0  0  0  0  0  0  0  0  0  0
   19.7984  -13.1640  -18.1420 C   0  0  0  0  0  0  0  0  0  0  0  0
   19.7940  -14.4083  -18.3112 O   0  0  0  0  0  0  0  0  0  0  0  0
   20.9774  -12.4665  -18.5166 N   0  0  0  0  0  0  0  0  0  0  0  0
   22.0683  -13.1559  -19.1045 C   0  0  0  0  0  0  0  0  0  0  0  0
   23.3829  -12.9697  -18.4482 C   0  0  0  0  0  0  0  0  0  0  0  0
   24.0428  -11.9035  -18.7283 O   0  0  0  0  0  0  0  0  0  0  0  0
   25.6215  -19.5556  -14.7141 O   0  0  0  0  0  0  0  0  0  0  0  0
   25.6004  -18.1916  -14.9114 C   0  0  0  0  0  0  0  0  0  0  0  0
   24.4380  -17.5776  -15.3092 C   0  0  0  0  0  0  0  0  0  0  0  0
   24.3853  -16.1993  -15.5171 C   0  0  0  0  0  0  0  0  0  0  0  0
   25.4972  -15.4082  -15.3308 C   0  0  0  0  0  0  0  0  0  0  0  0
   25.4405  -13.9492  -15.5512 C   0  0  0  0  0  0  0  0  0  0  0  0
   25.3202  -13.5261  -16.9762 C   0  0  2  0  0  0  0  0  0  0  0  0
   24.0008  -13.8468  -17.5416 N   0  0  0  0  0  0  0  0  0  0  0  0
   26.3737  -14.2146  -17.7612 C   0  0  0  0  0  0  0  0  0  0  0  0
   27.6443  -13.6946  -17.7708 O   0  0  0  0  0  0  0  0  0  0  0  0
   26.6508  -16.0277  -14.9342 C   0  0  0  0  0  0  0  0  0  0  0  0
   26.7161  -17.4079  -14.7226 C   0  0  0  0  0  0  0  0  0  0  0  0
   26.1178  -15.2474  -18.4031 O   0  0  0  0  0  0  0  0  0  0  0  0
  2  1  1  0
  3  2  1  0
  3  4  1  0
  5  4  1  0
  5  6  1  6
  7  5  1  0
  7  9  1  0
  8  7  2  0
 10 11  1  0
 10  9  1  0
 11 12  2  0
 14 13  1  0
 15 14  2  0
 16 15  1  0
 17 16  2  0
 17 23  1  0
 18 17  1  0
 19 18  1  1
 20 19  1  0
 20 11  1  0
 21 22  1  0
 21 19  1  0
 23 24  2  0
 24 14  1  0
 25 21  2  0
M  END
$$$$
