MGY.pdb
     RDKit          3D

 25 25  0  0  1  0  0  0  0  0999 V2000
   27.0040  -10.2138  -15.1125 C   0  0  0  0  0  0  0  0  0  0  0  0
   25.4998  -11.0509  -15.6872 S   0  0  0  0  0  0  0  0  0  0  0  0
   25.4310  -10.7822  -17.5101 C   0  0  0  0  0  0  0  0  0  0  0  0
   24.5699   -9.5915  -17.7083 C   0  0  0  0  0  0  0  0  0  0  0  0
   24.4252   -9.0693  -19.0936 C   0  0  2  0  0  0  0  0  0  0  0  0
   25.7741   -8.5961  -19.4779 N   0  0  0  0  0  0  0  0  0  0  0  0
   23.5293   -7.9403  -19.2888 C   0  0  0  0  0  0  0  0  0  0  0  0
   22.2839   -7.9972  -19.1391 O   0  0  0  0  0  0  0  0  0  0  0  0
   24.0763   -6.6867  -19.6710 N   0  0  0  0  0  0  0  0  0  0  0  0
   23.2416   -5.5502  -19.8210 C   0  0  0  0  0  0  0  0  0  0  0  0
   22.7895   -4.9073  -18.5656 C   0  0  0  0  0  0  0  0  0  0  0  0
   22.3834   -3.6902  -18.6324 O   0  0  0  0  0  0  0  0  0  0  0  0
   19.9919  -10.7811  -15.1226 O   0  0  0  0  0  0  0  0  0  0  0  0
   20.1628   -9.4320  -15.3472 C   0  0  0  0  0  0  0  0  0  0  0  0
   20.4804   -8.6008  -14.3009 C   0  0  0  0  0  0  0  0  0  0  0  0
   20.6595   -7.2314  -14.4966 C   0  0  0  0  0  0  0  0  0  0  0  0
   20.5234   -6.6669  -15.7455 C   0  0  0  0  0  0  0  0  0  0  0  0
   20.7132   -5.2171  -15.9518 C   0  0  0  0  0  0  0  0  0  0  0  0
   22.1248   -4.7848  -16.1630 C   0  0  2  0  0  0  0  0  0  0  0  0
   22.7593   -5.4892  -17.2875 N   0  0  0  0  0  0  0  0  0  0  0  0
   22.8887   -5.0516  -14.9198 C   0  0  0  0  0  0  0  0  0  0  0  0
   22.5319   -4.3991  -13.7658 O   0  0  0  0  0  0  0  0  0  0  0  0
   20.2073   -7.5019  -16.7823 C   0  0  0  0  0  0  0  0  0  0  0  0
   20.0254   -8.8756  -16.5987 C   0  0  0  0  0  0  0  0  0  0  0  0
   23.8389   -5.8525  -14.9150 O   0  0  0  0  0  0  0  0  0  0  0  0
  2  1  1  0
  3  2  1  0
  3  4  1  0
  5  4  1  0
  5  6  1  1
  7  5  1  0
  7  9  1  0
  8  7  2  0
 10 11  1  0
 10  9  1  0
 11 12  2  0
 14 13  1  0
 15 14  2  0
 16 15  1  0
 17 16  2  0
 17 23  1  0
 18 17  1  0
 19 18  1  1
 20 19  1  0
 20 11  1  0
 21 22  1  0
 21 19  1  0
 23 24  2  0
 24 14  1  0
 25 21  2  0
M  END
$$$$
