MGY.pdb
     RDKit          3D

 25 25  0  0  1  0  0  0  0  0999 V2000
   26.4175  -15.6358  -20.9166 C   0  0  0  0  0  0  0  0  0  0  0  0
   27.2824  -16.1727  -19.4142 S   0  0  0  0  0  0  0  0  0  0  0  0
   26.3797  -17.6630  -18.8107 C   0  0  0  0  0  0  0  0  0  0  0  0
   27.0985  -18.1009  -17.5901 C   0  0  0  0  0  0  0  0  0  0  0  0
   26.5907  -19.3104  -16.8886 C   0  0  2  0  0  0  0  0  0  0  0  0
   25.2217  -18.9622  -16.4462 N   0  0  0  0  0  0  0  0  0  0  0  0
   27.3054  -19.7370  -15.6959 C   0  0  0  0  0  0  0  0  0  0  0  0
   28.4566  -19.3417  -15.3871 O   0  0  0  0  0  0  0  0  0  0  0  0
   26.6802  -20.6556  -14.8115 N   0  0  0  0  0  0  0  0  0  0  0  0
   27.3284  -21.0645  -13.6185 C   0  0  0  0  0  0  0  0  0  0  0  0
   26.7782  -20.5121  -12.3592 C   0  0  0  0  0  0  0  0  0  0  0  0
   26.3472  -19.3019  -12.3778 O   0  0  0  0  0  0  0  0  0  0  0  0
   20.6383  -20.3594  -13.5373 O   0  0  0  0  0  0  0  0  0  0  0  0
   21.6350  -20.5687  -12.6086 C   0  0  0  0  0  0  0  0  0  0  0  0
   21.6798  -19.8005  -11.4709 C   0  0  0  0  0  0  0  0  0  0  0  0
   22.6760  -19.9884  -10.5128 C   0  0  0  0  0  0  0  0  0  0  0  0
   23.6481  -20.9503  -10.6758 C   0  0  0  0  0  0  0  0  0  0  0  0
   24.7024  -21.1486   -9.6611 C   0  0  0  0  0  0  0  0  0  0  0  0
   26.0183  -20.5244   -9.9818 C   0  0  2  0  0  0  0  0  0  0  0  0
   26.6779  -21.1744  -11.1246 N   0  0  0  0  0  0  0  0  0  0  0  0
   26.8902  -20.6260   -8.7861 C   0  0  0  0  0  0  0  0  0  0  0  0
   26.5351  -19.9526   -7.6437 O   0  0  0  0  0  0  0  0  0  0  0  0
   23.5960  -21.7114  -11.8116 C   0  0  0  0  0  0  0  0  0  0  0  0
   22.6027  -21.5326  -12.7788 C   0  0  0  0  0  0  0  0  0  0  0  0
   27.9284  -21.3086   -8.8104 O   0  0  0  0  0  0  0  0  0  0  0  0
  2  1  1  0
  3  2  1  0
  3  4  1  0
  5  4  1  0
  5  6  1  1
  7  5  1  0
  7  9  1  0
  8  7  2  0
 10 11  1  0
 10  9  1  0
 11 12  2  0
 14 13  1  0
 15 14  2  0
 16 15  1  0
 17 16  2  0
 17 23  1  0
 18 17  1  0
 19 18  1  1
 20 19  1  0
 20 11  1  0
 21 22  1  0
 21 19  1  0
 23 24  2  0
 24 14  1  0
 25 21  2  0
M  END
$$$$
