RLM.pdb
     RDKit          3D

 28 27  0  0  1  0  0  0  0  0999 V2000
   28.7086  -16.6664  -19.3459 N   0  0  0  0  0  0  0  0  0  0  0  0
   27.4326  -16.4804  -18.7518 C   0  0  0  0  0  0  0  0  0  0  0  0
   26.3793  -16.3094  -19.5038 N   0  0  0  0  0  0  0  0  0  0  0  0
   27.1993  -16.4651  -17.3536 N   0  0  0  0  0  0  0  0  0  0  0  0
   27.9960  -17.1870  -16.3847 C   0  0  0  0  0  0  0  0  0  0  0  0
   27.9324  -18.6803  -16.7247 C   0  0  0  0  0  0  0  0  0  0  0  0
   26.6987  -19.3169  -16.1109 C   0  0  0  0  0  0  0  0  0  0  0  0
   27.1879  -20.1737  -14.9654 C   0  0  2  0  0  0  0  0  0  0  0  0
   27.9862  -21.2402  -15.5828 N   0  0  0  0  0  0  0  0  0  0  0  0
   26.0884  -20.7607  -14.1651 C   0  0  0  0  0  0  0  0  0  0  0  0
   25.4832  -21.7738  -14.6103 O   0  0  0  0  0  0  0  0  0  0  0  0
   25.4511  -16.0819  -19.0837 C   0  0  0  0  0  0  0  0  0  0  0  0
   26.0376  -22.3432  -10.0278 C   0  0  2  0  0  0  0  0  0  0  0  0
   26.0310  -20.8086  -10.0678 C   0  0  0  0  0  0  0  0  0  0  0  0
   26.2156  -20.3333   -8.6692 C   0  0  0  0  0  0  0  0  0  0  0  0
   24.7264  -20.4132  -10.7113 C   0  0  2  0  0  0  0  0  0  0  0  0
   24.5775  -20.8313  -12.1341 N   0  0  0  0  0  0  0  0  0  0  0  0
   25.6712  -20.2450  -12.9144 C   0  0  0  0  0  0  0  0  0  0  0  0
   23.3242  -20.5499  -12.7968 O   0  0  0  0  0  0  0  0  0  0  0  0
   23.0291  -19.3584  -13.0872 C   0  0  0  0  0  0  0  0  0  0  0  0
   18.9231  -25.1548  -14.2967 S   0  0  0  0  0  0  0  0  0  0  0  0
   18.7827  -23.9665  -15.6607 C   0  0  0  0  0  0  0  0  0  0  0  0
   19.2130  -22.2839  -15.0570 C   0  0  0  0  0  0  0  0  0  0  0  0
   20.5701  -22.4005  -14.4456 C   0  0  1  0  0  0  0  0  0  0  0  0
   21.0886  -21.1351  -13.8029 N   0  0  0  0  0  0  0  0  0  0  0  0
   22.3555  -21.5257  -13.1694 C   0  0  0  0  0  0  0  0  0  0  0  0
   20.1265  -20.6567  -12.8097 O   0  0  0  0  0  0  0  0  0  0  0  0
   20.1869  -20.9002  -11.4565 O   0  0  0  0  0  0  0  0  0  0  0  0
  2  1  1  0
  3  2  2  0
  4  2  1  0
  5  4  1  0
  6  5  1  0
  7  6  1  0
  8  7  1  0
  8  9  1  6
 10  8  1  0
 10 11  2  0
 13 15  1  0
 13 12  1  6
 14 13  1  0
 16 15  1  1
 16 17  1  0
 16 18  1  0
 17 10  1  0
 18 19  2  0
 18 25  1  0
 20 21  1  0
 21 22  1  0
 22 23  1  0
 24 23  1  6
 24 26  1  0
 25 24  1  0
 26 28  2  0
 26 27  1  0
M  END
$$$$
