RLM.pdb
     RDKit          3D

 28 27  0  0  1  0  0  0  0  0999 V2000
   29.6700  -27.8087  -15.4397 N   0  0  0  0  0  0  0  0  0  0  0  0
   28.9109  -28.3379  -16.5164 C   0  0  0  0  0  0  0  0  0  0  0  0
   28.3721  -29.5228  -16.4170 N   0  0  0  0  0  0  0  0  0  0  0  0
   28.6806  -27.6578  -17.7388 N   0  0  0  0  0  0  0  0  0  0  0  0
   29.1369  -26.3144  -18.0247 C   0  0  0  0  0  0  0  0  0  0  0  0
   27.9210  -25.3811  -18.0204 C   0  0  0  0  0  0  0  0  0  0  0  0
   27.2789  -25.3447  -16.6455 C   0  0  0  0  0  0  0  0  0  0  0  0
   26.0454  -24.4803  -16.7752 C   0  0  2  0  0  0  0  0  0  0  0  0
   25.9994  -24.0666  -18.1833 N   0  0  0  0  0  0  0  0  0  0  0  0
   26.0734  -23.2884  -15.8962 C   0  0  0  0  0  0  0  0  0  0  0  0
   26.0705  -23.4523  -14.6457 O   0  0  0  0  0  0  0  0  0  0  0  0
   27.8693  -29.9532  -17.2243 C   0  0  0  0  0  0  0  0  0  0  0  0
   28.0681  -18.4619  -14.9594 C   0  0  1  0  0  0  0  0  0  0  0  0
   26.6545  -18.3161  -15.5401 C   0  0  0  0  0  0  0  0  0  0  0  0
   25.7322  -18.0858  -14.3947 C   0  0  0  0  0  0  0  0  0  0  0  0
   26.3949  -19.5748  -16.3281 C   0  0  1  0  0  0  0  0  0  0  0  0
   26.1310  -20.7875  -15.5029 N   0  0  0  0  0  0  0  0  0  0  0  0
   26.1032  -21.9593  -16.3830 C   0  0  0  0  0  0  0  0  0  0  0  0
   24.9501  -20.7977  -14.6695 O   0  0  0  0  0  0  0  0  0  0  0  0
   23.8286  -21.0580  -15.1848 C   0  0  0  0  0  0  0  0  0  0  0  0
   26.4110  -19.5440   -9.0599 S   0  0  0  0  0  0  0  0  0  0  0  0
   25.0032  -20.5987   -8.6151 C   0  0  0  0  0  0  0  0  0  0  0  0
   24.3015  -21.3605  -10.1343 C   0  0  0  0  0  0  0  0  0  0  0  0
   24.0707  -20.2365  -11.0895 C   0  0  2  0  0  0  0  0  0  0  0  0
   23.6922  -20.6598  -12.4898 N   0  0  0  0  0  0  0  0  0  0  0  0
   24.9312  -20.5347  -13.2695 C   0  0  0  0  0  0  0  0  0  0  0  0
   22.6499  -19.7731  -13.0081 O   0  0  0  0  0  0  0  0  0  0  0  0
   21.2949  -19.9534  -12.8479 O   0  0  0  0  0  0  0  0  0  0  0  0
  2  1  1  0
  3  2  2  0
  4  2  1  0
  5  4  1  0
  6  5  1  0
  7  6  1  0
  8  7  1  0
  8  9  1  6
 10  8  1  0
 10 11  2  0
 13 15  1  0
 13 12  1  6
 14 13  1  0
 16 15  1  1
 16 17  1  0
 16 18  1  0
 17 10  1  0
 18 19  2  0
 18 25  1  0
 20 21  1  0
 21 22  1  0
 22 23  1  0
 24 23  1  1
 24 26  1  0
 25 24  1  0
 26 28  2  0
 26 27  1  0
M  END
$$$$
