RLM.pdb
     RDKit          3D

 28 27  0  0  1  0  0  0  0  0999 V2000
   22.7941  -15.6346  -17.7451 N   0  0  0  0  0  0  0  0  0  0  0  0
   22.3425  -15.8293  -16.4132 C   0  0  0  0  0  0  0  0  0  0  0  0
   21.0704  -15.9948  -16.1713 N   0  0  0  0  0  0  0  0  0  0  0  0
   23.1935  -15.8604  -15.2799 N   0  0  0  0  0  0  0  0  0  0  0  0
   24.6308  -15.6993  -15.3330 C   0  0  0  0  0  0  0  0  0  0  0  0
   25.2179  -16.8682  -16.1321 C   0  0  0  0  0  0  0  0  0  0  0  0
   25.5446  -18.0329  -15.2150 C   0  0  0  0  0  0  0  0  0  0  0  0
   26.9831  -18.4039  -15.4954 C   0  0  2  0  0  0  0  0  0  0  0  0
   27.0440  -18.6895  -16.9344 N   0  0  0  0  0  0  0  0  0  0  0  0
   27.4427  -19.5819  -14.7239 C   0  0  0  0  0  0  0  0  0  0  0  0
   27.0080  -20.7238  -15.0370 O   0  0  0  0  0  0  0  0  0  0  0  0
   20.7280  -16.1800  -15.2026 C   0  0  0  0  0  0  0  0  0  0  0  0
   31.4148  -20.7560  -10.1337 C   0  0  1  0  0  0  0  0  0  0  0  0
   30.3141  -21.3779  -11.0045 C   0  0  0  0  0  0  0  0  0  0  0  0
   30.9095  -22.5608  -11.6842 C   0  0  0  0  0  0  0  0  0  0  0  0
   29.8404  -20.2819  -11.9248 C   0  0  2  0  0  0  0  0  0  0  0  0
   28.6826  -20.6465  -12.7896 N   0  0  0  0  0  0  0  0  0  0  0  0
   28.3520  -19.5007  -13.6419 C   0  0  0  0  0  0  0  0  0  0  0  0
   27.4768  -21.1173  -12.1466 O   0  0  0  0  0  0  0  0  0  0  0  0
   27.3375  -22.3490  -11.9136 C   0  0  0  0  0  0  0  0  0  0  0  0
   27.4342  -19.9328   -6.9559 S   0  0  0  0  0  0  0  0  0  0  0  0
   25.6265  -19.8734   -6.8125 C   0  0  0  0  0  0  0  0  0  0  0  0
   24.8658  -20.5878   -8.3262 C   0  0  0  0  0  0  0  0  0  0  0  0
   25.8028  -20.2735   -9.4454 C   0  0  1  0  0  0  0  0  0  0  0  0
   25.3724  -20.7896  -10.7988 N   0  0  0  0  0  0  0  0  0  0  0  0
   26.3913  -20.2924  -11.7334 C   0  0  0  0  0  0  0  0  0  0  0  0
   24.0487  -20.2610  -11.1298 O   0  0  0  0  0  0  0  0  0  0  0  0
   22.8602  -20.6778  -10.5752 O   0  0  0  0  0  0  0  0  0  0  0  0
  2  1  1  0
  3  2  2  0
  4  2  1  0
  5  4  1  0
  6  5  1  0
  7  6  1  0
  8  7  1  0
  8  9  1  6
 10  8  1  0
 10 11  2  0
 13 15  1  0
 13 12  1  1
 14 13  1  0
 16 15  1  6
 16 17  1  0
 16 18  1  0
 17 10  1  0
 18 19  2  0
 18 25  1  0
 20 21  1  0
 21 22  1  0
 22 23  1  0
 24 23  1  1
 24 26  1  0
 25 24  1  0
 26 28  2  0
 26 27  1  0
M  END
$$$$
