RLM.pdb
     RDKit          3D

 28 27  0  0  1  0  0  0  0  0999 V2000
   27.7954  -25.9448  -16.8822 N   0  0  0  0  0  0  0  0  0  0  0  0
   28.7870  -25.0998  -17.4465 C   0  0  0  0  0  0  0  0  0  0  0  0
   30.0408  -25.4630  -17.4334 N   0  0  0  0  0  0  0  0  0  0  0  0
   28.5163  -23.8446  -18.0472 N   0  0  0  0  0  0  0  0  0  0  0  0
   28.9972  -22.5765  -17.5418 C   0  0  0  0  0  0  0  0  0  0  0  0
   29.0022  -22.6384  -16.0103 C   0  0  0  0  0  0  0  0  0  0  0  0
   28.3871  -21.3816  -15.4217 C   0  0  0  0  0  0  0  0  0  0  0  0
   26.9029  -21.6469  -15.3104 C   0  0  2  0  0  0  0  0  0  0  0  0
   26.3278  -21.2176  -16.5913 N   0  0  0  0  0  0  0  0  0  0  0  0
   26.2615  -20.9139  -14.1944 C   0  0  0  0  0  0  0  0  0  0  0  0
   26.4480  -19.6705  -14.0941 O   0  0  0  0  0  0  0  0  0  0  0  0
   30.7927  -24.8078  -17.7418 C   0  0  0  0  0  0  0  0  0  0  0  0
   23.1005  -18.7944  -13.4190 C   0  0  2  0  0  0  0  0  0  0  0  0
   22.7803  -20.2947  -13.4748 C   0  0  0  0  0  0  0  0  0  0  0  0
   21.3041  -20.4224  -13.6176 C   0  0  0  0  0  0  0  0  0  0  0  0
   23.3558  -20.8917  -12.2160 C   0  0  2  0  0  0  0  0  0  0  0  0
   24.8392  -20.8041  -12.1022 N   0  0  0  0  0  0  0  0  0  0  0  0
   25.4416  -21.5344  -13.2213 C   0  0  0  0  0  0  0  0  0  0  0  0
   25.4527  -21.2439  -10.8695 O   0  0  0  0  0  0  0  0  0  0  0  0
   25.5544  -22.4786  -10.6326 C   0  0  0  0  0  0  0  0  0  0  0  0
   29.5127  -18.4683   -7.0840 S   0  0  0  0  0  0  0  0  0  0  0  0
   28.3103  -18.7499   -5.7548 C   0  0  0  0  0  0  0  0  0  0  0  0
   27.0700  -19.9925   -6.3007 C   0  0  0  0  0  0  0  0  0  0  0  0
   26.9336  -19.8168   -7.7770 C   0  0  1  0  0  0  0  0  0  0  0  0
   26.0018  -20.7973   -8.4506 N   0  0  0  0  0  0  0  0  0  0  0  0
   25.9752  -20.3847   -9.8605 C   0  0  0  0  0  0  0  0  0  0  0  0
   24.6714  -20.7066   -7.8481 O   0  0  0  0  0  0  0  0  0  0  0  0
   23.6115  -19.9904   -8.3557 O   0  0  0  0  0  0  0  0  0  0  0  0
  2  1  1  0
  3  2  2  0
  4  2  1  0
  5  4  1  0
  6  5  1  0
  7  6  1  0
  8  7  1  0
  8  9  1  6
 10  8  1  0
 10 11  2  0
 13 15  1  0
 13 12  1  6
 14 13  1  0
 16 15  1  6
 16 17  1  0
 16 18  1  0
 17 10  1  0
 18 19  2  0
 18 25  1  0
 20 21  1  0
 21 22  1  0
 22 23  1  0
 24 23  1  6
 24 26  1  0
 25 24  1  0
 26 28  2  0
 26 27  1  0
M  END
$$$$
