RLM.pdb
     RDKit          3D

 28 27  0  0  1  0  0  0  0  0999 V2000
   17.8689  -16.3558  -18.0147 N   0  0  0  0  0  0  0  0  0  0  0  0
   16.7460  -15.6763  -17.4732 C   0  0  0  0  0  0  0  0  0  0  0  0
   15.8557  -16.3328  -16.7800 N   0  0  0  0  0  0  0  0  0  0  0  0
   16.5033  -14.2884  -17.6294 N   0  0  0  0  0  0  0  0  0  0  0  0
   17.2950  -13.4094  -18.4631 C   0  0  0  0  0  0  0  0  0  0  0  0
   16.6550  -12.0168  -18.4396 C   0  0  0  0  0  0  0  0  0  0  0  0
   17.2621  -11.1673  -17.3378 C   0  0  0  0  0  0  0  0  0  0  0  0
   18.3799  -10.3761  -17.9782 C   0  0  2  0  0  0  0  0  0  0  0  0
   19.0496  -11.3086  -18.8935 N   0  0  0  0  0  0  0  0  0  0  0  0
   19.3521   -9.8411  -16.9971 C   0  0  0  0  0  0  0  0  0  0  0  0
   18.9430   -9.0557  -16.0989 O   0  0  0  0  0  0  0  0  0  0  0  0
   14.9798  -15.8677  -16.4538 C   0  0  0  0  0  0  0  0  0  0  0  0
   25.2403  -10.8673  -15.4647 C   0  0  1  0  0  0  0  0  0  0  0  0
   24.0325   -9.9668  -15.1693 C   0  0  0  0  0  0  0  0  0  0  0  0
   23.7620  -10.0622  -13.7087 C   0  0  0  0  0  0  0  0  0  0  0  0
   22.9190  -10.4562  -16.0599 C   0  0  2  0  0  0  0  0  0  0  0  0
   21.6845   -9.6215  -16.0357 N   0  0  0  0  0  0  0  0  0  0  0  0
   20.7307  -10.1628  -17.0083 C   0  0  0  0  0  0  0  0  0  0  0  0
   21.8222   -8.1994  -16.2542 O   0  0  0  0  0  0  0  0  0  0  0  0
   22.3859   -7.7839  -17.3033 C   0  0  0  0  0  0  0  0  0  0  0  0
   19.0564   -1.2165  -17.0185 S   0  0  0  0  0  0  0  0  0  0  0  0
   18.9912   -3.0085  -16.7421 C   0  0  0  0  0  0  0  0  0  0  0  0
   20.6277   -3.5989  -16.1474 C   0  0  0  0  0  0  0  0  0  0  0  0
   20.5135   -5.0832  -16.0342 C   0  0  1  0  0  0  0  0  0  0  0  0
   21.7613   -5.7815  -15.5454 N   0  0  0  0  0  0  0  0  0  0  0  0
   21.3628   -7.1843  -15.3664 C   0  0  0  0  0  0  0  0  0  0  0  0
   22.1936   -5.1892  -14.2792 O   0  0  0  0  0  0  0  0  0  0  0  0
   21.9819   -5.7288  -13.0310 O   0  0  0  0  0  0  0  0  0  0  0  0
  2  1  1  0
  3  2  2  0
  4  2  1  0
  5  4  1  0
  6  5  1  0
  7  6  1  0
  8  7  1  0
  8  9  1  6
 10  8  1  0
 10 11  2  0
 13 15  1  0
 13 12  1  1
 14 13  1  0
 16 15  1  1
 16 17  1  0
 16 18  1  0
 17 10  1  0
 18 19  2  0
 18 25  1  0
 20 21  1  0
 21 22  1  0
 22 23  1  0
 24 23  1  6
 24 26  1  0
 25 24  1  0
 26 28  2  0
 26 27  1  0
M  END
$$$$
