RLM.pdb
     RDKit          3D

 28 27  0  0  1  0  0  0  0  0999 V2000
   28.6098  -19.0589  -18.6925 N   0  0  0  0  0  0  0  0  0  0  0  0
   28.6985  -17.6727  -18.3986 C   0  0  0  0  0  0  0  0  0  0  0  0
   28.8428  -16.8069  -19.3648 N   0  0  0  0  0  0  0  0  0  0  0  0
   28.6404  -17.1304  -17.0900 N   0  0  0  0  0  0  0  0  0  0  0  0
   27.7704  -17.6186  -16.0414 C   0  0  0  0  0  0  0  0  0  0  0  0
   26.3508  -17.7349  -16.6078 C   0  0  0  0  0  0  0  0  0  0  0  0
   25.8019  -19.1338  -16.3934 C   0  0  0  0  0  0  0  0  0  0  0  0
   26.4369  -19.6492  -15.1219 C   0  0  2  0  0  0  0  0  0  0  0  0
   27.5494  -20.5042  -15.5545 N   0  0  0  0  0  0  0  0  0  0  0  0
   25.5006  -20.4237  -14.2748 C   0  0  0  0  0  0  0  0  0  0  0  0
   25.0711  -21.5322  -14.6961 O   0  0  0  0  0  0  0  0  0  0  0  0
   29.0262  -15.7997  -19.1601 C   0  0  0  0  0  0  0  0  0  0  0  0
   25.9475  -22.2610  -10.4181 C   0  0  2  0  0  0  0  0  0  0  0  0
   25.7638  -20.7435  -10.2763 C   0  0  0  0  0  0  0  0  0  0  0  0
   26.0372  -20.4003   -8.8539 C   0  0  0  0  0  0  0  0  0  0  0  0
   24.3634  -20.4465  -10.7488 C   0  0  2  0  0  0  0  0  0  0  0  0
   24.1086  -20.7522  -12.1851 N   0  0  0  0  0  0  0  0  0  0  0  0
   25.0534  -19.9875  -13.0044 C   0  0  0  0  0  0  0  0  0  0  0  0
   22.7719  -20.5483  -12.6958 O   0  0  0  0  0  0  0  0  0  0  0  0
   22.3536  -19.3743  -12.8900 C   0  0  0  0  0  0  0  0  0  0  0  0
   20.2896  -24.3847  -16.5105 S   0  0  0  0  0  0  0  0  0  0  0  0
   18.6628  -23.6124  -16.2885 C   0  0  0  0  0  0  0  0  0  0  0  0
   18.8024  -22.2148  -15.1020 C   0  0  0  0  0  0  0  0  0  0  0  0
   20.1674  -22.3161  -14.5055 C   0  0  1  0  0  0  0  0  0  0  0  0
   20.4815  -21.2750  -13.4563 N   0  0  0  0  0  0  0  0  0  0  0  0
   21.8482  -21.5849  -13.0149 C   0  0  0  0  0  0  0  0  0  0  0  0
   19.5305  -21.3876  -12.3500 O   0  0  0  0  0  0  0  0  0  0  0  0
   18.2982  -20.7777  -12.2902 O   0  0  0  0  0  0  0  0  0  0  0  0
  2  1  1  0
  3  2  2  0
  4  2  1  0
  5  4  1  0
  6  5  1  0
  7  6  1  0
  8  7  1  0
  8  9  1  6
 10  8  1  0
 10 11  2  0
 13 15  1  0
 13 12  1  6
 14 13  1  0
 16 15  1  1
 16 17  1  0
 16 18  1  0
 17 10  1  0
 18 19  2  0
 18 25  1  0
 20 21  1  0
 21 22  1  0
 22 23  1  0
 24 23  1  6
 24 26  1  0
 25 24  1  0
 26 28  2  0
 26 27  1  0
M  END
$$$$
