RLM.pdb
     RDKit          3D

 28 27  0  0  1  0  0  0  0  0999 V2000
   29.4682  -24.8933  -16.7948 N   0  0  0  0  0  0  0  0  0  0  0  0
   28.1622  -24.6387  -17.2902 C   0  0  0  0  0  0  0  0  0  0  0  0
   27.3210  -25.6234  -17.4538 N   0  0  0  0  0  0  0  0  0  0  0  0
   27.6777  -23.3517  -17.6347 N   0  0  0  0  0  0  0  0  0  0  0  0
   28.4098  -22.1207  -17.4269 C   0  0  0  0  0  0  0  0  0  0  0  0
   28.1967  -21.6718  -15.9769 C   0  0  0  0  0  0  0  0  0  0  0  0
   27.4197  -20.3687  -15.9288 C   0  0  0  0  0  0  0  0  0  0  0  0
   25.9585  -20.7480  -15.8456 C   0  0  2  0  0  0  0  0  0  0  0  0
   25.3345  -20.1817  -17.0480 N   0  0  0  0  0  0  0  0  0  0  0  0
   25.2887  -20.2262  -14.6319 C   0  0  0  0  0  0  0  0  0  0  0  0
   25.1836  -18.9783  -14.4818 O   0  0  0  0  0  0  0  0  0  0  0  0
   26.3424  -25.4461  -17.7713 C   0  0  0  0  0  0  0  0  0  0  0  0
   20.3190  -20.9261  -11.7484 C   0  0  1  0  0  0  0  0  0  0  0  0
   21.7308  -20.4110  -11.4352 C   0  0  0  0  0  0  0  0  0  0  0  0
   21.6156  -18.9507  -11.1706 C   0  0  0  0  0  0  0  0  0  0  0  0
   22.5833  -20.7813  -12.6220 C   0  0  2  0  0  0  0  0  0  0  0  0
   24.0420  -20.5296  -12.4487 N   0  0  0  0  0  0  0  0  0  0  0  0
   24.7531  -21.0558  -13.6175 C   0  0  0  0  0  0  0  0  0  0  0  0
   24.6786  -21.0248  -11.2493 O   0  0  0  0  0  0  0  0  0  0  0  0
   24.6875  -22.2646  -11.0175 C   0  0  0  0  0  0  0  0  0  0  0  0
   29.4796  -19.2570   -7.0002 S   0  0  0  0  0  0  0  0  0  0  0  0
   27.9163  -18.6834   -6.2797 C   0  0  0  0  0  0  0  0  0  0  0  0
   26.5612  -19.8302   -6.7585 C   0  0  0  0  0  0  0  0  0  0  0  0
   26.3623  -19.6422   -8.2262 C   0  0  1  0  0  0  0  0  0  0  0  0
   25.5085  -20.6962   -8.8922 N   0  0  0  0  0  0  0  0  0  0  0  0
   25.3230  -20.2169  -10.2687 C   0  0  0  0  0  0  0  0  0  0  0  0
   24.2274  -20.8065   -8.1939 O   0  0  0  0  0  0  0  0  0  0  0  0
   23.8963  -21.7816   -7.2808 O   0  0  0  0  0  0  0  0  0  0  0  0
  2  1  1  0
  3  2  2  0
  4  2  1  0
  5  4  1  0
  6  5  1  0
  7  6  1  0
  8  7  1  0
  8  9  1  6
 10  8  1  0
 10 11  2  0
 13 15  1  0
 13 12  1  1
 14 13  1  0
 16 15  1  6
 16 17  1  0
 16 18  1  0
 17 10  1  0
 18 19  2  0
 18 25  1  0
 20 21  1  0
 21 22  1  0
 22 23  1  0
 24 23  1  6
 24 26  1  0
 25 24  1  0
 26 28  2  0
 26 27  1  0
M  END
$$$$
