RLM.pdb
     RDKit          3D

 28 27  0  0  1  0  0  0  0  0999 V2000
   22.9976  -19.4834  -19.6862 N   0  0  0  0  0  0  0  0  0  0  0  0
   22.0150  -18.4843  -19.4579 C   0  0  0  0  0  0  0  0  0  0  0  0
   21.3034  -18.0271  -20.4523 N   0  0  0  0  0  0  0  0  0  0  0  0
   21.7318  -17.9207  -18.1883 N   0  0  0  0  0  0  0  0  0  0  0  0
   22.2168  -18.4516  -16.9323 C   0  0  0  0  0  0  0  0  0  0  0  0
   22.2115  -19.9818  -17.0216 C   0  0  0  0  0  0  0  0  0  0  0  0
   22.7014  -20.5955  -15.7225 C   0  0  0  0  0  0  0  0  0  0  0  0
   21.7207  -20.1681  -14.6542 C   0  0  2  0  0  0  0  0  0  0  0  0
   22.0720  -18.7803  -14.3281 N   0  0  0  0  0  0  0  0  0  0  0  0
   21.7832  -21.0078  -13.4356 C   0  0  0  0  0  0  0  0  0  0  0  0
   21.6256  -22.2544  -13.5449 O   0  0  0  0  0  0  0  0  0  0  0  0
   20.6419  -17.2308  -20.3174 C   0  0  0  0  0  0  0  0  0  0  0  0
   25.0652  -21.9607  -10.6105 C   0  0  2  0  0  0  0  0  0  0  0  0
   24.5208  -20.5302  -10.4927 C   0  0  0  0  0  0  0  0  0  0  0  0
   25.4354  -19.7870   -9.5833 C   0  0  0  0  0  0  0  0  0  0  0  0
   23.1008  -20.6627  -10.0042 C   0  0  2  0  0  0  0  0  0  0  0  0
   22.1714  -21.3362  -10.9549 N   0  0  0  0  0  0  0  0  0  0  0  0
   22.0120  -20.4872  -12.1391 C   0  0  0  0  0  0  0  0  0  0  0  0
   20.8639  -21.7176  -10.4707 O   0  0  0  0  0  0  0  0  0  0  0  0
   19.9649  -20.8406  -10.3540 C   0  0  0  0  0  0  0  0  0  0  0  0
   16.6902  -25.9228  -12.5223 S   0  0  0  0  0  0  0  0  0  0  0  0
   16.9298  -26.4834  -10.8134 C   0  0  0  0  0  0  0  0  0  0  0  0
   17.3366  -25.0432   -9.7452 C   0  0  0  0  0  0  0  0  0  0  0  0
   18.6358  -24.5094  -10.2513 C   0  0  1  0  0  0  0  0  0  0  0  0
   19.1634  -23.3068   -9.5038 N   0  0  0  0  0  0  0  0  0  0  0  0
   20.4785  -23.0384  -10.1015 C   0  0  0  0  0  0  0  0  0  0  0  0
   19.2847  -23.6251   -8.0807 O   0  0  0  0  0  0  0  0  0  0  0  0
   18.2518  -23.6262   -7.1712 O   0  0  0  0  0  0  0  0  0  0  0  0
  2  1  1  0
  3  2  2  0
  4  2  1  0
  5  4  1  0
  6  5  1  0
  7  6  1  0
  8  7  1  0
  8  9  1  1
 10  8  1  0
 10 11  2  0
 13 15  1  0
 13 12  1  6
 14 13  1  0
 16 15  1  6
 16 17  1  0
 16 18  1  0
 17 10  1  0
 18 19  2  0
 18 25  1  0
 20 21  1  0
 21 22  1  0
 22 23  1  0
 24 23  1  6
 24 26  1  0
 25 24  1  0
 26 28  2  0
 26 27  1  0
M  END
$$$$
