RLM.pdb
     RDKit          3D

 28 27  0  0  1  0  0  0  0  0999 V2000
   17.4463  -24.4683   -9.8998 N   0  0  0  0  0  0  0  0  0  0  0  0
   17.1222  -23.2720  -10.5924 C   0  0  0  0  0  0  0  0  0  0  0  0
   15.8744  -22.9721  -10.8318 N   0  0  0  0  0  0  0  0  0  0  0  0
   18.0804  -22.3395  -11.0635 N   0  0  0  0  0  0  0  0  0  0  0  0
   19.5110  -22.5586  -11.0454 C   0  0  0  0  0  0  0  0  0  0  0  0
   20.0572  -22.0656   -9.7007 C   0  0  0  0  0  0  0  0  0  0  0  0
   21.1816  -21.0682   -9.9130 C   0  0  0  0  0  0  0  0  0  0  0  0
   22.2023  -21.7585  -10.7891 C   0  0  2  0  0  0  0  0  0  0  0  0
   22.5587  -22.9946  -10.0813 N   0  0  0  0  0  0  0  0  0  0  0  0
   23.4147  -20.9415  -11.0267 C   0  0  0  0  0  0  0  0  0  0  0  0
   23.2879  -19.7963  -11.5398 O   0  0  0  0  0  0  0  0  0  0  0  0
   15.6230  -22.1224  -11.3837 C   0  0  0  0  0  0  0  0  0  0  0  0
   26.3272  -18.7310   -8.6613 C   0  0  2  0  0  0  0  0  0  0  0  0
   26.4413  -20.2538   -8.5040 C   0  0  0  0  0  0  0  0  0  0  0  0
   27.3841  -20.5086   -7.3807 C   0  0  0  0  0  0  0  0  0  0  0  0
   26.8859  -20.7800   -9.8449 C   0  0  2  0  0  0  0  0  0  0  0  0
   25.9173  -20.5614  -10.9564 N   0  0  0  0  0  0  0  0  0  0  0  0
   24.7240  -21.3757  -10.7084 C   0  0  0  0  0  0  0  0  0  0  0  0
   26.3720  -20.7936  -12.3086 O   0  0  0  0  0  0  0  0  0  0  0  0
   27.1604  -21.7498  -12.5430 C   0  0  0  0  0  0  0  0  0  0  0  0
   25.2564  -25.0950  -14.6734 S   0  0  0  0  0  0  0  0  0  0  0  0
   24.3568  -24.0686  -15.8688 C   0  0  0  0  0  0  0  0  0  0  0  0
   25.2794  -22.5037  -16.1527 C   0  0  0  0  0  0  0  0  0  0  0  0
   25.3197  -21.8047  -14.8340 C   0  0  1  0  0  0  0  0  0  0  0  0
   26.1544  -20.5454  -14.8073 N   0  0  0  0  0  0  0  0  0  0  0  0
   25.9991  -20.0188  -13.4444 C   0  0  0  0  0  0  0  0  0  0  0  0
   25.6487  -19.5976  -15.8008 O   0  0  0  0  0  0  0  0  0  0  0  0
   26.0456  -19.5317  -17.1169 O   0  0  0  0  0  0  0  0  0  0  0  0
  2  1  1  0
  3  2  2  0
  4  2  1  0
  5  4  1  0
  6  5  1  0
  7  6  1  0
  8  7  1  0
  8  9  1  1
 10  8  1  0
 10 11  2  0
 13 15  1  0
 13 12  1  1
 14 13  1  0
 16 15  1  1
 16 17  1  0
 16 18  1  0
 17 10  1  0
 18 19  2  0
 18 25  1  0
 20 21  1  0
 21 22  1  0
 22 23  1  0
 24 23  1  1
 24 26  1  0
 25 24  1  0
 26 28  2  0
 26 27  1  0
M  END
$$$$
