RLM.pdb
     RDKit          3D

 28 27  0  0  1  0  0  0  0  0999 V2000
   20.6956  -24.6524  -19.2697 N   0  0  0  0  0  0  0  0  0  0  0  0
   21.7072  -24.6416  -20.2658 C   0  0  0  0  0  0  0  0  0  0  0  0
   21.3864  -24.4935  -21.5225 N   0  0  0  0  0  0  0  0  0  0  0  0
   23.0918  -24.7837  -19.9968 N   0  0  0  0  0  0  0  0  0  0  0  0
   23.6610  -24.8730  -18.6691 C   0  0  0  0  0  0  0  0  0  0  0  0
   23.2337  -23.6324  -17.8768 C   0  0  0  0  0  0  0  0  0  0  0  0
   23.7584  -23.6989  -16.4540 C   0  0  0  0  0  0  0  0  0  0  0  0
   25.2264  -23.3444  -16.5255 C   0  0  2  0  0  0  0  0  0  0  0  0
   25.9162  -24.5893  -16.8864 N   0  0  0  0  0  0  0  0  0  0  0  0
   25.7622  -22.8185  -15.2486 C   0  0  0  0  0  0  0  0  0  0  0  0
   26.1774  -23.6329  -14.3796 O   0  0  0  0  0  0  0  0  0  0  0  0
   22.1163  -24.5139  -22.2687 C   0  0  0  0  0  0  0  0  0  0  0  0
   29.0841  -20.0877  -14.3990 C   0  0  2  0  0  0  0  0  0  0  0  0
   27.8399  -19.3402  -14.8990 C   0  0  0  0  0  0  0  0  0  0  0  0
   28.2461  -17.9294  -15.1452 C   0  0  0  0  0  0  0  0  0  0  0  0
   26.7858  -19.5270  -13.8377 C   0  0  2  0  0  0  0  0  0  0  0  0
   26.3224  -20.9317  -13.6552 N   0  0  0  0  0  0  0  0  0  0  0  0
   25.8364  -21.4384  -14.9420 C   0  0  0  0  0  0  0  0  0  0  0  0
   25.3255  -21.1914  -12.6413 O   0  0  0  0  0  0  0  0  0  0  0  0
   24.2111  -21.6780  -12.9763 C   0  0  0  0  0  0  0  0  0  0  0  0
   26.8334  -18.4459   -7.5404 S   0  0  0  0  0  0  0  0  0  0  0  0
   26.3238  -20.0528   -6.8696 C   0  0  0  0  0  0  0  0  0  0  0  0
   25.7709  -21.1446   -8.2418 C   0  0  0  0  0  0  0  0  0  0  0  0
   24.8298  -20.3277   -9.0641 C   0  0  2  0  0  0  0  0  0  0  0  0
   24.3437  -20.9980  -10.3281 N   0  0  0  0  0  0  0  0  0  0  0  0
   25.4882  -20.9436  -11.2479 C   0  0  0  0  0  0  0  0  0  0  0  0
   23.1980  -20.2639  -10.8661 O   0  0  0  0  0  0  0  0  0  0  0  0
   21.8758  -20.5933  -10.6732 O   0  0  0  0  0  0  0  0  0  0  0  0
  2  1  1  0
  3  2  2  0
  4  2  1  0
  5  4  1  0
  6  5  1  0
  7  6  1  0
  8  7  1  0
  8  9  1  1
 10  8  1  0
 10 11  2  0
 13 15  1  0
 13 12  1  6
 14 13  1  0
 16 15  1  6
 16 17  1  0
 16 18  1  0
 17 10  1  0
 18 19  2  0
 18 25  1  0
 20 21  1  0
 21 22  1  0
 22 23  1  0
 24 23  1  1
 24 26  1  0
 25 24  1  0
 26 28  2  0
 26 27  1  0
M  END
$$$$
