RLM.pdb
     RDKit          3D

 28 27  0  0  1  0  0  0  0  0999 V2000
   16.9791  -13.8452  -22.4183 N   0  0  0  0  0  0  0  0  0  0  0  0
   17.3670  -14.8841  -21.5317 C   0  0  0  0  0  0  0  0  0  0  0  0
   16.5659  -15.8916  -21.3139 N   0  0  0  0  0  0  0  0  0  0  0  0
   18.6020  -14.9185  -20.8364 N   0  0  0  0  0  0  0  0  0  0  0  0
   19.6438  -13.9232  -20.9724 C   0  0  0  0  0  0  0  0  0  0  0  0
   20.8457  -14.3651  -20.1299 C   0  0  0  0  0  0  0  0  0  0  0  0
   21.9688  -13.3484  -20.2249 C   0  0  0  0  0  0  0  0  0  0  0  0
   23.1055  -13.8915  -19.3891 C   0  0  2  0  0  0  0  0  0  0  0  0
   22.7491  -15.2854  -19.0959 N   0  0  0  0  0  0  0  0  0  0  0  0
   23.3108  -13.1435  -18.1273 C   0  0  0  0  0  0  0  0  0  0  0  0
   22.7868  -13.5807  -17.0666 O   0  0  0  0  0  0  0  0  0  0  0  0
   16.8434  -16.6697  -20.6757 C   0  0  0  0  0  0  0  0  0  0  0  0
   27.4227   -9.3413  -15.7747 C   0  0  1  0  0  0  0  0  0  0  0  0
   26.0018   -9.8721  -15.5381 C   0  0  0  0  0  0  0  0  0  0  0  0
   26.0100  -10.5762  -14.2266 C   0  0  0  0  0  0  0  0  0  0  0  0
   25.6762  -10.7386  -16.7279 C   0  0  2  0  0  0  0  0  0  0  0  0
   24.2670  -11.2207  -16.7852 N   0  0  0  0  0  0  0  0  0  0  0  0
   24.0698  -11.9516  -18.0404 C   0  0  0  0  0  0  0  0  0  0  0  0
   23.2097  -10.2464  -16.6376 O   0  0  0  0  0  0  0  0  0  0  0  0
   22.9135   -9.4993  -17.6099 C   0  0  0  0  0  0  0  0  0  0  0  0
   18.9272   -9.7343  -11.4313 S   0  0  0  0  0  0  0  0  0  0  0  0
   18.0840   -9.6657  -13.0364 C   0  0  0  0  0  0  0  0  0  0  0  0
   19.1350   -8.7626  -14.2450 C   0  0  0  0  0  0  0  0  0  0  0  0
   20.3316   -9.6253  -14.4752 C   0  0  1  0  0  0  0  0  0  0  0  0
   21.3633   -9.0441  -15.4138 N   0  0  0  0  0  0  0  0  0  0  0  0
   22.4398  -10.0431  -15.4563 C   0  0  0  0  0  0  0  0  0  0  0  0
   21.8470   -7.7681  -14.8856 O   0  0  0  0  0  0  0  0  0  0  0  0
   22.2672   -7.5456  -13.5941 O   0  0  0  0  0  0  0  0  0  0  0  0
  2  1  1  0
  3  2  2  0
  4  2  1  0
  5  4  1  0
  6  5  1  0
  7  6  1  0
  8  7  1  0
  8  9  1  1
 10  8  1  0
 10 11  2  0
 13 15  1  0
 13 12  1  1
 14 13  1  0
 16 15  1  1
 16 17  1  0
 16 18  1  0
 17 10  1  0
 18 19  2  0
 18 25  1  0
 20 21  1  0
 21 22  1  0
 22 23  1  0
 24 23  1  6
 24 26  1  0
 25 24  1  0
 26 28  2  0
 26 27  1  0
M  END
$$$$
