HAV.pdb
     RDKit          3D

 23 23  0  0  1  0  0  0  0  0999 V2000
    8.0759  -16.4932   19.7235 N   0  0  0  0  0  0  0  0  0  0  0  0
    7.9657  -15.1874   20.3040 C   0  0  1  0  0  0  0  0  0  0  0  0
    7.1011  -14.3398   19.4324 C   0  0  0  0  0  0  0  0  0  0  0  0
    7.7266  -14.2344   18.0872 C   0  0  0  0  0  0  0  0  0  0  0  0
    8.9907  -14.6381   17.6810 C   0  0  0  0  0  0  0  0  0  0  0  0
    9.1843  -14.3711   16.3861 N   0  0  0  0  0  0  0  0  0  0  0  0
    8.0474  -13.7915   15.9401 C   0  0  0  0  0  0  0  0  0  0  0  0
    7.1676  -13.7068   16.9588 N   0  0  0  0  0  0  0  0  0  0  0  0
    7.4357  -15.2324   21.6961 C   0  0  0  0  0  0  0  0  0  0  0  0
    6.6827  -14.3388   22.1574 O   0  0  0  0  0  0  0  0  0  0  0  0
    7.4437  -17.8327   24.4466 C   0  0  0  0  0  0  0  0  0  0  0  0
    7.3571  -16.4293   23.9114 C   0  0  2  0  0  0  0  0  0  0  0  0
    7.7685  -16.2978   22.5535 N   0  0  0  0  0  0  0  0  0  0  0  0
    8.0499  -15.4498   24.7709 C   0  0  0  0  0  0  0  0  0  0  0  0
    9.2627  -15.2195   24.5619 O   0  0  0  0  0  0  0  0  0  0  0  0
    5.9724  -12.8584   27.3822 C   0  0  0  0  0  0  0  0  0  0  0  0
    7.3457  -12.5741   26.7773 C   0  0  2  0  0  0  0  0  0  0  0  0
    7.2232  -11.8954   25.4524 C   0  0  0  0  0  0  0  0  0  0  0  0
    8.1474  -13.8674   26.6700 C   0  0  2  0  0  0  0  0  0  0  0  0
    7.3996  -14.7589   25.8231 N   0  0  0  0  0  0  0  0  0  0  0  0
    8.3235  -14.4938   27.9930 C   0  0  0  0  0  0  0  0  0  0  0  0
    7.7233  -15.7069   28.2994 O   0  0  0  0  0  0  0  0  0  0  0  0
    9.0212  -13.9468   28.8783 O   0  0  0  0  0  0  0  0  0  0  0  0
  2  1  1  6
  2  9  1  0
  2  3  1  0
  3  4  1  0
  4  5  2  0
  6  5  1  0
  7  6  1  0
  8  7  2  0
  8  4  1  0
  9 13  1  0
 10  9  2  0
 12 11  1  1
 12 14  1  0
 13 12  1  0
 14 15  2  0
 14 20  1  0
 17 16  1  6
 18 17  1  0
 19 21  1  0
 19 17  1  0
 19 20  1  6
 21 22  1  0
 23 21  2  0
M  END
$$$$
