HAV.pdb
     RDKit          3D

 23 23  0  0  1  0  0  0  0  0999 V2000
   10.9126  -15.2415   15.6340 N   0  0  0  0  0  0  0  0  0  0  0  0
    9.7150  -15.4052   16.4040 C   0  0  1  0  0  0  0  0  0  0  0  0
    9.5199  -16.8550   16.6964 C   0  0  0  0  0  0  0  0  0  0  0  0
    8.6330  -17.4427   15.6571 C   0  0  0  0  0  0  0  0  0  0  0  0
    7.7343  -16.8017   14.8161 C   0  0  0  0  0  0  0  0  0  0  0  0
    7.1203  -17.6782   14.0160 N   0  0  0  0  0  0  0  0  0  0  0  0
    7.6150  -18.8964   14.3306 C   0  0  0  0  0  0  0  0  0  0  0  0
    8.5250  -18.7604   15.3168 N   0  0  0  0  0  0  0  0  0  0  0  0
    9.7409  -14.6077   17.6627 C   0  0  0  0  0  0  0  0  0  0  0  0
   10.7931  -14.4356   18.3273 O   0  0  0  0  0  0  0  0  0  0  0  0
    7.1570  -12.4697   19.4538 C   0  0  0  0  0  0  0  0  0  0  0  0
    8.4792  -13.1717   19.3035 C   0  0  2  0  0  0  0  0  0  0  0  0
    8.5652  -14.0113   18.1553 N   0  0  0  0  0  0  0  0  0  0  0  0
    8.8767  -13.9017   20.5231 C   0  0  0  0  0  0  0  0  0  0  0  0
    9.0020  -13.2617   21.5919 O   0  0  0  0  0  0  0  0  0  0  0  0
   10.1446  -18.0149   20.5406 C   0  0  0  0  0  0  0  0  0  0  0  0
    9.1481  -17.4533   21.5527 C   0  0  2  0  0  0  0  0  0  0  0  0
    7.7401  -17.7008   21.1200 C   0  0  0  0  0  0  0  0  0  0  0  0
    9.4107  -15.9673   21.7753 C   0  0  2  0  0  0  0  0  0  0  0  0
    9.1224  -15.2969   20.5348 N   0  0  0  0  0  0  0  0  0  0  0  0
   10.8192  -15.7258   22.1377 C   0  0  0  0  0  0  0  0  0  0  0  0
   11.2987  -16.0338   23.4030 O   0  0  0  0  0  0  0  0  0  0  0  0
   11.6232  -15.2349   21.3116 O   0  0  0  0  0  0  0  0  0  0  0  0
  2  1  1  1
  2  9  1  0
  2  3  1  0
  3  4  1  0
  4  5  2  0
  6  5  1  0
  7  6  1  0
  8  7  2  0
  8  4  1  0
  9 13  1  0
 10  9  2  0
 12 11  1  1
 12 14  1  0
 13 12  1  0
 14 15  2  0
 14 20  1  0
 17 16  1  6
 18 17  1  0
 19 21  1  0
 19 17  1  0
 19 20  1  6
 21 22  1  0
 23 21  2  0
M  END
$$$$
