HAV.pdb
     RDKit          3D

 23 23  0  0  1  0  0  0  0  0999 V2000
   10.2846  -16.6014   19.1262 N   0  0  0  0  0  0  0  0  0  0  0  0
   10.7265  -16.0046   20.3521 C   0  0  1  0  0  0  0  0  0  0  0  0
   11.1865  -14.6126   20.0765 C   0  0  0  0  0  0  0  0  0  0  0  0
   12.6110  -14.6497   19.6503 C   0  0  0  0  0  0  0  0  0  0  0  0
   13.6026  -15.5530   20.0061 C   0  0  0  0  0  0  0  0  0  0  0  0
   14.7604  -15.2499   19.4119 N   0  0  0  0  0  0  0  0  0  0  0  0
   14.5306  -14.1468   18.6648 C   0  0  0  0  0  0  0  0  0  0  0  0
   13.2398  -13.7818   18.8046 N   0  0  0  0  0  0  0  0  0  0  0  0
    9.6660  -16.0167   21.3990 C   0  0  0  0  0  0  0  0  0  0  0  0
    8.5485  -15.4682   21.2296 O   0  0  0  0  0  0  0  0  0  0  0  0
    8.9842  -18.0676   24.4320 C   0  0  0  0  0  0  0  0  0  0  0  0
    8.9440  -16.7557   23.6967 C   0  0  2  0  0  0  0  0  0  0  0  0
    9.8876  -16.6552   22.6336 N   0  0  0  0  0  0  0  0  0  0  0  0
    9.0416  -15.5940   24.6017 C   0  0  0  0  0  0  0  0  0  0  0  0
   10.1549  -15.0408   24.7507 O   0  0  0  0  0  0  0  0  0  0  0  0
    6.3084  -12.7374   24.8554 C   0  0  0  0  0  0  0  0  0  0  0  0
    6.7222  -13.2417   26.2364 C   0  0  2  0  0  0  0  0  0  0  0  0
    6.7250  -12.1339   27.2383 C   0  0  0  0  0  0  0  0  0  0  0  0
    8.0832  -13.9258   26.1568 C   0  0  2  0  0  0  0  0  0  0  0  0
    7.9277  -15.0784   25.3092 N   0  0  0  0  0  0  0  0  0  0  0  0
    8.5350  -14.3651   27.4897 C   0  0  0  0  0  0  0  0  0  0  0  0
    8.5311  -15.7068   27.8438 O   0  0  0  0  0  0  0  0  0  0  0  0
    8.9355  -13.5372   28.3406 O   0  0  0  0  0  0  0  0  0  0  0  0
  2  1  1  6
  2  9  1  0
  2  3  1  0
  3  4  1  0
  4  5  2  0
  6  5  1  0
  7  6  1  0
  8  7  2  0
  8  4  1  0
  9 13  1  0
 10  9  2  0
 12 11  1  1
 12 14  1  0
 13 12  1  0
 14 15  2  0
 14 20  1  0
 17 16  1  6
 18 17  1  0
 19 21  1  0
 19 17  1  0
 19 20  1  6
 21 22  1  0
 23 21  2  0
M  END
$$$$
