HAV.pdb
     RDKit          3D

 23 23  0  0  1  0  0  0  0  0999 V2000
    8.4714  -16.6686   18.7219 N   0  0  0  0  0  0  0  0  0  0  0  0
    8.2100  -15.5869   19.6252 C   0  0  1  0  0  0  0  0  0  0  0  0
    7.1141  -14.7424   19.0674 C   0  0  0  0  0  0  0  0  0  0  0  0
    7.5569  -14.1731   17.7667 C   0  0  0  0  0  0  0  0  0  0  0  0
    8.3341  -13.0483   17.5282 C   0  0  0  0  0  0  0  0  0  0  0  0
    8.5158  -12.8623   16.2176 N   0  0  0  0  0  0  0  0  0  0  0  0
    7.8580  -13.8649   15.5933 C   0  0  0  0  0  0  0  0  0  0  0  0
    7.2797  -14.6559   16.5201 N   0  0  0  0  0  0  0  0  0  0  0  0
    7.8678  -16.0662   20.9941 C   0  0  0  0  0  0  0  0  0  0  0  0
    6.7676  -16.6116   21.2593 O   0  0  0  0  0  0  0  0  0  0  0  0
    9.2131  -17.6210   23.7751 C   0  0  0  0  0  0  0  0  0  0  0  0
    8.5617  -16.3170   23.4029 C   0  0  2  0  0  0  0  0  0  0  0  0
    8.7839  -15.9199   22.0525 N   0  0  0  0  0  0  0  0  0  0  0  0
    8.9001  -15.2258   24.3372 C   0  0  0  0  0  0  0  0  0  0  0  0
   10.0031  -14.6470   24.2103 O   0  0  0  0  0  0  0  0  0  0  0  0
    7.6313  -11.5319   27.1411 C   0  0  0  0  0  0  0  0  0  0  0  0
    7.2693  -12.7279   26.2628 C   0  0  2  0  0  0  0  0  0  0  0  0
    5.9928  -13.3612   26.7107 C   0  0  0  0  0  0  0  0  0  0  0  0
    8.4166  -13.7331   26.2498 C   0  0  2  0  0  0  0  0  0  0  0  0
    8.0285  -14.8057   25.3721 N   0  0  0  0  0  0  0  0  0  0  0  0
    8.6602  -14.2777   27.5980 C   0  0  0  0  0  0  0  0  0  0  0  0
    9.2868  -13.5196   28.5770 O   0  0  0  0  0  0  0  0  0  0  0  0
    8.3074  -15.4421   27.8971 O   0  0  0  0  0  0  0  0  0  0  0  0
  2  1  1  6
  2  9  1  0
  2  3  1  0
  3  4  1  0
  4  5  2  0
  6  5  1  0
  7  6  1  0
  8  7  2  0
  8  4  1  0
  9 13  1  0
 10  9  2  0
 12 11  1  1
 12 14  1  0
 13 12  1  0
 14 15  2  0
 14 20  1  0
 17 16  1  1
 18 17  1  0
 19 21  1  0
 19 17  1  0
 19 20  1  6
 21 22  1  0
 23 21  2  0
M  END
$$$$
