HAV.pdb
     RDKit          3D

 23 23  0  0  1  0  0  0  0  0999 V2000
    7.9419  -16.6604   19.8718 N   0  0  0  0  0  0  0  0  0  0  0  0
    8.1081  -15.5156   20.7179 C   0  0  1  0  0  0  0  0  0  0  0  0
    7.1847  -14.4363   20.2618 C   0  0  0  0  0  0  0  0  0  0  0  0
    7.5614  -14.0291   18.8818 C   0  0  0  0  0  0  0  0  0  0  0  0
    8.2343  -12.8897   18.4637 C   0  0  0  0  0  0  0  0  0  0  0  0
    8.3845  -12.8839   17.1359 N   0  0  0  0  0  0  0  0  0  0  0  0
    7.8103  -14.0197   16.6802 C   0  0  0  0  0  0  0  0  0  0  0  0
    7.3138  -14.7120   17.7258 N   0  0  0  0  0  0  0  0  0  0  0  0
    7.8797  -15.8388   22.1546 C   0  0  0  0  0  0  0  0  0  0  0  0
    6.7349  -15.8273   22.6720 O   0  0  0  0  0  0  0  0  0  0  0  0
    9.4934  -17.8509   24.7090 C   0  0  0  0  0  0  0  0  0  0  0  0
    8.8630  -16.5278   24.3693 C   0  0  2  0  0  0  0  0  0  0  0  0
    8.9599  -16.1733   22.9925 N   0  0  0  0  0  0  0  0  0  0  0  0
    9.3435  -15.4314   25.2325 C   0  0  0  0  0  0  0  0  0  0  0  0
   10.4703  -14.9360   25.0029 O   0  0  0  0  0  0  0  0  0  0  0  0
    6.7535  -13.3354   27.7974 C   0  0  0  0  0  0  0  0  0  0  0  0
    8.0265  -12.7643   27.1761 C   0  0  2  0  0  0  0  0  0  0  0  0
    7.7558  -12.1809   25.8280 C   0  0  0  0  0  0  0  0  0  0  0  0
    9.1053  -13.8407   27.1122 C   0  0  2  0  0  0  0  0  0  0  0  0
    8.5826  -14.9156   26.3106 N   0  0  0  0  0  0  0  0  0  0  0  0
    9.4238  -14.3534   28.4574 C   0  0  0  0  0  0  0  0  0  0  0  0
   10.1428  -13.5897   29.3660 O   0  0  0  0  0  0  0  0  0  0  0  0
    9.0532  -15.4948   28.8175 O   0  0  0  0  0  0  0  0  0  0  0  0
  2  1  1  6
  2  9  1  0
  2  3  1  0
  3  4  1  0
  4  5  2  0
  6  5  1  0
  7  6  1  0
  8  7  2  0
  8  4  1  0
  9 13  1  0
 10  9  2  0
 12 11  1  6
 12 14  1  0
 13 12  1  0
 14 15  2  0
 14 20  1  0
 17 16  1  6
 18 17  1  0
 19 21  1  0
 19 17  1  0
 19 20  1  6
 21 22  1  0
 23 21  2  0
M  END
$$$$
