HAV.pdb
     RDKit          3D

 23 23  0  0  1  0  0  0  0  0999 V2000
    7.5864  -17.1959   19.4800 N   0  0  0  0  0  0  0  0  0  0  0  0
    7.5754  -15.9605   20.2066 C   0  0  1  0  0  0  0  0  0  0  0  0
    6.7402  -14.9698   19.4675 C   0  0  0  0  0  0  0  0  0  0  0  0
    7.5322  -14.4183   18.3359 C   0  0  0  0  0  0  0  0  0  0  0  0
    8.8528  -14.6718   17.9927 C   0  0  0  0  0  0  0  0  0  0  0  0
    9.2044  -13.9814   16.9040 N   0  0  0  0  0  0  0  0  0  0  0  0
    8.1149  -13.2734   16.5306 C   0  0  0  0  0  0  0  0  0  0  0  0
    7.1067  -13.5324   17.3882 N   0  0  0  0  0  0  0  0  0  0  0  0
    7.0853  -16.1326   21.6033 C   0  0  0  0  0  0  0  0  0  0  0  0
    5.8621  -16.1969   21.8828 O   0  0  0  0  0  0  0  0  0  0  0  0
    7.7857  -17.7781   24.5720 C   0  0  0  0  0  0  0  0  0  0  0  0
    7.6464  -16.3750   24.0472 C   0  0  2  0  0  0  0  0  0  0  0  0
    7.9946  -16.2302   22.6731 N   0  0  0  0  0  0  0  0  0  0  0  0
    8.3561  -15.3841   24.8795 C   0  0  0  0  0  0  0  0  0  0  0  0
    9.5669  -15.1634   24.6492 O   0  0  0  0  0  0  0  0  0  0  0  0
    6.2363  -12.8730   27.5271 C   0  0  0  0  0  0  0  0  0  0  0  0
    7.5001  -12.4550   26.7781 C   0  0  2  0  0  0  0  0  0  0  0  0
    7.1691  -11.8602   25.4486 C   0  0  0  0  0  0  0  0  0  0  0  0
    8.4426  -13.6461   26.6379 C   0  0  2  0  0  0  0  0  0  0  0  0
    7.7243  -14.6719   25.9287 N   0  0  0  0  0  0  0  0  0  0  0  0
    8.8437  -14.1638   27.9587 C   0  0  0  0  0  0  0  0  0  0  0  0
    9.6984  -13.4455   28.7830 O   0  0  0  0  0  0  0  0  0  0  0  0
    8.4229  -15.2685   28.3738 O   0  0  0  0  0  0  0  0  0  0  0  0
  2  1  1  6
  2  9  1  0
  2  3  1  0
  3  4  1  0
  4  5  2  0
  6  5  1  0
  7  6  1  0
  8  7  2  0
  8  4  1  0
  9 13  1  0
 10  9  2  0
 12 11  1  1
 12 14  1  0
 13 12  1  0
 14 15  2  0
 14 20  1  0
 17 16  1  6
 18 17  1  0
 19 21  1  0
 19 17  1  0
 19 20  1  6
 21 22  1  0
 23 21  2  0
M  END
$$$$
