HAV.pdb
     RDKit          3D

 23 23  0  0  1  0  0  0  0  0999 V2000
    9.9799  -14.8373   21.3902 N   0  0  0  0  0  0  0  0  0  0  0  0
    8.9886  -14.4291   22.3415 C   0  0  1  0  0  0  0  0  0  0  0  0
    7.6544  -14.9260   21.8961 C   0  0  0  0  0  0  0  0  0  0  0  0
    7.3471  -14.3530   20.5585 C   0  0  0  0  0  0  0  0  0  0  0  0
    7.5675  -13.0648   20.0919 C   0  0  0  0  0  0  0  0  0  0  0  0
    7.1527  -12.9368   18.8282 N   0  0  0  0  0  0  0  0  0  0  0  0
    6.6591  -14.1413   18.4630 C   0  0  0  0  0  0  0  0  0  0  0  0
    6.7736  -14.9964   19.4997 N   0  0  0  0  0  0  0  0  0  0  0  0
    9.3003  -14.9043   23.7191 C   0  0  0  0  0  0  0  0  0  0  0  0
    9.8812  -15.9966   23.9376 O   0  0  0  0  0  0  0  0  0  0  0  0
    8.7726  -13.4192   27.1871 C   0  0  0  0  0  0  0  0  0  0  0  0
    9.3163  -14.4041   26.1882 C   0  0  2  0  0  0  0  0  0  0  0  0
    8.9468  -14.1294   24.8396 N   0  0  0  0  0  0  0  0  0  0  0  0
    9.0106  -15.8030   26.5455 C   0  0  0  0  0  0  0  0  0  0  0  0
    7.8324  -16.2096   26.4261 O   0  0  0  0  0  0  0  0  0  0  0  0
   11.7640  -18.8365   26.4960 C   0  0  0  0  0  0  0  0  0  0  0  0
   10.2484  -19.0239   26.5202 C   0  0  2  0  0  0  0  0  0  0  0  0
    9.6686  -18.9200   25.1475 C   0  0  0  0  0  0  0  0  0  0  0  0
    9.6123  -18.0163   27.4725 C   0  0  2  0  0  0  0  0  0  0  0  0
    9.9952  -16.7056   27.0181 N   0  0  0  0  0  0  0  0  0  0  0  0
   10.0979  -18.2095   28.8511 C   0  0  0  0  0  0  0  0  0  0  0  0
    9.7255  -19.3200   29.5953 O   0  0  0  0  0  0  0  0  0  0  0  0
   10.8616  -17.3747   29.3892 O   0  0  0  0  0  0  0  0  0  0  0  0
  2  1  1  6
  2  9  1  0
  2  3  1  0
  3  4  1  0
  4  5  2  0
  6  5  1  0
  7  6  1  0
  8  7  2  0
  8  4  1  0
  9 13  1  0
 10  9  2  0
 12 11  1  1
 12 14  1  0
 13 12  1  0
 14 15  2  0
 14 20  1  0
 17 16  1  6
 18 17  1  0
 19 21  1  0
 19 17  1  0
 19 20  1  6
 21 22  1  0
 23 21  2  0
M  END
$$$$
