HAV.pdb
     RDKit          3D

 23 23  0  0  1  0  0  0  0  0999 V2000
    7.3569  -18.3323   19.6761 N   0  0  0  0  0  0  0  0  0  0  0  0
    8.1540  -17.4261   20.4492 C   0  0  1  0  0  0  0  0  0  0  0  0
    8.5974  -16.3018   19.5746 C   0  0  0  0  0  0  0  0  0  0  0  0
    9.7100  -16.7737   18.7076 C   0  0  0  0  0  0  0  0  0  0  0  0
    9.6483  -17.3264   17.4361 C   0  0  0  0  0  0  0  0  0  0  0  0
   10.8702  -17.6247   16.9852 N   0  0  0  0  0  0  0  0  0  0  0  0
   11.7362  -17.2683   17.9602 C   0  0  0  0  0  0  0  0  0  0  0  0
   11.0439  -16.7560   18.9981 N   0  0  0  0  0  0  0  0  0  0  0  0
    7.4261  -16.9146   21.6447 C   0  0  0  0  0  0  0  0  0  0  0  0
    6.3544  -16.2657   21.5519 O   0  0  0  0  0  0  0  0  0  0  0  0
    6.9746  -17.9151   25.0726 C   0  0  0  0  0  0  0  0  0  0  0  0
    7.2896  -16.7646   24.1557 C   0  0  2  0  0  0  0  0  0  0  0  0
    7.9263  -17.1469   22.9396 N   0  0  0  0  0  0  0  0  0  0  0  0
    8.0422  -15.6896   24.8311 C   0  0  0  0  0  0  0  0  0  0  0  0
    9.2887  -15.6650   24.7152 O   0  0  0  0  0  0  0  0  0  0  0  0
    6.0960  -12.6743   27.1542 C   0  0  0  0  0  0  0  0  0  0  0  0
    7.3977  -12.4329   26.3926 C   0  0  2  0  0  0  0  0  0  0  0  0
    7.1329  -11.8786   25.0311 C   0  0  0  0  0  0  0  0  0  0  0  0
    8.2089  -13.7227   26.3222 C   0  0  2  0  0  0  0  0  0  0  0  0
    7.4129  -14.6838   25.6055 N   0  0  0  0  0  0  0  0  0  0  0  0
    8.4949  -14.2439   27.6714 C   0  0  0  0  0  0  0  0  0  0  0  0
    9.3800  -13.5943   28.5201 O   0  0  0  0  0  0  0  0  0  0  0  0
    7.9455  -15.2896   28.0891 O   0  0  0  0  0  0  0  0  0  0  0  0
  2  1  1  6
  2  9  1  0
  2  3  1  0
  3  4  1  0
  4  5  2  0
  6  5  1  0
  7  6  1  0
  8  7  2  0
  8  4  1  0
  9 13  1  0
 10  9  2  0
 12 11  1  1
 12 14  1  0
 13 12  1  0
 14 15  2  0
 14 20  1  0
 17 16  1  6
 18 17  1  0
 19 21  1  0
 19 17  1  0
 19 20  1  6
 21 22  1  0
 23 21  2  0
M  END
$$$$
