HAV.pdb
     RDKit          3D

 23 23  0  0  1  0  0  0  0  0999 V2000
    7.5019  -17.0452   19.5273 N   0  0  0  0  0  0  0  0  0  0  0  0
    7.6153  -15.7961   20.2210 C   0  0  1  0  0  0  0  0  0  0  0  0
    6.8276  -14.7613   19.4899 C   0  0  0  0  0  0  0  0  0  0  0  0
    7.5452  -14.4032   18.2374 C   0  0  0  0  0  0  0  0  0  0  0  0
    8.7677  -14.8664   17.7718 C   0  0  0  0  0  0  0  0  0  0  0  0
    9.0763  -14.3046   16.5993 N   0  0  0  0  0  0  0  0  0  0  0  0
    8.0565  -13.4715   16.2933 C   0  0  0  0  0  0  0  0  0  0  0  0
    7.1332  -13.5270   17.2748 N   0  0  0  0  0  0  0  0  0  0  0  0
    7.1722  -15.8974   21.6402 C   0  0  0  0  0  0  0  0  0  0  0  0
    5.9637  -15.8167   21.9740 O   0  0  0  0  0  0  0  0  0  0  0  0
    8.1413  -17.6575   24.5646 C   0  0  0  0  0  0  0  0  0  0  0  0
    7.8037  -16.2854   24.0479 C   0  0  2  0  0  0  0  0  0  0  0  0
    8.1116  -16.0903   22.6703 N   0  0  0  0  0  0  0  0  0  0  0  0
    8.3807  -15.2087   24.8761 C   0  0  0  0  0  0  0  0  0  0  0  0
    9.5144  -14.7664   24.5814 O   0  0  0  0  0  0  0  0  0  0  0  0
    6.0913  -13.2254   27.8089 C   0  0  0  0  0  0  0  0  0  0  0  0
    7.2669  -12.5782   27.0795 C   0  0  2  0  0  0  0  0  0  0  0  0
    6.8156  -11.8817   25.8375 C   0  0  0  0  0  0  0  0  0  0  0  0
    8.3340  -13.6250   26.7760 C   0  0  2  0  0  0  0  0  0  0  0  0
    7.7050  -14.6543   25.9911 N   0  0  0  0  0  0  0  0  0  0  0  0
    8.8616  -14.2201   28.0175 C   0  0  0  0  0  0  0  0  0  0  0  0
    8.6558  -15.5596   28.3164 O   0  0  0  0  0  0  0  0  0  0  0  0
    9.5114  -13.5314   28.8380 O   0  0  0  0  0  0  0  0  0  0  0  0
  2  1  1  6
  2  9  1  0
  2  3  1  0
  3  4  1  0
  4  5  2  0
  6  5  1  0
  7  6  1  0
  8  7  2  0
  8  4  1  0
  9 13  1  0
 10  9  2  0
 12 11  1  1
 12 14  1  0
 13 12  1  0
 14 15  2  0
 14 20  1  0
 17 16  1  6
 18 17  1  0
 19 21  1  0
 19 17  1  0
 19 20  1  6
 21 22  1  0
 23 21  2  0
M  END
$$$$
