HAV.pdb
     RDKit          3D

 23 23  0  0  1  0  0  0  0  0999 V2000
    7.5214  -16.5904   19.4137 N   0  0  0  0  0  0  0  0  0  0  0  0
    7.9102  -15.4910   20.2470 C   0  0  1  0  0  0  0  0  0  0  0  0
    7.2013  -14.2606   19.7898 C   0  0  0  0  0  0  0  0  0  0  0  0
    7.6324  -13.9417   18.4025 C   0  0  0  0  0  0  0  0  0  0  0  0
    8.5123  -12.9603   17.9683 C   0  0  0  0  0  0  0  0  0  0  0  0
    8.6424  -12.9896   16.6388 N   0  0  0  0  0  0  0  0  0  0  0  0
    7.8479  -13.9906   16.1978 C   0  0  0  0  0  0  0  0  0  0  0  0
    7.2383  -14.5664   17.2542 N   0  0  0  0  0  0  0  0  0  0  0  0
    7.6419  -15.7545   21.6890 C   0  0  0  0  0  0  0  0  0  0  0  0
    6.5299  -15.5113   22.2207 O   0  0  0  0  0  0  0  0  0  0  0  0
    9.1484  -17.9254   24.2852 C   0  0  0  0  0  0  0  0  0  0  0  0
    8.4941  -16.6288   23.8926 C   0  0  2  0  0  0  0  0  0  0  0  0
    8.6450  -16.2942   22.5157 N   0  0  0  0  0  0  0  0  0  0  0  0
    8.8989  -15.5035   24.7574 C   0  0  0  0  0  0  0  0  0  0  0  0
    9.9783  -14.9174   24.5144 O   0  0  0  0  0  0  0  0  0  0  0  0
    7.8292  -11.7371   27.5521 C   0  0  0  0  0  0  0  0  0  0  0  0
    7.4159  -12.9536   26.7263 C   0  0  2  0  0  0  0  0  0  0  0  0
    6.1771  -13.5834   27.2739 C   0  0  0  0  0  0  0  0  0  0  0  0
    8.5661  -13.9530   26.6562 C   0  0  2  0  0  0  0  0  0  0  0  0
    8.1167  -15.0585   25.8517 N   0  0  0  0  0  0  0  0  0  0  0  0
    8.9221  -14.4473   27.9988 C   0  0  0  0  0  0  0  0  0  0  0  0
    9.6265  -13.6539   28.8934 O   0  0  0  0  0  0  0  0  0  0  0  0
    8.5978  -15.5994   28.3694 O   0  0  0  0  0  0  0  0  0  0  0  0
  2  1  1  6
  2  9  1  0
  2  3  1  0
  3  4  1  0
  4  5  2  0
  6  5  1  0
  7  6  1  0
  8  7  2  0
  8  4  1  0
  9 13  1  0
 10  9  2  0
 12 11  1  1
 12 14  1  0
 13 12  1  0
 14 15  2  0
 14 20  1  0
 17 16  1  1
 18 17  1  0
 19 21  1  0
 19 17  1  0
 19 20  1  6
 21 22  1  0
 23 21  2  0
M  END
$$$$
