HAV.pdb
     RDKit          3D

 23 23  0  0  1  0  0  0  0  0999 V2000
    7.5098  -16.8516   19.4641 N   0  0  0  0  0  0  0  0  0  0  0  0
    7.6267  -15.6325   20.2086 C   0  0  1  0  0  0  0  0  0  0  0  0
    6.9292  -14.5418   19.4673 C   0  0  0  0  0  0  0  0  0  0  0  0
    7.6012  -14.3426   18.1555 C   0  0  0  0  0  0  0  0  0  0  0  0
    8.9556  -14.2130   17.8821 C   0  0  0  0  0  0  0  0  0  0  0  0
    9.1650  -14.0475   16.5728 N   0  0  0  0  0  0  0  0  0  0  0  0
    7.9481  -14.0682   15.9844 C   0  0  0  0  0  0  0  0  0  0  0  0
    7.0043  -14.2453   16.9315 N   0  0  0  0  0  0  0  0  0  0  0  0
    7.0888  -15.7633   21.5922 C   0  0  0  0  0  0  0  0  0  0  0  0
    6.0004  -15.2423   21.9418 O   0  0  0  0  0  0  0  0  0  0  0  0
    7.4934  -18.0969   24.4035 C   0  0  0  0  0  0  0  0  0  0  0  0
    7.3889  -16.6757   23.9211 C   0  0  2  0  0  0  0  0  0  0  0  0
    7.7969  -16.4885   22.5687 N   0  0  0  0  0  0  0  0  0  0  0  0
    8.0707  -15.7205   24.8160 C   0  0  0  0  0  0  0  0  0  0  0  0
    9.2686  -15.4352   24.5892 O   0  0  0  0  0  0  0  0  0  0  0  0
    6.4881  -12.4265   25.9498 C   0  0  0  0  0  0  0  0  0  0  0  0
    7.1085  -13.1053   27.1692 C   0  0  2  0  0  0  0  0  0  0  0  0
    7.7174  -12.1034   28.0947 C   0  0  0  0  0  0  0  0  0  0  0  0
    8.1298  -14.1472   26.7242 C   0  0  2  0  0  0  0  0  0  0  0  0
    7.4262  -15.1125   25.9215 N   0  0  0  0  0  0  0  0  0  0  0  0
    8.7302  -14.8309   27.8843 C   0  0  0  0  0  0  0  0  0  0  0  0
    9.7456  -14.2382   28.6215 O   0  0  0  0  0  0  0  0  0  0  0  0
    8.3392  -15.9679   28.2368 O   0  0  0  0  0  0  0  0  0  0  0  0
  2  1  1  6
  2  9  1  0
  2  3  1  0
  3  4  1  0
  4  5  2  0
  6  5  1  0
  7  6  1  0
  8  7  2  0
  8  4  1  0
  9 13  1  0
 10  9  2  0
 12 11  1  1
 12 14  1  0
 13 12  1  0
 14 15  2  0
 14 20  1  0
 17 16  1  6
 18 17  1  0
 19 21  1  0
 19 17  1  0
 19 20  1  6
 21 22  1  0
 23 21  2  0
M  END
$$$$
