HAV.pdb
     RDKit          3D

 23 23  0  0  1  0  0  0  0  0999 V2000
   10.3984  -16.1284   18.6478 N   0  0  0  0  0  0  0  0  0  0  0  0
   10.8896  -15.7649   19.9443 C   0  0  1  0  0  0  0  0  0  0  0  0
   11.5958  -14.4545   19.8463 C   0  0  0  0  0  0  0  0  0  0  0  0
   13.0205  -14.6983   19.4960 C   0  0  0  0  0  0  0  0  0  0  0  0
   13.7831  -15.8402   19.6968 C   0  0  0  0  0  0  0  0  0  0  0  0
   15.0283  -15.6690   19.2432 N   0  0  0  0  0  0  0  0  0  0  0  0
   15.0851  -14.4142   18.7435 C   0  0  0  0  0  0  0  0  0  0  0  0
   13.8805  -13.8260   18.8930 N   0  0  0  0  0  0  0  0  0  0  0  0
    9.8033  -15.7086   20.9630 C   0  0  0  0  0  0  0  0  0  0  0  0
    8.8113  -14.9467   20.8458 O   0  0  0  0  0  0  0  0  0  0  0  0
    8.6427  -17.9810   23.6741 C   0  0  0  0  0  0  0  0  0  0  0  0
    8.8540  -16.5982   23.1203 C   0  0  2  0  0  0  0  0  0  0  0  0
    9.8559  -16.5228   22.1098 N   0  0  0  0  0  0  0  0  0  0  0  0
    9.0908  -15.5938   24.1754 C   0  0  0  0  0  0  0  0  0  0  0  0
   10.2711  -15.2836   24.4553 O   0  0  0  0  0  0  0  0  0  0  0  0
    7.5053  -11.7595   26.7362 C   0  0  0  0  0  0  0  0  0  0  0  0
    7.1952  -12.9378   25.8152 C   0  0  2  0  0  0  0  0  0  0  0  0
    5.8857  -13.5664   26.1632 C   0  0  0  0  0  0  0  0  0  0  0  0
    8.3325  -13.9531   25.8645 C   0  0  2  0  0  0  0  0  0  0  0  0
    8.0377  -14.9656   24.8851 N   0  0  0  0  0  0  0  0  0  0  0  0
    8.4250  -14.5819   27.1949 C   0  0  0  0  0  0  0  0  0  0  0  0
    9.0648  -13.9443   28.2483 O   0  0  0  0  0  0  0  0  0  0  0  0
    7.9274  -15.7114   27.4108 O   0  0  0  0  0  0  0  0  0  0  0  0
  2  1  1  6
  2  9  1  0
  2  3  1  0
  3  4  1  0
  4  5  2  0
  6  5  1  0
  7  6  1  0
  8  7  2  0
  8  4  1  0
  9 13  1  0
 10  9  2  0
 12 11  1  1
 12 14  1  0
 13 12  1  0
 14 15  2  0
 14 20  1  0
 17 16  1  1
 18 17  1  0
 19 21  1  0
 19 17  1  0
 19 20  1  6
 21 22  1  0
 23 21  2  0
M  END
$$$$
