YGT.pdb
     RDKit          3D

 24 24  0  0  1  0  0  0  0  0999 V2000
   16.1907  -25.8204   -3.3290 O   0  0  0  0  0  0  0  0  0  0  0  0
   16.7688  -25.2610   -4.4735 C   0  0  0  0  0  0  0  0  0  0  0  0
   18.0947  -25.4458   -4.7824 C   0  0  0  0  0  0  0  0  0  0  0  0
   18.6410  -24.8778   -5.9261 C   0  0  0  0  0  0  0  0  0  0  0  0
   17.8789  -24.1085   -6.7950 C   0  0  0  0  0  0  0  0  0  0  0  0
   18.5083  -23.5456   -7.9677 C   0  0  0  0  0  0  0  0  0  0  0  0
   18.0507  -24.0063   -9.3093 C   0  0  2  0  0  0  0  0  0  0  0  0
   18.7098  -25.3197   -9.4931 N   0  0  0  0  0  0  0  0  0  0  0  0
   18.5350  -23.1601  -10.4261 C   0  0  0  0  0  0  0  0  0  0  0  0
   18.0468  -22.0083  -10.6601 O   0  0  0  0  0  0  0  0  0  0  0  0
   16.5456  -23.9398   -6.4574 C   0  0  0  0  0  0  0  0  0  0  0  0
   15.9945  -24.5010   -5.3223 C   0  0  0  0  0  0  0  0  0  0  0  0
   19.5785  -23.5799  -11.3081 N   0  0  0  0  0  0  0  0  0  0  0  0
   20.0761  -22.8337  -12.4100 C   0  0  0  0  0  0  0  0  0  0  0  0
   19.2781  -22.8501  -13.6317 C   0  0  0  0  0  0  0  0  0  0  0  0
   19.0285  -23.9921  -14.1554 O   0  0  0  0  0  0  0  0  0  0  0  0
   15.7647  -21.6012  -14.5954 C   0  0  0  0  0  0  0  0  0  0  0  0
   16.8067  -20.9964  -15.4738 C   0  0  1  0  0  0  0  0  0  0  0  0
   17.1684  -19.7508  -14.9247 O   0  0  0  0  0  0  0  0  0  0  0  0
   18.0499  -21.8532  -15.6110 C   0  0  2  0  0  0  0  0  0  0  0  0
   18.7383  -21.7532  -14.3229 N   0  0  0  0  0  0  0  0  0  0  0  0
   18.8875  -21.3720  -16.7130 C   0  0  0  0  0  0  0  0  0  0  0  0
   20.0421  -20.9340  -16.4989 O   0  0  0  0  0  0  0  0  0  0  0  0
   18.4229  -21.3903  -18.0140 O   0  0  0  0  0  0  0  0  0  0  0  0
  2  1  1  0
  3  2  2  0
  4  3  1  0
  5 11  1  0
  5  4  2  0
  6  5  1  0
  7  6  1  0
  7  8  1  6
  9 10  2  0
  9  7  1  0
 11 12  2  0
 12  2  1  0
 13  9  1  0
 14 13  1  0
 14 15  1  0
 15 16  2  0
 18 17  1  1
 18 20  1  0
 18 19  1  0
 21 15  1  0
 20 21  1  1
 22 20  1  0
 22 24  1  0
 23 22  2  0
M  END
$$$$
