YGT.pdb
     RDKit          3D

 24 24  0  0  1  0  0  0  0  0999 V2000
   28.5431  -18.9095   -3.0914 O   0  0  0  0  0  0  0  0  0  0  0  0
   28.2392  -19.3707   -4.3767 C   0  0  0  0  0  0  0  0  0  0  0  0
   27.8937  -20.6786   -4.6168 C   0  0  0  0  0  0  0  0  0  0  0  0
   27.5971  -21.1077   -5.9041 C   0  0  0  0  0  0  0  0  0  0  0  0
   27.6369  -20.2429   -6.9895 C   0  0  0  0  0  0  0  0  0  0  0  0
   27.3175  -20.7528   -8.3033 C   0  0  0  0  0  0  0  0  0  0  0  0
   26.1464  -20.1768   -9.0231 C   0  0  2  0  0  0  0  0  0  0  0  0
   24.9708  -20.8027   -8.3754 N   0  0  0  0  0  0  0  0  0  0  0  0
   26.0709  -20.5733  -10.4496 C   0  0  0  0  0  0  0  0  0  0  0  0
   25.2094  -21.4093  -10.8722 O   0  0  0  0  0  0  0  0  0  0  0  0
   27.9885  -18.9306   -6.7165 C   0  0  0  0  0  0  0  0  0  0  0  0
   28.2849  -18.4957   -5.4397 C   0  0  0  0  0  0  0  0  0  0  0  0
   26.9555  -20.0436  -11.4395 N   0  0  0  0  0  0  0  0  0  0  0  0
   26.8606  -20.2749  -12.8381 C   0  0  0  0  0  0  0  0  0  0  0  0
   26.4094  -19.1580  -13.6620 C   0  0  0  0  0  0  0  0  0  0  0  0
   26.4357  -17.9908  -13.1352 O   0  0  0  0  0  0  0  0  0  0  0  0
   28.0200  -17.3197  -15.8297 C   0  0  0  0  0  0  0  0  0  0  0  0
   26.8272  -17.7313  -16.6239 C   0  0  1  0  0  0  0  0  0  0  0  0
   27.1625  -18.8976  -17.3389 O   0  0  0  0  0  0  0  0  0  0  0  0
   25.6041  -18.0107  -15.7727 C   0  0  2  0  0  0  0  0  0  0  0  0
   25.9387  -19.1981  -14.9846 N   0  0  0  0  0  0  0  0  0  0  0  0
   24.4285  -18.2341  -16.6185 C   0  0  0  0  0  0  0  0  0  0  0  0
   23.9464  -19.3825  -16.7588 O   0  0  0  0  0  0  0  0  0  0  0  0
   23.8244  -17.1829  -17.2811 O   0  0  0  0  0  0  0  0  0  0  0  0
  2  1  1  0
  3  2  2  0
  4  3  1  0
  5 11  1  0
  5  4  2  0
  6  5  1  0
  7  6  1  0
  7  8  1  1
  9 10  2  0
  9  7  1  0
 11 12  2  0
 12  2  1  0
 13  9  1  0
 14 13  1  0
 14 15  1  0
 15 16  2  0
 18 17  1  1
 18 20  1  0
 18 19  1  0
 21 15  1  0
 20 21  1  6
 22 20  1  0
 22 24  1  0
 23 22  2  0
M  END
$$$$
