YGT.pdb
     RDKit          3D

 24 24  0  0  1  0  0  0  0  0999 V2000
   28.2346  -11.6123  -15.7474 O   0  0  0  0  0  0  0  0  0  0  0  0
   27.0015  -10.9534  -15.6971 C   0  0  0  0  0  0  0  0  0  0  0  0
   25.8115  -11.6395  -15.6715 C   0  0  0  0  0  0  0  0  0  0  0  0
   24.6023  -10.9579  -15.6215 C   0  0  0  0  0  0  0  0  0  0  0  0
   24.5462   -9.5709  -15.5957 C   0  0  0  0  0  0  0  0  0  0  0  0
   23.2556   -8.9229  -15.5440 C   0  0  0  0  0  0  0  0  0  0  0  0
   22.4680   -8.8079  -16.8041 C   0  0  2  0  0  0  0  0  0  0  0  0
   23.2303   -7.8427  -17.6291 N   0  0  0  0  0  0  0  0  0  0  0  0
   21.1299   -8.1981  -16.6158 C   0  0  0  0  0  0  0  0  0  0  0  0
   20.2299   -8.7528  -15.9072 O   0  0  0  0  0  0  0  0  0  0  0  0
   25.7621   -8.9066  -15.6225 C   0  0  0  0  0  0  0  0  0  0  0  0
   26.9687   -9.5765  -15.6722 C   0  0  0  0  0  0  0  0  0  0  0  0
   20.7652   -6.9520  -17.2136 N   0  0  0  0  0  0  0  0  0  0  0  0
   19.4885   -6.3357  -17.1206 C   0  0  0  0  0  0  0  0  0  0  0  0
   19.4512   -4.9709  -16.6054 C   0  0  0  0  0  0  0  0  0  0  0  0
   20.4083   -4.6066  -15.8361 O   0  0  0  0  0  0  0  0  0  0  0  0
   18.3352   -0.2771  -17.2237 C   0  0  0  0  0  0  0  0  0  0  0  0
   18.1026   -1.7283  -17.4744 C   0  0  1  0  0  0  0  0  0  0  0  0
   18.8084   -2.0867  -18.6393 O   0  0  0  0  0  0  0  0  0  0  0  0
   18.5550   -2.6167  -16.3322 C   0  0  2  0  0  0  0  0  0  0  0  0
   18.4807   -3.9849  -16.8474 N   0  0  0  0  0  0  0  0  0  0  0  0
   17.6927   -2.4298  -15.1621 C   0  0  0  0  0  0  0  0  0  0  0  0
   16.6013   -3.0381  -15.0642 O   0  0  0  0  0  0  0  0  0  0  0  0
   18.0637   -1.5778  -14.1396 O   0  0  0  0  0  0  0  0  0  0  0  0
  2  1  1  0
  3  2  2  0
  4  3  1  0
  5 11  1  0
  5  4  2  0
  6  5  1  0
  7  6  1  0
  7  8  1  6
  9 10  2  0
  9  7  1  0
 11 12  2  0
 12  2  1  0
 13  9  1  0
 14 13  1  0
 14 15  1  0
 15 16  2  0
 18 17  1  1
 18 20  1  0
 18 19  1  0
 21 15  1  0
 20 21  1  6
 22 20  1  0
 22 24  1  0
 23 22  2  0
M  END
$$$$
