YGT.pdb
     RDKit          3D

 24 24  0  0  1  0  0  0  0  0999 V2000
   18.9424  -18.4907  -18.8455 O   0  0  0  0  0  0  0  0  0  0  0  0
   19.9187  -18.7222  -17.8707 C   0  0  0  0  0  0  0  0  0  0  0  0
   20.8562  -17.7734  -17.5415 C   0  0  0  0  0  0  0  0  0  0  0  0
   21.8138  -18.0318  -16.5691 C   0  0  0  0  0  0  0  0  0  0  0  0
   21.8630  -19.2457  -15.8970 C   0  0  0  0  0  0  0  0  0  0  0  0
   22.8849  -19.4511  -14.8962 C   0  0  0  0  0  0  0  0  0  0  0  0
   24.2776  -19.7266  -15.3497 C   0  0  2  0  0  0  0  0  0  0  0  0
   24.2303  -21.1141  -15.8653 N   0  0  0  0  0  0  0  0  0  0  0  0
   25.2692  -19.7470  -14.2478 C   0  0  0  0  0  0  0  0  0  0  0  0
   25.4326  -18.7534  -13.4694 O   0  0  0  0  0  0  0  0  0  0  0  0
   20.9050  -20.1825  -16.2503 C   0  0  0  0  0  0  0  0  0  0  0  0
   19.9496  -19.9337  -17.2158 C   0  0  0  0  0  0  0  0  0  0  0  0
   26.1016  -20.8794  -13.9875 N   0  0  0  0  0  0  0  0  0  0  0  0
   27.0573  -20.9766  -12.9407 C   0  0  0  0  0  0  0  0  0  0  0  0
   26.5640  -21.4029  -11.6351 C   0  0  0  0  0  0  0  0  0  0  0  0
   26.2726  -22.6420  -11.4927 O   0  0  0  0  0  0  0  0  0  0  0  0
   27.8867  -20.4123   -8.0824 C   0  0  0  0  0  0  0  0  0  0  0  0
   26.4024  -20.2850   -8.1418 C   0  0  1  0  0  0  0  0  0  0  0  0
   26.0906  -18.9274   -8.3497 O   0  0  0  0  0  0  0  0  0  0  0  0
   25.7711  -21.1095   -9.2465 C   0  0  2  0  0  0  0  0  0  0  0  0
   26.3615  -20.6138  -10.4910 N   0  0  0  0  0  0  0  0  0  0  0  0
   24.3141  -20.9530   -9.2369 C   0  0  0  0  0  0  0  0  0  0  0  0
   23.7198  -20.4082  -10.1965 O   0  0  0  0  0  0  0  0  0  0  0  0
   23.5619  -21.4031   -8.1689 O   0  0  0  0  0  0  0  0  0  0  0  0
  2  1  1  0
  3  2  2  0
  4  3  1  0
  5 11  1  0
  5  4  2  0
  6  5  1  0
  7  6  1  0
  7  8  1  1
  9 10  2  0
  9  7  1  0
 11 12  2  0
 12  2  1  0
 13  9  1  0
 14 13  1  0
 14 15  1  0
 15 16  2  0
 18 17  1  6
 18 20  1  0
 18 19  1  0
 21 15  1  0
 20 21  1  6
 22 20  1  0
 22 24  1  0
 23 22  2  0
M  END
$$$$
