YGT.pdb
     RDKit          3D

 24 24  0  0  1  0  0  0  0  0999 V2000
   15.6452  -15.6329  -19.0446 O   0  0  0  0  0  0  0  0  0  0  0  0
   16.6562  -14.7695  -18.6093 C   0  0  0  0  0  0  0  0  0  0  0  0
   17.7978  -15.2347  -18.0028 C   0  0  0  0  0  0  0  0  0  0  0  0
   18.7848  -14.3532  -17.5809 C   0  0  0  0  0  0  0  0  0  0  0  0
   18.6604  -12.9811  -17.7524 C   0  0  0  0  0  0  0  0  0  0  0  0
   19.7237  -12.1183  -17.2906 C   0  0  0  0  0  0  0  0  0  0  0  0
   20.6546  -11.5368  -18.2988 C   0  0  2  0  0  0  0  0  0  0  0  0
   21.4847  -12.6818  -18.7384 N   0  0  0  0  0  0  0  0  0  0  0  0
   21.6065  -10.5520  -17.7314 C   0  0  0  0  0  0  0  0  0  0  0  0
   22.8661  -10.7282  -17.7773 O   0  0  0  0  0  0  0  0  0  0  0  0
   17.4986  -12.5419  -18.3668 C   0  0  0  0  0  0  0  0  0  0  0  0
   16.5125  -13.4114  -18.7893 C   0  0  0  0  0  0  0  0  0  0  0  0
   21.1739   -9.3447  -17.1001 N   0  0  0  0  0  0  0  0  0  0  0  0
   22.0224   -8.3913  -16.4760 C   0  0  0  0  0  0  0  0  0  0  0  0
   21.3737   -7.2582  -15.8242 C   0  0  0  0  0  0  0  0  0  0  0  0
   20.0946   -7.2709  -15.7590 O   0  0  0  0  0  0  0  0  0  0  0  0
   19.9291   -7.1562  -13.6174 C   0  0  0  0  0  0  0  0  0  0  0  0
   20.7860   -6.0083  -13.2038 C   0  0  1  0  0  0  0  0  0  0  0  0
   21.8888   -6.5226  -12.4946 O   0  0  0  0  0  0  0  0  0  0  0  0
   21.2928   -5.1841  -14.3711 C   0  0  2  0  0  0  0  0  0  0  0  0
   21.9827   -6.1311  -15.2486 N   0  0  0  0  0  0  0  0  0  0  0  0
   22.1908   -4.1253  -13.9020 C   0  0  0  0  0  0  0  0  0  0  0  0
   23.4286   -4.2064  -14.0808 O   0  0  0  0  0  0  0  0  0  0  0  0
   21.6927   -3.0128  -13.2515 O   0  0  0  0  0  0  0  0  0  0  0  0
  2  1  1  0
  3  2  2  0
  4  3  1  0
  5 11  1  0
  5  4  2  0
  6  5  1  0
  7  6  1  0
  7  8  1  1
  9 10  2  0
  9  7  1  0
 11 12  2  0
 12  2  1  0
 13  9  1  0
 14 13  1  0
 14 15  1  0
 15 16  2  0
 18 17  1  6
 18 20  1  0
 18 19  1  0
 21 15  1  0
 20 21  1  6
 22 20  1  0
 22 24  1  0
 23 22  2  0
M  END
$$$$
