YGT.pdb
     RDKit          3D

 24 24  0  0  1  0  0  0  0  0999 V2000
   27.5149  -20.0254   -6.2062 O   0  0  0  0  0  0  0  0  0  0  0  0
   27.2924  -20.1203   -7.5841 C   0  0  0  0  0  0  0  0  0  0  0  0
   26.0304  -20.0526   -8.1229 C   0  0  0  0  0  0  0  0  0  0  0  0
   25.8404  -20.1500   -9.4953 C   0  0  0  0  0  0  0  0  0  0  0  0
   26.9055  -20.3178  -10.3700 C   0  0  0  0  0  0  0  0  0  0  0  0
   26.6396  -20.4125  -11.7872 C   0  0  0  0  0  0  0  0  0  0  0  0
   25.4966  -21.2546  -12.2405 C   0  0  2  0  0  0  0  0  0  0  0  0
   25.9098  -22.6405  -11.9214 N   0  0  0  0  0  0  0  0  0  0  0  0
   25.2858  -21.2318  -13.7078 C   0  0  0  0  0  0  0  0  0  0  0  0
   24.9069  -20.1813  -14.3182 O   0  0  0  0  0  0  0  0  0  0  0  0
   28.1658  -20.3826   -9.7976 C   0  0  0  0  0  0  0  0  0  0  0  0
   28.3635  -20.2867   -8.4343 C   0  0  0  0  0  0  0  0  0  0  0  0
   25.4950  -22.3825  -14.5295 N   0  0  0  0  0  0  0  0  0  0  0  0
   25.2039  -22.4681  -15.9174 C   0  0  0  0  0  0  0  0  0  0  0  0
   23.8027  -22.6379  -16.2880 C   0  0  0  0  0  0  0  0  0  0  0  0
   23.2508  -23.7580  -16.0028 O   0  0  0  0  0  0  0  0  0  0  0  0
   20.6830  -20.2076  -15.7193 C   0  0  0  0  0  0  0  0  0  0  0  0
   20.8573  -20.6413  -17.1352 C   0  0  1  0  0  0  0  0  0  0  0  0
   21.6085  -19.6544  -17.8026 O   0  0  0  0  0  0  0  0  0  0  0  0
   21.5645  -21.9752  -17.2736 C   0  0  2  0  0  0  0  0  0  0  0  0
   22.9637  -21.7137  -16.9319 N   0  0  0  0  0  0  0  0  0  0  0  0
   21.4262  -22.4918  -18.6379 C   0  0  0  0  0  0  0  0  0  0  0  0
   22.3970  -22.4815  -19.4306 O   0  0  0  0  0  0  0  0  0  0  0  0
   20.2216  -23.0025  -19.0817 O   0  0  0  0  0  0  0  0  0  0  0  0
  2  1  1  0
  3  2  2  0
  4  3  1  0
  5 11  1  0
  5  4  2  0
  6  5  1  0
  7  6  1  0
  7  8  1  6
  9 10  2  0
  9  7  1  0
 11 12  2  0
 12  2  1  0
 13  9  1  0
 14 13  1  0
 14 15  1  0
 15 16  2  0
 18 17  1  1
 18 20  1  0
 18 19  1  0
 21 15  1  0
 20 21  1  6
 22 20  1  0
 22 24  1  0
 23 22  2  0
M  END
$$$$
