YGT.pdb
     RDKit          3D

 24 24  0  0  1  0  0  0  0  0999 V2000
   25.9149  -20.6814   -7.3137 O   0  0  0  0  0  0  0  0  0  0  0  0
   25.9568  -20.7071   -8.7118 C   0  0  0  0  0  0  0  0  0  0  0  0
   26.0537  -21.8837   -9.4144 C   0  0  0  0  0  0  0  0  0  0  0  0
   26.0932  -21.8780  -10.8028 C   0  0  0  0  0  0  0  0  0  0  0  0
   26.0372  -20.6968  -11.5302 C   0  0  0  0  0  0  0  0  0  0  0  0
   26.0831  -20.7600  -12.9731 C   0  0  0  0  0  0  0  0  0  0  0  0
   25.1189  -19.9316  -13.7511 C   0  0  2  0  0  0  0  0  0  0  0  0
   23.7866  -20.3828  -13.2876 N   0  0  0  0  0  0  0  0  0  0  0  0
   25.1436  -20.2011  -15.2087 C   0  0  0  0  0  0  0  0  0  0  0  0
   26.2139  -20.1161  -15.8920 O   0  0  0  0  0  0  0  0  0  0  0  0
   25.9398  -19.5266  -10.7944 C   0  0  0  0  0  0  0  0  0  0  0  0
   25.8998  -19.5233   -9.4140 C   0  0  0  0  0  0  0  0  0  0  0  0
   23.9725  -20.5743  -15.9384 N   0  0  0  0  0  0  0  0  0  0  0  0
   23.6539  -20.1524  -17.2571 C   0  0  0  0  0  0  0  0  0  0  0  0
   23.8776  -21.1162  -18.3298 C   0  0  0  0  0  0  0  0  0  0  0  0
   23.1859  -22.1940  -18.3053 O   0  0  0  0  0  0  0  0  0  0  0  0
   23.5953  -20.4178  -22.0431 C   0  0  0  0  0  0  0  0  0  0  0  0
   24.8744  -21.1351  -21.7743 C   0  0  1  0  0  0  0  0  0  0  0  0
   25.8961  -20.1727  -21.6574 O   0  0  0  0  0  0  0  0  0  0  0  0
   24.8409  -21.9729  -20.5111 C   0  0  2  0  0  0  0  0  0  0  0  0
   24.7728  -21.0140  -19.4071 N   0  0  0  0  0  0  0  0  0  0  0  0
   26.0344  -22.8186  -20.4227 C   0  0  0  0  0  0  0  0  0  0  0  0
   26.1964  -23.7854  -21.2037 O   0  0  0  0  0  0  0  0  0  0  0  0
   27.0089  -22.5691  -19.4756 O   0  0  0  0  0  0  0  0  0  0  0  0
  2  1  1  0
  3  2  2  0
  4  3  1  0
  5 11  1  0
  5  4  2  0
  6  5  1  0
  7  6  1  0
  7  8  1  1
  9 10  2  0
  9  7  1  0
 11 12  2  0
 12  2  1  0
 13  9  1  0
 14 13  1  0
 14 15  1  0
 15 16  2  0
 18 17  1  1
 18 20  1  0
 18 19  1  0
 21 15  1  0
 20 21  1  1
 22 20  1  0
 22 24  1  0
 23 22  2  0
M  END
$$$$
