YGT.pdb
     RDKit          3D

 24 24  0  0  1  0  0  0  0  0999 V2000
   31.0898  -11.8954  -23.6772 O   0  0  0  0  0  0  0  0  0  0  0  0
   30.4104  -11.4434  -22.5409 C   0  0  0  0  0  0  0  0  0  0  0  0
   31.0737  -10.9173  -21.4589 C   0  0  0  0  0  0  0  0  0  0  0  0
   30.3721  -10.4765  -20.3442 C   0  0  0  0  0  0  0  0  0  0  0  0
   28.9872  -10.5482  -20.2775 C   0  0  0  0  0  0  0  0  0  0  0  0
   28.3177  -10.0726  -19.0885 C   0  0  0  0  0  0  0  0  0  0  0  0
   28.1579  -11.0098  -17.9407 C   0  0  2  0  0  0  0  0  0  0  0  0
   27.2218  -12.0446  -18.4368 N   0  0  0  0  0  0  0  0  0  0  0  0
   27.4899  -10.4021  -16.7649 C   0  0  0  0  0  0  0  0  0  0  0  0
   28.0248   -9.4591  -16.0983 O   0  0  0  0  0  0  0  0  0  0  0  0
   28.3461  -11.0832  -21.3833 C   0  0  0  0  0  0  0  0  0  0  0  0
   29.0359  -11.5238  -22.4956 C   0  0  0  0  0  0  0  0  0  0  0  0
   26.2064  -10.8325  -16.3061 N   0  0  0  0  0  0  0  0  0  0  0  0
   25.4950  -10.2778  -15.2086 C   0  0  0  0  0  0  0  0  0  0  0  0
   24.3074   -9.4900  -15.5229 C   0  0  0  0  0  0  0  0  0  0  0  0
   24.2970   -8.8624  -16.6394 O   0  0  0  0  0  0  0  0  0  0  0  0
   21.2294  -10.6987  -16.4609 C   0  0  0  0  0  0  0  0  0  0  0  0
   20.9005   -9.7315  -15.3750 C   0  0  1  0  0  0  0  0  0  0  0  0
   20.7900  -10.4521  -14.1699 O   0  0  0  0  0  0  0  0  0  0  0  0
   21.9412   -8.6424  -15.2032 C   0  0  2  0  0  0  0  0  0  0  0  0
   23.1510   -9.3261  -14.7430 N   0  0  0  0  0  0  0  0  0  0  0  0
   21.4829   -7.6405  -14.2369 C   0  0  0  0  0  0  0  0  0  0  0  0
   22.0079   -7.5547  -13.1020 O   0  0  0  0  0  0  0  0  0  0  0  0
   20.4608   -6.7670  -14.5553 O   0  0  0  0  0  0  0  0  0  0  0  0
  2  1  1  0
  3  2  2  0
  4  3  1  0
  5 11  1  0
  5  4  2  0
  6  5  1  0
  7  6  1  0
  7  8  1  6
  9 10  2  0
  9  7  1  0
 11 12  2  0
 12  2  1  0
 13  9  1  0
 14 13  1  0
 14 15  1  0
 15 16  2  0
 18 17  1  6
 18 20  1  0
 18 19  1  0
 21 15  1  0
 20 21  1  1
 22 20  1  0
 22 24  1  0
 23 22  2  0
M  END
$$$$
