YGT.pdb
     RDKit          3D

 24 24  0  0  1  0  0  0  0  0999 V2000
   22.1789  -15.1317  -24.0993 O   0  0  0  0  0  0  0  0  0  0  0  0
   21.9821  -14.4888  -22.8725 C   0  0  0  0  0  0  0  0  0  0  0  0
   21.4414  -13.2285  -22.7910 C   0  0  0  0  0  0  0  0  0  0  0  0
   21.2578  -12.6152  -21.5584 C   0  0  0  0  0  0  0  0  0  0  0  0
   21.6089  -13.2429  -20.3708 C   0  0  0  0  0  0  0  0  0  0  0  0
   21.3922  -12.5497  -19.1216 C   0  0  0  0  0  0  0  0  0  0  0  0
   22.2939  -11.4153  -18.7733 C   0  0  2  0  0  0  0  0  0  0  0  0
   23.6150  -12.0477  -18.5541 N   0  0  0  0  0  0  0  0  0  0  0  0
   21.9523  -10.7560  -17.4902 C   0  0  0  0  0  0  0  0  0  0  0  0
   22.3574  -11.2076  -16.3714 O   0  0  0  0  0  0  0  0  0  0  0  0
   22.1516  -14.5128  -20.4847 C   0  0  0  0  0  0  0  0  0  0  0  0
   22.3375  -15.1297  -21.7061 C   0  0  0  0  0  0  0  0  0  0  0  0
   21.1508   -9.5742  -17.4260 N   0  0  0  0  0  0  0  0  0  0  0  0
   20.7466   -8.9164  -16.2333 C   0  0  0  0  0  0  0  0  0  0  0  0
   21.5126   -7.7389  -15.8377 C   0  0  0  0  0  0  0  0  0  0  0  0
   22.6162   -7.5223  -16.4507 O   0  0  0  0  0  0  0  0  0  0  0  0
   21.0839   -4.4288  -16.5578 C   0  0  0  0  0  0  0  0  0  0  0  0
   21.2221   -4.4319  -15.0733 C   0  0  1  0  0  0  0  0  0  0  0  0
   19.9286   -4.4541  -14.5164 O   0  0  0  0  0  0  0  0  0  0  0  0
   22.0060   -5.6169  -14.5440 C   0  0  2  0  0  0  0  0  0  0  0  0
   21.1907   -6.7936  -14.8501 N   0  0  0  0  0  0  0  0  0  0  0  0
   22.2394   -5.4778  -13.1041 C   0  0  0  0  0  0  0  0  0  0  0  0
   21.6927   -6.2544  -12.2863 O   0  0  0  0  0  0  0  0  0  0  0  0
   23.0682   -4.4864  -12.6149 O   0  0  0  0  0  0  0  0  0  0  0  0
  2  1  1  0
  3  2  2  0
  4  3  1  0
  5 11  1  0
  5  4  2  0
  6  5  1  0
  7  6  1  0
  7  8  1  1
  9 10  2  0
  9  7  1  0
 11 12  2  0
 12  2  1  0
 13  9  1  0
 14 13  1  0
 14 15  1  0
 15 16  2  0
 18 17  1  6
 18 20  1  0
 18 19  1  0
 21 15  1  0
 20 21  1  1
 22 20  1  0
 22 24  1  0
 23 22  2  0
M  END
$$$$
