YGT.pdb
     RDKit          3D

 24 24  0  0  1  0  0  0  0  0999 V2000
   28.9880  -18.9768   -3.1856 O   0  0  0  0  0  0  0  0  0  0  0  0
   28.6277  -19.3954   -4.4709 C   0  0  0  0  0  0  0  0  0  0  0  0
   28.8967  -20.6642   -4.9240 C   0  0  0  0  0  0  0  0  0  0  0  0
   28.5268  -21.0516   -6.2055 C   0  0  0  0  0  0  0  0  0  0  0  0
   27.8772  -20.1829   -7.0722 C   0  0  0  0  0  0  0  0  0  0  0  0
   27.5198  -20.6482   -8.3927 C   0  0  0  0  0  0  0  0  0  0  0  0
   26.2976  -20.0882   -9.0361 C   0  0  2  0  0  0  0  0  0  0  0  0
   25.1774  -20.6214   -8.2272 N   0  0  0  0  0  0  0  0  0  0  0  0
   26.0665  -20.5896  -10.4120 C   0  0  0  0  0  0  0  0  0  0  0  0
   26.9883  -20.5999  -11.2894 O   0  0  0  0  0  0  0  0  0  0  0  0
   27.6195  -18.9106   -6.5873 C   0  0  0  0  0  0  0  0  0  0  0  0
   27.9838  -18.5173   -5.3147 C   0  0  0  0  0  0  0  0  0  0  0  0
   24.7995  -21.0937  -10.8407 N   0  0  0  0  0  0  0  0  0  0  0  0
   24.4383  -21.3798  -12.1846 C   0  0  0  0  0  0  0  0  0  0  0  0
   24.5722  -20.2928  -13.1490 C   0  0  0  0  0  0  0  0  0  0  0  0
   23.7314  -19.3297  -13.0698 O   0  0  0  0  0  0  0  0  0  0  0  0
   27.7291  -18.2230  -14.0703 C   0  0  0  0  0  0  0  0  0  0  0  0
   27.0590  -18.7453  -15.2955 C   0  0  1  0  0  0  0  0  0  0  0  0
   27.7083  -19.9373  -15.6714 O   0  0  0  0  0  0  0  0  0  0  0  0
   25.5828  -19.0300  -15.0994 C   0  0  2  0  0  0  0  0  0  0  0  0
   25.5222  -20.1638  -14.1753 N   0  0  0  0  0  0  0  0  0  0  0  0
   24.9438  -19.3398  -16.3813 C   0  0  0  0  0  0  0  0  0  0  0  0
   24.4514  -20.4719  -16.5971 O   0  0  0  0  0  0  0  0  0  0  0  0
   24.8695  -18.3899  -17.3818 O   0  0  0  0  0  0  0  0  0  0  0  0
  2  1  1  0
  3  2  2  0
  4  3  1  0
  5 11  1  0
  5  4  2  0
  6  5  1  0
  7  6  1  0
  7  8  1  1
  9 10  2  0
  9  7  1  0
 11 12  2  0
 12  2  1  0
 13  9  1  0
 14 13  1  0
 14 15  1  0
 15 16  2  0
 18 17  1  1
 18 20  1  0
 18 19  1  0
 21 15  1  0
 20 21  1  1
 22 20  1  0
 22 24  1  0
 23 22  2  0
M  END
$$$$
