YGT.pdb
     RDKit          3D

 24 24  0  0  1  0  0  0  0  0999 V2000
   25.2477  -11.5085  -15.5096 O   0  0  0  0  0  0  0  0  0  0  0  0
   24.2457  -10.6603  -15.0262 C   0  0  0  0  0  0  0  0  0  0  0  0
   23.2990  -11.0916  -14.1288 C   0  0  0  0  0  0  0  0  0  0  0  0
   22.3159  -10.2263  -13.6663 C   0  0  0  0  0  0  0  0  0  0  0  0
   22.2494   -8.9047  -14.0866 C   0  0  0  0  0  0  0  0  0  0  0  0
   21.2011   -8.0564  -13.5673 C   0  0  0  0  0  0  0  0  0  0  0  0
   19.8369   -8.1725  -14.1560 C   0  0  2  0  0  0  0  0  0  0  0  0
   20.0146   -7.7945  -15.5769 N   0  0  0  0  0  0  0  0  0  0  0  0
   18.8660   -7.1971  -13.6049 C   0  0  0  0  0  0  0  0  0  0  0  0
   18.9000   -5.9633  -13.9152 O   0  0  0  0  0  0  0  0  0  0  0  0
   23.2172   -8.4989  -14.9916 C   0  0  0  0  0  0  0  0  0  0  0  0
   24.1981   -9.3525  -15.4564 C   0  0  0  0  0  0  0  0  0  0  0  0
   17.8318   -7.5771  -12.6943 N   0  0  0  0  0  0  0  0  0  0  0  0
   16.9081   -6.6898  -12.0794 C   0  0  0  0  0  0  0  0  0  0  0  0
   15.8705   -7.2906  -11.2476 C   0  0  0  0  0  0  0  0  0  0  0  0
   15.7349   -8.5630  -11.3045 O   0  0  0  0  0  0  0  0  0  0  0  0
   15.3577   -7.3875   -7.5074 C   0  0  0  0  0  0  0  0  0  0  0  0
   14.1382   -6.8396   -8.1673 C   0  0  1  0  0  0  0  0  0  0  0  0
   14.2419   -5.4350   -8.1748 O   0  0  0  0  0  0  0  0  0  0  0  0
   13.9536   -7.3268   -9.5911 C   0  0  2  0  0  0  0  0  0  0  0  0
   14.9815   -6.6408  -10.3758 N   0  0  0  0  0  0  0  0  0  0  0  0
   12.6049   -7.0139  -10.0713 C   0  0  0  0  0  0  0  0  0  0  0  0
   12.4084   -6.0580  -10.8578 O   0  0  0  0  0  0  0  0  0  0  0  0
   11.5186   -7.7661   -9.6676 O   0  0  0  0  0  0  0  0  0  0  0  0
  2  1  1  0
  3  2  2  0
  4  3  1  0
  5 11  1  0
  5  4  2  0
  6  5  1  0
  7  6  1  0
  7  8  1  6
  9 10  2  0
  9  7  1  0
 11 12  2  0
 12  2  1  0
 13  9  1  0
 14 13  1  0
 14 15  1  0
 15 16  2  0
 18 17  1  6
 18 20  1  0
 18 19  1  0
 21 15  1  0
 20 21  1  6
 22 20  1  0
 22 24  1  0
 23 22  2  0
M  END
$$$$
