RVR.pdb
     RDKit          3D

 30 29  0  0  1  0  0  0  0  0999 V2000
   27.8296  -15.8007  -18.0711 N   0  0  0  0  0  0  0  0  0  0  0  0
   29.0303  -16.4709  -18.4687 C   0  0  0  0  0  0  0  0  0  0  0  0
   29.8316  -15.9407  -19.3328 N   0  0  0  0  0  0  0  0  0  0  0  0
   29.3915  -17.7369  -17.9365 N   0  0  0  0  0  0  0  0  0  0  0  0
   28.6250  -18.3607  -16.8784 C   0  0  0  0  0  0  0  0  0  0  0  0
   27.6980  -19.4125  -17.3702 C   0  0  0  0  0  0  0  0  0  0  0  0
   26.9123  -20.1293  -16.3398 C   0  0  0  0  0  0  0  0  0  0  0  0
   27.6663  -20.7373  -15.2132 C   0  0  2  0  0  0  0  0  0  0  0  0
   28.4319  -21.8878  -15.6318 N   0  0  0  0  0  0  0  0  0  0  0  0
   26.6677  -21.2188  -14.2126 C   0  0  0  0  0  0  0  0  0  0  0  0
   25.9912  -22.2544  -14.4937 O   0  0  0  0  0  0  0  0  0  0  0  0
   30.7037  -16.4219  -19.6074 C   0  0  0  0  0  0  0  0  0  0  0  0
   27.1094  -21.0692  -10.3564 C   0  0  2  0  0  0  0  0  0  0  0  0
   25.7514  -20.4971  -10.6970 C   0  0  0  0  0  0  0  0  0  0  0  0
   24.7087  -20.8246   -9.6571 C   0  0  2  0  0  0  0  0  0  0  0  0
   25.3661  -21.0215  -12.0646 N   0  0  0  0  0  0  0  0  0  0  0  0
   26.4341  -20.5935  -12.9810 C   0  0  0  0  0  0  0  0  0  0  0  0
   24.1467  -20.3001  -12.5029 O   0  0  0  0  0  0  0  0  0  0  0  0
   24.1481  -19.3491  -13.3198 N   0  0  0  0  0  0  0  0  0  0  0  0
   21.7873  -25.9291  -14.9032 C   0  0  0  0  0  0  0  0  0  0  0  0
   20.4204  -25.6579  -15.1577 N   0  0  0  0  0  0  0  0  0  0  0  0
   19.5154  -26.5077  -14.9054 N   0  0  0  0  0  0  0  0  0  0  0  0
   20.0783  -24.3821  -15.7155 C   0  0  0  0  0  0  0  0  0  0  0  0
   21.0412  -23.3098  -15.8073 C   0  0  0  0  0  0  0  0  0  0  0  0
   20.7310  -22.2628  -14.7885 C   0  0  0  0  0  0  0  0  0  0  0  0
   21.8507  -21.9489  -13.8929 C   0  0  1  0  0  0  0  0  0  0  0  0
   21.7439  -20.8802  -12.8831 N   0  0  0  0  0  0  0  0  0  0  0  0
   22.8422  -20.6763  -11.9858 C   0  0  0  0  0  0  0  0  0  0  0  0
   20.4921  -21.0246  -12.0933 O   0  0  0  0  0  0  0  0  0  0  0  0
   19.3162  -20.3987  -12.4751 O   0  0  0  0  0  0  0  0  0  0  0  0
  2  3  2  0
  2  1  1  0
  4  2  1  0
  5  6  1  0
  5  4  1  0
  7  6  1  0
  8  7  1  0
  8  9  1  6
 10  8  1  0
 10 11  2  0
 13 12  1  1
 13 15  1  0
 14 13  1  0
 15 16  1  6
 16 10  1  0
 17 15  1  0
 18 17  2  0
 19 20  1  0
 20 21  2  0
 22 23  1  0
 22 20  1  0
 23 24  1  0
 24 25  1  0
 26 25  1  6
 26 28  1  0
 26 27  1  0
 27 17  1  0
 28 29  1  0
 30 28  2  0
M  END
$$$$
