RVR.pdb
     RDKit          3D

 30 29  0  0  1  0  0  0  0  0999 V2000
   21.2135  -25.7100  -15.3743 N   0  0  0  0  0  0  0  0  0  0  0  0
   21.8985  -26.0976  -14.1787 C   0  0  0  0  0  0  0  0  0  0  0  0
   21.4893  -27.1011  -13.4747 N   0  0  0  0  0  0  0  0  0  0  0  0
   23.0479  -25.4034  -13.7166 N   0  0  0  0  0  0  0  0  0  0  0  0
   23.5768  -24.2573  -14.4258 C   0  0  0  0  0  0  0  0  0  0  0  0
   24.8064  -23.7015  -13.8039 C   0  0  0  0  0  0  0  0  0  0  0  0
   24.6137  -22.5781  -12.8586 C   0  0  0  0  0  0  0  0  0  0  0  0
   25.8312  -21.8598  -12.4015 C   0  0  2  0  0  0  0  0  0  0  0  0
   25.8811  -21.7384  -10.9635 N   0  0  0  0  0  0  0  0  0  0  0  0
   25.7690  -20.4739  -12.9541 C   0  0  0  0  0  0  0  0  0  0  0  0
   25.3309  -19.5500  -12.2033 O   0  0  0  0  0  0  0  0  0  0  0  0
   22.0013  -27.3933  -12.6263 C   0  0  0  0  0  0  0  0  0  0  0  0
   28.6190  -18.7784  -14.6292 C   0  0  1  0  0  0  0  0  0  0  0  0
   27.4435  -18.6035  -15.5646 C   0  0  0  0  0  0  0  0  0  0  0  0
   27.4842  -17.2898  -16.3050 C   0  0  2  0  0  0  0  0  0  0  0  0
   26.1806  -18.7460  -14.7408 N   0  0  0  0  0  0  0  0  0  0  0  0
   26.1662  -20.1339  -14.2537 C   0  0  0  0  0  0  0  0  0  0  0  0
   25.0216  -18.6297  -15.6587 O   0  0  0  0  0  0  0  0  0  0  0  0
   24.7922  -19.4195  -16.6049 N   0  0  0  0  0  0  0  0  0  0  0  0
   17.2295  -19.2700  -13.7187 C   0  0  0  0  0  0  0  0  0  0  0  0
   18.2793  -20.0892  -14.2023 N   0  0  0  0  0  0  0  0  0  0  0  0
   18.3700  -21.3117  -13.8831 N   0  0  0  0  0  0  0  0  0  0  0  0
   19.2513  -19.4956  -15.0734 C   0  0  0  0  0  0  0  0  0  0  0  0
   19.1178  -18.1386  -15.5490 C   0  0  0  0  0  0  0  0  0  0  0  0
   20.3140  -17.7678  -16.3627 C   0  0  0  0  0  0  0  0  0  0  0  0
   21.5859  -17.8683  -15.6370 C   0  0  1  0  0  0  0  0  0  0  0  0
   22.8648  -17.5313  -16.2882 N   0  0  0  0  0  0  0  0  0  0  0  0
   24.0598  -17.5526  -15.4981 C   0  0  0  0  0  0  0  0  0  0  0  0
   22.7702  -16.2237  -16.9902 O   0  0  0  0  0  0  0  0  0  0  0  0
   21.8094  -15.9882  -17.9606 O   0  0  0  0  0  0  0  0  0  0  0  0
  2  3  2  0
  2  1  1  0
  4  2  1  0
  5  6  1  0
  5  4  1  0
  7  6  1  0
  8  7  1  0
  8  9  1  1
 10  8  1  0
 10 11  2  0
 13 12  1  6
 13 15  1  0
 14 13  1  0
 15 16  1  1
 16 10  1  0
 17 15  1  0
 18 17  2  0
 19 20  1  0
 20 21  2  0
 22 23  1  0
 22 20  1  0
 23 24  1  0
 24 25  1  0
 26 25  1  6
 26 28  1  0
 26 27  1  0
 27 17  1  0
 28 29  1  0
 30 28  2  0
M  END
$$$$
