RVR.pdb
     RDKit          3D

 30 29  0  0  1  0  0  0  0  0999 V2000
   27.5798  -29.8997  -16.6130 N   0  0  0  0  0  0  0  0  0  0  0  0
   28.5685  -30.2929  -17.5706 C   0  0  0  0  0  0  0  0  0  0  0  0
   28.8282  -31.5409  -17.7825 N   0  0  0  0  0  0  0  0  0  0  0  0
   29.3016  -29.3380  -18.3238 N   0  0  0  0  0  0  0  0  0  0  0  0
   29.2970  -27.9327  -17.9752 C   0  0  0  0  0  0  0  0  0  0  0  0
   29.4814  -27.6905  -16.5210 C   0  0  0  0  0  0  0  0  0  0  0  0
   29.5251  -26.2740  -16.0917 C   0  0  0  0  0  0  0  0  0  0  0  0
   30.5993  -25.4239  -16.6667 C   0  0  2  0  0  0  0  0  0  0  0  0
   31.8537  -25.5915  -15.9714 N   0  0  0  0  0  0  0  0  0  0  0  0
   30.1888  -23.9993  -16.4878 C   0  0  0  0  0  0  0  0  0  0  0  0
   30.6131  -23.3785  -15.4663 O   0  0  0  0  0  0  0  0  0  0  0  0
   29.5330  -31.8207  -18.4843 C   0  0  0  0  0  0  0  0  0  0  0  0
   30.0704  -21.3398  -19.3608 C   0  0  2  0  0  0  0  0  0  0  0  0
   28.7571  -21.3540  -18.6108 C   0  0  0  0  0  0  0  0  0  0  0  0
   28.0978  -19.9975  -18.5738 C   0  0  2  0  0  0  0  0  0  0  0  0
   29.0328  -21.8835  -17.2190 N   0  0  0  0  0  0  0  0  0  0  0  0
   29.3619  -23.3078  -17.3826 C   0  0  0  0  0  0  0  0  0  0  0  0
   27.7607  -21.8493  -16.4575 O   0  0  0  0  0  0  0  0  0  0  0  0
   26.6866  -22.3550  -16.8603 N   0  0  0  0  0  0  0  0  0  0  0  0
   24.6091  -20.6339   -8.7320 C   0  0  0  0  0  0  0  0  0  0  0  0
   23.4324  -20.7889   -9.5054 N   0  0  0  0  0  0  0  0  0  0  0  0
   22.2874  -20.5188   -9.0357 N   0  0  0  0  0  0  0  0  0  0  0  0
   23.5676  -21.2653  -10.8510 C   0  0  0  0  0  0  0  0  0  0  0  0
   24.8616  -21.4796  -11.4551 C   0  0  0  0  0  0  0  0  0  0  0  0
   25.1898  -20.3417  -12.3650 C   0  0  0  0  0  0  0  0  0  0  0  0
   26.4421  -20.5140  -13.1110 C   0  0  1  0  0  0  0  0  0  0  0  0
   26.4553  -21.1390  -14.4460 N   0  0  0  0  0  0  0  0  0  0  0  0
   27.6971  -21.2029  -15.1579 C   0  0  0  0  0  0  0  0  0  0  0  0
   25.4230  -20.5274  -15.3245 O   0  0  0  0  0  0  0  0  0  0  0  0
   24.2363  -21.1814  -15.6149 O   0  0  0  0  0  0  0  0  0  0  0  0
  2  3  2  0
  2  1  1  0
  4  2  1  0
  5  6  1  0
  5  4  1  0
  7  6  1  0
  8  7  1  0
  8  9  1  1
 10  8  1  0
 10 11  2  0
 13 12  1  6
 13 15  1  0
 14 13  1  0
 15 16  1  1
 16 10  1  0
 17 15  1  0
 18 17  2  0
 19 20  1  0
 20 21  2  0
 22 23  1  0
 22 20  1  0
 23 24  1  0
 24 25  1  0
 26 25  1  1
 26 28  1  0
 26 27  1  0
 27 17  1  0
 28 29  1  0
 30 28  2  0
M  END
$$$$
