RVR.pdb
     RDKit          3D

 30 29  0  0  1  0  0  0  0  0999 V2000
   27.2548  -25.8091  -16.2549 N   0  0  0  0  0  0  0  0  0  0  0  0
   26.3832  -25.5508  -17.3606 C   0  0  0  0  0  0  0  0  0  0  0  0
   26.8470  -25.4524  -18.5627 N   0  0  0  0  0  0  0  0  0  0  0  0
   24.9826  -25.3926  -17.1878 N   0  0  0  0  0  0  0  0  0  0  0  0
   24.3700  -25.4466  -15.8771 C   0  0  0  0  0  0  0  0  0  0  0  0
   24.7747  -24.3209  -14.9958 C   0  0  0  0  0  0  0  0  0  0  0  0
   23.7135  -23.3514  -14.6399 C   0  0  0  0  0  0  0  0  0  0  0  0
   23.4464  -22.2537  -15.6048 C   0  0  2  0  0  0  0  0  0  0  0  0
   24.4174  -21.1902  -15.4980 N   0  0  0  0  0  0  0  0  0  0  0  0
   22.1173  -21.6666  -15.2603 C   0  0  0  0  0  0  0  0  0  0  0  0
   22.0828  -20.7159  -14.4211 O   0  0  0  0  0  0  0  0  0  0  0  0
   26.2181  -25.2396  -19.3544 C   0  0  0  0  0  0  0  0  0  0  0  0
   19.6103  -20.2770  -17.6140 C   0  0  2  0  0  0  0  0  0  0  0  0
   18.8810  -21.3249  -16.8031 C   0  0  0  0  0  0  0  0  0  0  0  0
   17.4253  -20.9866  -16.5969 C   0  0  2  0  0  0  0  0  0  0  0  0
   19.6154  -21.4754  -15.4872 N   0  0  0  0  0  0  0  0  0  0  0  0
   20.9053  -22.1043  -15.8100 C   0  0  0  0  0  0  0  0  0  0  0  0
   18.8794  -22.4659  -14.6646 O   0  0  0  0  0  0  0  0  0  0  0  0
   18.8655  -23.6984  -14.8939 N   0  0  0  0  0  0  0  0  0  0  0  0
   17.9673  -24.7169   -6.3087 C   0  0  0  0  0  0  0  0  0  0  0  0
   17.4468  -25.7698   -7.1007 N   0  0  0  0  0  0  0  0  0  0  0  0
   16.9544  -26.8139   -6.5789 N   0  0  0  0  0  0  0  0  0  0  0  0
   17.4903  -25.6261   -8.5266 C   0  0  0  0  0  0  0  0  0  0  0  0
   18.0079  -24.4334   -9.1550 C   0  0  0  0  0  0  0  0  0  0  0  0
   17.2648  -24.1663  -10.4227 C   0  0  0  0  0  0  0  0  0  0  0  0
   18.0222  -23.3839  -11.4068 C   0  0  1  0  0  0  0  0  0  0  0  0
   17.4272  -23.0039  -12.7009 N   0  0  0  0  0  0  0  0  0  0  0  0
   18.1099  -22.0377  -13.5091 C   0  0  0  0  0  0  0  0  0  0  0  0
   16.0130  -22.5783  -12.5261 O   0  0  0  0  0  0  0  0  0  0  0  0
   15.0391  -23.4587  -12.0824 O   0  0  0  0  0  0  0  0  0  0  0  0
  2  3  2  0
  2  1  1  0
  4  2  1  0
  5  6  1  0
  5  4  1  0
  7  6  1  0
  8  7  1  0
  8  9  1  1
 10  8  1  0
 10 11  2  0
 13 12  1  6
 13 15  1  0
 14 13  1  0
 15 16  1  1
 16 10  1  0
 17 15  1  0
 18 17  2  0
 19 20  1  0
 20 21  2  0
 22 23  1  0
 22 20  1  0
 23 24  1  0
 24 25  1  0
 26 25  1  6
 26 28  1  0
 26 27  1  0
 27 17  1  0
 28 29  1  0
 30 28  2  0
M  END
$$$$
