RVR.pdb
     RDKit          3D

 30 29  0  0  1  0  0  0  0  0999 V2000
   23.8972  -18.8782  -21.3316 N   0  0  0  0  0  0  0  0  0  0  0  0
   25.0464  -19.5328  -21.8794 C   0  0  0  0  0  0  0  0  0  0  0  0
   25.5796  -19.1246  -22.9835 N   0  0  0  0  0  0  0  0  0  0  0  0
   25.6465  -20.6498  -21.2402 N   0  0  0  0  0  0  0  0  0  0  0  0
   25.3285  -21.0010  -19.8721 C   0  0  0  0  0  0  0  0  0  0  0  0
   25.4331  -19.8531  -18.9345 C   0  0  0  0  0  0  0  0  0  0  0  0
   25.1529  -20.1418  -17.5094 C   0  0  0  0  0  0  0  0  0  0  0  0
   23.7389  -20.4029  -17.1355 C   0  0  2  0  0  0  0  0  0  0  0  0
   22.8153  -19.6434  -17.9450 N   0  0  0  0  0  0  0  0  0  0  0  0
   23.5565  -19.9494  -15.7244 C   0  0  0  0  0  0  0  0  0  0  0  0
   23.7079  -18.7163  -15.4683 O   0  0  0  0  0  0  0  0  0  0  0  0
   26.4314  -19.5756  -23.3556 C   0  0  0  0  0  0  0  0  0  0  0  0
   21.7065  -22.3998  -13.0955 C   0  0  1  0  0  0  0  0  0  0  0  0
   21.6287  -20.9022  -12.8983 C   0  0  0  0  0  0  0  0  0  0  0  0
   20.4898  -20.2766  -13.6647 C   0  0  1  0  0  0  0  0  0  0  0  0
   22.9665  -20.3193  -13.3032 N   0  0  0  0  0  0  0  0  0  0  0  0
   23.2277  -20.8065  -14.6662 C   0  0  0  0  0  0  0  0  0  0  0  0
   24.0102  -20.9356  -12.4486 O   0  0  0  0  0  0  0  0  0  0  0  0
   24.4160  -22.1150  -12.5750 N   0  0  0  0  0  0  0  0  0  0  0  0
   31.9072  -20.9981   -8.8683 C   0  0  0  0  0  0  0  0  0  0  0  0
   31.6477  -22.0454   -9.7862 N   0  0  0  0  0  0  0  0  0  0  0  0
   32.5431  -22.8793  -10.1145 N   0  0  0  0  0  0  0  0  0  0  0  0
   30.3304  -22.1424  -10.3441 C   0  0  0  0  0  0  0  0  0  0  0  0
   29.3340  -21.1209  -10.1227 C   0  0  0  0  0  0  0  0  0  0  0  0
   28.1015  -21.4386  -10.9040 C   0  0  0  0  0  0  0  0  0  0  0  0
   27.0574  -20.4104  -10.8189 C   0  0  2  0  0  0  0  0  0  0  0  0
   25.6502  -20.7708  -10.5677 N   0  0  0  0  0  0  0  0  0  0  0  0
   24.6358  -20.1714  -11.3830 C   0  0  0  0  0  0  0  0  0  0  0  0
   25.3027  -20.5713   -9.1356 O   0  0  0  0  0  0  0  0  0  0  0  0
   25.7292  -21.4527   -8.1551 O   0  0  0  0  0  0  0  0  0  0  0  0
  2  3  2  0
  2  1  1  0
  4  2  1  0
  5  6  1  0
  5  4  1  0
  7  6  1  0
  8  7  1  0
  8  9  1  6
 10  8  1  0
 10 11  2  0
 13 12  1  1
 13 15  1  0
 14 13  1  0
 15 16  1  6
 16 10  1  0
 17 15  1  0
 18 17  2  0
 19 20  1  0
 20 21  2  0
 22 23  1  0
 22 20  1  0
 23 24  1  0
 24 25  1  0
 26 25  1  6
 26 28  1  0
 26 27  1  0
 27 17  1  0
 28 29  1  0
 30 28  2  0
M  END
$$$$
