RVR.pdb
     RDKit          3D

 30 29  0  0  1  0  0  0  0  0999 V2000
   32.0100  -25.6223  -17.6835 N   0  0  0  0  0  0  0  0  0  0  0  0
   30.8223  -25.6854  -18.4800 C   0  0  0  0  0  0  0  0  0  0  0  0
   30.6487  -26.6350  -19.3390 N   0  0  0  0  0  0  0  0  0  0  0  0
   29.7910  -24.7162  -18.3630 N   0  0  0  0  0  0  0  0  0  0  0  0
   29.7718  -23.7574  -17.2784 C   0  0  0  0  0  0  0  0  0  0  0  0
   28.6739  -23.9963  -16.3063 C   0  0  0  0  0  0  0  0  0  0  0  0
   27.3046  -24.0632  -16.8659 C   0  0  0  0  0  0  0  0  0  0  0  0
   26.1837  -24.2041  -15.9010 C   0  0  2  0  0  0  0  0  0  0  0  0
   26.2091  -25.4789  -15.2232 N   0  0  0  0  0  0  0  0  0  0  0  0
   24.9109  -24.1500  -16.6802 C   0  0  0  0  0  0  0  0  0  0  0  0
   24.9554  -24.4241  -17.9179 O   0  0  0  0  0  0  0  0  0  0  0  0
   29.7842  -26.6840  -19.9027 C   0  0  0  0  0  0  0  0  0  0  0  0
   22.1511  -26.0958  -15.6427 C   0  0  1  0  0  0  0  0  0  0  0  0
   22.2205  -25.4824  -17.0235 C   0  0  0  0  0  0  0  0  0  0  0  0
   23.3142  -26.0855  -17.8697 C   0  0  1  0  0  0  0  0  0  0  0  0
   22.4024  -23.9889  -16.8500 N   0  0  0  0  0  0  0  0  0  0  0  0
   23.6697  -23.8143  -16.1241 C   0  0  0  0  0  0  0  0  0  0  0  0
   21.3430  -23.5038  -15.9325 O   0  0  0  0  0  0  0  0  0  0  0  0
   21.2425  -23.8469  -14.7309 N   0  0  0  0  0  0  0  0  0  0  0  0
   15.6245  -17.5821  -17.7977 C   0  0  0  0  0  0  0  0  0  0  0  0
   15.0132  -18.8139  -17.4574 N   0  0  0  0  0  0  0  0  0  0  0  0
   13.8325  -19.0935  -17.8215 N   0  0  0  0  0  0  0  0  0  0  0  0
   15.7708  -19.7509  -16.6803 C   0  0  0  0  0  0  0  0  0  0  0  0
   16.6488  -19.3223  -15.6169 C   0  0  0  0  0  0  0  0  0  0  0  0
   17.3789  -20.4994  -15.0584 C   0  0  0  0  0  0  0  0  0  0  0  0
   18.4045  -21.0475  -15.9540 C   0  0  2  0  0  0  0  0  0  0  0  0
   19.2710  -22.1622  -15.5304 N   0  0  0  0  0  0  0  0  0  0  0  0
   20.3321  -22.5716  -16.4017 C   0  0  0  0  0  0  0  0  0  0  0  0
   18.4576  -23.3520  -15.1636 O   0  0  0  0  0  0  0  0  0  0  0  0
   17.8730  -23.4748  -13.9133 O   0  0  0  0  0  0  0  0  0  0  0  0
  2  3  2  0
  2  1  1  0
  4  2  1  0
  5  6  1  0
  5  4  1  0
  7  6  1  0
  8  7  1  0
  8  9  1  6
 10  8  1  0
 10 11  2  0
 13 12  1  6
 13 15  1  0
 14 13  1  0
 15 16  1  1
 16 10  1  0
 17 15  1  0
 18 17  2  0
 19 20  1  0
 20 21  2  0
 22 23  1  0
 22 20  1  0
 23 24  1  0
 24 25  1  0
 26 25  1  1
 26 28  1  0
 26 27  1  0
 27 17  1  0
 28 29  1  0
 30 28  2  0
M  END
$$$$
