RVR.pdb
     RDKit          3D

 30 29  0  0  1  0  0  0  0  0999 V2000
   29.8141  -23.9999  -19.4597 N   0  0  0  0  0  0  0  0  0  0  0  0
   28.4021  -24.2322  -19.4941 C   0  0  0  0  0  0  0  0  0  0  0  0
   27.9106  -25.2413  -20.1344 N   0  0  0  0  0  0  0  0  0  0  0  0
   27.4863  -23.3720  -18.8324 N   0  0  0  0  0  0  0  0  0  0  0  0
   27.9176  -22.1328  -18.2203 C   0  0  0  0  0  0  0  0  0  0  0  0
   28.3053  -22.2890  -16.7945 C   0  0  0  0  0  0  0  0  0  0  0  0
   27.1955  -22.3817  -15.8187 C   0  0  0  0  0  0  0  0  0  0  0  0
   26.7539  -21.1193  -15.1717 C   0  0  2  0  0  0  0  0  0  0  0  0
   27.8708  -20.2999  -14.7638 N   0  0  0  0  0  0  0  0  0  0  0  0
   26.0075  -21.4873  -13.9318 C   0  0  0  0  0  0  0  0  0  0  0  0
   25.1335  -22.4035  -14.0096 O   0  0  0  0  0  0  0  0  0  0  0  0
   26.8903  -25.4019  -20.1617 C   0  0  0  0  0  0  0  0  0  0  0  0
   27.3288  -21.5004  -10.2322 C   0  0  1  0  0  0  0  0  0  0  0  0
   26.0838  -20.6458  -10.3162 C   0  0  0  0  0  0  0  0  0  0  0  0
   25.2416  -20.7267   -9.0672 C   0  0  2  0  0  0  0  0  0  0  0  0
   25.3127  -21.0836  -11.5440 N   0  0  0  0  0  0  0  0  0  0  0  0
   26.2160  -20.8799  -12.6868 C   0  0  0  0  0  0  0  0  0  0  0  0
   24.1922  -20.1325  -11.7422 O   0  0  0  0  0  0  0  0  0  0  0  0
   24.3166  -18.9980  -12.2610 N   0  0  0  0  0  0  0  0  0  0  0  0
   20.3700  -20.1832  -17.8163 C   0  0  0  0  0  0  0  0  0  0  0  0
   19.3682  -19.2940  -17.3554 N   0  0  0  0  0  0  0  0  0  0  0  0
   18.3242  -19.0591  -18.0333 N   0  0  0  0  0  0  0  0  0  0  0  0
   19.5646  -18.6561  -16.0863 C   0  0  0  0  0  0  0  0  0  0  0  0
   20.7521  -18.8837  -15.2968 C   0  0  0  0  0  0  0  0  0  0  0  0
   20.5336  -20.0387  -14.3756 C   0  0  0  0  0  0  0  0  0  0  0  0
   21.6968  -20.3690  -13.5436 C   0  0  1  0  0  0  0  0  0  0  0  0
   21.7187  -20.0558  -12.1033 N   0  0  0  0  0  0  0  0  0  0  0  0
   22.8448  -20.4846  -11.3282 C   0  0  0  0  0  0  0  0  0  0  0  0
   20.4698  -20.5215  -11.4438 O   0  0  0  0  0  0  0  0  0  0  0  0
   19.4433  -19.6448  -11.1309 O   0  0  0  0  0  0  0  0  0  0  0  0
  2  3  2  0
  2  1  1  0
  4  2  1  0
  5  6  1  0
  5  4  1  0
  7  6  1  0
  8  7  1  0
  8  9  1  1
 10  8  1  0
 10 11  2  0
 13 12  1  1
 13 15  1  0
 14 13  1  0
 15 16  1  6
 16 10  1  0
 17 15  1  0
 18 17  2  0
 19 20  1  0
 20 21  2  0
 22 23  1  0
 22 20  1  0
 23 24  1  0
 24 25  1  0
 26 25  1  6
 26 28  1  0
 26 27  1  0
 27 17  1  0
 28 29  1  0
 30 28  2  0
M  END
$$$$
