RVR.pdb
     RDKit          3D

 30 29  0  0  1  0  0  0  0  0999 V2000
   19.0837  -19.9185  -16.0851 N   0  0  0  0  0  0  0  0  0  0  0  0
   19.4447  -18.5376  -16.1945 C   0  0  0  0  0  0  0  0  0  0  0  0
   18.6959  -17.7048  -16.8392 N   0  0  0  0  0  0  0  0  0  0  0  0
   20.6309  -18.0257  -15.6051 N   0  0  0  0  0  0  0  0  0  0  0  0
   21.6617  -18.9033  -15.0920 C   0  0  0  0  0  0  0  0  0  0  0  0
   22.4296  -19.5913  -16.1619 C   0  0  0  0  0  0  0  0  0  0  0  0
   23.4327  -20.5846  -15.7149 C   0  0  0  0  0  0  0  0  0  0  0  0
   24.3663  -20.1678  -14.6370 C   0  0  2  0  0  0  0  0  0  0  0  0
   25.7472  -20.2684  -15.0472 N   0  0  0  0  0  0  0  0  0  0  0  0
   24.1816  -21.1104  -13.4935 C   0  0  0  0  0  0  0  0  0  0  0  0
   24.6518  -22.2834  -13.6035 O   0  0  0  0  0  0  0  0  0  0  0  0
   18.9744  -16.7149  -16.9401 C   0  0  0  0  0  0  0  0  0  0  0  0
   23.1604  -19.7261   -9.7760 C   0  0  1  0  0  0  0  0  0  0  0  0
   23.9594  -20.9954   -9.9713 C   0  0  0  0  0  0  0  0  0  0  0  0
   25.4369  -20.7310  -10.1222 C   0  0  1  0  0  0  0  0  0  0  0  0
   23.3899  -21.7111  -11.1784 N   0  0  0  0  0  0  0  0  0  0  0  0
   23.5190  -20.7750  -12.3057 C   0  0  0  0  0  0  0  0  0  0  0  0
   21.9327  -21.8818  -10.9621 O   0  0  0  0  0  0  0  0  0  0  0  0
   21.1268  -20.9319  -10.8220 N   0  0  0  0  0  0  0  0  0  0  0  0
   16.1416  -25.0998   -5.9903 C   0  0  0  0  0  0  0  0  0  0  0  0
   17.3961  -25.7545   -5.9250 N   0  0  0  0  0  0  0  0  0  0  0  0
   17.5110  -26.9274   -5.4603 N   0  0  0  0  0  0  0  0  0  0  0  0
   18.5501  -25.0504   -6.4031 C   0  0  0  0  0  0  0  0  0  0  0  0
   18.4678  -23.6880   -6.8748 C   0  0  0  0  0  0  0  0  0  0  0  0
   18.4829  -23.6680   -8.3681 C   0  0  0  0  0  0  0  0  0  0  0  0
   19.8258  -23.5664   -8.9517 C   0  0  1  0  0  0  0  0  0  0  0  0
   20.0159  -23.3877  -10.4026 N   0  0  0  0  0  0  0  0  0  0  0  0
   21.3478  -23.2103  -10.9001 C   0  0  0  0  0  0  0  0  0  0  0  0
   19.1558  -22.2882  -10.9153 O   0  0  0  0  0  0  0  0  0  0  0  0
   17.7838  -22.4375  -11.0403 O   0  0  0  0  0  0  0  0  0  0  0  0
  2  3  2  0
  2  1  1  0
  4  2  1  0
  5  6  1  0
  5  4  1  0
  7  6  1  0
  8  7  1  0
  8  9  1  6
 10  8  1  0
 10 11  2  0
 13 12  1  1
 13 15  1  0
 14 13  1  0
 15 16  1  6
 16 10  1  0
 17 15  1  0
 18 17  2  0
 19 20  1  0
 20 21  2  0
 22 23  1  0
 22 20  1  0
 23 24  1  0
 24 25  1  0
 26 25  1  6
 26 28  1  0
 26 27  1  0
 27 17  1  0
 28 29  1  0
 30 28  2  0
M  END
$$$$
