RVR.pdb
     RDKit          3D

 30 29  0  0  1  0  0  0  0  0999 V2000
   20.7701  -25.2162  -13.3247 N   0  0  0  0  0  0  0  0  0  0  0  0
   21.2680  -26.4384  -13.8789 C   0  0  0  0  0  0  0  0  0  0  0  0
   21.9483  -26.4405  -14.9776 N   0  0  0  0  0  0  0  0  0  0  0  0
   21.0389  -27.6919  -13.2522 N   0  0  0  0  0  0  0  0  0  0  0  0
   20.1228  -27.8263  -12.1392 C   0  0  0  0  0  0  0  0  0  0  0  0
   20.3544  -26.8241  -11.0671 C   0  0  0  0  0  0  0  0  0  0  0  0
   19.3755  -26.8131   -9.9561 C   0  0  0  0  0  0  0  0  0  0  0  0
   19.2758  -28.0424   -9.1277 C   0  0  2  0  0  0  0  0  0  0  0  0
   19.0208  -29.2165   -9.9287 N   0  0  0  0  0  0  0  0  0  0  0  0
   18.1060  -27.8751   -8.2148 C   0  0  0  0  0  0  0  0  0  0  0  0
   16.9682  -28.2580   -8.6245 O   0  0  0  0  0  0  0  0  0  0  0  0
   22.2373  -27.3300  -15.4167 C   0  0  0  0  0  0  0  0  0  0  0  0
   18.0445  -29.1810   -4.7975 C   0  0  1  0  0  0  0  0  0  0  0  0
   17.6040  -27.7409   -4.6579 C   0  0  0  0  0  0  0  0  0  0  0  0
   16.5987  -27.5487   -3.5496 C   0  0  2  0  0  0  0  0  0  0  0  0
   17.0543  -27.3005   -5.9986 N   0  0  0  0  0  0  0  0  0  0  0  0
   18.1914  -27.3197   -6.9315 C   0  0  0  0  0  0  0  0  0  0  0  0
   16.6533  -25.8775   -5.8822 O   0  0  0  0  0  0  0  0  0  0  0  0
   17.4557  -24.9153   -5.9255 N   0  0  0  0  0  0  0  0  0  0  0  0
   13.6327  -21.6040  -11.6976 C   0  0  0  0  0  0  0  0  0  0  0  0
   14.5526  -20.8058  -10.9741 N   0  0  0  0  0  0  0  0  0  0  0  0
   15.2525  -19.9162  -11.5429 N   0  0  0  0  0  0  0  0  0  0  0  0
   14.6763  -21.0303   -9.5633 C   0  0  0  0  0  0  0  0  0  0  0  0
   13.8903  -22.0312   -8.8810 C   0  0  0  0  0  0  0  0  0  0  0  0
   14.4027  -22.2155   -7.4904 C   0  0  0  0  0  0  0  0  0  0  0  0
   14.9299  -23.5583   -7.2199 C   0  0  1  0  0  0  0  0  0  0  0  0
   14.8367  -24.1587   -5.8768 N   0  0  0  0  0  0  0  0  0  0  0  0
   15.2568  -25.5177   -5.7055 C   0  0  0  0  0  0  0  0  0  0  0  0
   13.4655  -24.0010   -5.3231 O   0  0  0  0  0  0  0  0  0  0  0  0
   12.9900  -22.7699   -4.9005 O   0  0  0  0  0  0  0  0  0  0  0  0
  2  3  2  0
  2  1  1  0
  4  2  1  0
  5  6  1  0
  5  4  1  0
  7  6  1  0
  8  7  1  0
  8  9  1  6
 10  8  1  0
 10 11  2  0
 13 12  1  1
 13 15  1  0
 14 13  1  0
 15 16  1  6
 16 10  1  0
 17 15  1  0
 18 17  2  0
 19 20  1  0
 20 21  2  0
 22 23  1  0
 22 20  1  0
 23 24  1  0
 24 25  1  0
 26 25  1  1
 26 28  1  0
 26 27  1  0
 27 17  1  0
 28 29  1  0
 30 28  2  0
M  END
$$$$
