RVR.pdb
     RDKit          3D

 30 29  0  0  1  0  0  0  0  0999 V2000
   19.6744  -21.9915  -11.9453 N   0  0  0  0  0  0  0  0  0  0  0  0
   18.2821  -22.1558  -11.6563 C   0  0  0  0  0  0  0  0  0  0  0  0
   17.3827  -21.5409  -12.3512 N   0  0  0  0  0  0  0  0  0  0  0  0
   17.8308  -22.9941  -10.6026 N   0  0  0  0  0  0  0  0  0  0  0  0
   18.7357  -23.8756   -9.8952 C   0  0  0  0  0  0  0  0  0  0  0  0
   18.8597  -23.5494   -8.4510 C   0  0  0  0  0  0  0  0  0  0  0  0
   18.0287  -24.3504   -7.5233 C   0  0  0  0  0  0  0  0  0  0  0  0
   18.4679  -25.7430   -7.2497 C   0  0  2  0  0  0  0  0  0  0  0  0
   18.3618  -26.5843   -8.4186 N   0  0  0  0  0  0  0  0  0  0  0  0
   17.5474  -26.3100   -6.2196 C   0  0  0  0  0  0  0  0  0  0  0  0
   16.4752  -26.8613   -6.6142 O   0  0  0  0  0  0  0  0  0  0  0  0
   16.3852  -21.5945  -12.0874 C   0  0  0  0  0  0  0  0  0  0  0  0
   18.9927  -27.1334   -2.6095 C   0  0  1  0  0  0  0  0  0  0  0  0
   17.7613  -27.8756   -3.0788 C   0  0  0  0  0  0  0  0  0  0  0  0
   18.0992  -29.0956   -3.8994 C   0  0  1  0  0  0  0  0  0  0  0  0
   16.9063  -26.8951   -3.8544 N   0  0  0  0  0  0  0  0  0  0  0  0
   17.7985  -26.2689   -4.8420 C   0  0  0  0  0  0  0  0  0  0  0  0
   16.5047  -25.8083   -2.9287 O   0  0  0  0  0  0  0  0  0  0  0  0
   16.8575  -24.6119   -3.0542 N   0  0  0  0  0  0  0  0  0  0  0  0
   14.9862  -19.6687    0.5314 C   0  0  0  0  0  0  0  0  0  0  0  0
   13.5872  -19.8667    0.4288 N   0  0  0  0  0  0  0  0  0  0  0  0
   12.7610  -19.0504    0.9345 N   0  0  0  0  0  0  0  0  0  0  0  0
   13.1199  -21.0282   -0.2701 C   0  0  0  0  0  0  0  0  0  0  0  0
   14.0324  -21.9663   -0.8807 C   0  0  0  0  0  0  0  0  0  0  0  0
   13.2644  -23.0788   -1.5155 C   0  0  0  0  0  0  0  0  0  0  0  0
   14.1055  -24.1472   -2.0683 C   0  0  1  0  0  0  0  0  0  0  0  0
   14.8807  -25.0407   -1.1887 N   0  0  0  0  0  0  0  0  0  0  0  0
   15.6500  -26.0903   -1.7882 C   0  0  0  0  0  0  0  0  0  0  0  0
   14.0129  -25.6196   -0.1288 O   0  0  0  0  0  0  0  0  0  0  0  0
   13.6329  -24.8827    0.9816 O   0  0  0  0  0  0  0  0  0  0  0  0
  2  3  2  0
  2  1  1  0
  4  2  1  0
  5  6  1  0
  5  4  1  0
  7  6  1  0
  8  7  1  0
  8  9  1  6
 10  8  1  0
 10 11  2  0
 13 12  1  1
 13 15  1  0
 14 13  1  0
 15 16  1  6
 16 10  1  0
 17 15  1  0
 18 17  2  0
 19 20  1  0
 20 21  2  0
 22 23  1  0
 22 20  1  0
 23 24  1  0
 24 25  1  0
 26 25  1  6
 26 28  1  0
 26 27  1  0
 27 17  1  0
 28 29  1  0
 30 28  2  0
M  END
$$$$
