RVR.pdb
     RDKit          3D

 30 29  0  0  1  0  0  0  0  0999 V2000
   25.7796  -14.9639  -16.9937 N   0  0  0  0  0  0  0  0  0  0  0  0
   25.2586  -15.1543  -18.3133 C   0  0  0  0  0  0  0  0  0  0  0  0
   24.9488  -14.1439  -19.0569 N   0  0  0  0  0  0  0  0  0  0  0  0
   25.0606  -16.4500  -18.8594 N   0  0  0  0  0  0  0  0  0  0  0  0
   25.0270  -17.6291  -18.0199 C   0  0  0  0  0  0  0  0  0  0  0  0
   24.3476  -17.4009  -16.7184 C   0  0  0  0  0  0  0  0  0  0  0  0
   24.0240  -18.6092  -15.9260 C   0  0  0  0  0  0  0  0  0  0  0  0
   25.1620  -19.4580  -15.4881 C   0  0  2  0  0  0  0  0  0  0  0  0
   25.6281  -20.3263  -16.5436 N   0  0  0  0  0  0  0  0  0  0  0  0
   24.6686  -20.3372  -14.3865 C   0  0  0  0  0  0  0  0  0  0  0  0
   23.8852  -21.2889  -14.6862 O   0  0  0  0  0  0  0  0  0  0  0  0
   24.5045  -14.2848  -19.9790 C   0  0  0  0  0  0  0  0  0  0  0  0
   24.8946  -21.7445   -9.6783 C   0  0  1  0  0  0  0  0  0  0  0  0
   25.3629  -20.8028  -10.7651 C   0  0  0  0  0  0  0  0  0  0  0  0
   25.3704  -19.3620  -10.3179 C   0  0  2  0  0  0  0  0  0  0  0  0
   24.4672  -21.0138  -11.9680 N   0  0  0  0  0  0  0  0  0  0  0  0
   25.0203  -20.1727  -13.0404 C   0  0  0  0  0  0  0  0  0  0  0  0
   23.1366  -20.4400  -11.6523 O   0  0  0  0  0  0  0  0  0  0  0  0
   22.7476  -19.3127  -12.0388 N   0  0  0  0  0  0  0  0  0  0  0  0
   20.0415  -21.9459  -16.5300 C   0  0  0  0  0  0  0  0  0  0  0  0
   18.7950  -22.5660  -16.2685 N   0  0  0  0  0  0  0  0  0  0  0  0
   18.3286  -23.4678  -17.0262 N   0  0  0  0  0  0  0  0  0  0  0  0
   18.0617  -22.1445  -15.1106 C   0  0  0  0  0  0  0  0  0  0  0  0
   18.6978  -21.4375  -14.0238 C   0  0  0  0  0  0  0  0  0  0  0  0
   19.2805  -22.4151  -13.0568 C   0  0  0  0  0  0  0  0  0  0  0  0
   20.6295  -22.0676  -12.5942 C   0  0  1  0  0  0  0  0  0  0  0  0
   20.8410  -21.3720  -11.3118 N   0  0  0  0  0  0  0  0  0  0  0  0
   22.1841  -21.1869  -10.8487 C   0  0  0  0  0  0  0  0  0  0  0  0
   20.0375  -22.0030  -10.2312 O   0  0  0  0  0  0  0  0  0  0  0  0
   20.6372  -22.6750   -9.1781 O   0  0  0  0  0  0  0  0  0  0  0  0
  2  3  2  0
  2  1  1  0
  4  2  1  0
  5  6  1  0
  5  4  1  0
  7  6  1  0
  8  7  1  0
  8  9  1  6
 10  8  1  0
 10 11  2  0
 13 12  1  1
 13 15  1  0
 14 13  1  0
 15 16  1  1
 16 10  1  0
 17 15  1  0
 18 17  2  0
 19 20  1  0
 20 21  2  0
 22 23  1  0
 22 20  1  0
 23 24  1  0
 24 25  1  0
 26 25  1  6
 26 28  1  0
 26 27  1  0
 27 17  1  0
 28 29  1  0
 30 28  2  0
M  END
$$$$
