RVR.pdb
     RDKit          3D

 30 29  0  0  1  0  0  0  0  0999 V2000
   25.8208  -18.4597  -20.3106 N   0  0  0  0  0  0  0  0  0  0  0  0
   24.7379  -17.7438  -19.7076 C   0  0  0  0  0  0  0  0  0  0  0  0
   23.5901  -17.6578  -20.2950 N   0  0  0  0  0  0  0  0  0  0  0  0
   24.8749  -17.1016  -18.4485 N   0  0  0  0  0  0  0  0  0  0  0  0
   26.0878  -17.2181  -17.6666 C   0  0  0  0  0  0  0  0  0  0  0  0
   26.4667  -18.6262  -17.3816 C   0  0  0  0  0  0  0  0  0  0  0  0
   26.1220  -19.1394  -16.0361 C   0  0  0  0  0  0  0  0  0  0  0  0
   27.1213  -20.0110  -15.3660 C   0  0  2  0  0  0  0  0  0  0  0  0
   27.6225  -21.0383  -16.2483 N   0  0  0  0  0  0  0  0  0  0  0  0
   26.4288  -20.7041  -14.2391 C   0  0  0  0  0  0  0  0  0  0  0  0
   25.7449  -21.7392  -14.5036 O   0  0  0  0  0  0  0  0  0  0  0  0
   22.8358  -17.0757  -19.8953 C   0  0  0  0  0  0  0  0  0  0  0  0
   27.6964  -21.1221  -10.6412 C   0  0  1  0  0  0  0  0  0  0  0  0
   26.3012  -20.5467  -10.5429 C   0  0  0  0  0  0  0  0  0  0  0  0
   25.5259  -21.1061   -9.3759 C   0  0  2  0  0  0  0  0  0  0  0  0
   25.6044  -20.8136  -11.8609 N   0  0  0  0  0  0  0  0  0  0  0  0
   26.4902  -20.2780  -12.9059 C   0  0  0  0  0  0  0  0  0  0  0  0
   24.3788  -19.9798  -11.9061 O   0  0  0  0  0  0  0  0  0  0  0  0
   24.2895  -18.8945  -12.5271 N   0  0  0  0  0  0  0  0  0  0  0  0
   21.3134  -20.3470  -18.4079 C   0  0  0  0  0  0  0  0  0  0  0  0
   22.5426  -20.5474  -17.7329 N   0  0  0  0  0  0  0  0  0  0  0  0
   23.6527  -20.4853  -18.3400 N   0  0  0  0  0  0  0  0  0  0  0  0
   22.5023  -20.8265  -16.3270 C   0  0  0  0  0  0  0  0  0  0  0  0
   21.2537  -20.9759  -15.6171 C   0  0  0  0  0  0  0  0  0  0  0  0
   21.2981  -20.1940  -14.3454 C   0  0  0  0  0  0  0  0  0  0  0  0
   21.7638  -20.9636  -13.1856 C   0  0  2  0  0  0  0  0  0  0  0  0
   21.9038  -20.3357  -11.8593 N   0  0  0  0  0  0  0  0  0  0  0  0
   23.1769  -20.3981  -11.2051 C   0  0  0  0  0  0  0  0  0  0  0  0
   20.8549  -20.8307  -10.9285 O   0  0  0  0  0  0  0  0  0  0  0  0
   21.1562  -21.6952   -9.8882 O   0  0  0  0  0  0  0  0  0  0  0  0
  2  3  2  0
  2  1  1  0
  4  2  1  0
  5  6  1  0
  5  4  1  0
  7  6  1  0
  8  7  1  0
  8  9  1  6
 10  8  1  0
 10 11  2  0
 13 12  1  1
 13 15  1  0
 14 13  1  0
 15 16  1  6
 16 10  1  0
 17 15  1  0
 18 17  2  0
 19 20  1  0
 20 21  2  0
 22 23  1  0
 22 20  1  0
 23 24  1  0
 24 25  1  0
 26 25  1  6
 26 28  1  0
 26 27  1  0
 27 17  1  0
 28 29  1  0
 30 28  2  0
M  END
$$$$
