RVR.pdb
     RDKit          3D

 30 29  0  0  1  0  0  0  0  0999 V2000
   26.9945  -21.8532  -10.9239 N   0  0  0  0  0  0  0  0  0  0  0  0
   25.9785  -20.8788  -11.1837 C   0  0  0  0  0  0  0  0  0  0  0  0
   24.9460  -20.7749  -10.4138 N   0  0  0  0  0  0  0  0  0  0  0  0
   26.0589  -19.9909  -12.2890 N   0  0  0  0  0  0  0  0  0  0  0  0
   27.2067  -19.9816  -13.1715 C   0  0  0  0  0  0  0  0  0  0  0  0
   27.0138  -20.8094  -14.3901 C   0  0  0  0  0  0  0  0  0  0  0  0
   28.1658  -21.6406  -14.8083 C   0  0  0  0  0  0  0  0  0  0  0  0
   28.0122  -22.4348  -16.0544 C   0  0  2  0  0  0  0  0  0  0  0  0
   29.2543  -23.0477  -16.4630 N   0  0  0  0  0  0  0  0  0  0  0  0
   27.6131  -21.4920  -17.1416 C   0  0  0  0  0  0  0  0  0  0  0  0
   28.4797  -20.6695  -17.5678 O   0  0  0  0  0  0  0  0  0  0  0  0
   24.2147  -20.0705  -10.6052 C   0  0  0  0  0  0  0  0  0  0  0  0
   25.9392  -20.2732  -21.2152 C   0  0  1  0  0  0  0  0  0  0  0  0
   26.3806  -21.1789  -20.0872 C   0  0  0  0  0  0  0  0  0  0  0  0
   25.8166  -22.5726  -20.2103 C   0  0  2  0  0  0  0  0  0  0  0  0
   25.9715  -20.5194  -18.7866 N   0  0  0  0  0  0  0  0  0  0  0  0
   26.3370  -21.4625  -17.7188 C   0  0  0  0  0  0  0  0  0  0  0  0
   24.4909  -20.4381  -18.7623 O   0  0  0  0  0  0  0  0  0  0  0  0
   23.7343  -21.4307  -18.6446 N   0  0  0  0  0  0  0  0  0  0  0  0
   20.8004  -21.9166  -13.4640 C   0  0  0  0  0  0  0  0  0  0  0  0
   21.9331  -21.2076  -12.9937 N   0  0  0  0  0  0  0  0  0  0  0  0
   22.5207  -21.5303  -11.9188 N   0  0  0  0  0  0  0  0  0  0  0  0
   22.4069  -20.1005  -13.7721 C   0  0  0  0  0  0  0  0  0  0  0  0
   21.5911  -19.4837  -14.7915 C   0  0  0  0  0  0  0  0  0  0  0  0
   22.3349  -18.3498  -15.4172 C   0  0  0  0  0  0  0  0  0  0  0  0
   23.2672  -18.7570  -16.4752 C   0  0  1  0  0  0  0  0  0  0  0  0
   22.8628  -18.7505  -17.8928 N   0  0  0  0  0  0  0  0  0  0  0  0
   23.8215  -19.1538  -18.8783 C   0  0  0  0  0  0  0  0  0  0  0  0
   22.3015  -17.4274  -18.2747 O   0  0  0  0  0  0  0  0  0  0  0  0
   20.9561  -17.1360  -18.1157 O   0  0  0  0  0  0  0  0  0  0  0  0
  2  3  2  0
  2  1  1  0
  4  2  1  0
  5  6  1  0
  5  4  1  0
  7  6  1  0
  8  7  1  0
  8  9  1  6
 10  8  1  0
 10 11  2  0
 13 12  1  6
 13 15  1  0
 14 13  1  0
 15 16  1  1
 16 10  1  0
 17 15  1  0
 18 17  2  0
 19 20  1  0
 20 21  2  0
 22 23  1  0
 22 20  1  0
 23 24  1  0
 24 25  1  0
 26 25  1  1
 26 28  1  0
 26 27  1  0
 27 17  1  0
 28 29  1  0
 30 28  2  0
M  END
$$$$
