RVR.pdb
     RDKit          3D

 30 29  0  0  1  0  0  0  0  0999 V2000
   20.9599  -21.9312   -9.3964 N   0  0  0  0  0  0  0  0  0  0  0  0
   21.4411  -22.1851   -8.0724 C   0  0  0  0  0  0  0  0  0  0  0  0
   20.8714  -23.0647   -7.3163 N   0  0  0  0  0  0  0  0  0  0  0  0
   22.5558  -21.4884   -7.5353 N   0  0  0  0  0  0  0  0  0  0  0  0
   23.5408  -20.8606   -8.3907 C   0  0  0  0  0  0  0  0  0  0  0  0
   23.2137  -20.9686   -9.8360 C   0  0  0  0  0  0  0  0  0  0  0  0
   24.1498  -20.3055  -10.7723 C   0  0  0  0  0  0  0  0  0  0  0  0
   25.3573  -21.0698  -11.1789 C   0  0  2  0  0  0  0  0  0  0  0  0
   26.2944  -21.2216  -10.0908 N   0  0  0  0  0  0  0  0  0  0  0  0
   26.0491  -20.2835  -12.2434 C   0  0  0  0  0  0  0  0  0  0  0  0
   26.8206  -19.3422  -11.8856 O   0  0  0  0  0  0  0  0  0  0  0  0
   21.2048  -23.2256   -6.3517 C   0  0  0  0  0  0  0  0  0  0  0  0
   28.1691  -21.7078  -14.7713 C   0  0  1  0  0  0  0  0  0  0  0  0
   27.2204  -20.8452  -15.5732 C   0  0  0  0  0  0  0  0  0  0  0  0
   27.8813  -20.2264  -16.7799 C   0  0  2  0  0  0  0  0  0  0  0  0
   26.6594  -19.7941  -14.6382 N   0  0  0  0  0  0  0  0  0  0  0  0
   25.8960  -20.5245  -13.6149 C   0  0  0  0  0  0  0  0  0  0  0  0
   25.6614  -18.9980  -15.3929 O   0  0  0  0  0  0  0  0  0  0  0  0
   24.6080  -19.4715  -15.8806 N   0  0  0  0  0  0  0  0  0  0  0  0
   24.7926  -10.3055  -17.8956 C   0  0  0  0  0  0  0  0  0  0  0  0
   23.9829  -11.0650  -18.7755 N   0  0  0  0  0  0  0  0  0  0  0  0
   23.2387  -10.5121  -19.6389 N   0  0  0  0  0  0  0  0  0  0  0  0
   24.0244  -12.4941  -18.6661 C   0  0  0  0  0  0  0  0  0  0  0  0
   24.7171  -13.1538  -17.5842 C   0  0  0  0  0  0  0  0  0  0  0  0
   24.4834  -14.6270  -17.6577 C   0  0  0  0  0  0  0  0  0  0  0  0
   25.1834  -15.3963  -16.6221 C   0  0  1  0  0  0  0  0  0  0  0  0
   25.0131  -16.8563  -16.5098 N   0  0  0  0  0  0  0  0  0  0  0  0
   25.8657  -17.5762  -15.6111 C   0  0  0  0  0  0  0  0  0  0  0  0
   25.0686  -17.4979  -17.8503 O   0  0  0  0  0  0  0  0  0  0  0  0
   26.2733  -17.8513  -18.4371 O   0  0  0  0  0  0  0  0  0  0  0  0
  2  3  2  0
  2  1  1  0
  4  2  1  0
  5  6  1  0
  5  4  1  0
  7  6  1  0
  8  7  1  0
  8  9  1  1
 10  8  1  0
 10 11  2  0
 13 12  1  6
 13 15  1  0
 14 13  1  0
 15 16  1  1
 16 10  1  0
 17 15  1  0
 18 17  2  0
 19 20  1  0
 20 21  2  0
 22 23  1  0
 22 20  1  0
 23 24  1  0
 24 25  1  0
 26 25  1  1
 26 28  1  0
 26 27  1  0
 27 17  1  0
 28 29  1  0
 30 28  2  0
M  END
$$$$
