RVR.pdb
     RDKit          3D

 30 29  0  0  1  0  0  0  0  0999 V2000
   22.6132  -20.1370  -12.6483 N   0  0  0  0  0  0  0  0  0  0  0  0
   23.1731  -20.0847  -11.3320 C   0  0  0  0  0  0  0  0  0  0  0  0
   22.4143  -20.1099  -10.2862 N   0  0  0  0  0  0  0  0  0  0  0  0
   24.5746  -20.0035  -11.1180 N   0  0  0  0  0  0  0  0  0  0  0  0
   25.5057  -19.9122  -12.2229 C   0  0  0  0  0  0  0  0  0  0  0  0
   25.7179  -21.2086  -12.9172 C   0  0  0  0  0  0  0  0  0  0  0  0
   26.6509  -21.1924  -14.0670 C   0  0  0  0  0  0  0  0  0  0  0  0
   26.7718  -22.4431  -14.8599 C   0  0  2  0  0  0  0  0  0  0  0  0
   27.6425  -22.2797  -16.0002 N   0  0  0  0  0  0  0  0  0  0  0  0
   25.4152  -22.7712  -15.3908 C   0  0  0  0  0  0  0  0  0  0  0  0
   24.9897  -22.1160  -16.3903 O   0  0  0  0  0  0  0  0  0  0  0  0
   22.8182  -20.0172   -9.3398 C   0  0  0  0  0  0  0  0  0  0  0  0
   23.3200  -26.0435  -13.9722 C   0  0  1  0  0  0  0  0  0  0  0  0
   23.1245  -25.5673  -15.3943 C   0  0  0  0  0  0  0  0  0  0  0  0
   24.0940  -26.2073  -16.3568 C   0  0  1  0  0  0  0  0  0  0  0  0
   23.2492  -24.0579  -15.3906 N   0  0  0  0  0  0  0  0  0  0  0  0
   24.5842  -23.7606  -14.8495 C   0  0  0  0  0  0  0  0  0  0  0  0
   22.2848  -23.5229  -14.3992 O   0  0  0  0  0  0  0  0  0  0  0  0
   22.6157  -22.9114  -13.3559 N   0  0  0  0  0  0  0  0  0  0  0  0
   20.6207  -16.1820  -13.8044 C   0  0  0  0  0  0  0  0  0  0  0  0
   19.2749  -16.5658  -13.5849 N   0  0  0  0  0  0  0  0  0  0  0  0
   18.4153  -15.7504  -13.1368 N   0  0  0  0  0  0  0  0  0  0  0  0
   18.9015  -17.9172  -13.8853 C   0  0  0  0  0  0  0  0  0  0  0  0
   19.8882  -18.9545  -14.0744 C   0  0  0  0  0  0  0  0  0  0  0  0
   19.2258  -20.1994  -14.5660 C   0  0  0  0  0  0  0  0  0  0  0  0
   20.1538  -21.3034  -14.8387 C   0  0  1  0  0  0  0  0  0  0  0  0
   19.9520  -22.6356  -14.2406 N   0  0  0  0  0  0  0  0  0  0  0  0
   20.8552  -23.6887  -14.5982 C   0  0  0  0  0  0  0  0  0  0  0  0
   18.5554  -23.1015  -14.4507 O   0  0  0  0  0  0  0  0  0  0  0  0
   17.4870  -22.5145  -13.7919 O   0  0  0  0  0  0  0  0  0  0  0  0
  2  3  2  0
  2  1  1  0
  4  2  1  0
  5  6  1  0
  5  4  1  0
  7  6  1  0
  8  7  1  0
  8  9  1  6
 10  8  1  0
 10 11  2  0
 13 12  1  6
 13 15  1  0
 14 13  1  0
 15 16  1  1
 16 10  1  0
 17 15  1  0
 18 17  2  0
 19 20  1  0
 20 21  2  0
 22 23  1  0
 22 20  1  0
 23 24  1  0
 24 25  1  0
 26 25  1  1
 26 28  1  0
 26 27  1  0
 27 17  1  0
 28 29  1  0
 30 28  2  0
M  END
$$$$
