EFD.pdb
     RDKit          3D

 29 29  0  0  1  0  0  0  0  0999 V2000
   26.8498   -8.6917  -21.9742 N   0  0  0  0  0  0  0  0  0  0  0  0
   27.2805   -8.2150  -20.7003 C   0  0  1  0  0  0  0  0  0  0  0  0
   27.6578   -6.7582  -20.6943 C   0  0  0  0  0  0  0  0  0  0  0  0
   26.5669   -5.8708  -21.2360 C   0  0  0  0  0  0  0  0  0  0  0  0
   26.9096   -4.4559  -21.2507 C   0  0  0  0  0  0  0  0  0  0  0  0
   26.1192   -3.6166  -21.7294 O   0  0  0  0  0  0  0  0  0  0  0  0
   26.1857   -8.4052  -19.7128 C   0  0  0  0  0  0  0  0  0  0  0  0
   24.9645   -8.4166  -20.0742 O   0  0  0  0  0  0  0  0  0  0  0  0
   28.1119   -4.0185  -20.7366 O   0  0  0  0  0  0  0  0  0  0  0  0
   26.4195   -8.5842  -18.3226 N   0  0  0  0  0  0  0  0  0  0  0  0
   25.3325   -8.8540  -17.3818 C   0  0  1  0  0  0  0  0  0  0  0  0
   25.9254   -9.6944  -16.2768 C   0  0  0  0  0  0  0  0  0  0  0  0
   24.9087  -10.1601  -15.3248 C   0  0  0  0  0  0  0  0  0  0  0  0
   24.3857  -11.4522  -15.3864 C   0  0  0  0  0  0  0  0  0  0  0  0
   23.4365  -11.8894  -14.4964 C   0  0  0  0  0  0  0  0  0  0  0  0
   22.9880  -11.0302  -13.5165 C   0  0  0  0  0  0  0  0  0  0  0  0
   23.4864   -9.7340  -13.4237 C   0  0  0  0  0  0  0  0  0  0  0  0
   24.4358   -9.3225  -14.3273 C   0  0  0  0  0  0  0  0  0  0  0  0
   24.6956   -7.6174  -16.9186 C   0  0  0  0  0  0  0  0  0  0  0  0
   25.3685   -6.6239  -16.5571 O   0  0  0  0  0  0  0  0  0  0  0  0
   23.2716   -7.4753  -16.8533 N   0  0  0  0  0  0  0  0  0  0  0  0
   22.6423   -6.2700  -16.3066 C   0  0  1  0  0  0  0  0  0  0  0  0
   21.9438   -5.5146  -17.4006 C   0  0  0  0  0  0  0  0  0  0  0  0
   21.2257   -4.3499  -16.8889 C   0  0  0  0  0  0  0  0  0  0  0  0
   21.5981   -3.7670  -15.8555 O   0  0  0  0  0  0  0  0  0  0  0  0
   21.7443   -6.7086  -15.2130 C   0  0  0  0  0  0  0  0  0  0  0  0
   21.1580   -5.8577  -14.5033 O   0  0  0  0  0  0  0  0  0  0  0  0
   20.1057   -3.8848  -17.5695 O   0  0  0  0  0  0  0  0  0  0  0  0
   21.5118   -8.0467  -14.9252 O   0  0  0  0  0  0  0  0  0  0  0  0
  2  1  1  6
  2  7  1  0
  2  3  1  0
  4  3  1  0
  4  5  1  0
  5  6  2  0
  5  9  1  0
  7  8  2  0
 10 11  1  0
 10  7  1  0
 11 12  1  1
 13 14  2  0
 13 12  1  0
 15 14  1  0
 16 15  2  0
 17 16  1  0
 17 18  2  0
 18 13  1  0
 19 11  1  0
 20 19  2  0
 21 19  1  0
 22 26  1  0
 22 21  1  0
 22 23  1  6
 23 24  1  0
 24 28  1  0
 24 25  2  0
 26 29  1  0
 27 26  2  0
M  END
$$$$
