EFD.pdb
     RDKit          3D

 29 29  0  0  1  0  0  0  0  0999 V2000
   28.8281  -21.0348  -18.5441 N   0  0  0  0  0  0  0  0  0  0  0  0
   28.0752  -19.9793  -17.9485 C   0  0  1  0  0  0  0  0  0  0  0  0
   27.0499  -19.3728  -18.8678 C   0  0  0  0  0  0  0  0  0  0  0  0
   27.6510  -18.4058  -19.8551 C   0  0  0  0  0  0  0  0  0  0  0  0
   28.5847  -19.0193  -20.7886 C   0  0  0  0  0  0  0  0  0  0  0  0
   29.8077  -19.0424  -20.5395 O   0  0  0  0  0  0  0  0  0  0  0  0
   27.3617  -20.5030  -16.7540 C   0  0  0  0  0  0  0  0  0  0  0  0
   26.6746  -21.5738  -16.8115 O   0  0  0  0  0  0  0  0  0  0  0  0
   28.1351  -19.5851  -21.9629 O   0  0  0  0  0  0  0  0  0  0  0  0
   27.3950  -19.8584  -15.4880 N   0  0  0  0  0  0  0  0  0  0  0  0
   26.6528  -20.3715  -14.3368 C   0  0  1  0  0  0  0  0  0  0  0  0
   27.3159  -19.7916  -13.1108 C   0  0  0  0  0  0  0  0  0  0  0  0
   26.6167  -20.1599  -11.8729 C   0  0  0  0  0  0  0  0  0  0  0  0
   26.7853  -21.4126  -11.2820 C   0  0  0  0  0  0  0  0  0  0  0  0
   26.1336  -21.7577  -10.1242 C   0  0  0  0  0  0  0  0  0  0  0  0
   25.2907  -20.8436   -9.5297 C   0  0  0  0  0  0  0  0  0  0  0  0
   25.0974  -19.5843  -10.0898 C   0  0  0  0  0  0  0  0  0  0  0  0
   25.7621  -19.2650  -11.2489 C   0  0  0  0  0  0  0  0  0  0  0  0
   25.2202  -20.0776  -14.4392 C   0  0  0  0  0  0  0  0  0  0  0  0
   24.8007  -18.9348  -14.7371 O   0  0  0  0  0  0  0  0  0  0  0  0
   24.2214  -21.0775  -14.2053 N   0  0  0  0  0  0  0  0  0  0  0  0
   22.7947  -20.7456  -14.1621 C   0  0  1  0  0  0  0  0  0  0  0  0
   22.0133  -21.7329  -14.9807 C   0  0  0  0  0  0  0  0  0  0  0  0
   20.5776  -21.4668  -14.9348 C   0  0  0  0  0  0  0  0  0  0  0  0
   20.1230  -20.4943  -14.3072 O   0  0  0  0  0  0  0  0  0  0  0  0
   22.4022  -20.7067  -12.7342 C   0  0  0  0  0  0  0  0  0  0  0  0
   21.6165  -19.8206  -12.3234 O   0  0  0  0  0  0  0  0  0  0  0  0
   19.7038  -22.3161  -15.6051 O   0  0  0  0  0  0  0  0  0  0  0  0
   22.8707  -21.6237  -11.8029 O   0  0  0  0  0  0  0  0  0  0  0  0
  2  1  1  6
  2  7  1  0
  2  3  1  0
  4  3  1  0
  4  5  1  0
  5  6  2  0
  5  9  1  0
  7  8  2  0
 10 11  1  0
 10  7  1  0
 11 12  1  1
 13 14  2  0
 13 12  1  0
 15 14  1  0
 16 15  2  0
 17 16  1  0
 17 18  2  0
 18 13  1  0
 19 11  1  0
 20 19  2  0
 21 19  1  0
 22 26  1  0
 22 21  1  0
 22 23  1  6
 23 24  1  0
 24 28  1  0
 24 25  2  0
 26 29  1  0
 27 26  2  0
M  END
$$$$
