EFD.pdb
     RDKit          3D

 29 29  0  0  1  0  0  0  0  0999 V2000
   31.6270  -33.5976  -15.7173 N   0  0  0  0  0  0  0  0  0  0  0  0
   31.2574  -32.5764  -16.6426 C   0  0  1  0  0  0  0  0  0  0  0  0
   31.9447  -32.6895  -17.9765 C   0  0  0  0  0  0  0  0  0  0  0  0
   33.0785  -31.7093  -18.1336 C   0  0  0  0  0  0  0  0  0  0  0  0
   32.6473  -30.3504  -18.4290 C   0  0  0  0  0  0  0  0  0  0  0  0
   32.5256  -29.5103  -17.5138 O   0  0  0  0  0  0  0  0  0  0  0  0
   29.7912  -32.6404  -16.8796 C   0  0  0  0  0  0  0  0  0  0  0  0
   29.2057  -33.7493  -17.1024 O   0  0  0  0  0  0  0  0  0  0  0  0
   32.3664  -29.9678  -19.7236 O   0  0  0  0  0  0  0  0  0  0  0  0
   28.9553  -31.4913  -16.8747 N   0  0  0  0  0  0  0  0  0  0  0  0
   27.5177  -31.5770  -17.1305 C   0  0  1  0  0  0  0  0  0  0  0  0
   26.8354  -30.9619  -15.9325 C   0  0  0  0  0  0  0  0  0  0  0  0
   26.6717  -31.9204  -14.8319 C   0  0  0  0  0  0  0  0  0  0  0  0
   25.4210  -32.4362  -14.4905 C   0  0  0  0  0  0  0  0  0  0  0  0
   25.2667  -33.3332  -13.4630 C   0  0  0  0  0  0  0  0  0  0  0  0
   26.3755  -33.7351  -12.7498 C   0  0  0  0  0  0  0  0  0  0  0  0
   27.6392  -33.2423  -13.0613 C   0  0  0  0  0  0  0  0  0  0  0  0
   27.7651  -32.3457  -14.0944 C   0  0  0  0  0  0  0  0  0  0  0  0
   27.1556  -30.9588  -18.4096 C   0  0  0  0  0  0  0  0  0  0  0  0
   27.6943  -29.8990  -18.8061 O   0  0  0  0  0  0  0  0  0  0  0  0
   26.1683  -31.5299  -19.2763 N   0  0  0  0  0  0  0  0  0  0  0  0
   25.8168  -30.9102  -20.5569 C   0  0  1  0  0  0  0  0  0  0  0  0
   26.7503  -31.3885  -21.6317 C   0  0  0  0  0  0  0  0  0  0  0  0
   26.3333  -30.9400  -22.9579 C   0  0  0  0  0  0  0  0  0  0  0  0
   26.2495  -31.7359  -23.9098 O   0  0  0  0  0  0  0  0  0  0  0  0
   24.3929  -31.2271  -20.8149 C   0  0  0  0  0  0  0  0  0  0  0  0
   23.9583  -32.3829  -20.5989 O   0  0  0  0  0  0  0  0  0  0  0  0
   26.0246  -29.5991  -23.1597 O   0  0  0  0  0  0  0  0  0  0  0  0
   23.4910  -30.2874  -21.2955 O   0  0  0  0  0  0  0  0  0  0  0  0
  2  1  1  1
  2  7  1  0
  2  3  1  0
  4  3  1  0
  4  5  1  0
  5  6  2  0
  5  9  1  0
  7  8  2  0
 10 11  1  0
 10  7  1  0
 11 12  1  1
 13 14  2  0
 13 12  1  0
 15 14  1  0
 16 15  2  0
 17 16  1  0
 17 18  2  0
 18 13  1  0
 19 11  1  0
 20 19  2  0
 21 19  1  0
 22 26  1  0
 22 21  1  0
 22 23  1  6
 23 24  1  0
 24 28  1  0
 24 25  2  0
 26 29  1  0
 27 26  2  0
M  END
$$$$
