EFD.pdb
     RDKit          3D

 29 29  0  0  1  0  0  0  0  0999 V2000
   22.7922  -34.2193  -13.7490 N   0  0  0  0  0  0  0  0  0  0  0  0
   22.4983  -34.6624  -12.4250 C   0  0  1  0  0  0  0  0  0  0  0  0
   22.7701  -36.1255  -12.2013 C   0  0  0  0  0  0  0  0  0  0  0  0
   24.0986  -36.5643  -12.7614 C   0  0  0  0  0  0  0  0  0  0  0  0
   23.9918  -37.3957  -13.9518 C   0  0  0  0  0  0  0  0  0  0  0  0
   22.8752  -37.6578  -14.4445 O   0  0  0  0  0  0  0  0  0  0  0  0
   23.3255  -33.8933  -11.4584 C   0  0  0  0  0  0  0  0  0  0  0  0
   23.9869  -32.8680  -11.8239 O   0  0  0  0  0  0  0  0  0  0  0  0
   25.1210  -37.9077  -14.5553 O   0  0  0  0  0  0  0  0  0  0  0  0
   23.4350  -34.2408  -10.0849 N   0  0  0  0  0  0  0  0  0  0  0  0
   23.4000  -33.2335   -9.0249 C   0  0  1  0  0  0  0  0  0  0  0  0
   22.0923  -32.4960   -9.1823 C   0  0  0  0  0  0  0  0  0  0  0  0
   22.2563  -31.2144   -9.8807 C   0  0  0  0  0  0  0  0  0  0  0  0
   21.5474  -30.9198  -11.0458 C   0  0  0  0  0  0  0  0  0  0  0  0
   21.6986  -29.7219  -11.6988 C   0  0  0  0  0  0  0  0  0  0  0  0
   22.5733  -28.7857  -11.1909 C   0  0  0  0  0  0  0  0  0  0  0  0
   23.2978  -29.0438  -10.0310 C   0  0  0  0  0  0  0  0  0  0  0  0
   23.1272  -30.2508   -9.3975 C   0  0  0  0  0  0  0  0  0  0  0  0
   23.5955  -33.8314   -7.7007 C   0  0  0  0  0  0  0  0  0  0  0  0
   22.8731  -34.7680   -7.2864 O   0  0  0  0  0  0  0  0  0  0  0  0
   24.6207  -33.3800   -6.8077 N   0  0  0  0  0  0  0  0  0  0  0  0
   24.8883  -34.0586   -5.5367 C   0  0  1  0  0  0  0  0  0  0  0  0
   26.1428  -33.5122   -4.9176 C   0  0  0  0  0  0  0  0  0  0  0  0
   27.3238  -34.2785   -5.3075 C   0  0  0  0  0  0  0  0  0  0  0  0
   27.3251  -34.9820   -6.3329 O   0  0  0  0  0  0  0  0  0  0  0  0
   23.6815  -33.8908   -4.6939 C   0  0  0  0  0  0  0  0  0  0  0  0
   22.8119  -33.0432   -5.0050 O   0  0  0  0  0  0  0  0  0  0  0  0
   28.4671  -34.2202   -4.5178 O   0  0  0  0  0  0  0  0  0  0  0  0
   23.4571  -34.6420   -3.5482 O   0  0  0  0  0  0  0  0  0  0  0  0
  2  1  1  6
  2  7  1  0
  2  3  1  0
  4  3  1  0
  4  5  1  0
  5  6  2  0
  5  9  1  0
  7  8  2  0
 10 11  1  0
 10  7  1  0
 11 12  1  1
 13 14  2  0
 13 12  1  0
 15 14  1  0
 16 15  2  0
 17 16  1  0
 17 18  2  0
 18 13  1  0
 19 11  1  0
 20 19  2  0
 21 19  1  0
 22 26  1  0
 22 21  1  0
 22 23  1  1
 23 24  1  0
 24 28  1  0
 24 25  2  0
 26 29  1  0
 27 26  2  0
M  END
$$$$
