EFD.pdb
     RDKit          3D

 29 29  0  0  1  0  0  0  0  0999 V2000
   28.5250  -23.2936  -16.6201 N   0  0  0  0  0  0  0  0  0  0  0  0
   27.7489  -22.0965  -16.6387 C   0  0  1  0  0  0  0  0  0  0  0  0
   26.7974  -22.0094  -17.8013 C   0  0  0  0  0  0  0  0  0  0  0  0
   27.4963  -21.7350  -19.1079 C   0  0  0  0  0  0  0  0  0  0  0  0
   28.1966  -20.4591  -19.1463 C   0  0  0  0  0  0  0  0  0  0  0  0
   27.6170  -19.4068  -18.8071 O   0  0  0  0  0  0  0  0  0  0  0  0
   26.9483  -22.0148  -15.3888 C   0  0  0  0  0  0  0  0  0  0  0  0
   26.5471  -23.0656  -14.7912 O   0  0  0  0  0  0  0  0  0  0  0  0
   29.5110  -20.3908  -19.5574 O   0  0  0  0  0  0  0  0  0  0  0  0
   26.5809  -20.7826  -14.7839 N   0  0  0  0  0  0  0  0  0  0  0  0
   25.7609  -20.7267  -13.5740 C   0  0  1  0  0  0  0  0  0  0  0  0
   26.3887  -19.6823  -12.6828 C   0  0  0  0  0  0  0  0  0  0  0  0
   27.5208  -20.2145  -11.9134 C   0  0  0  0  0  0  0  0  0  0  0  0
   27.3402  -20.8190  -10.6689 C   0  0  0  0  0  0  0  0  0  0  0  0
   28.3972  -21.3182   -9.9493 C   0  0  0  0  0  0  0  0  0  0  0  0
   29.6699  -21.2199  -10.4690 C   0  0  0  0  0  0  0  0  0  0  0  0
   29.8891  -20.6236  -11.7072 C   0  0  0  0  0  0  0  0  0  0  0  0
   28.8133  -20.1324  -12.4063 C   0  0  0  0  0  0  0  0  0  0  0  0
   24.3498  -20.4794  -13.8851 C   0  0  0  0  0  0  0  0  0  0  0  0
   23.9913  -19.5184  -14.6052 O   0  0  0  0  0  0  0  0  0  0  0  0
   23.3034  -21.3204  -13.3849 N   0  0  0  0  0  0  0  0  0  0  0  0
   21.8899  -21.0109  -13.6162 C   0  0  1  0  0  0  0  0  0  0  0  0
   21.0806  -22.2761  -13.6137 C   0  0  0  0  0  0  0  0  0  0  0  0
   21.1686  -22.9844  -14.8882 C   0  0  0  0  0  0  0  0  0  0  0  0
   21.7692  -22.4908  -15.8589 O   0  0  0  0  0  0  0  0  0  0  0  0
   21.4839  -20.0374  -12.5760 C   0  0  0  0  0  0  0  0  0  0  0  0
   22.0648  -20.0275  -11.4652 O   0  0  0  0  0  0  0  0  0  0  0  0
   20.5702  -24.2330  -15.0184 O   0  0  0  0  0  0  0  0  0  0  0  0
   20.4680  -19.1116  -12.7714 O   0  0  0  0  0  0  0  0  0  0  0  0
  2  1  1  1
  2  7  1  0
  2  3  1  0
  4  3  1  0
  4  5  1  0
  5  6  2  0
  5  9  1  0
  7  8  2  0
 10 11  1  0
 10  7  1  0
 11 12  1  1
 13 14  2  0
 13 12  1  0
 15 14  1  0
 16 15  2  0
 17 16  1  0
 17 18  2  0
 18 13  1  0
 19 11  1  0
 20 19  2  0
 21 19  1  0
 22 26  1  0
 22 21  1  0
 22 23  1  1
 23 24  1  0
 24 28  1  0
 24 25  2  0
 26 29  1  0
 27 26  2  0
M  END
$$$$
