EFD.pdb
     RDKit          3D

 29 29  0  0  1  0  0  0  0  0999 V2000
   29.0420  -22.0986  -12.9936 N   0  0  0  0  0  0  0  0  0  0  0  0
   28.9387  -20.8691  -12.2771 C   0  0  1  0  0  0  0  0  0  0  0  0
   28.8374  -19.6576  -13.1639 C   0  0  0  0  0  0  0  0  0  0  0  0
   27.6139  -19.6792  -14.0434 C   0  0  0  0  0  0  0  0  0  0  0  0
   27.5143  -18.5399  -14.9444 C   0  0  0  0  0  0  0  0  0  0  0  0
   26.4969  -18.3750  -15.6486 O   0  0  0  0  0  0  0  0  0  0  0  0
   27.7265  -20.9061  -11.4174 C   0  0  0  0  0  0  0  0  0  0  0  0
   26.7949  -21.7495  -11.6246 O   0  0  0  0  0  0  0  0  0  0  0  0
   28.5409  -17.6238  -15.0354 O   0  0  0  0  0  0  0  0  0  0  0  0
   27.5250  -20.0200  -10.3248 N   0  0  0  0  0  0  0  0  0  0  0  0
   26.2947  -20.0316   -9.5337 C   0  0  1  0  0  0  0  0  0  0  0  0
   26.4658  -18.9779   -8.4663 C   0  0  0  0  0  0  0  0  0  0  0  0
   27.0591  -19.5212   -7.2376 C   0  0  0  0  0  0  0  0  0  0  0  0
   26.9948  -20.8814   -6.9332 C   0  0  0  0  0  0  0  0  0  0  0  0
   27.5501  -21.3909   -5.7859 C   0  0  0  0  0  0  0  0  0  0  0  0
   28.1875  -20.5373   -4.9116 C   0  0  0  0  0  0  0  0  0  0  0  0
   28.2716  -19.1745   -5.1813 C   0  0  0  0  0  0  0  0  0  0  0  0
   27.7072  -18.6912   -6.3368 C   0  0  0  0  0  0  0  0  0  0  0  0
   25.1072  -19.8471  -10.3733 C   0  0  0  0  0  0  0  0  0  0  0  0
   25.0191  -18.9037  -11.1936 O   0  0  0  0  0  0  0  0  0  0  0  0
   23.9832  -20.7326  -10.3038 N   0  0  0  0  0  0  0  0  0  0  0  0
   22.8878  -20.6641  -11.2748 C   0  0  1  0  0  0  0  0  0  0  0  0
   23.0799  -21.7061  -12.3392 C   0  0  0  0  0  0  0  0  0  0  0  0
   21.9831  -21.7112  -13.3041 C   0  0  0  0  0  0  0  0  0  0  0  0
   21.4682  -20.6503  -13.6989 O   0  0  0  0  0  0  0  0  0  0  0  0
   21.6251  -20.8099  -10.5140 C   0  0  0  0  0  0  0  0  0  0  0  0
   20.5278  -20.8399  -11.1193 O   0  0  0  0  0  0  0  0  0  0  0  0
   21.5064  -22.9239  -13.7899 O   0  0  0  0  0  0  0  0  0  0  0  0
   21.5920  -20.9181   -9.1303 O   0  0  0  0  0  0  0  0  0  0  0  0
  2  1  1  6
  2  7  1  0
  2  3  1  0
  4  3  1  0
  4  5  1  0
  5  6  2  0
  5  9  1  0
  7  8  2  0
 10 11  1  0
 10  7  1  0
 11 12  1  1
 13 14  2  0
 13 12  1  0
 15 14  1  0
 16 15  2  0
 17 16  1  0
 17 18  2  0
 18 13  1  0
 19 11  1  0
 20 19  2  0
 21 19  1  0
 22 26  1  0
 22 21  1  0
 22 23  1  6
 23 24  1  0
 24 28  1  0
 24 25  2  0
 26 29  1  0
 27 26  2  0
M  END
$$$$
