EFD.pdb
     RDKit          3D

 29 29  0  0  1  0  0  0  0  0999 V2000
   28.3724  -22.6876  -17.8738 N   0  0  0  0  0  0  0  0  0  0  0  0
   27.6934  -21.4925  -17.4913 C   0  0  1  0  0  0  0  0  0  0  0  0
   26.7712  -20.9537  -18.5514 C   0  0  0  0  0  0  0  0  0  0  0  0
   27.5093  -20.2753  -19.6767 C   0  0  0  0  0  0  0  0  0  0  0  0
   28.3008  -21.1826  -20.4952 C   0  0  0  0  0  0  0  0  0  0  0  0
   27.7496  -21.9249  -21.3339 O   0  0  0  0  0  0  0  0  0  0  0  0
   26.8810  -21.7609  -16.2756 C   0  0  0  0  0  0  0  0  0  0  0  0
   26.0425  -22.7189  -16.2394 O   0  0  0  0  0  0  0  0  0  0  0  0
   29.6718  -21.2377  -20.3587 O   0  0  0  0  0  0  0  0  0  0  0  0
   26.9802  -20.9826  -15.0908 N   0  0  0  0  0  0  0  0  0  0  0  0
   26.1324  -21.2327  -13.9254 C   0  0  1  0  0  0  0  0  0  0  0  0
   26.7727  -20.5029  -12.7694 C   0  0  0  0  0  0  0  0  0  0  0  0
   26.0073  -20.6510  -11.5248 C   0  0  0  0  0  0  0  0  0  0  0  0
   25.0322  -19.7258  -11.1508 C   0  0  0  0  0  0  0  0  0  0  0  0
   24.3150  -19.8636   -9.9885 C   0  0  0  0  0  0  0  0  0  0  0  0
   24.5642  -20.9437   -9.1695 C   0  0  0  0  0  0  0  0  0  0  0  0
   25.5292  -21.8871   -9.5093 C   0  0  0  0  0  0  0  0  0  0  0  0
   26.2324  -21.7248  -10.6783 C   0  0  0  0  0  0  0  0  0  0  0  0
   24.7387  -20.8531  -14.1760 C   0  0  0  0  0  0  0  0  0  0  0  0
   24.4409  -19.7909  -14.7708 O   0  0  0  0  0  0  0  0  0  0  0  0
   23.6413  -21.6727  -13.7564 N   0  0  0  0  0  0  0  0  0  0  0  0
   22.2504  -21.2457  -13.9308 C   0  0  1  0  0  0  0  0  0  0  0  0
   21.6401  -21.9532  -15.1065 C   0  0  0  0  0  0  0  0  0  0  0  0
   20.2400  -21.5842  -15.3006 C   0  0  0  0  0  0  0  0  0  0  0  0
   19.3204  -22.2835  -14.8406 O   0  0  0  0  0  0  0  0  0  0  0  0
   21.5544  -21.5033  -12.6486 C   0  0  0  0  0  0  0  0  0  0  0  0
   21.9009  -22.4701  -11.9299 O   0  0  0  0  0  0  0  0  0  0  0  0
   19.9302  -20.4304  -16.0126 O   0  0  0  0  0  0  0  0  0  0  0  0
   20.5119  -20.7100  -12.1892 O   0  0  0  0  0  0  0  0  0  0  0  0
  2  1  1  6
  2  7  1  0
  2  3  1  0
  4  3  1  0
  4  5  1  0
  5  6  2  0
  5  9  1  0
  7  8  2  0
 10 11  1  0
 10  7  1  0
 11 12  1  1
 13 14  2  0
 13 12  1  0
 15 14  1  0
 16 15  2  0
 17 16  1  0
 17 18  2  0
 18 13  1  0
 19 11  1  0
 20 19  2  0
 21 19  1  0
 22 26  1  0
 22 21  1  0
 22 23  1  6
 23 24  1  0
 24 28  1  0
 24 25  2  0
 26 29  1  0
 27 26  2  0
M  END
$$$$
