EFD.pdb
     RDKit          3D

 29 29  0  0  1  0  0  0  0  0999 V2000
   28.6095  -22.0989  -16.7453 N   0  0  0  0  0  0  0  0  0  0  0  0
   27.7835  -20.9759  -16.4414 C   0  0  1  0  0  0  0  0  0  0  0  0
   26.8908  -20.5552  -17.5774 C   0  0  0  0  0  0  0  0  0  0  0  0
   27.6630  -20.1345  -18.8013 C   0  0  0  0  0  0  0  0  0  0  0  0
   26.8270  -19.6390  -19.8854 C   0  0  0  0  0  0  0  0  0  0  0  0
   27.3406  -19.2381  -20.9502 O   0  0  0  0  0  0  0  0  0  0  0  0
   26.9163  -21.3083  -15.2806 C   0  0  0  0  0  0  0  0  0  0  0  0
   26.5459  -22.5056  -15.0540 O   0  0  0  0  0  0  0  0  0  0  0  0
   25.4547  -19.6039  -19.7552 O   0  0  0  0  0  0  0  0  0  0  0  0
   26.4480  -20.3326  -14.3597 N   0  0  0  0  0  0  0  0  0  0  0  0
   25.7060  -20.6980  -13.1533 C   0  0  1  0  0  0  0  0  0  0  0  0
   26.3182  -19.9079  -12.0220 C   0  0  0  0  0  0  0  0  0  0  0  0
   27.6334  -20.4286  -11.6270 C   0  0  0  0  0  0  0  0  0  0  0  0
   27.7908  -21.2459  -10.5072 C   0  0  0  0  0  0  0  0  0  0  0  0
   29.0192  -21.7346  -10.1376 C   0  0  0  0  0  0  0  0  0  0  0  0
   30.1260  -21.4097  -10.8918 C   0  0  0  0  0  0  0  0  0  0  0  0
   30.0082  -20.5970  -12.0154 C   0  0  0  0  0  0  0  0  0  0  0  0
   28.7669  -20.1217  -12.3627 C   0  0  0  0  0  0  0  0  0  0  0  0
   24.2642  -20.4899  -13.3184 C   0  0  0  0  0  0  0  0  0  0  0  0
   23.7919  -19.3777  -13.6505 O   0  0  0  0  0  0  0  0  0  0  0  0
   23.3163  -21.5436  -13.1100 N   0  0  0  0  0  0  0  0  0  0  0  0
   21.8737  -21.3169  -13.2328 C   0  0  1  0  0  0  0  0  0  0  0  0
   21.1569  -22.6306  -13.3589 C   0  0  0  0  0  0  0  0  0  0  0  0
   19.7101  -22.4567  -13.4614 C   0  0  0  0  0  0  0  0  0  0  0  0
   19.1946  -21.3252  -13.4402 O   0  0  0  0  0  0  0  0  0  0  0  0
   21.4593  -20.5183  -12.0559 C   0  0  0  0  0  0  0  0  0  0  0  0
   20.5655  -19.6470  -12.1722 O   0  0  0  0  0  0  0  0  0  0  0  0
   18.8947  -23.5765  -13.5850 O   0  0  0  0  0  0  0  0  0  0  0  0
   22.0229  -20.6882  -10.7986 O   0  0  0  0  0  0  0  0  0  0  0  0
  2  1  1  6
  2  7  1  0
  2  3  1  0
  4  3  1  0
  4  5  1  0
  5  6  2  0
  5  9  1  0
  7  8  2  0
 10 11  1  0
 10  7  1  0
 11 12  1  1
 13 14  2  0
 13 12  1  0
 15 14  1  0
 16 15  2  0
 17 16  1  0
 17 18  2  0
 18 13  1  0
 19 11  1  0
 20 19  2  0
 21 19  1  0
 22 26  1  0
 22 21  1  0
 22 23  1  1
 23 24  1  0
 24 28  1  0
 24 25  2  0
 26 29  1  0
 27 26  2  0
M  END
$$$$
