EFD.pdb
     RDKit          3D

 29 29  0  0  1  0  0  0  0  0999 V2000
   20.5122  -10.9686  -17.5482 N   0  0  0  0  0  0  0  0  0  0  0  0
   20.0384   -9.6812  -17.9405 C   0  0  1  0  0  0  0  0  0  0  0  0
   18.8690   -9.7282  -18.8865 C   0  0  0  0  0  0  0  0  0  0  0  0
   17.8106  -10.7115  -18.4573 C   0  0  0  0  0  0  0  0  0  0  0  0
   16.4764  -10.3930  -18.9451 C   0  0  0  0  0  0  0  0  0  0  0  0
   15.5021  -11.1128  -18.6437 O   0  0  0  0  0  0  0  0  0  0  0  0
   19.6147   -8.9281  -16.7308 C   0  0  0  0  0  0  0  0  0  0  0  0
   18.8084   -9.4353  -15.8854 O   0  0  0  0  0  0  0  0  0  0  0  0
   16.2656   -9.2917  -19.7477 O   0  0  0  0  0  0  0  0  0  0  0  0
   20.0701   -7.6143  -16.4379 N   0  0  0  0  0  0  0  0  0  0  0  0
   19.6790   -6.9124  -15.2157 C   0  0  1  0  0  0  0  0  0  0  0  0
   20.9600   -6.5632  -14.4974 C   0  0  0  0  0  0  0  0  0  0  0  0
   21.5555   -7.7249  -13.8246 C   0  0  0  0  0  0  0  0  0  0  0  0
   22.5984   -8.4501  -14.4020 C   0  0  0  0  0  0  0  0  0  0  0  0
   23.1570   -9.5352  -13.7737 C   0  0  0  0  0  0  0  0  0  0  0  0
   22.6755   -9.9188  -12.5406 C   0  0  0  0  0  0  0  0  0  0  0  0
   21.6364   -9.2200  -11.9333 C   0  0  0  0  0  0  0  0  0  0  0  0
   21.0957   -8.1378  -12.5843 C   0  0  0  0  0  0  0  0  0  0  0  0
   18.8193   -5.7600  -15.5025 C   0  0  0  0  0  0  0  0  0  0  0  0
   19.0955   -4.9401  -16.4091 O   0  0  0  0  0  0  0  0  0  0  0  0
   17.6178   -5.5068  -14.7646 N   0  0  0  0  0  0  0  0  0  0  0  0
   16.7712   -4.3445  -15.0469 C   0  0  1  0  0  0  0  0  0  0  0  0
   15.3681   -4.6060  -14.5796 C   0  0  0  0  0  0  0  0  0  0  0  0
   14.5143   -3.4299  -14.7268 C   0  0  0  0  0  0  0  0  0  0  0  0
   14.0256   -2.8610  -13.7348 O   0  0  0  0  0  0  0  0  0  0  0  0
   17.4108   -3.1756  -14.3993 C   0  0  0  0  0  0  0  0  0  0  0  0
   16.9078   -2.0345  -14.5270 O   0  0  0  0  0  0  0  0  0  0  0  0
   14.2431   -2.9377  -15.9989 O   0  0  0  0  0  0  0  0  0  0  0  0
   18.5676   -3.2799  -13.6388 O   0  0  0  0  0  0  0  0  0  0  0  0
  2  1  1  1
  2  7  1  0
  2  3  1  0
  4  3  1  0
  4  5  1  0
  5  6  2  0
  5  9  1  0
  7  8  2  0
 10 11  1  0
 10  7  1  0
 11 12  1  6
 13 14  2  0
 13 12  1  0
 15 14  1  0
 16 15  2  0
 17 16  1  0
 17 18  2  0
 18 13  1  0
 19 11  1  0
 20 19  2  0
 21 19  1  0
 22 26  1  0
 22 21  1  0
 22 23  1  1
 23 24  1  0
 24 28  1  0
 24 25  2  0
 26 29  1  0
 27 26  2  0
M  END
$$$$
