EFD.pdb
     RDKit          3D

 29 29  0  0  1  0  0  0  0  0999 V2000
   23.8869  -13.6070  -16.8412 N   0  0  0  0  0  0  0  0  0  0  0  0
   22.9991  -12.6798  -17.4638 C   0  0  1  0  0  0  0  0  0  0  0  0
   21.5617  -13.1250  -17.4660 C   0  0  0  0  0  0  0  0  0  0  0  0
   21.3899  -14.5396  -17.9566 C   0  0  0  0  0  0  0  0  0  0  0  0
   20.0005  -14.9569  -18.0804 C   0  0  0  0  0  0  0  0  0  0  0  0
   19.0750  -14.1865  -17.7513 O   0  0  0  0  0  0  0  0  0  0  0  0
   23.0712  -11.3792  -16.7473 C   0  0  0  0  0  0  0  0  0  0  0  0
   23.0362  -11.3227  -15.4755 O   0  0  0  0  0  0  0  0  0  0  0  0
   19.6829  -16.2089  -18.5629 O   0  0  0  0  0  0  0  0  0  0  0  0
   23.1817  -10.1311  -17.4177 N   0  0  0  0  0  0  0  0  0  0  0  0
   23.1851   -8.8599  -16.6942 C   0  0  1  0  0  0  0  0  0  0  0  0
   24.5545   -8.2582  -16.8984 C   0  0  0  0  0  0  0  0  0  0  0  0
   25.6195   -9.0898  -16.3228 C   0  0  0  0  0  0  0  0  0  0  0  0
   25.7074   -9.3190  -14.9493 C   0  0  0  0  0  0  0  0  0  0  0  0
   26.7013  -10.0972  -14.4100 C   0  0  0  0  0  0  0  0  0  0  0  0
   27.6369  -10.6669  -15.2464 C   0  0  0  0  0  0  0  0  0  0  0  0
   27.5816  -10.4608  -16.6217 C   0  0  0  0  0  0  0  0  0  0  0  0
   26.5763   -9.6777  -17.1348 C   0  0  0  0  0  0  0  0  0  0  0  0
   22.0805   -7.9926  -17.1148 C   0  0  0  0  0  0  0  0  0  0  0  0
   21.9220   -7.6599  -18.3126 O   0  0  0  0  0  0  0  0  0  0  0  0
   21.1223   -7.4777  -16.1827 N   0  0  0  0  0  0  0  0  0  0  0  0
   20.0487   -6.5730  -16.6026 C   0  0  1  0  0  0  0  0  0  0  0  0
   18.7194   -7.1143  -16.1607 C   0  0  0  0  0  0  0  0  0  0  0  0
   18.6314   -7.2295  -14.7071 C   0  0  0  0  0  0  0  0  0  0  0  0
   19.0644   -8.2327  -14.1135 O   0  0  0  0  0  0  0  0  0  0  0  0
   20.3665   -5.2368  -16.0474 C   0  0  0  0  0  0  0  0  0  0  0  0
   19.7106   -4.2332  -16.4133 O   0  0  0  0  0  0  0  0  0  0  0  0
   18.0531   -6.1987  -13.9741 O   0  0  0  0  0  0  0  0  0  0  0  0
   21.3785   -5.0322  -15.1192 O   0  0  0  0  0  0  0  0  0  0  0  0
  2  1  1  1
  2  7  1  0
  2  3  1  0
  4  3  1  0
  4  5  1  0
  5  6  2  0
  5  9  1  0
  7  8  2  0
 10 11  1  0
 10  7  1  0
 11 12  1  6
 13 14  2  0
 13 12  1  0
 15 14  1  0
 16 15  2  0
 17 16  1  0
 17 18  2  0
 18 13  1  0
 19 11  1  0
 20 19  2  0
 21 19  1  0
 22 26  1  0
 22 21  1  0
 22 23  1  1
 23 24  1  0
 24 28  1  0
 24 25  2  0
 26 29  1  0
 27 26  2  0
M  END
$$$$
