EFD.pdb
     RDKit          3D

 29 29  0  0  1  0  0  0  0  0999 V2000
   28.5775  -21.6477  -16.9030 N   0  0  0  0  0  0  0  0  0  0  0  0
   27.2180  -22.0202  -17.1239 C   0  0  1  0  0  0  0  0  0  0  0  0
   27.0576  -23.3548  -17.8004 C   0  0  0  0  0  0  0  0  0  0  0  0
   28.2519  -23.7310  -18.6390 C   0  0  0  0  0  0  0  0  0  0  0  0
   28.5808  -22.7559  -19.6689 C   0  0  0  0  0  0  0  0  0  0  0  0
   29.6692  -22.8181  -20.2770 O   0  0  0  0  0  0  0  0  0  0  0  0
   26.5116  -22.0847  -15.8175 C   0  0  0  0  0  0  0  0  0  0  0  0
   25.4885  -22.8258  -15.6555 O   0  0  0  0  0  0  0  0  0  0  0  0
   27.6968  -21.7477  -19.9905 O   0  0  0  0  0  0  0  0  0  0  0  0
   26.9196  -21.3386  -14.6791 N   0  0  0  0  0  0  0  0  0  0  0  0
   26.1392  -21.3221  -13.4421 C   0  0  1  0  0  0  0  0  0  0  0  0
   27.0671  -20.8240  -12.3605 C   0  0  0  0  0  0  0  0  0  0  0  0
   26.3801  -20.6497  -11.0743 C   0  0  0  0  0  0  0  0  0  0  0  0
   25.9774  -21.7423  -10.3056 C   0  0  0  0  0  0  0  0  0  0  0  0
   25.3365  -21.5809   -9.1025 C   0  0  0  0  0  0  0  0  0  0  0  0
   25.0840  -20.3069   -8.6415 C   0  0  0  0  0  0  0  0  0  0  0  0
   25.4707  -19.1927   -9.3804 C   0  0  0  0  0  0  0  0  0  0  0  0
   26.1105  -19.3830  -10.5811 C   0  0  0  0  0  0  0  0  0  0  0  0
   24.9098  -20.5365  -13.5858 C   0  0  0  0  0  0  0  0  0  0  0  0
   24.9264  -19.3561  -14.0064 O   0  0  0  0  0  0  0  0  0  0  0  0
   23.6232  -21.0725  -13.2546 N   0  0  0  0  0  0  0  0  0  0  0  0
   22.3982  -20.2823  -13.4040 C   0  0  1  0  0  0  0  0  0  0  0  0
   21.8958  -20.3767  -14.8162 C   0  0  0  0  0  0  0  0  0  0  0  0
   20.5961  -19.7300  -14.9789 C   0  0  0  0  0  0  0  0  0  0  0  0
   20.2827  -18.7353  -14.3016 O   0  0  0  0  0  0  0  0  0  0  0  0
   21.4371  -20.7779  -12.3914 C   0  0  0  0  0  0  0  0  0  0  0  0
   21.5242  -21.9541  -11.9665 O   0  0  0  0  0  0  0  0  0  0  0  0
   19.6930  -20.2358  -15.9078 O   0  0  0  0  0  0  0  0  0  0  0  0
   20.4188  -19.9882  -11.8748 O   0  0  0  0  0  0  0  0  0  0  0  0
  2  1  1  1
  2  7  1  0
  2  3  1  0
  4  3  1  0
  4  5  1  0
  5  6  2  0
  5  9  1  0
  7  8  2  0
 10 11  1  0
 10  7  1  0
 11 12  1  1
 13 14  2  0
 13 12  1  0
 15 14  1  0
 16 15  2  0
 17 16  1  0
 17 18  2  0
 18 13  1  0
 19 11  1  0
 20 19  2  0
 21 19  1  0
 22 26  1  0
 22 21  1  0
 22 23  1  6
 23 24  1  0
 24 28  1  0
 24 25  2  0
 26 29  1  0
 27 26  2  0
M  END
$$$$
