EFD.pdb
     RDKit          3D

 29 29  0  0  1  0  0  0  0  0999 V2000
   28.7363  -22.5819  -16.8167 N   0  0  0  0  0  0  0  0  0  0  0  0
   28.1597  -21.3255  -16.4637 C   0  0  1  0  0  0  0  0  0  0  0  0
   27.3721  -20.6864  -17.5754 C   0  0  0  0  0  0  0  0  0  0  0  0
   28.2448  -20.1995  -18.7034 C   0  0  0  0  0  0  0  0  0  0  0  0
   28.2665  -18.7512  -18.8502 C   0  0  0  0  0  0  0  0  0  0  0  0
   27.5473  -18.0296  -18.1289 O   0  0  0  0  0  0  0  0  0  0  0  0
   27.2432  -21.5167  -15.3090 C   0  0  0  0  0  0  0  0  0  0  0  0
   26.6311  -22.6186  -15.1266 O   0  0  0  0  0  0  0  0  0  0  0  0
   29.0811  -18.1517  -19.7874 O   0  0  0  0  0  0  0  0  0  0  0  0
   26.9900  -20.5033  -14.3455 N   0  0  0  0  0  0  0  0  0  0  0  0
   26.1759  -20.7505  -13.1557 C   0  0  1  0  0  0  0  0  0  0  0  0
   26.7521  -19.8873  -12.0595 C   0  0  0  0  0  0  0  0  0  0  0  0
   27.8915  -20.5263  -11.3884 C   0  0  0  0  0  0  0  0  0  0  0  0
   29.1128  -20.7120  -12.0369 C   0  0  0  0  0  0  0  0  0  0  0  0
   30.1790  -21.3078  -11.4105 C   0  0  0  0  0  0  0  0  0  0  0  0
   30.0400  -21.7340  -10.1073 C   0  0  0  0  0  0  0  0  0  0  0  0
   28.8371  -21.5660   -9.4278 C   0  0  0  0  0  0  0  0  0  0  0  0
   27.7862  -20.9665  -10.0786 C   0  0  0  0  0  0  0  0  0  0  0  0
   24.7515  -20.5195  -13.4144 C   0  0  0  0  0  0  0  0  0  0  0  0
   24.3504  -19.5162  -14.0494 O   0  0  0  0  0  0  0  0  0  0  0  0
   23.7401  -21.4252  -12.9574 N   0  0  0  0  0  0  0  0  0  0  0  0
   22.3213  -21.2079  -13.2526 C   0  0  1  0  0  0  0  0  0  0  0  0
   21.6464  -22.5219  -13.5232 C   0  0  0  0  0  0  0  0  0  0  0  0
   20.2230  -22.3576  -13.8077 C   0  0  0  0  0  0  0  0  0  0  0  0
   19.7870  -21.3167  -14.3302 O   0  0  0  0  0  0  0  0  0  0  0  0
   21.7493  -20.4650  -12.1056 C   0  0  0  0  0  0  0  0  0  0  0  0
   22.2334  -20.6120  -10.9587 O   0  0  0  0  0  0  0  0  0  0  0  0
   19.3398  -23.3834  -13.4886 O   0  0  0  0  0  0  0  0  0  0  0  0
   20.6777  -19.5922  -12.2373 O   0  0  0  0  0  0  0  0  0  0  0  0
  2  1  1  6
  2  7  1  0
  2  3  1  0
  4  3  1  0
  4  5  1  0
  5  6  2  0
  5  9  1  0
  7  8  2  0
 10 11  1  0
 10  7  1  0
 11 12  1  1
 13 14  2  0
 13 12  1  0
 15 14  1  0
 16 15  2  0
 17 16  1  0
 17 18  2  0
 18 13  1  0
 19 11  1  0
 20 19  2  0
 21 19  1  0
 22 26  1  0
 22 21  1  0
 22 23  1  1
 23 24  1  0
 24 28  1  0
 24 25  2  0
 26 29  1  0
 27 26  2  0
M  END
$$$$
