EFD.pdb
     RDKit          3D

 29 29  0  0  1  0  0  0  0  0999 V2000
   26.4876  -21.2361  -13.8864 N   0  0  0  0  0  0  0  0  0  0  0  0
   25.6555  -20.3651  -13.1218 C   0  0  1  0  0  0  0  0  0  0  0  0
   24.2094  -20.3892  -13.5374 C   0  0  0  0  0  0  0  0  0  0  0  0
   24.0123  -20.9221  -14.9332 C   0  0  0  0  0  0  0  0  0  0  0  0
   24.4715  -20.0201  -15.9798 C   0  0  0  0  0  0  0  0  0  0  0  0
   25.2859  -20.4105  -16.8415 O   0  0  0  0  0  0  0  0  0  0  0  0
   25.7237  -20.7581  -11.6898 C   0  0  0  0  0  0  0  0  0  0  0  0
   25.4145  -21.9344  -11.3120 O   0  0  0  0  0  0  0  0  0  0  0  0
   24.0152  -18.7202  -16.0375 O   0  0  0  0  0  0  0  0  0  0  0  0
   26.1306  -19.8664  -10.6608 N   0  0  0  0  0  0  0  0  0  0  0  0
   26.1783  -20.2728   -9.2565 C   0  0  1  0  0  0  0  0  0  0  0  0
   27.1580  -19.3457   -8.5787 C   0  0  0  0  0  0  0  0  0  0  0  0
   27.3611  -19.6873   -7.1648 C   0  0  0  0  0  0  0  0  0  0  0  0
   28.0569  -20.8345   -6.7818 C   0  0  0  0  0  0  0  0  0  0  0  0
   28.2488  -21.1544   -5.4607 C   0  0  0  0  0  0  0  0  0  0  0  0
   27.7411  -20.3213   -4.4872 C   0  0  0  0  0  0  0  0  0  0  0  0
   27.0417  -19.1682   -4.8309 C   0  0  0  0  0  0  0  0  0  0  0  0
   26.8642  -18.8720   -6.1606 C   0  0  0  0  0  0  0  0  0  0  0  0
   24.8443  -20.2838   -8.6486 C   0  0  0  0  0  0  0  0  0  0  0  0
   24.0513  -19.3222   -8.7800 O   0  0  0  0  0  0  0  0  0  0  0  0
   24.3729  -21.3914   -7.8719 N   0  0  0  0  0  0  0  0  0  0  0  0
   23.0367  -21.3969   -7.2704 C   0  0  1  0  0  0  0  0  0  0  0  0
   22.0881  -22.1771   -8.1346 C   0  0  0  0  0  0  0  0  0  0  0  0
   21.1606  -21.3067   -8.8531 C   0  0  0  0  0  0  0  0  0  0  0  0
   21.1562  -20.0772   -8.6668 O   0  0  0  0  0  0  0  0  0  0  0  0
   23.1815  -21.9380   -5.8989 C   0  0  0  0  0  0  0  0  0  0  0  0
   23.9991  -22.8606   -5.6716 O   0  0  0  0  0  0  0  0  0  0  0  0
   20.2667  -21.8630   -9.7617 O   0  0  0  0  0  0  0  0  0  0  0  0
   22.4404  -21.4651   -4.8244 O   0  0  0  0  0  0  0  0  0  0  0  0
  2  1  1  6
  2  7  1  0
  2  3  1  0
  4  3  1  0
  4  5  1  0
  5  6  2  0
  5  9  1  0
  7  8  2  0
 10 11  1  0
 10  7  1  0
 11 12  1  1
 13 14  2  0
 13 12  1  0
 15 14  1  0
 16 15  2  0
 17 16  1  0
 17 18  2  0
 18 13  1  0
 19 11  1  0
 20 19  2  0
 21 19  1  0
 22 26  1  0
 22 21  1  0
 22 23  1  6
 23 24  1  0
 24 28  1  0
 24 25  2  0
 26 29  1  0
 27 26  2  0
M  END
$$$$
