TSE.pdb
     RDKit          3D

 23 22  0  0  1  0  0  0  0  0999 V2000
   23.3341   -9.0284  -19.9738 C   0  0  0  0  0  0  0  0  0  0  0  0
   22.0861   -9.7652  -20.4194 C   0  0  1  0  0  0  0  0  0  0  0  0
   22.3200  -10.3516  -21.6369 O   0  0  0  0  0  0  0  0  0  0  0  0
   21.7095  -10.7449  -19.3428 C   0  0  2  0  0  0  0  0  0  0  0  0
   20.6919  -11.6354  -19.8641 N   0  0  0  0  0  0  0  0  0  0  0  0
   21.2579  -10.1041  -18.1053 C   0  0  0  0  0  0  0  0  0  0  0  0
   20.3075   -9.3027  -18.0117 O   0  0  0  0  0  0  0  0  0  0  0  0
   22.0460   -9.7129  -13.2668 O   0  0  0  0  0  0  0  0  0  0  0  0
   22.3210  -10.4024  -14.4487 C   0  0  0  0  0  0  0  0  0  0  0  0
   21.5990   -9.7839  -15.6296 C   0  0  2  0  0  0  0  0  0  0  0  0
   21.9475  -10.4032  -16.8758 N   0  0  0  0  0  0  0  0  0  0  0  0
   22.0542   -8.3698  -15.6982 C   0  0  0  0  0  0  0  0  0  0  0  0
   23.1557   -8.0854  -16.2284 O   0  0  0  0  0  0  0  0  0  0  0  0
   21.3088   -7.2849  -15.1913 N   0  0  0  0  0  0  0  0  0  0  0  0
   21.7844   -5.9083  -15.2458 C   0  0  1  0  0  0  0  0  0  0  0  0
   20.8910   -5.0291  -16.0501 C   0  0  0  0  0  0  0  0  0  0  0  0
   21.2814   -3.5970  -16.1463 C   0  0  0  0  0  0  0  0  0  0  0  0
   20.3412   -2.7531  -16.9059 C   0  0  0  0  0  0  0  0  0  0  0  0
   19.3257   -3.1502  -17.4994 O   0  0  0  0  0  0  0  0  0  0  0  0
   22.0190   -5.4483  -13.8685 C   0  0  0  0  0  0  0  0  0  0  0  0
   21.5122   -6.0705  -12.9168 O   0  0  0  0  0  0  0  0  0  0  0  0
   20.6064   -1.3778  -16.9711 O   0  0  0  0  0  0  0  0  0  0  0  0
   22.7946   -4.3276  -13.5476 O   0  0  0  0  0  0  0  0  0  0  0  0
  2  1  1  1
  2  3  1  0
  4  2  1  0
  4  5  1  6
  6  4  1  0
  7  6  2  0
  9  8  1  0
 10  9  1  1
 10 11  1  0
 10 12  1  0
 11  6  1  0
 12 14  1  0
 13 12  2  0
 14 15  1  0
 15 16  1  1
 15 20  1  0
 16 17  1  0
 17 18  1  0
 18 22  1  0
 19 18  2  0
 20 23  1  0
 21 20  2  0
M  END
$$$$
