TSE.pdb
     RDKit          3D

 23 22  0  0  1  0  0  0  0  0999 V2000
   15.3831   -7.7287  -13.4116 C   0  0  0  0  0  0  0  0  0  0  0  0
   15.2400   -8.1563  -11.9639 C   0  0  1  0  0  0  0  0  0  0  0  0
   13.9410   -8.5288  -11.7306 O   0  0  0  0  0  0  0  0  0  0  0  0
   16.2363   -9.2503  -11.6967 C   0  0  2  0  0  0  0  0  0  0  0  0
   16.0137   -9.7610  -10.3589 N   0  0  0  0  0  0  0  0  0  0  0  0
   17.6275   -8.8247  -11.8681 C   0  0  0  0  0  0  0  0  0  0  0  0
   18.2447   -8.0504  -11.1107 O   0  0  0  0  0  0  0  0  0  0  0  0
   19.6273  -10.1944  -15.2906 O   0  0  0  0  0  0  0  0  0  0  0  0
   20.4332   -9.9470  -14.1784 C   0  0  0  0  0  0  0  0  0  0  0  0
   19.7559   -9.0033  -13.2043 C   0  0  2  0  0  0  0  0  0  0  0  0
   18.3735   -9.3242  -12.9953 N   0  0  0  0  0  0  0  0  0  0  0  0
   19.8052   -7.6559  -13.8319 C   0  0  0  0  0  0  0  0  0  0  0  0
   18.8148   -7.2175  -14.4659 O   0  0  0  0  0  0  0  0  0  0  0  0
   20.9271   -6.8037  -13.7628 N   0  0  0  0  0  0  0  0  0  0  0  0
   20.9712   -5.5044  -14.4216 C   0  0  1  0  0  0  0  0  0  0  0  0
   19.7867   -4.6617  -14.0976 C   0  0  0  0  0  0  0  0  0  0  0  0
   19.7717   -3.2898  -14.6722 C   0  0  0  0  0  0  0  0  0  0  0  0
   18.7064   -2.4156  -14.1487 C   0  0  0  0  0  0  0  0  0  0  0  0
   17.8315   -2.7461  -13.3324 O   0  0  0  0  0  0  0  0  0  0  0  0
   22.2684   -4.8800  -14.1200 C   0  0  0  0  0  0  0  0  0  0  0  0
   22.9235   -5.2665  -13.1343 O   0  0  0  0  0  0  0  0  0  0  0  0
   18.6674   -1.0905  -14.6056 O   0  0  0  0  0  0  0  0  0  0  0  0
   22.8310   -3.8529  -14.8875 O   0  0  0  0  0  0  0  0  0  0  0  0
  2  1  1  6
  2  3  1  0
  4  2  1  0
  4  5  1  1
  6  4  1  0
  7  6  2  0
  9  8  1  0
 10  9  1  6
 10 11  1  0
 10 12  1  0
 11  6  1  0
 12 14  1  0
 13 12  2  0
 14 15  1  0
 15 16  1  1
 15 20  1  0
 16 17  1  0
 17 18  1  0
 18 22  1  0
 19 18  2  0
 20 23  1  0
 21 20  2  0
M  END
$$$$
