TSE.pdb
     RDKit          3D

 23 22  0  0  1  0  0  0  0  0999 V2000
   19.2734  -10.4867  -14.5754 C   0  0  0  0  0  0  0  0  0  0  0  0
   18.7315  -10.7386  -15.9689 C   0  0  1  0  0  0  0  0  0  0  0  0
   18.4654  -12.0761  -16.1137 O   0  0  0  0  0  0  0  0  0  0  0  0
   17.5273   -9.8610  -16.1703 C   0  0  2  0  0  0  0  0  0  0  0  0
   16.8318  -10.2979  -17.3642 N   0  0  0  0  0  0  0  0  0  0  0  0
   17.8535   -8.4349  -16.2487 C   0  0  0  0  0  0  0  0  0  0  0  0
   18.6409   -7.9177  -17.0651 O   0  0  0  0  0  0  0  0  0  0  0  0
   16.2865   -5.8544  -13.2637 O   0  0  0  0  0  0  0  0  0  0  0  0
   16.4710   -5.3248  -14.5418 C   0  0  0  0  0  0  0  0  0  0  0  0
   17.4982   -6.1179  -15.3254 C   0  0  2  0  0  0  0  0  0  0  0  0
   17.2295   -7.5270  -15.3199 N   0  0  0  0  0  0  0  0  0  0  0  0
   18.7966   -5.9145  -14.6291 C   0  0  0  0  0  0  0  0  0  0  0  0
   19.3530   -6.8713  -14.0374 O   0  0  0  0  0  0  0  0  0  0  0  0
   19.4725   -4.6773  -14.5847 N   0  0  0  0  0  0  0  0  0  0  0  0
   20.8850   -4.5630  -14.2439 C   0  0  1  0  0  0  0  0  0  0  0  0
   21.7347   -5.5133  -15.0139 C   0  0  0  0  0  0  0  0  0  0  0  0
   23.2034   -5.4124  -14.8004 C   0  0  0  0  0  0  0  0  0  0  0  0
   24.0031   -6.3956  -15.5533 C   0  0  0  0  0  0  0  0  0  0  0  0
   25.2420   -6.4186  -15.6292 O   0  0  0  0  0  0  0  0  0  0  0  0
   21.2755   -3.1506  -14.3707 C   0  0  0  0  0  0  0  0  0  0  0  0
   22.2153   -2.7076  -13.6848 O   0  0  0  0  0  0  0  0  0  0  0  0
   23.3148   -7.3992  -16.2499 O   0  0  0  0  0  0  0  0  0  0  0  0
   20.6442   -2.2468  -15.2340 O   0  0  0  0  0  0  0  0  0  0  0  0
  2  1  1  1
  2  3  1  0
  4  2  1  0
  4  5  1  6
  6  4  1  0
  7  6  2  0
  9  8  1  0
 10  9  1  1
 10 11  1  0
 10 12  1  0
 11  6  1  0
 12 14  1  0
 13 12  2  0
 14 15  1  0
 15 16  1  6
 15 20  1  0
 16 17  1  0
 17 18  1  0
 18 22  1  0
 19 18  2  0
 20 23  1  0
 21 20  2  0
M  END
$$$$
