TSE.pdb
     RDKit          3D

 23 22  0  0  1  0  0  0  0  0999 V2000
   23.1309  -13.9549  -19.1185 C   0  0  0  0  0  0  0  0  0  0  0  0
   22.5565  -14.9569  -18.1362 C   0  0  1  0  0  0  0  0  0  0  0  0
   22.2432  -16.1132  -18.8037 O   0  0  0  0  0  0  0  0  0  0  0  0
   23.5544  -15.1538  -17.0288 C   0  0  2  0  0  0  0  0  0  0  0  0
   23.1086  -16.2524  -16.1954 N   0  0  0  0  0  0  0  0  0  0  0  0
   23.7790  -13.9485  -16.2271 C   0  0  0  0  0  0  0  0  0  0  0  0
   22.9652  -13.4538  -15.4226 O   0  0  0  0  0  0  0  0  0  0  0  0
   26.9455  -10.3199  -15.2277 O   0  0  0  0  0  0  0  0  0  0  0  0
   26.7120  -11.5158  -15.9083 C   0  0  0  0  0  0  0  0  0  0  0  0
   25.3021  -12.0199  -15.6716 C   0  0  2  0  0  0  0  0  0  0  0  0
   25.0344  -13.2527  -16.3547 N   0  0  0  0  0  0  0  0  0  0  0  0
   24.3935  -10.9921  -16.2459 C   0  0  0  0  0  0  0  0  0  0  0  0
   24.1838  -10.9541  -17.4827 O   0  0  0  0  0  0  0  0  0  0  0  0
   23.7258  -10.0207  -15.4711 N   0  0  0  0  0  0  0  0  0  0  0  0
   22.8073   -9.0475  -16.0485 C   0  0  1  0  0  0  0  0  0  0  0  0
   21.4725   -9.0634  -15.3881 C   0  0  0  0  0  0  0  0  0  0  0  0
   20.4758   -8.0764  -15.8832 C   0  0  0  0  0  0  0  0  0  0  0  0
   19.2096   -8.0500  -15.1288 C   0  0  0  0  0  0  0  0  0  0  0  0
   18.9151   -8.7920  -14.1781 O   0  0  0  0  0  0  0  0  0  0  0  0
   23.4723   -7.7355  -16.0550 C   0  0  0  0  0  0  0  0  0  0  0  0
   24.5182   -7.5721  -15.3997 O   0  0  0  0  0  0  0  0  0  0  0  0
   18.2439   -7.1073  -15.5092 O   0  0  0  0  0  0  0  0  0  0  0  0
   22.9953   -6.6287  -16.7675 O   0  0  0  0  0  0  0  0  0  0  0  0
  2  1  1  6
  2  3  1  0
  4  2  1  0
  4  5  1  1
  6  4  1  0
  7  6  2  0
  9  8  1  0
 10  9  1  6
 10 11  1  0
 10 12  1  0
 11  6  1  0
 12 14  1  0
 13 12  2  0
 14 15  1  0
 15 16  1  1
 15 20  1  0
 16 17  1  0
 17 18  1  0
 18 22  1  0
 19 18  2  0
 20 23  1  0
 21 20  2  0
M  END
$$$$
