TSE.pdb
     RDKit          3D

 23 22  0  0  1  0  0  0  0  0999 V2000
   18.1113   -9.6401  -17.9090 C   0  0  0  0  0  0  0  0  0  0  0  0
   17.2626  -10.3938  -16.9036 C   0  0  1  0  0  0  0  0  0  0  0  0
   16.3076  -11.1161  -17.5722 O   0  0  0  0  0  0  0  0  0  0  0  0
   18.1749  -11.2400  -16.0595 C   0  0  2  0  0  0  0  0  0  0  0  0
   17.3650  -12.1450  -15.2688 N   0  0  0  0  0  0  0  0  0  0  0  0
   19.0685  -10.4561  -15.2034 C   0  0  0  0  0  0  0  0  0  0  0  0
   18.7065   -9.7078  -14.2743 O   0  0  0  0  0  0  0  0  0  0  0  0
   23.1639  -10.4833  -16.1662 O   0  0  0  0  0  0  0  0  0  0  0  0
   22.8551  -10.2656  -14.8226 C   0  0  0  0  0  0  0  0  0  0  0  0
   21.4310   -9.7732  -14.6559 C   0  0  2  0  0  0  0  0  0  0  0  0
   20.4900  -10.5336  -15.4266 N   0  0  0  0  0  0  0  0  0  0  0  0
   21.4100   -8.3826  -15.1826 C   0  0  0  0  0  0  0  0  0  0  0  0
   21.0168   -8.1559  -16.3527 O   0  0  0  0  0  0  0  0  0  0  0  0
   21.8152   -7.2584  -14.4331 N   0  0  0  0  0  0  0  0  0  0  0  0
   21.6933   -5.8940  -14.9310 C   0  0  1  0  0  0  0  0  0  0  0  0
   20.2946   -5.5491  -15.3090 C   0  0  0  0  0  0  0  0  0  0  0  0
   20.0284   -4.1225  -15.6352 C   0  0  0  0  0  0  0  0  0  0  0  0
   18.6309   -3.8253  -15.9984 C   0  0  0  0  0  0  0  0  0  0  0  0
   18.0896   -4.0941  -17.0828 O   0  0  0  0  0  0  0  0  0  0  0  0
   22.3027   -4.9887  -13.9448 C   0  0  0  0  0  0  0  0  0  0  0  0
   22.5071   -5.3902  -12.7842 O   0  0  0  0  0  0  0  0  0  0  0  0
   17.8317   -3.1822  -15.0425 O   0  0  0  0  0  0  0  0  0  0  0  0
   22.6782   -3.6707  -14.2314 O   0  0  0  0  0  0  0  0  0  0  0  0
  2  1  1  6
  2  3  1  0
  4  2  1  0
  4  5  1  1
  6  4  1  0
  7  6  2  0
  9  8  1  0
 10  9  1  6
 10 11  1  0
 10 12  1  0
 11  6  1  0
 12 14  1  0
 13 12  2  0
 14 15  1  0
 15 16  1  1
 15 20  1  0
 16 17  1  0
 17 18  1  0
 18 22  1  0
 19 18  2  0
 20 23  1  0
 21 20  2  0
M  END
$$$$
