TSE.pdb
     RDKit          3D

 23 22  0  0  1  0  0  0  0  0999 V2000
   20.1593  -12.5207  -20.8066 C   0  0  0  0  0  0  0  0  0  0  0  0
   21.0642  -13.0852  -19.7289 C   0  0  1  0  0  0  0  0  0  0  0  0
   21.7854  -14.1298  -20.2479 O   0  0  0  0  0  0  0  0  0  0  0  0
   21.9202  -11.9672  -19.2014 C   0  0  2  0  0  0  0  0  0  0  0  0
   22.9290  -12.5311  -18.3269 N   0  0  0  0  0  0  0  0  0  0  0  0
   21.1558  -10.9248  -18.5123 C   0  0  0  0  0  0  0  0  0  0  0  0
   20.1911  -10.2987  -18.9936 O   0  0  0  0  0  0  0  0  0  0  0  0
   19.3293  -11.1108  -15.0271 O   0  0  0  0  0  0  0  0  0  0  0  0
   20.4283  -10.2513  -14.9899 C   0  0  0  0  0  0  0  0  0  0  0  0
   20.7314   -9.6824  -16.3620 C   0  0  2  0  0  0  0  0  0  0  0  0
   21.5229  -10.5693  -17.1649 N   0  0  0  0  0  0  0  0  0  0  0  0
   21.5408   -8.4562  -16.1317 C   0  0  0  0  0  0  0  0  0  0  0  0
   22.7933   -8.5246  -16.0892 O   0  0  0  0  0  0  0  0  0  0  0  0
   20.9808   -7.1743  -15.9510 N   0  0  0  0  0  0  0  0  0  0  0  0
   21.7922   -5.9847  -15.7256 C   0  0  1  0  0  0  0  0  0  0  0  0
   21.3369   -4.8230  -16.5388 C   0  0  0  0  0  0  0  0  0  0  0  0
   22.0695   -3.5443  -16.3369 C   0  0  0  0  0  0  0  0  0  0  0  0
   21.5458   -2.4063  -17.1140 C   0  0  0  0  0  0  0  0  0  0  0  0
   21.8961   -1.2215  -16.9927 O   0  0  0  0  0  0  0  0  0  0  0  0
   21.8484   -5.7345  -14.2773 C   0  0  0  0  0  0  0  0  0  0  0  0
   22.6469   -4.8912  -13.8286 O   0  0  0  0  0  0  0  0  0  0  0  0
   20.5644   -2.6730  -18.0793 O   0  0  0  0  0  0  0  0  0  0  0  0
   21.0428   -6.3988  -13.3445 O   0  0  0  0  0  0  0  0  0  0  0  0
  2  1  1  6
  2  3  1  0
  4  2  1  0
  4  5  1  1
  6  4  1  0
  7  6  2  0
  9  8  1  0
 10  9  1  1
 10 11  1  0
 10 12  1  0
 11  6  1  0
 12 14  1  0
 13 12  2  0
 14 15  1  0
 15 16  1  6
 15 20  1  0
 16 17  1  0
 17 18  1  0
 18 22  1  0
 19 18  2  0
 20 23  1  0
 21 20  2  0
M  END
$$$$
