TSE.pdb
     RDKit          3D

 23 22  0  0  1  0  0  0  0  0999 V2000
   19.5993   -9.8231  -19.6178 C   0  0  0  0  0  0  0  0  0  0  0  0
   18.6430  -10.8049  -18.9694 C   0  0  1  0  0  0  0  0  0  0  0  0
   18.1843  -11.6810  -19.9195 O   0  0  0  0  0  0  0  0  0  0  0  0
   19.3591  -11.4750  -17.8296 C   0  0  2  0  0  0  0  0  0  0  0  0
   18.5261  -12.5499  -17.3290 N   0  0  0  0  0  0  0  0  0  0  0  0
   19.7263  -10.5537  -16.7514 C   0  0  0  0  0  0  0  0  0  0  0  0
   18.9768   -9.6928  -16.2501 O   0  0  0  0  0  0  0  0  0  0  0  0
   23.1858   -9.4723  -13.4346 O   0  0  0  0  0  0  0  0  0  0  0  0
   22.7599  -10.3193  -14.4588 C   0  0  0  0  0  0  0  0  0  0  0  0
   21.4633   -9.8324  -15.0751 C   0  0  2  0  0  0  0  0  0  0  0  0
   21.0565  -10.6220  -16.2015 N   0  0  0  0  0  0  0  0  0  0  0  0
   21.7336   -8.4582  -15.5752 C   0  0  0  0  0  0  0  0  0  0  0  0
   22.3394   -8.2886  -16.6612 O   0  0  0  0  0  0  0  0  0  0  0  0
   21.3431   -7.2881  -14.8909 N   0  0  0  0  0  0  0  0  0  0  0  0
   21.6400   -5.9498  -15.3858 C   0  0  1  0  0  0  0  0  0  0  0  0
   20.4456   -5.2828  -15.9744 C   0  0  0  0  0  0  0  0  0  0  0  0
   19.3462   -4.9400  -15.0329 C   0  0  0  0  0  0  0  0  0  0  0  0
   18.1656   -4.3234  -15.6647 C   0  0  0  0  0  0  0  0  0  0  0  0
   16.9840   -4.6515  -15.4712 O   0  0  0  0  0  0  0  0  0  0  0  0
   22.2935   -5.1949  -14.3057 C   0  0  0  0  0  0  0  0  0  0  0  0
   22.8319   -4.1010  -14.5574 O   0  0  0  0  0  0  0  0  0  0  0  0
   18.3834   -3.2718  -16.5661 O   0  0  0  0  0  0  0  0  0  0  0  0
   22.3522   -5.6360  -12.9781 O   0  0  0  0  0  0  0  0  0  0  0  0
  2  1  1  6
  2  3  1  0
  4  2  1  0
  4  5  1  1
  6  4  1  0
  7  6  2  0
  9  8  1  0
 10  9  1  6
 10 11  1  0
 10 12  1  0
 11  6  1  0
 12 14  1  0
 13 12  2  0
 14 15  1  0
 15 16  1  1
 15 20  1  0
 16 17  1  0
 17 18  1  0
 18 22  1  0
 19 18  2  0
 20 23  1  0
 21 20  2  0
M  END
$$$$
