TSE.pdb
     RDKit          3D

 23 22  0  0  1  0  0  0  0  0999 V2000
   17.3628   -9.4819  -17.7822 C   0  0  0  0  0  0  0  0  0  0  0  0
   16.7459  -10.3227  -16.6816 C   0  0  1  0  0  0  0  0  0  0  0  0
   15.8146  -11.1677  -17.2288 O   0  0  0  0  0  0  0  0  0  0  0  0
   17.8543  -11.0369  -15.9589 C   0  0  2  0  0  0  0  0  0  0  0  0
   17.2669  -11.9929  -15.0417 N   0  0  0  0  0  0  0  0  0  0  0  0
   18.7676  -10.1325  -15.2559 C   0  0  0  0  0  0  0  0  0  0  0  0
   18.4463   -9.3481  -14.3417 O   0  0  0  0  0  0  0  0  0  0  0  0
   22.7560  -10.0249  -16.5971 O   0  0  0  0  0  0  0  0  0  0  0  0
   22.5401   -9.6324  -15.2753 C   0  0  0  0  0  0  0  0  0  0  0  0
   21.1021   -9.2069  -15.0533 C   0  0  2  0  0  0  0  0  0  0  0  0
   20.1600  -10.1241  -15.6270 N   0  0  0  0  0  0  0  0  0  0  0  0
   20.9407   -7.9093  -15.7618 C   0  0  0  0  0  0  0  0  0  0  0  0
   20.4706   -7.8786  -16.9251 O   0  0  0  0  0  0  0  0  0  0  0  0
   21.2912   -6.6643  -15.1989 N   0  0  0  0  0  0  0  0  0  0  0  0
   21.1435   -5.4051  -15.9178 C   0  0  1  0  0  0  0  0  0  0  0  0
   20.6935   -4.2945  -15.0335 C   0  0  0  0  0  0  0  0  0  0  0  0
   20.5619   -2.9547  -15.6662 C   0  0  0  0  0  0  0  0  0  0  0  0
   20.1430   -1.8799  -14.7484 C   0  0  0  0  0  0  0  0  0  0  0  0
   19.8734   -0.7122  -15.0725 O   0  0  0  0  0  0  0  0  0  0  0  0
   22.3949   -5.1414  -16.6445 C   0  0  0  0  0  0  0  0  0  0  0  0
   23.4785   -5.5195  -16.1621 O   0  0  0  0  0  0  0  0  0  0  0  0
   20.0358   -2.1915  -13.3855 O   0  0  0  0  0  0  0  0  0  0  0  0
   22.4505   -4.4758  -17.8751 O   0  0  0  0  0  0  0  0  0  0  0  0
  2  1  1  6
  2  3  1  0
  4  2  1  0
  4  5  1  1
  6  4  1  0
  7  6  2  0
  9  8  1  0
 10  9  1  6
 10 11  1  0
 10 12  1  0
 11  6  1  0
 12 14  1  0
 13 12  2  0
 14 15  1  0
 15 16  1  1
 15 20  1  0
 16 17  1  0
 17 18  1  0
 18 22  1  0
 19 18  2  0
 20 23  1  0
 21 20  2  0
M  END
$$$$
