TSE.pdb
     RDKit          3D

 23 22  0  0  1  0  0  0  0  0999 V2000
   16.6014  -12.8248  -10.5448 C   0  0  0  0  0  0  0  0  0  0  0  0
   16.0134  -13.2267  -11.8833 C   0  0  1  0  0  0  0  0  0  0  0  0
   15.9785  -14.5951  -11.9672 O   0  0  0  0  0  0  0  0  0  0  0  0
   14.6615  -12.5818  -12.0151 C   0  0  2  0  0  0  0  0  0  0  0  0
   13.9869  -13.1537  -13.1631 N   0  0  0  0  0  0  0  0  0  0  0  0
   14.7212  -11.1217  -12.1188 C   0  0  0  0  0  0  0  0  0  0  0  0
   15.2335  -10.4846  -13.0599 O   0  0  0  0  0  0  0  0  0  0  0  0
   13.1195   -8.9356   -8.9178 O   0  0  0  0  0  0  0  0  0  0  0  0
   13.1821   -8.2655  -10.1405 C   0  0  0  0  0  0  0  0  0  0  0  0
   14.2095   -8.8926  -11.0621 C   0  0  2  0  0  0  0  0  0  0  0  0
   14.1492  -10.3258  -11.0624 N   0  0  0  0  0  0  0  0  0  0  0  0
   15.5401   -8.5079  -10.5207 C   0  0  0  0  0  0  0  0  0  0  0  0
   16.0797   -9.1971   -9.6211 O   0  0  0  0  0  0  0  0  0  0  0  0
   16.2663   -7.3821  -10.9623 N   0  0  0  0  0  0  0  0  0  0  0  0
   17.5836   -7.0401  -10.4408 C   0  0  1  0  0  0  0  0  0  0  0  0
   18.6018   -6.8950  -11.5179 C   0  0  0  0  0  0  0  0  0  0  0  0
   19.9763   -6.5256  -11.0857 C   0  0  0  0  0  0  0  0  0  0  0  0
   20.9675   -6.4631  -12.1751 C   0  0  0  0  0  0  0  0  0  0  0  0
   20.8337   -6.9540  -13.3076 O   0  0  0  0  0  0  0  0  0  0  0  0
   17.4415   -5.8637   -9.5693 C   0  0  0  0  0  0  0  0  0  0  0  0
   16.5731   -5.0091   -9.8252 O   0  0  0  0  0  0  0  0  0  0  0  0
   22.1725   -5.7923  -11.9223 O   0  0  0  0  0  0  0  0  0  0  0  0
   18.2385   -5.6346   -8.4411 O   0  0  0  0  0  0  0  0  0  0  0  0
  2  1  1  1
  2  3  1  0
  4  2  1  0
  4  5  1  6
  6  4  1  0
  7  6  2  0
  9  8  1  0
 10  9  1  1
 10 11  1  0
 10 12  1  0
 11  6  1  0
 12 14  1  0
 13 12  2  0
 14 15  1  0
 15 16  1  6
 15 20  1  0
 16 17  1  0
 17 18  1  0
 18 22  1  0
 19 18  2  0
 20 23  1  0
 21 20  2  0
M  END
$$$$
