PFR.pdb
     RDKit          3D

 30 31  0  0  1  0  0  0  0  0999 V2000
   27.8943  -20.1967  -16.8121 N   0  0  0  0  0  0  0  0  0  0  0  0
   28.7293  -20.1657  -18.0202 C   0  0  0  0  0  0  0  0  0  0  0  0
   29.4412  -21.4852  -18.0677 C   0  0  0  0  0  0  0  0  0  0  0  0
   28.9118  -22.2579  -16.8746 C   0  0  0  0  0  0  0  0  0  0  0  0
   27.5688  -21.5977  -16.6585 C   0  0  1  0  0  0  0  0  0  0  0  0
   27.0233  -21.8362  -15.3221 C   0  0  0  0  0  0  0  0  0  0  0  0
   26.6233  -22.9611  -14.9155 O   0  0  0  0  0  0  0  0  0  0  0  0
   26.9245  -20.7603  -14.4053 N   0  0  0  0  0  0  0  0  0  0  0  0
   26.4712  -20.9384  -13.0360 C   0  0  1  0  0  0  0  0  0  0  0  0
   27.4229  -20.2826  -12.0640 C   0  0  0  0  0  0  0  0  0  0  0  0
   27.0260  -20.3639  -10.6636 C   0  0  0  0  0  0  0  0  0  0  0  0
   26.0856  -19.5161  -10.1236 C   0  0  0  0  0  0  0  0  0  0  0  0
   25.6981  -19.5852   -8.8075 C   0  0  0  0  0  0  0  0  0  0  0  0
   26.2619  -20.5320   -7.9852 C   0  0  0  0  0  0  0  0  0  0  0  0
   27.2076  -21.3987   -8.4917 C   0  0  0  0  0  0  0  0  0  0  0  0
   27.5835  -21.3069   -9.8330 C   0  0  0  0  0  0  0  0  0  0  0  0
   25.0695  -20.4659  -12.8729 C   0  0  0  0  0  0  0  0  0  0  0  0
   24.6648  -19.3618  -13.2826 O   0  0  0  0  0  0  0  0  0  0  0  0
   18.4219  -24.7207  -14.1689 N   0  0  0  0  0  0  0  0  0  0  0  0
   17.6986  -23.5306  -13.8892 C   0  0  0  0  0  0  0  0  0  0  0  0
   16.5915  -23.3488  -14.5636 N   0  0  0  0  0  0  0  0  0  0  0  0
   18.1231  -22.5655  -12.9349 N   0  0  0  0  0  0  0  0  0  0  0  0
   19.4415  -22.7421  -12.3637 C   0  0  0  0  0  0  0  0  0  0  0  0
   20.5452  -22.0823  -13.0735 C   0  0  0  0  0  0  0  0  0  0  0  0
   21.9296  -22.1513  -12.6615 C   0  0  0  0  0  0  0  0  0  0  0  0
   22.6650  -20.9234  -12.2893 C   0  0  2  0  0  0  0  0  0  0  0  0
   24.1356  -21.2995  -12.2221 N   0  0  0  0  0  0  0  0  0  0  0  0
   22.4081  -20.5337  -10.8965 C   0  0  0  0  0  0  0  0  0  0  0  0
   21.5176  -19.5882  -10.4841 O   0  0  0  0  0  0  0  0  0  0  0  0
   23.0651  -21.1092   -9.9644 O   0  0  0  0  0  0  0  0  0  0  0  0
  1  5  1  0
  2  1  1  0
  2  3  1  0
  3  4  1  0
  5  6  1  1
  5  4  1  0
  6  7  2  0
  8  6  1  0
  8  9  1  0
  9 10  1  1
 11 10  1  0
 12 11  2  0
 13 12  1  0
 14 15  1  0
 14 13  2  0
 15 16  2  0
 16 11  1  0
 17 27  1  0
 17  9  1  0
 18 17  2  0
 19 20  1  0
 20 22  1  0
 21 20  2  0
 22 23  1  0
 23 24  1  0
 24 25  1  0
 26 25  1  1
 26 27  1  0
 28 29  1  0
 28 26  1  0
 30 28  2  0
M  END
$$$$
