PFR.pdb
     RDKit          3D

 30 31  0  0  1  0  0  0  0  0999 V2000
   27.7366  -20.7184  -16.9474 N   0  0  0  0  0  0  0  0  0  0  0  0
   28.7190  -20.7524  -18.0390 C   0  0  0  0  0  0  0  0  0  0  0  0
   29.5332  -21.9942  -17.8270 C   0  0  0  0  0  0  0  0  0  0  0  0
   28.9135  -22.6659  -16.6164 C   0  0  0  0  0  0  0  0  0  0  0  0
   27.5057  -22.1156  -16.6528 C   0  0  1  0  0  0  0  0  0  0  0  0
   26.8087  -22.2437  -15.3729 C   0  0  0  0  0  0  0  0  0  0  0  0
   26.3985  -23.3391  -14.9013 O   0  0  0  0  0  0  0  0  0  0  0  0
   26.5639  -21.0872  -14.5915 N   0  0  0  0  0  0  0  0  0  0  0  0
   25.9741  -21.1500  -13.2648 C   0  0  1  0  0  0  0  0  0  0  0  0
   26.7497  -20.2965  -12.2897 C   0  0  0  0  0  0  0  0  0  0  0  0
   26.2726  -20.3460  -10.9130 C   0  0  0  0  0  0  0  0  0  0  0  0
   25.2211  -19.5709  -10.4791 C   0  0  0  0  0  0  0  0  0  0  0  0
   24.7576  -19.6116   -9.1867 C   0  0  0  0  0  0  0  0  0  0  0  0
   25.3564  -20.4537   -8.2796 C   0  0  0  0  0  0  0  0  0  0  0  0
   26.4128  -21.2453   -8.6787 C   0  0  0  0  0  0  0  0  0  0  0  0
   26.8642  -21.1846   -9.9983 C   0  0  0  0  0  0  0  0  0  0  0  0
   24.5280  -20.8013  -13.3074 C   0  0  0  0  0  0  0  0  0  0  0  0
   24.0828  -19.7851  -13.8729 O   0  0  0  0  0  0  0  0  0  0  0  0
   17.4899  -24.3116  -14.0036 N   0  0  0  0  0  0  0  0  0  0  0  0
   18.5674  -25.1321  -13.5754 C   0  0  0  0  0  0  0  0  0  0  0  0
   18.7935  -26.2125  -14.2792 N   0  0  0  0  0  0  0  0  0  0  0  0
   19.3791  -24.8287  -12.4478 N   0  0  0  0  0  0  0  0  0  0  0  0
   19.1072  -23.5853  -11.7580 C   0  0  0  0  0  0  0  0  0  0  0  0
   19.9346  -22.4367  -12.1493 C   0  0  0  0  0  0  0  0  0  0  0  0
   21.3742  -22.4812  -12.2770 C   0  0  0  0  0  0  0  0  0  0  0  0
   22.1219  -21.3039  -12.7691 C   0  0  2  0  0  0  0  0  0  0  0  0
   23.5973  -21.6557  -12.6793 N   0  0  0  0  0  0  0  0  0  0  0  0
   22.0420  -20.1753  -11.8323 C   0  0  0  0  0  0  0  0  0  0  0  0
   22.8735  -19.9559  -10.7752 O   0  0  0  0  0  0  0  0  0  0  0  0
   21.1190  -19.3067  -11.9912 O   0  0  0  0  0  0  0  0  0  0  0  0
  1  5  1  0
  2  1  1  0
  2  3  1  0
  3  4  1  0
  5  6  1  1
  5  4  1  0
  6  7  2  0
  8  6  1  0
  8  9  1  0
  9 10  1  1
 11 10  1  0
 12 11  2  0
 13 12  1  0
 14 15  1  0
 14 13  2  0
 15 16  2  0
 16 11  1  0
 17 27  1  0
 17  9  1  0
 18 17  2  0
 19 20  1  0
 20 22  1  0
 21 20  2  0
 22 23  1  0
 23 24  1  0
 24 25  1  0
 26 25  1  1
 26 27  1  0
 28 29  1  0
 28 26  1  0
 30 28  2  0
M  END
$$$$
