PFR.pdb
     RDKit          3D

 30 31  0  0  1  0  0  0  0  0999 V2000
   28.1627  -20.6567  -17.1719 N   0  0  0  0  0  0  0  0  0  0  0  0
   29.2934  -20.5899  -18.1072 C   0  0  0  0  0  0  0  0  0  0  0  0
   30.1340  -21.8010  -17.8306 C   0  0  0  0  0  0  0  0  0  0  0  0
   29.3824  -22.5608  -16.7541 C   0  0  0  0  0  0  0  0  0  0  0  0
   27.9672  -22.0762  -16.9742 C   0  0  1  0  0  0  0  0  0  0  0  0
   27.0999  -22.3008  -15.8175 C   0  0  0  0  0  0  0  0  0  0  0  0
   26.7702  -23.4428  -15.3961 O   0  0  0  0  0  0  0  0  0  0  0  0
   26.5824  -21.1900  -15.1058 N   0  0  0  0  0  0  0  0  0  0  0  0
   25.7693  -21.3369  -13.9103 C   0  0  1  0  0  0  0  0  0  0  0  0
   26.2459  -20.4098  -12.8176 C   0  0  0  0  0  0  0  0  0  0  0  0
   25.5816  -20.5811  -11.5313 C   0  0  0  0  0  0  0  0  0  0  0  0
   26.1666  -21.2763  -10.4972 C   0  0  0  0  0  0  0  0  0  0  0  0
   25.5547  -21.4405   -9.2784 C   0  0  0  0  0  0  0  0  0  0  0  0
   24.3100  -20.8957   -9.0675 C   0  0  0  0  0  0  0  0  0  0  0  0
   23.6932  -20.1925  -10.0809 C   0  0  0  0  0  0  0  0  0  0  0  0
   24.3372  -20.0403  -11.3101 C   0  0  0  0  0  0  0  0  0  0  0  0
   24.3252  -21.1598  -14.2230 C   0  0  0  0  0  0  0  0  0  0  0  0
   23.8841  -20.2355  -14.9313 O   0  0  0  0  0  0  0  0  0  0  0  0
   17.5302  -23.6480  -12.1668 N   0  0  0  0  0  0  0  0  0  0  0  0
   16.9892  -24.1164  -13.3938 C   0  0  0  0  0  0  0  0  0  0  0  0
   15.6931  -24.0045  -13.5404 N   0  0  0  0  0  0  0  0  0  0  0  0
   17.7812  -24.6824  -14.4304 N   0  0  0  0  0  0  0  0  0  0  0  0
   19.2128  -24.7181  -14.2184 C   0  0  0  0  0  0  0  0  0  0  0  0
   19.8904  -23.4158  -14.1725 C   0  0  0  0  0  0  0  0  0  0  0  0
   21.3218  -23.2511  -14.0514 C   0  0  0  0  0  0  0  0  0  0  0  0
   21.9263  -21.9013  -14.0585 C   0  0  2  0  0  0  0  0  0  0  0  0
   23.3916  -22.0780  -13.6977 N   0  0  0  0  0  0  0  0  0  0  0  0
   21.4535  -21.0851  -12.9324 C   0  0  0  0  0  0  0  0  0  0  0  0
   20.5348  -20.0813  -13.0054 O   0  0  0  0  0  0  0  0  0  0  0  0
   21.9298  -21.3064  -11.7681 O   0  0  0  0  0  0  0  0  0  0  0  0
  1  5  1  0
  2  1  1  0
  2  3  1  0
  3  4  1  0
  5  6  1  1
  5  4  1  0
  6  7  2  0
  8  6  1  0
  8  9  1  0
  9 10  1  1
 11 10  1  0
 12 11  2  0
 13 12  1  0
 14 15  1  0
 14 13  2  0
 15 16  2  0
 16 11  1  0
 17 27  1  0
 17  9  1  0
 18 17  2  0
 19 20  1  0
 20 22  1  0
 21 20  2  0
 22 23  1  0
 23 24  1  0
 24 25  1  0
 26 25  1  1
 26 27  1  0
 28 29  1  0
 28 26  1  0
 30 28  2  0
M  END
$$$$
