PFR.pdb
     RDKit          3D

 30 31  0  0  1  0  0  0  0  0999 V2000
   29.1210  -20.4657  -11.6100 N   0  0  0  0  0  0  0  0  0  0  0  0
   30.4766  -20.4836  -12.1753 C   0  0  0  0  0  0  0  0  0  0  0  0
   31.2687  -21.4330  -11.3260 C   0  0  0  0  0  0  0  0  0  0  0  0
   30.2747  -21.9783  -10.3184 C   0  0  0  0  0  0  0  0  0  0  0  0
   28.9664  -21.7915  -11.0528 C   0  0  1  0  0  0  0  0  0  0  0  0
   27.8034  -21.8238  -10.1656 C   0  0  0  0  0  0  0  0  0  0  0  0
   27.3714  -22.8699   -9.6093 O   0  0  0  0  0  0  0  0  0  0  0  0
   27.0977  -20.6253   -9.8945 N   0  0  0  0  0  0  0  0  0  0  0  0
   25.9557  -20.5760   -8.9970 C   0  0  1  0  0  0  0  0  0  0  0  0
   26.0210  -19.3563   -8.1088 C   0  0  0  0  0  0  0  0  0  0  0  0
   26.8016  -19.5238   -6.8890 C   0  0  0  0  0  0  0  0  0  0  0  0
   26.8653  -20.7281   -6.2256 C   0  0  0  0  0  0  0  0  0  0  0  0
   27.6013  -20.9016   -5.0788 C   0  0  0  0  0  0  0  0  0  0  0  0
   28.3069  -19.8411   -4.5611 C   0  0  0  0  0  0  0  0  0  0  0  0
   28.2666  -18.6191   -5.1991 C   0  0  0  0  0  0  0  0  0  0  0  0
   27.5108  -18.4700   -6.3632 C   0  0  0  0  0  0  0  0  0  0  0  0
   24.6781  -20.6654   -9.7548 C   0  0  0  0  0  0  0  0  0  0  0  0
   24.6063  -20.5677  -10.9942 O   0  0  0  0  0  0  0  0  0  0  0  0
   19.0076  -25.6268  -11.6855 N   0  0  0  0  0  0  0  0  0  0  0  0
   18.2969  -24.4029  -11.8065 C   0  0  0  0  0  0  0  0  0  0  0  0
   17.3288  -24.3752  -12.6873 N   0  0  0  0  0  0  0  0  0  0  0  0
   18.5923  -23.2488  -11.0299 N   0  0  0  0  0  0  0  0  0  0  0  0
   19.6183  -23.3831  -10.0175 C   0  0  0  0  0  0  0  0  0  0  0  0
   19.9287  -22.1704   -9.2493 C   0  0  0  0  0  0  0  0  0  0  0  0
   21.2619  -21.7915   -8.8372 C   0  0  0  0  0  0  0  0  0  0  0  0
   22.2468  -21.3095   -9.8297 C   0  0  2  0  0  0  0  0  0  0  0  0
   23.4741  -20.8714   -9.0485 N   0  0  0  0  0  0  0  0  0  0  0  0
   21.8309  -20.0396  -10.4398 C   0  0  0  0  0  0  0  0  0  0  0  0
   21.1118  -19.9048  -11.5894 O   0  0  0  0  0  0  0  0  0  0  0  0
   22.1610  -18.9450   -9.8701 O   0  0  0  0  0  0  0  0  0  0  0  0
  1  5  1  0
  2  1  1  0
  2  3  1  0
  3  4  1  0
  5  6  1  1
  5  4  1  0
  6  7  2  0
  8  6  1  0
  8  9  1  0
  9 10  1  6
 11 10  1  0
 12 11  2  0
 13 12  1  0
 14 15  1  0
 14 13  2  0
 15 16  2  0
 16 11  1  0
 17 27  1  0
 17  9  1  0
 18 17  2  0
 19 20  1  0
 20 22  1  0
 21 20  2  0
 22 23  1  0
 23 24  1  0
 24 25  1  0
 26 25  1  1
 26 27  1  0
 28 29  1  0
 28 26  1  0
 30 28  2  0
M  END
$$$$
