PFR.pdb
     RDKit          3D

 30 31  0  0  1  0  0  0  0  0999 V2000
   27.6736  -18.3180  -13.9580 N   0  0  0  0  0  0  0  0  0  0  0  0
   28.7987  -17.6600  -14.6353 C   0  0  0  0  0  0  0  0  0  0  0  0
   29.8172  -18.7321  -14.8868 C   0  0  0  0  0  0  0  0  0  0  0  0
   29.1746  -20.0085  -14.3783 C   0  0  0  0  0  0  0  0  0  0  0  0
   27.7050  -19.6676  -14.4777 C   0  0  1  0  0  0  0  0  0  0  0  0
   26.8603  -20.5348  -13.6561 C   0  0  0  0  0  0  0  0  0  0  0  0
   26.6938  -21.7659  -13.8734 O   0  0  0  0  0  0  0  0  0  0  0  0
   26.1743  -19.9905  -12.5421 N   0  0  0  0  0  0  0  0  0  0  0  0
   25.2441  -20.7675  -11.7402 C   0  0  1  0  0  0  0  0  0  0  0  0
   25.2700  -20.3183  -10.2987 C   0  0  0  0  0  0  0  0  0  0  0  0
   26.5388  -20.5258   -9.6115 C   0  0  0  0  0  0  0  0  0  0  0  0
   26.7669  -20.0422   -8.3431 C   0  0  0  0  0  0  0  0  0  0  0  0
   27.9553  -20.2353   -7.6817 C   0  0  0  0  0  0  0  0  0  0  0  0
   28.9655  -20.9365   -8.2968 C   0  0  0  0  0  0  0  0  0  0  0  0
   28.7727  -21.4361   -9.5677 C   0  0  0  0  0  0  0  0  0  0  0  0
   27.5552  -21.2256  -10.2175 C   0  0  0  0  0  0  0  0  0  0  0  0
   23.8768  -20.7329  -12.3269 C   0  0  0  0  0  0  0  0  0  0  0  0
   23.3920  -19.7281  -12.8800 O   0  0  0  0  0  0  0  0  0  0  0  0
   22.6064  -26.2411  -15.8072 N   0  0  0  0  0  0  0  0  0  0  0  0
   21.2710  -26.6740  -15.5905 C   0  0  0  0  0  0  0  0  0  0  0  0
   21.0965  -27.9585  -15.4082 N   0  0  0  0  0  0  0  0  0  0  0  0
   20.1580  -25.7891  -15.5661 N   0  0  0  0  0  0  0  0  0  0  0  0
   20.4462  -24.3731  -15.4807 C   0  0  0  0  0  0  0  0  0  0  0  0
   20.3863  -23.7828  -14.1371 C   0  0  0  0  0  0  0  0  0  0  0  0
   21.5482  -23.3805  -13.3763 C   0  0  0  0  0  0  0  0  0  0  0  0
   21.8242  -21.9493  -13.1262 C   0  0  2  0  0  0  0  0  0  0  0  0
   23.0728  -21.8905  -12.2625 N   0  0  0  0  0  0  0  0  0  0  0  0
   20.8291  -21.3500  -12.2271 C   0  0  0  0  0  0  0  0  0  0  0  0
   19.6642  -20.7554  -12.6097 O   0  0  0  0  0  0  0  0  0  0  0  0
   21.0470  -21.3659  -10.9686 O   0  0  0  0  0  0  0  0  0  0  0  0
  1  5  1  0
  2  1  1  0
  2  3  1  0
  3  4  1  0
  5  6  1  1
  5  4  1  0
  6  7  2  0
  8  6  1  0
  8  9  1  0
  9 10  1  1
 11 10  1  0
 12 11  2  0
 13 12  1  0
 14 15  1  0
 14 13  2  0
 15 16  2  0
 16 11  1  0
 17 27  1  0
 17  9  1  0
 18 17  2  0
 19 20  1  0
 20 22  1  0
 21 20  2  0
 22 23  1  0
 23 24  1  0
 24 25  1  0
 26 25  1  1
 26 27  1  0
 28 29  1  0
 28 26  1  0
 30 28  2  0
M  END
$$$$
