PFR.pdb
     RDKit          3D

 30 31  0  0  1  0  0  0  0  0999 V2000
   25.0983  -12.5279  -20.0191 N   0  0  0  0  0  0  0  0  0  0  0  0
   25.3735  -13.7148  -20.8397 C   0  0  0  0  0  0  0  0  0  0  0  0
   25.4208  -14.8749  -19.8901 C   0  0  0  0  0  0  0  0  0  0  0  0
   25.0969  -14.2818  -18.5321 C   0  0  0  0  0  0  0  0  0  0  0  0
   24.3146  -13.0476  -18.9200 C   0  0  1  0  0  0  0  0  0  0  0  0
   24.2451  -12.0546  -17.8478 C   0  0  0  0  0  0  0  0  0  0  0  0
   23.6718  -12.2519  -16.7419 O   0  0  0  0  0  0  0  0  0  0  0  0
   24.8477  -10.7852  -18.0306 N   0  0  0  0  0  0  0  0  0  0  0  0
   24.8474   -9.7631  -16.9975 C   0  0  1  0  0  0  0  0  0  0  0  0
   26.2541   -9.3083  -16.6894 C   0  0  0  0  0  0  0  0  0  0  0  0
   27.1925  -10.3787  -16.3749 C   0  0  0  0  0  0  0  0  0  0  0  0
   28.2273  -10.7106  -17.2198 C   0  0  0  0  0  0  0  0  0  0  0  0
   29.1221  -11.7127  -16.9335 C   0  0  0  0  0  0  0  0  0  0  0  0
   28.9925  -12.4207  -15.7620 C   0  0  0  0  0  0  0  0  0  0  0  0
   27.9676  -12.1159  -14.8910 C   0  0  0  0  0  0  0  0  0  0  0  0
   27.0720  -11.0925  -15.2063 C   0  0  0  0  0  0  0  0  0  0  0  0
   23.9477   -8.6356  -17.3637 C   0  0  0  0  0  0  0  0  0  0  0  0
   23.7111   -8.2996  -18.5391 O   0  0  0  0  0  0  0  0  0  0  0  0
   16.7129   -9.4647  -16.8905 N   0  0  0  0  0  0  0  0  0  0  0  0
   16.4344   -8.2412  -17.5561 C   0  0  0  0  0  0  0  0  0  0  0  0
   15.1847   -7.8513  -17.5614 N   0  0  0  0  0  0  0  0  0  0  0  0
   17.4330   -7.4548  -18.1938 N   0  0  0  0  0  0  0  0  0  0  0  0
   18.7631   -8.0205  -18.2737 C   0  0  0  0  0  0  0  0  0  0  0  0
   19.6441   -7.7609  -17.1276 C   0  0  0  0  0  0  0  0  0  0  0  0
   21.0455   -8.1148  -17.0864 C   0  0  0  0  0  0  0  0  0  0  0  0
   22.0602   -7.1196  -16.6775 C   0  0  2  0  0  0  0  0  0  0  0  0
   23.3209   -7.8968  -16.3380 N   0  0  0  0  0  0  0  0  0  0  0  0
   21.7405   -6.5160  -15.3771 C   0  0  0  0  0  0  0  0  0  0  0  0
   22.4009   -6.7452  -14.2074 O   0  0  0  0  0  0  0  0  0  0  0  0
   20.7581   -5.7033  -15.2998 O   0  0  0  0  0  0  0  0  0  0  0  0
  1  5  1  0
  2  1  1  0
  2  3  1  0
  3  4  1  0
  5  6  1  1
  5  4  1  0
  6  7  2  0
  8  6  1  0
  8  9  1  0
  9 10  1  6
 11 10  1  0
 12 11  2  0
 13 12  1  0
 14 15  1  0
 14 13  2  0
 15 16  2  0
 16 11  1  0
 17 27  1  0
 17  9  1  0
 18 17  2  0
 19 20  1  0
 20 22  1  0
 21 20  2  0
 22 23  1  0
 23 24  1  0
 24 25  1  0
 26 25  1  1
 26 27  1  0
 28 29  1  0
 28 26  1  0
 30 28  2  0
M  END
$$$$
