PFR.pdb
     RDKit          3D

 30 31  0  0  1  0  0  0  0  0999 V2000
   27.1443  -17.4363  -15.1513 N   0  0  0  0  0  0  0  0  0  0  0  0
   28.1008  -16.4931  -15.7457 C   0  0  0  0  0  0  0  0  0  0  0  0
   28.8387  -17.2599  -16.8028 C   0  0  0  0  0  0  0  0  0  0  0  0
   28.2018  -18.6366  -16.8032 C   0  0  0  0  0  0  0  0  0  0  0  0
   26.8313  -18.3358  -16.2400 C   0  0  1  0  0  0  0  0  0  0  0  0
   26.1531  -19.5241  -15.7217 C   0  0  0  0  0  0  0  0  0  0  0  0
   25.5439  -20.3585  -16.4450 O   0  0  0  0  0  0  0  0  0  0  0  0
   26.1623  -19.7822  -14.3284 N   0  0  0  0  0  0  0  0  0  0  0  0
   25.4580  -20.9073  -13.7366 C   0  0  1  0  0  0  0  0  0  0  0  0
   26.2865  -21.5499  -12.6497 C   0  0  0  0  0  0  0  0  0  0  0  0
   26.0734  -21.0103  -11.3123 C   0  0  0  0  0  0  0  0  0  0  0  0
   26.6136  -19.8070  -10.9186 C   0  0  0  0  0  0  0  0  0  0  0  0
   26.4162  -19.2840   -9.6639 C   0  0  0  0  0  0  0  0  0  0  0  0
   25.6521  -19.9770   -8.7548 C   0  0  0  0  0  0  0  0  0  0  0  0
   25.0946  -21.1862   -9.1142 C   0  0  0  0  0  0  0  0  0  0  0  0
   25.3109  -21.6950  -10.3959 C   0  0  0  0  0  0  0  0  0  0  0  0
   24.1071  -20.5008  -13.2628 C   0  0  0  0  0  0  0  0  0  0  0  0
   23.9009  -19.4986  -12.5531 O   0  0  0  0  0  0  0  0  0  0  0  0
   17.9026  -19.8693  -18.8707 N   0  0  0  0  0  0  0  0  0  0  0  0
   17.7059  -20.1846  -17.4997 C   0  0  0  0  0  0  0  0  0  0  0  0
   16.5214  -19.9262  -17.0059 N   0  0  0  0  0  0  0  0  0  0  0  0
   18.7174  -20.7515  -16.6764 N   0  0  0  0  0  0  0  0  0  0  0  0
   18.3294  -21.1516  -15.3404 C   0  0  0  0  0  0  0  0  0  0  0  0
   19.2902  -20.8482  -14.2719 C   0  0  0  0  0  0  0  0  0  0  0  0
   20.7177  -21.0489  -14.3849 C   0  0  0  0  0  0  0  0  0  0  0  0
   21.6072  -20.7858  -13.2329 C   0  0  2  0  0  0  0  0  0  0  0  0
   22.9888  -21.2801  -13.6272 N   0  0  0  0  0  0  0  0  0  0  0  0
   21.3047  -21.6664  -12.0968 C   0  0  0  0  0  0  0  0  0  0  0  0
   20.5811  -21.3250  -10.9937 O   0  0  0  0  0  0  0  0  0  0  0  0
   21.7490  -22.8639  -12.1099 O   0  0  0  0  0  0  0  0  0  0  0  0
  1  5  1  0
  2  1  1  0
  2  3  1  0
  3  4  1  0
  5  6  1  1
  5  4  1  0
  6  7  2  0
  8  6  1  0
  8  9  1  0
  9 10  1  1
 11 10  1  0
 12 11  2  0
 13 12  1  0
 14 15  1  0
 14 13  2  0
 15 16  2  0
 16 11  1  0
 17 27  1  0
 17  9  1  0
 18 17  2  0
 19 20  1  0
 20 22  1  0
 21 20  2  0
 22 23  1  0
 23 24  1  0
 24 25  1  0
 26 25  1  6
 26 27  1  0
 28 29  1  0
 28 26  1  0
 30 28  2  0
M  END
$$$$
