PFR.pdb
     RDKit          3D

 30 31  0  0  1  0  0  0  0  0999 V2000
   22.3265  -14.0027  -17.7285 N   0  0  0  0  0  0  0  0  0  0  0  0
   21.5981  -12.8404  -18.2540 C   0  0  0  0  0  0  0  0  0  0  0  0
   22.5663  -12.1053  -19.1327 C   0  0  0  0  0  0  0  0  0  0  0  0
   23.8275  -12.9479  -19.1150 C   0  0  0  0  0  0  0  0  0  0  0  0
   23.2740  -14.3136  -18.7764 C   0  0  1  0  0  0  0  0  0  0  0  0
   24.2921  -15.2327  -18.2674 C   0  0  0  0  0  0  0  0  0  0  0  0
   25.3332  -15.5521  -18.9035 O   0  0  0  0  0  0  0  0  0  0  0  0
   24.1291  -15.8165  -16.9865 N   0  0  0  0  0  0  0  0  0  0  0  0
   25.1330  -16.6792  -16.3866 C   0  0  1  0  0  0  0  0  0  0  0  0
   25.7527  -16.0232  -15.1756 C   0  0  0  0  0  0  0  0  0  0  0  0
   26.6898  -14.9461  -15.4705 C   0  0  0  0  0  0  0  0  0  0  0  0
   27.9167  -15.1865  -16.0463 C   0  0  0  0  0  0  0  0  0  0  0  0
   28.8069  -14.1809  -16.3348 C   0  0  0  0  0  0  0  0  0  0  0  0
   28.4744  -12.8790  -16.0433 C   0  0  0  0  0  0  0  0  0  0  0  0
   27.2533  -12.6002  -15.4659 C   0  0  0  0  0  0  0  0  0  0  0  0
   26.3671  -13.6410  -15.1831 C   0  0  0  0  0  0  0  0  0  0  0  0
   24.5694  -18.0231  -16.0849 C   0  0  0  0  0  0  0  0  0  0  0  0
   23.3972  -18.2073  -15.7073 O   0  0  0  0  0  0  0  0  0  0  0  0
   26.2587  -26.7968  -16.1314 N   0  0  0  0  0  0  0  0  0  0  0  0
   26.3092  -26.0106  -17.3134 C   0  0  0  0  0  0  0  0  0  0  0  0
   26.0666  -26.6334  -18.4390 N   0  0  0  0  0  0  0  0  0  0  0  0
   26.6041  -24.6195  -17.3133 N   0  0  0  0  0  0  0  0  0  0  0  0
   26.6690  -23.9617  -16.0254 C   0  0  0  0  0  0  0  0  0  0  0  0
   25.6743  -22.9072  -15.7891 C   0  0  0  0  0  0  0  0  0  0  0  0
   25.8797  -21.5127  -16.1114 C   0  0  0  0  0  0  0  0  0  0  0  0
   24.8285  -20.5125  -15.8251 C   0  0  2  0  0  0  0  0  0  0  0  0
   25.3920  -19.1603  -16.2288 N   0  0  0  0  0  0  0  0  0  0  0  0
   24.6361  -20.3199  -14.3817 C   0  0  0  0  0  0  0  0  0  0  0  0
   23.6943  -20.9362  -13.6134 O   0  0  0  0  0  0  0  0  0  0  0  0
   25.3995  -19.5049  -13.7615 O   0  0  0  0  0  0  0  0  0  0  0  0
  1  5  1  0
  2  1  1  0
  2  3  1  0
  3  4  1  0
  5  6  1  1
  5  4  1  0
  6  7  2  0
  8  6  1  0
  8  9  1  0
  9 10  1  1
 11 10  1  0
 12 11  2  0
 13 12  1  0
 14 15  1  0
 14 13  2  0
 15 16  2  0
 16 11  1  0
 17 27  1  0
 17  9  1  0
 18 17  2  0
 19 20  1  0
 20 22  1  0
 21 20  2  0
 22 23  1  0
 23 24  1  0
 24 25  1  0
 26 25  1  1
 26 27  1  0
 28 29  1  0
 28 26  1  0
 30 28  2  0
M  END
$$$$
