PFR.pdb
     RDKit          3D

 30 31  0  0  1  0  0  0  0  0999 V2000
   28.5886  -23.2857  -19.4452 N   0  0  0  0  0  0  0  0  0  0  0  0
   29.2867  -24.0909  -20.4562 C   0  0  0  0  0  0  0  0  0  0  0  0
   30.7228  -24.1442  -20.0263 C   0  0  0  0  0  0  0  0  0  0  0  0
   30.7648  -23.3916  -18.7100 C   0  0  0  0  0  0  0  0  0  0  0  0
   29.3373  -23.5364  -18.2332 C   0  0  1  0  0  0  0  0  0  0  0  0
   28.9730  -22.5528  -17.2132 C   0  0  0  0  0  0  0  0  0  0  0  0
   29.4833  -22.5121  -16.0606 O   0  0  0  0  0  0  0  0  0  0  0  0
   27.9913  -21.5736  -17.5055 N   0  0  0  0  0  0  0  0  0  0  0  0
   27.6177  -20.5343  -16.5609 C   0  0  1  0  0  0  0  0  0  0  0  0
   27.2581  -19.2563  -17.2808 C   0  0  0  0  0  0  0  0  0  0  0  0
   26.8026  -18.1717  -16.4198 C   0  0  0  0  0  0  0  0  0  0  0  0
   25.4654  -17.9292  -16.2010 C   0  0  0  0  0  0  0  0  0  0  0  0
   25.0222  -16.9145  -15.3879 C   0  0  0  0  0  0  0  0  0  0  0  0
   25.9369  -16.1014  -14.7614 C   0  0  0  0  0  0  0  0  0  0  0  0
   27.2853  -16.3147  -14.9572 C   0  0  0  0  0  0  0  0  0  0  0  0
   27.7088  -17.3530  -15.7886 C   0  0  0  0  0  0  0  0  0  0  0  0
   26.5368  -21.0037  -15.6520 C   0  0  0  0  0  0  0  0  0  0  0  0
   25.5300  -21.6225  -16.0444 O   0  0  0  0  0  0  0  0  0  0  0  0
   24.3235  -20.4273   -7.0197 N   0  0  0  0  0  0  0  0  0  0  0  0
   25.6442  -20.3525   -7.5372 C   0  0  0  0  0  0  0  0  0  0  0  0
   26.4965  -19.6269   -6.8584 N   0  0  0  0  0  0  0  0  0  0  0  0
   26.0554  -21.0163   -8.7257 N   0  0  0  0  0  0  0  0  0  0  0  0
   25.0244  -21.3352   -9.6905 C   0  0  0  0  0  0  0  0  0  0  0  0
   25.4722  -22.0200  -10.9102 C   0  0  0  0  0  0  0  0  0  0  0  0
   26.1721  -21.3682  -11.9947 C   0  0  0  0  0  0  0  0  0  0  0  0
   25.5757  -21.3103  -13.3468 C   0  0  2  0  0  0  0  0  0  0  0  0
   26.6413  -20.7429  -14.2694 N   0  0  0  0  0  0  0  0  0  0  0  0
   24.5378  -20.2752  -13.4423 C   0  0  0  0  0  0  0  0  0  0  0  0
   23.1953  -20.4788  -13.3265 O   0  0  0  0  0  0  0  0  0  0  0  0
   24.8907  -19.0667  -13.6579 O   0  0  0  0  0  0  0  0  0  0  0  0
  1  5  1  0
  2  1  1  0
  2  3  1  0
  3  4  1  0
  5  6  1  1
  5  4  1  0
  6  7  2  0
  8  6  1  0
  8  9  1  0
  9 10  1  6
 11 10  1  0
 12 11  2  0
 13 12  1  0
 14 15  1  0
 14 13  2  0
 15 16  2  0
 16 11  1  0
 17 27  1  0
 17  9  1  0
 18 17  2  0
 19 20  1  0
 20 22  1  0
 21 20  2  0
 22 23  1  0
 23 24  1  0
 24 25  1  0
 26 25  1  1
 26 27  1  0
 28 29  1  0
 28 26  1  0
 30 28  2  0
M  END
$$$$
