PFR.pdb
     RDKit          3D

 30 31  0  0  1  0  0  0  0  0999 V2000
   28.1775  -20.3564  -16.6881 N   0  0  0  0  0  0  0  0  0  0  0  0
   29.4076  -20.4331  -17.4873 C   0  0  0  0  0  0  0  0  0  0  0  0
   30.0629  -21.7309  -17.1183 C   0  0  0  0  0  0  0  0  0  0  0  0
   29.1092  -22.3851  -16.1368 C   0  0  0  0  0  0  0  0  0  0  0  0
   27.7952  -21.7409  -16.5170 C   0  0  1  0  0  0  0  0  0  0  0  0
   26.7811  -21.8491  -15.4680 C   0  0  0  0  0  0  0  0  0  0  0  0
   26.3273  -22.9444  -15.0380 O   0  0  0  0  0  0  0  0  0  0  0  0
   26.2564  -20.6719  -14.8790 N   0  0  0  0  0  0  0  0  0  0  0  0
   25.3580  -20.7021  -13.7372 C   0  0  1  0  0  0  0  0  0  0  0  0
   25.8985  -19.8626  -12.6042 C   0  0  0  0  0  0  0  0  0  0  0  0
   27.0548  -20.4255  -11.9177 C   0  0  0  0  0  0  0  0  0  0  0  0
   26.9407  -21.0616  -10.7024 C   0  0  0  0  0  0  0  0  0  0  0  0
   28.0207  -21.6016  -10.0472 C   0  0  0  0  0  0  0  0  0  0  0  0
   29.2701  -21.5113  -10.6141 C   0  0  0  0  0  0  0  0  0  0  0  0
   29.4224  -20.8808  -11.8312 C   0  0  0  0  0  0  0  0  0  0  0  0
   28.3083  -20.3407  -12.4758 C   0  0  0  0  0  0  0  0  0  0  0  0
   23.9784  -20.3095  -14.1340 C   0  0  0  0  0  0  0  0  0  0  0  0
   23.7279  -19.3580  -14.8972 O   0  0  0  0  0  0  0  0  0  0  0  0
   17.0027  -22.5396  -10.5851 N   0  0  0  0  0  0  0  0  0  0  0  0
   17.4729  -23.7384  -11.1847 C   0  0  0  0  0  0  0  0  0  0  0  0
   16.6842  -24.7800  -11.1025 N   0  0  0  0  0  0  0  0  0  0  0  0
   18.7271  -23.8397  -11.8472 N   0  0  0  0  0  0  0  0  0  0  0  0
   19.0458  -22.8086  -12.8120 C   0  0  0  0  0  0  0  0  0  0  0  0
   20.3857  -22.8765  -13.4095 C   0  0  0  0  0  0  0  0  0  0  0  0
   20.8460  -22.0055  -14.4679 C   0  0  0  0  0  0  0  0  0  0  0  0
   21.4951  -20.7151  -14.1504 C   0  0  2  0  0  0  0  0  0  0  0  0
   22.8840  -21.0426  -13.6285 N   0  0  0  0  0  0  0  0  0  0  0  0
   20.8932  -20.0759  -12.9727 C   0  0  0  0  0  0  0  0  0  0  0  0
   21.4129  -20.0746  -11.7130 O   0  0  0  0  0  0  0  0  0  0  0  0
   19.7807  -19.4627  -13.1056 O   0  0  0  0  0  0  0  0  0  0  0  0
  1  5  1  0
  2  1  1  0
  2  3  1  0
  3  4  1  0
  5  6  1  1
  5  4  1  0
  6  7  2  0
  8  6  1  0
  8  9  1  0
  9 10  1  1
 11 10  1  0
 12 11  2  0
 13 12  1  0
 14 15  1  0
 14 13  2  0
 15 16  2  0
 16 11  1  0
 17 27  1  0
 17  9  1  0
 18 17  2  0
 19 20  1  0
 20 22  1  0
 21 20  2  0
 22 23  1  0
 23 24  1  0
 24 25  1  0
 26 25  1  1
 26 27  1  0
 28 29  1  0
 28 26  1  0
 30 28  2  0
M  END
$$$$
