PFR.pdb
     RDKit          3D

 30 31  0  0  1  0  0  0  0  0999 V2000
   23.5477  -21.9737   -6.9198 N   0  0  0  0  0  0  0  0  0  0  0  0
   22.3615  -22.2522   -6.0994 C   0  0  0  0  0  0  0  0  0  0  0  0
   21.6331  -20.9478   -5.9652 C   0  0  0  0  0  0  0  0  0  0  0  0
   22.4347  -19.9652   -6.7975 C   0  0  0  0  0  0  0  0  0  0  0  0
   23.1222  -20.8892   -7.7772 C   0  0  1  0  0  0  0  0  0  0  0  0
   24.2868  -20.2781   -8.4182 C   0  0  0  0  0  0  0  0  0  0  0  0
   24.2336  -19.2382   -9.1299 O   0  0  0  0  0  0  0  0  0  0  0  0
   25.5656  -20.8646   -8.2495 N   0  0  0  0  0  0  0  0  0  0  0  0
   26.7605  -20.3311   -8.8816 C   0  0  1  0  0  0  0  0  0  0  0  0
   27.9814  -20.5913   -8.0316 C   0  0  0  0  0  0  0  0  0  0  0  0
   27.9638  -19.9586   -6.7183 C   0  0  0  0  0  0  0  0  0  0  0  0
   27.6091  -18.6391   -6.5511 C   0  0  0  0  0  0  0  0  0  0  0  0
   27.5826  -18.0319   -5.3192 C   0  0  0  0  0  0  0  0  0  0  0  0
   27.9207  -18.7564   -4.2006 C   0  0  0  0  0  0  0  0  0  0  0  0
   28.2813  -20.0813   -4.3298 C   0  0  0  0  0  0  0  0  0  0  0  0
   28.2999  -20.6740   -5.5936 C   0  0  0  0  0  0  0  0  0  0  0  0
   26.9066  -20.8501  -10.2687 C   0  0  0  0  0  0  0  0  0  0  0  0
   27.5550  -21.8743  -10.5540 O   0  0  0  0  0  0  0  0  0  0  0  0
   24.0467  -25.7252  -13.0615 N   0  0  0  0  0  0  0  0  0  0  0  0
   23.8534  -25.4385  -14.4393 C   0  0  0  0  0  0  0  0  0  0  0  0
   24.1741  -26.3866  -15.2830 N   0  0  0  0  0  0  0  0  0  0  0  0
   23.3414  -24.1997  -14.9142 N   0  0  0  0  0  0  0  0  0  0  0  0
   23.2881  -23.1049  -13.9686 C   0  0  0  0  0  0  0  0  0  0  0  0
   24.4859  -22.2581  -13.8946 C   0  0  0  0  0  0  0  0  0  0  0  0
   25.0011  -21.6887  -12.6694 C   0  0  0  0  0  0  0  0  0  0  0  0
   26.2103  -20.8372  -12.6866 C   0  0  2  0  0  0  0  0  0  0  0  0
   26.2846  -20.1583  -11.3294 N   0  0  0  0  0  0  0  0  0  0  0  0
   26.0498  -19.6784  -13.5749 C   0  0  0  0  0  0  0  0  0  0  0  0
   25.7581  -18.4066  -13.1819 O   0  0  0  0  0  0  0  0  0  0  0  0
   26.1839  -19.8441  -14.8343 O   0  0  0  0  0  0  0  0  0  0  0  0
  1  5  1  0
  2  1  1  0
  2  3  1  0
  3  4  1  0
  5  6  1  1
  5  4  1  0
  6  7  2  0
  8  6  1  0
  8  9  1  0
  9 10  1  1
 11 10  1  0
 12 11  2  0
 13 12  1  0
 14 15  1  0
 14 13  2  0
 15 16  2  0
 16 11  1  0
 17 27  1  0
 17  9  1  0
 18 17  2  0
 19 20  1  0
 20 22  1  0
 21 20  2  0
 22 23  1  0
 23 24  1  0
 24 25  1  0
 26 25  1  1
 26 27  1  0
 28 29  1  0
 28 26  1  0
 30 28  2  0
M  END
$$$$
