AEE.pdb
     RDKit          3D

 24 23  0  0  1  0  0  0  0  0999 V2000
   23.8392  -12.2854  -17.5833 C   0  0  0  0  0  0  0  0  0  0  0  0
   22.9142  -11.1814  -17.9876 C   0  0  2  0  0  0  0  0  0  0  0  0
   23.6838  -10.1443  -18.6480 N   0  0  0  0  0  0  0  0  0  0  0  0
   22.1792  -10.5815  -16.8515 C   0  0  0  0  0  0  0  0  0  0  0  0
   21.4189  -11.2888  -16.1236 O   0  0  0  0  0  0  0  0  0  0  0  0
   22.2693   -9.2062  -16.5034 N   0  0  0  0  0  0  0  0  0  0  0  0
   21.5336   -8.5796  -15.4356 C   0  0  1  0  0  0  0  0  0  0  0  0
   22.1552   -7.2542  -15.0496 C   0  0  0  0  0  0  0  0  0  0  0  0
   21.3791   -6.5715  -13.9295 C   0  0  0  0  0  0  0  0  0  0  0  0
   22.1203   -5.3524  -13.5603 C   0  0  0  0  0  0  0  0  0  0  0  0
   23.3335   -5.2593  -13.8242 O   0  0  0  0  0  0  0  0  0  0  0  0
   20.1197   -8.3295  -15.7775 C   0  0  0  0  0  0  0  0  0  0  0  0
   19.8911   -7.6644  -16.8195 O   0  0  0  0  0  0  0  0  0  0  0  0
   21.4662   -4.3220  -12.9249 O   0  0  0  0  0  0  0  0  0  0  0  0
   19.0196   -8.7780  -15.0274 N   0  0  0  0  0  0  0  0  0  0  0  0
   17.6165   -8.5817  -15.4204 C   0  0  1  0  0  0  0  0  0  0  0  0
   16.9072   -9.8277  -14.9684 C   0  0  0  0  0  0  0  0  0  0  0  0
   15.4643   -9.7776  -15.3245 C   0  0  0  0  0  0  0  0  0  0  0  0
   14.8108  -11.0450  -14.9293 C   0  0  0  0  0  0  0  0  0  0  0  0
   15.1442  -11.5977  -13.8593 O   0  0  0  0  0  0  0  0  0  0  0  0
   17.0758   -7.3447  -14.8515 C   0  0  0  0  0  0  0  0  0  0  0  0
   17.6484   -6.5882  -13.8480 O   0  0  0  0  0  0  0  0  0  0  0  0
   13.8445  -11.6089  -15.7338 O   0  0  0  0  0  0  0  0  0  0  0  0
   15.9819   -6.9157  -15.3096 O   0  0  0  0  0  0  0  0  0  0  0  0
  2  1  1  1
  2  3  1  0
  4  2  1  0
  4  5  2  0
  6  4  1  0
  7  6  1  0
  7 12  1  0
  7  8  1  6
  9 10  1  0
  9  8  1  0
 10 14  1  0
 11 10  2  0
 12 13  2  0
 12 15  1  0
 15 16  1  0
 16 21  1  0
 16 17  1  1
 18 17  1  0
 19 18  1  0
 19 20  2  0
 21 24  2  0
 21 22  1  0
 23 19  1  0
M  END
$$$$
