AEE.pdb
     RDKit          3D

 24 23  0  0  1  0  0  0  0  0999 V2000
   19.3983  -13.7958  -17.4298 C   0  0  0  0  0  0  0  0  0  0  0  0
   20.2877  -12.8708  -16.6610 C   0  0  2  0  0  0  0  0  0  0  0  0
   20.0869  -13.0994  -15.2428 N   0  0  0  0  0  0  0  0  0  0  0  0
   20.0457  -11.4403  -16.9539 C   0  0  0  0  0  0  0  0  0  0  0  0
   20.1979  -10.9824  -18.1267 O   0  0  0  0  0  0  0  0  0  0  0  0
   19.6365  -10.5009  -15.9686 N   0  0  0  0  0  0  0  0  0  0  0  0
   19.4343   -9.0952  -16.2081 C   0  0  1  0  0  0  0  0  0  0  0  0
   18.0619   -8.6549  -15.7444 C   0  0  0  0  0  0  0  0  0  0  0  0
   17.0110   -8.8436  -16.8321 C   0  0  0  0  0  0  0  0  0  0  0  0
   15.7168   -8.4153  -16.2723 C   0  0  0  0  0  0  0  0  0  0  0  0
   15.0402   -7.5521  -16.8619 O   0  0  0  0  0  0  0  0  0  0  0  0
   20.4314   -8.2444  -15.5298 C   0  0  0  0  0  0  0  0  0  0  0  0
   20.6835   -8.5052  -14.3262 O   0  0  0  0  0  0  0  0  0  0  0  0
   15.2625   -8.9727  -15.0993 O   0  0  0  0  0  0  0  0  0  0  0  0
   21.1139   -7.1720  -16.1284 N   0  0  0  0  0  0  0  0  0  0  0  0
   22.0723   -6.3068  -15.4252 C   0  0  1  0  0  0  0  0  0  0  0  0
   22.4581   -5.2562  -16.4287 C   0  0  0  0  0  0  0  0  0  0  0  0
   23.4405   -4.3020  -15.8493 C   0  0  0  0  0  0  0  0  0  0  0  0
   23.7710   -3.2616  -16.8481 C   0  0  0  0  0  0  0  0  0  0  0  0
   23.7777   -2.0609  -16.5017 O   0  0  0  0  0  0  0  0  0  0  0  0
   21.4945   -5.7719  -14.1897 C   0  0  0  0  0  0  0  0  0  0  0  0
   20.1939   -5.3419  -14.0152 O   0  0  0  0  0  0  0  0  0  0  0  0
   24.0684   -3.6143  -18.1466 O   0  0  0  0  0  0  0  0  0  0  0  0
   22.2437   -5.6876  -13.1786 O   0  0  0  0  0  0  0  0  0  0  0  0
  2  1  1  6
  2  3  1  0
  4  2  1  0
  4  5  2  0
  6  4  1  0
  7  6  1  0
  7 12  1  0
  7  8  1  1
  9 10  1  0
  9  8  1  0
 10 14  1  0
 11 10  2  0
 12 13  2  0
 12 15  1  0
 15 16  1  0
 16 21  1  0
 16 17  1  6
 18 17  1  0
 19 18  1  0
 19 20  2  0
 21 24  2  0
 21 22  1  0
 23 19  1  0
M  END
$$$$
