AEE.pdb
     RDKit          3D

 24 23  0  0  1  0  0  0  0  0999 V2000
   15.8040  -10.7560  -15.0661 C   0  0  0  0  0  0  0  0  0  0  0  0
   16.3845   -9.5812  -15.7878 C   0  0  2  0  0  0  0  0  0  0  0  0
   16.4974   -9.9066  -17.1968 N   0  0  0  0  0  0  0  0  0  0  0  0
   17.7154   -9.1767  -15.2822 C   0  0  0  0  0  0  0  0  0  0  0  0
   17.8537   -8.7263  -14.1048 O   0  0  0  0  0  0  0  0  0  0  0  0
   18.9032   -9.2608  -16.0585 N   0  0  0  0  0  0  0  0  0  0  0  0
   20.2179   -8.9070  -15.5889 C   0  0  1  0  0  0  0  0  0  0  0  0
   21.2869   -9.6957  -16.3151 C   0  0  0  0  0  0  0  0  0  0  0  0
   22.6642   -9.4797  -15.6992 C   0  0  0  0  0  0  0  0  0  0  0  0
   23.6203  -10.3045  -16.4592 C   0  0  0  0  0  0  0  0  0  0  0  0
   23.2224  -10.9916  -17.4183 O   0  0  0  0  0  0  0  0  0  0  0  0
   20.5252   -7.4734  -15.7580 C   0  0  0  0  0  0  0  0  0  0  0  0
   20.1934   -6.9407  -16.8472 O   0  0  0  0  0  0  0  0  0  0  0  0
   24.9495  -10.3109  -16.1038 O   0  0  0  0  0  0  0  0  0  0  0  0
   21.1574   -6.6676  -14.7961 N   0  0  0  0  0  0  0  0  0  0  0  0
   21.2474   -5.2023  -14.8759 C   0  0  1  0  0  0  0  0  0  0  0  0
   19.8231   -4.7279  -14.9530 C   0  0  0  0  0  0  0  0  0  0  0  0
   19.7566   -3.2424  -14.9607 C   0  0  0  0  0  0  0  0  0  0  0  0
   18.3475   -2.8088  -15.0876 C   0  0  0  0  0  0  0  0  0  0  0  0
   17.4402   -3.6680  -15.0828 O   0  0  0  0  0  0  0  0  0  0  0  0
   22.0006   -4.6561  -13.7442 C   0  0  0  0  0  0  0  0  0  0  0  0
   22.5823   -3.4055  -13.6772 O   0  0  0  0  0  0  0  0  0  0  0  0
   18.0405   -1.4709  -15.2096 O   0  0  0  0  0  0  0  0  0  0  0  0
   22.1423   -5.3856  -12.7252 O   0  0  0  0  0  0  0  0  0  0  0  0
  2  1  1  1
  2  3  1  0
  4  2  1  0
  4  5  2  0
  6  4  1  0
  7  6  1  0
  7 12  1  0
  7  8  1  6
  9 10  1  0
  9  8  1  0
 10 14  1  0
 11 10  2  0
 12 13  2  0
 12 15  1  0
 15 16  1  0
 16 21  1  0
 16 17  1  1
 18 17  1  0
 19 18  1  0
 19 20  2  0
 21 24  2  0
 21 22  1  0
 23 19  1  0
M  END
$$$$
