AEE.pdb
     RDKit          3D

 24 23  0  0  1  0  0  0  0  0999 V2000
   19.6717   -9.6199  -21.0234 C   0  0  0  0  0  0  0  0  0  0  0  0
   20.7359   -9.3527  -20.0065 C   0  0  2  0  0  0  0  0  0  0  0  0
   21.2062  -10.6187  -19.4774 N   0  0  0  0  0  0  0  0  0  0  0  0
   20.2788   -8.5049  -18.8827 C   0  0  0  0  0  0  0  0  0  0  0  0
   19.8415   -7.3325  -19.0894 O   0  0  0  0  0  0  0  0  0  0  0  0
   20.2965   -8.9311  -17.5268 N   0  0  0  0  0  0  0  0  0  0  0  0
   19.7458   -8.1856  -16.4244 C   0  0  1  0  0  0  0  0  0  0  0  0
   19.2206   -9.1117  -15.3480 C   0  0  0  0  0  0  0  0  0  0  0  0
   17.7591   -9.4761  -15.5805 C   0  0  0  0  0  0  0  0  0  0  0  0
   17.4066  -10.5242  -14.6063 C   0  0  0  0  0  0  0  0  0  0  0  0
   17.5092  -10.2980  -13.3862 O   0  0  0  0  0  0  0  0  0  0  0  0
   20.7242   -7.2766  -15.7960 C   0  0  0  0  0  0  0  0  0  0  0  0
   21.8975   -7.7054  -15.6562 O   0  0  0  0  0  0  0  0  0  0  0  0
   16.9655  -11.7492  -15.0513 O   0  0  0  0  0  0  0  0  0  0  0  0
   20.4400   -5.9762  -15.3461 N   0  0  0  0  0  0  0  0  0  0  0  0
   21.4399   -5.0630  -14.7736 C   0  0  1  0  0  0  0  0  0  0  0  0
   20.8688   -3.6865  -14.9709 C   0  0  0  0  0  0  0  0  0  0  0  0
   20.8252   -3.3303  -16.4141 C   0  0  0  0  0  0  0  0  0  0  0  0
   20.1161   -2.0431  -16.5869 C   0  0  0  0  0  0  0  0  0  0  0  0
   19.7177   -1.4237  -15.5773 O   0  0  0  0  0  0  0  0  0  0  0  0
   21.7247   -5.3989  -13.3763 C   0  0  0  0  0  0  0  0  0  0  0  0
   22.7820   -4.9295  -12.6222 O   0  0  0  0  0  0  0  0  0  0  0  0
   19.8980   -1.5338  -17.8486 O   0  0  0  0  0  0  0  0  0  0  0  0
   20.9395   -6.1935  -12.7908 O   0  0  0  0  0  0  0  0  0  0  0  0
  2  1  1  6
  2  3  1  0
  4  2  1  0
  4  5  2  0
  6  4  1  0
  7  6  1  0
  7 12  1  0
  7  8  1  1
  9 10  1  0
  9  8  1  0
 10 14  1  0
 11 10  2  0
 12 13  2  0
 12 15  1  0
 15 16  1  0
 16 21  1  0
 16 17  1  1
 18 17  1  0
 19 18  1  0
 19 20  2  0
 21 24  2  0
 21 22  1  0
 23 19  1  0
M  END
$$$$
