AEE.pdb
     RDKit          3D

 24 23  0  0  1  0  0  0  0  0999 V2000
   23.5380  -11.3150  -15.5588 C   0  0  0  0  0  0  0  0  0  0  0  0
   22.1746  -11.7727  -15.9704 C   0  0  2  0  0  0  0  0  0  0  0  0
   22.3101  -12.7494  -17.0343 N   0  0  0  0  0  0  0  0  0  0  0  0
   21.2995  -10.6745  -16.4381 C   0  0  0  0  0  0  0  0  0  0  0  0
   21.6093   -9.9860  -17.4571 O   0  0  0  0  0  0  0  0  0  0  0  0
   20.0814  -10.3207  -15.7965 N   0  0  0  0  0  0  0  0  0  0  0  0
   19.2048   -9.2616  -16.2254 C   0  0  1  0  0  0  0  0  0  0  0  0
   17.8136   -9.7867  -16.5099 C   0  0  0  0  0  0  0  0  0  0  0  0
   17.7686  -10.5956  -17.8009 C   0  0  0  0  0  0  0  0  0  0  0  0
   16.3837  -11.0682  -17.9758 C   0  0  0  0  0  0  0  0  0  0  0  0
   15.4886  -10.6655  -17.2097 O   0  0  0  0  0  0  0  0  0  0  0  0
   19.0806   -8.1769  -15.2321 C   0  0  0  0  0  0  0  0  0  0  0  0
   19.2365   -8.4858  -14.0236 O   0  0  0  0  0  0  0  0  0  0  0  0
   16.0871  -11.9535  -18.9865 O   0  0  0  0  0  0  0  0  0  0  0  0
   18.8024   -6.8341  -15.5384 N   0  0  0  0  0  0  0  0  0  0  0  0
   18.7043   -5.7616  -14.5376 C   0  0  1  0  0  0  0  0  0  0  0  0
   20.0413   -5.7464  -13.8504 C   0  0  0  0  0  0  0  0  0  0  0  0
   21.1287   -5.4151  -14.8091 C   0  0  0  0  0  0  0  0  0  0  0  0
   22.3557   -5.0564  -14.0640 C   0  0  0  0  0  0  0  0  0  0  0  0
   22.2993   -4.9162  -12.8235 O   0  0  0  0  0  0  0  0  0  0  0  0
   18.3366   -4.4880  -15.1612 C   0  0  0  0  0  0  0  0  0  0  0  0
   18.0346   -3.3126  -14.5023 O   0  0  0  0  0  0  0  0  0  0  0  0
   23.5477   -4.8792  -14.7323 O   0  0  0  0  0  0  0  0  0  0  0  0
   18.2844   -4.4434  -16.4206 O   0  0  0  0  0  0  0  0  0  0  0  0
  2  1  1  6
  2  3  1  0
  4  2  1  0
  4  5  2  0
  6  4  1  0
  7  6  1  0
  7 12  1  0
  7  8  1  1
  9 10  1  0
  9  8  1  0
 10 14  1  0
 11 10  2  0
 12 13  2  0
 12 15  1  0
 15 16  1  0
 16 21  1  0
 16 17  1  6
 18 17  1  0
 19 18  1  0
 19 20  2  0
 21 24  2  0
 21 22  1  0
 23 19  1  0
M  END
$$$$
