AEE.pdb
     RDKit          3D

 24 23  0  0  1  0  0  0  0  0999 V2000
   13.6469  -12.7644  -15.9874 C   0  0  0  0  0  0  0  0  0  0  0  0
   15.0557  -12.5883  -15.5162 C   0  0  2  0  0  0  0  0  0  0  0  0
   15.0801  -12.6792  -14.0687 N   0  0  0  0  0  0  0  0  0  0  0  0
   15.6579  -11.2993  -15.9246 C   0  0  0  0  0  0  0  0  0  0  0  0
   15.8241  -11.0194  -17.1503 O   0  0  0  0  0  0  0  0  0  0  0  0
   16.0826  -10.3086  -14.9980 N   0  0  0  0  0  0  0  0  0  0  0  0
   16.7518   -9.0841  -15.3543 C   0  0  1  0  0  0  0  0  0  0  0  0
   16.0576   -7.8855  -14.7432 C   0  0  0  0  0  0  0  0  0  0  0  0
   16.7056   -6.5759  -15.1771 C   0  0  0  0  0  0  0  0  0  0  0  0
   15.9589   -5.4809  -14.5327 C   0  0  0  0  0  0  0  0  0  0  0  0
   16.2814   -4.2979  -14.7489 O   0  0  0  0  0  0  0  0  0  0  0  0
   18.1637   -9.0517  -14.9255 C   0  0  0  0  0  0  0  0  0  0  0  0
   18.4138   -9.4160  -13.7487 O   0  0  0  0  0  0  0  0  0  0  0  0
   14.9077   -5.7725  -13.6941 O   0  0  0  0  0  0  0  0  0  0  0  0
   19.2401   -8.6458  -15.7323 N   0  0  0  0  0  0  0  0  0  0  0  0
   20.6512   -8.7210  -15.3265 C   0  0  1  0  0  0  0  0  0  0  0  0
   21.3859   -9.1807  -16.5548 C   0  0  0  0  0  0  0  0  0  0  0  0
   22.8522   -9.2278  -16.3113 C   0  0  0  0  0  0  0  0  0  0  0  0
   23.5469   -9.6596  -17.5444 C   0  0  0  0  0  0  0  0  0  0  0  0
   22.8846   -9.8396  -18.5888 O   0  0  0  0  0  0  0  0  0  0  0  0
   21.1176   -7.4383  -14.7941 C   0  0  0  0  0  0  0  0  0  0  0  0
   21.8752   -7.2536  -13.6544 O   0  0  0  0  0  0  0  0  0  0  0  0
   24.9101   -9.8606  -17.5399 O   0  0  0  0  0  0  0  0  0  0  0  0
   20.8048   -6.3914  -15.4241 O   0  0  0  0  0  0  0  0  0  0  0  0
  2  1  1  1
  2  3  1  0
  4  2  1  0
  4  5  2  0
  6  4  1  0
  7  6  1  0
  7 12  1  0
  7  8  1  1
  9 10  1  0
  9  8  1  0
 10 14  1  0
 11 10  2  0
 12 13  2  0
 12 15  1  0
 15 16  1  0
 16 21  1  0
 16 17  1  6
 18 17  1  0
 19 18  1  0
 19 20  2  0
 21 24  2  0
 21 22  1  0
 23 19  1  0
M  END
$$$$
