AEE.pdb
     RDKit          3D

 24 23  0  0  1  0  0  0  0  0999 V2000
   23.2408  -13.7749  -18.8877 C   0  0  0  0  0  0  0  0  0  0  0  0
   23.5838  -12.8454  -17.7669 C   0  0  2  0  0  0  0  0  0  0  0  0
   23.3441  -13.5230  -16.5069 N   0  0  0  0  0  0  0  0  0  0  0  0
   22.8081  -11.5850  -17.7871 C   0  0  0  0  0  0  0  0  0  0  0  0
   22.9862  -10.7273  -18.7042 O   0  0  0  0  0  0  0  0  0  0  0  0
   21.8339  -11.2529  -16.8067 N   0  0  0  0  0  0  0  0  0  0  0  0
   21.0534  -10.0425  -16.8017 C   0  0  1  0  0  0  0  0  0  0  0  0
   19.6182  -10.3208  -16.4081 C   0  0  0  0  0  0  0  0  0  0  0  0
   18.8174  -10.9022  -17.5673 C   0  0  0  0  0  0  0  0  0  0  0  0
   17.4565  -11.1719  -17.0704 C   0  0  0  0  0  0  0  0  0  0  0  0
   16.5832  -11.5957  -17.8502 O   0  0  0  0  0  0  0  0  0  0  0  0
   21.5814   -9.0188  -15.8789 C   0  0  0  0  0  0  0  0  0  0  0  0
   22.2052   -9.4266  -14.8666 O   0  0  0  0  0  0  0  0  0  0  0  0
   17.1580  -10.9533  -15.7452 O   0  0  0  0  0  0  0  0  0  0  0  0
   21.4375   -7.6315  -16.0495 N   0  0  0  0  0  0  0  0  0  0  0  0
   22.0672   -6.6231  -15.1847 C   0  0  1  0  0  0  0  0  0  0  0  0
   22.0159   -5.3453  -15.9749 C   0  0  0  0  0  0  0  0  0  0  0  0
   22.6051   -4.2186  -15.2037 C   0  0  0  0  0  0  0  0  0  0  0  0
   22.3964   -2.9511  -15.9381 C   0  0  0  0  0  0  0  0  0  0  0  0
   21.6059   -2.0999  -15.4773 O   0  0  0  0  0  0  0  0  0  0  0  0
   21.3983   -6.5500  -13.8833 C   0  0  0  0  0  0  0  0  0  0  0  0
   22.0006   -6.2885  -12.6685 O   0  0  0  0  0  0  0  0  0  0  0  0
   23.0676   -2.7128  -17.1178 O   0  0  0  0  0  0  0  0  0  0  0  0
   20.1524   -6.7437  -13.8509 O   0  0  0  0  0  0  0  0  0  0  0  0
  2  1  1  6
  2  3  1  0
  4  2  1  0
  4  5  2  0
  6  4  1  0
  7  6  1  0
  7 12  1  0
  7  8  1  1
  9 10  1  0
  9  8  1  0
 10 14  1  0
 11 10  2  0
 12 13  2  0
 12 15  1  0
 15 16  1  0
 16 21  1  0
 16 17  1  6
 18 17  1  0
 19 18  1  0
 19 20  2  0
 21 24  2  0
 21 22  1  0
 23 19  1  0
M  END
$$$$
