AEE.pdb
     RDKit          3D

 24 23  0  0  1  0  0  0  0  0999 V2000
   14.5594   -5.0570  -18.4425 C   0  0  0  0  0  0  0  0  0  0  0  0
   15.5042   -6.2165  -18.4681 C   0  0  2  0  0  0  0  0  0  0  0  0
   14.7387   -7.4411  -18.6034 N   0  0  0  0  0  0  0  0  0  0  0  0
   16.3522   -6.3136  -17.2589 C   0  0  0  0  0  0  0  0  0  0  0  0
   15.8870   -6.0270  -16.1145 O   0  0  0  0  0  0  0  0  0  0  0  0
   17.7129   -6.7237  -17.2915 N   0  0  0  0  0  0  0  0  0  0  0  0
   18.5295   -6.9529  -16.1275 C   0  0  1  0  0  0  0  0  0  0  0  0
   19.1286   -8.3432  -16.1469 C   0  0  0  0  0  0  0  0  0  0  0  0
   18.1387   -9.3914  -15.6527 C   0  0  0  0  0  0  0  0  0  0  0  0
   18.7878  -10.7076  -15.7874 C   0  0  0  0  0  0  0  0  0  0  0  0
   18.4757  -11.4606  -16.7287 O   0  0  0  0  0  0  0  0  0  0  0  0
   19.6390   -5.9879  -16.0014 C   0  0  0  0  0  0  0  0  0  0  0  0
   20.3907   -5.8452  -16.9988 O   0  0  0  0  0  0  0  0  0  0  0  0
   19.7368  -11.0978  -14.8707 O   0  0  0  0  0  0  0  0  0  0  0  0
   19.9133   -5.2233  -14.8549 N   0  0  0  0  0  0  0  0  0  0  0  0
   21.0816   -4.3427  -14.7091 C   0  0  1  0  0  0  0  0  0  0  0  0
   20.5189   -3.0168  -14.2787 C   0  0  0  0  0  0  0  0  0  0  0  0
   19.8982   -2.3042  -15.4269 C   0  0  0  0  0  0  0  0  0  0  0  0
   18.6643   -1.6210  -14.9792 C   0  0  0  0  0  0  0  0  0  0  0  0
   18.3875   -1.5940  -13.7609 O   0  0  0  0  0  0  0  0  0  0  0  0
   22.0587   -4.9101  -13.7766 C   0  0  0  0  0  0  0  0  0  0  0  0
   23.3211   -4.4155  -13.5147 O   0  0  0  0  0  0  0  0  0  0  0  0
   17.8300   -1.0211  -15.8973 O   0  0  0  0  0  0  0  0  0  0  0  0
   21.7324   -5.9518  -13.1448 O   0  0  0  0  0  0  0  0  0  0  0  0
  2  1  1  1
  2  3  1  0
  4  2  1  0
  4  5  2  0
  6  4  1  0
  7  6  1  0
  7 12  1  0
  7  8  1  6
  9 10  1  0
  9  8  1  0
 10 14  1  0
 11 10  2  0
 12 13  2  0
 12 15  1  0
 15 16  1  0
 16 21  1  0
 16 17  1  1
 18 17  1  0
 19 18  1  0
 19 20  2  0
 21 24  2  0
 21 22  1  0
 23 19  1  0
M  END
$$$$
