AEE.pdb
     RDKit          3D

 24 23  0  0  1  0  0  0  0  0999 V2000
   20.1040  -12.3778  -16.8419 C   0  0  0  0  0  0  0  0  0  0  0  0
   19.8408  -11.2035  -15.9533 C   0  0  2  0  0  0  0  0  0  0  0  0
   18.4849  -11.2948  -15.4462 N   0  0  0  0  0  0  0  0  0  0  0  0
   20.0106   -9.8995  -16.6326 C   0  0  0  0  0  0  0  0  0  0  0  0
   21.1404   -9.5462  -17.0875 O   0  0  0  0  0  0  0  0  0  0  0  0
   18.9486   -8.9733  -16.8193 N   0  0  0  0  0  0  0  0  0  0  0  0
   19.0779   -7.6966  -17.4731 C   0  0  1  0  0  0  0  0  0  0  0  0
   18.0132   -7.5171  -18.5344 C   0  0  0  0  0  0  0  0  0  0  0  0
   18.3224   -8.3285  -19.7871 C   0  0  0  0  0  0  0  0  0  0  0  0
   17.2422   -8.0707  -20.7559 C   0  0  0  0  0  0  0  0  0  0  0  0
   17.5073   -7.5606  -21.8604 O   0  0  0  0  0  0  0  0  0  0  0  0
   18.9780   -6.5572  -16.5402 C   0  0  0  0  0  0  0  0  0  0  0  0
   18.2171   -6.6932  -15.5488 O   0  0  0  0  0  0  0  0  0  0  0  0
   15.9446   -8.3957  -20.4339 O   0  0  0  0  0  0  0  0  0  0  0  0
   19.6671   -5.3407  -16.6799 N   0  0  0  0  0  0  0  0  0  0  0  0
   19.6536   -4.2639  -15.6791 C   0  0  1  0  0  0  0  0  0  0  0  0
   20.3153   -4.8524  -14.4644 C   0  0  0  0  0  0  0  0  0  0  0  0
   21.7871   -4.9487  -14.6543 C   0  0  0  0  0  0  0  0  0  0  0  0
   22.4153   -5.4610  -13.4163 C   0  0  0  0  0  0  0  0  0  0  0  0
   22.6359   -6.6859  -13.3038 O   0  0  0  0  0  0  0  0  0  0  0  0
   20.3068   -3.0569  -16.1917 C   0  0  0  0  0  0  0  0  0  0  0  0
   20.4291   -1.8505  -15.5308 O   0  0  0  0  0  0  0  0  0  0  0  0
   22.7531   -4.5953  -12.3988 O   0  0  0  0  0  0  0  0  0  0  0  0
   20.8100   -3.1063  -17.3471 O   0  0  0  0  0  0  0  0  0  0  0  0
  2  1  1  6
  2  3  1  0
  4  2  1  0
  4  5  2  0
  6  4  1  0
  7  6  1  0
  7 12  1  0
  7  8  1  6
  9 10  1  0
  9  8  1  0
 10 14  1  0
 11 10  2  0
 12 13  2  0
 12 15  1  0
 15 16  1  0
 16 21  1  0
 16 17  1  1
 18 17  1  0
 19 18  1  0
 19 20  2  0
 21 24  2  0
 21 22  1  0
 23 19  1  0
M  END
$$$$
