AEE.pdb
     RDKit          3D

 24 23  0  0  1  0  0  0  0  0999 V2000
   17.1445  -12.3624  -15.3695 C   0  0  0  0  0  0  0  0  0  0  0  0
   17.3270  -10.9198  -15.7209 C   0  0  2  0  0  0  0  0  0  0  0  0
   17.0006  -10.7344  -17.1220 N   0  0  0  0  0  0  0  0  0  0  0  0
   18.7001  -10.4228  -15.4799 C   0  0  0  0  0  0  0  0  0  0  0  0
   19.1282  -10.2432  -14.2997 O   0  0  0  0  0  0  0  0  0  0  0  0
   19.6141  -10.1185  -16.5252 N   0  0  0  0  0  0  0  0  0  0  0  0
   20.9612   -9.6490  -16.3274 C   0  0  1  0  0  0  0  0  0  0  0  0
   21.8821  -10.1603  -17.4148 C   0  0  0  0  0  0  0  0  0  0  0  0
   22.3841  -11.5676  -17.1140 C   0  0  0  0  0  0  0  0  0  0  0  0
   23.2927  -11.9538  -18.2082 C   0  0  0  0  0  0  0  0  0  0  0  0
   23.0440  -12.9620  -18.8952 O   0  0  0  0  0  0  0  0  0  0  0  0
   21.0627   -8.1767  -16.3089 C   0  0  0  0  0  0  0  0  0  0  0  0
   20.6898   -7.5634  -17.3409 O   0  0  0  0  0  0  0  0  0  0  0  0
   24.4126  -11.1969  -18.4648 O   0  0  0  0  0  0  0  0  0  0  0  0
   21.5429   -7.4172  -15.2287 N   0  0  0  0  0  0  0  0  0  0  0  0
   21.4254   -5.9551  -15.1296 C   0  0  1  0  0  0  0  0  0  0  0  0
   19.9520   -5.6748  -15.2326 C   0  0  0  0  0  0  0  0  0  0  0  0
   19.6678   -4.2326  -15.0076 C   0  0  0  0  0  0  0  0  0  0  0  0
   18.2689   -3.9366  -15.3888 C   0  0  0  0  0  0  0  0  0  0  0  0
   17.3530   -4.6836  -14.9830 O   0  0  0  0  0  0  0  0  0  0  0  0
   22.0457   -5.4565  -13.8996 C   0  0  0  0  0  0  0  0  0  0  0  0
   22.5377   -6.2249  -12.8630 O   0  0  0  0  0  0  0  0  0  0  0  0
   17.9806   -2.8481  -16.1831 O   0  0  0  0  0  0  0  0  0  0  0  0
   22.1467   -4.2075  -13.7565 O   0  0  0  0  0  0  0  0  0  0  0  0
  2  1  1  6
  2  3  1  0
  4  2  1  0
  4  5  2  0
  6  4  1  0
  7  6  1  0
  7 12  1  0
  7  8  1  6
  9 10  1  0
  9  8  1  0
 10 14  1  0
 11 10  2  0
 12 13  2  0
 12 15  1  0
 15 16  1  0
 16 21  1  0
 16 17  1  1
 18 17  1  0
 19 18  1  0
 19 20  2  0
 21 24  2  0
 21 22  1  0
 23 19  1  0
M  END
$$$$
