AEE.pdb
     RDKit          3D

 24 23  0  0  1  0  0  0  0  0999 V2000
   22.6295  -11.8954  -18.0563 C   0  0  0  0  0  0  0  0  0  0  0  0
   22.3964  -11.2786  -16.7135 C   0  0  2  0  0  0  0  0  0  0  0  0
   22.3536  -12.3308  -15.7160 N   0  0  0  0  0  0  0  0  0  0  0  0
   21.1444  -10.4931  -16.6342 C   0  0  0  0  0  0  0  0  0  0  0  0
   21.0380   -9.3785  -17.2296 O   0  0  0  0  0  0  0  0  0  0  0  0
   20.0014  -10.9192  -15.9044 N   0  0  0  0  0  0  0  0  0  0  0  0
   18.7995  -10.1440  -15.7350 C   0  0  1  0  0  0  0  0  0  0  0  0
   17.6583  -11.0081  -15.2418 C   0  0  0  0  0  0  0  0  0  0  0  0
   16.3247  -10.2731  -15.3068 C   0  0  0  0  0  0  0  0  0  0  0  0
   15.2808  -11.2160  -14.8676 C   0  0  0  0  0  0  0  0  0  0  0  0
   14.0821  -10.8827  -14.9170 O   0  0  0  0  0  0  0  0  0  0  0  0
   18.9614   -9.0281  -14.7826 C   0  0  0  0  0  0  0  0  0  0  0  0
   19.7530   -9.2045  -13.8222 O   0  0  0  0  0  0  0  0  0  0  0  0
   15.6372  -12.4617  -14.4044 O   0  0  0  0  0  0  0  0  0  0  0  0
   18.2989   -7.7922  -14.8719 N   0  0  0  0  0  0  0  0  0  0  0  0
   18.6741   -6.5963  -14.1035 C   0  0  1  0  0  0  0  0  0  0  0  0
   20.1453   -6.4172  -14.3550 C   0  0  0  0  0  0  0  0  0  0  0  0
   20.6803   -5.2632  -13.5846 C   0  0  0  0  0  0  0  0  0  0  0  0
   22.1390   -5.1513  -13.8063 C   0  0  0  0  0  0  0  0  0  0  0  0
   22.6856   -4.0303  -13.7278 O   0  0  0  0  0  0  0  0  0  0  0  0
   17.8559   -5.4430  -14.4867 C   0  0  0  0  0  0  0  0  0  0  0  0
   16.9915   -5.3754  -15.5616 O   0  0  0  0  0  0  0  0  0  0  0  0
   22.8859   -6.2725  -14.0960 O   0  0  0  0  0  0  0  0  0  0  0  0
   17.9378   -4.4026  -13.7785 O   0  0  0  0  0  0  0  0  0  0  0  0
  2  1  1  6
  2  3  1  0
  4  2  1  0
  4  5  2  0
  6  4  1  0
  7  6  1  0
  7 12  1  0
  7  8  1  1
  9 10  1  0
  9  8  1  0
 10 14  1  0
 11 10  2  0
 12 13  2  0
 12 15  1  0
 15 16  1  0
 16 21  1  0
 16 17  1  6
 18 17  1  0
 19 18  1  0
 19 20  2  0
 21 24  2  0
 21 22  1  0
 23 19  1  0
M  END
$$$$
