AEE.pdb
     RDKit          3D

 24 23  0  0  1  0  0  0  0  0999 V2000
   19.1512  -14.4383  -15.7199 C   0  0  0  0  0  0  0  0  0  0  0  0
   17.9855  -13.5137  -15.5639 C   0  0  2  0  0  0  0  0  0  0  0  0
   16.8299  -14.1039  -16.2122 N   0  0  0  0  0  0  0  0  0  0  0  0
   18.2190  -12.1682  -16.1346 C   0  0  0  0  0  0  0  0  0  0  0  0
   18.5984  -12.0293  -17.3368 O   0  0  0  0  0  0  0  0  0  0  0  0
   18.0401  -10.9664  -15.3969 N   0  0  0  0  0  0  0  0  0  0  0  0
   18.1417   -9.6405  -15.9501 C   0  0  1  0  0  0  0  0  0  0  0  0
   16.7753   -9.0884  -16.2973 C   0  0  0  0  0  0  0  0  0  0  0  0
   15.8025   -9.2143  -15.1308 C   0  0  0  0  0  0  0  0  0  0  0  0
   14.4941   -8.7186  -15.5936 C   0  0  0  0  0  0  0  0  0  0  0  0
   13.4510   -9.3066  -15.2521 O   0  0  0  0  0  0  0  0  0  0  0  0
   18.7941   -8.6821  -15.0368 C   0  0  0  0  0  0  0  0  0  0  0  0
   18.6271   -8.8607  -13.8038 O   0  0  0  0  0  0  0  0  0  0  0  0
   14.4324   -7.6070  -16.4021 O   0  0  0  0  0  0  0  0  0  0  0  0
   19.5823   -7.5925  -15.4439 N   0  0  0  0  0  0  0  0  0  0  0  0
   20.3178   -6.7147  -14.5219 C   0  0  1  0  0  0  0  0  0  0  0  0
   21.5910   -6.3709  -15.2435 C   0  0  0  0  0  0  0  0  0  0  0  0
   22.4436   -5.4730  -14.4200 C   0  0  0  0  0  0  0  0  0  0  0  0
   23.6429   -5.0803  -15.1927 C   0  0  0  0  0  0  0  0  0  0  0  0
   24.0007   -3.8830  -15.2008 O   0  0  0  0  0  0  0  0  0  0  0  0
   19.5116   -5.5519  -14.1421 C   0  0  0  0  0  0  0  0  0  0  0  0
   19.5905   -4.8566  -12.9516 O   0  0  0  0  0  0  0  0  0  0  0  0
   24.3571   -6.0262  -15.8957 O   0  0  0  0  0  0  0  0  0  0  0  0
   18.6571   -5.1332  -14.9698 O   0  0  0  0  0  0  0  0  0  0  0  0
  2  1  1  6
  2  3  1  0
  4  2  1  0
  4  5  2  0
  6  4  1  0
  7  6  1  0
  7 12  1  0
  7  8  1  1
  9 10  1  0
  9  8  1  0
 10 14  1  0
 11 10  2  0
 12 13  2  0
 12 15  1  0
 15 16  1  0
 16 21  1  0
 16 17  1  6
 18 17  1  0
 19 18  1  0
 19 20  2  0
 21 24  2  0
 21 22  1  0
 23 19  1  0
M  END
$$$$
