AEE.pdb
     RDKit          3D

 24 23  0  0  1  0  0  0  0  0999 V2000
   27.0892  -17.5622  -16.1900 C   0  0  0  0  0  0  0  0  0  0  0  0
   27.4772  -18.8871  -15.6140 C   0  0  2  0  0  0  0  0  0  0  0  0
   28.1227  -19.6754  -16.6465 N   0  0  0  0  0  0  0  0  0  0  0  0
   26.3325  -19.6534  -15.0727 C   0  0  0  0  0  0  0  0  0  0  0  0
   25.7515  -20.5357  -15.7743 O   0  0  0  0  0  0  0  0  0  0  0  0
   25.8148  -19.4612  -13.7629 N   0  0  0  0  0  0  0  0  0  0  0  0
   24.7804  -20.2638  -13.1628 C   0  0  1  0  0  0  0  0  0  0  0  0
   25.0506  -20.4896  -11.6903 C   0  0  0  0  0  0  0  0  0  0  0  0
   26.4175  -21.1224  -11.4577 C   0  0  0  0  0  0  0  0  0  0  0  0
   26.5888  -21.2768  -10.0021 C   0  0  0  0  0  0  0  0  0  0  0  0
   25.6166  -21.1133   -9.2415 O   0  0  0  0  0  0  0  0  0  0  0  0
   23.4383  -19.6623  -13.2857 C   0  0  0  0  0  0  0  0  0  0  0  0
   23.3738  -18.4074  -13.3228 O   0  0  0  0  0  0  0  0  0  0  0  0
   27.8243  -21.6013   -9.4909 O   0  0  0  0  0  0  0  0  0  0  0  0
   22.2366  -20.3863  -13.3633 N   0  0  0  0  0  0  0  0  0  0  0  0
   20.9465  -19.8057  -13.7635 C   0  0  1  0  0  0  0  0  0  0  0  0
   21.1704  -19.2799  -15.1539 C   0  0  0  0  0  0  0  0  0  0  0  0
   19.9353  -18.6479  -15.6891 C   0  0  0  0  0  0  0  0  0  0  0  0
   20.1915  -18.1328  -17.0524 C   0  0  0  0  0  0  0  0  0  0  0  0
   20.6635  -18.9007  -17.9179 O   0  0  0  0  0  0  0  0  0  0  0  0
   19.8682  -20.7922  -13.6623 C   0  0  0  0  0  0  0  0  0  0  0  0
   19.9721  -22.1455  -13.9173 O   0  0  0  0  0  0  0  0  0  0  0  0
   19.9119  -16.8197  -17.3631 O   0  0  0  0  0  0  0  0  0  0  0  0
   18.7280  -20.3831  -13.3113 O   0  0  0  0  0  0  0  0  0  0  0  0
  2  1  1  6
  2  3  1  0
  4  2  1  0
  4  5  2  0
  6  4  1  0
  7  6  1  0
  7 12  1  0
  7  8  1  1
  9 10  1  0
  9  8  1  0
 10 14  1  0
 11 10  2  0
 12 13  2  0
 12 15  1  0
 15 16  1  0
 16 21  1  0
 16 17  1  6
 18 17  1  0
 19 18  1  0
 19 20  2  0
 21 24  2  0
 21 22  1  0
 23 19  1  0
M  END
$$$$
