AEE.pdb
     RDKit          3D

 24 23  0  0  1  0  0  0  0  0999 V2000
   15.3076  -10.6263  -16.8662 C   0  0  0  0  0  0  0  0  0  0  0  0
   16.1033   -9.4692  -17.3817 C   0  0  2  0  0  0  0  0  0  0  0  0
   16.4061   -9.6961  -18.7820 N   0  0  0  0  0  0  0  0  0  0  0  0
   17.3699   -9.2502  -16.6479 C   0  0  0  0  0  0  0  0  0  0  0  0
   17.3671   -9.0254  -15.3998 O   0  0  0  0  0  0  0  0  0  0  0  0
   18.6469   -9.2750  -17.2718 N   0  0  0  0  0  0  0  0  0  0  0  0
   19.9028   -9.1580  -16.5766 C   0  0  1  0  0  0  0  0  0  0  0  0
   20.9751   -9.9931  -17.2436 C   0  0  0  0  0  0  0  0  0  0  0  0
   20.8647  -11.4642  -16.8607 C   0  0  0  0  0  0  0  0  0  0  0  0
   21.9544  -12.1805  -17.5473 C   0  0  0  0  0  0  0  0  0  0  0  0
   22.4448  -11.7115  -18.5913 O   0  0  0  0  0  0  0  0  0  0  0  0
   20.3959   -7.7687  -16.5047 C   0  0  0  0  0  0  0  0  0  0  0  0
   20.6293   -7.1863  -17.5939 O   0  0  0  0  0  0  0  0  0  0  0  0
   22.4245  -13.3656  -17.0300 O   0  0  0  0  0  0  0  0  0  0  0  0
   20.6215   -7.0561  -15.3149 N   0  0  0  0  0  0  0  0  0  0  0  0
   21.1453   -5.6834  -15.2607 C   0  0  1  0  0  0  0  0  0  0  0  0
   19.9276   -4.8022  -15.2417 C   0  0  0  0  0  0  0  0  0  0  0  0
   20.3033   -3.3800  -15.0239 C   0  0  0  0  0  0  0  0  0  0  0  0
   19.0848   -2.5406  -15.0113 C   0  0  0  0  0  0  0  0  0  0  0  0
   17.9731   -3.0726  -15.2181 O   0  0  0  0  0  0  0  0  0  0  0  0
   22.0346   -5.5015  -14.1108 C   0  0  0  0  0  0  0  0  0  0  0  0
   22.9720   -4.4998  -13.9532 O   0  0  0  0  0  0  0  0  0  0  0  0
   19.1763   -1.1863  -14.7735 O   0  0  0  0  0  0  0  0  0  0  0  0
   21.9505   -6.3319  -13.1652 O   0  0  0  0  0  0  0  0  0  0  0  0
  2  1  1  1
  2  3  1  0
  4  2  1  0
  4  5  2  0
  6  4  1  0
  7  6  1  0
  7 12  1  0
  7  8  1  6
  9 10  1  0
  9  8  1  0
 10 14  1  0
 11 10  2  0
 12 13  2  0
 12 15  1  0
 15 16  1  0
 16 21  1  0
 16 17  1  1
 18 17  1  0
 19 18  1  0
 19 20  2  0
 21 24  2  0
 21 22  1  0
 23 19  1  0
M  END
$$$$
