AEE.pdb
     RDKit          3D

 24 23  0  0  1  0  0  0  0  0999 V2000
   19.9510  -14.8304  -19.1374 C   0  0  0  0  0  0  0  0  0  0  0  0
   20.7544  -13.7189  -18.5398 C   0  0  2  0  0  0  0  0  0  0  0  0
   21.1565  -14.1003  -17.1993 N   0  0  0  0  0  0  0  0  0  0  0  0
   20.0244  -12.4331  -18.4725 C   0  0  0  0  0  0  0  0  0  0  0  0
   19.6248  -11.8569  -19.5292 O   0  0  0  0  0  0  0  0  0  0  0  0
   19.7264  -11.7684  -17.2518 N   0  0  0  0  0  0  0  0  0  0  0  0
   18.9676  -10.5490  -17.1449 C   0  0  1  0  0  0  0  0  0  0  0  0
   17.9583  -10.6317  -16.0195 C   0  0  0  0  0  0  0  0  0  0  0  0
   16.9703  -11.7731  -16.2300 C   0  0  0  0  0  0  0  0  0  0  0  0
   16.0945  -11.8209  -15.0457 C   0  0  0  0  0  0  0  0  0  0  0  0
   16.4156  -12.5157  -14.0636 O   0  0  0  0  0  0  0  0  0  0  0  0
   19.8120   -9.3627  -16.9039 C   0  0  0  0  0  0  0  0  0  0  0  0
   20.8370   -9.5233  -16.1942 O   0  0  0  0  0  0  0  0  0  0  0  0
   14.9249  -11.0965  -15.0320 O   0  0  0  0  0  0  0  0  0  0  0  0
   19.5540   -8.0764  -17.4071 N   0  0  0  0  0  0  0  0  0  0  0  0
   20.3924   -6.8996  -17.1359 C   0  0  1  0  0  0  0  0  0  0  0  0
   20.6686   -6.9498  -15.6591 C   0  0  0  0  0  0  0  0  0  0  0  0
   21.5450   -5.8228  -15.2430 C   0  0  0  0  0  0  0  0  0  0  0  0
   21.8514   -5.9384  -13.8000 C   0  0  0  0  0  0  0  0  0  0  0  0
   21.9222   -4.9024  -13.1046 O   0  0  0  0  0  0  0  0  0  0  0  0
   21.5961   -6.9037  -17.9711 C   0  0  0  0  0  0  0  0  0  0  0  0
   22.4706   -5.8500  -18.1493 O   0  0  0  0  0  0  0  0  0  0  0  0
   22.0562   -7.1761  -13.2300 O   0  0  0  0  0  0  0  0  0  0  0  0
   21.8745   -7.9632  -18.5960 O   0  0  0  0  0  0  0  0  0  0  0  0
  2  1  1  1
  2  3  1  0
  4  2  1  0
  4  5  2  0
  6  4  1  0
  7  6  1  0
  7 12  1  0
  7  8  1  1
  9 10  1  0
  9  8  1  0
 10 14  1  0
 11 10  2  0
 12 13  2  0
 12 15  1  0
 15 16  1  0
 16 21  1  0
 16 17  1  1
 18 17  1  0
 19 18  1  0
 19 20  2  0
 21 24  2  0
 21 22  1  0
 23 19  1  0
M  END
$$$$
