AEE.pdb
     RDKit          3D

 24 23  0  0  1  0  0  0  0  0999 V2000
   19.9436  -13.4597  -20.0738 C   0  0  0  0  0  0  0  0  0  0  0  0
   19.9576  -13.3876  -18.5797 C   0  0  2  0  0  0  0  0  0  0  0  0
   19.0236  -14.3656  -18.0551 N   0  0  0  0  0  0  0  0  0  0  0  0
   19.6000  -12.0526  -18.0499 C   0  0  0  0  0  0  0  0  0  0  0  0
   20.3737  -11.0609  -18.2116 O   0  0  0  0  0  0  0  0  0  0  0  0
   18.3963  -11.7920  -17.3401 N   0  0  0  0  0  0  0  0  0  0  0  0
   17.9762  -10.4916  -16.8854 C   0  0  1  0  0  0  0  0  0  0  0  0
   16.5024  -10.4849  -16.5390 C   0  0  0  0  0  0  0  0  0  0  0  0
   16.0362   -9.1076  -16.0821 C   0  0  0  0  0  0  0  0  0  0  0  0
   14.5937   -9.2040  -15.7959 C   0  0  0  0  0  0  0  0  0  0  0  0
   13.9888  -10.2718  -16.0064 O   0  0  0  0  0  0  0  0  0  0  0  0
   18.7185  -10.0279  -15.6970 C   0  0  0  0  0  0  0  0  0  0  0  0
   18.9168  -10.8664  -14.7817 O   0  0  0  0  0  0  0  0  0  0  0  0
   13.9224   -8.1116  -15.2969 O   0  0  0  0  0  0  0  0  0  0  0  0
   19.2155   -8.7260  -15.5168 N   0  0  0  0  0  0  0  0  0  0  0  0
   19.9947   -8.2936  -14.3474 C   0  0  1  0  0  0  0  0  0  0  0  0
   20.7421   -7.0729  -14.8069 C   0  0  0  0  0  0  0  0  0  0  0  0
   21.5966   -6.5306  -13.7174 C   0  0  0  0  0  0  0  0  0  0  0  0
   22.2604   -5.2906  -14.1771 C   0  0  0  0  0  0  0  0  0  0  0  0
   21.8302   -4.1848  -13.7851 O   0  0  0  0  0  0  0  0  0  0  0  0
   19.1275   -8.0645  -13.1891 C   0  0  0  0  0  0  0  0  0  0  0  0
   19.4416   -8.3231  -11.8694 O   0  0  0  0  0  0  0  0  0  0  0  0
   23.3418   -5.3560  -15.0287 O   0  0  0  0  0  0  0  0  0  0  0  0
   17.9793   -7.5871  -13.3994 O   0  0  0  0  0  0  0  0  0  0  0  0
  2  1  1  6
  2  3  1  0
  4  2  1  0
  4  5  2  0
  6  4  1  0
  7  6  1  0
  7 12  1  0
  7  8  1  1
  9 10  1  0
  9  8  1  0
 10 14  1  0
 11 10  2  0
 12 13  2  0
 12 15  1  0
 15 16  1  0
 16 21  1  0
 16 17  1  6
 18 17  1  0
 19 18  1  0
 19 20  2  0
 21 24  2  0
 21 22  1  0
 23 19  1  0
M  END
$$$$
