AEE.pdb
     RDKit          3D

 24 23  0  0  1  0  0  0  0  0999 V2000
   19.3215  -12.7410  -16.3702 C   0  0  0  0  0  0  0  0  0  0  0  0
   19.8727  -11.5300  -17.0539 C   0  0  2  0  0  0  0  0  0  0  0  0
   20.4233  -11.9262  -18.3360 N   0  0  0  0  0  0  0  0  0  0  0  0
   20.9246  -10.8396  -16.2744 C   0  0  0  0  0  0  0  0  0  0  0  0
   20.6456  -10.2495  -15.1871 O   0  0  0  0  0  0  0  0  0  0  0  0
   22.2869  -10.7889  -16.6769 N   0  0  0  0  0  0  0  0  0  0  0  0
   23.3307  -10.1051  -15.9577 C   0  0  1  0  0  0  0  0  0  0  0  0
   24.6903  -10.6822  -16.2902 C   0  0  0  0  0  0  0  0  0  0  0  0
   25.8036   -9.9866  -15.5158 C   0  0  0  0  0  0  0  0  0  0  0  0
   27.0776  -10.6009  -15.9298 C   0  0  0  0  0  0  0  0  0  0  0  0
   28.1533  -10.1613  -15.4826 O   0  0  0  0  0  0  0  0  0  0  0  0
   23.3757   -8.6576  -16.2428 C   0  0  0  0  0  0  0  0  0  0  0  0
   23.6639   -8.3134  -17.4169 O   0  0  0  0  0  0  0  0  0  0  0  0
   27.0713  -11.6585  -16.8099 O   0  0  0  0  0  0  0  0  0  0  0  0
   23.1217   -7.6447  -15.3028 N   0  0  0  0  0  0  0  0  0  0  0  0
   22.8544   -6.2417  -15.6518 C   0  0  1  0  0  0  0  0  0  0  0  0
   21.6720   -6.2893  -16.5790 C   0  0  0  0  0  0  0  0  0  0  0  0
   21.1429   -4.9237  -16.8370 C   0  0  0  0  0  0  0  0  0  0  0  0
   19.9671   -5.0074  -17.7314 C   0  0  0  0  0  0  0  0  0  0  0  0
   19.4346   -6.1186  -17.9398 O   0  0  0  0  0  0  0  0  0  0  0  0
   22.6423   -5.4290  -14.4515 C   0  0  0  0  0  0  0  0  0  0  0  0
   22.4619   -5.9012  -13.1663 O   0  0  0  0  0  0  0  0  0  0  0  0
   19.4653   -3.8709  -18.3277 O   0  0  0  0  0  0  0  0  0  0  0  0
   22.6178   -4.1754  -14.5869 O   0  0  0  0  0  0  0  0  0  0  0  0
  2  1  1  1
  2  3  1  0
  4  2  1  0
  4  5  2  0
  6  4  1  0
  7  6  1  0
  7 12  1  0
  7  8  1  6
  9 10  1  0
  9  8  1  0
 10 14  1  0
 11 10  2  0
 12 13  2  0
 12 15  1  0
 15 16  1  0
 16 21  1  0
 16 17  1  6
 18 17  1  0
 19 18  1  0
 19 20  2  0
 21 24  2  0
 21 22  1  0
 23 19  1  0
M  END
$$$$
