RQY.pdb
     RDKit          3D

 33 33  0  0  1  0  0  0  0  0999 V2000
   30.1268  -28.1447  -18.3389 N   0  0  0  0  0  0  0  0  0  0  0  0
   31.0157  -27.1356  -17.8974 C   0  0  0  0  0  0  0  0  0  0  0  0
   32.2990  -27.2009  -18.1599 N   0  0  0  0  0  0  0  0  0  0  0  0
   30.5874  -26.0099  -17.1577 N   0  0  0  0  0  0  0  0  0  0  0  0
   29.6578  -25.0581  -17.7876 C   0  0  0  0  0  0  0  0  0  0  0  0
   30.3609  -23.7939  -18.1498 C   0  0  0  0  0  0  0  0  0  0  0  0
   29.6896  -22.5139  -17.7983 C   0  0  0  0  0  0  0  0  0  0  0  0
   28.8409  -22.6118  -16.5852 C   0  0  2  0  0  0  0  0  0  0  0  0
   28.0320  -23.7994  -16.4898 N   0  0  0  0  0  0  0  0  0  0  0  0
   27.9088  -21.4317  -16.4674 C   0  0  0  0  0  0  0  0  0  0  0  0
   28.3829  -20.2753  -16.5284 O   0  0  0  0  0  0  0  0  0  0  0  0
   32.8962  -26.4159  -17.8188 N   0  0  0  0  0  0  0  0  0  0  0  0
   24.1609  -19.8176  -20.1430 C   0  0  0  0  0  0  0  0  0  0  0  0
   24.5209  -18.6025  -19.4631 O   0  0  0  0  0  0  0  0  0  0  0  0
   24.1988  -17.5054  -19.9576 C   0  0  0  0  0  0  0  0  0  0  0  0
   25.2605  -18.7509  -18.2067 C   0  0  0  0  0  0  0  0  0  0  0  0
   25.4800  -20.1736  -17.8463 C   0  0  2  0  0  0  0  0  0  0  0  0
   25.5458  -20.4923  -16.3734 N   0  0  0  0  0  0  0  0  0  0  0  0
   26.5258  -21.5929  -16.2914 C   0  0  0  0  0  0  0  0  0  0  0  0
   24.2615  -20.9369  -15.7851 O   0  0  0  0  0  0  0  0  0  0  0  0
   24.0726  -22.1984  -15.6276 O   0  0  0  0  0  0  0  0  0  0  0  0
   18.0139  -23.7934  -10.7074 C   0  0  0  0  0  0  0  0  0  0  0  0
   19.0824  -23.1967  -11.3866 C   0  0  0  0  0  0  0  0  0  0  0  0
   19.8631  -23.8747  -12.2955 C   0  0  0  0  0  0  0  0  0  0  0  0
   20.9218  -23.2621  -12.9605 C   0  0  0  0  0  0  0  0  0  0  0  0
   21.2129  -21.9376  -12.7148 C   0  0  0  0  0  0  0  0  0  0  0  0
   22.3303  -21.3147  -13.4146 C   0  0  2  0  0  0  0  0  0  0  0  0
   21.9874  -20.6744  -14.7356 N   0  0  0  0  0  0  0  0  0  0  0  0
   23.1965  -20.1263  -15.3624 C   0  0  0  0  0  0  0  0  0  0  0  0
   21.0353  -19.5692  -14.5461 O   0  0  0  0  0  0  0  0  0  0  0  0
   19.6711  -19.7842  -14.4859 C   0  0  0  0  0  0  0  0  0  0  0  0
   20.4319  -21.2504  -11.8025 C   0  0  0  0  0  0  0  0  0  0  0  0
   19.4022  -21.8730  -11.1656 O   0  0  0  0  0  0  0  0  0  0  0  0
  2  3  2  0
  2  1  1  0
  4  2  1  0
  5  4  1  0
  6  7  1  0
  6  5  1  0
  8  9  1  6
  8  7  1  0
 10  8  1  0
 11 10  2  0
 12 13  1  0
 13 15  1  0
 14 13  2  0
 15 16  1  0
 17 16  1  1
 17 19  1  0
 17 18  1  0
 18 10  1  0
 19 28  1  0
 20 19  2  0
 22 21  1  0
 23 22  2  0
 24 23  1  0
 25 24  2  0
 25 31  1  0
 26 25  1  0
 27 28  1  0
 27 29  1  0
 27 26  1  6
 29 33  2  0
 29 30  1  0
 31 32  2  0
 32 22  1  0
M  END
$$$$
