RQY.pdb
     RDKit          3D

 33 33  0  0  1  0  0  0  0  0999 V2000
   31.4240  -25.4114  -15.8393 N   0  0  0  0  0  0  0  0  0  0  0  0
   30.5176  -25.6129  -16.9077 C   0  0  0  0  0  0  0  0  0  0  0  0
   29.9486  -26.7784  -17.1026 N   0  0  0  0  0  0  0  0  0  0  0  0
   30.1709  -24.5898  -17.8191 N   0  0  0  0  0  0  0  0  0  0  0  0
   30.3590  -23.1865  -17.4166 C   0  0  0  0  0  0  0  0  0  0  0  0
   29.9500  -22.9845  -15.9968 C   0  0  0  0  0  0  0  0  0  0  0  0
   29.1427  -21.7751  -15.6838 C   0  0  0  0  0  0  0  0  0  0  0  0
   27.6832  -22.0390  -15.6462 C   0  0  2  0  0  0  0  0  0  0  0  0
   26.9825  -21.8208  -16.8852 N   0  0  0  0  0  0  0  0  0  0  0  0
   26.9976  -21.1995  -14.5972 C   0  0  0  0  0  0  0  0  0  0  0  0
   27.4718  -20.0769  -14.3129 O   0  0  0  0  0  0  0  0  0  0  0  0
   29.2566  -26.8471  -17.8809 N   0  0  0  0  0  0  0  0  0  0  0  0
   21.1950  -22.2364  -13.4518 C   0  0  0  0  0  0  0  0  0  0  0  0
   21.3252  -21.2470  -12.4163 O   0  0  0  0  0  0  0  0  0  0  0  0
   20.3252  -20.9272  -11.7456 C   0  0  0  0  0  0  0  0  0  0  0  0
   22.6600  -20.6736  -12.2240 C   0  0  0  0  0  0  0  0  0  0  0  0
   23.6574  -21.2388  -13.1663 C   0  0  1  0  0  0  0  0  0  0  0  0
   25.0940  -20.8334  -12.9486 N   0  0  0  0  0  0  0  0  0  0  0  0
   25.8438  -21.6406  -13.9309 C   0  0  0  0  0  0  0  0  0  0  0  0
   25.6104  -21.1144  -11.5894 O   0  0  0  0  0  0  0  0  0  0  0  0
   25.8156  -22.3400  -11.2615 O   0  0  0  0  0  0  0  0  0  0  0  0
   28.8027  -20.2041   -3.2834 C   0  0  0  0  0  0  0  0  0  0  0  0
   28.4387  -20.0331   -4.6240 C   0  0  0  0  0  0  0  0  0  0  0  0
   27.4510  -19.1622   -5.0255 C   0  0  0  0  0  0  0  0  0  0  0  0
   27.1041  -19.0071   -6.3650 C   0  0  0  0  0  0  0  0  0  0  0  0
   27.7576  -19.7388   -7.3329 C   0  0  0  0  0  0  0  0  0  0  0  0
   27.3756  -19.5690   -8.7299 C   0  0  1  0  0  0  0  0  0  0  0  0
   26.3832  -20.5756   -9.2539 N   0  0  0  0  0  0  0  0  0  0  0  0
   25.9158  -20.1795  -10.5880 C   0  0  0  0  0  0  0  0  0  0  0  0
   25.2106  -20.6584   -8.3698 O   0  0  0  0  0  0  0  0  0  0  0  0
   23.9963  -20.0946   -8.7144 C   0  0  0  0  0  0  0  0  0  0  0  0
   28.7515  -20.6157   -6.9359 C   0  0  0  0  0  0  0  0  0  0  0  0
   29.0716  -20.7487   -5.6193 O   0  0  0  0  0  0  0  0  0  0  0  0
  2  3  2  0
  2  1  1  0
  4  2  1  0
  5  4  1  0
  6  7  1  0
  6  5  1  0
  8  9  1  6
  8  7  1  0
 10  8  1  0
 11 10  2  0
 12 13  1  0
 13 15  1  0
 14 13  2  0
 15 16  1  0
 17 16  1  6
 17 19  1  0
 17 18  1  0
 18 10  1  0
 19 28  1  0
 20 19  2  0
 22 21  1  0
 23 22  2  0
 24 23  1  0
 25 24  2  0
 25 31  1  0
 26 25  1  0
 27 28  1  0
 27 29  1  0
 27 26  1  6
 29 33  2  0
 29 30  1  0
 31 32  2  0
 32 22  1  0
M  END
$$$$
