RQY.pdb
     RDKit          3D

 33 33  0  0  1  0  0  0  0  0999 V2000
   26.8280  -14.0508  -15.7343 N   0  0  0  0  0  0  0  0  0  0  0  0
   25.4351  -14.1266  -15.9739 C   0  0  0  0  0  0  0  0  0  0  0  0
   24.6043  -13.2804  -15.4136 N   0  0  0  0  0  0  0  0  0  0  0  0
   24.8567  -15.1013  -16.8183 N   0  0  0  0  0  0  0  0  0  0  0  0
   25.7068  -16.1844  -17.3389 C   0  0  0  0  0  0  0  0  0  0  0  0
   24.9546  -17.0237  -18.3154 C   0  0  0  0  0  0  0  0  0  0  0  0
   24.1344  -18.1379  -17.7694 C   0  0  0  0  0  0  0  0  0  0  0  0
   24.9476  -19.2782  -17.2796 C   0  0  2  0  0  0  0  0  0  0  0  0
   25.5836  -20.0690  -18.3013 N   0  0  0  0  0  0  0  0  0  0  0  0
   24.1244  -20.2219  -16.4388 C   0  0  0  0  0  0  0  0  0  0  0  0
   23.3074  -20.9828  -17.0039 O   0  0  0  0  0  0  0  0  0  0  0  0
   23.5922  -13.3796  -15.6481 N   0  0  0  0  0  0  0  0  0  0  0  0
   23.1673  -23.8886  -13.8379 C   0  0  0  0  0  0  0  0  0  0  0  0
   24.6026  -23.8474  -13.9194 O   0  0  0  0  0  0  0  0  0  0  0  0
   25.2218  -24.8482  -14.3281 C   0  0  0  0  0  0  0  0  0  0  0  0
   25.2455  -22.5981  -13.5031 C   0  0  0  0  0  0  0  0  0  0  0  0
   24.2610  -21.5704  -13.0824 C   0  0  2  0  0  0  0  0  0  0  0  0
   23.3470  -21.0347  -14.1562 N   0  0  0  0  0  0  0  0  0  0  0  0
   24.2480  -20.2714  -15.0416 C   0  0  0  0  0  0  0  0  0  0  0  0
   22.2770  -20.1397  -13.6591 O   0  0  0  0  0  0  0  0  0  0  0  0
   22.5888  -18.9271  -13.3685 O   0  0  0  0  0  0  0  0  0  0  0  0
   16.2087  -14.1957  -12.8450 C   0  0  0  0  0  0  0  0  0  0  0  0
   17.1312  -15.2074  -13.1356 C   0  0  0  0  0  0  0  0  0  0  0  0
   16.8634  -16.2344  -14.0124 C   0  0  0  0  0  0  0  0  0  0  0  0
   17.7956  -17.2313  -14.2875 C   0  0  0  0  0  0  0  0  0  0  0  0
   19.0290  -17.2067  -13.6733 C   0  0  0  0  0  0  0  0  0  0  0  0
   19.9898  -18.2634  -13.9677 C   0  0  1  0  0  0  0  0  0  0  0  0
   19.9266  -19.4640  -13.0582 N   0  0  0  0  0  0  0  0  0  0  0  0
   20.9246  -20.4610  -13.4646 C   0  0  0  0  0  0  0  0  0  0  0  0
   18.6008  -20.0978  -13.1251 O   0  0  0  0  0  0  0  0  0  0  0  0
   17.5941  -19.7784  -12.2331 C   0  0  0  0  0  0  0  0  0  0  0  0
   19.3045  -16.1770  -12.7911 C   0  0  0  0  0  0  0  0  0  0  0  0
   18.3753  -15.2143  -12.5394 O   0  0  0  0  0  0  0  0  0  0  0  0
  2  3  2  0
  2  1  1  0
  4  2  1  0
  5  4  1  0
  6  7  1  0
  6  5  1  0
  8  9  1  6
  8  7  1  0
 10  8  1  0
 11 10  2  0
 12 13  1  0
 13 15  1  0
 14 13  2  0
 15 16  1  0
 17 16  1  6
 17 19  1  0
 17 18  1  0
 18 10  1  0
 19 28  1  0
 20 19  2  0
 22 21  1  0
 23 22  2  0
 24 23  1  0
 25 24  2  0
 25 31  1  0
 26 25  1  0
 27 28  1  0
 27 29  1  0
 27 26  1  1
 29 33  2  0
 29 30  1  0
 31 32  2  0
 32 22  1  0
M  END
$$$$
