RQY.pdb
     RDKit          3D

 33 33  0  0  1  0  0  0  0  0999 V2000
   26.4261  -26.8267  -18.0617 N   0  0  0  0  0  0  0  0  0  0  0  0
   27.4672  -26.3029  -17.2585 C   0  0  0  0  0  0  0  0  0  0  0  0
   27.6926  -26.7684  -16.0533 N   0  0  0  0  0  0  0  0  0  0  0  0
   28.3186  -25.2621  -17.6940 N   0  0  0  0  0  0  0  0  0  0  0  0
   27.7174  -24.0105  -18.1827 C   0  0  0  0  0  0  0  0  0  0  0  0
   28.1167  -22.8607  -17.3211 C   0  0  0  0  0  0  0  0  0  0  0  0
   27.0638  -22.2490  -16.4670 C   0  0  0  0  0  0  0  0  0  0  0  0
   25.7890  -22.0124  -17.1883 C   0  0  2  0  0  0  0  0  0  0  0  0
   25.7310  -20.7987  -17.9612 N   0  0  0  0  0  0  0  0  0  0  0  0
   24.6152  -21.9895  -16.2412 C   0  0  0  0  0  0  0  0  0  0  0  0
   24.5004  -22.9039  -15.3947 O   0  0  0  0  0  0  0  0  0  0  0  0
   28.4694  -26.3310  -15.5106 N   0  0  0  0  0  0  0  0  0  0  0  0
   22.6059  -20.4712  -12.2727 C   0  0  0  0  0  0  0  0  0  0  0  0
   21.4353  -19.7074  -12.6113 O   0  0  0  0  0  0  0  0  0  0  0  0
   20.5126  -19.6004  -11.7812 C   0  0  0  0  0  0  0  0  0  0  0  0
   21.4155  -19.0974  -13.9436 C   0  0  0  0  0  0  0  0  0  0  0  0
   22.5653  -19.5272  -14.7776 C   0  0  1  0  0  0  0  0  0  0  0  0
   22.4784  -20.9054  -15.3845 N   0  0  0  0  0  0  0  0  0  0  0  0
   23.6484  -20.9730  -16.2817 C   0  0  0  0  0  0  0  0  0  0  0  0
   21.2466  -21.1528  -16.1685 O   0  0  0  0  0  0  0  0  0  0  0  0
   21.0918  -20.5105  -17.2709 O   0  0  0  0  0  0  0  0  0  0  0  0
   13.5136  -24.3544  -19.2926 C   0  0  0  0  0  0  0  0  0  0  0  0
   14.6989  -24.1315  -18.5823 C   0  0  0  0  0  0  0  0  0  0  0  0
   15.9466  -24.3451  -19.1235 C   0  0  0  0  0  0  0  0  0  0  0  0
   17.1136  -24.1171  -18.3993 C   0  0  0  0  0  0  0  0  0  0  0  0
   17.0382  -23.6641  -17.0999 C   0  0  0  0  0  0  0  0  0  0  0  0
   18.2707  -23.4382  -16.3541 C   0  0  1  0  0  0  0  0  0  0  0  0
   18.9913  -22.1531  -16.6734 N   0  0  0  0  0  0  0  0  0  0  0  0
   20.1993  -22.0307  -15.8483 C   0  0  0  0  0  0  0  0  0  0  0  0
   18.1326  -20.9921  -16.3934 O   0  0  0  0  0  0  0  0  0  0  0  0
   17.3183  -20.4367  -17.3627 C   0  0  0  0  0  0  0  0  0  0  0  0
   15.7871  -23.4473  -16.5501 C   0  0  0  0  0  0  0  0  0  0  0  0
   14.6611  -23.6780  -17.2799 O   0  0  0  0  0  0  0  0  0  0  0  0
  2  3  2  0
  2  1  1  0
  4  2  1  0
  5  4  1  0
  6  7  1  0
  6  5  1  0
  8  9  1  1
  8  7  1  0
 10  8  1  0
 11 10  2  0
 12 13  1  0
 13 15  1  0
 14 13  2  0
 15 16  1  0
 17 16  1  1
 17 19  1  0
 17 18  1  0
 18 10  1  0
 19 28  1  0
 20 19  2  0
 22 21  1  0
 23 22  2  0
 24 23  1  0
 25 24  2  0
 25 31  1  0
 26 25  1  0
 27 28  1  0
 27 29  1  0
 27 26  1  6
 29 33  2  0
 29 30  1  0
 31 32  2  0
 32 22  1  0
M  END
$$$$
