RQY.pdb
     RDKit          3D

 33 33  0  0  1  0  0  0  0  0999 V2000
   23.2662  -18.6478  -20.5674 N   0  0  0  0  0  0  0  0  0  0  0  0
   24.6626  -18.4222  -20.5139 C   0  0  0  0  0  0  0  0  0  0  0  0
   25.4831  -19.0612  -21.3129 N   0  0  0  0  0  0  0  0  0  0  0  0
   25.2552  -17.5091  -19.6124 N   0  0  0  0  0  0  0  0  0  0  0  0
   24.4479  -16.3884  -19.1034 C   0  0  0  0  0  0  0  0  0  0  0  0
   25.1799  -15.0980  -19.2554 C   0  0  0  0  0  0  0  0  0  0  0  0
   24.4991  -13.8657  -18.7754 C   0  0  0  0  0  0  0  0  0  0  0  0
   23.1519  -13.6731  -19.3664 C   0  0  2  0  0  0  0  0  0  0  0  0
   23.0769  -13.8185  -20.7972 N   0  0  0  0  0  0  0  0  0  0  0  0
   22.5914  -12.3136  -19.0305 C   0  0  0  0  0  0  0  0  0  0  0  0
   23.1165  -11.2980  -19.5392 O   0  0  0  0  0  0  0  0  0  0  0  0
   26.5046  -18.8919  -21.1821 N   0  0  0  0  0  0  0  0  0  0  0  0
   16.9516  -11.8170  -16.9556 C   0  0  0  0  0  0  0  0  0  0  0  0
   17.2730  -10.4355  -16.7180 O   0  0  0  0  0  0  0  0  0  0  0  0
   16.3893   -9.6647  -16.2973 C   0  0  0  0  0  0  0  0  0  0  0  0
   18.6526  -10.0278  -16.9973 C   0  0  0  0  0  0  0  0  0  0  0  0
   19.4735  -11.1437  -17.5293 C   0  0  1  0  0  0  0  0  0  0  0  0
   20.9320  -10.8482  -17.7758 N   0  0  0  0  0  0  0  0  0  0  0  0
   21.4986  -12.1545  -18.1644 C   0  0  0  0  0  0  0  0  0  0  0  0
   21.6603  -10.3318  -16.5943 O   0  0  0  0  0  0  0  0  0  0  0  0
   21.9098  -11.1476  -15.6330 O   0  0  0  0  0  0  0  0  0  0  0  0
   27.7904  -11.6872  -17.9054 C   0  0  0  0  0  0  0  0  0  0  0  0
   26.8937  -10.7839  -17.3232 C   0  0  0  0  0  0  0  0  0  0  0  0
   26.2649   -9.7890  -18.0374 C   0  0  0  0  0  0  0  0  0  0  0  0
   25.3759   -8.9003  -17.4387 C   0  0  0  0  0  0  0  0  0  0  0  0
   25.1045   -9.0035  -16.0915 C   0  0  0  0  0  0  0  0  0  0  0  0
   24.1768   -8.0592  -15.4799 C   0  0  2  0  0  0  0  0  0  0  0  0
   22.8117   -8.6125  -15.1588 N   0  0  0  0  0  0  0  0  0  0  0  0
   22.1287   -9.0243  -16.3913 C   0  0  0  0  0  0  0  0  0  0  0  0
   21.9799   -7.5943  -14.4992 O   0  0  0  0  0  0  0  0  0  0  0  0
   22.2696   -7.1255  -13.2314 C   0  0  0  0  0  0  0  0  0  0  0  0
   25.7331  -10.0014  -15.3680 C   0  0  0  0  0  0  0  0  0  0  0  0
   26.5984  -10.8577  -15.9777 O   0  0  0  0  0  0  0  0  0  0  0  0
  2  3  2  0
  2  1  1  0
  4  2  1  0
  5  4  1  0
  6  7  1  0
  6  5  1  0
  8  9  1  6
  8  7  1  0
 10  8  1  0
 11 10  2  0
 12 13  1  0
 13 15  1  0
 14 13  2  0
 15 16  1  0
 17 16  1  6
 17 19  1  0
 17 18  1  0
 18 10  1  0
 19 28  1  0
 20 19  2  0
 22 21  1  0
 23 22  2  0
 24 23  1  0
 25 24  2  0
 25 31  1  0
 26 25  1  0
 27 28  1  0
 27 29  1  0
 27 26  1  1
 29 33  2  0
 29 30  1  0
 31 32  2  0
 32 22  1  0
M  END
$$$$
