RQY.pdb
     RDKit          3D

 33 33  0  0  1  0  0  0  0  0999 V2000
   25.9169  -20.2072   -9.3894 N   0  0  0  0  0  0  0  0  0  0  0  0
   24.9601  -20.2979  -10.4286 C   0  0  0  0  0  0  0  0  0  0  0  0
   23.6884  -20.0729  -10.2001 N   0  0  0  0  0  0  0  0  0  0  0  0
   25.3051  -20.6304  -11.7583 N   0  0  0  0  0  0  0  0  0  0  0  0
   26.6953  -21.0106  -12.0573 C   0  0  0  0  0  0  0  0  0  0  0  0
   27.4826  -19.8259  -12.5052 C   0  0  0  0  0  0  0  0  0  0  0  0
   27.1729  -19.2681  -13.8488 C   0  0  0  0  0  0  0  0  0  0  0  0
   27.1347  -20.2983  -14.9158 C   0  0  2  0  0  0  0  0  0  0  0  0
   28.4155  -20.6871  -15.4471 N   0  0  0  0  0  0  0  0  0  0  0  0
   26.2892  -19.8527  -16.0828 C   0  0  0  0  0  0  0  0  0  0  0  0
   26.7328  -18.9711  -16.8521 O   0  0  0  0  0  0  0  0  0  0  0  0
   23.0382  -20.1411  -11.0137 N   0  0  0  0  0  0  0  0  0  0  0  0
   24.0822  -23.7928  -18.9824 C   0  0  0  0  0  0  0  0  0  0  0  0
   25.0257  -22.9341  -19.6463 O   0  0  0  0  0  0  0  0  0  0  0  0
   25.7836  -23.4109  -20.5125 C   0  0  0  0  0  0  0  0  0  0  0  0
   25.0250  -21.5256  -19.2418 C   0  0  0  0  0  0  0  0  0  0  0  0
   23.9560  -21.2221  -18.2582 C   0  0  2  0  0  0  0  0  0  0  0  0
   24.1358  -19.9721  -17.4333 N   0  0  0  0  0  0  0  0  0  0  0  0
   25.0200  -20.3979  -16.3309 C   0  0  0  0  0  0  0  0  0  0  0  0
   22.8806  -19.4248  -16.8692 O   0  0  0  0  0  0  0  0  0  0  0  0
   22.4626  -19.8994  -15.7503 O   0  0  0  0  0  0  0  0  0  0  0  0
   16.6975  -16.6779  -11.9684 C   0  0  0  0  0  0  0  0  0  0  0  0
   17.8053  -16.8745  -12.8010 C   0  0  0  0  0  0  0  0  0  0  0  0
   18.9044  -17.6119  -12.4218 C   0  0  0  0  0  0  0  0  0  0  0  0
   19.9965  -17.7952  -13.2657 C   0  0  0  0  0  0  0  0  0  0  0  0
   19.9961  -17.2293  -14.5223 C   0  0  0  0  0  0  0  0  0  0  0  0
   21.1519  -17.4255  -15.3895 C   0  0  2  0  0  0  0  0  0  0  0  0
   20.8417  -17.9500  -16.7684 N   0  0  0  0  0  0  0  0  0  0  0  0
   22.0703  -18.4199  -17.4203 C   0  0  0  0  0  0  0  0  0  0  0  0
   20.2601  -16.8919  -17.6085 O   0  0  0  0  0  0  0  0  0  0  0  0
   18.8981  -16.6582  -17.6478 C   0  0  0  0  0  0  0  0  0  0  0  0
   18.8944  -16.4872  -14.9095 C   0  0  0  0  0  0  0  0  0  0  0  0
   17.8391  -16.3231  -14.0651 O   0  0  0  0  0  0  0  0  0  0  0  0
  2  3  2  0
  2  1  1  0
  4  2  1  0
  5  4  1  0
  6  7  1  0
  6  5  1  0
  8  9  1  6
  8  7  1  0
 10  8  1  0
 11 10  2  0
 12 13  1  0
 13 15  1  0
 14 13  2  0
 15 16  1  0
 17 16  1  6
 17 19  1  0
 17 18  1  0
 18 10  1  0
 19 28  1  0
 20 19  2  0
 22 21  1  0
 23 22  2  0
 24 23  1  0
 25 24  2  0
 25 31  1  0
 26 25  1  0
 27 28  1  0
 27 29  1  0
 27 26  1  1
 29 33  2  0
 29 30  1  0
 31 32  2  0
 32 22  1  0
M  END
$$$$
