RQY.pdb
     RDKit          3D

 33 33  0  0  1  0  0  0  0  0999 V2000
   21.5529  -13.5154  -16.5761 N   0  0  0  0  0  0  0  0  0  0  0  0
   22.0644  -14.0172  -17.7969 C   0  0  0  0  0  0  0  0  0  0  0  0
   21.5502  -13.6534  -18.9472 N   0  0  0  0  0  0  0  0  0  0  0  0
   23.1443  -14.9270  -17.8567 N   0  0  0  0  0  0  0  0  0  0  0  0
   23.3563  -15.8524  -16.7318 C   0  0  0  0  0  0  0  0  0  0  0  0
   22.2692  -16.8716  -16.6738 C   0  0  0  0  0  0  0  0  0  0  0  0
   22.6630  -18.2993  -16.8117 C   0  0  0  0  0  0  0  0  0  0  0  0
   24.0661  -18.4790  -17.2592 C   0  0  2  0  0  0  0  0  0  0  0  0
   24.2349  -18.8061  -18.6514 N   0  0  0  0  0  0  0  0  0  0  0  0
   24.7650  -19.5542  -16.4649 C   0  0  0  0  0  0  0  0  0  0  0  0
   24.1322  -20.5883  -16.1552 O   0  0  0  0  0  0  0  0  0  0  0  0
   21.9822  -14.0514  -19.8099 N   0  0  0  0  0  0  0  0  0  0  0  0
   28.6979  -17.9355  -16.5826 C   0  0  0  0  0  0  0  0  0  0  0  0
   28.5886  -18.8170  -17.7137 O   0  0  0  0  0  0  0  0  0  0  0  0
   28.7963  -18.3725  -18.8588 C   0  0  0  0  0  0  0  0  0  0  0  0
   28.2304  -20.2085  -17.4260 C   0  0  0  0  0  0  0  0  0  0  0  0
   28.1978  -20.4928  -15.9698 C   0  0  2  0  0  0  0  0  0  0  0  0
   26.8429  -20.4588  -15.3077 N   0  0  0  0  0  0  0  0  0  0  0  0
   26.1039  -19.4285  -16.0632 C   0  0  0  0  0  0  0  0  0  0  0  0
   26.8710  -20.0874  -13.8744 O   0  0  0  0  0  0  0  0  0  0  0  0
   27.2299  -18.8925  -13.5657 O   0  0  0  0  0  0  0  0  0  0  0  0
   20.3191  -20.8380  -11.5815 C   0  0  0  0  0  0  0  0  0  0  0  0
   21.6666  -20.4796  -11.4593 C   0  0  0  0  0  0  0  0  0  0  0  0
   22.4482  -20.1298  -12.5374 C   0  0  0  0  0  0  0  0  0  0  0  0
   23.7872  -19.7764  -12.3939 C   0  0  0  0  0  0  0  0  0  0  0  0
   24.3658  -19.7706  -11.1431 C   0  0  0  0  0  0  0  0  0  0  0  0
   25.7715  -19.4052  -11.0129 C   0  0  1  0  0  0  0  0  0  0  0  0
   26.7555  -20.4832  -11.3900 N   0  0  0  0  0  0  0  0  0  0  0  0
   26.5403  -20.9023  -12.7804 C   0  0  0  0  0  0  0  0  0  0  0  0
   26.5871  -21.6648  -10.5301 O   0  0  0  0  0  0  0  0  0  0  0  0
   26.7386  -21.5954   -9.1578 C   0  0  0  0  0  0  0  0  0  0  0  0
   23.5856  -20.1209  -10.0555 C   0  0  0  0  0  0  0  0  0  0  0  0
   22.2783  -20.4625  -10.2229 O   0  0  0  0  0  0  0  0  0  0  0  0
  2  3  2  0
  2  1  1  0
  4  2  1  0
  5  4  1  0
  6  7  1  0
  6  5  1  0
  8  9  1  6
  8  7  1  0
 10  8  1  0
 11 10  2  0
 12 13  1  0
 13 15  1  0
 14 13  2  0
 15 16  1  0
 17 16  1  6
 17 19  1  0
 17 18  1  0
 18 10  1  0
 19 28  1  0
 20 19  2  0
 22 21  1  0
 23 22  2  0
 24 23  1  0
 25 24  2  0
 25 31  1  0
 26 25  1  0
 27 28  1  0
 27 29  1  0
 27 26  1  6
 29 33  2  0
 29 30  1  0
 31 32  2  0
 32 22  1  0
M  END
$$$$
