RQY.pdb
     RDKit          3D

 33 33  0  0  1  0  0  0  0  0999 V2000
   24.6989  -13.1130  -15.2584 N   0  0  0  0  0  0  0  0  0  0  0  0
   23.5018  -12.8235  -15.9560 C   0  0  0  0  0  0  0  0  0  0  0  0
   23.3522  -11.6938  -16.6052 N   0  0  0  0  0  0  0  0  0  0  0  0
   22.4073  -13.7168  -15.9993 N   0  0  0  0  0  0  0  0  0  0  0  0
   22.5643  -15.0608  -15.4196 C   0  0  0  0  0  0  0  0  0  0  0  0
   23.0788  -16.0194  -16.4395 C   0  0  0  0  0  0  0  0  0  0  0  0
   23.1167  -17.4588  -16.0665 C   0  0  0  0  0  0  0  0  0  0  0  0
   23.7032  -18.3217  -17.1214 C   0  0  2  0  0  0  0  0  0  0  0  0
   22.7600  -18.9009  -18.0427 N   0  0  0  0  0  0  0  0  0  0  0  0
   24.4952  -19.4593  -16.5265 C   0  0  0  0  0  0  0  0  0  0  0  0
   23.8842  -20.4555  -16.0792 O   0  0  0  0  0  0  0  0  0  0  0  0
   22.4554  -11.5551  -17.1208 N   0  0  0  0  0  0  0  0  0  0  0  0
   27.6921  -23.1134  -16.8320 C   0  0  0  0  0  0  0  0  0  0  0  0
   28.8613  -22.7307  -16.0872 O   0  0  0  0  0  0  0  0  0  0  0  0
   29.6035  -23.6134  -15.6161 C   0  0  0  0  0  0  0  0  0  0  0  0
   29.0969  -21.2925  -15.9336 C   0  0  0  0  0  0  0  0  0  0  0  0
   28.0024  -20.4766  -16.5156 C   0  0  1  0  0  0  0  0  0  0  0  0
   26.7113  -20.4292  -15.7370 N   0  0  0  0  0  0  0  0  0  0  0  0
   25.8968  -19.4329  -16.4599 C   0  0  0  0  0  0  0  0  0  0  0  0
   26.8623  -20.0057  -14.3260 O   0  0  0  0  0  0  0  0  0  0  0  0
   27.2918  -18.8168  -14.0937 O   0  0  0  0  0  0  0  0  0  0  0  0
   20.5666  -21.3346  -11.2138 C   0  0  0  0  0  0  0  0  0  0  0  0
   21.8712  -20.8304  -11.2658 C   0  0  0  0  0  0  0  0  0  0  0  0
   22.4403  -20.3459  -12.4220 C   0  0  0  0  0  0  0  0  0  0  0  0
   23.7404  -19.8486  -12.4520 C   0  0  0  0  0  0  0  0  0  0  0  0
   24.4964  -19.8326  -11.2999 C   0  0  0  0  0  0  0  0  0  0  0  0
   25.8588  -19.3153  -11.3520 C   0  0  1  0  0  0  0  0  0  0  0  0
   26.9028  -20.2948  -11.8246 N   0  0  0  0  0  0  0  0  0  0  0  0
   26.5822  -20.7636  -13.1784 C   0  0  0  0  0  0  0  0  0  0  0  0
   26.9533  -21.4685  -10.9395 O   0  0  0  0  0  0  0  0  0  0  0  0
   27.2968  -21.3609   -9.6047 C   0  0  0  0  0  0  0  0  0  0  0  0
   23.9303  -20.3181  -10.1345 C   0  0  0  0  0  0  0  0  0  0  0  0
   22.6565  -20.7989  -10.1320 O   0  0  0  0  0  0  0  0  0  0  0  0
  2  3  2  0
  2  1  1  0
  4  2  1  0
  5  4  1  0
  6  7  1  0
  6  5  1  0
  8  9  1  1
  8  7  1  0
 10  8  1  0
 11 10  2  0
 12 13  1  0
 13 15  1  0
 14 13  2  0
 15 16  1  0
 17 16  1  6
 17 19  1  0
 17 18  1  0
 18 10  1  0
 19 28  1  0
 20 19  2  0
 22 21  1  0
 23 22  2  0
 24 23  1  0
 25 24  2  0
 25 31  1  0
 26 25  1  0
 27 28  1  0
 27 29  1  0
 27 26  1  6
 29 33  2  0
 29 30  1  0
 31 32  2  0
 32 22  1  0
M  END
$$$$
