RQY.pdb
     RDKit          3D

 33 33  0  0  1  0  0  0  0  0999 V2000
   28.9519  -18.8573  -17.8159 N   0  0  0  0  0  0  0  0  0  0  0  0
   29.3500  -17.5768  -18.2692 C   0  0  0  0  0  0  0  0  0  0  0  0
   30.5908  -17.3380  -18.6203 N   0  0  0  0  0  0  0  0  0  0  0  0
   28.4527  -16.4897  -18.3725 N   0  0  0  0  0  0  0  0  0  0  0  0
   27.0330  -16.7076  -18.0503 C   0  0  0  0  0  0  0  0  0  0  0  0
   26.3372  -17.4019  -19.1718 C   0  0  0  0  0  0  0  0  0  0  0  0
   25.1830  -18.2735  -18.8245 C   0  0  0  0  0  0  0  0  0  0  0  0
   24.8255  -18.2259  -17.3853 C   0  0  2  0  0  0  0  0  0  0  0  0
   25.9369  -18.2570  -16.4700 N   0  0  0  0  0  0  0  0  0  0  0  0
   23.9093  -19.3627  -17.0066 C   0  0  0  0  0  0  0  0  0  0  0  0
   23.0568  -19.7566  -17.8336 O   0  0  0  0  0  0  0  0  0  0  0  0
   30.8413  -16.3499  -18.8445 N   0  0  0  0  0  0  0  0  0  0  0  0
   25.0574  -24.3072  -15.3179 C   0  0  0  0  0  0  0  0  0  0  0  0
   24.0244  -24.4264  -14.3244 O   0  0  0  0  0  0  0  0  0  0  0  0
   23.7213  -25.5533  -13.8882 C   0  0  0  0  0  0  0  0  0  0  0  0
   23.3886  -23.1798  -13.8894 C   0  0  0  0  0  0  0  0  0  0  0  0
   24.0134  -21.9833  -14.5061 C   0  0  1  0  0  0  0  0  0  0  0  0
   23.1085  -21.1000  -15.3285 N   0  0  0  0  0  0  0  0  0  0  0  0
   23.9849  -19.9913  -15.7540 C   0  0  0  0  0  0  0  0  0  0  0  0
   21.9504  -20.5503  -14.5870 O   0  0  0  0  0  0  0  0  0  0  0  0
   22.1838  -19.8151  -13.5590 O   0  0  0  0  0  0  0  0  0  0  0  0
   21.4848  -14.2629  -15.8430 C   0  0  0  0  0  0  0  0  0  0  0  0
   20.7999  -15.4569  -15.5895 C   0  0  0  0  0  0  0  0  0  0  0  0
   19.9265  -15.6090  -14.5362 C   0  0  0  0  0  0  0  0  0  0  0  0
   19.2550  -16.8059  -14.3017 C   0  0  0  0  0  0  0  0  0  0  0  0
   19.4577  -17.8824  -15.1379 C   0  0  0  0  0  0  0  0  0  0  0  0
   18.7518  -19.1304  -14.8723 C   0  0  2  0  0  0  0  0  0  0  0  0
   19.5198  -20.1466  -14.0660 N   0  0  0  0  0  0  0  0  0  0  0  0
   20.5903  -20.7356  -14.8799 C   0  0  0  0  0  0  0  0  0  0  0  0
   18.6355  -21.2360  -13.6245 O   0  0  0  0  0  0  0  0  0  0  0  0
   18.8692  -22.5525  -13.9757 C   0  0  0  0  0  0  0  0  0  0  0  0
   20.3342  -17.7360  -16.1985 C   0  0  0  0  0  0  0  0  0  0  0  0
   20.9783  -16.5546  -16.4058 O   0  0  0  0  0  0  0  0  0  0  0  0
  2  3  2  0
  2  1  1  0
  4  2  1  0
  5  4  1  0
  6  7  1  0
  6  5  1  0
  8  9  1  1
  8  7  1  0
 10  8  1  0
 11 10  2  0
 12 13  1  0
 13 15  1  0
 14 13  2  0
 15 16  1  0
 17 16  1  6
 17 19  1  0
 17 18  1  0
 18 10  1  0
 19 28  1  0
 20 19  2  0
 22 21  1  0
 23 22  2  0
 24 23  1  0
 25 24  2  0
 25 31  1  0
 26 25  1  0
 27 28  1  0
 27 29  1  0
 27 26  1  1
 29 33  2  0
 29 30  1  0
 31 32  2  0
 32 22  1  0
M  END
$$$$
