RQY.pdb
     RDKit          3D

 33 33  0  0  1  0  0  0  0  0999 V2000
   17.2208  -14.0892  -14.7297 N   0  0  0  0  0  0  0  0  0  0  0  0
   16.5662  -13.0488  -15.4317 C   0  0  0  0  0  0  0  0  0  0  0  0
   15.7909  -13.3071  -16.4574 N   0  0  0  0  0  0  0  0  0  0  0  0
   16.7016  -11.6866  -15.0800 N   0  0  0  0  0  0  0  0  0  0  0  0
   17.5074  -11.3345  -13.8996 C   0  0  0  0  0  0  0  0  0  0  0  0
   16.6497  -11.2395  -12.6834 C   0  0  0  0  0  0  0  0  0  0  0  0
   16.1530   -9.8905  -12.3013 C   0  0  0  0  0  0  0  0  0  0  0  0
   15.5526   -9.8502  -10.9451 C   0  0  2  0  0  0  0  0  0  0  0  0
   14.3673  -10.6488  -10.7687 N   0  0  0  0  0  0  0  0  0  0  0  0
   15.1999   -8.4407  -10.5396 C   0  0  0  0  0  0  0  0  0  0  0  0
   14.0363   -8.0253  -10.7377 O   0  0  0  0  0  0  0  0  0  0  0  0
   15.2923  -12.5005  -16.8934 N   0  0  0  0  0  0  0  0  0  0  0  0
   13.2025   -5.5830   -7.6165 C   0  0  0  0  0  0  0  0  0  0  0  0
   14.1260   -4.5385   -7.2639 O   0  0  0  0  0  0  0  0  0  0  0  0
   13.6921   -3.4728   -6.7863 C   0  0  0  0  0  0  0  0  0  0  0  0
   15.5458   -4.8137   -7.5006 C   0  0  0  0  0  0  0  0  0  0  0  0
   15.7659   -6.1405   -8.1278 C   0  0  1  0  0  0  0  0  0  0  0  0
   15.8810   -6.1633   -9.6316 N   0  0  0  0  0  0  0  0  0  0  0  0
   16.1385   -7.5820   -9.9469 C   0  0  0  0  0  0  0  0  0  0  0  0
   16.9820   -5.3346  -10.1741 O   0  0  0  0  0  0  0  0  0  0  0  0
   18.1862   -5.7611  -10.0334 O   0  0  0  0  0  0  0  0  0  0  0  0
   21.6280   -8.8049  -12.4852 C   0  0  0  0  0  0  0  0  0  0  0  0
   20.7515   -7.7189  -12.5915 C   0  0  0  0  0  0  0  0  0  0  0  0
   19.3983   -7.8673  -12.7967 C   0  0  0  0  0  0  0  0  0  0  0  0
   18.5435   -6.7732  -12.8997 C   0  0  0  0  0  0  0  0  0  0  0  0
   19.0482   -5.4950  -12.7959 C   0  0  0  0  0  0  0  0  0  0  0  0
   18.1392   -4.3610  -12.9141 C   0  0  2  0  0  0  0  0  0  0  0  0
   17.9559   -3.5479  -11.6579 N   0  0  0  0  0  0  0  0  0  0  0  0
   16.8683   -4.1075  -10.8460 C   0  0  0  0  0  0  0  0  0  0  0  0
   17.6067   -2.1570  -11.9851 O   0  0  0  0  0  0  0  0  0  0  0  0
   16.3527   -1.6386  -11.7209 C   0  0  0  0  0  0  0  0  0  0  0  0
   20.4075   -5.3390  -12.5895 C   0  0  0  0  0  0  0  0  0  0  0  0
   21.2218   -6.4258  -12.4923 O   0  0  0  0  0  0  0  0  0  0  0  0
  2  3  2  0
  2  1  1  0
  4  2  1  0
  5  4  1  0
  6  7  1  0
  6  5  1  0
  8  9  1  6
  8  7  1  0
 10  8  1  0
 11 10  2  0
 12 13  1  0
 13 15  1  0
 14 13  2  0
 15 16  1  0
 17 16  1  6
 17 19  1  0
 17 18  1  0
 18 10  1  0
 19 28  1  0
 20 19  2  0
 22 21  1  0
 23 22  2  0
 24 23  1  0
 25 24  2  0
 25 31  1  0
 26 25  1  0
 27 28  1  0
 27 29  1  0
 27 26  1  1
 29 33  2  0
 29 30  1  0
 31 32  2  0
 32 22  1  0
M  END
$$$$
