RQY.pdb
     RDKit          3D

 33 33  0  0  1  0  0  0  0  0999 V2000
   25.8878  -20.1784   -8.6485 N   0  0  0  0  0  0  0  0  0  0  0  0
   24.9346  -20.7996   -9.4905 C   0  0  0  0  0  0  0  0  0  0  0  0
   23.6483  -20.6374   -9.2927 N   0  0  0  0  0  0  0  0  0  0  0  0
   25.2988  -21.6212  -10.5813 N   0  0  0  0  0  0  0  0  0  0  0  0
   26.5898  -21.3855  -11.2480 C   0  0  0  0  0  0  0  0  0  0  0  0
   26.7243  -19.9554  -11.6488 C   0  0  0  0  0  0  0  0  0  0  0  0
   26.9077  -19.6658  -13.0962 C   0  0  0  0  0  0  0  0  0  0  0  0
   26.2870  -20.6832  -13.9800 C   0  0  2  0  0  0  0  0  0  0  0  0
   27.2087  -21.5384  -14.6822 N   0  0  0  0  0  0  0  0  0  0  0  0
   25.3990  -20.0439  -15.0183 C   0  0  0  0  0  0  0  0  0  0  0  0
   25.8951  -19.7054  -16.1161 O   0  0  0  0  0  0  0  0  0  0  0  0
   23.0002  -21.0874   -9.9759 N   0  0  0  0  0  0  0  0  0  0  0  0
   19.3526  -20.1925  -14.2727 C   0  0  0  0  0  0  0  0  0  0  0  0
   19.3104  -19.3300  -15.4227 O   0  0  0  0  0  0  0  0  0  0  0  0
   18.2082  -18.9686  -15.8771 C   0  0  0  0  0  0  0  0  0  0  0  0
   20.6021  -18.9318  -15.9890 C   0  0  0  0  0  0  0  0  0  0  0  0
   21.7470  -19.5133  -15.2452 C   0  0  1  0  0  0  0  0  0  0  0  0
   23.1245  -19.1766  -15.7597 N   0  0  0  0  0  0  0  0  0  0  0  0
   24.0329  -19.8176  -14.7891 C   0  0  0  0  0  0  0  0  0  0  0  0
   23.4182  -17.7263  -15.8196 O   0  0  0  0  0  0  0  0  0  0  0  0
   23.6457  -17.1089  -14.7156 O   0  0  0  0  0  0  0  0  0  0  0  0
   30.0029  -15.6165  -19.8744 C   0  0  0  0  0  0  0  0  0  0  0  0
   28.9100  -15.6858  -19.0027 C   0  0  0  0  0  0  0  0  0  0  0  0
   28.3389  -16.8762  -18.6125 C   0  0  0  0  0  0  0  0  0  0  0  0
   27.2517  -16.9230  -17.7441 C   0  0  0  0  0  0  0  0  0  0  0  0
   26.7168  -15.7532  -17.2496 C   0  0  0  0  0  0  0  0  0  0  0  0
   25.5732  -15.8212  -16.3473 C   0  0  1  0  0  0  0  0  0  0  0  0
   24.2252  -15.6539  -17.0011 N   0  0  0  0  0  0  0  0  0  0  0  0
   23.4845  -16.9210  -16.9673 C   0  0  0  0  0  0  0  0  0  0  0  0
   24.3760  -15.2555  -18.4091 O   0  0  0  0  0  0  0  0  0  0  0  0
   24.2066  -16.1564  -19.4439 C   0  0  0  0  0  0  0  0  0  0  0  0
   27.2863  -14.5534  -17.6377 C   0  0  0  0  0  0  0  0  0  0  0  0
   28.3493  -14.5352  -18.4882 O   0  0  0  0  0  0  0  0  0  0  0  0
  2  3  2  0
  2  1  1  0
  4  2  1  0
  5  4  1  0
  6  7  1  0
  6  5  1  0
  8  9  1  6
  8  7  1  0
 10  8  1  0
 11 10  2  0
 12 13  1  0
 13 15  1  0
 14 13  2  0
 15 16  1  0
 17 16  1  6
 17 19  1  0
 17 18  1  0
 18 10  1  0
 19 28  1  0
 20 19  2  0
 22 21  1  0
 23 22  2  0
 24 23  1  0
 25 24  2  0
 25 31  1  0
 26 25  1  0
 27 28  1  0
 27 29  1  0
 27 26  1  1
 29 33  2  0
 29 30  1  0
 31 32  2  0
 32 22  1  0
M  END
$$$$
