RQY.pdb
     RDKit          3D

 33 33  0  0  1  0  0  0  0  0999 V2000
   31.4565  -23.1559  -18.4363 N   0  0  0  0  0  0  0  0  0  0  0  0
   30.8159  -23.7522  -17.3238 C   0  0  0  0  0  0  0  0  0  0  0  0
   31.4144  -24.6781  -16.6135 N   0  0  0  0  0  0  0  0  0  0  0  0
   29.5120  -23.3956  -16.9111 N   0  0  0  0  0  0  0  0  0  0  0  0
   28.7514  -22.4278  -17.7184 C   0  0  0  0  0  0  0  0  0  0  0  0
   28.2677  -21.2987  -16.8728 C   0  0  0  0  0  0  0  0  0  0  0  0
   26.8650  -21.3646  -16.3822 C   0  0  0  0  0  0  0  0  0  0  0  0
   26.5217  -22.6688  -15.7637 C   0  0  2  0  0  0  0  0  0  0  0  0
   25.9768  -23.6550  -16.6606 N   0  0  0  0  0  0  0  0  0  0  0  0
   25.5326  -22.5017  -14.6372 C   0  0  0  0  0  0  0  0  0  0  0  0
   24.3405  -22.8345  -14.8218 O   0  0  0  0  0  0  0  0  0  0  0  0
   30.8916  -25.0658  -15.7977 N   0  0  0  0  0  0  0  0  0  0  0  0
   23.2931  -20.3060   -8.8073 C   0  0  0  0  0  0  0  0  0  0  0  0
   24.5804  -20.2182   -9.4425 O   0  0  0  0  0  0  0  0  0  0  0  0
   25.0627  -19.0981   -9.6970 C   0  0  0  0  0  0  0  0  0  0  0  0
   25.2447  -21.4873   -9.7519 C   0  0  0  0  0  0  0  0  0  0  0  0
   25.8802  -21.4787  -11.0929 C   0  0  2  0  0  0  0  0  0  0  0  0
   24.9765  -21.7592  -12.2677 N   0  0  0  0  0  0  0  0  0  0  0  0
   25.9101  -21.9840  -13.3885 C   0  0  0  0  0  0  0  0  0  0  0  0
   24.0579  -20.6499  -12.6121 O   0  0  0  0  0  0  0  0  0  0  0  0
   24.5592  -19.5907  -13.1401 O   0  0  0  0  0  0  0  0  0  0  0  0
   18.8866  -16.8220  -18.1774 C   0  0  0  0  0  0  0  0  0  0  0  0
   19.7179  -17.5133  -17.2886 C   0  0  0  0  0  0  0  0  0  0  0  0
   19.3526  -17.8006  -15.9926 C   0  0  0  0  0  0  0  0  0  0  0  0
   20.1949  -18.4897  -15.1243 C   0  0  0  0  0  0  0  0  0  0  0  0
   21.4359  -18.9051  -15.5565 C   0  0  0  0  0  0  0  0  0  0  0  0
   22.3078  -19.6188  -14.6309 C   0  0  1  0  0  0  0  0  0  0  0  0
   21.7901  -19.7390  -13.2202 N   0  0  0  0  0  0  0  0  0  0  0  0
   22.6664  -20.6137  -12.4313 C   0  0  0  0  0  0  0  0  0  0  0  0
   20.4400  -20.3230  -13.2097 O   0  0  0  0  0  0  0  0  0  0  0  0
   20.2369  -21.6891  -13.1491 C   0  0  0  0  0  0  0  0  0  0  0  0
   21.8090  -18.6197  -16.8580 C   0  0  0  0  0  0  0  0  0  0  0  0
   20.9664  -17.9442  -17.6871 O   0  0  0  0  0  0  0  0  0  0  0  0
  2  3  2  0
  2  1  1  0
  4  2  1  0
  5  4  1  0
  6  7  1  0
  6  5  1  0
  8  9  1  6
  8  7  1  0
 10  8  1  0
 11 10  2  0
 12 13  1  0
 13 15  1  0
 14 13  2  0
 15 16  1  0
 17 16  1  1
 17 19  1  0
 17 18  1  0
 18 10  1  0
 19 28  1  0
 20 19  2  0
 22 21  1  0
 23 22  2  0
 24 23  1  0
 25 24  2  0
 25 31  1  0
 26 25  1  0
 27 28  1  0
 27 29  1  0
 27 26  1  1
 29 33  2  0
 29 30  1  0
 31 32  2  0
 32 22  1  0
M  END
$$$$
