RQY.pdb
     RDKit          3D

 33 33  0  0  1  0  0  0  0  0999 V2000
   25.6988  -20.4093   -8.5676 N   0  0  0  0  0  0  0  0  0  0  0  0
   24.5660  -20.9508   -9.2212 C   0  0  0  0  0  0  0  0  0  0  0  0
   23.3829  -20.9294   -8.6556 N   0  0  0  0  0  0  0  0  0  0  0  0
   24.6329  -21.5396  -10.5044 N   0  0  0  0  0  0  0  0  0  0  0  0
   25.9536  -21.7665  -11.1136 C   0  0  0  0  0  0  0  0  0  0  0  0
   26.5957  -20.4716  -11.4807 C   0  0  0  0  0  0  0  0  0  0  0  0
   26.7342  -20.1642  -12.9294 C   0  0  0  0  0  0  0  0  0  0  0  0
   25.8867  -21.0222  -13.7937 C   0  0  2  0  0  0  0  0  0  0  0  0
   26.4522  -22.3000  -14.1423 N   0  0  0  0  0  0  0  0  0  0  0  0
   25.5350  -20.3275  -15.0856 C   0  0  0  0  0  0  0  0  0  0  0  0
   26.2156  -20.5665  -16.1081 O   0  0  0  0  0  0  0  0  0  0  0  0
   22.5918  -21.3528   -9.1886 N   0  0  0  0  0  0  0  0  0  0  0  0
   20.2861  -17.1201  -15.5321 C   0  0  0  0  0  0  0  0  0  0  0  0
   20.2069  -18.4588  -16.0516 O   0  0  0  0  0  0  0  0  0  0  0  0
   19.0938  -19.0063  -16.1665 C   0  0  0  0  0  0  0  0  0  0  0  0
   21.4759  -19.0953  -16.4150 C   0  0  0  0  0  0  0  0  0  0  0  0
   22.6473  -18.2455  -16.0863 C   0  0  2  0  0  0  0  0  0  0  0  0
   24.0040  -18.8061  -16.4333 N   0  0  0  0  0  0  0  0  0  0  0  0
   24.4671  -19.4212  -15.1741 C   0  0  0  0  0  0  0  0  0  0  0  0
   24.9905  -17.7934  -16.8741 O   0  0  0  0  0  0  0  0  0  0  0  0
   25.4556  -16.9790  -15.9953 O   0  0  0  0  0  0  0  0  0  0  0  0
   32.8322  -15.1409  -19.3674 C   0  0  0  0  0  0  0  0  0  0  0  0
   31.5909  -15.6206  -18.9336 C   0  0  0  0  0  0  0  0  0  0  0  0
   30.6105  -14.8016  -18.4203 C   0  0  0  0  0  0  0  0  0  0  0  0
   29.3821  -15.2993  -17.9942 C   0  0  0  0  0  0  0  0  0  0  0  0
   29.1208  -16.6497  -18.0806 C   0  0  0  0  0  0  0  0  0  0  0  0
   27.8316  -17.1541  -17.6223 C   0  0  1  0  0  0  0  0  0  0  0  0
   26.6445  -16.7398  -18.4541 N   0  0  0  0  0  0  0  0  0  0  0  0
   25.4976  -17.6112  -18.1702 C   0  0  0  0  0  0  0  0  0  0  0  0
   26.9513  -16.8489  -19.8886 O   0  0  0  0  0  0  0  0  0  0  0  0
   27.3184  -15.7490  -20.6414 C   0  0  0  0  0  0  0  0  0  0  0  0
   30.1019  -17.4782  -18.5958 C   0  0  0  0  0  0  0  0  0  0  0  0
   31.2950  -16.9661  -19.0056 O   0  0  0  0  0  0  0  0  0  0  0  0
  2  3  2  0
  2  1  1  0
  4  2  1  0
  5  4  1  0
  6  7  1  0
  6  5  1  0
  8  9  1  6
  8  7  1  0
 10  8  1  0
 11 10  2  0
 12 13  1  0
 13 15  1  0
 14 13  2  0
 15 16  1  0
 17 16  1  6
 17 19  1  0
 17 18  1  0
 18 10  1  0
 19 28  1  0
 20 19  2  0
 22 21  1  0
 23 22  2  0
 24 23  1  0
 25 24  2  0
 25 31  1  0
 26 25  1  0
 27 28  1  0
 27 29  1  0
 27 26  1  1
 29 33  2  0
 29 30  1  0
 31 32  2  0
 32 22  1  0
M  END
$$$$
