RQY.pdb
     RDKit          3D

 33 33  0  0  1  0  0  0  0  0999 V2000
   23.2963  -13.3637  -20.8517 N   0  0  0  0  0  0  0  0  0  0  0  0
   24.6820  -13.1079  -20.7185 C   0  0  0  0  0  0  0  0  0  0  0  0
   25.3177  -12.3531  -21.5823 N   0  0  0  0  0  0  0  0  0  0  0  0
   25.4593  -13.6390  -19.6642 N   0  0  0  0  0  0  0  0  0  0  0  0
   24.9355  -14.7849  -18.9032 C   0  0  0  0  0  0  0  0  0  0  0  0
   24.4422  -15.8495  -19.8236 C   0  0  0  0  0  0  0  0  0  0  0  0
   24.8062  -17.2549  -19.5001 C   0  0  0  0  0  0  0  0  0  0  0  0
   25.3610  -17.4163  -18.1335 C   0  0  2  0  0  0  0  0  0  0  0  0
   26.7855  -17.6159  -18.0631 N   0  0  0  0  0  0  0  0  0  0  0  0
   24.7167  -18.5722  -17.4095 C   0  0  0  0  0  0  0  0  0  0  0  0
   23.4872  -18.7626  -17.5430 O   0  0  0  0  0  0  0  0  0  0  0  0
   26.3345  -12.1883  -21.4142 N   0  0  0  0  0  0  0  0  0  0  0  0
   26.1361  -22.4690  -19.1887 C   0  0  0  0  0  0  0  0  0  0  0  0
   27.0057  -22.7145  -18.0699 O   0  0  0  0  0  0  0  0  0  0  0  0
   28.1427  -23.1831  -18.2692 C   0  0  0  0  0  0  0  0  0  0  0  0
   26.4738  -22.3872  -16.7442 C   0  0  0  0  0  0  0  0  0  0  0  0
   25.1320  -21.7574  -16.8149 C   0  0  1  0  0  0  0  0  0  0  0  0
   24.8819  -20.5997  -15.8807 N   0  0  0  0  0  0  0  0  0  0  0  0
   25.4558  -19.4399  -16.5906 C   0  0  0  0  0  0  0  0  0  0  0  0
   25.5299  -20.7311  -14.5557 O   0  0  0  0  0  0  0  0  0  0  0  0
   26.7863  -20.4746  -14.4684 O   0  0  0  0  0  0  0  0  0  0  0  0
   28.7561  -19.7592   -6.6230 C   0  0  0  0  0  0  0  0  0  0  0  0
   28.1463  -19.7944   -7.8824 C   0  0  0  0  0  0  0  0  0  0  0  0
   26.8586  -19.3597   -8.1023 C   0  0  0  0  0  0  0  0  0  0  0  0
   26.2706  -19.4035   -9.3635 C   0  0  0  0  0  0  0  0  0  0  0  0
   26.9827  -19.8936  -10.4367 C   0  0  0  0  0  0  0  0  0  0  0  0
   26.3480  -19.9392  -11.7487 C   0  0  1  0  0  0  0  0  0  0  0  0
   25.6738  -21.2426  -12.0940 N   0  0  0  0  0  0  0  0  0  0  0  0
   24.9222  -21.1082  -13.3479 C   0  0  0  0  0  0  0  0  0  0  0  0
   24.7267  -21.6337  -11.0386 O   0  0  0  0  0  0  0  0  0  0  0  0
   25.1158  -22.4042   -9.9588 C   0  0  0  0  0  0  0  0  0  0  0  0
   28.2775  -20.3320  -10.2224 C   0  0  0  0  0  0  0  0  0  0  0  0
   28.8293  -20.2783   -8.9789 O   0  0  0  0  0  0  0  0  0  0  0  0
  2  3  2  0
  2  1  1  0
  4  2  1  0
  5  4  1  0
  6  7  1  0
  6  5  1  0
  8  9  1  6
  8  7  1  0
 10  8  1  0
 11 10  2  0
 12 13  1  0
 13 15  1  0
 14 13  2  0
 15 16  1  0
 17 16  1  6
 17 19  1  0
 17 18  1  0
 18 10  1  0
 19 28  1  0
 20 19  2  0
 22 21  1  0
 23 22  2  0
 24 23  1  0
 25 24  2  0
 25 31  1  0
 26 25  1  0
 27 28  1  0
 27 29  1  0
 27 26  1  6
 29 33  2  0
 29 30  1  0
 31 32  2  0
 32 22  1  0
M  END
$$$$
