RQY.pdb
     RDKit          3D

 33 33  0  0  1  0  0  0  0  0999 V2000
   31.0418  -21.8306  -18.6753 N   0  0  0  0  0  0  0  0  0  0  0  0
   30.1576  -22.5794  -17.8623 C   0  0  0  0  0  0  0  0  0  0  0  0
   30.5258  -23.7227  -17.3355 N   0  0  0  0  0  0  0  0  0  0  0  0
   28.8427  -22.1525  -17.5686 N   0  0  0  0  0  0  0  0  0  0  0  0
   28.5016  -20.7314  -17.7442 C   0  0  0  0  0  0  0  0  0  0  0  0
   27.0332  -20.5607  -17.9406 C   0  0  0  0  0  0  0  0  0  0  0  0
   26.1629  -20.6994  -16.7423 C   0  0  0  0  0  0  0  0  0  0  0  0
   26.3750  -21.9715  -16.0088 C   0  0  2  0  0  0  0  0  0  0  0  0
   26.2125  -23.1708  -16.7893 N   0  0  0  0  0  0  0  0  0  0  0  0
   25.4482  -22.0864  -14.8242 C   0  0  0  0  0  0  0  0  0  0  0  0
   24.3340  -22.6352  -14.9764 O   0  0  0  0  0  0  0  0  0  0  0  0
   29.7967  -24.2708  -16.8283 N   0  0  0  0  0  0  0  0  0  0  0  0
   26.3701  -19.5013   -9.6096 C   0  0  0  0  0  0  0  0  0  0  0  0
   25.5577  -20.5282   -9.0148 O   0  0  0  0  0  0  0  0  0  0  0  0
   25.1659  -20.3955   -7.8397 C   0  0  0  0  0  0  0  0  0  0  0  0
   25.2448  -21.6849   -9.8585 C   0  0  0  0  0  0  0  0  0  0  0  0
   25.8557  -21.5809  -11.2069 C   0  0  2  0  0  0  0  0  0  0  0  0
   24.9087  -21.6275  -12.3801 N   0  0  0  0  0  0  0  0  0  0  0  0
   25.7991  -21.5960  -13.5569 C   0  0  0  0  0  0  0  0  0  0  0  0
   23.9650  -20.4885  -12.4509 O   0  0  0  0  0  0  0  0  0  0  0  0
   24.4218  -19.3463  -12.8231 O   0  0  0  0  0  0  0  0  0  0  0  0
   18.7194  -17.2155  -18.1676 C   0  0  0  0  0  0  0  0  0  0  0  0
   19.5755  -17.8056  -17.2307 C   0  0  0  0  0  0  0  0  0  0  0  0
   20.1900  -17.0927  -16.2259 C   0  0  0  0  0  0  0  0  0  0  0  0
   21.0386  -17.6993  -15.3038 C   0  0  0  0  0  0  0  0  0  0  0  0
   21.2835  -19.0532  -15.3828 C   0  0  0  0  0  0  0  0  0  0  0  0
   22.1811  -19.6701  -14.4132 C   0  0  2  0  0  0  0  0  0  0  0  0
   21.5867  -19.9161  -13.0498 N   0  0  0  0  0  0  0  0  0  0  0  0
   22.5926  -20.5046  -12.1569 C   0  0  0  0  0  0  0  0  0  0  0  0
   20.4558  -20.8527  -13.1369 O   0  0  0  0  0  0  0  0  0  0  0  0
   19.1443  -20.4159  -13.1182 C   0  0  0  0  0  0  0  0  0  0  0  0
   20.6688  -19.7755  -16.3903 C   0  0  0  0  0  0  0  0  0  0  0  0
   19.8432  -19.1580  -17.2796 O   0  0  0  0  0  0  0  0  0  0  0  0
  2  3  2  0
  2  1  1  0
  4  2  1  0
  5  4  1  0
  6  7  1  0
  6  5  1  0
  8  9  1  6
  8  7  1  0
 10  8  1  0
 11 10  2  0
 12 13  1  0
 13 15  1  0
 14 13  2  0
 15 16  1  0
 17 16  1  1
 17 19  1  0
 17 18  1  0
 18 10  1  0
 19 28  1  0
 20 19  2  0
 22 21  1  0
 23 22  2  0
 24 23  1  0
 25 24  2  0
 25 31  1  0
 26 25  1  0
 27 28  1  0
 27 29  1  0
 27 26  1  1
 29 33  2  0
 29 30  1  0
 31 32  2  0
 32 22  1  0
M  END
$$$$
