AIS.pdb
     RDKit          3D

 20 19  0  0  1  0  0  0  0  0999 V2000
   16.8103  -11.2986  -16.3826 C   0  0  0  0  0  0  0  0  0  0  0  0
   17.4591  -10.0755  -17.0361 C   0  0  2  0  0  0  0  0  0  0  0  0
   18.1213  -10.5514  -18.2317 N   0  0  0  0  0  0  0  0  0  0  0  0
   18.4555   -9.5558  -16.1026 C   0  0  0  0  0  0  0  0  0  0  0  0
   18.0877   -9.1670  -14.9657 O   0  0  0  0  0  0  0  0  0  0  0  0
   23.3258  -11.9027  -15.1546 C   0  0  0  0  0  0  0  0  0  0  0  0
   22.0095  -11.1965  -15.2439 C   0  0  0  0  0  0  0  0  0  0  0  0
   22.0727   -9.7079  -15.3194 C   0  0  2  0  0  0  0  0  0  0  0  0
   22.9584   -9.1192  -14.2268 C   0  0  0  0  0  0  0  0  0  0  0  0
   20.7739   -8.9906  -15.4355 C   0  0  2  0  0  0  0  0  0  0  0  0
   19.8516   -9.4599  -16.4078 N   0  0  0  0  0  0  0  0  0  0  0  0
   21.0807   -7.5385  -15.5081 C   0  0  0  0  0  0  0  0  0  0  0  0
   21.5048   -7.1161  -16.6061 O   0  0  0  0  0  0  0  0  0  0  0  0
   20.0451   -3.0923  -14.3022 O   0  0  0  0  0  0  0  0  0  0  0  0
   19.8496   -4.4681  -14.1988 C   0  0  0  0  0  0  0  0  0  0  0  0
   21.1187   -5.2287  -14.5580 C   0  0  2  0  0  0  0  0  0  0  0  0
   20.9171   -6.6454  -14.4201 N   0  0  0  0  0  0  0  0  0  0  0  0
   22.1869   -4.7827  -13.6279 C   0  0  0  0  0  0  0  0  0  0  0  0
   22.4687   -5.4569  -12.5915 O   0  0  0  0  0  0  0  0  0  0  0  0
   22.9253   -3.6306  -13.8282 O   0  0  0  0  0  0  0  0  0  0  0  0
  2  1  1  1
  2  3  1  0
  4  2  1  0
  5  4  2  0
  7  6  1  0
  7  8  1  0
  8 10  1  0
  8  9  1  1
 10 12  1  0
 10 11  1  6
 11  4  1  0
 12 17  1  0
 13 12  2  0
 16 15  1  1
 15 14  1  0
 17 16  1  0
 18 16  1  0
 18 20  1  0
 19 18  2  0
M  END
$$$$
