AIS.pdb
     RDKit          3D

 20 19  0  0  1  0  0  0  0  0999 V2000
   17.9033  -10.1617  -18.5909 C   0  0  0  0  0  0  0  0  0  0  0  0
   18.6202  -11.2392  -17.7731 C   0  0  2  0  0  0  0  0  0  0  0  0
   17.5891  -11.9891  -17.0883 N   0  0  0  0  0  0  0  0  0  0  0  0
   19.4600  -10.5584  -16.7904 C   0  0  0  0  0  0  0  0  0  0  0  0
   18.9468  -10.1609  -15.7145 O   0  0  0  0  0  0  0  0  0  0  0  0
   24.3126  -12.5306  -15.3765 C   0  0  0  0  0  0  0  0  0  0  0  0
   22.9675  -11.8942  -15.5344 C   0  0  0  0  0  0  0  0  0  0  0  0
   22.9606  -10.4074  -15.6577 C   0  0  2  0  0  0  0  0  0  0  0  0
   23.6972   -9.7367  -14.5035 C   0  0  0  0  0  0  0  0  0  0  0  0
   21.6451   -9.7673  -15.9309 C   0  0  2  0  0  0  0  0  0  0  0  0
   20.8579  -10.3109  -16.9802 N   0  0  0  0  0  0  0  0  0  0  0  0
   21.8799   -8.3024  -16.0140 C   0  0  0  0  0  0  0  0  0  0  0  0
   22.5641   -7.9051  -16.9824 O   0  0  0  0  0  0  0  0  0  0  0  0
   19.2981   -5.6551  -14.5003 O   0  0  0  0  0  0  0  0  0  0  0  0
   20.2434   -5.2473  -15.4394 C   0  0  0  0  0  0  0  0  0  0  0  0
   21.5735   -5.9546  -15.2183 C   0  0  2  0  0  0  0  0  0  0  0  0
   21.3765   -7.3711  -15.0720 N   0  0  0  0  0  0  0  0  0  0  0  0
   22.1739   -5.4024  -13.9775 C   0  0  0  0  0  0  0  0  0  0  0  0
   22.3376   -6.1334  -12.9542 O   0  0  0  0  0  0  0  0  0  0  0  0
   22.5831   -4.0864  -13.8615 O   0  0  0  0  0  0  0  0  0  0  0  0
  2  1  1  6
  2  3  1  0
  4  2  1  0
  5  4  2  0
  7  6  1  0
  7  8  1  0
  8 10  1  0
  8  9  1  1
 10 12  1  0
 10 11  1  6
 11  4  1  0
 12 17  1  0
 13 12  2  0
 16 15  1  1
 15 14  1  0
 17 16  1  0
 18 16  1  0
 18 20  1  0
 19 18  2  0
M  END
$$$$
