AIS.pdb
     RDKit          3D

 20 19  0  0  1  0  0  0  0  0999 V2000
   16.7461   -9.6113  -17.7831 C   0  0  0  0  0  0  0  0  0  0  0  0
   17.8873  -10.5867  -17.4830 C   0  0  2  0  0  0  0  0  0  0  0  0
   17.2733  -11.7899  -16.9636 N   0  0  0  0  0  0  0  0  0  0  0  0
   18.7218   -9.9810  -16.4481 C   0  0  0  0  0  0  0  0  0  0  0  0
   18.2445   -9.8064  -15.2988 O   0  0  0  0  0  0  0  0  0  0  0  0
   23.4291  -11.8238  -14.8241 C   0  0  0  0  0  0  0  0  0  0  0  0
   22.1056  -11.1624  -15.0484 C   0  0  0  0  0  0  0  0  0  0  0  0
   22.1459   -9.6918  -15.2957 C   0  0  2  0  0  0  0  0  0  0  0  0
   22.9260   -8.9534  -14.2136 C   0  0  0  0  0  0  0  0  0  0  0  0
   20.8475   -9.0313  -15.6006 C   0  0  2  0  0  0  0  0  0  0  0  0
   20.0752   -9.5659  -16.6654 N   0  0  0  0  0  0  0  0  0  0  0  0
   21.1082   -7.5707  -15.6835 C   0  0  0  0  0  0  0  0  0  0  0  0
   21.6485   -7.1632  -16.7351 O   0  0  0  0  0  0  0  0  0  0  0  0
   19.9684   -3.0993  -14.3661 O   0  0  0  0  0  0  0  0  0  0  0  0
   19.7362   -4.4733  -14.3645 C   0  0  0  0  0  0  0  0  0  0  0  0
   20.9787   -5.2379  -14.8001 C   0  0  2  0  0  0  0  0  0  0  0  0
   20.7800   -6.6542  -14.6538 N   0  0  0  0  0  0  0  0  0  0  0  0
   22.1020   -4.7984  -13.9339 C   0  0  0  0  0  0  0  0  0  0  0  0
   22.3237   -5.3643  -12.8209 O   0  0  0  0  0  0  0  0  0  0  0  0
   22.9579   -3.7680  -14.2779 O   0  0  0  0  0  0  0  0  0  0  0  0
  2  1  1  1
  2  3  1  0
  4  2  1  0
  5  4  2  0
  7  6  1  0
  7  8  1  0
  8 10  1  0
  8  9  1  1
 10 12  1  0
 10 11  1  6
 11  4  1  0
 12 17  1  0
 13 12  2  0
 16 15  1  1
 15 14  1  0
 17 16  1  0
 18 16  1  0
 18 20  1  0
 19 18  2  0
M  END
$$$$
