AIS.pdb
     RDKit          3D

 20 19  0  0  1  0  0  0  0  0999 V2000
   18.9230  -10.8561  -22.0839 C   0  0  0  0  0  0  0  0  0  0  0  0
   20.1225  -10.3321  -21.2900 C   0  0  2  0  0  0  0  0  0  0  0  0
   21.1138  -11.3864  -21.2997 N   0  0  0  0  0  0  0  0  0  0  0  0
   19.6739  -10.0992  -19.9193 C   0  0  0  0  0  0  0  0  0  0  0  0
   18.7745   -9.2486  -19.7038 O   0  0  0  0  0  0  0  0  0  0  0  0
   18.9360  -13.8998  -15.9509 C   0  0  0  0  0  0  0  0  0  0  0  0
   18.7604  -12.6533  -16.7601 C   0  0  0  0  0  0  0  0  0  0  0  0
   19.7157  -11.5458  -16.4662 C   0  0  2  0  0  0  0  0  0  0  0  0
   19.5529  -11.0150  -15.0462 C   0  0  0  0  0  0  0  0  0  0  0  0
   19.7940  -10.4492  -17.4693 C   0  0  2  0  0  0  0  0  0  0  0  0
   20.2049  -10.7930  -18.7843 N   0  0  0  0  0  0  0  0  0  0  0  0
   20.5540   -9.3364  -16.8430 C   0  0  0  0  0  0  0  0  0  0  0  0
   21.8007   -9.4168  -16.8986 O   0  0  0  0  0  0  0  0  0  0  0  0
   20.9752   -4.7526  -15.6971 O   0  0  0  0  0  0  0  0  0  0  0  0
   20.2560   -5.8126  -16.2457 C   0  0  0  0  0  0  0  0  0  0  0  0
   20.7104   -7.1424  -15.6595 C   0  0  2  0  0  0  0  0  0  0  0  0
   19.9426   -8.2271  -16.2077 N   0  0  0  0  0  0  0  0  0  0  0  0
   20.5061   -7.0776  -14.1901 C   0  0  0  0  0  0  0  0  0  0  0  0
   19.4103   -7.4475  -13.6699 O   0  0  0  0  0  0  0  0  0  0  0  0
   21.4752   -6.6204  -13.3158 O   0  0  0  0  0  0  0  0  0  0  0  0
  2  1  1  6
  2  3  1  0
  4  2  1  0
  5  4  2  0
  7  6  1  0
  7  8  1  0
  8 10  1  0
  8  9  1  1
 10 12  1  0
 10 11  1  6
 11  4  1  0
 12 17  1  0
 13 12  2  0
 16 15  1  6
 15 14  1  0
 17 16  1  0
 18 16  1  0
 18 20  1  0
 19 18  2  0
M  END
$$$$
