AIS.pdb
     RDKit          3D

 20 19  0  0  1  0  0  0  0  0999 V2000
   19.1290   -8.2527  -20.0670 C   0  0  0  0  0  0  0  0  0  0  0  0
   19.5657   -9.6037  -19.4943 C   0  0  2  0  0  0  0  0  0  0  0  0
   18.3855  -10.4411  -19.4719 N   0  0  0  0  0  0  0  0  0  0  0  0
   20.0241   -9.3730  -18.1264 C   0  0  0  0  0  0  0  0  0  0  0  0
   19.1933   -9.0225  -17.2513 O   0  0  0  0  0  0  0  0  0  0  0  0
   23.8435  -12.2888  -15.3499 C   0  0  0  0  0  0  0  0  0  0  0  0
   22.7077  -11.4767  -15.8883 C   0  0  0  0  0  0  0  0  0  0  0  0
   22.8442   -9.9971  -15.7549 C   0  0  2  0  0  0  0  0  0  0  0  0
   23.1059   -9.5768  -14.3128 C   0  0  0  0  0  0  0  0  0  0  0  0
   21.7869   -9.1696  -16.3971 C   0  0  2  0  0  0  0  0  0  0  0  0
   21.3869   -9.5242  -17.7126 N   0  0  0  0  0  0  0  0  0  0  0  0
   22.1764   -7.7466  -16.2195 C   0  0  0  0  0  0  0  0  0  0  0  0
   22.6654   -7.1772  -17.2197 O   0  0  0  0  0  0  0  0  0  0  0  0
   21.2171   -3.5357  -15.7164 O   0  0  0  0  0  0  0  0  0  0  0  0
   21.0885   -4.9220  -15.7750 C   0  0  0  0  0  0  0  0  0  0  0  0
   22.1570   -5.6058  -14.9330 C   0  0  2  0  0  0  0  0  0  0  0  0
   22.0208   -7.0352  -15.0040 N   0  0  0  0  0  0  0  0  0  0  0  0
   21.9776   -5.1554  -13.5294 C   0  0  0  0  0  0  0  0  0  0  0  0
   21.2603   -5.8190  -12.7210 O   0  0  0  0  0  0  0  0  0  0  0  0
   22.5676   -4.0103  -13.0261 O   0  0  0  0  0  0  0  0  0  0  0  0
  2  1  1  1
  2  3  1  0
  4  2  1  0
  5  4  2  0
  7  6  1  0
  7  8  1  0
  8 10  1  0
  8  9  1  1
 10 12  1  0
 10 11  1  6
 11  4  1  0
 12 17  1  0
 13 12  2  0
 16 15  1  6
 15 14  1  0
 17 16  1  0
 18 16  1  0
 18 20  1  0
 19 18  2  0
M  END
$$$$
