AIS.pdb
     RDKit          3D

 20 19  0  0  1  0  0  0  0  0999 V2000
   18.1794   -9.1062  -19.4649 C   0  0  0  0  0  0  0  0  0  0  0  0
   19.0334  -10.2358  -18.8830 C   0  0  2  0  0  0  0  0  0  0  0  0
   18.1512  -11.3697  -18.7089 N   0  0  0  0  0  0  0  0  0  0  0  0
   19.5182   -9.7921  -17.5782 C   0  0  0  0  0  0  0  0  0  0  0  0
   18.7420   -9.8267  -16.5907 O   0  0  0  0  0  0  0  0  0  0  0  0
   23.7347  -11.7314  -15.0269 C   0  0  0  0  0  0  0  0  0  0  0  0
   22.4754  -11.0790  -15.5046 C   0  0  0  0  0  0  0  0  0  0  0  0
   22.4659   -9.5874  -15.4830 C   0  0  2  0  0  0  0  0  0  0  0  0
   22.8371   -9.0351  -14.1112 C   0  0  0  0  0  0  0  0  0  0  0  0
   21.2620   -8.9202  -16.0491 C   0  0  2  0  0  0  0  0  0  0  0  0
   20.8478   -9.3111  -17.3498 N   0  0  0  0  0  0  0  0  0  0  0  0
   21.4419   -7.4575  -15.8587 C   0  0  0  0  0  0  0  0  0  0  0  0
   22.2520   -6.8943  -16.6270 O   0  0  0  0  0  0  0  0  0  0  0  0
   19.7579   -3.2448  -14.2068 O   0  0  0  0  0  0  0  0  0  0  0  0
   19.6065   -4.6235  -14.3405 C   0  0  0  0  0  0  0  0  0  0  0  0
   20.9167   -5.2794  -14.7546 C   0  0  2  0  0  0  0  0  0  0  0  0
   20.7554   -6.7028  -14.8752 N   0  0  0  0  0  0  0  0  0  0  0  0
   21.9210   -4.9772  -13.7033 C   0  0  0  0  0  0  0  0  0  0  0  0
   22.0095   -5.6976  -12.6634 O   0  0  0  0  0  0  0  0  0  0  0  0
   22.8033   -3.9157  -13.7894 O   0  0  0  0  0  0  0  0  0  0  0  0
  2  1  1  1
  2  3  1  0
  4  2  1  0
  5  4  2  0
  7  6  1  0
  7  8  1  0
  8 10  1  0
  8  9  1  1
 10 12  1  0
 10 11  1  6
 11  4  1  0
 12 17  1  0
 13 12  2  0
 16 15  1  1
 15 14  1  0
 17 16  1  0
 18 16  1  0
 18 20  1  0
 19 18  2  0
M  END
$$$$
