AIS.pdb
     RDKit          3D

 20 19  0  0  1  0  0  0  0  0999 V2000
   16.9847  -10.1223  -17.7739 C   0  0  0  0  0  0  0  0  0  0  0  0
   18.0286  -11.1322  -17.2897 C   0  0  2  0  0  0  0  0  0  0  0  0
   17.2977  -12.1977  -16.6379 N   0  0  0  0  0  0  0  0  0  0  0  0
   18.8748  -10.4536  -16.3110 C   0  0  0  0  0  0  0  0  0  0  0  0
   18.4195  -10.2186  -15.1637 O   0  0  0  0  0  0  0  0  0  0  0  0
   23.7241  -12.0987  -14.8309 C   0  0  0  0  0  0  0  0  0  0  0  0
   22.3676  -11.4974  -15.0255 C   0  0  0  0  0  0  0  0  0  0  0  0
   22.3372  -10.0288  -15.2858 C   0  0  2  0  0  0  0  0  0  0  0  0
   23.1078   -9.2467  -14.2279 C   0  0  0  0  0  0  0  0  0  0  0  0
   21.0044   -9.4290  -15.5667 C   0  0  2  0  0  0  0  0  0  0  0  0
   20.2163  -10.0316  -16.5825 N   0  0  0  0  0  0  0  0  0  0  0  0
   21.2055   -7.9638  -15.7118 C   0  0  0  0  0  0  0  0  0  0  0  0
   21.8119   -7.5869  -16.7385 O   0  0  0  0  0  0  0  0  0  0  0  0
   19.7982   -3.4785  -14.7642 O   0  0  0  0  0  0  0  0  0  0  0  0
   19.6218   -4.8571  -14.6640 C   0  0  0  0  0  0  0  0  0  0  0  0
   20.9175   -5.5971  -14.9670 C   0  0  2  0  0  0  0  0  0  0  0  0
   20.7530   -7.0110  -14.7655 N   0  0  0  0  0  0  0  0  0  0  0  0
   21.9569   -5.0777  -14.0424 C   0  0  0  0  0  0  0  0  0  0  0  0
   22.1889   -5.6538  -12.9367 O   0  0  0  0  0  0  0  0  0  0  0  0
   22.7203   -3.9589  -14.3217 O   0  0  0  0  0  0  0  0  0  0  0  0
  2  1  1  1
  2  3  1  0
  4  2  1  0
  5  4  2  0
  7  6  1  0
  7  8  1  0
  8 10  1  0
  8  9  1  1
 10 12  1  0
 10 11  1  6
 11  4  1  0
 12 17  1  0
 13 12  2  0
 16 15  1  1
 15 14  1  0
 17 16  1  0
 18 16  1  0
 18 20  1  0
 19 18  2  0
M  END
$$$$
