AIS.pdb
     RDKit          3D

 20 19  0  0  1  0  0  0  0  0999 V2000
   21.9357  -13.2297  -19.9484 C   0  0  0  0  0  0  0  0  0  0  0  0
   22.3107  -11.7598  -20.1551 C   0  0  2  0  0  0  0  0  0  0  0  0
   23.6121  -11.7530  -20.7881 N   0  0  0  0  0  0  0  0  0  0  0  0
   22.4090  -11.1421  -18.8349 C   0  0  0  0  0  0  0  0  0  0  0  0
   21.3668  -10.9876  -18.1501 O   0  0  0  0  0  0  0  0  0  0  0  0
   26.9537  -11.5749  -15.5391 C   0  0  0  0  0  0  0  0  0  0  0  0
   25.5987  -11.5326  -16.1729 C   0  0  0  0  0  0  0  0  0  0  0  0
   24.9306  -10.1988  -16.1935 C   0  0  2  0  0  0  0  0  0  0  0  0
   24.7920   -9.6094  -14.7942 C   0  0  0  0  0  0  0  0  0  0  0  0
   23.6660  -10.0987  -16.9719 C   0  0  2  0  0  0  0  0  0  0  0  0
   23.6422  -10.6931  -18.2613 N   0  0  0  0  0  0  0  0  0  0  0  0
   23.2349   -8.6774  -16.9258 C   0  0  0  0  0  0  0  0  0  0  0  0
   23.8041   -7.8998  -17.7228 O   0  0  0  0  0  0  0  0  0  0  0  0
   21.1929   -6.1391  -18.3734 O   0  0  0  0  0  0  0  0  0  0  0  0
   20.6750   -6.7452  -17.2305 C   0  0  0  0  0  0  0  0  0  0  0  0
   21.7314   -6.8448  -16.1386 C   0  0  2  0  0  0  0  0  0  0  0  0
   22.2393   -8.1864  -16.0451 N   0  0  0  0  0  0  0  0  0  0  0  0
   21.0875   -6.4632  -14.8560 C   0  0  0  0  0  0  0  0  0  0  0  0
   20.5198   -7.3343  -14.1301 O   0  0  0  0  0  0  0  0  0  0  0  0
   21.0666   -5.1640  -14.3826 O   0  0  0  0  0  0  0  0  0  0  0  0
  2  1  1  1
  2  3  1  0
  4  2  1  0
  5  4  2  0
  7  6  1  0
  7  8  1  0
  8 10  1  0
  8  9  1  1
 10 12  1  0
 10 11  1  6
 11  4  1  0
 12 17  1  0
 13 12  2  0
 16 15  1  6
 15 14  1  0
 17 16  1  0
 18 16  1  0
 18 20  1  0
 19 18  2  0
M  END
$$$$
