AIS.pdb
     RDKit          3D

 20 19  0  0  1  0  0  0  0  0999 V2000
   20.2682  -12.8904  -18.0002 C   0  0  0  0  0  0  0  0  0  0  0  0
   20.7014  -11.4883  -18.4367 C   0  0  2  0  0  0  0  0  0  0  0  0
   21.5732  -11.6645  -19.5783 N   0  0  0  0  0  0  0  0  0  0  0  0
   21.4573  -10.8993  -17.3340 C   0  0  0  0  0  0  0  0  0  0  0  0
   20.8868  -10.7105  -16.2304 O   0  0  0  0  0  0  0  0  0  0  0  0
   26.6483  -12.1126  -15.9092 C   0  0  0  0  0  0  0  0  0  0  0  0
   25.2082  -11.7435  -16.0809 C   0  0  0  0  0  0  0  0  0  0  0  0
   24.9056  -10.2827  -16.0802 C   0  0  2  0  0  0  0  0  0  0  0  0
   25.4766   -9.5832  -14.8515 C   0  0  0  0  0  0  0  0  0  0  0  0
   23.4926   -9.8945  -16.3405 C   0  0  2  0  0  0  0  0  0  0  0  0
   22.8338  -10.5162  -17.4339 N   0  0  0  0  0  0  0  0  0  0  0  0
   23.4384   -8.4095  -16.3347 C   0  0  0  0  0  0  0  0  0  0  0  0
   24.0145   -7.8304  -17.2816 O   0  0  0  0  0  0  0  0  0  0  0  0
   21.2756   -4.4048  -16.0957 O   0  0  0  0  0  0  0  0  0  0  0  0
   21.4189   -5.7908  -16.1137 C   0  0  0  0  0  0  0  0  0  0  0  0
   22.6927   -6.2177  -15.3972 C   0  0  2  0  0  0  0  0  0  0  0  0
   22.7826   -7.6511  -15.3333 N   0  0  0  0  0  0  0  0  0  0  0  0
   22.6428   -5.6579  -14.0227 C   0  0  0  0  0  0  0  0  0  0  0  0
   22.2774   -6.3748  -13.0425 O   0  0  0  0  0  0  0  0  0  0  0  0
   22.9836   -4.3498  -13.7309 O   0  0  0  0  0  0  0  0  0  0  0  0
  2  1  1  1
  2  3  1  0
  4  2  1  0
  5  4  2  0
  7  6  1  0
  7  8  1  0
  8 10  1  0
  8  9  1  1
 10 12  1  0
 10 11  1  6
 11  4  1  0
 12 17  1  0
 13 12  2  0
 16 15  1  6
 15 14  1  0
 17 16  1  0
 18 16  1  0
 18 20  1  0
 19 18  2  0
M  END
$$$$
