AIS.pdb
     RDKit          3D

 20 19  0  0  1  0  0  0  0  0999 V2000
   16.5344   -9.1157  -17.6268 C   0  0  0  0  0  0  0  0  0  0  0  0
   17.5231  -10.2085  -17.2117 C   0  0  2  0  0  0  0  0  0  0  0  0
   16.7450  -11.2404  -16.5606 N   0  0  0  0  0  0  0  0  0  0  0  0
   18.4506   -9.6187  -16.2492 C   0  0  0  0  0  0  0  0  0  0  0  0
   18.0156   -9.2300  -15.1363 O   0  0  0  0  0  0  0  0  0  0  0  0
   23.2112  -11.7670  -14.7258 C   0  0  0  0  0  0  0  0  0  0  0  0
   21.9056  -11.0670  -14.9371 C   0  0  0  0  0  0  0  0  0  0  0  0
   21.9900   -9.6092  -15.2425 C   0  0  2  0  0  0  0  0  0  0  0  0
   22.8558   -8.8647  -14.2322 C   0  0  0  0  0  0  0  0  0  0  0  0
   20.7039   -8.9073  -15.5039 C   0  0  2  0  0  0  0  0  0  0  0  0
   19.8510   -9.4528  -16.4995 N   0  0  0  0  0  0  0  0  0  0  0  0
   21.0179   -7.4639  -15.6658 C   0  0  0  0  0  0  0  0  0  0  0  0
   21.5372   -7.1286  -16.7529 O   0  0  0  0  0  0  0  0  0  0  0  0
   20.1878   -2.8726  -14.6481 O   0  0  0  0  0  0  0  0  0  0  0  0
   19.8745   -4.2245  -14.5211 C   0  0  0  0  0  0  0  0  0  0  0  0
   21.0727   -5.0978  -14.8674 C   0  0  2  0  0  0  0  0  0  0  0  0
   20.7609   -6.4875  -14.6716 N   0  0  0  0  0  0  0  0  0  0  0  0
   22.1884   -4.7043  -13.9699 C   0  0  0  0  0  0  0  0  0  0  0  0
   22.3483   -5.2699  -12.8462 O   0  0  0  0  0  0  0  0  0  0  0  0
   23.1029   -3.7190  -14.2949 O   0  0  0  0  0  0  0  0  0  0  0  0
  2  1  1  1
  2  3  1  0
  4  2  1  0
  5  4  2  0
  7  6  1  0
  7  8  1  0
  8 10  1  0
  8  9  1  1
 10 12  1  0
 10 11  1  6
 11  4  1  0
 12 17  1  0
 13 12  2  0
 16 15  1  1
 15 14  1  0
 17 16  1  0
 18 16  1  0
 18 20  1  0
 19 18  2  0
M  END
$$$$
