AIS.pdb
     RDKit          3D

 20 19  0  0  1  0  0  0  0  0999 V2000
   18.0271   -9.2500  -19.1969 C   0  0  0  0  0  0  0  0  0  0  0  0
   18.7609  -10.4321  -18.5581 C   0  0  2  0  0  0  0  0  0  0  0  0
   17.7436  -11.3840  -18.1666 N   0  0  0  0  0  0  0  0  0  0  0  0
   19.4438   -9.9329  -17.3669 C   0  0  0  0  0  0  0  0  0  0  0  0
   18.7749   -9.6948  -16.3302 O   0  0  0  0  0  0  0  0  0  0  0  0
   23.8705  -12.1349  -15.2036 C   0  0  0  0  0  0  0  0  0  0  0  0
   22.6045  -11.4315  -15.5802 C   0  0  0  0  0  0  0  0  0  0  0  0
   22.6778   -9.9424  -15.6341 C   0  0  2  0  0  0  0  0  0  0  0  0
   23.2215   -9.3516  -14.3380 C   0  0  0  0  0  0  0  0  0  0  0  0
   21.4583   -9.2317  -16.1063 C   0  0  2  0  0  0  0  0  0  0  0  0
   20.8546   -9.6934  -17.3057 N   0  0  0  0  0  0  0  0  0  0  0  0
   21.7589   -7.7768  -16.0723 C   0  0  0  0  0  0  0  0  0  0  0  0
   22.6104   -7.3678  -16.8917 O   0  0  0  0  0  0  0  0  0  0  0  0
   19.3939   -4.9177  -16.3573 O   0  0  0  0  0  0  0  0  0  0  0  0
   20.1444   -4.6453  -15.2151 C   0  0  0  0  0  0  0  0  0  0  0  0
   21.4309   -5.4595  -15.1997 C   0  0  2  0  0  0  0  0  0  0  0  0
   21.1400   -6.8672  -15.1792 N   0  0  0  0  0  0  0  0  0  0  0  0
   22.1828   -5.0862  -13.9748 C   0  0  0  0  0  0  0  0  0  0  0  0
   22.3039   -5.9036  -13.0128 O   0  0  0  0  0  0  0  0  0  0  0  0
   22.7849   -3.8523  -13.8091 O   0  0  0  0  0  0  0  0  0  0  0  0
  2  1  1  1
  2  3  1  0
  4  2  1  0
  5  4  2  0
  7  6  1  0
  7  8  1  0
  8 10  1  0
  8  9  1  1
 10 12  1  0
 10 11  1  6
 11  4  1  0
 12 17  1  0
 13 12  2  0
 16 15  1  1
 15 14  1  0
 17 16  1  0
 18 16  1  0
 18 20  1  0
 19 18  2  0
M  END
$$$$
