AIS.pdb
     RDKit          3D

 20 19  0  0  1  0  0  0  0  0999 V2000
   19.1212  -11.9914  -16.3529 C   0  0  0  0  0  0  0  0  0  0  0  0
   18.0085  -12.6969  -15.5732 C   0  0  2  0  0  0  0  0  0  0  0  0
   17.4016  -13.6409  -16.4870 N   0  0  0  0  0  0  0  0  0  0  0  0
   17.0256  -11.6836  -15.1971 C   0  0  0  0  0  0  0  0  0  0  0  0
   16.2829  -11.1903  -16.0826 O   0  0  0  0  0  0  0  0  0  0  0  0
   13.0988  -12.0267  -11.6016 C   0  0  0  0  0  0  0  0  0  0  0  0
   14.0314  -11.6870  -12.7216 C   0  0  0  0  0  0  0  0  0  0  0  0
   14.8906  -10.4855  -12.5120 C   0  0  2  0  0  0  0  0  0  0  0  0
   14.0686   -9.2536  -12.1496 C   0  0  0  0  0  0  0  0  0  0  0  0
   15.9001  -10.1958  -13.5665 C   0  0  2  0  0  0  0  0  0  0  0  0
   16.8522  -11.2084  -13.8572 N   0  0  0  0  0  0  0  0  0  0  0  0
   16.4748   -8.8586  -13.2669 C   0  0  0  0  0  0  0  0  0  0  0  0
   17.2762   -8.8022  -12.3086 O   0  0  0  0  0  0  0  0  0  0  0  0
   18.1806   -4.7551  -14.8514 O   0  0  0  0  0  0  0  0  0  0  0  0
   17.5460   -5.9801  -15.0474 C   0  0  0  0  0  0  0  0  0  0  0  0
   16.8450   -6.4417  -13.7770 C   0  0  2  0  0  0  0  0  0  0  0  0
   16.1610   -7.6865  -13.9989 N   0  0  0  0  0  0  0  0  0  0  0  0
   15.8642   -5.3924  -13.3999 C   0  0  0  0  0  0  0  0  0  0  0  0
   14.6495   -5.4820  -13.7528 O   0  0  0  0  0  0  0  0  0  0  0  0
   16.2051   -4.2767  -12.6571 O   0  0  0  0  0  0  0  0  0  0  0  0
  2  1  1  6
  2  3  1  0
  4  2  1  0
  5  4  2  0
  7  6  1  0
  7  8  1  0
  8 10  1  0
  8  9  1  6
 10 12  1  0
 10 11  1  1
 11  4  1  0
 12 17  1  0
 13 12  2  0
 16 15  1  6
 15 14  1  0
 17 16  1  0
 18 16  1  0
 18 20  1  0
 19 18  2  0
M  END
$$$$
