AIS.pdb
     RDKit          3D

 20 19  0  0  1  0  0  0  0  0999 V2000
   21.1924  -23.1598   -8.9567 C   0  0  0  0  0  0  0  0  0  0  0  0
   21.5164  -21.9896   -8.0241 C   0  0  2  0  0  0  0  0  0  0  0  0
   20.3160  -21.1854   -7.9419 N   0  0  0  0  0  0  0  0  0  0  0  0
   22.5815  -21.2106   -8.6510 C   0  0  0  0  0  0  0  0  0  0  0  0
   22.2797  -20.2967   -9.4589 O   0  0  0  0  0  0  0  0  0  0  0  0
   27.3767  -19.6016   -6.2128 C   0  0  0  0  0  0  0  0  0  0  0  0
   26.0946  -19.8325   -6.9491 C   0  0  0  0  0  0  0  0  0  0  0  0
   26.2264  -20.3767   -8.3319 C   0  0  2  0  0  0  0  0  0  0  0  0
   27.2106  -19.5689   -9.1706 C   0  0  0  0  0  0  0  0  0  0  0  0
   24.9599  -20.6517   -9.0635 C   0  0  2  0  0  0  0  0  0  0  0  0
   23.9744  -21.4275   -8.3977 N   0  0  0  0  0  0  0  0  0  0  0  0
   25.3330  -21.1358  -10.4180 C   0  0  0  0  0  0  0  0  0  0  0  0
   25.8908  -22.2537  -10.4725 O   0  0  0  0  0  0  0  0  0  0  0  0
   25.5055  -20.3658  -15.2447 O   0  0  0  0  0  0  0  0  0  0  0  0
   25.0955  -19.9124  -13.9925 C   0  0  0  0  0  0  0  0  0  0  0  0
   25.5210  -20.8786  -12.8954 C   0  0  2  0  0  0  0  0  0  0  0  0
   25.0899  -20.4059  -11.6080 N   0  0  0  0  0  0  0  0  0  0  0  0
   27.0031  -20.9662  -12.9254 C   0  0  0  0  0  0  0  0  0  0  0  0
   27.5857  -21.9030  -13.5509 O   0  0  0  0  0  0  0  0  0  0  0  0
   27.8232  -20.0531  -12.2881 O   0  0  0  0  0  0  0  0  0  0  0  0
  2  1  1  6
  2  3  1  0
  4  2  1  0
  5  4  2  0
  7  6  1  0
  7  8  1  0
  8 10  1  0
  8  9  1  6
 10 12  1  0
 10 11  1  1
 11  4  1  0
 12 17  1  0
 13 12  2  0
 16 15  1  6
 15 14  1  0
 17 16  1  0
 18 16  1  0
 18 20  1  0
 19 18  2  0
M  END
$$$$
