TCV.pdb
     RDKit          3D

 21 20  0  0  1  0  0  0  0  0999 V2000
    7.9026  -16.4674   21.3464 C   0  0  0  0  0  0  0  0  0  0  0  0
    8.4000  -15.2956   20.5038 C   0  0  1  0  0  0  0  0  0  0  0  0
    8.3039  -15.6236   19.1504 O   0  0  0  0  0  0  0  0  0  0  0  0
    7.5728  -14.0780   20.8369 C   0  0  2  0  0  0  0  0  0  0  0  0
    7.9689  -13.0131   19.9340 N   0  0  0  0  0  0  0  0  0  0  0  0
    7.9015  -13.6806   22.2473 C   0  0  0  0  0  0  0  0  0  0  0  0
    9.0012  -13.1682   22.5683 O   0  0  0  0  0  0  0  0  0  0  0  0
    6.9576  -13.8746   23.3010 N   0  0  0  0  0  0  0  0  0  0  0  0
    7.2667  -13.6564   24.6921 C   0  0  1  0  0  0  0  0  0  0  0  0
    5.9935  -13.3982   25.4231 C   0  0  0  0  0  0  0  0  0  0  0  0
    6.4513  -13.0638   27.1654 S   0  0  0  0  0  0  0  0  0  0  0  0
    8.0695  -14.7759   25.2613 C   0  0  0  0  0  0  0  0  0  0  0  0
    7.7752  -15.9396   24.9030 O   0  0  0  0  0  0  0  0  0  0  0  0
   12.1365  -14.6467   26.4416 C   0  0  0  0  0  0  0  0  0  0  0  0
   11.1470  -15.1662   27.4464 C   0  0  1  0  0  0  0  0  0  0  0  0
   10.9463  -14.1625   28.5409 C   0  0  0  0  0  0  0  0  0  0  0  0
    9.8623  -15.6405   26.8214 C   0  0  2  0  0  0  0  0  0  0  0  0
    9.1290  -14.6061   26.1678 N   0  0  0  0  0  0  0  0  0  0  0  0
    9.0749  -16.3534   27.8548 C   0  0  0  0  0  0  0  0  0  0  0  0
    9.5198  -17.5211   28.4583 O   0  0  0  0  0  0  0  0  0  0  0  0
    7.9582  -15.9004   28.2143 O   0  0  0  0  0  0  0  0  0  0  0  0
  2  1  1  1
  2  3  1  0
  4  5  1  6
  4  2  1  0
  6  4  1  0
  7  6  2  0
  8  6  1  0
  9  8  1  0
  9 12  1  0
  9 10  1  1
 11 10  1  0
 12 18  1  0
 12 13  2  0
 15 16  1  1
 15 14  1  0
 17 15  1  0
 17 18  1  1
 19 17  1  0
 19 20  1  0
 21 19  2  0
M  END
$$$$
