TCV.pdb
     RDKit          3D

 21 20  0  0  1  0  0  0  0  0999 V2000
    7.2444  -17.5801   20.5361 C   0  0  0  0  0  0  0  0  0  0  0  0
    7.8180  -16.9202   21.7875 C   0  0  1  0  0  0  0  0  0  0  0  0
    8.9631  -17.6087   22.1917 O   0  0  0  0  0  0  0  0  0  0  0  0
    8.1243  -15.4762   21.4728 C   0  0  2  0  0  0  0  0  0  0  0  0
    9.2655  -15.4509   20.5768 N   0  0  0  0  0  0  0  0  0  0  0  0
    8.4913  -14.8007   22.7629 C   0  0  0  0  0  0  0  0  0  0  0  0
    9.6643  -14.7827   23.2087 O   0  0  0  0  0  0  0  0  0  0  0  0
    7.5005  -14.1395   23.5502 N   0  0  0  0  0  0  0  0  0  0  0  0
    7.7620  -13.5946   24.8591 C   0  0  1  0  0  0  0  0  0  0  0  0
    6.5856  -12.7783   25.2736 C   0  0  0  0  0  0  0  0  0  0  0  0
    6.8690  -12.3054   27.0209 S   0  0  0  0  0  0  0  0  0  0  0  0
    8.1292  -14.6584   25.8365 C   0  0  0  0  0  0  0  0  0  0  0  0
    7.2903  -15.5644   26.0479 O   0  0  0  0  0  0  0  0  0  0  0  0
   10.7780  -17.2357   25.8383 C   0  0  0  0  0  0  0  0  0  0  0  0
   10.9555  -16.4667   27.1172 C   0  0  1  0  0  0  0  0  0  0  0  0
   12.2097  -15.6487   27.0587 C   0  0  0  0  0  0  0  0  0  0  0  0
    9.7365  -15.6730   27.5046 C   0  0  2  0  0  0  0  0  0  0  0  0
    9.3503  -14.7065   26.5291 N   0  0  0  0  0  0  0  0  0  0  0  0
    9.9655  -15.0901   28.8478 C   0  0  0  0  0  0  0  0  0  0  0  0
   10.2086  -15.8712   29.9687 O   0  0  0  0  0  0  0  0  0  0  0  0
    9.9438  -13.8420   29.0006 O   0  0  0  0  0  0  0  0  0  0  0  0
  2  1  1  6
  2  3  1  0
  4  5  1  6
  4  2  1  0
  6  4  1  0
  7  6  2  0
  8  6  1  0
  9  8  1  0
  9 12  1  0
  9 10  1  1
 11 10  1  0
 12 18  1  0
 12 13  2  0
 15 16  1  6
 15 14  1  0
 17 15  1  0
 17 18  1  6
 19 17  1  0
 19 20  1  0
 21 19  2  0
M  END
$$$$
