TCV.pdb
     RDKit          3D

 21 20  0  0  1  0  0  0  0  0999 V2000
   15.0893  -21.2743   19.1190 C   0  0  0  0  0  0  0  0  0  0  0  0
   15.0655  -20.2617   17.9768 C   0  0  1  0  0  0  0  0  0  0  0  0
   16.0222  -20.6149   17.0237 O   0  0  0  0  0  0  0  0  0  0  0  0
   13.6779  -20.2379   17.3836 C   0  0  2  0  0  0  0  0  0  0  0  0
   13.6993  -19.3407   16.2432 N   0  0  0  0  0  0  0  0  0  0  0  0
   12.7493  -19.6896   18.4288 C   0  0  0  0  0  0  0  0  0  0  0  0
   12.6955  -18.4688   18.7145 O   0  0  0  0  0  0  0  0  0  0  0  0
   11.8734  -20.5528   19.1546 N   0  0  0  0  0  0  0  0  0  0  0  0
   10.9081  -20.0775   20.1142 C   0  0  1  0  0  0  0  0  0  0  0  0
    9.8110  -21.0815   20.2161 C   0  0  0  0  0  0  0  0  0  0  0  0
    8.6454  -20.4531   21.4824 S   0  0  0  0  0  0  0  0  0  0  0  0
   11.5449  -19.7490   21.4212 C   0  0  0  0  0  0  0  0  0  0  0  0
   12.3298  -20.5936   21.9110 O   0  0  0  0  0  0  0  0  0  0  0  0
   12.5073  -15.8755   22.5071 C   0  0  0  0  0  0  0  0  0  0  0  0
   11.8912  -16.6866   23.6121 C   0  0  1  0  0  0  0  0  0  0  0  0
   10.5168  -16.1768   23.9232 C   0  0  0  0  0  0  0  0  0  0  0  0
   11.9399  -18.1692   23.3561 C   0  0  2  0  0  0  0  0  0  0  0  0
   11.3204  -18.5580   22.1313 N   0  0  0  0  0  0  0  0  0  0  0  0
   11.3851  -18.8667   24.5402 C   0  0  0  0  0  0  0  0  0  0  0  0
   12.0839  -18.9821   25.7335 O   0  0  0  0  0  0  0  0  0  0  0  0
   10.2387  -19.3804   24.4840 O   0  0  0  0  0  0  0  0  0  0  0  0
  2  1  1  1
  2  3  1  0
  4  5  1  6
  4  2  1  0
  6  4  1  0
  7  6  2  0
  8  6  1  0
  9  8  1  0
  9 12  1  0
  9 10  1  1
 11 10  1  0
 12 18  1  0
 12 13  2  0
 15 16  1  6
 15 14  1  0
 17 15  1  0
 17 18  1  6
 19 17  1  0
 19 20  1  0
 21 19  2  0
M  END
$$$$
