TCV.pdb
     RDKit          3D

 21 20  0  0  1  0  0  0  0  0999 V2000
    8.8322  -12.6987   20.1890 C   0  0  0  0  0  0  0  0  0  0  0  0
    8.2674  -13.4836   19.0077 C   0  0  1  0  0  0  0  0  0  0  0  0
    8.8752  -13.0487   17.8287 O   0  0  0  0  0  0  0  0  0  0  0  0
    8.5124  -14.9538   19.2454 C   0  0  2  0  0  0  0  0  0  0  0  0
    7.9387  -15.6841   18.1303 N   0  0  0  0  0  0  0  0  0  0  0  0
    7.7945  -15.3328   20.5088 C   0  0  0  0  0  0  0  0  0  0  0  0
    6.5428  -15.3589   20.5953 O   0  0  0  0  0  0  0  0  0  0  0  0
    8.5217  -15.6848   21.6861 N   0  0  0  0  0  0  0  0  0  0  0  0
    7.8893  -16.0290   22.9351 C   0  0  1  0  0  0  0  0  0  0  0  0
    8.1692  -17.4640   23.2256 C   0  0  0  0  0  0  0  0  0  0  0  0
    7.4511  -17.8117   24.8749 S   0  0  0  0  0  0  0  0  0  0  0  0
    8.2940  -15.1043   24.0319 C   0  0  0  0  0  0  0  0  0  0  0  0
    9.5202  -14.9200   24.2104 O   0  0  0  0  0  0  0  0  0  0  0  0
    7.0144  -11.7292   27.4976 C   0  0  0  0  0  0  0  0  0  0  0  0
    6.6401  -12.6211   26.3475 C   0  0  1  0  0  0  0  0  0  0  0  0
    6.1675  -11.7982   25.1877 C   0  0  0  0  0  0  0  0  0  0  0  0
    7.7197  -13.6062   25.9867 C   0  0  2  0  0  0  0  0  0  0  0  0
    7.3903  -14.4312   24.8705 N   0  0  0  0  0  0  0  0  0  0  0  0
    8.0734  -14.3780   27.2013 C   0  0  0  0  0  0  0  0  0  0  0  0
    7.9329  -15.7565   27.2767 O   0  0  0  0  0  0  0  0  0  0  0  0
    8.5206  -13.7815   28.2140 O   0  0  0  0  0  0  0  0  0  0  0  0
  2  1  1  1
  2  3  1  0
  4  5  1  6
  4  2  1  0
  6  4  1  0
  7  6  2  0
  8  6  1  0
  9  8  1  0
  9 12  1  0
  9 10  1  1
 11 10  1  0
 12 18  1  0
 12 13  2  0
 15 16  1  6
 15 14  1  0
 17 15  1  0
 17 18  1  6
 19 17  1  0
 19 20  1  0
 21 19  2  0
M  END
$$$$
