TCV.pdb
     RDKit          3D

 21 20  0  0  1  0  0  0  0  0999 V2000
    6.5585  -20.4960   21.5320 C   0  0  0  0  0  0  0  0  0  0  0  0
    5.0719  -20.2786   21.2608 C   0  0  1  0  0  0  0  0  0  0  0  0
    4.5062  -21.4675   20.7973 O   0  0  0  0  0  0  0  0  0  0  0  0
    4.4129  -19.8142   22.5367 C   0  0  2  0  0  0  0  0  0  0  0  0
    2.9856  -19.7241   22.2903 N   0  0  0  0  0  0  0  0  0  0  0  0
    4.9495  -18.4471   22.8507 C   0  0  0  0  0  0  0  0  0  0  0  0
    4.5995  -17.4203   22.2198 O   0  0  0  0  0  0  0  0  0  0  0  0
    5.8992  -18.2572   23.8999 N   0  0  0  0  0  0  0  0  0  0  0  0
    6.5054  -16.9839   24.1992 C   0  0  1  0  0  0  0  0  0  0  0  0
    6.9412  -16.9926   25.6247 C   0  0  0  0  0  0  0  0  0  0  0  0
    7.7170  -15.3635   25.9426 S   0  0  0  0  0  0  0  0  0  0  0  0
    7.5970  -16.6531   23.2396 C   0  0  0  0  0  0  0  0  0  0  0  0
    8.4652  -17.5305   23.0260 O   0  0  0  0  0  0  0  0  0  0  0  0
    7.0372  -13.8885   20.1587 C   0  0  0  0  0  0  0  0  0  0  0  0
    8.3804  -13.8260   20.8298 C   0  0  1  0  0  0  0  0  0  0  0  0
    8.5003  -12.5648   21.6301 C   0  0  0  0  0  0  0  0  0  0  0  0
    8.7097  -15.0692   21.6121 C   0  0  2  0  0  0  0  0  0  0  0  0
    7.7097  -15.4263   22.5647 N   0  0  0  0  0  0  0  0  0  0  0  0
   10.0554  -14.9026   22.2103 C   0  0  0  0  0  0  0  0  0  0  0  0
   11.2079  -14.8159   21.4422 O   0  0  0  0  0  0  0  0  0  0  0  0
   10.1810  -14.8341   23.4596 O   0  0  0  0  0  0  0  0  0  0  0  0
  2  1  1  1
  2  3  1  0
  4  5  1  6
  4  2  1  0
  6  4  1  0
  7  6  2  0
  8  6  1  0
  9  8  1  0
  9 12  1  0
  9 10  1  1
 11 10  1  0
 12 18  1  0
 12 13  2  0
 15 16  1  1
 15 14  1  0
 17 15  1  0
 17 18  1  1
 19 17  1  0
 19 20  1  0
 21 19  2  0
M  END
$$$$
