TCV.pdb
     RDKit          3D

 21 20  0  0  1  0  0  0  0  0999 V2000
    8.9553  -12.6772   19.7840 C   0  0  0  0  0  0  0  0  0  0  0  0
    8.4278  -13.6300   18.7141 C   0  0  1  0  0  0  0  0  0  0  0  0
    9.1152  -13.4117   17.5190 O   0  0  0  0  0  0  0  0  0  0  0  0
    8.6050  -15.0471   19.2020 C   0  0  2  0  0  0  0  0  0  0  0  0
    8.2053  -15.9381   18.1286 N   0  0  0  0  0  0  0  0  0  0  0  0
    7.6862  -15.2394   20.3744 C   0  0  0  0  0  0  0  0  0  0  0  0
    6.5028  -15.6378   20.2498 O   0  0  0  0  0  0  0  0  0  0  0  0
    8.1310  -14.9702   21.7042 N   0  0  0  0  0  0  0  0  0  0  0  0
    7.4286  -15.4182   22.8808 C   0  0  1  0  0  0  0  0  0  0  0  0
    7.3168  -16.9036   22.8262 C   0  0  0  0  0  0  0  0  0  0  0  0
    6.5661  -17.4285   24.4130 S   0  0  0  0  0  0  0  0  0  0  0  0
    8.0632  -14.9093   24.1298 C   0  0  0  0  0  0  0  0  0  0  0  0
    9.2831  -15.1414   24.2951 O   0  0  0  0  0  0  0  0  0  0  0  0
    6.7928  -11.3949   26.0115 C   0  0  0  0  0  0  0  0  0  0  0  0
    7.0843  -12.5506   26.9267 C   0  0  1  0  0  0  0  0  0  0  0  0
    5.8091  -13.0915   27.4988 C   0  0  0  0  0  0  0  0  0  0  0  0
    7.9538  -13.6032   26.2926 C   0  0  2  0  0  0  0  0  0  0  0  0
    7.3814  -14.1897   25.1250 N   0  0  0  0  0  0  0  0  0  0  0  0
    8.3161  -14.5977   27.3300 C   0  0  0  0  0  0  0  0  0  0  0  0
    9.1025  -14.2780   28.4278 O   0  0  0  0  0  0  0  0  0  0  0  0
    7.9057  -15.7823   27.2321 O   0  0  0  0  0  0  0  0  0  0  0  0
  2  1  1  1
  2  3  1  0
  4  5  1  6
  4  2  1  0
  6  4  1  0
  7  6  2  0
  8  6  1  0
  9  8  1  0
  9 12  1  0
  9 10  1  1
 11 10  1  0
 12 18  1  0
 12 13  2  0
 15 16  1  6
 15 14  1  0
 17 15  1  0
 17 18  1  6
 19 17  1  0
 19 20  1  0
 21 19  2  0
M  END
$$$$
