TCV.pdb
     RDKit          3D

 21 20  0  0  1  0  0  0  0  0999 V2000
    6.7133  -16.7330   22.2996 C   0  0  0  0  0  0  0  0  0  0  0  0
    7.6373  -16.1026   21.2606 C   0  0  1  0  0  0  0  0  0  0  0  0
    7.2884  -16.5624   19.9897 O   0  0  0  0  0  0  0  0  0  0  0  0
    7.5165  -14.6013   21.3570 C   0  0  2  0  0  0  0  0  0  0  0  0
    8.3217  -14.0234   20.2970 N   0  0  0  0  0  0  0  0  0  0  0  0
    8.0769  -14.1876   22.6875 C   0  0  0  0  0  0  0  0  0  0  0  0
    9.2942  -14.2943   22.9730 O   0  0  0  0  0  0  0  0  0  0  0  0
    7.2300  -13.6461   23.7016 N   0  0  0  0  0  0  0  0  0  0  0  0
    7.6693  -13.3985   25.0522 C   0  0  1  0  0  0  0  0  0  0  0  0
    6.6211  -12.6009   25.7502 C   0  0  0  0  0  0  0  0  0  0  0  0
    7.2682  -12.2434   27.4266 S   0  0  0  0  0  0  0  0  0  0  0  0
    8.0304  -14.6620   25.7557 C   0  0  0  0  0  0  0  0  0  0  0  0
    7.1384  -15.5337   25.8738 O   0  0  0  0  0  0  0  0  0  0  0  0
   10.2139  -17.5068   25.0724 C   0  0  0  0  0  0  0  0  0  0  0  0
   10.6907  -16.9530   26.3856 C   0  0  1  0  0  0  0  0  0  0  0  0
   12.0291  -16.3006   26.2162 C   0  0  0  0  0  0  0  0  0  0  0  0
    9.6732  -16.0732   27.0614 C   0  0  2  0  0  0  0  0  0  0  0  0
    9.3012  -14.9329   26.2893 N   0  0  0  0  0  0  0  0  0  0  0  0
   10.1772  -15.7273   28.4115 C   0  0  0  0  0  0  0  0  0  0  0  0
   10.3906  -14.4169   28.8151 O   0  0  0  0  0  0  0  0  0  0  0  0
   10.4271  -16.6403   29.2394 O   0  0  0  0  0  0  0  0  0  0  0  0
  2  1  1  1
  2  3  1  0
  4  5  1  6
  4  2  1  0
  6  4  1  0
  7  6  2  0
  8  6  1  0
  9  8  1  0
  9 12  1  0
  9 10  1  1
 11 10  1  0
 12 18  1  0
 12 13  2  0
 15 16  1  6
 15 14  1  0
 17 15  1  0
 17 18  1  6
 19 17  1  0
 19 20  1  0
 21 19  2  0
M  END
$$$$
