TCV.pdb
     RDKit          3D

 21 20  0  0  1  0  0  0  0  0999 V2000
    8.7149  -12.6241   19.7816 C   0  0  0  0  0  0  0  0  0  0  0  0
    8.3507  -13.5484   18.6224 C   0  0  1  0  0  0  0  0  0  0  0  0
    9.1202  -13.2175   17.5058 O   0  0  0  0  0  0  0  0  0  0  0  0
    8.5871  -14.9756   19.0525 C   0  0  2  0  0  0  0  0  0  0  0  0
    8.2047  -15.8391   17.9506 N   0  0  0  0  0  0  0  0  0  0  0  0
    7.6933  -15.2469   20.2286 C   0  0  0  0  0  0  0  0  0  0  0  0
    6.5293  -15.6992   20.1051 O   0  0  0  0  0  0  0  0  0  0  0  0
    8.1408  -14.9951   21.5609 N   0  0  0  0  0  0  0  0  0  0  0  0
    7.3606  -15.3095   22.7317 C   0  0  1  0  0  0  0  0  0  0  0  0
    6.9745  -16.7479   22.6689 C   0  0  0  0  0  0  0  0  0  0  0  0
    8.4685  -17.7087   23.1179 S   0  0  0  0  0  0  0  0  0  0  0  0
    8.0717  -14.9329   23.9864 C   0  0  0  0  0  0  0  0  0  0  0  0
    9.3120  -15.1055   24.0227 O   0  0  0  0  0  0  0  0  0  0  0  0
    7.3498  -11.4405   25.8940 C   0  0  0  0  0  0  0  0  0  0  0  0
    7.3465  -12.6270   26.8164 C   0  0  1  0  0  0  0  0  0  0  0  0
    5.9473  -12.9384   27.2532 C   0  0  0  0  0  0  0  0  0  0  0  0
    8.0806  -13.8152   26.2549 C   0  0  2  0  0  0  0  0  0  0  0  0
    7.4401  -14.3992   25.1219 N   0  0  0  0  0  0  0  0  0  0  0  0
    8.3192  -14.7798   27.3545 C   0  0  0  0  0  0  0  0  0  0  0  0
    9.0967  -14.4716   28.4619 O   0  0  0  0  0  0  0  0  0  0  0  0
    7.8066  -15.9270   27.3032 O   0  0  0  0  0  0  0  0  0  0  0  0
  2  1  1  1
  2  3  1  0
  4  5  1  6
  4  2  1  0
  6  4  1  0
  7  6  2  0
  8  6  1  0
  9  8  1  0
  9 12  1  0
  9 10  1  1
 11 10  1  0
 12 18  1  0
 12 13  2  0
 15 16  1  6
 15 14  1  0
 17 15  1  0
 17 18  1  6
 19 17  1  0
 19 20  1  0
 21 19  2  0
M  END
$$$$
