TCV.pdb
     RDKit          3D

 21 20  0  0  1  0  0  0  0  0999 V2000
    7.1572  -17.3319   20.3187 C   0  0  0  0  0  0  0  0  0  0  0  0
    7.6740  -16.7283   21.6222 C   0  0  1  0  0  0  0  0  0  0  0  0
    8.8516  -17.3764   21.9987 O   0  0  0  0  0  0  0  0  0  0  0  0
    7.8998  -15.2509   21.4122 C   0  0  2  0  0  0  0  0  0  0  0  0
    9.0008  -15.0996   20.4790 N   0  0  0  0  0  0  0  0  0  0  0  0
    8.2878  -14.6604   22.7374 C   0  0  0  0  0  0  0  0  0  0  0  0
    9.4771  -14.6104   23.1349 O   0  0  0  0  0  0  0  0  0  0  0  0
    7.2994  -14.1222   23.6161 N   0  0  0  0  0  0  0  0  0  0  0  0
    7.5965  -13.6359   24.9403 C   0  0  1  0  0  0  0  0  0  0  0  0
    6.3995  -12.9132   25.4568 C   0  0  0  0  0  0  0  0  0  0  0  0
    6.8133  -12.3668   27.1559 S   0  0  0  0  0  0  0  0  0  0  0  0
    8.0710  -14.7286   25.8361 C   0  0  0  0  0  0  0  0  0  0  0  0
    7.3034  -15.7017   26.0186 O   0  0  0  0  0  0  0  0  0  0  0  0
   11.3423  -16.7821   25.6604 C   0  0  0  0  0  0  0  0  0  0  0  0
   11.2163  -16.1874   27.0347 C   0  0  1  0  0  0  0  0  0  0  0  0
   12.2470  -15.1174   27.2315 C   0  0  0  0  0  0  0  0  0  0  0  0
    9.8159  -15.7417   27.3608 C   0  0  2  0  0  0  0  0  0  0  0  0
    9.3181  -14.7338   26.4826 N   0  0  0  0  0  0  0  0  0  0  0  0
    9.7710  -15.3484   28.7889 C   0  0  0  0  0  0  0  0  0  0  0  0
   10.0161  -16.2462   29.8183 O   0  0  0  0  0  0  0  0  0  0  0  0
    9.5031  -14.1605   29.1030 O   0  0  0  0  0  0  0  0  0  0  0  0
  2  1  1  6
  2  3  1  0
  4  5  1  6
  4  2  1  0
  6  4  1  0
  7  6  2  0
  8  6  1  0
  9  8  1  0
  9 12  1  0
  9 10  1  1
 11 10  1  0
 12 18  1  0
 12 13  2  0
 15 16  1  6
 15 14  1  0
 17 15  1  0
 17 18  1  6
 19 17  1  0
 19 20  1  0
 21 19  2  0
M  END
$$$$
