TCV.pdb
     RDKit          3D

 21 20  0  0  1  0  0  0  0  0999 V2000
    6.5171  -16.5359   20.2727 C   0  0  0  0  0  0  0  0  0  0  0  0
    7.1789  -16.1312   21.5876 C   0  0  1  0  0  0  0  0  0  0  0  0
    8.2668  -16.9696   21.8366 O   0  0  0  0  0  0  0  0  0  0  0  0
    7.6062  -14.6872   21.4868 C   0  0  2  0  0  0  0  0  0  0  0  0
    8.6557  -14.6049   20.4879 N   0  0  0  0  0  0  0  0  0  0  0  0
    8.1609  -14.2860   22.8234 C   0  0  0  0  0  0  0  0  0  0  0  0
    9.3747  -14.4083   23.1179 O   0  0  0  0  0  0  0  0  0  0  0  0
    7.3125  -13.7393   23.8334 N   0  0  0  0  0  0  0  0  0  0  0  0
    7.7550  -13.4669   25.1782 C   0  0  1  0  0  0  0  0  0  0  0  0
    6.6897  -12.6936   25.8776 C   0  0  0  0  0  0  0  0  0  0  0  0
    7.3097  -12.3653   27.5701 S   0  0  0  0  0  0  0  0  0  0  0  0
    8.1576  -14.7132   25.8898 C   0  0  0  0  0  0  0  0  0  0  0  0
    7.3024  -15.6228   25.9928 O   0  0  0  0  0  0  0  0  0  0  0  0
   12.2333  -15.8250   26.4062 C   0  0  0  0  0  0  0  0  0  0  0  0
   11.0639  -16.7535   26.5760 C   0  0  1  0  0  0  0  0  0  0  0  0
   11.4867  -17.9879   27.3131 C   0  0  0  0  0  0  0  0  0  0  0  0
    9.8557  -16.0811   27.1709 C   0  0  2  0  0  0  0  0  0  0  0  0
    9.4290  -14.9283   26.4470 N   0  0  0  0  0  0  0  0  0  0  0  0
   10.1304  -15.8059   28.6010 C   0  0  0  0  0  0  0  0  0  0  0  0
   10.3068  -16.8171   29.5349 O   0  0  0  0  0  0  0  0  0  0  0  0
   10.2116  -14.6180   29.0057 O   0  0  0  0  0  0  0  0  0  0  0  0
  2  1  1  6
  2  3  1  0
  4  5  1  6
  4  2  1  0
  6  4  1  0
  7  6  2  0
  8  6  1  0
  9  8  1  0
  9 12  1  0
  9 10  1  1
 11 10  1  0
 12 18  1  0
 12 13  2  0
 15 16  1  1
 15 14  1  0
 17 15  1  0
 17 18  1  6
 19 17  1  0
 19 20  1  0
 21 19  2  0
M  END
$$$$
