TCV.pdb
     RDKit          3D

 21 20  0  0  1  0  0  0  0  0999 V2000
    7.0219  -17.2665   22.3235 C   0  0  0  0  0  0  0  0  0  0  0  0
    7.9976  -16.6066   21.3523 C   0  0  1  0  0  0  0  0  0  0  0  0
    7.7930  -17.1183   20.0698 O   0  0  0  0  0  0  0  0  0  0  0  0
    7.7806  -15.1136   21.3922 C   0  0  2  0  0  0  0  0  0  0  0  0
    8.5952  -14.5198   20.3483 N   0  0  0  0  0  0  0  0  0  0  0  0
    8.2546  -14.6238   22.7304 C   0  0  0  0  0  0  0  0  0  0  0  0
    9.4615  -14.6510   23.0735 O   0  0  0  0  0  0  0  0  0  0  0  0
    7.3327  -14.0979   23.6855 N   0  0  0  0  0  0  0  0  0  0  0  0
    7.7126  -13.7007   25.0183 C   0  0  1  0  0  0  0  0  0  0  0  0
    6.5636  -12.9850   25.6425 C   0  0  0  0  0  0  0  0  0  0  0  0
    7.0799  -12.5578   27.3477 S   0  0  0  0  0  0  0  0  0  0  0  0
    8.2065  -14.8568   25.8191 C   0  0  0  0  0  0  0  0  0  0  0  0
    7.4612  -15.8597   25.9079 O   0  0  0  0  0  0  0  0  0  0  0  0
   12.3564  -15.4154   26.7055 C   0  0  0  0  0  0  0  0  0  0  0  0
   11.2958  -16.4784   26.7647 C   0  0  1  0  0  0  0  0  0  0  0  0
   11.7972  -17.6671   27.5272 C   0  0  0  0  0  0  0  0  0  0  0  0
    9.9690  -15.9641   27.2555 C   0  0  2  0  0  0  0  0  0  0  0  0
    9.4484  -14.8898   26.4746 N   0  0  0  0  0  0  0  0  0  0  0  0
   10.0990  -15.6330   28.6942 C   0  0  0  0  0  0  0  0  0  0  0  0
    9.9323  -14.3444   29.1813 O   0  0  0  0  0  0  0  0  0  0  0  0
   10.3696  -16.5391   29.5231 O   0  0  0  0  0  0  0  0  0  0  0  0
  2  1  1  1
  2  3  1  0
  4  5  1  6
  4  2  1  0
  6  4  1  0
  7  6  2  0
  8  6  1  0
  9  8  1  0
  9 12  1  0
  9 10  1  1
 11 10  1  0
 12 18  1  0
 12 13  2  0
 15 16  1  1
 15 14  1  0
 17 15  1  0
 17 18  1  6
 19 17  1  0
 19 20  1  0
 21 19  2  0
M  END
$$$$
