TCV.pdb
     RDKit          3D

 21 20  0  0  1  0  0  0  0  0999 V2000
    6.2595  -16.3384   21.7180 C   0  0  0  0  0  0  0  0  0  0  0  0
    7.1905  -15.6017   20.7582 C   0  0  1  0  0  0  0  0  0  0  0  0
    6.6886  -15.6985   19.4593 O   0  0  0  0  0  0  0  0  0  0  0  0
    7.2993  -14.1634   21.2024 C   0  0  2  0  0  0  0  0  0  0  0  0
    8.0079  -13.4330   20.1677 N   0  0  0  0  0  0  0  0  0  0  0  0
    8.1079  -14.1413   22.4677 C   0  0  0  0  0  0  0  0  0  0  0  0
    9.3470  -14.3399   22.4837 O   0  0  0  0  0  0  0  0  0  0  0  0
    7.4869  -13.8894   23.7285 N   0  0  0  0  0  0  0  0  0  0  0  0
    8.1743  -14.0142   24.9896 C   0  0  1  0  0  0  0  0  0  0  0  0
    7.4929  -13.1402   25.9865 C   0  0  0  0  0  0  0  0  0  0  0  0
    5.7748  -13.7592   26.1342 S   0  0  0  0  0  0  0  0  0  0  0  0
    8.2886  -15.4374   25.4175 C   0  0  0  0  0  0  0  0  0  0  0  0
    7.4266  -16.2406   24.9918 O   0  0  0  0  0  0  0  0  0  0  0  0
    9.8222  -17.9225   24.1243 C   0  0  0  0  0  0  0  0  0  0  0  0
   10.4288  -17.9681   25.4984 C   0  0  1  0  0  0  0  0  0  0  0  0
   11.8381  -17.4601   25.4586 C   0  0  0  0  0  0  0  0  0  0  0  0
    9.5770  -17.2993   26.5440 C   0  0  2  0  0  0  0  0  0  0  0  0
    9.2975  -15.9291   26.2622 N   0  0  0  0  0  0  0  0  0  0  0  0
   10.2113  -17.5074   27.8671 C   0  0  0  0  0  0  0  0  0  0  0  0
   10.4972  -18.7699   28.3672 O   0  0  0  0  0  0  0  0  0  0  0  0
   10.5111  -16.5162   28.5806 O   0  0  0  0  0  0  0  0  0  0  0  0
  2  1  1  1
  2  3  1  0
  4  5  1  6
  4  2  1  0
  6  4  1  0
  7  6  2  0
  8  6  1  0
  9  8  1  0
  9 12  1  0
  9 10  1  1
 11 10  1  0
 12 18  1  0
 12 13  2  0
 15 16  1  6
 15 14  1  0
 17 15  1  0
 17 18  1  6
 19 17  1  0
 19 20  1  0
 21 19  2  0
M  END
$$$$
