TCV.pdb
     RDKit          3D

 21 20  0  0  1  0  0  0  0  0999 V2000
   13.5628  -23.1880   13.9337 C   0  0  0  0  0  0  0  0  0  0  0  0
   13.4633  -21.8387   13.2265 C   0  0  1  0  0  0  0  0  0  0  0  0
   13.2749  -22.0446   11.8588 O   0  0  0  0  0  0  0  0  0  0  0  0
   12.3189  -21.0620   13.8307 C   0  0  2  0  0  0  0  0  0  0  0  0
   12.1224  -19.8681   13.0295 N   0  0  0  0  0  0  0  0  0  0  0  0
   12.7263  -20.6653   15.2207 C   0  0  0  0  0  0  0  0  0  0  0  0
   13.4838  -19.6922   15.4532 O   0  0  0  0  0  0  0  0  0  0  0  0
   12.2594  -21.3946   16.3561 N   0  0  0  0  0  0  0  0  0  0  0  0
   12.6919  -21.1239   17.7044 C   0  0  1  0  0  0  0  0  0  0  0  0
   11.5582  -20.5040   18.4477 C   0  0  0  0  0  0  0  0  0  0  0  0
   10.2850  -21.8077   18.6385 S   0  0  0  0  0  0  0  0  0  0  0  0
   13.2462  -22.3418   18.3612 C   0  0  0  0  0  0  0  0  0  0  0  0
   12.5937  -23.4056   18.2524 O   0  0  0  0  0  0  0  0  0  0  0  0
   16.3966  -24.3362   17.7367 C   0  0  0  0  0  0  0  0  0  0  0  0
   16.4211  -23.8256   19.1499 C   0  0  1  0  0  0  0  0  0  0  0  0
   17.3878  -22.6869   19.2714 C   0  0  0  0  0  0  0  0  0  0  0  0
   15.0513  -23.5128   19.6901 C   0  0  2  0  0  0  0  0  0  0  0  0
   14.4475  -22.3688   19.0886 N   0  0  0  0  0  0  0  0  0  0  0  0
   15.1409  -23.4195   21.1665 C   0  0  0  0  0  0  0  0  0  0  0  0
   15.3849  -24.5239   21.9705 O   0  0  0  0  0  0  0  0  0  0  0  0
   14.9941  -22.3067   21.7335 O   0  0  0  0  0  0  0  0  0  0  0  0
  2  1  1  1
  2  3  1  0
  4  5  1  6
  4  2  1  0
  6  4  1  0
  7  6  2  0
  8  6  1  0
  9  8  1  0
  9 12  1  0
  9 10  1  1
 11 10  1  0
 12 18  1  0
 12 13  2  0
 15 16  1  6
 15 14  1  0
 17 15  1  0
 17 18  1  6
 19 17  1  0
 19 20  1  0
 21 19  2  0
M  END
$$$$
