TCV.pdb
     RDKit          3D

 21 20  0  0  1  0  0  0  0  0999 V2000
    8.0428  -17.6916   20.0355 C   0  0  0  0  0  0  0  0  0  0  0  0
    8.3555  -17.0773   21.3977 C   0  0  1  0  0  0  0  0  0  0  0  0
    9.4673  -17.7153   21.9501 O   0  0  0  0  0  0  0  0  0  0  0  0
    8.6014  -15.5996   21.2142 C   0  0  2  0  0  0  0  0  0  0  0  0
    9.8236  -15.4462   20.4469 N   0  0  0  0  0  0  0  0  0  0  0  0
    8.7934  -15.0009   22.5781 C   0  0  0  0  0  0  0  0  0  0  0  0
    9.9252  -14.8497   23.0987 O   0  0  0  0  0  0  0  0  0  0  0  0
    7.6734  -14.5719   23.3530 N   0  0  0  0  0  0  0  0  0  0  0  0
    7.7925  -14.0157   24.6777 C   0  0  1  0  0  0  0  0  0  0  0  0
    6.4614  -13.4844   25.0875 C   0  0  0  0  0  0  0  0  0  0  0  0
    6.6664  -12.8139   26.7802 S   0  0  0  0  0  0  0  0  0  0  0  0
    8.3688  -14.9982   25.6391 C   0  0  0  0  0  0  0  0  0  0  0  0
    7.8574  -16.1412   25.6747 O   0  0  0  0  0  0  0  0  0  0  0  0
   12.3901  -14.9788   26.7619 C   0  0  0  0  0  0  0  0  0  0  0  0
   11.4145  -15.1885   27.8856 C   0  0  1  0  0  0  0  0  0  0  0  0
   11.3781  -13.9800   28.7709 C   0  0  0  0  0  0  0  0  0  0  0  0
   10.0550  -15.6310   27.4144 C   0  0  2  0  0  0  0  0  0  0  0  0
    9.4434  -14.7223   26.5006 N   0  0  0  0  0  0  0  0  0  0  0  0
    9.2183  -15.9176   28.6036 C   0  0  0  0  0  0  0  0  0  0  0  0
    9.5119  -16.9411   29.4935 O   0  0  0  0  0  0  0  0  0  0  0  0
    8.1990  -15.2185   28.8351 O   0  0  0  0  0  0  0  0  0  0  0  0
  2  1  1  6
  2  3  1  0
  4  5  1  6
  4  2  1  0
  6  4  1  0
  7  6  2  0
  8  6  1  0
  9  8  1  0
  9 12  1  0
  9 10  1  1
 11 10  1  0
 12 18  1  0
 12 13  2  0
 15 16  1  6
 15 14  1  0
 17 15  1  0
 17 18  1  1
 19 17  1  0
 19 20  1  0
 21 19  2  0
M  END
$$$$
