SQF.pdb
     RDKit          3D

 27 27  0  0  1  0  0  0  0  0999 V2000
   26.9861  -17.4993  -16.5961 O   0  0  0  0  0  0  0  0  0  0  0  0
   28.0685  -17.7564  -15.7557 C   0  0  0  0  0  0  0  0  0  0  0  0
   28.4072  -19.2326  -15.8488 C   0  0  2  0  0  0  0  0  0  0  0  0
   28.6832  -19.6284  -17.2157 N   0  0  0  0  0  0  0  0  0  0  0  0
   27.2906  -20.0423  -15.3403 C   0  0  0  0  0  0  0  0  0  0  0  0
   26.6003  -20.7570  -16.1462 O   0  0  0  0  0  0  0  0  0  0  0  0
   26.2720  -21.6060   -9.3605 N   0  0  0  0  0  0  0  0  0  0  0  0
   25.9422  -20.3071   -9.8027 C   0  0  0  0  0  0  0  0  0  0  0  0
   25.8223  -19.3860   -8.9702 O   0  0  0  0  0  0  0  0  0  0  0  0
   25.7205  -19.9552  -11.2538 C   0  0  0  0  0  0  0  0  0  0  0  0
   25.7749  -21.1868  -12.1109 C   0  0  0  0  0  0  0  0  0  0  0  0
   25.7069  -20.8441  -13.5465 C   0  0  2  0  0  0  0  0  0  0  0  0
   26.8887  -20.1124  -13.9993 N   0  0  0  0  0  0  0  0  0  0  0  0
   24.5367  -20.0129  -13.8892 C   0  0  0  0  0  0  0  0  0  0  0  0
   24.5501  -18.7653  -14.0661 O   0  0  0  0  0  0  0  0  0  0  0  0
   23.2234  -20.6050  -14.0545 N   0  0  0  0  0  0  0  0  0  0  0  0
   22.1126  -19.8729  -14.5816 C   0  0  1  0  0  0  0  0  0  0  0  0
   22.4403  -19.3798  -15.9898 C   0  0  0  0  0  0  0  0  0  0  0  0
   21.3069  -18.6508  -16.5984 C   0  0  0  0  0  0  0  0  0  0  0  0
   20.4260  -19.3082  -17.4280 C   0  0  0  0  0  0  0  0  0  0  0  0
   19.3642  -18.6184  -17.9961 C   0  0  0  0  0  0  0  0  0  0  0  0
   19.1874  -17.2909  -17.7374 C   0  0  0  0  0  0  0  0  0  0  0  0
   20.0721  -16.6388  -16.9065 C   0  0  0  0  0  0  0  0  0  0  0  0
   21.1274  -17.3017  -16.3352 C   0  0  0  0  0  0  0  0  0  0  0  0
   20.8627  -20.6990  -14.5917 C   0  0  0  0  0  0  0  0  0  0  0  0
   19.6441  -20.1695  -14.1961 O   0  0  0  0  0  0  0  0  0  0  0  0
   20.8737  -21.9008  -14.9589 O   0  0  0  0  0  0  0  0  0  0  0  0
  2  1  1  0
  3  2  1  0
  3  4  1  6
  5 13  1  0
  5  3  1  0
  6  5  2  0
  7  8  1  0
  8 10  1  0
  9  8  2  0
 10 11  1  0
 12 11  1  1
 12 14  1  0
 12 13  1  0
 14 16  1  0
 15 14  2  0
 16 17  1  0
 17 25  1  0
 17 18  1  6
 19 24  2  0
 19 18  1  0
 20 19  1  0
 21 22  1  0
 21 20  2  0
 22 23  2  0
 23 24  1  0
 25 26  1  0
 27 25  2  0
M  END
$$$$
