SQF.pdb
     RDKit          3D

 27 27  0  0  1  0  0  0  0  0999 V2000
   12.7366   -6.5830  -16.3226 O   0  0  0  0  0  0  0  0  0  0  0  0
   12.6454   -7.7035  -17.1473 C   0  0  0  0  0  0  0  0  0  0  0  0
   12.6331   -8.9428  -16.2719 C   0  0  2  0  0  0  0  0  0  0  0  0
   11.5447   -8.9059  -15.3152 N   0  0  0  0  0  0  0  0  0  0  0  0
   13.9016   -9.0581  -15.5379 C   0  0  0  0  0  0  0  0  0  0  0  0
   14.0671   -8.4171  -14.4431 O   0  0  0  0  0  0  0  0  0  0  0  0
   19.1452  -12.8113  -15.7389 N   0  0  0  0  0  0  0  0  0  0  0  0
   18.3204  -12.4766  -16.8341 C   0  0  0  0  0  0  0  0  0  0  0  0
   18.6635  -12.8087  -17.9863 O   0  0  0  0  0  0  0  0  0  0  0  0
   17.0191  -11.7246  -16.6943 C   0  0  0  0  0  0  0  0  0  0  0  0
   16.7548  -11.3878  -15.2551 C   0  0  0  0  0  0  0  0  0  0  0  0
   16.1929  -10.0283  -15.1173 C   0  0  2  0  0  0  0  0  0  0  0  0
   14.9975   -9.8359  -15.9364 N   0  0  0  0  0  0  0  0  0  0  0  0
   17.1439   -8.9666  -15.4994 C   0  0  0  0  0  0  0  0  0  0  0  0
   17.1184   -8.3122  -16.5760 O   0  0  0  0  0  0  0  0  0  0  0  0
   18.2290   -8.5836  -14.6170 N   0  0  0  0  0  0  0  0  0  0  0  0
   19.1886   -7.5827  -14.9707 C   0  0  1  0  0  0  0  0  0  0  0  0
   19.5607   -6.7644  -13.7355 C   0  0  0  0  0  0  0  0  0  0  0  0
   20.5095   -5.6770  -14.0576 C   0  0  0  0  0  0  0  0  0  0  0  0
   20.0414   -4.4442  -14.4543 C   0  0  0  0  0  0  0  0  0  0  0  0
   20.9371   -3.4278  -14.7551 C   0  0  0  0  0  0  0  0  0  0  0  0
   22.2807   -3.6427  -14.6601 C   0  0  0  0  0  0  0  0  0  0  0  0
   22.7428   -4.8783  -14.2626 C   0  0  0  0  0  0  0  0  0  0  0  0
   21.8750   -5.8957  -13.9609 C   0  0  0  0  0  0  0  0  0  0  0  0
   20.4124   -8.1864  -15.5892 C   0  0  0  0  0  0  0  0  0  0  0  0
   21.1078   -7.5359  -16.5968 O   0  0  0  0  0  0  0  0  0  0  0  0
   20.8524   -9.3033  -15.2175 O   0  0  0  0  0  0  0  0  0  0  0  0
  2  1  1  0
  3  2  1  0
  3  4  1  1
  5 13  1  0
  5  3  1  0
  6  5  2  0
  7  8  1  0
  8 10  1  0
  9  8  2  0
 10 11  1  0
 12 11  1  6
 12 14  1  0
 12 13  1  0
 14 16  1  0
 15 14  2  0
 16 17  1  0
 17 25  1  0
 17 18  1  1
 19 24  2  0
 19 18  1  0
 20 19  1  0
 21 22  1  0
 21 20  2  0
 22 23  2  0
 23 24  1  0
 25 26  1  0
 27 25  2  0
M  END
$$$$
