SQF.pdb
     RDKit          3D

 27 27  0  0  1  0  0  0  0  0999 V2000
   29.0201  -17.1088  -17.5942 O   0  0  0  0  0  0  0  0  0  0  0  0
   27.9979  -18.0386  -17.4086 C   0  0  0  0  0  0  0  0  0  0  0  0
   28.2955  -19.2550  -18.2655 C   0  0  2  0  0  0  0  0  0  0  0  0
   28.0189  -18.9985  -19.6652 N   0  0  0  0  0  0  0  0  0  0  0  0
   27.4806  -20.3969  -17.8261 C   0  0  0  0  0  0  0  0  0  0  0  0
   26.2049  -20.3392  -17.9036 O   0  0  0  0  0  0  0  0  0  0  0  0
   29.0240  -26.4908  -17.5704 N   0  0  0  0  0  0  0  0  0  0  0  0
   27.7191  -26.2465  -18.0489 C   0  0  0  0  0  0  0  0  0  0  0  0
   27.1191  -27.1384  -18.6815 O   0  0  0  0  0  0  0  0  0  0  0  0
   26.9876  -24.9430  -17.8378 C   0  0  0  0  0  0  0  0  0  0  0  0
   27.8026  -24.0109  -16.9883 C   0  0  0  0  0  0  0  0  0  0  0  0
   27.1404  -22.6977  -16.8467 C   0  0  2  0  0  0  0  0  0  0  0  0
   27.9853  -21.5972  -17.3070 N   0  0  0  0  0  0  0  0  0  0  0  0
   26.7607  -22.3871  -15.4549 C   0  0  0  0  0  0  0  0  0  0  0  0
   27.5602  -22.1067  -14.5220 O   0  0  0  0  0  0  0  0  0  0  0  0
   25.3702  -22.3829  -15.0438 N   0  0  0  0  0  0  0  0  0  0  0  0
   24.9739  -22.2079  -13.6799 C   0  0  1  0  0  0  0  0  0  0  0  0
   25.6096  -20.9384  -13.1160 C   0  0  0  0  0  0  0  0  0  0  0  0
   25.2504  -20.7228  -11.6980 C   0  0  0  0  0  0  0  0  0  0  0  0
   24.0478  -20.1379  -11.3694 C   0  0  0  0  0  0  0  0  0  0  0  0
   23.7164  -19.9382  -10.0366 C   0  0  0  0  0  0  0  0  0  0  0  0
   24.5762  -20.3185   -9.0483 C   0  0  0  0  0  0  0  0  0  0  0  0
   25.7779  -20.9032   -9.3835 C   0  0  0  0  0  0  0  0  0  0  0  0
   26.1243  -21.1093  -10.6938 C   0  0  0  0  0  0  0  0  0  0  0  0
   23.4830  -22.1551  -13.5415 C   0  0  0  0  0  0  0  0  0  0  0  0
   22.8362  -22.7489  -12.4686 O   0  0  0  0  0  0  0  0  0  0  0  0
   22.7655  -21.5714  -14.3921 O   0  0  0  0  0  0  0  0  0  0  0  0
  2  1  1  0
  3  2  1  0
  3  4  1  6
  5 13  1  0
  5  3  1  0
  6  5  2  0
  7  8  1  0
  8 10  1  0
  9  8  2  0
 10 11  1  0
 12 11  1  1
 12 14  1  0
 12 13  1  0
 14 16  1  0
 15 14  2  0
 16 17  1  0
 17 25  1  0
 17 18  1  6
 19 24  2  0
 19 18  1  0
 20 19  1  0
 21 22  1  0
 21 20  2  0
 22 23  2  0
 23 24  1  0
 25 26  1  0
 27 25  2  0
M  END
$$$$
