SQF.pdb
     RDKit          3D

 27 27  0  0  1  0  0  0  0  0999 V2000
   23.3119  -14.6108  -17.3575 O   0  0  0  0  0  0  0  0  0  0  0  0
   23.2532  -13.2184  -17.3991 C   0  0  0  0  0  0  0  0  0  0  0  0
   22.5735  -12.8061  -18.6915 C   0  0  2  0  0  0  0  0  0  0  0  0
   23.4309  -13.0335  -19.8380 N   0  0  0  0  0  0  0  0  0  0  0  0
   22.2175  -11.3805  -18.6452 C   0  0  0  0  0  0  0  0  0  0  0  0
   22.8768  -10.5341  -19.3421 O   0  0  0  0  0  0  0  0  0  0  0  0
   17.4008  -11.1722  -18.7213 N   0  0  0  0  0  0  0  0  0  0  0  0
   17.9014  -10.3569  -19.7586 C   0  0  0  0  0  0  0  0  0  0  0  0
   17.4513  -10.4870  -20.9146 O   0  0  0  0  0  0  0  0  0  0  0  0
   18.9722   -9.3134  -19.5514 C   0  0  0  0  0  0  0  0  0  0  0  0
   19.3534   -9.2274  -18.1016 C   0  0  0  0  0  0  0  0  0  0  0  0
   20.8068   -9.4187  -17.9173 C   0  0  2  0  0  0  0  0  0  0  0  0
   21.1804  -10.8315  -17.8785 N   0  0  0  0  0  0  0  0  0  0  0  0
   21.3184   -8.8108  -16.6737 C   0  0  0  0  0  0  0  0  0  0  0  0
   21.1578   -9.2721  -15.5121 O   0  0  0  0  0  0  0  0  0  0  0  0
   22.0801   -7.5773  -16.7045 N   0  0  0  0  0  0  0  0  0  0  0  0
   22.5162   -6.9150  -15.5133 C   0  0  1  0  0  0  0  0  0  0  0  0
   24.0232   -6.6736  -15.5786 C   0  0  0  0  0  0  0  0  0  0  0  0
   24.7816   -7.9378  -15.6928 C   0  0  0  0  0  0  0  0  0  0  0  0
   25.3651   -8.2896  -16.8895 C   0  0  0  0  0  0  0  0  0  0  0  0
   26.0756   -9.4775  -16.9903 C   0  0  0  0  0  0  0  0  0  0  0  0
   26.1997  -10.3002  -15.9094 C   0  0  0  0  0  0  0  0  0  0  0  0
   25.6135   -9.9425  -14.7148 C   0  0  0  0  0  0  0  0  0  0  0  0
   24.9075   -8.7737  -14.5941 C   0  0  0  0  0  0  0  0  0  0  0  0
   21.7860   -5.6241  -15.3014 C   0  0  0  0  0  0  0  0  0  0  0  0
   21.9153   -4.9066  -14.1221 O   0  0  0  0  0  0  0  0  0  0  0  0
   21.0304   -5.1453  -16.1841 O   0  0  0  0  0  0  0  0  0  0  0  0
  2  1  1  0
  3  2  1  0
  3  4  1  6
  5 13  1  0
  5  3  1  0
  6  5  2  0
  7  8  1  0
  8 10  1  0
  9  8  2  0
 10 11  1  0
 12 11  1  1
 12 14  1  0
 12 13  1  0
 14 16  1  0
 15 14  2  0
 16 17  1  0
 17 25  1  0
 17 18  1  6
 19 24  2  0
 19 18  1  0
 20 19  1  0
 21 22  1  0
 21 20  2  0
 22 23  2  0
 23 24  1  0
 25 26  1  0
 27 25  2  0
M  END
$$$$
