SQF.pdb
     RDKit          3D

 27 27  0  0  1  0  0  0  0  0999 V2000
   29.5489  -21.7080  -15.5482 O   0  0  0  0  0  0  0  0  0  0  0  0
   28.8877  -21.1079  -14.4774 C   0  0  0  0  0  0  0  0  0  0  0  0
   27.5945  -20.5029  -14.9912 C   0  0  2  0  0  0  0  0  0  0  0  0
   27.8444  -19.3314  -15.8075 N   0  0  0  0  0  0  0  0  0  0  0  0
   26.7322  -20.1170  -13.8649 C   0  0  0  0  0  0  0  0  0  0  0  0
   26.6407  -18.8878  -13.5219 O   0  0  0  0  0  0  0  0  0  0  0  0
   21.0114  -21.9315  -12.3837 N   0  0  0  0  0  0  0  0  0  0  0  0
   21.3839  -21.0905  -11.3135 C   0  0  0  0  0  0  0  0  0  0  0  0
   20.5217  -20.7257  -10.4893 O   0  0  0  0  0  0  0  0  0  0  0  0
   22.7931  -20.5937  -11.0993 C   0  0  0  0  0  0  0  0  0  0  0  0
   23.6995  -21.0879  -12.1896 C   0  0  0  0  0  0  0  0  0  0  0  0
   25.0739  -20.5733  -12.0183 C   0  0  2  0  0  0  0  0  0  0  0  0
   25.9655  -21.0020  -13.0944 N   0  0  0  0  0  0  0  0  0  0  0  0
   25.7000  -21.0026  -10.7528 C   0  0  0  0  0  0  0  0  0  0  0  0
   25.9971  -22.1884  -10.4471 O   0  0  0  0  0  0  0  0  0  0  0  0
   26.0334  -20.0400   -9.7209 N   0  0  0  0  0  0  0  0  0  0  0  0
   26.5751  -20.4291   -8.4548 C   0  0  1  0  0  0  0  0  0  0  0  0
   27.4102  -19.2877   -7.8774 C   0  0  0  0  0  0  0  0  0  0  0  0
   27.9079  -19.5982   -6.5201 C   0  0  0  0  0  0  0  0  0  0  0  0
   27.4578  -18.8784   -5.4358 C   0  0  0  0  0  0  0  0  0  0  0  0
   27.9288  -19.1747   -4.1645 C   0  0  0  0  0  0  0  0  0  0  0  0
   28.8365  -20.1762   -3.9819 C   0  0  0  0  0  0  0  0  0  0  0  0
   29.2831  -20.8928   -5.0707 C   0  0  0  0  0  0  0  0  0  0  0  0
   28.8305  -20.6161   -6.3348 C   0  0  0  0  0  0  0  0  0  0  0  0
   25.4976  -20.8301   -7.4940 C   0  0  0  0  0  0  0  0  0  0  0  0
   24.1629  -20.5575   -7.7513 O   0  0  0  0  0  0  0  0  0  0  0  0
   25.7645  -21.4274   -6.4211 O   0  0  0  0  0  0  0  0  0  0  0  0
  2  1  1  0
  3  2  1  0
  3  4  1  1
  5 13  1  0
  5  3  1  0
  6  5  2  0
  7  8  1  0
  8 10  1  0
  9  8  2  0
 10 11  1  0
 12 11  1  6
 12 14  1  0
 12 13  1  0
 14 16  1  0
 15 14  2  0
 16 17  1  0
 17 25  1  0
 17 18  1  1
 19 24  2  0
 19 18  1  0
 20 19  1  0
 21 22  1  0
 21 20  2  0
 22 23  2  0
 23 24  1  0
 25 26  1  0
 27 25  2  0
M  END
$$$$
