SQF.pdb
     RDKit          3D

 27 27  0  0  1  0  0  0  0  0999 V2000
   10.9520  -12.1754  -13.9595 O   0  0  0  0  0  0  0  0  0  0  0  0
   11.8943  -11.3840  -13.3041 C   0  0  0  0  0  0  0  0  0  0  0  0
   13.2777  -11.9093  -13.6398 C   0  0  2  0  0  0  0  0  0  0  0  0
   13.4305  -13.2945  -13.2408 N   0  0  0  0  0  0  0  0  0  0  0  0
   14.3041  -11.1071  -12.9586 C   0  0  0  0  0  0  0  0  0  0  0  0
   14.8623  -11.5516  -11.8967 O   0  0  0  0  0  0  0  0  0  0  0  0
   18.5616   -7.5025  -15.6960 N   0  0  0  0  0  0  0  0  0  0  0  0
   18.2307   -8.8739  -15.7297 C   0  0  0  0  0  0  0  0  0  0  0  0
   18.7409   -9.6084  -16.5991 O   0  0  0  0  0  0  0  0  0  0  0  0
   17.2758   -9.5219  -14.7565 C   0  0  0  0  0  0  0  0  0  0  0  0
   16.7592   -8.5132  -13.7715 C   0  0  0  0  0  0  0  0  0  0  0  0
   15.8819   -9.1470  -12.7657 C   0  0  2  0  0  0  0  0  0  0  0  0
   14.7524   -9.8462  -13.3758 N   0  0  0  0  0  0  0  0  0  0  0  0
   15.3140   -8.1838  -11.8027 C   0  0  0  0  0  0  0  0  0  0  0  0
   14.1049   -7.8340  -11.7421 O   0  0  0  0  0  0  0  0  0  0  0  0
   16.1512   -7.5404  -10.8088 N   0  0  0  0  0  0  0  0  0  0  0  0
   15.6379   -6.5846   -9.8757 C   0  0  1  0  0  0  0  0  0  0  0  0
   14.4837   -7.2008   -9.0872 C   0  0  0  0  0  0  0  0  0  0  0  0
   13.9113   -6.2499   -8.1102 C   0  0  0  0  0  0  0  0  0  0  0  0
   13.2215   -5.1405   -8.5459 C   0  0  0  0  0  0  0  0  0  0  0  0
   12.6866   -4.2518   -7.6240 C   0  0  0  0  0  0  0  0  0  0  0  0
   12.8402   -4.4707   -6.2865 C   0  0  0  0  0  0  0  0  0  0  0  0
   13.5314   -5.5825   -5.8568 C   0  0  0  0  0  0  0  0  0  0  0  0
   14.0675   -6.4726   -6.7509 C   0  0  0  0  0  0  0  0  0  0  0  0
   16.7054   -6.0927   -8.9467 C   0  0  0  0  0  0  0  0  0  0  0  0
   17.7973   -6.8818   -8.6194 O   0  0  0  0  0  0  0  0  0  0  0  0
   16.6499   -4.9481   -8.4310 O   0  0  0  0  0  0  0  0  0  0  0  0
  2  1  1  0
  3  2  1  0
  3  4  1  1
  5 13  1  0
  5  3  1  0
  6  5  2  0
  7  8  1  0
  8 10  1  0
  9  8  2  0
 10 11  1  0
 12 11  1  6
 12 14  1  0
 12 13  1  0
 14 16  1  0
 15 14  2  0
 16 17  1  0
 17 25  1  0
 17 18  1  1
 19 24  2  0
 19 18  1  0
 20 19  1  0
 21 22  1  0
 21 20  2  0
 22 23  2  0
 23 24  1  0
 25 26  1  0
 27 25  2  0
M  END
$$$$
