SQF.pdb
     RDKit          3D

 27 27  0  0  1  0  0  0  0  0999 V2000
   29.0008  -21.5418  -13.8736 O   0  0  0  0  0  0  0  0  0  0  0  0
   28.8973  -20.4317  -14.7108 C   0  0  0  0  0  0  0  0  0  0  0  0
   27.4308  -20.2075  -15.0297 C   0  0  2  0  0  0  0  0  0  0  0  0
   27.2519  -19.1101  -15.9598 N   0  0  0  0  0  0  0  0  0  0  0  0
   26.6840  -19.9085  -13.7993 C   0  0  0  0  0  0  0  0  0  0  0  0
   26.6116  -18.7047  -13.3720 O   0  0  0  0  0  0  0  0  0  0  0  0
   21.0196  -19.1230  -11.7472 N   0  0  0  0  0  0  0  0  0  0  0  0
   21.4947  -20.3991  -11.3765 C   0  0  0  0  0  0  0  0  0  0  0  0
   20.7312  -21.3831  -11.4441 O   0  0  0  0  0  0  0  0  0  0  0  0
   22.9018  -20.6529  -10.8922 C   0  0  0  0  0  0  0  0  0  0  0  0
   23.7867  -21.0677  -12.0321 C   0  0  0  0  0  0  0  0  0  0  0  0
   25.1442  -20.5020  -11.8900 C   0  0  2  0  0  0  0  0  0  0  0  0
   26.0127  -20.8541  -13.0119 N   0  0  0  0  0  0  0  0  0  0  0  0
   25.8331  -20.9494  -10.6641 C   0  0  0  0  0  0  0  0  0  0  0  0
   26.3122  -22.0987  -10.4701 O   0  0  0  0  0  0  0  0  0  0  0  0
   26.0155  -20.0512   -9.5404 N   0  0  0  0  0  0  0  0  0  0  0  0
   26.6828  -20.4507   -8.3393 C   0  0  1  0  0  0  0  0  0  0  0  0
   27.4106  -19.2537   -7.7300 C   0  0  0  0  0  0  0  0  0  0  0  0
   28.0396  -19.5895   -6.4347 C   0  0  0  0  0  0  0  0  0  0  0  0
   29.3126  -20.1134   -6.3981 C   0  0  0  0  0  0  0  0  0  0  0  0
   29.8976  -20.4265   -5.1791 C   0  0  0  0  0  0  0  0  0  0  0  0
   29.2181  -20.2180   -4.0150 C   0  0  0  0  0  0  0  0  0  0  0  0
   27.9447  -19.6936   -4.0582 C   0  0  0  0  0  0  0  0  0  0  0  0
   27.3489  -19.3775   -5.2516 C   0  0  0  0  0  0  0  0  0  0  0  0
   25.7278  -21.0445   -7.3493 C   0  0  0  0  0  0  0  0  0  0  0  0
   26.1567  -21.9349   -6.3771 O   0  0  0  0  0  0  0  0  0  0  0  0
   24.5045  -20.7573   -7.3644 O   0  0  0  0  0  0  0  0  0  0  0  0
  2  1  1  0
  3  2  1  0
  3  4  1  6
  5 13  1  0
  5  3  1  0
  6  5  2  0
  7  8  1  0
  8 10  1  0
  9  8  2  0
 10 11  1  0
 12 11  1  6
 12 14  1  0
 12 13  1  0
 14 16  1  0
 15 14  2  0
 16 17  1  0
 17 25  1  0
 17 18  1  1
 19 24  2  0
 19 18  1  0
 20 19  1  0
 21 22  1  0
 21 20  2  0
 22 23  2  0
 23 24  1  0
 25 26  1  0
 27 25  2  0
M  END
$$$$
