SQF.pdb
     RDKit          3D

 27 27  0  0  1  0  0  0  0  0999 V2000
   19.6170  -32.1618   -3.3549 O   0  0  0  0  0  0  0  0  0  0  0  0
   20.1703  -32.1284   -4.6342 C   0  0  0  0  0  0  0  0  0  0  0  0
   20.9426  -33.4157   -4.8557 C   0  0  2  0  0  0  0  0  0  0  0  0
   20.1228  -34.5798   -4.5834 N   0  0  0  0  0  0  0  0  0  0  0  0
   22.1232  -33.4560   -3.9808 C   0  0  0  0  0  0  0  0  0  0  0  0
   22.0755  -34.0919   -2.8717 O   0  0  0  0  0  0  0  0  0  0  0  0
   27.6783  -34.3327   -4.7044 N   0  0  0  0  0  0  0  0  0  0  0  0
   27.8536  -33.6074   -3.5066 C   0  0  0  0  0  0  0  0  0  0  0  0
   28.8321  -33.8565   -2.7745 O   0  0  0  0  0  0  0  0  0  0  0  0
   26.9087  -32.5240   -3.0461 C   0  0  0  0  0  0  0  0  0  0  0  0
   25.7398  -32.4089   -3.9815 C   0  0  0  0  0  0  0  0  0  0  0  0
   24.4911  -32.8661   -3.3377 C   0  0  2  0  0  0  0  0  0  0  0  0
   23.3520  -32.8390   -4.2534 N   0  0  0  0  0  0  0  0  0  0  0  0
   24.1121  -32.0533   -2.1656 C   0  0  0  0  0  0  0  0  0  0  0  0
   23.2651  -31.1203   -2.1634 O   0  0  0  0  0  0  0  0  0  0  0  0
   24.7194  -32.2844   -0.8693 N   0  0  0  0  0  0  0  0  0  0  0  0
   24.3835  -31.5077    0.2847 C   0  0  1  0  0  0  0  0  0  0  0  0
   22.8909  -31.6418    0.5811 C   0  0  0  0  0  0  0  0  0  0  0  0
   22.4958  -30.8818    1.7863 C   0  0  0  0  0  0  0  0  0  0  0  0
   22.1750  -29.5462    1.6886 C   0  0  0  0  0  0  0  0  0  0  0  0
   21.8049  -28.8384    2.8236 C   0  0  0  0  0  0  0  0  0  0  0  0
   21.7568  -29.4586    4.0374 C   0  0  0  0  0  0  0  0  0  0  0  0
   22.0790  -30.7952    4.1286 C   0  0  0  0  0  0  0  0  0  0  0  0
   22.4470  -31.5124    3.0199 C   0  0  0  0  0  0  0  0  0  0  0  0
   25.1945  -31.9132    1.4773 C   0  0  0  0  0  0  0  0  0  0  0  0
   26.1193  -32.9435    1.4050 O   0  0  0  0  0  0  0  0  0  0  0  0
   25.0660  -31.3347    2.5855 O   0  0  0  0  0  0  0  0  0  0  0  0
  2  1  1  0
  3  2  1  0
  3  4  1  1
  5 13  1  0
  5  3  1  0
  6  5  2  0
  7  8  1  0
  8 10  1  0
  9  8  2  0
 10 11  1  0
 12 11  1  6
 12 14  1  0
 12 13  1  0
 14 16  1  0
 15 14  2  0
 16 17  1  0
 17 25  1  0
 17 18  1  1
 19 24  2  0
 19 18  1  0
 20 19  1  0
 21 22  1  0
 21 20  2  0
 22 23  2  0
 23 24  1  0
 25 26  1  0
 27 25  2  0
M  END
$$$$
