SQF.pdb
     RDKit          3D

 27 27  0  0  1  0  0  0  0  0999 V2000
   27.5186  -24.2139  -16.7083 O   0  0  0  0  0  0  0  0  0  0  0  0
   28.0699  -23.2935  -17.5986 C   0  0  0  0  0  0  0  0  0  0  0  0
   29.0324  -22.4043  -16.8334 C   0  0  2  0  0  0  0  0  0  0  0  0
   30.0619  -23.1820  -16.1726 N   0  0  0  0  0  0  0  0  0  0  0  0
   28.3067  -21.6255  -15.8195 C   0  0  0  0  0  0  0  0  0  0  0  0
   28.7347  -21.5890  -14.6144 O   0  0  0  0  0  0  0  0  0  0  0  0
   23.2603  -17.6189  -16.4622 N   0  0  0  0  0  0  0  0  0  0  0  0
   23.5684  -17.6489  -15.0854 C   0  0  0  0  0  0  0  0  0  0  0  0
   22.9044  -16.9529  -14.2914 O   0  0  0  0  0  0  0  0  0  0  0  0
   24.6770  -18.4902  -14.5007 C   0  0  0  0  0  0  0  0  0  0  0  0
   25.4096  -19.2270  -15.5846 C   0  0  0  0  0  0  0  0  0  0  0  0
   26.4609  -20.1002  -15.0229 C   0  0  2  0  0  0  0  0  0  0  0  0
   27.1394  -20.8853  -16.0525 N   0  0  0  0  0  0  0  0  0  0  0  0
   25.9460  -21.0608  -14.0280 C   0  0  0  0  0  0  0  0  0  0  0  0
   25.4220  -22.1767  -14.2891 O   0  0  0  0  0  0  0  0  0  0  0  0
   26.0109  -20.7719  -12.6085 N   0  0  0  0  0  0  0  0  0  0  0  0
   25.4862  -21.6631  -11.6194 C   0  0  1  0  0  0  0  0  0  0  0  0
   26.5935  -22.0652  -10.6468 C   0  0  0  0  0  0  0  0  0  0  0  0
   26.9386  -20.9682   -9.7174 C   0  0  0  0  0  0  0  0  0  0  0  0
   25.9431  -20.2553   -9.0872 C   0  0  0  0  0  0  0  0  0  0  0  0
   26.2736  -19.2269   -8.2160 C   0  0  0  0  0  0  0  0  0  0  0  0
   27.5807  -18.9173   -7.9795 C   0  0  0  0  0  0  0  0  0  0  0  0
   28.5722  -19.6342   -8.6131 C   0  0  0  0  0  0  0  0  0  0  0  0
   28.2672  -20.6537   -9.4772 C   0  0  0  0  0  0  0  0  0  0  0  0
   24.3350  -21.0512  -10.8811 C   0  0  0  0  0  0  0  0  0  0  0  0
   23.9582  -19.7342  -11.0951 O   0  0  0  0  0  0  0  0  0  0  0  0
   23.6699  -21.7088  -10.0418 O   0  0  0  0  0  0  0  0  0  0  0  0
  2  1  1  0
  3  2  1  0
  3  4  1  1
  5 13  1  0
  5  3  1  0
  6  5  2  0
  7  8  1  0
  8 10  1  0
  9  8  2  0
 10 11  1  0
 12 11  1  6
 12 14  1  0
 12 13  1  0
 14 16  1  0
 15 14  2  0
 16 17  1  0
 17 25  1  0
 17 18  1  1
 19 24  2  0
 19 18  1  0
 20 19  1  0
 21 22  1  0
 21 20  2  0
 22 23  2  0
 23 24  1  0
 25 26  1  0
 27 25  2  0
M  END
$$$$
