SQF.pdb
     RDKit          3D

 27 27  0  0  1  0  0  0  0  0999 V2000
   24.6649  -14.4884  -15.5385 O   0  0  0  0  0  0  0  0  0  0  0  0
   23.8960  -13.3607  -15.8229 C   0  0  0  0  0  0  0  0  0  0  0  0
   22.8875  -13.7267  -16.8960 C   0  0  2  0  0  0  0  0  0  0  0  0
   23.5261  -13.9069  -18.1849 N   0  0  0  0  0  0  0  0  0  0  0  0
   21.8707  -12.6721  -17.0176 C   0  0  0  0  0  0  0  0  0  0  0  0
   22.0883  -11.6575  -17.7660 O   0  0  0  0  0  0  0  0  0  0  0  0
   15.8666  -13.5288  -15.6152 N   0  0  0  0  0  0  0  0  0  0  0  0
   16.5037  -13.8225  -16.8397 C   0  0  0  0  0  0  0  0  0  0  0  0
   15.9720  -14.6253  -17.6325 O   0  0  0  0  0  0  0  0  0  0  0  0
   17.8188  -13.2114  -17.2591 C   0  0  0  0  0  0  0  0  0  0  0  0
   18.2448  -12.1524  -16.2837 C   0  0  0  0  0  0  0  0  0  0  0  0
   19.6011  -11.6540  -16.5922 C   0  0  2  0  0  0  0  0  0  0  0  0
   20.6300  -12.6673  -16.3653 N   0  0  0  0  0  0  0  0  0  0  0  0
   19.9822  -10.4759  -15.7894 C   0  0  0  0  0  0  0  0  0  0  0  0
   20.3376  -10.4962  -14.5806 O   0  0  0  0  0  0  0  0  0  0  0  0
   19.9734   -9.1454  -16.3659 N   0  0  0  0  0  0  0  0  0  0  0  0
   20.1985   -7.9687  -15.5833 C   0  0  1  0  0  0  0  0  0  0  0  0
   21.0196   -6.9625  -16.3877 C   0  0  0  0  0  0  0  0  0  0  0  0
   21.1712   -5.6761  -15.6746 C   0  0  0  0  0  0  0  0  0  0  0  0
   22.0991   -5.5490  -14.6651 C   0  0  0  0  0  0  0  0  0  0  0  0
   22.2366   -4.3390  -13.9996 C   0  0  0  0  0  0  0  0  0  0  0  0
   21.4568   -3.2729  -14.3398 C   0  0  0  0  0  0  0  0  0  0  0  0
   20.5302   -3.4063  -15.3507 C   0  0  0  0  0  0  0  0  0  0  0  0
   20.3786   -4.5928  -16.0206 C   0  0  0  0  0  0  0  0  0  0  0  0
   18.9100   -7.3528  -15.1304 C   0  0  0  0  0  0  0  0  0  0  0  0
   18.7955   -6.7504  -13.8870 O   0  0  0  0  0  0  0  0  0  0  0  0
   17.8872   -7.3601  -15.8606 O   0  0  0  0  0  0  0  0  0  0  0  0
  2  1  1  0
  3  2  1  0
  3  4  1  6
  5 13  1  0
  5  3  1  0
  6  5  2  0
  7  8  1  0
  8 10  1  0
  9  8  2  0
 10 11  1  0
 12 11  1  1
 12 14  1  0
 12 13  1  0
 14 16  1  0
 15 14  2  0
 16 17  1  0
 17 25  1  0
 17 18  1  6
 19 24  2  0
 19 18  1  0
 20 19  1  0
 21 22  1  0
 21 20  2  0
 22 23  2  0
 23 24  1  0
 25 26  1  0
 27 25  2  0
M  END
$$$$
