SQF.pdb
     RDKit          3D

 27 27  0  0  1  0  0  0  0  0999 V2000
   19.9242  -19.5441  -13.2970 O   0  0  0  0  0  0  0  0  0  0  0  0
   21.2775  -19.2353  -13.4270 C   0  0  0  0  0  0  0  0  0  0  0  0
   21.6817  -19.4532  -14.8733 C   0  0  2  0  0  0  0  0  0  0  0  0
   20.7514  -18.8180  -15.7856 N   0  0  0  0  0  0  0  0  0  0  0  0
   21.7301  -20.8910  -15.1755 C   0  0  0  0  0  0  0  0  0  0  0  0
   20.7074  -21.4736  -15.6770 O   0  0  0  0  0  0  0  0  0  0  0  0
   26.6460  -24.9932  -15.8066 N   0  0  0  0  0  0  0  0  0  0  0  0
   25.4783  -25.7857  -15.7999 C   0  0  0  0  0  0  0  0  0  0  0  0
   25.5709  -27.0185  -15.9656 O   0  0  0  0  0  0  0  0  0  0  0  0
   24.0927  -25.2212  -15.5999 C   0  0  0  0  0  0  0  0  0  0  0  0
   24.1523  -23.7359  -15.3880 C   0  0  0  0  0  0  0  0  0  0  0  0
   22.8062  -23.1736  -15.1537 C   0  0  2  0  0  0  0  0  0  0  0  0
   22.8356  -21.7251  -14.9589 N   0  0  0  0  0  0  0  0  0  0  0  0
   22.1366  -23.7468  -13.9701 C   0  0  0  0  0  0  0  0  0  0  0  0
   22.3140  -23.3797  -12.7778 O   0  0  0  0  0  0  0  0  0  0  0  0
   21.1792  -24.8276  -14.1046 N   0  0  0  0  0  0  0  0  0  0  0  0
   20.4344  -25.3355  -12.9933 C   0  0  1  0  0  0  0  0  0  0  0  0
   19.6678  -24.1976  -12.3217 C   0  0  0  0  0  0  0  0  0  0  0  0
   18.7386  -24.6934  -11.2839 C   0  0  0  0  0  0  0  0  0  0  0  0
   19.2123  -25.0373  -10.0374 C   0  0  0  0  0  0  0  0  0  0  0  0
   18.3351  -25.5021   -9.0676 C   0  0  0  0  0  0  0  0  0  0  0  0
   17.0043  -25.6204   -9.3419 C   0  0  0  0  0  0  0  0  0  0  0  0
   16.5365  -25.2747  -10.5909 C   0  0  0  0  0  0  0  0  0  0  0  0
   17.3861  -24.8136  -11.5629 C   0  0  0  0  0  0  0  0  0  0  0  0
   19.4963  -26.4265  -13.4108 C   0  0  0  0  0  0  0  0  0  0  0  0
   19.1254  -27.4344  -12.5341 O   0  0  0  0  0  0  0  0  0  0  0  0
   19.0121  -26.4675  -14.5697 O   0  0  0  0  0  0  0  0  0  0  0  0
  2  1  1  0
  3  2  1  0
  3  4  1  6
  5 13  1  0
  5  3  1  0
  6  5  2  0
  7  8  1  0
  8 10  1  0
  9  8  2  0
 10 11  1  0
 12 11  1  1
 12 14  1  0
 12 13  1  0
 14 16  1  0
 15 14  2  0
 16 17  1  0
 17 25  1  0
 17 18  1  6
 19 24  2  0
 19 18  1  0
 20 19  1  0
 21 22  1  0
 21 20  2  0
 22 23  2  0
 23 24  1  0
 25 26  1  0
 27 25  2  0
M  END
$$$$
