SQF.pdb
     RDKit          3D

 27 27  0  0  1  0  0  0  0  0999 V2000
   31.4078  -27.1456  -19.2702 O   0  0  0  0  0  0  0  0  0  0  0  0
   32.2655  -27.8542  -18.4299 C   0  0  0  0  0  0  0  0  0  0  0  0
   32.4921  -29.2306  -19.0271 C   0  0  2  0  0  0  0  0  0  0  0  0
   33.0622  -29.1446  -20.3571 N   0  0  0  0  0  0  0  0  0  0  0  0
   31.2210  -29.9649  -19.1061 C   0  0  0  0  0  0  0  0  0  0  0  0
   30.6304  -30.1010  -20.2328 O   0  0  0  0  0  0  0  0  0  0  0  0
   31.8040  -32.6824  -15.9795 N   0  0  0  0  0  0  0  0  0  0  0  0
   31.4810  -33.6154  -16.9878 C   0  0  0  0  0  0  0  0  0  0  0  0
   32.2929  -34.5182  -17.2730 O   0  0  0  0  0  0  0  0  0  0  0  0
   30.1844  -33.5878  -17.7603 C   0  0  0  0  0  0  0  0  0  0  0  0
   29.2893  -32.4945  -17.2522 C   0  0  0  0  0  0  0  0  0  0  0  0
   29.3198  -31.3183  -18.1458 C   0  0  2  0  0  0  0  0  0  0  0  0
   30.5619  -30.5576  -18.0203 N   0  0  0  0  0  0  0  0  0  0  0  0
   28.2159  -30.3714  -17.8955 C   0  0  0  0  0  0  0  0  0  0  0  0
   28.3025  -29.3029  -17.2332 O   0  0  0  0  0  0  0  0  0  0  0  0
   26.8873  -30.6182  -18.4214 N   0  0  0  0  0  0  0  0  0  0  0  0
   25.7934  -29.7245  -18.1925 C   0  0  1  0  0  0  0  0  0  0  0  0
   24.7589  -29.8784  -19.3060 C   0  0  0  0  0  0  0  0  0  0  0  0
   23.5845  -29.0052  -19.0946 C   0  0  0  0  0  0  0  0  0  0  0  0
   23.5669  -27.7302  -19.6147 C   0  0  0  0  0  0  0  0  0  0  0  0
   22.4617  -26.9155  -19.4128 C   0  0  0  0  0  0  0  0  0  0  0  0
   21.3908  -27.3707  -18.7011 C   0  0  0  0  0  0  0  0  0  0  0  0
   21.4145  -28.6473  -18.1832 C   0  0  0  0  0  0  0  0  0  0  0  0
   22.4963  -29.4680  -18.3712 C   0  0  0  0  0  0  0  0  0  0  0  0
   25.1626  -29.9568  -16.8535 C   0  0  0  0  0  0  0  0  0  0  0  0
   24.7073  -28.9022  -16.0773 O   0  0  0  0  0  0  0  0  0  0  0  0
   25.0236  -31.1149  -16.3859 O   0  0  0  0  0  0  0  0  0  0  0  0
  2  1  1  0
  3  2  1  0
  3  4  1  6
  5 13  1  0
  5  3  1  0
  6  5  2  0
  7  8  1  0
  8 10  1  0
  9  8  2  0
 10 11  1  0
 12 11  1  1
 12 14  1  0
 12 13  1  0
 14 16  1  0
 15 14  2  0
 16 17  1  0
 17 25  1  0
 17 18  1  6
 19 24  2  0
 19 18  1  0
 20 19  1  0
 21 22  1  0
 21 20  2  0
 22 23  2  0
 23 24  1  0
 25 26  1  0
 27 25  2  0
M  END
$$$$
