SQF.pdb
     RDKit          3D

 27 27  0  0  1  0  0  0  0  0999 V2000
   11.9149   -8.7900  -13.8573 O   0  0  0  0  0  0  0  0  0  0  0  0
   13.2837   -8.6867  -14.1015 C   0  0  0  0  0  0  0  0  0  0  0  0
   13.7794  -10.0230  -14.6223 C   0  0  2  0  0  0  0  0  0  0  0  0
   13.4226  -11.1065  -13.7277 N   0  0  0  0  0  0  0  0  0  0  0  0
   15.2416   -9.9983  -14.7722 C   0  0  0  0  0  0  0  0  0  0  0  0
   15.9873   -9.8525  -13.7429 O   0  0  0  0  0  0  0  0  0  0  0  0
   18.9339  -12.0960  -19.5940 N   0  0  0  0  0  0  0  0  0  0  0  0
   19.8095  -11.4294  -18.7106 C   0  0  0  0  0  0  0  0  0  0  0  0
   21.0318  -11.4058  -18.9576 O   0  0  0  0  0  0  0  0  0  0  0  0
   19.3481  -10.7270  -17.4566 C   0  0  0  0  0  0  0  0  0  0  0  0
   17.8565  -10.8245  -17.3143 C   0  0  0  0  0  0  0  0  0  0  0  0
   17.3894  -10.1432  -16.0893 C   0  0  2  0  0  0  0  0  0  0  0  0
   15.9313  -10.1243  -15.9860 N   0  0  0  0  0  0  0  0  0  0  0  0
   17.8389   -8.7405  -15.9989 C   0  0  0  0  0  0  0  0  0  0  0  0
   17.2081   -7.7391  -16.4317 O   0  0  0  0  0  0  0  0  0  0  0  0
   19.1023   -8.4005  -15.3739 N   0  0  0  0  0  0  0  0  0  0  0  0
   19.6173   -7.0654  -15.3612 C   0  0  1  0  0  0  0  0  0  0  0  0
   20.4037   -6.8272  -14.0734 C   0  0  0  0  0  0  0  0  0  0  0  0
   20.9902   -5.4707  -14.0262 C   0  0  0  0  0  0  0  0  0  0  0  0
   20.2240   -4.3983  -13.6269 C   0  0  0  0  0  0  0  0  0  0  0  0
   20.7804   -3.1276  -13.5848 C   0  0  0  0  0  0  0  0  0  0  0  0
   22.0838   -2.9340  -13.9371 C   0  0  0  0  0  0  0  0  0  0  0  0
   22.8452   -4.0109  -14.3357 C   0  0  0  0  0  0  0  0  0  0  0  0
   22.3149   -5.2741  -14.3843 C   0  0  0  0  0  0  0  0  0  0  0  0
   20.4758   -6.7943  -16.5588 C   0  0  0  0  0  0  0  0  0  0  0  0
   20.5036   -5.5449  -17.1591 O   0  0  0  0  0  0  0  0  0  0  0  0
   21.2010   -7.6887  -17.0621 O   0  0  0  0  0  0  0  0  0  0  0  0
  2  1  1  0
  3  2  1  0
  3  4  1  1
  5 13  1  0
  5  3  1  0
  6  5  2  0
  7  8  1  0
  8 10  1  0
  9  8  2  0
 10 11  1  0
 12 11  1  6
 12 14  1  0
 12 13  1  0
 14 16  1  0
 15 14  2  0
 16 17  1  0
 17 25  1  0
 17 18  1  1
 19 24  2  0
 19 18  1  0
 20 19  1  0
 21 22  1  0
 21 20  2  0
 22 23  2  0
 23 24  1  0
 25 26  1  0
 27 25  2  0
M  END
$$$$
