SQF.pdb
     RDKit          3D

 27 27  0  0  1  0  0  0  0  0999 V2000
   29.7955  -20.8356  -15.1151 O   0  0  0  0  0  0  0  0  0  0  0  0
   28.4783  -21.2791  -15.0050 C   0  0  0  0  0  0  0  0  0  0  0  0
   27.5654  -20.0672  -14.9793 C   0  0  2  0  0  0  0  0  0  0  0  0
   28.2641  -18.8678  -15.3970 N   0  0  0  0  0  0  0  0  0  0  0  0
   27.0389  -19.8573  -13.6229 C   0  0  0  0  0  0  0  0  0  0  0  0
   27.4031  -18.8339  -12.9471 O   0  0  0  0  0  0  0  0  0  0  0  0
   21.1231  -20.9109  -12.1114 N   0  0  0  0  0  0  0  0  0  0  0  0
   21.6756  -20.3869  -10.9233 C   0  0  0  0  0  0  0  0  0  0  0  0
   20.9225  -20.0840   -9.9763 O   0  0  0  0  0  0  0  0  0  0  0  0
   23.1552  -20.1653  -10.7228 C   0  0  0  0  0  0  0  0  0  0  0  0
   23.9226  -20.5807  -11.9448 C   0  0  0  0  0  0  0  0  0  0  0  0
   25.3668  -20.3111  -11.7881 C   0  0  2  0  0  0  0  0  0  0  0  0
   26.1364  -20.7056  -12.9666 N   0  0  0  0  0  0  0  0  0  0  0  0
   25.9657  -21.0129  -10.6363 C   0  0  0  0  0  0  0  0  0  0  0  0
   26.2316  -22.2436  -10.5851 O   0  0  0  0  0  0  0  0  0  0  0  0
   26.3069  -20.2978   -9.4219 N   0  0  0  0  0  0  0  0  0  0  0  0
   26.8287  -20.9575   -8.2640 C   0  0  1  0  0  0  0  0  0  0  0  0
   28.2504  -20.4710   -7.9890 C   0  0  0  0  0  0  0  0  0  0  0  0
   28.4157  -20.0048   -6.5956 C   0  0  0  0  0  0  0  0  0  0  0  0
   28.2769  -18.6689   -6.2911 C   0  0  0  0  0  0  0  0  0  0  0  0
   28.4333  -18.2377   -4.9813 C   0  0  0  0  0  0  0  0  0  0  0  0
   28.7241  -19.1303   -3.9919 C   0  0  0  0  0  0  0  0  0  0  0  0
   28.8617  -20.4656   -4.3029 C   0  0  0  0  0  0  0  0  0  0  0  0
   28.7113  -20.9122   -5.5902 C   0  0  0  0  0  0  0  0  0  0  0  0
   25.9572  -20.7384   -7.0652 C   0  0  0  0  0  0  0  0  0  0  0  0
   25.9446  -21.6355   -6.0083 O   0  0  0  0  0  0  0  0  0  0  0  0
   25.2068  -19.7345   -6.9743 O   0  0  0  0  0  0  0  0  0  0  0  0
  2  1  1  0
  3  2  1  0
  3  4  1  1
  5 13  1  0
  5  3  1  0
  6  5  2  0
  7  8  1  0
  8 10  1  0
  9  8  2  0
 10 11  1  0
 12 11  1  6
 12 14  1  0
 12 13  1  0
 14 16  1  0
 15 14  2  0
 16 17  1  0
 17 25  1  0
 17 18  1  1
 19 24  2  0
 19 18  1  0
 20 19  1  0
 21 22  1  0
 21 20  2  0
 22 23  2  0
 23 24  1  0
 25 26  1  0
 27 25  2  0
M  END
$$$$
