SQF.pdb
     RDKit          3D

 27 27  0  0  1  0  0  0  0  0999 V2000
   27.1817  -11.6671  -16.5323 O   0  0  0  0  0  0  0  0  0  0  0  0
   26.4913  -12.3669  -15.5437 C   0  0  0  0  0  0  0  0  0  0  0  0
   25.3362  -13.1034  -16.1962 C   0  0  2  0  0  0  0  0  0  0  0  0
   25.7774  -13.8722  -17.3432 N   0  0  0  0  0  0  0  0  0  0  0  0
   24.3093  -12.1480  -16.6365 C   0  0  0  0  0  0  0  0  0  0  0  0
   24.1934  -11.8612  -17.8779 O   0  0  0  0  0  0  0  0  0  0  0  0
   18.3501  -11.6383  -15.1712 N   0  0  0  0  0  0  0  0  0  0  0  0
   18.5922  -10.4933  -15.9597 C   0  0  0  0  0  0  0  0  0  0  0  0
   17.6287   -9.8308  -16.3940 O   0  0  0  0  0  0  0  0  0  0  0  0
   19.9764  -10.0094  -16.3182 C   0  0  0  0  0  0  0  0  0  0  0  0
   21.0173  -10.9747  -15.8291 C   0  0  0  0  0  0  0  0  0  0  0  0
   22.3688  -10.5761  -16.2734 C   0  0  2  0  0  0  0  0  0  0  0  0
   23.4035  -11.4902  -15.7930 N   0  0  0  0  0  0  0  0  0  0  0  0
   22.7530   -9.2253  -15.8202 C   0  0  0  0  0  0  0  0  0  0  0  0
   23.2056   -8.9355  -14.6804 O   0  0  0  0  0  0  0  0  0  0  0  0
   22.6299   -8.0796  -16.7004 N   0  0  0  0  0  0  0  0  0  0  0  0
   23.0860   -6.7748  -16.3298 C   0  0  1  0  0  0  0  0  0  0  0  0
   23.2663   -5.9160  -17.5802 C   0  0  0  0  0  0  0  0  0  0  0  0
   23.7716   -4.5649  -17.2553 C   0  0  0  0  0  0  0  0  0  0  0  0
   25.1137   -4.3654  -17.0201 C   0  0  0  0  0  0  0  0  0  0  0  0
   25.5817   -3.0949  -16.7156 C   0  0  0  0  0  0  0  0  0  0  0  0
   24.7190   -2.0406  -16.6477 C   0  0  0  0  0  0  0  0  0  0  0  0
   23.3773   -2.2467  -16.8841 C   0  0  0  0  0  0  0  0  0  0  0  0
   22.8945   -3.4936  -17.1863 C   0  0  0  0  0  0  0  0  0  0  0  0
   22.1446   -6.1138  -15.3697 C   0  0  0  0  0  0  0  0  0  0  0  0
   22.6118   -5.3680  -14.2984 O   0  0  0  0  0  0  0  0  0  0  0  0
   20.8986   -6.2115  -15.5005 O   0  0  0  0  0  0  0  0  0  0  0  0
  2  1  1  0
  3  2  1  0
  3  4  1  6
  5 13  1  0
  5  3  1  0
  6  5  2  0
  7  8  1  0
  8 10  1  0
  9  8  2  0
 10 11  1  0
 12 11  1  1
 12 14  1  0
 12 13  1  0
 14 16  1  0
 15 14  2  0
 16 17  1  0
 17 25  1  0
 17 18  1  6
 19 24  2  0
 19 18  1  0
 20 19  1  0
 21 22  1  0
 21 20  2  0
 22 23  2  0
 23 24  1  0
 25 26  1  0
 27 25  2  0
M  END
$$$$
