SQF.pdb
     RDKit          3D

 27 27  0  0  1  0  0  0  0  0999 V2000
   29.8917  -32.9757  -15.7265 O   0  0  0  0  0  0  0  0  0  0  0  0
   28.7301  -32.4250  -15.1869 C   0  0  0  0  0  0  0  0  0  0  0  0
   27.5351  -33.1200  -15.8125 C   0  0  2  0  0  0  0  0  0  0  0  0
   27.3210  -32.6815  -17.1775 N   0  0  0  0  0  0  0  0  0  0  0  0
   26.3206  -32.8416  -15.0325 C   0  0  0  0  0  0  0  0  0  0  0  0
   25.5691  -31.8560  -15.3497 O   0  0  0  0  0  0  0  0  0  0  0  0
   21.3907  -35.6886  -14.4118 N   0  0  0  0  0  0  0  0  0  0  0  0
   22.7156  -36.0984  -14.6724 C   0  0  0  0  0  0  0  0  0  0  0  0
   22.9207  -37.1803  -15.2581 O   0  0  0  0  0  0  0  0  0  0  0  0
   23.9278  -35.2901  -14.2774 C   0  0  0  0  0  0  0  0  0  0  0  0
   23.5176  -34.0457  -13.5441 C   0  0  0  0  0  0  0  0  0  0  0  0
   24.6944  -33.2460  -13.1456 C   0  0  2  0  0  0  0  0  0  0  0  0
   25.8842  -33.5823  -13.9253 N   0  0  0  0  0  0  0  0  0  0  0  0
   25.0565  -33.4160  -11.7251 C   0  0  0  0  0  0  0  0  0  0  0  0
   25.7777  -34.3376  -11.2576 O   0  0  0  0  0  0  0  0  0  0  0  0
   24.5831  -32.4866  -10.7178 N   0  0  0  0  0  0  0  0  0  0  0  0
   24.9533  -32.5946   -9.3397 C   0  0  1  0  0  0  0  0  0  0  0  0
   24.7209  -31.2588   -8.6361 C   0  0  0  0  0  0  0  0  0  0  0  0
   23.3363  -30.7721   -8.8164 C   0  0  0  0  0  0  0  0  0  0  0  0
   23.0889  -29.6558   -9.5837 C   0  0  0  0  0  0  0  0  0  0  0  0
   21.7871  -29.2040   -9.7491 C   0  0  0  0  0  0  0  0  0  0  0  0
   20.7493  -29.8602   -9.1551 C   0  0  0  0  0  0  0  0  0  0  0  0
   21.0033  -30.9766   -8.3885 C   0  0  0  0  0  0  0  0  0  0  0  0
   22.2817  -31.4392   -8.2126 C   0  0  0  0  0  0  0  0  0  0  0  0
   24.1985  -33.6899   -8.6504 C   0  0  0  0  0  0  0  0  0  0  0  0
   23.1298  -34.3263   -9.2627 O   0  0  0  0  0  0  0  0  0  0  0  0
   24.5064  -34.0711   -7.4932 O   0  0  0  0  0  0  0  0  0  0  0  0
  2  1  1  0
  3  2  1  0
  3  4  1  6
  5 13  1  0
  5  3  1  0
  6  5  2  0
  7  8  1  0
  8 10  1  0
  9  8  2  0
 10 11  1  0
 12 11  1  6
 12 14  1  0
 12 13  1  0
 14 16  1  0
 15 14  2  0
 16 17  1  0
 17 25  1  0
 17 18  1  1
 19 24  2  0
 19 18  1  0
 20 19  1  0
 21 22  1  0
 21 20  2  0
 22 23  2  0
 23 24  1  0
 25 26  1  0
 27 25  2  0
M  END
$$$$
