LEW.pdb
     RDKit          3D

 32 33  0  0  1  0  0  0  0  0999 V2000
   31.1491  -16.8339  -18.1509 C   0  0  0  0  0  0  0  0  0  0  0  0
   30.0387  -15.8455  -18.1969 C   0  0  2  0  0  0  0  0  0  0  0  0
   30.6398  -14.4646  -17.9332 C   0  0  0  0  0  0  0  0  0  0  0  0
   28.9415  -16.0451  -17.2336 C   0  0  0  0  0  0  0  0  0  0  0  0
   28.2752  -17.3638  -17.1809 C   0  0  2  0  0  0  0  0  0  0  0  0
   27.6681  -17.8291  -18.3863 N   0  0  0  0  0  0  0  0  0  0  0  0
   27.3986  -17.5671  -15.9808 C   0  0  0  0  0  0  0  0  0  0  0  0
   26.5489  -16.6777  -15.6673 O   0  0  0  0  0  0  0  0  0  0  0  0
   27.4769  -18.7211  -15.1699 N   0  0  0  0  0  0  0  0  0  0  0  0
   26.3594  -19.1339  -14.2564 C   0  0  1  0  0  0  0  0  0  0  0  0
   25.1294  -19.2347  -15.0500 C   0  0  0  0  0  0  0  0  0  0  0  0
   23.8618  -19.7022  -14.4916 C   0  0  0  0  0  0  0  0  0  0  0  0
   22.7789  -18.7041  -14.3455 C   0  0  0  0  0  0  0  0  0  0  0  0
   22.6330  -17.9112  -15.3395 O   0  0  0  0  0  0  0  0  0  0  0  0
   26.8092  -20.1363  -13.3353 C   0  0  0  0  0  0  0  0  0  0  0  0
   27.5106  -21.1077  -13.8118 O   0  0  0  0  0  0  0  0  0  0  0  0
   21.9655  -18.6045  -13.2421 O   0  0  0  0  0  0  0  0  0  0  0  0
   26.5931  -20.1963  -11.9307 N   0  0  0  0  0  0  0  0  0  0  0  0
   27.0276  -21.3693  -11.1568 C   0  0  1  0  0  0  0  0  0  0  0  0
   27.9660  -20.8778  -10.0771 C   0  0  0  0  0  0  0  0  0  0  0  0
   27.3362  -20.3967   -8.8589 C   0  0  0  0  0  0  0  0  0  0  0  0
   26.0191  -19.9619   -8.6770 C   0  0  0  0  0  0  0  0  0  0  0  0
   25.8762  -19.5843   -7.4177 N   0  0  0  0  0  0  0  0  0  0  0  0
   27.0221  -19.7368   -6.7275 C   0  0  0  0  0  0  0  0  0  0  0  0
   27.3545  -19.5031   -5.4141 C   0  0  0  0  0  0  0  0  0  0  0  0
   28.6256  -19.7798   -4.9748 C   0  0  0  0  0  0  0  0  0  0  0  0
   29.5615  -20.2950   -5.8713 C   0  0  0  0  0  0  0  0  0  0  0  0
   29.2388  -20.5312   -7.1852 C   0  0  0  0  0  0  0  0  0  0  0  0
   27.9623  -20.2528   -7.6273 C   0  0  0  0  0  0  0  0  0  0  0  0
   25.9188  -22.1031  -10.6262 C   0  0  0  0  0  0  0  0  0  0  0  0
   25.9899  -23.2266  -10.0453 O   0  0  0  0  0  0  0  0  0  0  0  0
   24.6121  -21.5910  -10.7221 O   0  0  0  0  0  0  0  0  0  0  0  0
  2  1  1  1
  3  2  1  0
  4  2  1  0
  5  4  1  0
  5  6  1  6
  7  5  1  0
  7  8  2  0
  9  7  1  0
 10  9  1  0
 10 11  1  6
 11 12  1  0
 12 13  1  0
 13 17  1  0
 14 13  2  0
 15 10  1  0
 16 15  2  0
 18 15  1  0
 19 18  1  0
 19 20  1  1
 20 21  1  0
 21 29  1  0
 22 21  2  0
 22 23  1  0
 23 24  1  0
 24 25  1  0
 25 26  2  0
 27 26  1  0
 28 27  2  0
 29 24  2  0
 29 28  1  0
 30 32  1  0
 30 19  1  0
 31 30  2  0
M  END
$$$$
