LEW.pdb
     RDKit          3D

 32 33  0  0  1  0  0  0  0  0999 V2000
   29.3769  -19.1375  -17.8189 C   0  0  0  0  0  0  0  0  0  0  0  0
   28.3618  -20.1614  -18.1840 C   0  0  2  0  0  0  0  0  0  0  0  0
   28.2314  -20.1583  -19.7074 C   0  0  0  0  0  0  0  0  0  0  0  0
   27.0124  -19.9784  -17.6209 C   0  0  0  0  0  0  0  0  0  0  0  0
   26.8242  -20.1393  -16.1634 C   0  0  2  0  0  0  0  0  0  0  0  0
   27.9518  -20.5902  -15.4128 N   0  0  0  0  0  0  0  0  0  0  0  0
   25.5579  -20.8440  -15.7765 C   0  0  0  0  0  0  0  0  0  0  0  0
   24.5818  -20.8695  -16.5877 O   0  0  0  0  0  0  0  0  0  0  0  0
   25.3986  -21.4903  -14.5306 N   0  0  0  0  0  0  0  0  0  0  0  0
   24.1155  -22.1630  -14.1369 C   0  0  1  0  0  0  0  0  0  0  0  0
   24.4371  -23.2798  -13.2413 C   0  0  0  0  0  0  0  0  0  0  0  0
   25.3759  -24.3406  -13.6026 C   0  0  0  0  0  0  0  0  0  0  0  0
   24.9306  -25.3196  -14.6191 C   0  0  0  0  0  0  0  0  0  0  0  0
   23.6805  -25.2895  -14.8916 O   0  0  0  0  0  0  0  0  0  0  0  0
   23.0976  -21.1876  -13.8763 C   0  0  0  0  0  0  0  0  0  0  0  0
   23.4682  -20.0690  -13.3527 O   0  0  0  0  0  0  0  0  0  0  0  0
   25.7660  -26.2103  -15.2499 O   0  0  0  0  0  0  0  0  0  0  0  0
   21.7028  -21.2848  -14.1379 N   0  0  0  0  0  0  0  0  0  0  0  0
   20.9218  -20.0874  -14.4842 C   0  0  1  0  0  0  0  0  0  0  0  0
   21.6032  -19.4266  -15.6619 C   0  0  0  0  0  0  0  0  0  0  0  0
   20.8778  -18.3307  -16.2824 C   0  0  0  0  0  0  0  0  0  0  0  0
   20.7158  -17.0227  -15.8138 C   0  0  0  0  0  0  0  0  0  0  0  0
   19.9600  -16.3631  -16.6756 N   0  0  0  0  0  0  0  0  0  0  0  0
   19.5962  -17.1468  -17.7082 C   0  0  0  0  0  0  0  0  0  0  0  0
   18.8449  -16.9106  -18.8350 C   0  0  0  0  0  0  0  0  0  0  0  0
   18.6543  -17.9178  -19.7486 C   0  0  0  0  0  0  0  0  0  0  0  0
   19.2279  -19.1678  -19.5173 C   0  0  0  0  0  0  0  0  0  0  0  0
   19.9794  -19.4132  -18.3944 C   0  0  0  0  0  0  0  0  0  0  0  0
   20.1708  -18.4022  -17.4759 C   0  0  0  0  0  0  0  0  0  0  0  0
   19.5501  -20.3995  -14.7497 C   0  0  0  0  0  0  0  0  0  0  0  0
   18.5635  -19.6411  -14.5128 O   0  0  0  0  0  0  0  0  0  0  0  0
   19.1968  -21.6347  -15.3227 O   0  0  0  0  0  0  0  0  0  0  0  0
  2  1  1  6
  3  2  1  0
  4  2  1  0
  5  4  1  0
  5  6  1  6
  7  5  1  0
  7  8  2  0
  9  7  1  0
 10  9  1  0
 10 11  1  1
 11 12  1  0
 12 13  1  0
 13 17  1  0
 14 13  2  0
 15 10  1  0
 16 15  2  0
 18 15  1  0
 19 18  1  0
 19 20  1  6
 20 21  1  0
 21 29  1  0
 22 21  2  0
 22 23  1  0
 23 24  1  0
 24 25  1  0
 25 26  2  0
 27 26  1  0
 28 27  2  0
 29 24  2  0
 29 28  1  0
 30 32  1  0
 30 19  1  0
 31 30  2  0
M  END
$$$$
