LEW.pdb
     RDKit          3D

 32 33  0  0  1  0  0  0  0  0999 V2000
   29.3948  -24.6753  -17.1135 C   0  0  0  0  0  0  0  0  0  0  0  0
   30.2121  -23.5714  -16.5430 C   0  0  2  0  0  0  0  0  0  0  0  0
   31.3132  -24.2053  -15.6924 C   0  0  0  0  0  0  0  0  0  0  0  0
   29.5006  -22.5972  -15.6967 C   0  0  0  0  0  0  0  0  0  0  0  0
   28.3479  -21.8694  -16.2687 C   0  0  2  0  0  0  0  0  0  0  0  0
   28.5646  -21.1840  -17.5021 N   0  0  0  0  0  0  0  0  0  0  0  0
   27.5849  -21.0411  -15.2779 C   0  0  0  0  0  0  0  0  0  0  0  0
   28.0045  -19.8821  -14.9747 O   0  0  0  0  0  0  0  0  0  0  0  0
   26.4022  -21.4992  -14.6560 N   0  0  0  0  0  0  0  0  0  0  0  0
   25.5515  -20.6065  -13.7997 C   0  0  1  0  0  0  0  0  0  0  0  0
   24.3566  -20.2357  -14.5661 C   0  0  0  0  0  0  0  0  0  0  0  0
   23.2314  -19.5105  -13.9785 C   0  0  0  0  0  0  0  0  0  0  0  0
   21.9140  -20.1846  -13.9883 C   0  0  0  0  0  0  0  0  0  0  0  0
   21.6994  -20.9436  -14.9962 O   0  0  0  0  0  0  0  0  0  0  0  0
   25.5267  -21.0838  -12.4480 C   0  0  0  0  0  0  0  0  0  0  0  0
   25.4166  -22.3561  -12.2702 O   0  0  0  0  0  0  0  0  0  0  0  0
   20.9643  -20.0361  -13.0059 O   0  0  0  0  0  0  0  0  0  0  0  0
   25.6246  -20.3253  -11.2487 N   0  0  0  0  0  0  0  0  0  0  0  0
   25.3628  -20.9522   -9.9441 C   0  0  1  0  0  0  0  0  0  0  0  0
   26.0520  -20.1129   -8.8912 C   0  0  0  0  0  0  0  0  0  0  0  0
   27.3966  -20.5282   -8.5279 C   0  0  0  0  0  0  0  0  0  0  0  0
   28.2658  -21.3663   -9.2340 C   0  0  0  0  0  0  0  0  0  0  0  0
   29.3768  -21.5014   -8.5294 N   0  0  0  0  0  0  0  0  0  0  0  0
   29.3164  -20.8019   -7.3806 C   0  0  0  0  0  0  0  0  0  0  0  0
   30.2125  -20.6215   -6.3537 C   0  0  0  0  0  0  0  0  0  0  0  0
   29.8785  -19.8154   -5.2935 C   0  0  0  0  0  0  0  0  0  0  0  0
   28.6316  -19.1911   -5.2760 C   0  0  0  0  0  0  0  0  0  0  0  0
   27.7298  -19.3657   -6.2969 C   0  0  0  0  0  0  0  0  0  0  0  0
   28.0643  -20.1759   -7.3619 C   0  0  0  0  0  0  0  0  0  0  0  0
   23.9616  -21.1036   -9.6928 C   0  0  0  0  0  0  0  0  0  0  0  0
   23.0325  -20.5279  -10.3332 O   0  0  0  0  0  0  0  0  0  0  0  0
   23.5078  -21.9486   -8.6639 O   0  0  0  0  0  0  0  0  0  0  0  0
  2  1  1  1
  3  2  1  0
  4  2  1  0
  5  4  1  0
  5  6  1  6
  7  5  1  0
  7  8  2  0
  9  7  1  0
 10  9  1  0
 10 11  1  6
 11 12  1  0
 12 13  1  0
 13 17  1  0
 14 13  2  0
 15 10  1  0
 16 15  2  0
 18 15  1  0
 19 18  1  0
 19 20  1  1
 20 21  1  0
 21 29  1  0
 22 21  2  0
 22 23  1  0
 23 24  1  0
 24 25  1  0
 25 26  2  0
 27 26  1  0
 28 27  2  0
 29 24  2  0
 29 28  1  0
 30 32  1  0
 30 19  1  0
 31 30  2  0
M  END
$$$$
