LEW.pdb
     RDKit          3D

 32 33  0  0  1  0  0  0  0  0999 V2000
   29.9232  -18.1913  -16.8539 C   0  0  0  0  0  0  0  0  0  0  0  0
   28.8540  -17.1766  -16.6550 C   0  0  2  0  0  0  0  0  0  0  0  0
   29.5290  -15.8750  -16.2214 C   0  0  0  0  0  0  0  0  0  0  0  0
   27.8216  -17.4981  -15.6538 C   0  0  0  0  0  0  0  0  0  0  0  0
   27.1219  -18.7970  -15.7486 C   0  0  2  0  0  0  0  0  0  0  0  0
   26.5801  -19.1470  -17.0221 N   0  0  0  0  0  0  0  0  0  0  0  0
   26.1677  -19.0699  -14.6239 C   0  0  0  0  0  0  0  0  0  0  0  0
   25.4473  -18.1281  -14.1707 O   0  0  0  0  0  0  0  0  0  0  0  0
   26.0322  -20.3470  -14.0358 N   0  0  0  0  0  0  0  0  0  0  0  0
   25.0261  -20.6283  -12.9576 C   0  0  1  0  0  0  0  0  0  0  0  0
   23.9781  -21.4881  -13.5189 C   0  0  0  0  0  0  0  0  0  0  0  0
   22.6390  -21.5860  -12.9405 C   0  0  0  0  0  0  0  0  0  0  0  0
   21.8615  -20.3325  -12.8208 C   0  0  0  0  0  0  0  0  0  0  0  0
   21.9388  -19.5467  -13.8280 O   0  0  0  0  0  0  0  0  0  0  0  0
   25.6855  -20.8716  -11.7080 C   0  0  0  0  0  0  0  0  0  0  0  0
   26.4456  -21.9103  -11.6307 O   0  0  0  0  0  0  0  0  0  0  0  0
   21.0976  -20.0003  -11.7275 O   0  0  0  0  0  0  0  0  0  0  0  0
   25.6238  -20.0941  -10.5185 N   0  0  0  0  0  0  0  0  0  0  0  0
   25.8137  -20.7239   -9.2028 C   0  0  1  0  0  0  0  0  0  0  0  0
   26.4979  -19.7123   -8.3104 C   0  0  0  0  0  0  0  0  0  0  0  0
   27.7407  -20.1466   -7.6945 C   0  0  0  0  0  0  0  0  0  0  0  0
   28.7024  -21.0236   -8.2070 C   0  0  0  0  0  0  0  0  0  0  0  0
   29.6603  -21.1628   -7.3059 N   0  0  0  0  0  0  0  0  0  0  0  0
   29.4078  -20.4295   -6.2053 C   0  0  0  0  0  0  0  0  0  0  0  0
   30.1036  -20.2395   -5.0350 C   0  0  0  0  0  0  0  0  0  0  0  0
   29.6016  -19.3961   -4.0747 C   0  0  0  0  0  0  0  0  0  0  0  0
   28.3902  -18.7442   -4.3034 C   0  0  0  0  0  0  0  0  0  0  0  0
   27.6878  -18.9282   -5.4692 C   0  0  0  0  0  0  0  0  0  0  0  0
   28.1911  -19.7757   -6.4339 C   0  0  0  0  0  0  0  0  0  0  0  0
   24.5801  -21.1956   -8.6504 C   0  0  0  0  0  0  0  0  0  0  0  0
   23.4252  -20.9405   -9.1041 O   0  0  0  0  0  0  0  0  0  0  0  0
   24.5769  -22.0173   -7.5087 O   0  0  0  0  0  0  0  0  0  0  0  0
  2  1  1  1
  3  2  1  0
  4  2  1  0
  5  4  1  0
  5  6  1  6
  7  5  1  0
  7  8  2  0
  9  7  1  0
 10  9  1  0
 10 11  1  6
 11 12  1  0
 12 13  1  0
 13 17  1  0
 14 13  2  0
 15 10  1  0
 16 15  2  0
 18 15  1  0
 19 18  1  0
 19 20  1  1
 20 21  1  0
 21 29  1  0
 22 21  2  0
 22 23  1  0
 23 24  1  0
 24 25  1  0
 25 26  2  0
 27 26  1  0
 28 27  2  0
 29 24  2  0
 29 28  1  0
 30 32  1  0
 30 19  1  0
 31 30  2  0
M  END
$$$$
