LEW.pdb
     RDKit          3D

 32 33  0  0  1  0  0  0  0  0999 V2000
   29.7199  -18.2271  -17.1109 C   0  0  0  0  0  0  0  0  0  0  0  0
   28.4131  -17.5184  -17.0666 C   0  0  2  0  0  0  0  0  0  0  0  0
   28.6915  -16.0264  -17.2514 C   0  0  0  0  0  0  0  0  0  0  0  0
   27.6228  -17.6746  -15.8326 C   0  0  0  0  0  0  0  0  0  0  0  0
   27.7047  -18.9534  -15.0951 C   0  0  2  0  0  0  0  0  0  0  0  0
   27.7504  -20.1474  -15.8763 N   0  0  0  0  0  0  0  0  0  0  0  0
   26.7590  -19.0614  -13.9359 C   0  0  0  0  0  0  0  0  0  0  0  0
   26.4960  -18.0306  -13.2433 O   0  0  0  0  0  0  0  0  0  0  0  0
   26.1379  -20.2771  -13.5731 N   0  0  0  0  0  0  0  0  0  0  0  0
   25.0109  -20.3352  -12.5831 C   0  0  1  0  0  0  0  0  0  0  0  0
   23.8182  -20.8404  -13.2723 C   0  0  0  0  0  0  0  0  0  0  0  0
   22.8084  -19.9600  -13.8576 C   0  0  0  0  0  0  0  0  0  0  0  0
   21.6543  -19.5956  -13.0058 C   0  0  0  0  0  0  0  0  0  0  0  0
   21.7086  -20.0287  -11.8028 O   0  0  0  0  0  0  0  0  0  0  0  0
   25.4790  -20.8230  -11.3188 C   0  0  0  0  0  0  0  0  0  0  0  0
   26.0951  -21.9557  -11.3113 O   0  0  0  0  0  0  0  0  0  0  0  0
   20.5850  -18.8466  -13.4354 O   0  0  0  0  0  0  0  0  0  0  0  0
   25.3654  -20.2031  -10.0436 N   0  0  0  0  0  0  0  0  0  0  0  0
   25.7706  -20.9202   -8.8249 C   0  0  1  0  0  0  0  0  0  0  0  0
   26.8468  -20.0978   -8.1515 C   0  0  0  0  0  0  0  0  0  0  0  0
   27.1128  -20.4179   -6.7590 C   0  0  0  0  0  0  0  0  0  0  0  0
   26.5622  -21.4446   -5.9848 C   0  0  0  0  0  0  0  0  0  0  0  0
   27.0603  -21.3566   -4.7628 N   0  0  0  0  0  0  0  0  0  0  0  0
   27.9214  -20.3270   -4.6579 C   0  0  0  0  0  0  0  0  0  0  0  0
   28.6856  -19.8566   -3.6163 C   0  0  0  0  0  0  0  0  0  0  0  0
   29.5088  -18.7750   -3.8112 C   0  0  0  0  0  0  0  0  0  0  0  0
   29.5560  -18.1696   -5.0667 C   0  0  0  0  0  0  0  0  0  0  0  0
   28.7959  -18.6321   -6.1129 C   0  0  0  0  0  0  0  0  0  0  0  0
   27.9683  -19.7180   -5.9177 C   0  0  0  0  0  0  0  0  0  0  0  0
   24.6594  -21.1807   -7.9608 C   0  0  0  0  0  0  0  0  0  0  0  0
   24.7174  -21.7841   -6.8485 O   0  0  0  0  0  0  0  0  0  0  0  0
   23.3654  -20.7572   -8.3144 O   0  0  0  0  0  0  0  0  0  0  0  0
  2  1  1  1
  3  2  1  0
  4  2  1  0
  5  4  1  0
  5  6  1  6
  7  5  1  0
  7  8  2  0
  9  7  1  0
 10  9  1  0
 10 11  1  6
 11 12  1  0
 12 13  1  0
 13 17  1  0
 14 13  2  0
 15 10  1  0
 16 15  2  0
 18 15  1  0
 19 18  1  0
 19 20  1  1
 20 21  1  0
 21 29  1  0
 22 21  2  0
 22 23  1  0
 23 24  1  0
 24 25  1  0
 25 26  2  0
 27 26  1  0
 28 27  2  0
 29 24  2  0
 29 28  1  0
 30 32  1  0
 30 19  1  0
 31 30  2  0
M  END
$$$$
