LEW.pdb
     RDKit          3D

 32 33  0  0  1  0  0  0  0  0999 V2000
   28.5158  -23.5776  -17.5583 C   0  0  0  0  0  0  0  0  0  0  0  0
   29.3663  -22.4291  -17.1466 C   0  0  2  0  0  0  0  0  0  0  0  0
   30.6642  -22.9989  -16.5735 C   0  0  0  0  0  0  0  0  0  0  0  0
   28.7963  -21.5179  -16.1384 C   0  0  0  0  0  0  0  0  0  0  0  0
   27.4748  -20.9087  -16.3995 C   0  0  2  0  0  0  0  0  0  0  0  0
   27.4051  -19.9428  -17.4484 N   0  0  0  0  0  0  0  0  0  0  0  0
   26.7398  -20.4721  -15.1670 C   0  0  0  0  0  0  0  0  0  0  0  0
   26.8726  -19.2817  -14.7466 O   0  0  0  0  0  0  0  0  0  0  0  0
   25.8935  -21.3388  -14.4404 N   0  0  0  0  0  0  0  0  0  0  0  0
   25.1159  -20.8780  -13.2418 C   0  0  1  0  0  0  0  0  0  0  0  0
   23.6883  -20.9096  -13.5792 C   0  0  0  0  0  0  0  0  0  0  0  0
   22.6373  -20.6158  -12.6064 C   0  0  0  0  0  0  0  0  0  0  0  0
   22.2016  -19.2065  -12.4874 C   0  0  0  0  0  0  0  0  0  0  0  0
   22.1374  -18.5625  -13.5915 O   0  0  0  0  0  0  0  0  0  0  0  0
   25.6731  -21.4285  -12.0410 C   0  0  0  0  0  0  0  0  0  0  0  0
   25.9423  -22.6895  -12.0357 O   0  0  0  0  0  0  0  0  0  0  0  0
   21.8774  -18.5972  -11.2988 O   0  0  0  0  0  0  0  0  0  0  0  0
   25.9903  -20.7510  -10.8311 N   0  0  0  0  0  0  0  0  0  0  0  0
   26.2026  -21.5045   -9.5858 C   0  0  1  0  0  0  0  0  0  0  0  0
   27.5889  -21.1676   -9.0829 C   0  0  0  0  0  0  0  0  0  0  0  0
   27.6555  -20.1832   -8.0157 C   0  0  0  0  0  0  0  0  0  0  0  0
   26.9372  -18.9894   -7.8911 C   0  0  0  0  0  0  0  0  0  0  0  0
   27.3272  -18.3834   -6.7822 N   0  0  0  0  0  0  0  0  0  0  0  0
   28.2721  -19.0964   -6.1407 C   0  0  0  0  0  0  0  0  0  0  0  0
   28.9552  -18.8896   -4.9657 C   0  0  0  0  0  0  0  0  0  0  0  0
   29.8680  -19.8214   -4.5367 C   0  0  0  0  0  0  0  0  0  0  0  0
   30.0877  -20.9658   -5.3028 C   0  0  0  0  0  0  0  0  0  0  0  0
   29.4105  -21.1808   -6.4781 C   0  0  0  0  0  0  0  0  0  0  0  0
   28.4940  -20.2449   -6.9100 C   0  0  0  0  0  0  0  0  0  0  0  0
   25.1868  -21.2333   -8.6143 C   0  0  0  0  0  0  0  0  0  0  0  0
   25.1231  -21.7394   -7.4548 O   0  0  0  0  0  0  0  0  0  0  0  0
   24.1418  -20.3376   -8.9050 O   0  0  0  0  0  0  0  0  0  0  0  0
  2  1  1  1
  3  2  1  0
  4  2  1  0
  5  4  1  0
  5  6  1  6
  7  5  1  0
  7  8  2  0
  9  7  1  0
 10  9  1  0
 10 11  1  6
 11 12  1  0
 12 13  1  0
 13 17  1  0
 14 13  2  0
 15 10  1  0
 16 15  2  0
 18 15  1  0
 19 18  1  0
 19 20  1  1
 20 21  1  0
 21 29  1  0
 22 21  2  0
 22 23  1  0
 23 24  1  0
 24 25  1  0
 25 26  2  0
 27 26  1  0
 28 27  2  0
 29 24  2  0
 29 28  1  0
 30 32  1  0
 30 19  1  0
 31 30  2  0
M  END
$$$$
