LEW.pdb
     RDKit          3D

 32 33  0  0  1  0  0  0  0  0999 V2000
   28.5787  -18.2348  -17.0173 C   0  0  0  0  0  0  0  0  0  0  0  0
   27.9831  -16.8856  -16.8246 C   0  0  2  0  0  0  0  0  0  0  0  0
   28.9271  -16.0897  -15.9228 C   0  0  0  0  0  0  0  0  0  0  0  0
   26.6419  -16.8406  -16.2158 C   0  0  0  0  0  0  0  0  0  0  0  0
   25.6637  -17.8887  -16.5768 C   0  0  2  0  0  0  0  0  0  0  0  0
   24.8452  -17.6417  -17.7200 N   0  0  0  0  0  0  0  0  0  0  0  0
   24.8822  -18.4320  -15.4175 C   0  0  0  0  0  0  0  0  0  0  0  0
   24.2971  -17.6310  -14.6254 O   0  0  0  0  0  0  0  0  0  0  0  0
   24.7660  -19.8164  -15.1620 N   0  0  0  0  0  0  0  0  0  0  0  0
   23.8654  -20.3591  -14.0905 C   0  0  1  0  0  0  0  0  0  0  0  0
   22.9691  -21.3481  -14.6998 C   0  0  0  0  0  0  0  0  0  0  0  0
   21.9808  -22.1022  -13.9305 C   0  0  0  0  0  0  0  0  0  0  0  0
   20.7623  -21.3791  -13.5031 C   0  0  0  0  0  0  0  0  0  0  0  0
   20.1854  -20.6973  -14.4197 O   0  0  0  0  0  0  0  0  0  0  0  0
   24.6014  -20.5758  -12.8794 C   0  0  0  0  0  0  0  0  0  0  0  0
   25.6645  -21.3016  -12.9531 O   0  0  0  0  0  0  0  0  0  0  0  0
   20.2527  -21.4136  -12.2271 O   0  0  0  0  0  0  0  0  0  0  0  0
   24.3174  -20.0732  -11.5793 N   0  0  0  0  0  0  0  0  0  0  0  0
   24.8938  -20.7144  -10.3875 C   0  0  1  0  0  0  0  0  0  0  0  0
   25.8319  -19.7168   -9.7450 C   0  0  0  0  0  0  0  0  0  0  0  0
   27.1526  -20.2168   -9.4017 C   0  0  0  0  0  0  0  0  0  0  0  0
   27.9854  -21.0530  -10.1527 C   0  0  0  0  0  0  0  0  0  0  0  0
   29.0841  -21.2824   -9.4531 N   0  0  0  0  0  0  0  0  0  0  0  0
   29.0497  -20.6493   -8.2654 C   0  0  0  0  0  0  0  0  0  0  0  0
   29.9467  -20.5726   -7.2264 C   0  0  0  0  0  0  0  0  0  0  0  0
   29.6447  -19.8148   -6.1218 C   0  0  0  0  0  0  0  0  0  0  0  0
   28.4290  -19.1333   -6.0723 C   0  0  0  0  0  0  0  0  0  0  0  0
   27.5265  -19.2043   -7.1051 C   0  0  0  0  0  0  0  0  0  0  0  0
   27.8288  -19.9659   -8.2146 C   0  0  0  0  0  0  0  0  0  0  0  0
   23.8834  -21.1760   -9.4846 C   0  0  0  0  0  0  0  0  0  0  0  0
   22.6360  -21.0066   -9.6268 O   0  0  0  0  0  0  0  0  0  0  0  0
   24.2348  -21.8859   -8.3222 O   0  0  0  0  0  0  0  0  0  0  0  0
  2  1  1  1
  3  2  1  0
  4  2  1  0
  5  4  1  0
  5  6  1  6
  7  5  1  0
  7  8  2  0
  9  7  1  0
 10  9  1  0
 10 11  1  6
 11 12  1  0
 12 13  1  0
 13 17  1  0
 14 13  2  0
 15 10  1  0
 16 15  2  0
 18 15  1  0
 19 18  1  0
 19 20  1  1
 20 21  1  0
 21 29  1  0
 22 21  2  0
 22 23  1  0
 23 24  1  0
 24 25  1  0
 25 26  2  0
 27 26  1  0
 28 27  2  0
 29 24  2  0
 29 28  1  0
 30 32  1  0
 30 19  1  0
 31 30  2  0
M  END
$$$$
