LEW.pdb
     RDKit          3D

 32 33  0  0  1  0  0  0  0  0999 V2000
   29.7155  -18.0508  -14.8963 C   0  0  0  0  0  0  0  0  0  0  0  0
   28.3837  -18.5660  -15.3124 C   0  0  2  0  0  0  0  0  0  0  0  0
   27.8371  -17.6198  -16.3818 C   0  0  0  0  0  0  0  0  0  0  0  0
   27.3638  -18.6798  -14.2548 C   0  0  0  0  0  0  0  0  0  0  0  0
   26.1944  -19.5537  -14.4883 C   0  0  2  0  0  0  0  0  0  0  0  0
   25.5212  -19.4108  -15.7391 N   0  0  0  0  0  0  0  0  0  0  0  0
   25.2440  -19.6389  -13.3310 C   0  0  0  0  0  0  0  0  0  0  0  0
   24.6378  -18.5945  -12.9396 O   0  0  0  0  0  0  0  0  0  0  0  0
   24.9890  -20.8470  -12.6450 N   0  0  0  0  0  0  0  0  0  0  0  0
   23.9731  -20.9423  -11.5438 C   0  0  1  0  0  0  0  0  0  0  0  0
   22.8021  -21.6608  -12.0587 C   0  0  0  0  0  0  0  0  0  0  0  0
   21.8335  -21.0497  -12.9673 C   0  0  0  0  0  0  0  0  0  0  0  0
   21.6185  -19.5907  -12.8440 C   0  0  0  0  0  0  0  0  0  0  0  0
   21.1471  -19.2041  -11.7187 O   0  0  0  0  0  0  0  0  0  0  0  0
   24.6137  -21.2345  -10.2949 C   0  0  0  0  0  0  0  0  0  0  0  0
   25.4311  -22.2313  -10.2664 O   0  0  0  0  0  0  0  0  0  0  0  0
   21.8947  -18.6836  -13.8390 O   0  0  0  0  0  0  0  0  0  0  0  0
   24.4765  -20.5466   -9.0574 N   0  0  0  0  0  0  0  0  0  0  0  0
   24.9002  -21.1797   -7.7991 C   0  0  1  0  0  0  0  0  0  0  0  0
   25.3040  -20.0742   -6.8489 C   0  0  0  0  0  0  0  0  0  0  0  0
   26.6462  -19.5450   -7.0239 C   0  0  0  0  0  0  0  0  0  0  0  0
   27.2380  -19.0508   -8.1910 C   0  0  0  0  0  0  0  0  0  0  0  0
   28.4813  -18.6984   -7.9095 N   0  0  0  0  0  0  0  0  0  0  0  0
   28.7730  -18.9237   -6.6146 C   0  0  0  0  0  0  0  0  0  0  0  0
   29.9052  -18.7073   -5.8654 C   0  0  0  0  0  0  0  0  0  0  0  0
   29.9063  -19.0212   -4.5286 C   0  0  0  0  0  0  0  0  0  0  0  0
   28.7550  -19.5561   -3.9514 C   0  0  0  0  0  0  0  0  0  0  0  0
   27.6195  -19.7762   -4.6918 C   0  0  0  0  0  0  0  0  0  0  0  0
   27.6179  -19.4618   -6.0348 C   0  0  0  0  0  0  0  0  0  0  0  0
   23.8817  -22.0253   -7.2542 C   0  0  0  0  0  0  0  0  0  0  0  0
   22.6486  -21.9701   -7.5392 O   0  0  0  0  0  0  0  0  0  0  0  0
   24.2078  -23.0243   -6.3191 O   0  0  0  0  0  0  0  0  0  0  0  0
  2  1  1  1
  3  2  1  0
  4  2  1  0
  5  4  1  0
  5  6  1  6
  7  5  1  0
  7  8  2  0
  9  7  1  0
 10  9  1  0
 10 11  1  6
 11 12  1  0
 12 13  1  0
 13 17  1  0
 14 13  2  0
 15 10  1  0
 16 15  2  0
 18 15  1  0
 19 18  1  0
 19 20  1  1
 20 21  1  0
 21 29  1  0
 22 21  2  0
 22 23  1  0
 23 24  1  0
 24 25  1  0
 25 26  2  0
 27 26  1  0
 28 27  2  0
 29 24  2  0
 29 28  1  0
 30 32  1  0
 30 19  1  0
 31 30  2  0
M  END
$$$$
