LEW.pdb
     RDKit          3D

 32 33  0  0  1  0  0  0  0  0999 V2000
   33.0707  -25.5837  -15.5996 C   0  0  0  0  0  0  0  0  0  0  0  0
   32.0516  -25.2075  -16.6154 C   0  0  2  0  0  0  0  0  0  0  0  0
   32.7176  -25.2909  -17.9892 C   0  0  0  0  0  0  0  0  0  0  0  0
   31.4617  -23.8632  -16.4873 C   0  0  0  0  0  0  0  0  0  0  0  0
   30.4150  -23.4535  -17.4477 C   0  0  2  0  0  0  0  0  0  0  0  0
   30.8225  -23.2566  -18.8016 N   0  0  0  0  0  0  0  0  0  0  0  0
   29.5153  -22.3597  -16.9539 C   0  0  0  0  0  0  0  0  0  0  0  0
   29.8589  -21.1475  -17.1089 O   0  0  0  0  0  0  0  0  0  0  0  0
   28.2837  -22.6204  -16.3132 N   0  0  0  0  0  0  0  0  0  0  0  0
   27.3996  -21.5202  -15.8016 C   0  0  1  0  0  0  0  0  0  0  0  0
   26.5298  -21.0809  -16.8985 C   0  0  0  0  0  0  0  0  0  0  0  0
   25.4324  -20.1338  -16.7093 C   0  0  0  0  0  0  0  0  0  0  0  0
   24.0731  -20.6974  -16.5517 C   0  0  0  0  0  0  0  0  0  0  0  0
   23.3007  -20.0424  -15.7692 O   0  0  0  0  0  0  0  0  0  0  0  0
   26.9383  -21.8223  -14.4782 C   0  0  0  0  0  0  0  0  0  0  0  0
   26.9186  -23.0625  -14.1255 O   0  0  0  0  0  0  0  0  0  0  0  0
   23.6322  -21.8357  -17.1833 O   0  0  0  0  0  0  0  0  0  0  0  0
   26.5033  -20.9147  -13.4731 N   0  0  0  0  0  0  0  0  0  0  0  0
   26.0188  -21.4114  -12.1761 C   0  0  1  0  0  0  0  0  0  0  0  0
   27.1240  -21.1952  -11.1662 C   0  0  0  0  0  0  0  0  0  0  0  0
   26.6967  -20.8357   -9.8244 C   0  0  0  0  0  0  0  0  0  0  0  0
   25.3976  -20.6018   -9.3614 C   0  0  0  0  0  0  0  0  0  0  0  0
   25.4651  -20.2742   -8.0819 N   0  0  0  0  0  0  0  0  0  0  0  0
   26.7380  -20.2713   -7.6434 C   0  0  0  0  0  0  0  0  0  0  0  0
   27.2970  -20.0177   -6.4132 C   0  0  0  0  0  0  0  0  0  0  0  0
   28.6571  -20.1143   -6.2514 C   0  0  0  0  0  0  0  0  0  0  0  0
   29.4514  -20.4692   -7.3414 C   0  0  0  0  0  0  0  0  0  0  0  0
   28.9021  -20.7238   -8.5741 C   0  0  0  0  0  0  0  0  0  0  0  0
   27.5360  -20.6263   -8.7375 C   0  0  0  0  0  0  0  0  0  0  0  0
   24.7912  -20.7865  -11.7866 C   0  0  0  0  0  0  0  0  0  0  0  0
   24.4155  -19.6258  -12.1275 O   0  0  0  0  0  0  0  0  0  0  0  0
   23.8776  -21.4623  -10.9574 O   0  0  0  0  0  0  0  0  0  0  0  0
  2  1  1  1
  3  2  1  0
  4  2  1  0
  5  4  1  0
  5  6  1  6
  7  5  1  0
  7  8  2  0
  9  7  1  0
 10  9  1  0
 10 11  1  6
 11 12  1  0
 12 13  1  0
 13 17  1  0
 14 13  2  0
 15 10  1  0
 16 15  2  0
 18 15  1  0
 19 18  1  0
 19 20  1  1
 20 21  1  0
 21 29  1  0
 22 21  2  0
 22 23  1  0
 23 24  1  0
 24 25  1  0
 25 26  2  0
 27 26  1  0
 28 27  2  0
 29 24  2  0
 29 28  1  0
 30 32  1  0
 30 19  1  0
 31 30  2  0
M  END
$$$$
