NAG.pdb
     RDKit          3D

 18 17  0  0  1  0  0  0  0  0999 V2000
   18.0300  -14.0691  -15.1074 N   0  0  0  0  0  0  0  0  0  0  0  0
   17.5190  -12.8137  -15.5227 C   0  0  0  0  0  0  0  0  0  0  0  0
   16.3540  -12.6941  -15.9781 O   0  0  0  0  0  0  0  0  0  0  0  0
   18.3641  -11.5956  -15.4261 C   0  0  0  0  0  0  0  0  0  0  0  0
   18.5913  -10.9871  -16.8098 C   0  0  2  0  0  0  0  0  0  0  0  0
   19.4432  -11.8086  -17.6166 N   0  0  0  0  0  0  0  0  0  0  0  0
   19.2381   -9.6747  -16.5843 C   0  0  0  0  0  0  0  0  0  0  0  0
   20.4711   -9.6574  -16.3444 O   0  0  0  0  0  0  0  0  0  0  0  0
   18.2922   -6.1147  -16.9617 C   0  0  0  0  0  0  0  0  0  0  0  0
   19.2379   -7.2255  -16.5120 C   0  0  2  0  0  0  0  0  0  0  0  0
   18.5185   -8.4498  -16.6300 N   0  0  0  0  0  0  0  0  0  0  0  0
   19.7205   -6.9453  -15.1500 C   0  0  0  0  0  0  0  0  0  0  0  0
   19.1795   -7.4459  -14.1337 O   0  0  0  0  0  0  0  0  0  0  0  0
   20.8366   -6.0772  -15.0032 N   0  0  0  0  0  0  0  0  0  0  0  0
   21.4894   -5.8606  -13.7264 C   0  0  0  0  0  0  0  0  0  0  0  0
   22.5855   -4.9035  -13.9010 C   0  0  0  0  0  0  0  0  0  0  0  0
   23.0244   -4.5935  -15.0429 O   0  0  0  0  0  0  0  0  0  0  0  0
   23.1733   -4.3092  -12.8063 O   0  0  0  0  0  0  0  0  0  0  0  0
  2  1  1  0
  3  2  2  0
  4  2  1  0
  5  4  1  0
  5  6  1  6
  7  5  1  0
  8  7  2  0
 10  9  1  1
 10 12  1  0
 10 11  1  0
 11  7  1  0
 12 13  2  0
 14 15  1  0
 14 12  1  0
 15 16  1  0
 16 17  2  0
 16 18  1  0
M  END
$$$$
