NAG.pdb
     RDKit          3D

 18 17  0  0  1  0  0  0  0  0999 V2000
   19.7598  -13.1137  -16.3061 N   0  0  0  0  0  0  0  0  0  0  0  0
   19.4665  -12.2629  -17.4014 C   0  0  0  0  0  0  0  0  0  0  0  0
   19.2930  -12.7162  -18.5604 O   0  0  0  0  0  0  0  0  0  0  0  0
   19.3567  -10.7954  -17.1972 C   0  0  0  0  0  0  0  0  0  0  0  0
   19.5708  -10.4392  -15.7261 C   0  0  2  0  0  0  0  0  0  0  0  0
   18.4647  -10.8512  -14.9148 N   0  0  0  0  0  0  0  0  0  0  0  0
   19.7031   -8.9658  -15.6715 C   0  0  0  0  0  0  0  0  0  0  0  0
   20.6923   -8.4402  -16.2403 O   0  0  0  0  0  0  0  0  0  0  0  0
   17.6913   -6.0895  -14.4778 C   0  0  0  0  0  0  0  0  0  0  0  0
   18.9887   -6.7318  -14.9622 C   0  0  2  0  0  0  0  0  0  0  0  0
   18.7596   -8.1376  -15.0050 N   0  0  0  0  0  0  0  0  0  0  0  0
   20.0986   -6.3343  -14.0810 C   0  0  0  0  0  0  0  0  0  0  0  0
   20.4915   -7.0584  -13.1337 O   0  0  0  0  0  0  0  0  0  0  0  0
   20.7323   -5.0860  -14.3282 N   0  0  0  0  0  0  0  0  0  0  0  0
   21.8394   -4.6044  -13.5247 C   0  0  0  0  0  0  0  0  0  0  0  0
   22.2430   -3.2795  -14.0038 C   0  0  0  0  0  0  0  0  0  0  0  0
   21.7856   -2.7893  -15.0730 O   0  0  0  0  0  0  0  0  0  0  0  0
   23.1456   -2.5244  -13.2883 O   0  0  0  0  0  0  0  0  0  0  0  0
  2  1  1  0
  3  2  2  0
  4  2  1  0
  5  4  1  0
  5  6  1  1
  7  5  1  0
  8  7  2  0
 10  9  1  1
 10 12  1  0
 10 11  1  0
 11  7  1  0
 12 13  2  0
 14 15  1  0
 14 12  1  0
 15 16  1  0
 16 17  2  0
 16 18  1  0
M  END
$$$$
