NAG.pdb
     RDKit          3D

 18 17  0  0  1  0  0  0  0  0999 V2000
   16.3608  -11.2351  -18.8839 N   0  0  0  0  0  0  0  0  0  0  0  0
   17.7150  -11.0996  -18.4872 C   0  0  0  0  0  0  0  0  0  0  0  0
   18.6327  -11.7566  -19.0395 O   0  0  0  0  0  0  0  0  0  0  0  0
   18.0815  -10.1634  -17.3934 C   0  0  0  0  0  0  0  0  0  0  0  0
   19.0832  -10.8150  -16.4402 C   0  0  2  0  0  0  0  0  0  0  0  0
   18.4558  -11.7865  -15.5952 N   0  0  0  0  0  0  0  0  0  0  0  0
   19.6375   -9.7215  -15.6105 C   0  0  0  0  0  0  0  0  0  0  0  0
   18.8417   -9.0566  -14.9013 O   0  0  0  0  0  0  0  0  0  0  0  0
   22.8483   -8.8186  -14.1980 C   0  0  0  0  0  0  0  0  0  0  0  0
   21.4800   -8.3787  -14.7127 C   0  0  2  0  0  0  0  0  0  0  0  0
   21.0228   -9.4037  -15.5905 N   0  0  0  0  0  0  0  0  0  0  0  0
   21.5904   -7.0549  -15.3466 C   0  0  0  0  0  0  0  0  0  0  0  0
   22.0219   -6.9085  -16.5164 O   0  0  0  0  0  0  0  0  0  0  0  0
   21.1899   -5.9186  -14.5921 N   0  0  0  0  0  0  0  0  0  0  0  0
   21.2886   -4.5679  -15.1108 C   0  0  0  0  0  0  0  0  0  0  0  0
   20.8025   -3.6256  -14.0989 C   0  0  0  0  0  0  0  0  0  0  0  0
   20.2322   -4.0166  -13.0431 O   0  0  0  0  0  0  0  0  0  0  0  0
   20.9583   -2.2689  -14.2775 O   0  0  0  0  0  0  0  0  0  0  0  0
  2  1  1  0
  3  2  2  0
  4  2  1  0
  5  4  1  0
  5  6  1  1
  7  5  1  0
  8  7  2  0
 10  9  1  6
 10 12  1  0
 10 11  1  0
 11  7  1  0
 12 13  2  0
 14 15  1  0
 14 12  1  0
 15 16  1  0
 16 17  2  0
 16 18  1  0
M  END
$$$$
