NAG.pdb
     RDKit          3D

 18 17  0  0  1  0  0  0  0  0999 V2000
   26.0590  -13.6305  -16.9679 N   0  0  0  0  0  0  0  0  0  0  0  0
   25.0314  -13.0862  -16.1572 C   0  0  0  0  0  0  0  0  0  0  0  0
   24.5326  -13.7328  -15.2023 O   0  0  0  0  0  0  0  0  0  0  0  0
   24.5158  -11.7187  -16.4250 C   0  0  0  0  0  0  0  0  0  0  0  0
   23.0328  -11.7651  -16.7924 C   0  0  2  0  0  0  0  0  0  0  0  0
   22.8272  -12.3181  -18.0975 N   0  0  0  0  0  0  0  0  0  0  0  0
   22.5557  -10.3639  -16.7678 C   0  0  0  0  0  0  0  0  0  0  0  0
   23.1491   -9.5251  -17.4908 O   0  0  0  0  0  0  0  0  0  0  0  0
   19.5208   -8.6013  -15.7498 C   0  0  0  0  0  0  0  0  0  0  0  0
   21.0147   -8.5935  -16.0642 C   0  0  2  0  0  0  0  0  0  0  0  0
   21.4623   -9.9425  -15.9632 N   0  0  0  0  0  0  0  0  0  0  0  0
   21.7080   -7.6648  -15.1569 C   0  0  0  0  0  0  0  0  0  0  0  0
   22.2253   -8.0461  -14.0785 O   0  0  0  0  0  0  0  0  0  0  0  0
   21.7828   -6.2959  -15.5332 N   0  0  0  0  0  0  0  0  0  0  0  0
   22.5164   -5.3158  -14.7558 C   0  0  0  0  0  0  0  0  0  0  0  0
   21.5864   -4.6050  -13.8739 C   0  0  0  0  0  0  0  0  0  0  0  0
   20.3533   -4.8728  -13.8504 O   0  0  0  0  0  0  0  0  0  0  0  0
   22.0417   -3.6115  -13.0357 O   0  0  0  0  0  0  0  0  0  0  0  0
  2  1  1  0
  3  2  2  0
  4  2  1  0
  5  4  1  0
  5  6  1  6
  7  5  1  0
  8  7  2  0
 10  9  1  1
 10 12  1  0
 10 11  1  0
 11  7  1  0
 12 13  2  0
 14 15  1  0
 14 12  1  0
 15 16  1  0
 16 17  2  0
 16 18  1  0
M  END
$$$$
