NAG.pdb
     RDKit          3D

 18 17  0  0  1  0  0  0  0  0999 V2000
   12.9879  -10.9728   -9.1727 N   0  0  0  0  0  0  0  0  0  0  0  0
   13.7306  -11.0391  -10.3783 C   0  0  0  0  0  0  0  0  0  0  0  0
   13.7957  -12.0957  -11.0553 O   0  0  0  0  0  0  0  0  0  0  0  0
   14.4581   -9.8418  -10.8729 C   0  0  0  0  0  0  0  0  0  0  0  0
   14.3620   -8.6984   -9.8629 C   0  0  2  0  0  0  0  0  0  0  0  0
   13.0373   -8.1575   -9.7993 N   0  0  0  0  0  0  0  0  0  0  0  0
   15.3014   -7.6536  -10.3290 C   0  0  0  0  0  0  0  0  0  0  0  0
   15.0312   -7.0505  -11.3974 O   0  0  0  0  0  0  0  0  0  0  0  0
   17.8126   -5.4399   -9.0409 C   0  0  0  0  0  0  0  0  0  0  0  0
   17.3757   -6.3577  -10.1799 C   0  0  2  0  0  0  0  0  0  0  0  0
   16.4837   -7.3153   -9.6161 N   0  0  0  0  0  0  0  0  0  0  0  0
   18.5602   -6.9506  -10.8217 C   0  0  0  0  0  0  0  0  0  0  0  0
   19.0159   -8.0691  -10.4792 O   0  0  0  0  0  0  0  0  0  0  0  0
   19.1936   -6.2159  -11.8610 N   0  0  0  0  0  0  0  0  0  0  0  0
   20.2969   -6.7553  -12.6322 C   0  0  0  0  0  0  0  0  0  0  0  0
   20.6457   -5.8134  -13.6996 C   0  0  0  0  0  0  0  0  0  0  0  0
   19.9100   -4.8290  -13.9867 O   0  0  0  0  0  0  0  0  0  0  0  0
   21.8028   -5.9816  -14.4274 O   0  0  0  0  0  0  0  0  0  0  0  0
  2  1  1  0
  3  2  2  0
  4  2  1  0
  5  4  1  0
  5  6  1  6
  7  5  1  0
  8  7  2  0
 10  9  1  1
 10 12  1  0
 10 11  1  0
 11  7  1  0
 12 13  2  0
 14 15  1  0
 14 12  1  0
 15 16  1  0
 16 17  2  0
 16 18  1  0
M  END
$$$$
