NAG.pdb
     RDKit          3D

 18 17  0  0  1  0  0  0  0  0999 V2000
   23.3532  -13.2443  -20.9555 N   0  0  0  0  0  0  0  0  0  0  0  0
   22.2986  -12.4112  -20.5046 C   0  0  0  0  0  0  0  0  0  0  0  0
   21.1849  -12.3845  -21.0858 O   0  0  0  0  0  0  0  0  0  0  0  0
   22.4924  -11.5396  -19.3171 C   0  0  0  0  0  0  0  0  0  0  0  0
   23.1399  -12.3224  -18.1749 C   0  0  2  0  0  0  0  0  0  0  0  0
   22.2673  -13.3385  -17.6674 N   0  0  0  0  0  0  0  0  0  0  0  0
   23.4263  -11.3374  -17.1075 C   0  0  0  0  0  0  0  0  0  0  0  0
   22.4646  -10.9211  -16.4146 O   0  0  0  0  0  0  0  0  0  0  0  0
   26.3986   -9.7686  -15.5507 C   0  0  0  0  0  0  0  0  0  0  0  0
   24.9078   -9.8244  -15.8746 C   0  0  2  0  0  0  0  0  0  0  0  0
   24.7369  -10.8540  -16.8448 N   0  0  0  0  0  0  0  0  0  0  0  0
   24.4472   -8.5000  -16.3221 C   0  0  0  0  0  0  0  0  0  0  0  0
   24.6729   -8.0704  -17.4799 O   0  0  0  0  0  0  0  0  0  0  0  0
   23.7251   -7.6974  -15.3972 N   0  0  0  0  0  0  0  0  0  0  0  0
   23.2406   -6.3721  -15.7318 C   0  0  0  0  0  0  0  0  0  0  0  0
   22.5508   -5.8030  -14.5706 C   0  0  0  0  0  0  0  0  0  0  0  0
   22.3711   -6.4651  -13.5113 O   0  0  0  0  0  0  0  0  0  0  0  0
   22.0740   -4.5114  -14.6068 O   0  0  0  0  0  0  0  0  0  0  0  0
  2  1  1  0
  3  2  2  0
  4  2  1  0
  5  4  1  0
  5  6  1  1
  7  5  1  0
  8  7  2  0
 10  9  1  6
 10 12  1  0
 10 11  1  0
 11  7  1  0
 12 13  2  0
 14 15  1  0
 14 12  1  0
 15 16  1  0
 16 17  2  0
 16 18  1  0
M  END
$$$$
