NAG.pdb
     RDKit          3D

 18 17  0  0  1  0  0  0  0  0999 V2000
   12.7670  -13.2690  -10.9038 N   0  0  0  0  0  0  0  0  0  0  0  0
   12.6800  -12.0384  -10.2056 C   0  0  0  0  0  0  0  0  0  0  0  0
   11.8982  -11.8856   -9.2338 O   0  0  0  0  0  0  0  0  0  0  0  0
   13.5248  -10.8870  -10.6156 C   0  0  0  0  0  0  0  0  0  0  0  0
   13.0566   -9.6043   -9.9285 C   0  0  2  0  0  0  0  0  0  0  0  0
   11.7764   -9.1812  -10.4119 N   0  0  0  0  0  0  0  0  0  0  0  0
   14.0702   -8.5721  -10.2427 C   0  0  0  0  0  0  0  0  0  0  0  0
   14.0900   -8.0986  -11.4061 O   0  0  0  0  0  0  0  0  0  0  0  0
   16.3919   -6.3802   -8.4317 C   0  0  0  0  0  0  0  0  0  0  0  0
   15.9865   -7.1502   -9.6860 C   0  0  2  0  0  0  0  0  0  0  0  0
   15.0094   -8.1058   -9.2830 N   0  0  0  0  0  0  0  0  0  0  0  0
   17.1796   -7.7435  -10.3114 C   0  0  0  0  0  0  0  0  0  0  0  0
   17.6613   -8.8371   -9.9267 O   0  0  0  0  0  0  0  0  0  0  0  0
   17.7905   -7.0388  -11.3842 N   0  0  0  0  0  0  0  0  0  0  0  0
   18.9502   -7.5503  -12.0889 C   0  0  0  0  0  0  0  0  0  0  0  0
   19.3655   -6.5785  -13.1043 C   0  0  0  0  0  0  0  0  0  0  0  0
   18.6613   -5.5709  -13.3903 O   0  0  0  0  0  0  0  0  0  0  0  0
   20.5529   -6.7428  -13.7825 O   0  0  0  0  0  0  0  0  0  0  0  0
  2  1  1  0
  3  2  2  0
  4  2  1  0
  5  4  1  0
  5  6  1  6
  7  5  1  0
  8  7  2  0
 10  9  1  1
 10 12  1  0
 10 11  1  0
 11  7  1  0
 12 13  2  0
 14 15  1  0
 14 12  1  0
 15 16  1  0
 16 17  2  0
 16 18  1  0
M  END
$$$$
