NAG.pdb
     RDKit          3D

 18 17  0  0  1  0  0  0  0  0999 V2000
   29.0761  -18.4147  -16.2818 N   0  0  0  0  0  0  0  0  0  0  0  0
   27.8320  -17.8670  -15.8796 C   0  0  0  0  0  0  0  0  0  0  0  0
   27.5250  -16.6744  -16.1293 O   0  0  0  0  0  0  0  0  0  0  0  0
   26.8511  -18.7056  -15.1433 C   0  0  0  0  0  0  0  0  0  0  0  0
   27.4532  -20.0704  -14.8098 C   0  0  2  0  0  0  0  0  0  0  0  0
   27.6949  -20.8457  -15.9896 N   0  0  0  0  0  0  0  0  0  0  0  0
   26.4617  -20.7635  -13.9565 C   0  0  0  0  0  0  0  0  0  0  0  0
   25.5887  -21.4696  -14.5199 O   0  0  0  0  0  0  0  0  0  0  0  0
   25.7954  -21.1827  -10.3281 C   0  0  0  0  0  0  0  0  0  0  0  0
   25.4053  -21.2595  -11.8020 C   0  0  2  0  0  0  0  0  0  0  0  0
   26.4657  -20.6572  -12.5390 N   0  0  0  0  0  0  0  0  0  0  0  0
   24.0972  -20.6154  -12.0034 C   0  0  0  0  0  0  0  0  0  0  0  0
   23.9794  -19.3741  -12.1499 O   0  0  0  0  0  0  0  0  0  0  0  0
   22.9426  -21.4443  -12.0294 N   0  0  0  0  0  0  0  0  0  0  0  0
   21.5993  -20.9028  -12.1035 C   0  0  0  0  0  0  0  0  0  0  0  0
   21.1970  -20.8002  -13.5091 C   0  0  0  0  0  0  0  0  0  0  0  0
   21.9500  -21.1812  -14.4475 O   0  0  0  0  0  0  0  0  0  0  0  0
   19.9683  -20.2773  -13.8464 O   0  0  0  0  0  0  0  0  0  0  0  0
  2  1  1  0
  3  2  2  0
  4  2  1  0
  5  4  1  0
  5  6  1  6
  7  5  1  0
  8  7  2  0
 10  9  1  1
 10 12  1  0
 10 11  1  0
 11  7  1  0
 12 13  2  0
 14 15  1  0
 14 12  1  0
 15 16  1  0
 16 17  2  0
 16 18  1  0
M  END
$$$$
