NAG.pdb
     RDKit          3D

 18 17  0  0  1  0  0  0  0  0999 V2000
   16.1445  -13.2480  -14.4778 N   0  0  0  0  0  0  0  0  0  0  0  0
   17.5238  -12.9211  -14.4992 C   0  0  0  0  0  0  0  0  0  0  0  0
   18.4124  -13.8059  -14.4204 O   0  0  0  0  0  0  0  0  0  0  0  0
   17.9523  -11.5034  -14.6169 C   0  0  0  0  0  0  0  0  0  0  0  0
   16.7377  -10.5779  -14.6855 C   0  0  2  0  0  0  0  0  0  0  0  0
   16.1047  -10.6285  -15.9693 N   0  0  0  0  0  0  0  0  0  0  0  0
   17.2449   -9.2094  -14.4373 C   0  0  0  0  0  0  0  0  0  0  0  0
   17.9319   -8.6622  -15.3356 O   0  0  0  0  0  0  0  0  0  0  0  0
   16.8061   -6.5594  -11.8892 C   0  0  0  0  0  0  0  0  0  0  0  0
   17.5434   -7.2051  -13.0597 C   0  0  2  0  0  0  0  0  0  0  0  0
   16.9830   -8.5039  -13.2314 N   0  0  0  0  0  0  0  0  0  0  0  0
   18.9909   -7.2100  -12.7926 C   0  0  0  0  0  0  0  0  0  0  0  0
   19.5429   -8.1152  -12.1204 O   0  0  0  0  0  0  0  0  0  0  0  0
   19.7704   -6.1457  -13.3223 N   0  0  0  0  0  0  0  0  0  0  0  0
   21.2031   -6.0554  -13.1167 C   0  0  0  0  0  0  0  0  0  0  0  0
   21.7199   -4.8827  -13.8278 C   0  0  0  0  0  0  0  0  0  0  0  0
   21.0063   -4.2237  -14.6336 O   0  0  0  0  0  0  0  0  0  0  0  0
   23.0171   -4.4638  -13.6315 O   0  0  0  0  0  0  0  0  0  0  0  0
  2  1  1  0
  3  2  2  0
  4  2  1  0
  5  4  1  0
  5  6  1  6
  7  5  1  0
  8  7  2  0
 10  9  1  1
 10 12  1  0
 10 11  1  0
 11  7  1  0
 12 13  2  0
 14 15  1  0
 14 12  1  0
 15 16  1  0
 16 17  2  0
 16 18  1  0
M  END
$$$$
