NAG.pdb
     RDKit          3D

 18 17  0  0  1  0  0  0  0  0999 V2000
   15.1755  -10.8951  -17.2114 N   0  0  0  0  0  0  0  0  0  0  0  0
   15.2839   -9.7933  -16.3260 C   0  0  0  0  0  0  0  0  0  0  0  0
   14.3048   -9.0442  -16.0828 O   0  0  0  0  0  0  0  0  0  0  0  0
   16.5775   -9.4982  -15.6577 C   0  0  0  0  0  0  0  0  0  0  0  0
   17.6471  -10.5016  -16.0885 C   0  0  2  0  0  0  0  0  0  0  0  0
   17.4159  -11.7976  -15.5243 N   0  0  0  0  0  0  0  0  0  0  0  0
   18.9374   -9.9697  -15.5947 C   0  0  0  0  0  0  0  0  0  0  0  0
   19.1976  -10.0925  -14.3718 O   0  0  0  0  0  0  0  0  0  0  0  0
   22.0540   -8.5905  -17.0240 C   0  0  0  0  0  0  0  0  0  0  0  0
   21.0658   -8.7891  -15.8775 C   0  0  2  0  0  0  0  0  0  0  0  0
   19.8789   -9.3330  -16.4483 N   0  0  0  0  0  0  0  0  0  0  0  0
   20.8593   -7.5130  -15.1736 C   0  0  0  0  0  0  0  0  0  0  0  0
   19.8781   -6.7681  -15.4154 O   0  0  0  0  0  0  0  0  0  0  0  0
   21.8139   -7.1307  -14.1920 N   0  0  0  0  0  0  0  0  0  0  0  0
   21.6840   -5.9128  -13.4153 C   0  0  0  0  0  0  0  0  0  0  0  0
   21.9753   -4.7603  -14.2726 C   0  0  0  0  0  0  0  0  0  0  0  0
   22.3980   -4.8979  -15.4538 O   0  0  0  0  0  0  0  0  0  0  0  0
   21.7921   -3.4784  -13.8036 O   0  0  0  0  0  0  0  0  0  0  0  0
  2  1  1  0
  3  2  2  0
  4  2  1  0
  5  4  1  0
  5  6  1  1
  7  5  1  0
  8  7  2  0
 10  9  1  6
 10 12  1  0
 10 11  1  0
 11  7  1  0
 12 13  2  0
 14 15  1  0
 14 12  1  0
 15 16  1  0
 16 17  2  0
 16 18  1  0
M  END
$$$$
