NAG.pdb
     RDKit          3D

 18 17  0  0  1  0  0  0  0  0999 V2000
   24.5071  -21.1043   -9.2731 N   0  0  0  0  0  0  0  0  0  0  0  0
   25.7966  -20.5198   -9.2027 C   0  0  0  0  0  0  0  0  0  0  0  0
   26.3713  -20.3211   -8.1031 O   0  0  0  0  0  0  0  0  0  0  0  0
   26.5051  -20.1243  -10.4473 C   0  0  0  0  0  0  0  0  0  0  0  0
   25.5898  -20.2833  -11.6613 C   0  0  2  0  0  0  0  0  0  0  0  0
   24.9944  -21.5851  -11.7091 N   0  0  0  0  0  0  0  0  0  0  0  0
   26.4448  -20.0859  -12.8536 C   0  0  0  0  0  0  0  0  0  0  0  0
   27.0973  -19.0160  -12.9419 O   0  0  0  0  0  0  0  0  0  0  0  0
   27.7987  -21.9446  -15.6944 C   0  0  0  0  0  0  0  0  0  0  0  0
   27.1619  -20.6819  -15.1195 C   0  0  2  0  0  0  0  0  0  0  0  0
   26.5498  -21.0550  -13.8881 N   0  0  0  0  0  0  0  0  0  0  0  0
   26.2274  -20.1066  -16.1006 C   0  0  0  0  0  0  0  0  0  0  0  0
   25.0472  -20.5177  -16.2195 O   0  0  0  0  0  0  0  0  0  0  0  0
   26.6971  -19.0522  -16.9303 N   0  0  0  0  0  0  0  0  0  0  0  0
   25.8212  -18.3163  -17.8216 C   0  0  0  0  0  0  0  0  0  0  0  0
   26.6002  -17.2983  -18.5321 C   0  0  0  0  0  0  0  0  0  0  0  0
   26.6721  -16.1070  -18.1216 O   0  0  0  0  0  0  0  0  0  0  0  0
   27.2838  -17.6210  -19.6833 O   0  0  0  0  0  0  0  0  0  0  0  0
  2  1  1  0
  3  2  2  0
  4  2  1  0
  5  4  1  0
  5  6  1  6
  7  5  1  0
  8  7  2  0
 10  9  1  6
 10 12  1  0
 10 11  1  0
 11  7  1  0
 12 13  2  0
 14 15  1  0
 14 12  1  0
 15 16  1  0
 16 17  2  0
 16 18  1  0
M  END
$$$$
