YTY.pdb
     RDKit          3D

 32 33  0  0  1  0  0  0  0  0999 V2000
   11.2477  -23.7217   16.6680 O   0  0  0  0  0  0  0  0  0  0  0  0
   11.2139  -22.6116   17.5062 C   0  0  0  0  0  0  0  0  0  0  0  0
   12.2986  -22.2669   18.2857 C   0  0  0  0  0  0  0  0  0  0  0  0
   12.2513  -21.1618   19.1137 C   0  0  0  0  0  0  0  0  0  0  0  0
   11.1347  -20.3557   19.2046 C   0  0  0  0  0  0  0  0  0  0  0  0
   11.1138  -19.1721   20.1055 C   0  0  0  0  0  0  0  0  0  0  0  0
   10.9344  -17.9448   19.2049 C   0  0  2  0  0  0  0  0  0  0  0  0
   12.1491  -17.7478   18.4757 N   0  0  0  0  0  0  0  0  0  0  0  0
   10.5484  -16.7575   20.0095 C   0  0  0  0  0  0  0  0  0  0  0  0
   11.4221  -16.0942   20.6233 O   0  0  0  0  0  0  0  0  0  0  0  0
   10.0482  -20.6981   18.4260 C   0  0  0  0  0  0  0  0  0  0  0  0
   10.1001  -21.8032   17.6002 C   0  0  0  0  0  0  0  0  0  0  0  0
    7.1065  -13.4488   21.3271 C   0  0  0  0  0  0  0  0  0  0  0  0
    7.4484  -14.6997   20.5320 C   0  0  1  0  0  0  0  0  0  0  0  0
    7.4076  -14.3834   19.1840 O   0  0  0  0  0  0  0  0  0  0  0  0
    8.8243  -15.2110   20.9491 C   0  0  2  0  0  0  0  0  0  0  0  0
    9.1991  -16.3460   20.1049 N   0  0  0  0  0  0  0  0  0  0  0  0
    8.8100  -15.6055   22.3758 C   0  0  0  0  0  0  0  0  0  0  0  0
    8.8922  -16.8121   22.7388 O   0  0  0  0  0  0  0  0  0  0  0  0
   10.3337  -15.4038   31.0331 O   0  0  0  0  0  0  0  0  0  0  0  0
   10.2177  -15.1783   29.6637 C   0  0  0  0  0  0  0  0  0  0  0  0
   10.5183  -16.1448   28.7333 C   0  0  0  0  0  0  0  0  0  0  0  0
   10.4026  -15.9189   27.3738 C   0  0  0  0  0  0  0  0  0  0  0  0
    9.9745  -14.6957   26.8966 C   0  0  0  0  0  0  0  0  0  0  0  0
    9.8390  -14.4037   25.4668 C   0  0  0  0  0  0  0  0  0  0  0  0
    8.6595  -15.0806   24.8057 C   0  0  2  0  0  0  0  0  0  0  0  0
    8.7047  -14.6467   23.4005 N   0  0  0  0  0  0  0  0  0  0  0  0
    7.3917  -14.6997   25.4366 C   0  0  0  0  0  0  0  0  0  0  0  0
    6.8281  -13.6314   25.0755 O   0  0  0  0  0  0  0  0  0  0  0  0
    9.6670  -13.7086   27.8336 C   0  0  0  0  0  0  0  0  0  0  0  0
    9.7904  -13.9587   29.1744 C   0  0  0  0  0  0  0  0  0  0  0  0
    6.7879  -15.4698   26.4152 O   0  0  0  0  0  0  0  0  0  0  0  0
  1  2  1  0
  2  3  2  0
  3  4  1  0
  5  6  1  0
  5  4  2  0
  7  8  1  1
  7  6  1  0
  9  7  1  0
  9 10  2  0
 11  5  1  0
 12 11  2  0
 12  2  1  0
 14 13  1  1
 14 15  1  0
 14 16  1  0
 16 17  1  6
 16 18  1  0
 17  9  1  0
 18 19  2  0
 18 27  1  0
 20 21  1  0
 21 31  2  0
 21 22  1  0
 22 23  2  0
 23 24  1  0
 24 25  1  0
 26 25  1  1
 26 28  1  0
 27 26  1  0
 28 29  2  0
 28 32  1  0
 30 24  2  0
 31 30  1  0
M  END
$$$$
