YTY.pdb
     RDKit          3D

 32 33  0  0  1  0  0  0  0  0999 V2000
   14.5908  -13.6037   19.4518 O   0  0  0  0  0  0  0  0  0  0  0  0
   13.2079  -13.7213   19.3532 C   0  0  0  0  0  0  0  0  0  0  0  0
   12.4766  -12.9120   18.5087 C   0  0  0  0  0  0  0  0  0  0  0  0
   11.1036  -13.0396   18.4207 C   0  0  0  0  0  0  0  0  0  0  0  0
   10.4005  -13.9685   19.1606 C   0  0  0  0  0  0  0  0  0  0  0  0
    8.9218  -14.0823   19.0442 C   0  0  0  0  0  0  0  0  0  0  0  0
    8.6402  -15.4536   18.4201 C   0  0  2  0  0  0  0  0  0  0  0  0
    7.6401  -15.2854   17.4114 N   0  0  0  0  0  0  0  0  0  0  0  0
    8.2437  -16.4322   19.4646 C   0  0  0  0  0  0  0  0  0  0  0  0
    7.0397  -16.5413   19.8094 O   0  0  0  0  0  0  0  0  0  0  0  0
   11.1294  -14.7794   20.0062 C   0  0  0  0  0  0  0  0  0  0  0  0
   12.5011  -14.6482   20.0908 C   0  0  0  0  0  0  0  0  0  0  0  0
    8.5364  -20.0801   20.4040 C   0  0  0  0  0  0  0  0  0  0  0  0
    9.3638  -19.3038   21.4174 C   0  0  1  0  0  0  0  0  0  0  0  0
   10.7018  -19.4485   21.0892 O   0  0  0  0  0  0  0  0  0  0  0  0
    8.9376  -17.8386   21.4109 C   0  0  2  0  0  0  0  0  0  0  0  0
    9.2024  -17.2598   20.0932 N   0  0  0  0  0  0  0  0  0  0  0  0
    9.6639  -17.0923   22.4629 C   0  0  0  0  0  0  0  0  0  0  0  0
   10.7740  -16.5322   22.2428 O   0  0  0  0  0  0  0  0  0  0  0  0
   11.2887  -13.9735   30.6667 O   0  0  0  0  0  0  0  0  0  0  0  0
   10.7122  -14.4282   29.4832 C   0  0  0  0  0  0  0  0  0  0  0  0
   10.3264  -13.5720   28.4792 C   0  0  0  0  0  0  0  0  0  0  0  0
    9.7540  -14.0254   27.3048 C   0  0  0  0  0  0  0  0  0  0  0  0
    9.5470  -15.3749   27.0969 C   0  0  0  0  0  0  0  0  0  0  0  0
    8.9407  -15.9067   25.8731 C   0  0  0  0  0  0  0  0  0  0  0  0
    9.9393  -16.3008   24.8082 C   0  0  2  0  0  0  0  0  0  0  0  0
    9.1460  -16.9708   23.7658 N   0  0  0  0  0  0  0  0  0  0  0  0
   10.9757  -17.1920   25.3393 C   0  0  0  0  0  0  0  0  0  0  0  0
   12.1254  -16.7252   25.5616 O   0  0  0  0  0  0  0  0  0  0  0  0
    9.9355  -16.2516   28.1105 C   0  0  0  0  0  0  0  0  0  0  0  0
   10.5003  -15.7759   29.2639 C   0  0  0  0  0  0  0  0  0  0  0  0
   10.7398  -18.5290   25.6074 O   0  0  0  0  0  0  0  0  0  0  0  0
  1  2  1  0
  2  3  2  0
  3  4  1  0
  5  6  1  0
  5  4  2  0
  7  8  1  6
  7  6  1  0
  9  7  1  0
  9 10  2  0
 11  5  1  0
 12 11  2  0
 12  2  1  0
 14 13  1  6
 14 15  1  0
 14 16  1  0
 16 17  1  6
 16 18  1  0
 17  9  1  0
 18 19  2  0
 18 27  1  0
 20 21  1  0
 21 31  2  0
 21 22  1  0
 22 23  2  0
 23 24  1  0
 24 25  1  0
 26 25  1  1
 26 28  1  0
 27 26  1  0
 28 29  2  0
 28 32  1  0
 30 24  2  0
 31 30  1  0
M  END
$$$$
