YTY.pdb
     RDKit          3D

 32 33  0  0  1  0  0  0  0  0999 V2000
    8.8629  -10.9104   18.7052 O   0  0  0  0  0  0  0  0  0  0  0  0
    8.3689  -12.1925   18.9248 C   0  0  0  0  0  0  0  0  0  0  0  0
    9.0276  -13.0853   19.7447 C   0  0  0  0  0  0  0  0  0  0  0  0
    8.5258  -14.3556   19.9540 C   0  0  0  0  0  0  0  0  0  0  0  0
    7.3574  -14.7933   19.3640 C   0  0  0  0  0  0  0  0  0  0  0  0
    6.8419  -16.1671   19.6086 C   0  0  0  0  0  0  0  0  0  0  0  0
    7.8368  -17.1276   18.9474 C   0  0  2  0  0  0  0  0  0  0  0  0
    7.1375  -17.8703   17.9448 N   0  0  0  0  0  0  0  0  0  0  0  0
    8.4778  -17.9990   19.9652 C   0  0  0  0  0  0  0  0  0  0  0  0
    8.3702  -19.2492   19.8904 O   0  0  0  0  0  0  0  0  0  0  0  0
    6.6964  -13.9024   18.5434 C   0  0  0  0  0  0  0  0  0  0  0  0
    7.2017  -12.6342   18.3373 C   0  0  0  0  0  0  0  0  0  0  0  0
   11.8114  -19.8882   22.3014 C   0  0  0  0  0  0  0  0  0  0  0  0
   11.0294  -19.0676   21.2871 C   0  0  1  0  0  0  0  0  0  0  0  0
   10.5426  -19.9260   20.3150 O   0  0  0  0  0  0  0  0  0  0  0  0
    9.9024  -18.3198   21.9937 C   0  0  2  0  0  0  0  0  0  0  0  0
    9.2197  -17.4492   21.0360 N   0  0  0  0  0  0  0  0  0  0  0  0
   10.4446  -17.5291   23.1216 C   0  0  0  0  0  0  0  0  0  0  0  0
   11.3692  -16.6837   22.9646 O   0  0  0  0  0  0  0  0  0  0  0  0
   10.7066  -13.8360   31.2072 O   0  0  0  0  0  0  0  0  0  0  0  0
   10.3734  -14.5411   30.0533 C   0  0  0  0  0  0  0  0  0  0  0  0
   10.4776  -15.9097   29.9744 C   0  0  0  0  0  0  0  0  0  0  0  0
   10.1463  -16.6080   28.8277 C   0  0  0  0  0  0  0  0  0  0  0  0
    9.6924  -15.9444   27.7048 C   0  0  0  0  0  0  0  0  0  0  0  0
    9.3325  -16.6363   26.4639 C   0  0  0  0  0  0  0  0  0  0  0  0
   10.4924  -16.8567   25.5191 C   0  0  2  0  0  0  0  0  0  0  0  0
    9.9498  -17.6838   24.4299 N   0  0  0  0  0  0  0  0  0  0  0  0
   11.6142  -17.5271   26.1842 C   0  0  0  0  0  0  0  0  0  0  0  0
   11.5534  -18.7717   26.3758 O   0  0  0  0  0  0  0  0  0  0  0  0
    9.5833  -14.5552   27.7756 C   0  0  0  0  0  0  0  0  0  0  0  0
    9.9181  -13.8881   28.9239 C   0  0  0  0  0  0  0  0  0  0  0  0
   12.7405  -16.8451   26.6104 O   0  0  0  0  0  0  0  0  0  0  0  0
  1  2  1  0
  2  3  2  0
  3  4  1  0
  5  6  1  0
  5  4  2  0
  7  8  1  6
  7  6  1  0
  9  7  1  0
  9 10  2  0
 11  5  1  0
 12 11  2  0
 12  2  1  0
 14 13  1  1
 14 15  1  0
 14 16  1  0
 16 17  1  6
 16 18  1  0
 17  9  1  0
 18 19  2  0
 18 27  1  0
 20 21  1  0
 21 31  2  0
 21 22  1  0
 22 23  2  0
 23 24  1  0
 24 25  1  0
 26 25  1  1
 26 28  1  0
 27 26  1  0
 28 29  2  0
 28 32  1  0
 30 24  2  0
 31 30  1  0
M  END
$$$$
