YTY.pdb
     RDKit          3D

 32 33  0  0  1  0  0  0  0  0999 V2000
    8.7715  -12.1122   16.5619 O   0  0  0  0  0  0  0  0  0  0  0  0
    8.3662  -12.7284   17.7417 C   0  0  0  0  0  0  0  0  0  0  0  0
    9.2825  -13.1556   18.6803 C   0  0  0  0  0  0  0  0  0  0  0  0
    8.8661  -13.7662   19.8478 C   0  0  0  0  0  0  0  0  0  0  0  0
    7.5327  -13.9785   20.1339 C   0  0  0  0  0  0  0  0  0  0  0  0
    7.1150  -14.6388   21.3998 C   0  0  0  0  0  0  0  0  0  0  0  0
    7.4472  -16.1269   21.2428 C   0  0  2  0  0  0  0  0  0  0  0  0
    6.4166  -16.7314   20.4565 N   0  0  0  0  0  0  0  0  0  0  0  0
    7.6077  -16.7700   22.5719 C   0  0  0  0  0  0  0  0  0  0  0  0
    6.5988  -17.0656   23.2611 O   0  0  0  0  0  0  0  0  0  0  0  0
    6.6140  -13.5522   19.1968 C   0  0  0  0  0  0  0  0  0  0  0  0
    7.0348  -12.9426   18.0318 C   0  0  0  0  0  0  0  0  0  0  0  0
    8.5113  -19.9120   23.4930 C   0  0  0  0  0  0  0  0  0  0  0  0
    9.5279  -19.0987   24.2798 C   0  0  1  0  0  0  0  0  0  0  0  0
   10.7422  -19.1600   23.6159 O   0  0  0  0  0  0  0  0  0  0  0  0
    9.0348  -17.6614   24.4202 C   0  0  2  0  0  0  0  0  0  0  0  0
    8.8891  -17.0642   23.0922 N   0  0  0  0  0  0  0  0  0  0  0  0
    9.9821  -16.8761   25.2432 C   0  0  0  0  0  0  0  0  0  0  0  0
   11.0597  -16.4174   24.7713 O   0  0  0  0  0  0  0  0  0  0  0  0
    5.6226  -12.1076   26.9547 O   0  0  0  0  0  0  0  0  0  0  0  0
    6.8754  -12.7158   26.9706 C   0  0  0  0  0  0  0  0  0  0  0  0
    7.1080  -13.9316   26.3725 C   0  0  0  0  0  0  0  0  0  0  0  0
    8.3527  -14.5340   26.3895 C   0  0  0  0  0  0  0  0  0  0  0  0
    9.4215  -13.9255   27.0177 C   0  0  0  0  0  0  0  0  0  0  0  0
   10.7589  -14.5230   27.0683 C   0  0  0  0  0  0  0  0  0  0  0  0
   10.7680  -15.9903   27.4341 C   0  0  2  0  0  0  0  0  0  0  0  0
    9.7224  -16.6017   26.5988 N   0  0  0  0  0  0  0  0  0  0  0  0
   10.4937  -16.1957   28.8599 C   0  0  0  0  0  0  0  0  0  0  0  0
    9.4483  -16.8147   29.1963 O   0  0  0  0  0  0  0  0  0  0  0  0
    9.1949  -12.6912   27.6275 C   0  0  0  0  0  0  0  0  0  0  0  0
    7.9522  -12.1166   27.5959 C   0  0  0  0  0  0  0  0  0  0  0  0
   11.3404  -15.7357   29.8532 O   0  0  0  0  0  0  0  0  0  0  0  0
  1  2  1  0
  2  3  2  0
  3  4  1  0
  5  6  1  0
  5  4  2  0
  7  8  1  1
  7  6  1  0
  9  7  1  0
  9 10  2  0
 11  5  1  0
 12 11  2  0
 12  2  1  0
 14 13  1  6
 14 15  1  0
 14 16  1  0
 16 17  1  6
 16 18  1  0
 17  9  1  0
 18 19  2  0
 18 27  1  0
 20 21  1  0
 21 31  2  0
 21 22  1  0
 22 23  2  0
 23 24  1  0
 24 25  1  0
 26 25  1  1
 26 28  1  0
 27 26  1  0
 28 29  2  0
 28 32  1  0
 30 24  2  0
 31 30  1  0
M  END
$$$$
