YTY.pdb
     RDKit          3D

 32 33  0  0  1  0  0  0  0  0999 V2000
    7.3539  -12.1897   16.6736 O   0  0  0  0  0  0  0  0  0  0  0  0
    7.5219  -12.9073   17.8537 C   0  0  0  0  0  0  0  0  0  0  0  0
    8.7068  -12.8633   18.5586 C   0  0  0  0  0  0  0  0  0  0  0  0
    8.8600  -13.5811   19.7293 C   0  0  0  0  0  0  0  0  0  0  0  0
    7.8524  -14.3684   20.2487 C   0  0  0  0  0  0  0  0  0  0  0  0
    8.0471  -15.1299   21.5117 C   0  0  0  0  0  0  0  0  0  0  0  0
    8.8940  -16.3560   21.1527 C   0  0  2  0  0  0  0  0  0  0  0  0
    8.1540  -17.1490   20.2203 N   0  0  0  0  0  0  0  0  0  0  0  0
    9.2693  -17.1090   22.3766 C   0  0  0  0  0  0  0  0  0  0  0  0
    8.8533  -18.2819   22.5540 O   0  0  0  0  0  0  0  0  0  0  0  0
    6.6660  -14.4143   19.5457 C   0  0  0  0  0  0  0  0  0  0  0  0
    6.5177  -13.6954   18.3764 C   0  0  0  0  0  0  0  0  0  0  0  0
   10.9975  -19.1383   22.5746 C   0  0  0  0  0  0  0  0  0  0  0  0
   11.7758  -18.2914   23.5701 C   0  0  1  0  0  0  0  0  0  0  0  0
   12.7322  -17.5704   22.8741 O   0  0  0  0  0  0  0  0  0  0  0  0
   10.8158  -17.3742   24.3222 C   0  0  2  0  0  0  0  0  0  0  0  0
   10.0977  -16.5308   23.3658 N   0  0  0  0  0  0  0  0  0  0  0  0
   11.5619  -16.5418   25.2927 C   0  0  0  0  0  0  0  0  0  0  0  0
   12.2318  -15.5329   24.9353 O   0  0  0  0  0  0  0  0  0  0  0  0
    6.3667  -11.3355   27.6818 O   0  0  0  0  0  0  0  0  0  0  0  0
    7.0722  -12.5186   27.4770 C   0  0  0  0  0  0  0  0  0  0  0  0
    6.5176  -13.6018   26.8372 C   0  0  0  0  0  0  0  0  0  0  0  0
    7.2198  -14.7759   26.6349 C   0  0  0  0  0  0  0  0  0  0  0  0
    8.5225  -14.9027   27.0755 C   0  0  0  0  0  0  0  0  0  0  0  0
    9.3085  -16.1258   26.8904 C   0  0  0  0  0  0  0  0  0  0  0  0
   10.6583  -16.1035   27.5717 C   0  0  2  0  0  0  0  0  0  0  0  0
   11.5576  -16.8384   26.6684 N   0  0  0  0  0  0  0  0  0  0  0  0
   10.6083  -16.7323   28.8955 C   0  0  0  0  0  0  0  0  0  0  0  0
   10.5505  -17.9893   28.9712 O   0  0  0  0  0  0  0  0  0  0  0  0
    9.0937  -13.8085   27.7259 C   0  0  0  0  0  0  0  0  0  0  0  0
    8.3760  -12.6573   27.9132 C   0  0  0  0  0  0  0  0  0  0  0  0
   10.6229  -15.9975   30.0681 O   0  0  0  0  0  0  0  0  0  0  0  0
  1  2  1  0
  2  3  2  0
  3  4  1  0
  5  6  1  0
  5  4  2  0
  7  8  1  6
  7  6  1  0
  9  7  1  0
  9 10  2  0
 11  5  1  0
 12 11  2  0
 12  2  1  0
 14 13  1  6
 14 15  1  0
 14 16  1  0
 16 17  1  6
 16 18  1  0
 17  9  1  0
 18 19  2  0
 18 27  1  0
 20 21  1  0
 21 31  2  0
 21 22  1  0
 22 23  2  0
 23 24  1  0
 24 25  1  0
 26 25  1  6
 26 28  1  0
 27 26  1  0
 28 29  2  0
 28 32  1  0
 30 24  2  0
 31 30  1  0
M  END
$$$$
