YTY.pdb
     RDKit          3D

 32 33  0  0  1  0  0  0  0  0999 V2000
    7.1027  -12.2223   14.9520 O   0  0  0  0  0  0  0  0  0  0  0  0
    7.0837  -12.9915   16.1113 C   0  0  0  0  0  0  0  0  0  0  0  0
    7.3218  -12.4310   17.3491 C   0  0  0  0  0  0  0  0  0  0  0  0
    7.2997  -13.2067   18.4924 C   0  0  0  0  0  0  0  0  0  0  0  0
    7.0425  -14.5622   18.4589 C   0  0  0  0  0  0  0  0  0  0  0  0
    7.0255  -15.3713   19.7071 C   0  0  0  0  0  0  0  0  0  0  0  0
    8.4806  -15.7598   19.9919 C   0  0  2  0  0  0  0  0  0  0  0  0
    9.0240  -16.3458   18.8057 N   0  0  0  0  0  0  0  0  0  0  0  0
    8.5601  -16.6640   21.1675 C   0  0  0  0  0  0  0  0  0  0  0  0
    7.8394  -16.4593   22.1770 O   0  0  0  0  0  0  0  0  0  0  0  0
    6.8040  -15.1256   17.2221 C   0  0  0  0  0  0  0  0  0  0  0  0
    6.8271  -14.3465   16.0825 C   0  0  0  0  0  0  0  0  0  0  0  0
   10.3284  -20.8468   23.1870 C   0  0  0  0  0  0  0  0  0  0  0  0
   10.2900  -19.9113   21.9881 C   0  0  1  0  0  0  0  0  0  0  0  0
    9.6999  -20.5835   20.9303 O   0  0  0  0  0  0  0  0  0  0  0  0
    9.5191  -18.6455   22.3513 C   0  0  2  0  0  0  0  0  0  0  0  0
    9.4413  -17.7697   21.1816 N   0  0  0  0  0  0  0  0  0  0  0  0
   10.1818  -17.9513   23.4783 C   0  0  0  0  0  0  0  0  0  0  0  0
   11.2844  -17.3514   23.3413 O   0  0  0  0  0  0  0  0  0  0  0  0
   11.1322  -14.1928   31.4590 O   0  0  0  0  0  0  0  0  0  0  0  0
   10.6954  -14.7096   30.2418 C   0  0  0  0  0  0  0  0  0  0  0  0
   10.5639  -13.9283   29.1182 C   0  0  0  0  0  0  0  0  0  0  0  0
   10.1299  -14.4434   27.9104 C   0  0  0  0  0  0  0  0  0  0  0  0
    9.8087  -15.7811   27.7894 C   0  0  0  0  0  0  0  0  0  0  0  0
    9.3402  -16.3755   26.5343 C   0  0  0  0  0  0  0  0  0  0  0  0
   10.3385  -17.3023   25.8777 C   0  0  2  0  0  0  0  0  0  0  0  0
    9.6085  -17.9270   24.7633 N   0  0  0  0  0  0  0  0  0  0  0  0
   10.8388  -18.3129   26.8152 C   0  0  0  0  0  0  0  0  0  0  0  0
   10.1534  -19.3520   27.0141 O   0  0  0  0  0  0  0  0  0  0  0  0
    9.9392  -16.5819   28.9245 C   0  0  0  0  0  0  0  0  0  0  0  0
   10.3713  -16.0462   30.1085 C   0  0  0  0  0  0  0  0  0  0  0  0
   12.0378  -18.1700   27.4915 O   0  0  0  0  0  0  0  0  0  0  0  0
  1  2  1  0
  2  3  2  0
  3  4  1  0
  5  6  1  0
  5  4  2  0
  7  8  1  6
  7  6  1  0
  9  7  1  0
  9 10  2  0
 11  5  1  0
 12 11  2  0
 12  2  1  0
 14 13  1  1
 14 15  1  0
 14 16  1  0
 16 17  1  6
 16 18  1  0
 17  9  1  0
 18 19  2  0
 18 27  1  0
 20 21  1  0
 21 31  2  0
 21 22  1  0
 22 23  2  0
 23 24  1  0
 24 25  1  0
 26 25  1  1
 26 28  1  0
 27 26  1  0
 28 29  2  0
 28 32  1  0
 30 24  2  0
 31 30  1  0
M  END
$$$$
