YTY.pdb
     RDKit          3D

 32 33  0  0  1  0  0  0  0  0999 V2000
    8.9508  -13.0068   16.4815 O   0  0  0  0  0  0  0  0  0  0  0  0
    8.6201  -13.4700   17.7512 C   0  0  0  0  0  0  0  0  0  0  0  0
    7.4706  -13.0544   18.3905 C   0  0  0  0  0  0  0  0  0  0  0  0
    7.1544  -13.5225   19.6515 C   0  0  0  0  0  0  0  0  0  0  0  0
    7.9581  -14.4167   20.3290 C   0  0  0  0  0  0  0  0  0  0  0  0
    7.5911  -14.9030   21.6862 C   0  0  0  0  0  0  0  0  0  0  0  0
    7.4534  -16.4257   21.5787 C   0  0  2  0  0  0  0  0  0  0  0  0
    6.2556  -16.7130   20.8517 N   0  0  0  0  0  0  0  0  0  0  0  0
    7.4706  -17.0490   22.9268 C   0  0  0  0  0  0  0  0  0  0  0  0
    6.6066  -17.9059   23.2421 O   0  0  0  0  0  0  0  0  0  0  0  0
    9.1086  -14.8343   19.6919 C   0  0  0  0  0  0  0  0  0  0  0  0
    9.4204  -14.3638   18.4320 C   0  0  0  0  0  0  0  0  0  0  0  0
    8.1635  -19.4918   23.4231 C   0  0  0  0  0  0  0  0  0  0  0  0
    9.2708  -18.9550   24.3174 C   0  0  1  0  0  0  0  0  0  0  0  0
   10.4139  -18.8012   23.5501 O   0  0  0  0  0  0  0  0  0  0  0  0
    8.8294  -17.6342   24.9413 C   0  0  2  0  0  0  0  0  0  0  0  0
    8.4513  -16.6973   23.8827 N   0  0  0  0  0  0  0  0  0  0  0  0
    9.9205  -17.0721   25.7688 C   0  0  0  0  0  0  0  0  0  0  0  0
   11.1137  -17.4728   25.6675 O   0  0  0  0  0  0  0  0  0  0  0  0
    5.2368  -12.5024   26.2379 O   0  0  0  0  0  0  0  0  0  0  0  0
    6.4783  -12.9471   26.6856 C   0  0  0  0  0  0  0  0  0  0  0  0
    7.1385  -13.9973   26.0928 C   0  0  0  0  0  0  0  0  0  0  0  0
    8.3713  -14.4375   26.5388 C   0  0  0  0  0  0  0  0  0  0  0  0
    8.9913  -13.8280   27.6118 C   0  0  0  0  0  0  0  0  0  0  0  0
   10.2944  -14.2584   28.1262 C   0  0  0  0  0  0  0  0  0  0  0  0
   10.7690  -15.5853   27.5777 C   0  0  2  0  0  0  0  0  0  0  0  0
    9.6764  -16.0569   26.7124 N   0  0  0  0  0  0  0  0  0  0  0  0
   11.0481  -16.5467   28.6492 C   0  0  0  0  0  0  0  0  0  0  0  0
   10.2757  -17.5315   28.8006 O   0  0  0  0  0  0  0  0  0  0  0  0
    8.3287  -12.7612   28.2199 C   0  0  0  0  0  0  0  0  0  0  0  0
    7.1084  -12.3452   27.7580 C   0  0  0  0  0  0  0  0  0  0  0  0
   12.1296  -16.4151   29.5025 O   0  0  0  0  0  0  0  0  0  0  0  0
  1  2  1  0
  2  3  2  0
  3  4  1  0
  5  6  1  0
  5  4  2  0
  7  8  1  1
  7  6  1  0
  9  7  1  0
  9 10  2  0
 11  5  1  0
 12 11  2  0
 12  2  1  0
 14 13  1  6
 14 15  1  0
 14 16  1  0
 16 17  1  6
 16 18  1  0
 17  9  1  0
 18 19  2  0
 18 27  1  0
 20 21  1  0
 21 31  2  0
 21 22  1  0
 22 23  2  0
 23 24  1  0
 24 25  1  0
 26 25  1  1
 26 28  1  0
 27 26  1  0
 28 29  2  0
 28 32  1  0
 30 24  2  0
 31 30  1  0
M  END
$$$$
