YTY.pdb
     RDKit          3D

 32 33  0  0  1  0  0  0  0  0999 V2000
   -0.3042  -20.3945   19.6104 O   0  0  0  0  0  0  0  0  0  0  0  0
    0.9287  -19.9092   20.0351 C   0  0  0  0  0  0  0  0  0  0  0  0
    1.7550  -20.6589   20.8463 C   0  0  0  0  0  0  0  0  0  0  0  0
    2.9769  -20.1645   21.2607 C   0  0  0  0  0  0  0  0  0  0  0  0
    3.4300  -18.9142   20.8916 C   0  0  0  0  0  0  0  0  0  0  0  0
    4.7507  -18.4091   21.3537 C   0  0  0  0  0  0  0  0  0  0  0  0
    5.6069  -18.2204   20.0964 C   0  0  2  0  0  0  0  0  0  0  0  0
    5.7973  -19.5029   19.4924 N   0  0  0  0  0  0  0  0  0  0  0  0
    6.8878  -17.5477   20.4320 C   0  0  0  0  0  0  0  0  0  0  0  0
    7.9511  -18.2125   20.5200 O   0  0  0  0  0  0  0  0  0  0  0  0
    2.6056  -18.1620   20.0801 C   0  0  0  0  0  0  0  0  0  0  0  0
    1.3855  -18.6602   19.6686 C   0  0  0  0  0  0  0  0  0  0  0  0
    7.8581  -13.8882   19.2867 C   0  0  0  0  0  0  0  0  0  0  0  0
    8.1675  -14.0441   20.7679 C   0  0  1  0  0  0  0  0  0  0  0  0
    7.2129  -13.3447   21.4879 O   0  0  0  0  0  0  0  0  0  0  0  0
    8.1769  -15.5251   21.1354 C   0  0  2  0  0  0  0  0  0  0  0  0
    6.9439  -16.1533   20.6592 N   0  0  0  0  0  0  0  0  0  0  0  0
    8.3104  -15.6853   22.6009 C   0  0  0  0  0  0  0  0  0  0  0  0
    7.4221  -16.2511   23.2975 O   0  0  0  0  0  0  0  0  0  0  0  0
    6.0526  -10.3138   27.4340 O   0  0  0  0  0  0  0  0  0  0  0  0
    6.5284  -11.4875   26.8546 C   0  0  0  0  0  0  0  0  0  0  0  0
    7.1382  -11.5022   25.6226 C   0  0  0  0  0  0  0  0  0  0  0  0
    7.6100  -12.6688   25.0489 C   0  0  0  0  0  0  0  0  0  0  0  0
    7.4828  -13.8778   25.7040 C   0  0  0  0  0  0  0  0  0  0  0  0
    7.9614  -15.1424   25.1385 C   0  0  0  0  0  0  0  0  0  0  0  0
    9.4253  -15.1363   24.7593 C   0  0  2  0  0  0  0  0  0  0  0  0
    9.4425  -15.2120   23.2899 N   0  0  0  0  0  0  0  0  0  0  0  0
   10.1450  -16.2660   25.3559 C   0  0  0  0  0  0  0  0  0  0  0  0
   10.6805  -16.1182   26.4876 O   0  0  0  0  0  0  0  0  0  0  0  0
    6.8652  -13.8726   26.9551 C   0  0  0  0  0  0  0  0  0  0  0  0
    6.4069  -12.7030   27.5005 C   0  0  0  0  0  0  0  0  0  0  0  0
   10.2592  -17.4917   24.7235 O   0  0  0  0  0  0  0  0  0  0  0  0
  1  2  1  0
  2  3  2  0
  3  4  1  0
  5  6  1  0
  5  4  2  0
  7  8  1  1
  7  6  1  0
  9  7  1  0
  9 10  2  0
 11  5  1  0
 12 11  2  0
 12  2  1  0
 14 13  1  6
 14 15  1  0
 14 16  1  0
 16 17  1  1
 16 18  1  0
 17  9  1  0
 18 19  2  0
 18 27  1  0
 20 21  1  0
 21 31  2  0
 21 22  1  0
 22 23  2  0
 23 24  1  0
 24 25  1  0
 26 25  1  1
 26 28  1  0
 27 26  1  0
 28 29  2  0
 28 32  1  0
 30 24  2  0
 31 30  1  0
M  END
$$$$
