YTY.pdb
     RDKit          3D

 32 33  0  0  1  0  0  0  0  0999 V2000
    8.9329  -23.3451   14.2796 O   0  0  0  0  0  0  0  0  0  0  0  0
    9.4020  -22.4385   15.2251 C   0  0  0  0  0  0  0  0  0  0  0  0
   10.7141  -22.0128   15.2229 C   0  0  0  0  0  0  0  0  0  0  0  0
   11.1666  -21.1119   16.1678 C   0  0  0  0  0  0  0  0  0  0  0  0
   10.3439  -20.5973   17.1493 C   0  0  0  0  0  0  0  0  0  0  0  0
   10.8602  -19.6285   18.1533 C   0  0  0  0  0  0  0  0  0  0  0  0
   10.2402  -18.2708   17.8045 C   0  0  2  0  0  0  0  0  0  0  0  0
   10.8713  -17.7868   16.6157 N   0  0  0  0  0  0  0  0  0  0  0  0
   10.3666  -17.3292   18.9462 C   0  0  0  0  0  0  0  0  0  0  0  0
   11.4571  -16.7458   19.1713 O   0  0  0  0  0  0  0  0  0  0  0  0
    9.0309  -21.0213   17.1539 C   0  0  0  0  0  0  0  0  0  0  0  0
    8.5834  -21.9216   16.2077 C   0  0  0  0  0  0  0  0  0  0  0  0
    7.6630  -14.6758   20.0140 C   0  0  0  0  0  0  0  0  0  0  0  0
    8.0902  -15.4807   21.2321 C   0  0  1  0  0  0  0  0  0  0  0  0
    7.0920  -16.3968   21.5204 O   0  0  0  0  0  0  0  0  0  0  0  0
    9.4220  -16.1695   20.9487 C   0  0  2  0  0  0  0  0  0  0  0  0
    9.2725  -17.0668   19.8024 N   0  0  0  0  0  0  0  0  0  0  0  0
    9.8712  -16.9205   22.1427 C   0  0  0  0  0  0  0  0  0  0  0  0
    9.7875  -18.1783   22.2145 O   0  0  0  0  0  0  0  0  0  0  0  0
   16.6481  -15.8058   22.0736 O   0  0  0  0  0  0  0  0  0  0  0  0
   15.4595  -16.3409   22.5640 C   0  0  0  0  0  0  0  0  0  0  0  0
   14.9356  -15.9714   23.7802 C   0  0  0  0  0  0  0  0  0  0  0  0
   13.7552  -16.5039   24.2654 C   0  0  0  0  0  0  0  0  0  0  0  0
   13.0511  -17.4399   23.5337 C   0  0  0  0  0  0  0  0  0  0  0  0
   11.7985  -18.0380   24.0042 C   0  0  0  0  0  0  0  0  0  0  0  0
   10.7667  -17.0327   24.4639 C   0  0  2  0  0  0  0  0  0  0  0  0
   10.4172  -16.2621   23.2602 N   0  0  0  0  0  0  0  0  0  0  0  0
   11.2924  -16.1587   25.5176 C   0  0  0  0  0  0  0  0  0  0  0  0
   11.4187  -14.9269   25.2810 O   0  0  0  0  0  0  0  0  0  0  0  0
   13.5751  -17.8211   22.2981 C   0  0  0  0  0  0  0  0  0  0  0  0
   14.7462  -17.2779   21.8410 C   0  0  0  0  0  0  0  0  0  0  0  0
   11.6557  -16.6348   26.7652 O   0  0  0  0  0  0  0  0  0  0  0  0
  1  2  1  0
  2  3  2  0
  3  4  1  0
  5  6  1  0
  5  4  2  0
  7  8  1  6
  7  6  1  0
  9  7  1  0
  9 10  2  0
 11  5  1  0
 12 11  2  0
 12  2  1  0
 14 13  1  6
 14 15  1  0
 14 16  1  0
 16 17  1  6
 16 18  1  0
 17  9  1  0
 18 19  2  0
 18 27  1  0
 20 21  1  0
 21 31  2  0
 21 22  1  0
 22 23  2  0
 23 24  1  0
 24 25  1  0
 26 25  1  6
 26 28  1  0
 27 26  1  0
 28 29  2  0
 28 32  1  0
 30 24  2  0
 31 30  1  0
M  END
$$$$
