YTY.pdb
     RDKit          3D

 32 33  0  0  1  0  0  0  0  0999 V2000
    5.1063  -10.6062   26.6633 O   0  0  0  0  0  0  0  0  0  0  0  0
    5.8406  -11.7636   26.4240 C   0  0  0  0  0  0  0  0  0  0  0  0
    5.6719  -12.8938   27.1967 C   0  0  0  0  0  0  0  0  0  0  0  0
    6.4078  -14.0365   26.9479 C   0  0  0  0  0  0  0  0  0  0  0  0
    7.3367  -14.1082   25.9296 C   0  0  0  0  0  0  0  0  0  0  0  0
    8.1141  -15.3530   25.6861 C   0  0  0  0  0  0  0  0  0  0  0  0
    7.3742  -16.1175   24.5829 C   0  0  2  0  0  0  0  0  0  0  0  0
    6.2563  -16.7832   25.1771 N   0  0  0  0  0  0  0  0  0  0  0  0
    8.2949  -17.0516   23.8860 C   0  0  0  0  0  0  0  0  0  0  0  0
    8.6522  -18.1227   24.4386 O   0  0  0  0  0  0  0  0  0  0  0  0
    7.5075  -12.9792   25.1551 C   0  0  0  0  0  0  0  0  0  0  0  0
    6.7699  -11.8398   25.4074 C   0  0  0  0  0  0  0  0  0  0  0  0
   11.7998  -17.1683   20.3482 C   0  0  0  0  0  0  0  0  0  0  0  0
   10.4425  -16.6518   20.8009 C   0  0  1  0  0  0  0  0  0  0  0  0
    9.4902  -17.0705   19.8862 O   0  0  0  0  0  0  0  0  0  0  0  0
   10.1407  -17.1684   22.2046 C   0  0  2  0  0  0  0  0  0  0  0  0
    8.7895  -16.7625   22.5933 N   0  0  0  0  0  0  0  0  0  0  0  0
   11.1380  -16.6453   23.1653 C   0  0  0  0  0  0  0  0  0  0  0  0
   10.8578  -15.7344   23.9936 O   0  0  0  0  0  0  0  0  0  0  0  0
   10.0760  -13.9784   29.0951 O   0  0  0  0  0  0  0  0  0  0  0  0
   10.7049  -14.8740   28.2337 C   0  0  0  0  0  0  0  0  0  0  0  0
   11.0452  -16.1483   28.6215 C   0  0  0  0  0  0  0  0  0  0  0  0
   11.6697  -17.0362   27.7646 C   0  0  0  0  0  0  0  0  0  0  0  0
   11.9779  -16.6676   26.4699 C   0  0  0  0  0  0  0  0  0  0  0  0
   12.6428  -17.5683   25.5241 C   0  0  0  0  0  0  0  0  0  0  0  0
   13.3102  -16.8648   24.3638 C   0  0  2  0  0  0  0  0  0  0  0  0
   12.4536  -17.1437   23.2004 N   0  0  0  0  0  0  0  0  0  0  0  0
   14.6753  -17.3537   24.1453 C   0  0  0  0  0  0  0  0  0  0  0  0
   15.6456  -16.6139   24.4623 O   0  0  0  0  0  0  0  0  0  0  0  0
   11.6362  -15.3761   26.0674 C   0  0  0  0  0  0  0  0  0  0  0  0
   11.0181  -14.5166   26.9362 C   0  0  0  0  0  0  0  0  0  0  0  0
   14.9406  -18.5993   23.6038 O   0  0  0  0  0  0  0  0  0  0  0  0
  1  2  1  0
  2  3  2  0
  3  4  1  0
  5  6  1  0
  5  4  2  0
  7  8  1  1
  7  6  1  0
  9  7  1  0
  9 10  2  0
 11  5  1  0
 12 11  2  0
 12  2  1  0
 14 13  1  6
 14 15  1  0
 14 16  1  0
 16 17  1  1
 16 18  1  0
 17  9  1  0
 18 19  2  0
 18 27  1  0
 20 21  1  0
 21 31  2  0
 21 22  1  0
 22 23  2  0
 23 24  1  0
 24 25  1  0
 26 25  1  1
 26 28  1  0
 27 26  1  0
 28 29  2  0
 28 32  1  0
 30 24  2  0
 31 30  1  0
M  END
$$$$
