YTY.pdb
     RDKit          3D

 32 33  0  0  1  0  0  0  0  0999 V2000
    4.5301  -18.4123   10.5483 O   0  0  0  0  0  0  0  0  0  0  0  0
    5.4128  -18.1088   11.5801 C   0  0  0  0  0  0  0  0  0  0  0  0
    6.3850  -19.0022   11.9798 C   0  0  0  0  0  0  0  0  0  0  0  0
    7.2551  -18.6877   13.0061 C   0  0  0  0  0  0  0  0  0  0  0  0
    7.1999  -17.4825   13.6763 C   0  0  0  0  0  0  0  0  0  0  0  0
    8.1508  -17.1725   14.7775 C   0  0  0  0  0  0  0  0  0  0  0  0
    8.1087  -15.6526   14.9717 C   0  0  2  0  0  0  0  0  0  0  0  0
    8.6134  -15.0389   13.7824 N   0  0  0  0  0  0  0  0  0  0  0  0
    8.8665  -15.2594   16.1870 C   0  0  0  0  0  0  0  0  0  0  0  0
   10.0934  -14.9954   16.1136 O   0  0  0  0  0  0  0  0  0  0  0  0
    6.2285  -16.5869   13.2786 C   0  0  0  0  0  0  0  0  0  0  0  0
    5.3613  -16.9056   12.2527 C   0  0  0  0  0  0  0  0  0  0  0  0
    7.6193  -12.6622   18.7324 C   0  0  0  0  0  0  0  0  0  0  0  0
    8.0851  -13.8813   19.5140 C   0  0  1  0  0  0  0  0  0  0  0  0
    6.9666  -14.5775   19.9420 O   0  0  0  0  0  0  0  0  0  0  0  0
    8.9813  -14.7439   18.6301 C   0  0  2  0  0  0  0  0  0  0  0  0
    8.2327  -15.1725   17.4480 N   0  0  0  0  0  0  0  0  0  0  0  0
    9.4698  -15.9164   19.3904 C   0  0  0  0  0  0  0  0  0  0  0  0
    9.1473  -17.0976   19.0818 O   0  0  0  0  0  0  0  0  0  0  0  0
   13.2810  -22.6546   22.7654 O   0  0  0  0  0  0  0  0  0  0  0  0
   12.8522  -21.4660   22.1797 C   0  0  0  0  0  0  0  0  0  0  0  0
   13.6580  -20.3549   22.1008 C   0  0  0  0  0  0  0  0  0  0  0  0
   13.2304  -19.1755   21.5188 C   0  0  0  0  0  0  0  0  0  0  0  0
   11.9593  -19.0716   20.9888 C   0  0  0  0  0  0  0  0  0  0  0  0
   11.4560  -17.8443   20.3656 C   0  0  0  0  0  0  0  0  0  0  0  0
   10.6869  -16.9432   21.3053 C   0  0  2  0  0  0  0  0  0  0  0  0
   10.3233  -15.7672   20.4993 N   0  0  0  0  0  0  0  0  0  0  0  0
   11.4921  -16.5589   22.4690 C   0  0  0  0  0  0  0  0  0  0  0  0
   12.2126  -15.5269   22.3974 O   0  0  0  0  0  0  0  0  0  0  0  0
   11.1343  -20.1943   21.0643 C   0  0  0  0  0  0  0  0  0  0  0  0
   11.5829  -21.3502   21.6460 C   0  0  0  0  0  0  0  0  0  0  0  0
   11.4914  -17.2865   23.6462 O   0  0  0  0  0  0  0  0  0  0  0  0
  1  2  1  0
  2  3  2  0
  3  4  1  0
  5  6  1  0
  5  4  2  0
  7  8  1  6
  7  6  1  0
  9  7  1  0
  9 10  2  0
 11  5  1  0
 12 11  2  0
 12  2  1  0
 14 13  1  6
 14 15  1  0
 14 16  1  0
 16 17  1  6
 16 18  1  0
 17  9  1  0
 18 19  2  0
 18 27  1  0
 20 21  1  0
 21 31  2  0
 21 22  1  0
 22 23  2  0
 23 24  1  0
 24 25  1  0
 26 25  1  6
 26 28  1  0
 27 26  1  0
 28 29  2  0
 28 32  1  0
 30 24  2  0
 31 30  1  0
M  END
$$$$
