YTY.pdb
     RDKit          3D

 32 33  0  0  1  0  0  0  0  0999 V2000
    7.3842  -11.3030   17.1250 O   0  0  0  0  0  0  0  0  0  0  0  0
    7.3585  -12.2657   18.1292 C   0  0  0  0  0  0  0  0  0  0  0  0
    8.5094  -12.9055   18.5405 C   0  0  0  0  0  0  0  0  0  0  0  0
    8.4694  -13.8597   19.5391 C   0  0  0  0  0  0  0  0  0  0  0  0
    7.2951  -14.2189   20.1691 C   0  0  0  0  0  0  0  0  0  0  0  0
    7.2837  -15.2501   21.2413 C   0  0  0  0  0  0  0  0  0  0  0  0
    7.4054  -16.6071   20.5391 C   0  0  2  0  0  0  0  0  0  0  0  0
    6.1011  -16.9996   20.1025 N   0  0  0  0  0  0  0  0  0  0  0  0
    8.0350  -17.6070   21.4389 C   0  0  0  0  0  0  0  0  0  0  0  0
    7.3299  -18.2846   22.2287 O   0  0  0  0  0  0  0  0  0  0  0  0
    6.1424  -13.5806   19.7598 C   0  0  0  0  0  0  0  0  0  0  0  0
    6.1873  -12.6278   18.7616 C   0  0  0  0  0  0  0  0  0  0  0  0
   10.3759  -20.4308   20.7078 C   0  0  0  0  0  0  0  0  0  0  0  0
   11.0744  -19.5949   21.7695 C   0  0  1  0  0  0  0  0  0  0  0  0
   12.0931  -18.8805   21.1605 O   0  0  0  0  0  0  0  0  0  0  0  0
   10.0623  -18.6713   22.4412 C   0  0  2  0  0  0  0  0  0  0  0  0
    9.4327  -17.8210   21.4303 N   0  0  0  0  0  0  0  0  0  0  0  0
   10.7316  -17.8462   23.4721 C   0  0  0  0  0  0  0  0  0  0  0  0
   10.8416  -16.5932   23.3608 O   0  0  0  0  0  0  0  0  0  0  0  0
   10.6969  -13.6109   30.7889 O   0  0  0  0  0  0  0  0  0  0  0  0
   10.6037  -14.4417   29.6751 C   0  0  0  0  0  0  0  0  0  0  0  0
   10.6290  -15.8124   29.7785 C   0  0  0  0  0  0  0  0  0  0  0  0
   10.5363  -16.6358   28.6713 C   0  0  0  0  0  0  0  0  0  0  0  0
   10.4135  -16.1012   27.4039 C   0  0  0  0  0  0  0  0  0  0  0  0
   10.3164  -16.9289   26.1982 C   0  0  0  0  0  0  0  0  0  0  0  0
   11.6199  -17.5729   25.7827 C   0  0  2  0  0  0  0  0  0  0  0  0
   11.2788  -18.4247   24.6324 N   0  0  0  0  0  0  0  0  0  0  0  0
   12.2060  -18.3625   26.8705 C   0  0  0  0  0  0  0  0  0  0  0  0
   13.0384  -17.8136   27.6418 O   0  0  0  0  0  0  0  0  0  0  0  0
   10.3869  -14.7109   27.2891 C   0  0  0  0  0  0  0  0  0  0  0  0
   10.4804  -13.9185   28.4022 C   0  0  0  0  0  0  0  0  0  0  0  0
   11.8796  -19.6903   27.0842 O   0  0  0  0  0  0  0  0  0  0  0  0
  1  2  1  0
  2  3  2  0
  3  4  1  0
  5  6  1  0
  5  4  2  0
  7  8  1  1
  7  6  1  0
  9  7  1  0
  9 10  2  0
 11  5  1  0
 12 11  2  0
 12  2  1  0
 14 13  1  6
 14 15  1  0
 14 16  1  0
 16 17  1  6
 16 18  1  0
 17  9  1  0
 18 19  2  0
 18 27  1  0
 20 21  1  0
 21 31  2  0
 21 22  1  0
 22 23  2  0
 23 24  1  0
 24 25  1  0
 26 25  1  1
 26 28  1  0
 27 26  1  0
 28 29  2  0
 28 32  1  0
 30 24  2  0
 31 30  1  0
M  END
$$$$
