YTY.pdb
     RDKit          3D

 32 33  0  0  1  0  0  0  0  0999 V2000
    2.5776  -23.8463   23.5614 O   0  0  0  0  0  0  0  0  0  0  0  0
    3.6169  -22.9280   23.4489 C   0  0  0  0  0  0  0  0  0  0  0  0
    3.4276  -21.5910   23.7306 C   0  0  0  0  0  0  0  0  0  0  0  0
    4.4686  -20.6898   23.6147 C   0  0  0  0  0  0  0  0  0  0  0  0
    5.7339  -21.0721   23.2174 C   0  0  0  0  0  0  0  0  0  0  0  0
    6.8350  -20.0785   23.1019 C   0  0  0  0  0  0  0  0  0  0  0  0
    6.5725  -19.2879   21.8153 C   0  0  2  0  0  0  0  0  0  0  0  0
    6.5694  -20.2090   20.7210 N   0  0  0  0  0  0  0  0  0  0  0  0
    7.5765  -18.2057   21.6523 C   0  0  0  0  0  0  0  0  0  0  0  0
    8.6711  -18.4351   21.0783 O   0  0  0  0  0  0  0  0  0  0  0  0
    5.9261  -22.4089   22.9350 C   0  0  0  0  0  0  0  0  0  0  0  0
    4.8829  -23.3055   23.0522 C   0  0  0  0  0  0  0  0  0  0  0  0
    7.3373  -15.2999   19.7249 C   0  0  0  0  0  0  0  0  0  0  0  0
    7.7208  -14.7322   21.0830 C   0  0  1  0  0  0  0  0  0  0  0  0
    6.5875  -14.1852   21.6619 O   0  0  0  0  0  0  0  0  0  0  0  0
    8.3183  -15.8373   21.9493 C   0  0  2  0  0  0  0  0  0  0  0  0
    7.3291  -16.8997   22.1346 N   0  0  0  0  0  0  0  0  0  0  0  0
    8.7421  -15.2868   23.2564 C   0  0  0  0  0  0  0  0  0  0  0  0
    7.9442  -14.6668   24.0135 O   0  0  0  0  0  0  0  0  0  0  0  0
    5.4734  -11.4179   26.9145 O   0  0  0  0  0  0  0  0  0  0  0  0
    6.3755  -12.4488   26.6637 C   0  0  0  0  0  0  0  0  0  0  0  0
    7.7299  -12.2984   26.8450 C   0  0  0  0  0  0  0  0  0  0  0  0
    8.6242  -13.3234   26.5954 C   0  0  0  0  0  0  0  0  0  0  0  0
    8.1804  -14.5524   26.1482 C   0  0  0  0  0  0  0  0  0  0  0  0
    9.0861  -15.6692   25.8648 C   0  0  0  0  0  0  0  0  0  0  0  0
   10.3581  -15.2692   25.1514 C   0  0  2  0  0  0  0  0  0  0  0  0
   10.0633  -15.4315   23.7190 N   0  0  0  0  0  0  0  0  0  0  0  0
   11.4930  -16.1050   25.5562 C   0  0  0  0  0  0  0  0  0  0  0  0
   11.9548  -15.9821   26.7228 O   0  0  0  0  0  0  0  0  0  0  0  0
    6.8073  -14.7144   25.9614 C   0  0  0  0  0  0  0  0  0  0  0  0
    5.9434  -13.6827   26.2163 C   0  0  0  0  0  0  0  0  0  0  0  0
   12.0780  -17.0262   24.7052 O   0  0  0  0  0  0  0  0  0  0  0  0
  1  2  1  0
  2  3  2  0
  3  4  1  0
  5  6  1  0
  5  4  2  0
  7  8  1  6
  7  6  1  0
  9  7  1  0
  9 10  2  0
 11  5  1  0
 12 11  2  0
 12  2  1  0
 14 13  1  6
 14 15  1  0
 14 16  1  0
 16 17  1  1
 16 18  1  0
 17  9  1  0
 18 19  2  0
 18 27  1  0
 20 21  1  0
 21 31  2  0
 21 22  1  0
 22 23  2  0
 23 24  1  0
 24 25  1  0
 26 25  1  1
 26 28  1  0
 27 26  1  0
 28 29  2  0
 28 32  1  0
 30 24  2  0
 31 30  1  0
M  END
$$$$
