HYH.pdb
     RDKit          3D

 33 35  0  0  1  0  0  0  0  0999 V2000
   10.2571  -17.0470   18.7495 N   0  0  0  0  0  0  0  0  0  0  0  0
    9.1649  -17.2863   19.6492 C   0  0  1  0  0  0  0  0  0  0  0  0
    8.9927  -18.7636   19.9565 C   0  0  0  0  0  0  0  0  0  0  0  0
    8.5419  -19.5054   18.7631 C   0  0  0  0  0  0  0  0  0  0  0  0
    7.8490  -18.9360   17.7167 C   0  0  0  0  0  0  0  0  0  0  0  0
    7.5898  -19.8847   16.7902 N   0  0  0  0  0  0  0  0  0  0  0  0
    8.1115  -21.0510   17.2383 C   0  0  0  0  0  0  0  0  0  0  0  0
    8.6845  -20.8032   18.4346 N   0  0  0  0  0  0  0  0  0  0  0  0
    9.3312  -16.5105   20.9048 C   0  0  0  0  0  0  0  0  0  0  0  0
   10.4498  -16.4698   21.4366 O   0  0  0  0  0  0  0  0  0  0  0  0
    7.3605  -11.8994   28.2061 O   0  0  0  0  0  0  0  0  0  0  0  0
    7.2883  -12.4934   26.9494 C   0  0  0  0  0  0  0  0  0  0  0  0
    8.0056  -11.9843   25.8853 C   0  0  0  0  0  0  0  0  0  0  0  0
    7.9479  -12.5616   24.6230 C   0  0  0  0  0  0  0  0  0  0  0  0
    7.1612  -13.6771   24.3903 C   0  0  0  0  0  0  0  0  0  0  0  0
    7.1060  -14.2872   23.0354 C   0  0  0  0  0  0  0  0  0  0  0  0
    8.3258  -15.1465   22.7690 C   0  0  2  0  0  0  0  0  0  0  0  0
    8.2383  -15.8227   21.4975 N   0  0  0  0  0  0  0  0  0  0  0  0
    8.6363  -16.0482   23.8818 C   0  0  0  0  0  0  0  0  0  0  0  0
    7.8655  -17.0192   24.1062 O   0  0  0  0  0  0  0  0  0  0  0  0
    6.4492  -14.1782   25.4570 C   0  0  0  0  0  0  0  0  0  0  0  0
    6.5063  -13.6045   26.7122 C   0  0  0  0  0  0  0  0  0  0  0  0
    9.7555  -15.9084   24.7382 N   0  0  0  0  0  0  0  0  0  0  0  0
   10.0064  -16.8953   25.7789 C   0  0  1  0  0  0  0  0  0  0  0  0
   11.3333  -17.5623   25.5687 C   0  0  0  0  0  0  0  0  0  0  0  0
   11.2652  -18.4814   24.4209 C   0  0  0  0  0  0  0  0  0  0  0  0
   12.1297  -18.4299   23.3415 C   0  0  0  0  0  0  0  0  0  0  0  0
   11.7616  -19.4275   22.4865 N   0  0  0  0  0  0  0  0  0  0  0  0
   10.7177  -20.0758   23.0002 C   0  0  0  0  0  0  0  0  0  0  0  0
   10.4386  -19.4832   24.1696 N   0  0  0  0  0  0  0  0  0  0  0  0
   10.0105  -16.1995   27.0833 C   0  0  0  0  0  0  0  0  0  0  0  0
   10.2458  -16.8868   28.1305 O   0  0  0  0  0  0  0  0  0  0  0  0
    9.7773  -14.8438   27.2566 O   0  0  0  0  0  0  0  0  0  0  0  0
  2  1  1  6
  2  3  1  0
  3  4  1  0
  4  5  2  0
  4  8  1  0
  5  6  1  0
  6  7  1  0
  8  7  2  0
  9 18  1  0
  9  2  1  0
 10  9  2  0
 11 12  1  0
 12 22  2  0
 13 14  2  0
 13 12  1  0
 14 15  1  0
 15 16  1  0
 15 21  2  0
 17 16  1  1
 17 18  1  0
 19 17  1  0
 20 19  2  0
 22 21  1  0
 23 19  1  0
 24 31  1  0
 24 23  1  0
 24 25  1  6
 26 27  2  0
 26 25  1  0
 28 27  1  0
 29 30  2  0
 29 28  1  0
 30 26  1  0
 31 33  1  0
 32 31  2  0
M  END
$$$$
