HYH.pdb
     RDKit          3D

 33 35  0  0  1  0  0  0  0  0999 V2000
    9.1066  -13.0717   18.8375 N   0  0  0  0  0  0  0  0  0  0  0  0
    8.2983  -14.0475   19.5115 C   0  0  1  0  0  0  0  0  0  0  0  0
    8.3105  -15.3884   18.7984 C   0  0  0  0  0  0  0  0  0  0  0  0
    7.6843  -15.2872   17.4660 C   0  0  0  0  0  0  0  0  0  0  0  0
    7.7349  -14.1612   16.6731 C   0  0  0  0  0  0  0  0  0  0  0  0
    7.0652  -14.3995   15.5240 N   0  0  0  0  0  0  0  0  0  0  0  0
    6.5900  -15.6661   15.5798 C   0  0  0  0  0  0  0  0  0  0  0  0
    6.9742  -16.1893   16.7628 N   0  0  0  0  0  0  0  0  0  0  0  0
    8.7260  -14.2069   20.9249 C   0  0  0  0  0  0  0  0  0  0  0  0
    9.9365  -14.2965   21.1748 O   0  0  0  0  0  0  0  0  0  0  0  0
    8.7027  -13.9068   29.7414 O   0  0  0  0  0  0  0  0  0  0  0  0
    8.2925  -13.9125   28.4113 C   0  0  0  0  0  0  0  0  0  0  0  0
    8.4767  -12.8029   27.6107 C   0  0  0  0  0  0  0  0  0  0  0  0
    8.0748  -12.7874   26.2809 C   0  0  0  0  0  0  0  0  0  0  0  0
    7.4707  -13.8954   25.7112 C   0  0  0  0  0  0  0  0  0  0  0  0
    7.0438  -13.8683   24.2871 C   0  0  0  0  0  0  0  0  0  0  0  0
    8.1483  -14.3588   23.3723 C   0  0  2  0  0  0  0  0  0  0  0  0
    7.7775  -14.2575   21.9817 N   0  0  0  0  0  0  0  0  0  0  0  0
    8.6406  -15.6885   23.7428 C   0  0  0  0  0  0  0  0  0  0  0  0
    7.9280  -16.6929   23.4765 O   0  0  0  0  0  0  0  0  0  0  0  0
    7.2910  -14.9976   26.5168 C   0  0  0  0  0  0  0  0  0  0  0  0
    7.6905  -15.0134   27.8389 C   0  0  0  0  0  0  0  0  0  0  0  0
    9.8771  -15.9341   24.3879 N   0  0  0  0  0  0  0  0  0  0  0  0
   10.2324  -17.2862   24.7951 C   0  0  1  0  0  0  0  0  0  0  0  0
   11.5429  -17.6951   24.1907 C   0  0  0  0  0  0  0  0  0  0  0  0
   11.4173  -17.8040   22.7280 C   0  0  0  0  0  0  0  0  0  0  0  0
   10.5385  -18.6641   22.0931 C   0  0  0  0  0  0  0  0  0  0  0  0
   10.7049  -18.4865   20.7506 N   0  0  0  0  0  0  0  0  0  0  0  0
   11.6413  -17.5611   20.5484 C   0  0  0  0  0  0  0  0  0  0  0  0
   12.0547  -17.1656   21.7605 N   0  0  0  0  0  0  0  0  0  0  0  0
   10.3457  -17.3094   26.2689 C   0  0  0  0  0  0  0  0  0  0  0  0
   10.0746  -16.2414   26.9095 O   0  0  0  0  0  0  0  0  0  0  0  0
   10.7263  -18.4143   27.0150 O   0  0  0  0  0  0  0  0  0  0  0  0
  2  1  1  6
  2  3  1  0
  3  4  1  0
  4  5  2  0
  4  8  1  0
  5  6  1  0
  6  7  1  0
  8  7  2  0
  9 18  1  0
  9  2  1  0
 10  9  2  0
 11 12  1  0
 12 22  2  0
 13 14  2  0
 13 12  1  0
 14 15  1  0
 15 16  1  0
 15 21  2  0
 17 16  1  1
 17 18  1  0
 19 17  1  0
 20 19  2  0
 22 21  1  0
 23 19  1  0
 24 31  1  0
 24 23  1  0
 24 25  1  6
 26 27  2  0
 26 25  1  0
 28 27  1  0
 29 30  2  0
 29 28  1  0
 30 26  1  0
 31 33  1  0
 32 31  2  0
M  END
$$$$
