HYH.pdb
     RDKit          3D

 33 35  0  0  1  0  0  0  0  0999 V2000
    8.7981  -12.5226   18.3657 N   0  0  0  0  0  0  0  0  0  0  0  0
    8.4869  -13.8468   18.8233 C   0  0  1  0  0  0  0  0  0  0  0  0
    9.1756  -14.9141   17.9907 C   0  0  0  0  0  0  0  0  0  0  0  0
    8.7508  -14.8430   16.5793 C   0  0  0  0  0  0  0  0  0  0  0  0
    7.4432  -14.6840   16.1740 C   0  0  0  0  0  0  0  0  0  0  0  0
    7.3991  -14.6586   14.8238 N   0  0  0  0  0  0  0  0  0  0  0  0
    8.6661  -14.7999   14.3679 C   0  0  0  0  0  0  0  0  0  0  0  0
    9.4721  -14.9103   15.4445 N   0  0  0  0  0  0  0  0  0  0  0  0
    8.8298  -14.0068   20.2595 C   0  0  0  0  0  0  0  0  0  0  0  0
    9.9355  -13.6118   20.6559 O   0  0  0  0  0  0  0  0  0  0  0  0
    6.6398  -11.4005   27.6394 O   0  0  0  0  0  0  0  0  0  0  0  0
    6.7411  -12.3330   26.6111 C   0  0  0  0  0  0  0  0  0  0  0  0
    6.3926  -11.9987   25.3177 C   0  0  0  0  0  0  0  0  0  0  0  0
    6.4861  -12.9140   24.2768 C   0  0  0  0  0  0  0  0  0  0  0  0
    6.9363  -14.2031   24.5062 C   0  0  0  0  0  0  0  0  0  0  0  0
    7.0322  -15.1753   23.3851 C   0  0  0  0  0  0  0  0  0  0  0  0
    8.2629  -14.9188   22.5385 C   0  0  2  0  0  0  0  0  0  0  0  0
    7.9184  -14.5997   21.1742 N   0  0  0  0  0  0  0  0  0  0  0  0
    9.2572  -15.9899   22.6470 C   0  0  0  0  0  0  0  0  0  0  0  0
    9.4336  -16.7533   21.6602 O   0  0  0  0  0  0  0  0  0  0  0  0
    7.2817  -14.5280   25.7989 C   0  0  0  0  0  0  0  0  0  0  0  0
    7.1889  -13.6183   26.8341 C   0  0  0  0  0  0  0  0  0  0  0  0
   10.0478  -16.2361   23.7958 N   0  0  0  0  0  0  0  0  0  0  0  0
   11.4001  -16.7566   23.6537 C   0  0  1  0  0  0  0  0  0  0  0  0
   12.3234  -15.6981   23.1277 C   0  0  0  0  0  0  0  0  0  0  0  0
   12.4220  -15.7907   21.6618 C   0  0  0  0  0  0  0  0  0  0  0  0
   12.9971  -14.8155   20.8661 C   0  0  0  0  0  0  0  0  0  0  0  0
   12.9055  -15.2475   19.5751 N   0  0  0  0  0  0  0  0  0  0  0  0
   12.3031  -16.4352   19.5570 C   0  0  0  0  0  0  0  0  0  0  0  0
   12.0217  -16.7397   20.8316 N   0  0  0  0  0  0  0  0  0  0  0  0
   11.8681  -17.1951   24.9858 C   0  0  0  0  0  0  0  0  0  0  0  0
   13.0293  -17.7129   25.0745 O   0  0  0  0  0  0  0  0  0  0  0  0
   11.1347  -17.0841   26.1571 O   0  0  0  0  0  0  0  0  0  0  0  0
  2  1  1  6
  2  3  1  0
  3  4  1  0
  4  5  2  0
  4  8  1  0
  5  6  1  0
  6  7  1  0
  8  7  2  0
  9 18  1  0
  9  2  1  0
 10  9  2  0
 11 12  1  0
 12 22  2  0
 13 14  2  0
 13 12  1  0
 14 15  1  0
 15 16  1  0
 15 21  2  0
 17 16  1  1
 17 18  1  0
 19 17  1  0
 20 19  2  0
 22 21  1  0
 23 19  1  0
 24 31  1  0
 24 23  1  0
 24 25  1  1
 26 27  2  0
 26 25  1  0
 28 27  1  0
 29 30  2  0
 29 28  1  0
 30 26  1  0
 31 33  1  0
 32 31  2  0
M  END
$$$$
