HYH.pdb
     RDKit          3D

 33 35  0  0  1  0  0  0  0  0999 V2000
    9.9060  -18.4782   18.9948 N   0  0  0  0  0  0  0  0  0  0  0  0
    9.0992  -18.4514   20.1815 C   0  0  1  0  0  0  0  0  0  0  0  0
    9.0922  -19.7915   20.8962 C   0  0  0  0  0  0  0  0  0  0  0  0
    8.4989  -20.8430   20.0477 C   0  0  0  0  0  0  0  0  0  0  0  0
    9.0761  -21.3172   18.8896 C   0  0  0  0  0  0  0  0  0  0  0  0
    8.2800  -22.2702   18.3571 N   0  0  0  0  0  0  0  0  0  0  0  0
    7.2028  -22.4058   19.1661 C   0  0  0  0  0  0  0  0  0  0  0  0
    7.3516  -21.5338   20.1852 N   0  0  0  0  0  0  0  0  0  0  0  0
    9.5438  -17.3741   21.1021 C   0  0  0  0  0  0  0  0  0  0  0  0
   10.7560  -17.1353   21.1987 O   0  0  0  0  0  0  0  0  0  0  0  0
    7.4579  -12.5447   17.3415 O   0  0  0  0  0  0  0  0  0  0  0  0
    7.5908  -13.0048   18.6484 C   0  0  0  0  0  0  0  0  0  0  0  0
    8.5685  -12.4964   19.4801 C   0  0  0  0  0  0  0  0  0  0  0  0
    8.7184  -12.9414   20.7876 C   0  0  0  0  0  0  0  0  0  0  0  0
    7.8836  -13.9187   21.3027 C   0  0  0  0  0  0  0  0  0  0  0  0
    8.0529  -14.3885   22.7033 C   0  0  0  0  0  0  0  0  0  0  0  0
    8.9956  -15.5730   22.7761 C   0  0  2  0  0  0  0  0  0  0  0  0
    8.6095  -16.6225   21.8643 N   0  0  0  0  0  0  0  0  0  0  0  0
    9.2030  -16.0473   24.1471 C   0  0  0  0  0  0  0  0  0  0  0  0
    8.3549  -16.8314   24.6505 O   0  0  0  0  0  0  0  0  0  0  0  0
    6.9114  -14.4201   20.4664 C   0  0  0  0  0  0  0  0  0  0  0  0
    6.7620  -13.9779   19.1664 C   0  0  0  0  0  0  0  0  0  0  0  0
   10.3027  -15.6851   24.9626 N   0  0  0  0  0  0  0  0  0  0  0  0
   10.6182  -16.4643   26.1514 C   0  0  1  0  0  0  0  0  0  0  0  0
    9.8728  -17.7659   26.1457 C   0  0  0  0  0  0  0  0  0  0  0  0
   10.2263  -18.5606   27.3333 C   0  0  0  0  0  0  0  0  0  0  0  0
   10.5121  -18.0101   28.5704 C   0  0  0  0  0  0  0  0  0  0  0  0
   10.7916  -19.0456   29.4138 N   0  0  0  0  0  0  0  0  0  0  0  0
   10.6874  -20.1916   28.7431 C   0  0  0  0  0  0  0  0  0  0  0  0
   10.3447  -19.8691   27.4880 N   0  0  0  0  0  0  0  0  0  0  0  0
   12.0718  -16.7338   26.1541 C   0  0  0  0  0  0  0  0  0  0  0  0
   12.6308  -17.0270   25.0468 O   0  0  0  0  0  0  0  0  0  0  0  0
   12.8816  -16.6904   27.2785 O   0  0  0  0  0  0  0  0  0  0  0  0
  2  1  1  6
  2  3  1  0
  3  4  1  0
  4  5  2  0
  4  8  1  0
  5  6  1  0
  6  7  1  0
  8  7  2  0
  9 18  1  0
  9  2  1  0
 10  9  2  0
 11 12  1  0
 12 22  2  0
 13 14  2  0
 13 12  1  0
 14 15  1  0
 15 16  1  0
 15 21  2  0
 17 16  1  1
 17 18  1  0
 19 17  1  0
 20 19  2  0
 22 21  1  0
 23 19  1  0
 24 31  1  0
 24 23  1  0
 24 25  1  6
 26 27  2  0
 26 25  1  0
 28 27  1  0
 29 30  2  0
 29 28  1  0
 30 26  1  0
 31 33  1  0
 32 31  2  0
M  END
$$$$
