HYH.pdb
     RDKit          3D

 33 35  0  0  1  0  0  0  0  0999 V2000
   10.4112  -17.6424   18.2651 N   0  0  0  0  0  0  0  0  0  0  0  0
    9.6880  -18.0074   19.4498 C   0  0  1  0  0  0  0  0  0  0  0  0
    9.8647  -19.4757   19.7957 C   0  0  0  0  0  0  0  0  0  0  0  0
    9.4157  -20.3403   18.6874 C   0  0  0  0  0  0  0  0  0  0  0  0
   10.2676  -20.9664   17.8033 C   0  0  0  0  0  0  0  0  0  0  0  0
    9.5384  -21.6779   16.9158 N   0  0  0  0  0  0  0  0  0  0  0  0
    8.2317  -21.5096   17.2279 C   0  0  0  0  0  0  0  0  0  0  0  0
    8.1755  -20.6966   18.3035 N   0  0  0  0  0  0  0  0  0  0  0  0
   10.0827  -17.1521   20.5980 C   0  0  0  0  0  0  0  0  0  0  0  0
   11.2569  -16.7634   20.6757 O   0  0  0  0  0  0  0  0  0  0  0  0
    7.3397  -12.2629   17.9120 O   0  0  0  0  0  0  0  0  0  0  0  0
    7.6298  -12.8741   19.1284 C   0  0  0  0  0  0  0  0  0  0  0  0
    6.8332  -13.8912   19.6154 C   0  0  0  0  0  0  0  0  0  0  0  0
    7.1047  -14.5146   20.8269 C   0  0  0  0  0  0  0  0  0  0  0  0
    8.1937  -14.1315   21.5915 C   0  0  0  0  0  0  0  0  0  0  0  0
    8.4752  -14.8049   22.8871 C   0  0  0  0  0  0  0  0  0  0  0  0
    9.4759  -15.9303   22.7160 C   0  0  2  0  0  0  0  0  0  0  0  0
    9.1438  -16.7779   21.5966 N   0  0  0  0  0  0  0  0  0  0  0  0
    9.7057  -16.6762   23.9563 C   0  0  0  0  0  0  0  0  0  0  0  0
    8.8769  -16.5543   24.8975 O   0  0  0  0  0  0  0  0  0  0  0  0
    8.9827  -13.1165   21.0984 C   0  0  0  0  0  0  0  0  0  0  0  0
    8.7131  -12.4965   19.8939 C   0  0  0  0  0  0  0  0  0  0  0  0
   10.8068  -17.5380   24.1809 N   0  0  0  0  0  0  0  0  0  0  0  0
   11.7770  -17.2272   25.2212 C   0  0  1  0  0  0  0  0  0  0  0  0
   12.4892  -15.9430   24.9157 C   0  0  0  0  0  0  0  0  0  0  0  0
   13.5316  -16.1675   23.9009 C   0  0  0  0  0  0  0  0  0  0  0  0
   13.5224  -17.2260   23.0095 C   0  0  0  0  0  0  0  0  0  0  0  0
   14.6370  -17.1038   22.2321 N   0  0  0  0  0  0  0  0  0  0  0  0
   15.3154  -16.0229   22.6135 C   0  0  0  0  0  0  0  0  0  0  0  0
   14.6248  -15.4760   23.6237 N   0  0  0  0  0  0  0  0  0  0  0  0
   11.0521  -17.0910   26.5024 C   0  0  0  0  0  0  0  0  0  0  0  0
   10.9805  -18.1106   27.2638 O   0  0  0  0  0  0  0  0  0  0  0  0
   10.4395  -15.9284   26.9443 O   0  0  0  0  0  0  0  0  0  0  0  0
  2  1  1  6
  2  3  1  0
  3  4  1  0
  4  5  2  0
  4  8  1  0
  5  6  1  0
  6  7  1  0
  8  7  2  0
  9 18  1  0
  9  2  1  0
 10  9  2  0
 11 12  1  0
 12 22  2  0
 13 14  2  0
 13 12  1  0
 14 15  1  0
 15 16  1  0
 15 21  2  0
 17 16  1  1
 17 18  1  0
 19 17  1  0
 20 19  2  0
 22 21  1  0
 23 19  1  0
 24 31  1  0
 24 23  1  0
 24 25  1  6
 26 27  2  0
 26 25  1  0
 28 27  1  0
 29 30  2  0
 29 28  1  0
 30 26  1  0
 31 33  1  0
 32 31  2  0
M  END
$$$$
