HYH.pdb
     RDKit          3D

 33 35  0  0  1  0  0  0  0  0999 V2000
    9.8190  -16.9782   18.8252 N   0  0  0  0  0  0  0  0  0  0  0  0
    9.2987  -17.4697   20.0692 C   0  0  1  0  0  0  0  0  0  0  0  0
   10.0676  -18.6798   20.5703 C   0  0  0  0  0  0  0  0  0  0  0  0
    9.7781  -19.8707   19.7484 C   0  0  0  0  0  0  0  0  0  0  0  0
    8.6504  -20.0154   18.9696 C   0  0  0  0  0  0  0  0  0  0  0  0
    8.6926  -21.2150   18.3494 N   0  0  0  0  0  0  0  0  0  0  0  0
    9.8364  -21.8334   18.7269 C   0  0  0  0  0  0  0  0  0  0  0  0
   10.4819  -21.0051   19.5744 N   0  0  0  0  0  0  0  0  0  0  0  0
    9.2852  -16.3997   21.0993 C   0  0  0  0  0  0  0  0  0  0  0  0
   10.2324  -15.6017   21.1421 O   0  0  0  0  0  0  0  0  0  0  0  0
    6.7202  -11.4081   27.9626 O   0  0  0  0  0  0  0  0  0  0  0  0
    6.7376  -12.2578   26.8603 C   0  0  0  0  0  0  0  0  0  0  0  0
    6.4459  -13.6001   26.9986 C   0  0  0  0  0  0  0  0  0  0  0  0
    6.4577  -14.4654   25.9118 C   0  0  0  0  0  0  0  0  0  0  0  0
    6.7654  -14.0040   24.6431 C   0  0  0  0  0  0  0  0  0  0  0  0
    6.7756  -14.9386   23.4865 C   0  0  0  0  0  0  0  0  0  0  0  0
    8.1913  -15.3019   23.0854 C   0  0  2  0  0  0  0  0  0  0  0  0
    8.2141  -16.2801   22.0251 N   0  0  0  0  0  0  0  0  0  0  0  0
    9.0260  -15.6735   24.2313 C   0  0  0  0  0  0  0  0  0  0  0  0
    9.1480  -14.8548   25.1812 O   0  0  0  0  0  0  0  0  0  0  0  0
    7.0550  -12.6640   24.5142 C   0  0  0  0  0  0  0  0  0  0  0  0
    7.0434  -11.8034   25.5945 C   0  0  0  0  0  0  0  0  0  0  0  0
    9.7174  -16.9034   24.3537 N   0  0  0  0  0  0  0  0  0  0  0  0
   10.5771  -17.1465   25.5034 C   0  0  1  0  0  0  0  0  0  0  0  0
   10.4738  -18.5745   25.9504 C   0  0  0  0  0  0  0  0  0  0  0  0
    9.1383  -18.8375   26.5109 C   0  0  0  0  0  0  0  0  0  0  0  0
    8.3790  -17.8860   27.1691 C   0  0  0  0  0  0  0  0  0  0  0  0
    7.2146  -18.4916   27.5420 N   0  0  0  0  0  0  0  0  0  0  0  0
    7.2377  -19.7611   27.1394 C   0  0  0  0  0  0  0  0  0  0  0  0
    8.4118  -19.9431   26.5191 N   0  0  0  0  0  0  0  0  0  0  0  0
   11.9715  -16.8585   25.1060 C   0  0  0  0  0  0  0  0  0  0  0  0
   12.8909  -17.0295   25.9720 O   0  0  0  0  0  0  0  0  0  0  0  0
   12.3601  -16.4141   23.8515 O   0  0  0  0  0  0  0  0  0  0  0  0
  2  1  1  6
  2  3  1  0
  3  4  1  0
  4  5  2  0
  4  8  1  0
  5  6  1  0
  6  7  1  0
  8  7  2  0
  9 18  1  0
  9  2  1  0
 10  9  2  0
 11 12  1  0
 12 22  2  0
 13 14  2  0
 13 12  1  0
 14 15  1  0
 15 16  1  0
 15 21  2  0
 17 16  1  1
 17 18  1  0
 19 17  1  0
 20 19  2  0
 22 21  1  0
 23 19  1  0
 24 31  1  0
 24 23  1  0
 24 25  1  6
 26 27  2  0
 26 25  1  0
 28 27  1  0
 29 30  2  0
 29 28  1  0
 30 26  1  0
 31 33  1  0
 32 31  2  0
M  END
$$$$
