HYH.pdb
     RDKit          3D

 33 35  0  0  1  0  0  0  0  0999 V2000
   10.8136  -17.1887   19.1336 N   0  0  0  0  0  0  0  0  0  0  0  0
    9.5841  -17.3378   19.8588 C   0  0  1  0  0  0  0  0  0  0  0  0
    9.2474  -18.7962   20.1160 C   0  0  0  0  0  0  0  0  0  0  0  0
    8.6399  -19.4193   18.9243 C   0  0  0  0  0  0  0  0  0  0  0  0
    8.4266  -18.7603   17.7329 C   0  0  0  0  0  0  0  0  0  0  0  0
    7.8572  -19.6124   16.8524 N   0  0  0  0  0  0  0  0  0  0  0  0
    7.7069  -20.8061   17.4733 C   0  0  0  0  0  0  0  0  0  0  0  0
    8.1862  -20.6715   18.7275 N   0  0  0  0  0  0  0  0  0  0  0  0
    9.6257  -16.5811   21.1362 C   0  0  0  0  0  0  0  0  0  0  0  0
   10.6912  -16.5353   21.7674 O   0  0  0  0  0  0  0  0  0  0  0  0
    7.2040  -11.5536   28.0060 O   0  0  0  0  0  0  0  0  0  0  0  0
    7.2023  -12.2374   26.7937 C   0  0  0  0  0  0  0  0  0  0  0  0
    7.9697  -11.7975   25.7336 C   0  0  0  0  0  0  0  0  0  0  0  0
    7.9825  -12.4650   24.5153 C   0  0  0  0  0  0  0  0  0  0  0  0
    7.2185  -13.6038   24.3241 C   0  0  0  0  0  0  0  0  0  0  0  0
    7.2390  -14.3105   23.0159 C   0  0  0  0  0  0  0  0  0  0  0  0
    8.4574  -15.2035   22.8923 C   0  0  2  0  0  0  0  0  0  0  0  0
    8.4743  -15.9172   21.6385 N   0  0  0  0  0  0  0  0  0  0  0  0
    8.6392  -16.0763   24.0554 C   0  0  0  0  0  0  0  0  0  0  0  0
    7.7859  -16.9770   24.2747 O   0  0  0  0  0  0  0  0  0  0  0  0
    6.4562  -14.0355   25.3864 C   0  0  0  0  0  0  0  0  0  0  0  0
    6.4432  -13.3721   26.5979 C   0  0  0  0  0  0  0  0  0  0  0  0
    9.7192  -15.9825   24.9667 N   0  0  0  0  0  0  0  0  0  0  0  0
    9.8504  -16.9512   26.0457 C   0  0  1  0  0  0  0  0  0  0  0  0
   11.2150  -17.5738   26.0365 C   0  0  0  0  0  0  0  0  0  0  0  0
   11.2897  -18.6220   25.0057 C   0  0  0  0  0  0  0  0  0  0  0  0
   10.2215  -18.9953   24.2090 C   0  0  0  0  0  0  0  0  0  0  0  0
   10.6662  -19.9854   23.3822 N   0  0  0  0  0  0  0  0  0  0  0  0
   11.9500  -20.2250   23.6439 C   0  0  0  0  0  0  0  0  0  0  0  0
   12.3012  -19.3870   24.6292 N   0  0  0  0  0  0  0  0  0  0  0  0
    9.6444  -16.2446   27.3278 C   0  0  0  0  0  0  0  0  0  0  0  0
    9.4705  -14.9823   27.2972 O   0  0  0  0  0  0  0  0  0  0  0  0
    9.6242  -16.8551   28.5724 O   0  0  0  0  0  0  0  0  0  0  0  0
  2  1  1  1
  2  3  1  0
  3  4  1  0
  4  5  2  0
  4  8  1  0
  5  6  1  0
  6  7  1  0
  8  7  2  0
  9 18  1  0
  9  2  1  0
 10  9  2  0
 11 12  1  0
 12 22  2  0
 13 14  2  0
 13 12  1  0
 14 15  1  0
 15 16  1  0
 15 21  2  0
 17 16  1  1
 17 18  1  0
 19 17  1  0
 20 19  2  0
 22 21  1  0
 23 19  1  0
 24 31  1  0
 24 23  1  0
 24 25  1  1
 26 27  2  0
 26 25  1  0
 28 27  1  0
 29 30  2  0
 29 28  1  0
 30 26  1  0
 31 33  1  0
 32 31  2  0
M  END
$$$$
