HYH.pdb
     RDKit          3D

 33 35  0  0  1  0  0  0  0  0999 V2000
    9.3237  -18.0069   20.0013 N   0  0  0  0  0  0  0  0  0  0  0  0
   10.5081  -17.2546   20.3029 C   0  0  1  0  0  0  0  0  0  0  0  0
   11.0612  -16.5470   19.0781 C   0  0  0  0  0  0  0  0  0  0  0  0
   11.2142  -17.4831   17.9477 C   0  0  0  0  0  0  0  0  0  0  0  0
   12.3291  -18.2660   17.7395 C   0  0  0  0  0  0  0  0  0  0  0  0
   12.1483  -19.0042   16.6224 N   0  0  0  0  0  0  0  0  0  0  0  0
   10.9292  -18.6976   16.1194 C   0  0  0  0  0  0  0  0  0  0  0  0
   10.3771  -17.7747   16.9344 N   0  0  0  0  0  0  0  0  0  0  0  0
   10.2551  -16.2807   21.3954 C   0  0  0  0  0  0  0  0  0  0  0  0
   11.1905  -15.5686   21.7875 O   0  0  0  0  0  0  0  0  0  0  0  0
    6.6964  -11.4914   27.8417 O   0  0  0  0  0  0  0  0  0  0  0  0
    6.8676  -12.2673   26.6989 C   0  0  0  0  0  0  0  0  0  0  0  0
    7.7205  -11.8622   25.6915 C   0  0  0  0  0  0  0  0  0  0  0  0
    7.9059  -12.6214   24.5429 C   0  0  0  0  0  0  0  0  0  0  0  0
    7.2344  -13.8200   24.3707 C   0  0  0  0  0  0  0  0  0  0  0  0
    7.4397  -14.6247   23.1372 C   0  0  0  0  0  0  0  0  0  0  0  0
    8.7307  -15.4159   23.2051 C   0  0  2  0  0  0  0  0  0  0  0  0
    8.9707  -16.1560   21.9901 N   0  0  0  0  0  0  0  0  0  0  0  0
    8.8250  -16.2419   24.4120 C   0  0  0  0  0  0  0  0  0  0  0  0
    7.8715  -17.0171   24.6900 O   0  0  0  0  0  0  0  0  0  0  0  0
    6.3860  -14.2163   25.3801 C   0  0  0  0  0  0  0  0  0  0  0  0
    6.2013  -13.4619   26.5223 C   0  0  0  0  0  0  0  0  0  0  0  0
    9.9248  -16.2347   25.3041 N   0  0  0  0  0  0  0  0  0  0  0  0
    9.9430  -17.1350   26.4482 C   0  0  1  0  0  0  0  0  0  0  0  0
   11.2251  -17.9122   26.4913 C   0  0  0  0  0  0  0  0  0  0  0  0
   11.2885  -18.8534   25.3613 C   0  0  0  0  0  0  0  0  0  0  0  0
   10.2883  -18.9874   24.4144 C   0  0  0  0  0  0  0  0  0  0  0  0
   10.6976  -19.9453   23.5332 N   0  0  0  0  0  0  0  0  0  0  0  0
   11.8955  -20.3933   23.9051 C   0  0  0  0  0  0  0  0  0  0  0  0
   12.2288  -19.7162   25.0128 N   0  0  0  0  0  0  0  0  0  0  0  0
    9.8228  -16.3221   27.6770 C   0  0  0  0  0  0  0  0  0  0  0  0
    9.7615  -16.9294   28.7959 O   0  0  0  0  0  0  0  0  0  0  0  0
    9.7725  -14.9369   27.7066 O   0  0  0  0  0  0  0  0  0  0  0  0
  2  1  1  6
  2  3  1  0
  3  4  1  0
  4  5  2  0
  4  8  1  0
  5  6  1  0
  6  7  1  0
  8  7  2  0
  9 18  1  0
  9  2  1  0
 10  9  2  0
 11 12  1  0
 12 22  2  0
 13 14  2  0
 13 12  1  0
 14 15  1  0
 15 16  1  0
 15 21  2  0
 17 16  1  6
 17 18  1  0
 19 17  1  0
 20 19  2  0
 22 21  1  0
 23 19  1  0
 24 31  1  0
 24 23  1  0
 24 25  1  1
 26 27  2  0
 26 25  1  0
 28 27  1  0
 29 30  2  0
 29 28  1  0
 30 26  1  0
 31 33  1  0
 32 31  2  0
M  END
$$$$
