HYH.pdb
     RDKit          3D

 33 35  0  0  1  0  0  0  0  0999 V2000
   10.4698  -17.4185   19.2350 N   0  0  0  0  0  0  0  0  0  0  0  0
    9.3663  -17.6519   20.1225 C   0  0  1  0  0  0  0  0  0  0  0  0
    9.2472  -19.1153   20.5112 C   0  0  0  0  0  0  0  0  0  0  0  0
    8.9876  -19.9594   19.3290 C   0  0  0  0  0  0  0  0  0  0  0  0
    7.8547  -19.8684   18.5495 C   0  0  0  0  0  0  0  0  0  0  0  0
    7.9296  -20.7779   17.5532 N   0  0  0  0  0  0  0  0  0  0  0  0
    9.0991  -21.4456   17.6926 C   0  0  0  0  0  0  0  0  0  0  0  0
    9.7275  -20.9372   18.7731 N   0  0  0  0  0  0  0  0  0  0  0  0
    9.4696  -16.7993   21.3343 C   0  0  0  0  0  0  0  0  0  0  0  0
   10.5868  -16.6090   21.8357 O   0  0  0  0  0  0  0  0  0  0  0  0
    7.2748  -11.3462   27.9644 O   0  0  0  0  0  0  0  0  0  0  0  0
    7.2575  -12.0965   26.7922 C   0  0  0  0  0  0  0  0  0  0  0  0
    6.4535  -13.2133   26.6804 C   0  0  0  0  0  0  0  0  0  0  0  0
    6.4211  -13.9762   25.5198 C   0  0  0  0  0  0  0  0  0  0  0  0
    7.2020  -13.6369   24.4279 C   0  0  0  0  0  0  0  0  0  0  0  0
    7.1603  -14.4605   23.1905 C   0  0  0  0  0  0  0  0  0  0  0  0
    8.3718  -15.3658   23.0911 C   0  0  2  0  0  0  0  0  0  0  0  0
    8.3187  -16.2063   21.9196 N   0  0  0  0  0  0  0  0  0  0  0  0
    8.6220  -16.1133   24.3266 C   0  0  0  0  0  0  0  0  0  0  0  0
    7.7487  -16.9281   24.7276 O   0  0  0  0  0  0  0  0  0  0  0  0
    8.0007  -12.5218   24.5480 C   0  0  0  0  0  0  0  0  0  0  0  0
    8.0332  -11.7630   25.7017 C   0  0  0  0  0  0  0  0  0  0  0  0
    9.7904  -15.9870   25.1169 N   0  0  0  0  0  0  0  0  0  0  0  0
    9.9904  -16.8555   26.2684 C   0  0  1  0  0  0  0  0  0  0  0  0
   11.3523  -17.4827   26.2294 C   0  0  0  0  0  0  0  0  0  0  0  0
   11.4011  -18.5306   25.1967 C   0  0  0  0  0  0  0  0  0  0  0  0
   10.2932  -19.2402   24.7674 C   0  0  0  0  0  0  0  0  0  0  0  0
   10.7239  -20.1151   23.8131 N   0  0  0  0  0  0  0  0  0  0  0  0
   12.0371  -19.9653   23.6483 C   0  0  0  0  0  0  0  0  0  0  0  0
   12.4204  -19.0013   24.4969 N   0  0  0  0  0  0  0  0  0  0  0  0
    9.8650  -16.0355   27.4920 C   0  0  0  0  0  0  0  0  0  0  0  0
    9.7155  -14.7767   27.3594 O   0  0  0  0  0  0  0  0  0  0  0  0
    9.8963  -16.5352   28.7849 O   0  0  0  0  0  0  0  0  0  0  0  0
  2  1  1  6
  2  3  1  0
  3  4  1  0
  4  5  2  0
  4  8  1  0
  5  6  1  0
  6  7  1  0
  8  7  2  0
  9 18  1  0
  9  2  1  0
 10  9  2  0
 11 12  1  0
 12 22  2  0
 13 14  2  0
 13 12  1  0
 14 15  1  0
 15 16  1  0
 15 21  2  0
 17 16  1  1
 17 18  1  0
 19 17  1  0
 20 19  2  0
 22 21  1  0
 23 19  1  0
 24 31  1  0
 24 23  1  0
 24 25  1  6
 26 27  2  0
 26 25  1  0
 28 27  1  0
 29 30  2  0
 29 28  1  0
 30 26  1  0
 31 33  1  0
 32 31  2  0
M  END
$$$$
