HYH.pdb
     RDKit          3D

 33 35  0  0  1  0  0  0  0  0999 V2000
    9.1567  -17.2452   17.6138 N   0  0  0  0  0  0  0  0  0  0  0  0
    9.0076  -17.9935   18.8294 C   0  0  1  0  0  0  0  0  0  0  0  0
    9.7007  -19.3430   18.7566 C   0  0  0  0  0  0  0  0  0  0  0  0
   10.1081  -19.6569   17.3735 C   0  0  0  0  0  0  0  0  0  0  0  0
    9.4038  -19.2684   16.2544 C   0  0  0  0  0  0  0  0  0  0  0  0
   10.0444  -19.7152   15.1519 N   0  0  0  0  0  0  0  0  0  0  0  0
   11.1487  -20.3838   15.5602 C   0  0  0  0  0  0  0  0  0  0  0  0
   11.1718  -20.3388   16.9086 N   0  0  0  0  0  0  0  0  0  0  0  0
    9.5025  -17.2175   19.9951 C   0  0  0  0  0  0  0  0  0  0  0  0
   10.5902  -16.6310   19.9022 O   0  0  0  0  0  0  0  0  0  0  0  0
    7.7220  -11.5105   18.4727 O   0  0  0  0  0  0  0  0  0  0  0  0
    7.8291  -12.4404   19.5028 C   0  0  0  0  0  0  0  0  0  0  0  0
    8.8539  -12.3586   20.4243 C   0  0  0  0  0  0  0  0  0  0  0  0
    8.9793  -13.2762   21.4599 C   0  0  0  0  0  0  0  0  0  0  0  0
    8.0712  -14.3118   21.6017 C   0  0  0  0  0  0  0  0  0  0  0  0
    8.2147  -15.2889   22.7134 C   0  0  0  0  0  0  0  0  0  0  0  0
    9.1913  -16.3910   22.3544 C   0  0  2  0  0  0  0  0  0  0  0  0
    8.7549  -17.1396   21.2009 N   0  0  0  0  0  0  0  0  0  0  0  0
    9.5307  -17.2408   23.4991 C   0  0  0  0  0  0  0  0  0  0  0  0
    8.6825  -18.0818   23.9003 O   0  0  0  0  0  0  0  0  0  0  0  0
    7.0524  -14.3858   20.6784 C   0  0  0  0  0  0  0  0  0  0  0  0
    6.9274  -13.4738   19.6486 C   0  0  0  0  0  0  0  0  0  0  0  0
   10.7600  -17.1875   24.2002 N   0  0  0  0  0  0  0  0  0  0  0  0
   11.0232  -18.1226   25.2848 C   0  0  1  0  0  0  0  0  0  0  0  0
   12.4772  -18.1123   25.6529 C   0  0  0  0  0  0  0  0  0  0  0  0
   12.7230  -19.0229   26.7831 C   0  0  0  0  0  0  0  0  0  0  0  0
   12.3670  -20.3601   26.7854 C   0  0  0  0  0  0  0  0  0  0  0  0
   12.7506  -20.8740   27.9898 N   0  0  0  0  0  0  0  0  0  0  0  0
   13.3199  -19.9098   28.7111 C   0  0  0  0  0  0  0  0  0  0  0  0
   13.2900  -18.8017   27.9577 N   0  0  0  0  0  0  0  0  0  0  0  0
   10.2200  -17.7095   26.4552 C   0  0  0  0  0  0  0  0  0  0  0  0
    9.7580  -16.5218   26.4782 O   0  0  0  0  0  0  0  0  0  0  0  0
    9.9266  -18.5225   27.5392 O   0  0  0  0  0  0  0  0  0  0  0  0
  2  1  1  6
  2  3  1  0
  3  4  1  0
  4  5  2  0
  4  8  1  0
  5  6  1  0
  6  7  1  0
  8  7  2  0
  9 18  1  0
  9  2  1  0
 10  9  2  0
 11 12  1  0
 12 22  2  0
 13 14  2  0
 13 12  1  0
 14 15  1  0
 15 16  1  0
 15 21  2  0
 17 16  1  1
 17 18  1  0
 19 17  1  0
 20 19  2  0
 22 21  1  0
 23 19  1  0
 24 31  1  0
 24 23  1  0
 24 25  1  1
 26 27  2  0
 26 25  1  0
 28 27  1  0
 29 30  2  0
 29 28  1  0
 30 26  1  0
 31 33  1  0
 32 31  2  0
M  END
$$$$
