HYH.pdb
     RDKit          3D

 33 35  0  0  1  0  0  0  0  0999 V2000
   10.4397  -17.1162   16.7646 N   0  0  0  0  0  0  0  0  0  0  0  0
    9.9677  -17.9236   17.8532 C   0  0  1  0  0  0  0  0  0  0  0  0
   10.4872  -19.3485   17.7731 C   0  0  0  0  0  0  0  0  0  0  0  0
   10.1616  -19.9601   16.4701 C   0  0  0  0  0  0  0  0  0  0  0  0
    8.8899  -20.3261   16.0857 C   0  0  0  0  0  0  0  0  0  0  0  0
    8.9385  -20.8532   14.8425 N   0  0  0  0  0  0  0  0  0  0  0  0
   10.2291  -20.8252   14.4340 C   0  0  0  0  0  0  0  0  0  0  0  0
   10.9563  -20.2812   15.4320 N   0  0  0  0  0  0  0  0  0  0  0  0
   10.3232  -17.3138   19.1600 C   0  0  0  0  0  0  0  0  0  0  0  0
   11.4934  -16.9534   19.3509 O   0  0  0  0  0  0  0  0  0  0  0  0
    7.0278  -11.6866   18.3915 O   0  0  0  0  0  0  0  0  0  0  0  0
    7.3873  -12.6962   19.2797 C   0  0  0  0  0  0  0  0  0  0  0  0
    8.3799  -12.4916   20.2173 C   0  0  0  0  0  0  0  0  0  0  0  0
    8.7540  -13.4856   21.1129 C   0  0  0  0  0  0  0  0  0  0  0  0
    8.1370  -14.7250   21.0930 C   0  0  0  0  0  0  0  0  0  0  0  0
    8.5453  -15.7822   22.0557 C   0  0  0  0  0  0  0  0  0  0  0  0
    9.6676  -16.6327   21.4952 C   0  0  2  0  0  0  0  0  0  0  0  0
    9.3516  -17.1403   20.1821 N   0  0  0  0  0  0  0  0  0  0  0  0
   10.1061  -17.6757   22.4267 C   0  0  0  0  0  0  0  0  0  0  0  0
   10.1942  -18.8612   22.0091 O   0  0  0  0  0  0  0  0  0  0  0  0
    7.1483  -14.9204   20.1548 C   0  0  0  0  0  0  0  0  0  0  0  0
    6.7760  -13.9324   19.2642 C   0  0  0  0  0  0  0  0  0  0  0  0
   10.4440  -17.4483   23.7830 N   0  0  0  0  0  0  0  0  0  0  0  0
   11.6560  -18.0308   24.3412 C   0  0  1  0  0  0  0  0  0  0  0  0
   12.8739  -17.4520   23.6843 C   0  0  0  0  0  0  0  0  0  0  0  0
   13.3643  -18.3575   22.6325 C   0  0  0  0  0  0  0  0  0  0  0  0
   12.7273  -19.5311   22.2690 C   0  0  0  0  0  0  0  0  0  0  0  0
   13.4679  -20.0957   21.2718 N   0  0  0  0  0  0  0  0  0  0  0  0
   14.5191  -19.3179   21.0187 C   0  0  0  0  0  0  0  0  0  0  0  0
   14.4316  -18.2744   21.8553 N   0  0  0  0  0  0  0  0  0  0  0  0
   11.6901  -17.7271   25.7876 C   0  0  0  0  0  0  0  0  0  0  0  0
   10.7733  -16.9830   26.2674 O   0  0  0  0  0  0  0  0  0  0  0  0
   12.6508  -18.1950   26.6710 O   0  0  0  0  0  0  0  0  0  0  0  0
  2  1  1  6
  2  3  1  0
  3  4  1  0
  4  5  2  0
  4  8  1  0
  5  6  1  0
  6  7  1  0
  8  7  2  0
  9 18  1  0
  9  2  1  0
 10  9  2  0
 11 12  1  0
 12 22  2  0
 13 14  2  0
 13 12  1  0
 14 15  1  0
 15 16  1  0
 15 21  2  0
 17 16  1  1
 17 18  1  0
 19 17  1  0
 20 19  2  0
 22 21  1  0
 23 19  1  0
 24 31  1  0
 24 23  1  0
 24 25  1  6
 26 27  2  0
 26 25  1  0
 28 27  1  0
 29 30  2  0
 29 28  1  0
 30 26  1  0
 31 33  1  0
 32 31  2  0
M  END
$$$$
