HYH.pdb
     RDKit          3D

 33 35  0  0  1  0  0  0  0  0999 V2000
   11.5238  -15.6762   19.4749 N   0  0  0  0  0  0  0  0  0  0  0  0
   10.1386  -15.5429   19.8260 C   0  0  1  0  0  0  0  0  0  0  0  0
    9.3348  -16.7763   19.4526 C   0  0  0  0  0  0  0  0  0  0  0  0
    8.7052  -16.6189   18.1273 C   0  0  0  0  0  0  0  0  0  0  0  0
    8.8854  -15.5220   17.3127 C   0  0  0  0  0  0  0  0  0  0  0  0
    8.1726  -15.6927   16.1777 N   0  0  0  0  0  0  0  0  0  0  0  0
    7.5416  -16.8875   16.2638 C   0  0  0  0  0  0  0  0  0  0  0  0
    7.8752  -17.4351   17.4511 N   0  0  0  0  0  0  0  0  0  0  0  0
    9.9837  -15.2400   21.2717 C   0  0  0  0  0  0  0  0  0  0  0  0
   10.9694  -15.3560   22.0139 O   0  0  0  0  0  0  0  0  0  0  0  0
    6.7184  -11.9372   28.7950 O   0  0  0  0  0  0  0  0  0  0  0  0
    6.8536  -12.3505   27.4728 C   0  0  0  0  0  0  0  0  0  0  0  0
    7.6647  -11.6581   26.5959 C   0  0  0  0  0  0  0  0  0  0  0  0
    7.8137  -12.0534   25.2724 C   0  0  0  0  0  0  0  0  0  0  0  0
    7.1467  -13.1652   24.7864 C   0  0  0  0  0  0  0  0  0  0  0  0
    7.3127  -13.5795   23.3680 C   0  0  0  0  0  0  0  0  0  0  0  0
    8.5631  -14.4155   23.1820 C   0  0  2  0  0  0  0  0  0  0  0  0
    8.7358  -14.8241   21.8090 N   0  0  0  0  0  0  0  0  0  0  0  0
    8.6445  -15.5301   24.1301 C   0  0  0  0  0  0  0  0  0  0  0  0
    8.6158  -15.2773   25.3641 O   0  0  0  0  0  0  0  0  0  0  0  0
    6.3399  -13.8497   25.6677 C   0  0  0  0  0  0  0  0  0  0  0  0
    6.1915  -13.4570   26.9836 C   0  0  0  0  0  0  0  0  0  0  0  0
    8.7548  -16.8921   23.7582 N   0  0  0  0  0  0  0  0  0  0  0  0
    8.9239  -17.9164   24.7792 C   0  0  1  0  0  0  0  0  0  0  0  0
    9.0528  -19.2732   24.1529 C   0  0  0  0  0  0  0  0  0  0  0  0
    7.9414  -19.5100   23.2171 C   0  0  0  0  0  0  0  0  0  0  0  0
    6.8370  -18.6832   23.1092 C   0  0  0  0  0  0  0  0  0  0  0  0
    6.0294  -19.2182   22.1483 N   0  0  0  0  0  0  0  0  0  0  0  0
    6.5955  -20.3266   21.6738 C   0  0  0  0  0  0  0  0  0  0  0  0
    7.7500  -20.4792   22.3374 N   0  0  0  0  0  0  0  0  0  0  0  0
   10.1538  -17.6106   25.5402 C   0  0  0  0  0  0  0  0  0  0  0  0
   11.0445  -16.8917   24.9795 O   0  0  0  0  0  0  0  0  0  0  0  0
   10.4150  -18.0486   26.8295 O   0  0  0  0  0  0  0  0  0  0  0  0
  2  1  1  1
  2  3  1  0
  3  4  1  0
  4  5  2  0
  4  8  1  0
  5  6  1  0
  6  7  1  0
  8  7  2  0
  9 18  1  0
  9  2  1  0
 10  9  2  0
 11 12  1  0
 12 22  2  0
 13 14  2  0
 13 12  1  0
 14 15  1  0
 15 16  1  0
 15 21  2  0
 17 16  1  6
 17 18  1  0
 19 17  1  0
 20 19  2  0
 22 21  1  0
 23 19  1  0
 24 31  1  0
 24 23  1  0
 24 25  1  6
 26 27  2  0
 26 25  1  0
 28 27  1  0
 29 30  2  0
 29 28  1  0
 30 26  1  0
 31 33  1  0
 32 31  2  0
M  END
$$$$
