HYH.pdb
     RDKit          3D

 33 35  0  0  1  0  0  0  0  0999 V2000
   11.7339  -14.0300   19.1631 N   0  0  0  0  0  0  0  0  0  0  0  0
   10.3632  -14.2964   19.4949 C   0  0  1  0  0  0  0  0  0  0  0  0
    9.8536  -15.5660   18.8352 C   0  0  0  0  0  0  0  0  0  0  0  0
    9.1414  -15.2627   17.5788 C   0  0  0  0  0  0  0  0  0  0  0  0
    8.9898  -13.9931   17.0648 C   0  0  0  0  0  0  0  0  0  0  0  0
    8.2922  -14.0643   15.9099 N   0  0  0  0  0  0  0  0  0  0  0  0
    7.9994  -15.3671   15.6857 C   0  0  0  0  0  0  0  0  0  0  0  0
    8.5213  -16.0791   16.7063 N   0  0  0  0  0  0  0  0  0  0  0  0
   10.1765  -14.3649   20.9668 C   0  0  0  0  0  0  0  0  0  0  0  0
   11.1261  -14.7359   21.6714 O   0  0  0  0  0  0  0  0  0  0  0  0
    6.8959  -13.0218   29.0537 O   0  0  0  0  0  0  0  0  0  0  0  0
    7.0278  -13.0902   27.6698 C   0  0  0  0  0  0  0  0  0  0  0  0
    7.9177  -12.2712   27.0039 C   0  0  0  0  0  0  0  0  0  0  0  0
    8.0649  -12.3231   25.6234 C   0  0  0  0  0  0  0  0  0  0  0  0
    7.3163  -13.2067   24.8646 C   0  0  0  0  0  0  0  0  0  0  0  0
    7.4812  -13.2540   23.3875 C   0  0  0  0  0  0  0  0  0  0  0  0
    8.7235  -14.0297   22.9973 C   0  0  2  0  0  0  0  0  0  0  0  0
    8.9389  -14.0151   21.5708 N   0  0  0  0  0  0  0  0  0  0  0  0
    8.7521  -15.3778   23.5714 C   0  0  0  0  0  0  0  0  0  0  0  0
    7.7756  -16.1455   23.3603 O   0  0  0  0  0  0  0  0  0  0  0  0
    6.4313  -14.0197   25.5367 C   0  0  0  0  0  0  0  0  0  0  0  0
    6.2846  -13.9684   26.9092 C   0  0  0  0  0  0  0  0  0  0  0  0
    9.8115  -15.8913   24.3583 N   0  0  0  0  0  0  0  0  0  0  0  0
    9.6226  -17.1110   25.1308 C   0  0  1  0  0  0  0  0  0  0  0  0
   10.7304  -18.0859   24.8623 C   0  0  0  0  0  0  0  0  0  0  0  0
   10.7712  -18.4291   23.4313 C   0  0  0  0  0  0  0  0  0  0  0  0
   10.1794  -19.5586   22.8938 C   0  0  0  0  0  0  0  0  0  0  0  0
   10.4252  -19.5386   21.5518 N   0  0  0  0  0  0  0  0  0  0  0  0
   11.1361  -18.4515   21.2573 C   0  0  0  0  0  0  0  0  0  0  0  0
   11.3310  -17.7990   22.4118 N   0  0  0  0  0  0  0  0  0  0  0  0
    9.6234  -16.7535   26.5652 C   0  0  0  0  0  0  0  0  0  0  0  0
    9.4517  -17.6858   27.4172 O   0  0  0  0  0  0  0  0  0  0  0  0
    9.7996  -15.4703   27.0599 O   0  0  0  0  0  0  0  0  0  0  0  0
  2  1  1  1
  2  3  1  0
  3  4  1  0
  4  5  2  0
  4  8  1  0
  5  6  1  0
  6  7  1  0
  8  7  2  0
  9 18  1  0
  9  2  1  0
 10  9  2  0
 11 12  1  0
 12 22  2  0
 13 14  2  0
 13 12  1  0
 14 15  1  0
 15 16  1  0
 15 21  2  0
 17 16  1  6
 17 18  1  0
 19 17  1  0
 20 19  2  0
 22 21  1  0
 23 19  1  0
 24 31  1  0
 24 23  1  0
 24 25  1  1
 26 27  2  0
 26 25  1  0
 28 27  1  0
 29 30  2  0
 29 28  1  0
 30 26  1  0
 31 33  1  0
 32 31  2  0
M  END
$$$$
