AIL.pdb
     RDKit          3D

 22 21  0  0  1  0  0  0  0  0999 V2000
    6.3357  -18.8319   24.3819 C   0  0  0  0  0  0  0  0  0  0  0  0
    6.3024  -18.5785   22.9046 C   0  0  2  0  0  0  0  0  0  0  0  0
    6.5447  -19.7647   22.1181 N   0  0  0  0  0  0  0  0  0  0  0  0
    7.2905  -17.5013   22.6031 C   0  0  0  0  0  0  0  0  0  0  0  0
    8.3732  -17.8696   22.0753 O   0  0  0  0  0  0  0  0  0  0  0  0
    6.4174  -13.0492   19.8836 C   0  0  0  0  0  0  0  0  0  0  0  0
    7.0777  -14.2920   20.4589 C   0  0  0  0  0  0  0  0  0  0  0  0
    7.4849  -13.9595   21.8710 C   0  0  2  0  0  0  0  0  0  0  0  0
    8.4147  -12.7927   21.8850 C   0  0  0  0  0  0  0  0  0  0  0  0
    8.0345  -15.1598   22.6086 C   0  0  2  0  0  0  0  0  0  0  0  0
    7.0253  -16.1380   22.8949 N   0  0  0  0  0  0  0  0  0  0  0  0
    8.6071  -14.6962   23.9038 C   0  0  0  0  0  0  0  0  0  0  0  0
    9.0752  -13.5381   24.0356 O   0  0  0  0  0  0  0  0  0  0  0  0
    6.1074  -12.5885   26.4825 C   0  0  0  0  0  0  0  0  0  0  0  0
    7.4917  -13.1298   26.1018 C   0  0  1  0  0  0  0  0  0  0  0  0
    8.4838  -12.0764   26.5432 C   0  0  0  0  0  0  0  0  0  0  0  0
    7.6614  -14.4063   26.8684 C   0  0  0  0  0  0  0  0  0  0  0  0
    8.8771  -15.1677   26.3778 C   0  0  2  0  0  0  0  0  0  0  0  0
    8.6260  -15.5673   25.0015 N   0  0  0  0  0  0  0  0  0  0  0  0
    9.1847  -16.3244   27.2363 C   0  0  0  0  0  0  0  0  0  0  0  0
    9.5238  -16.1624   28.4257 O   0  0  0  0  0  0  0  0  0  0  0  0
    9.0992  -17.6015   26.7274 O   0  0  0  0  0  0  0  0  0  0  0  0
  2  1  1  1
  2  3  1  0
  4  2  1  0
  4  5  2  0
  6  7  1  0
  7  8  1  0
  8 10  1  0
  8  9  1  6
 10 11  1  1
 10 12  1  0
 11  4  1  0
 12 19  1  0
 13 12  2  0
 15 14  1  1
 15 16  1  0
 17 15  1  0
 18 17  1  1
 19 18  1  0
 20 22  1  0
 20 18  1  0
 21 20  2  0
M  END
$$$$
