AIL.pdb
     RDKit          3D

 22 21  0  0  1  0  0  0  0  0999 V2000
    5.1041  -18.0300   23.1457 C   0  0  0  0  0  0  0  0  0  0  0  0
    5.5358  -17.8294   21.7240 C   0  0  2  0  0  0  0  0  0  0  0  0
    5.7805  -19.0680   21.0235 N   0  0  0  0  0  0  0  0  0  0  0  0
    6.7408  -16.9489   21.7321 C   0  0  0  0  0  0  0  0  0  0  0  0
    7.8431  -17.5144   21.9596 O   0  0  0  0  0  0  0  0  0  0  0  0
    7.2424  -12.8821   18.2743 C   0  0  0  0  0  0  0  0  0  0  0  0
    7.5465  -14.1130   19.1133 C   0  0  0  0  0  0  0  0  0  0  0  0
    7.8164  -13.6332   20.5158 C   0  0  2  0  0  0  0  0  0  0  0  0
    9.0469  -12.7901   20.5512 C   0  0  0  0  0  0  0  0  0  0  0  0
    7.8507  -14.7678   21.5150 C   0  0  2  0  0  0  0  0  0  0  0  0
    6.6500  -15.5524   21.4966 N   0  0  0  0  0  0  0  0  0  0  0  0
    8.0022  -14.1900   22.8801 C   0  0  0  0  0  0  0  0  0  0  0  0
    7.7112  -12.9918   23.1200 O   0  0  0  0  0  0  0  0  0  0  0  0
    8.3665  -12.3178   27.2054 C   0  0  0  0  0  0  0  0  0  0  0  0
    7.3854  -13.4969   27.1661 C   0  0  1  0  0  0  0  0  0  0  0  0
    6.0599  -12.9487   27.6472 C   0  0  0  0  0  0  0  0  0  0  0  0
    7.3181  -13.9308   25.7333 C   0  0  0  0  0  0  0  0  0  0  0  0
    8.6245  -14.5705   25.3058 C   0  0  2  0  0  0  0  0  0  0  0  0
    8.4791  -14.9966   23.9222 N   0  0  0  0  0  0  0  0  0  0  0  0
    9.0030  -15.6890   26.1863 C   0  0  0  0  0  0  0  0  0  0  0  0
    9.6988  -15.4921   27.2026 O   0  0  0  0  0  0  0  0  0  0  0  0
    8.5879  -16.9687   25.8907 O   0  0  0  0  0  0  0  0  0  0  0  0
  2  1  1  1
  2  3  1  0
  4  2  1  0
  4  5  2  0
  6  7  1  0
  7  8  1  0
  8 10  1  0
  8  9  1  6
 10 11  1  1
 10 12  1  0
 11  4  1  0
 12 19  1  0
 13 12  2  0
 15 14  1  6
 15 16  1  0
 17 15  1  0
 18 17  1  1
 19 18  1  0
 20 22  1  0
 20 18  1  0
 21 20  2  0
M  END
$$$$
