AIL.pdb
     RDKit          3D

 22 21  0  0  1  0  0  0  0  0999 V2000
    6.5875  -19.2312   24.2138 C   0  0  0  0  0  0  0  0  0  0  0  0
    6.6127  -18.9726   22.7373 C   0  0  2  0  0  0  0  0  0  0  0  0
    6.9765  -20.1350   21.9621 N   0  0  0  0  0  0  0  0  0  0  0  0
    7.5382  -17.8283   22.4893 C   0  0  0  0  0  0  0  0  0  0  0  0
    8.7663  -18.1042   22.4436 O   0  0  0  0  0  0  0  0  0  0  0  0
    7.7573  -12.2517   20.0215 C   0  0  0  0  0  0  0  0  0  0  0  0
    8.4814  -13.3374   20.8016 C   0  0  0  0  0  0  0  0  0  0  0  0
    7.4667  -14.4074   21.1109 C   0  0  2  0  0  0  0  0  0  0  0  0
    6.1917  -13.7957   21.5867 C   0  0  0  0  0  0  0  0  0  0  0  0
    8.0067  -15.4554   22.0580 C   0  0  2  0  0  0  0  0  0  0  0  0
    7.0613  -16.5031   22.3148 N   0  0  0  0  0  0  0  0  0  0  0  0
    8.3290  -14.7976   23.3556 C   0  0  0  0  0  0  0  0  0  0  0  0
    8.3270  -13.5471   23.4741 O   0  0  0  0  0  0  0  0  0  0  0  0
    5.8941  -12.6936   26.1501 C   0  0  0  0  0  0  0  0  0  0  0  0
    7.3052  -13.1241   25.7282 C   0  0  1  0  0  0  0  0  0  0  0  0
    8.2494  -12.1273   26.3635 C   0  0  0  0  0  0  0  0  0  0  0  0
    7.4997  -14.5026   26.2830 C   0  0  0  0  0  0  0  0  0  0  0  0
    8.8229  -15.0827   25.8235 C   0  0  2  0  0  0  0  0  0  0  0  0
    8.6417  -15.5868   24.4707 N   0  0  0  0  0  0  0  0  0  0  0  0
    9.3111  -16.1298   26.7372 C   0  0  0  0  0  0  0  0  0  0  0  0
    9.7368  -15.8366   27.8724 O   0  0  0  0  0  0  0  0  0  0  0  0
    9.3006  -17.4489   26.3408 O   0  0  0  0  0  0  0  0  0  0  0  0
  2  1  1  1
  2  3  1  0
  4  2  1  0
  4  5  2  0
  6  7  1  0
  7  8  1  0
  8 10  1  0
  8  9  1  1
 10 11  1  1
 10 12  1  0
 11  4  1  0
 12 19  1  0
 13 12  2  0
 15 14  1  1
 15 16  1  0
 17 15  1  0
 18 17  1  1
 19 18  1  0
 20 22  1  0
 20 18  1  0
 21 20  2  0
M  END
$$$$
