AIL.pdb
     RDKit          3D

 22 21  0  0  1  0  0  0  0  0999 V2000
    5.7683  -18.6240   23.6459 C   0  0  0  0  0  0  0  0  0  0  0  0
    5.9346  -18.3302   22.1852 C   0  0  2  0  0  0  0  0  0  0  0  0
    6.0582  -19.5195   21.3760 N   0  0  0  0  0  0  0  0  0  0  0  0
    7.1147  -17.4294   22.0315 C   0  0  0  0  0  0  0  0  0  0  0  0
    8.2080  -17.9863   21.7472 O   0  0  0  0  0  0  0  0  0  0  0  0
    6.8043  -12.4758   19.7401 C   0  0  0  0  0  0  0  0  0  0  0  0
    7.2497  -13.8887   20.0817 C   0  0  0  0  0  0  0  0  0  0  0  0
    7.8462  -13.8392   21.4644 C   0  0  2  0  0  0  0  0  0  0  0  0
    9.0100  -12.9063   21.4977 C   0  0  0  0  0  0  0  0  0  0  0  0
    8.1786  -15.2151   21.9968 C   0  0  2  0  0  0  0  0  0  0  0  0
    7.0108  -16.0237   22.1966 N   0  0  0  0  0  0  0  0  0  0  0  0
    8.8618  -15.0599   23.3118 C   0  0  0  0  0  0  0  0  0  0  0  0
   10.0955  -14.8358   23.3864 O   0  0  0  0  0  0  0  0  0  0  0  0
    6.1207  -12.3632   26.7874 C   0  0  0  0  0  0  0  0  0  0  0  0
    7.3127  -12.9355   26.0089 C   0  0  1  0  0  0  0  0  0  0  0  0
    8.4339  -11.9330   26.1729 C   0  0  0  0  0  0  0  0  0  0  0  0
    7.6410  -14.2449   26.6597 C   0  0  0  0  0  0  0  0  0  0  0  0
    8.6566  -15.0122   25.8361 C   0  0  2  0  0  0  0  0  0  0  0  0
    8.1162  -15.1654   24.4938 N   0  0  0  0  0  0  0  0  0  0  0  0
    8.9886  -16.3119   26.4443 C   0  0  0  0  0  0  0  0  0  0  0  0
    9.5192  -16.3705   27.5717 O   0  0  0  0  0  0  0  0  0  0  0  0
    8.7133  -17.4794   25.7671 O   0  0  0  0  0  0  0  0  0  0  0  0
  2  1  1  1
  2  3  1  0
  4  2  1  0
  4  5  2  0
  6  7  1  0
  7  8  1  0
  8 10  1  0
  8  9  1  6
 10 11  1  1
 10 12  1  0
 11  4  1  0
 12 19  1  0
 13 12  2  0
 15 14  1  1
 15 16  1  0
 17 15  1  0
 18 17  1  1
 19 18  1  0
 20 22  1  0
 20 18  1  0
 21 20  2  0
M  END
$$$$
