AIL.pdb
     RDKit          3D

 22 21  0  0  1  0  0  0  0  0999 V2000
    7.2413  -19.4443   25.4958 C   0  0  0  0  0  0  0  0  0  0  0  0
    5.9515  -18.6889   25.6128 C   0  0  2  0  0  0  0  0  0  0  0  0
    4.8349  -19.3716   25.0032 N   0  0  0  0  0  0  0  0  0  0  0  0
    6.1609  -17.3330   25.0251 C   0  0  0  0  0  0  0  0  0  0  0  0
    5.8091  -17.1852   23.8248 O   0  0  0  0  0  0  0  0  0  0  0  0
    6.4820  -12.5220   27.8847 C   0  0  0  0  0  0  0  0  0  0  0  0
    6.0598  -13.5094   26.8085 C   0  0  0  0  0  0  0  0  0  0  0  0
    7.3073  -13.9063   26.0624 C   0  0  2  0  0  0  0  0  0  0  0  0
    7.9230  -12.7167   25.4052 C   0  0  0  0  0  0  0  0  0  0  0  0
    7.0642  -15.0495   25.1029 C   0  0  2  0  0  0  0  0  0  0  0  0
    6.7249  -16.2695   25.7767 N   0  0  0  0  0  0  0  0  0  0  0  0
    8.3123  -15.2855   24.3240 C   0  0  0  0  0  0  0  0  0  0  0  0
    9.1840  -16.1010   24.7152 O   0  0  0  0  0  0  0  0  0  0  0  0
    8.1590  -12.1652   19.8924 C   0  0  0  0  0  0  0  0  0  0  0  0
    8.0096  -13.3875   20.8078 C   0  0  1  0  0  0  0  0  0  0  0  0
    7.1091  -14.3516   20.0673 C   0  0  0  0  0  0  0  0  0  0  0  0
    9.3902  -13.9431   20.9839 C   0  0  0  0  0  0  0  0  0  0  0  0
    9.4024  -15.0177   22.0533 C   0  0  2  0  0  0  0  0  0  0  0  0
    8.5230  -14.5849   23.1287 N   0  0  0  0  0  0  0  0  0  0  0  0
   10.7652  -15.2951   22.5385 C   0  0  0  0  0  0  0  0  0  0  0  0
   11.6256  -15.7808   21.7772 O   0  0  0  0  0  0  0  0  0  0  0  0
   11.1004  -15.0178   23.8454 O   0  0  0  0  0  0  0  0  0  0  0  0
  2  1  1  6
  2  3  1  0
  4  2  1  0
  4  5  2  0
  6  7  1  0
  7  8  1  0
  8 10  1  0
  8  9  1  6
 10 11  1  1
 10 12  1  0
 11  4  1  0
 12 19  1  0
 13 12  2  0
 15 14  1  6
 15 16  1  0
 17 15  1  0
 18 17  1  6
 19 18  1  0
 20 22  1  0
 20 18  1  0
 21 20  2  0
M  END
$$$$
