AIL.pdb
     RDKit          3D

 22 21  0  0  1  0  0  0  0  0999 V2000
    7.0570  -19.3401   25.9899 C   0  0  0  0  0  0  0  0  0  0  0  0
    6.1300  -18.6024   25.0712 C   0  0  2  0  0  0  0  0  0  0  0  0
    5.5874  -19.4336   24.0227 N   0  0  0  0  0  0  0  0  0  0  0  0
    6.8696  -17.4282   24.5218 C   0  0  0  0  0  0  0  0  0  0  0  0
    7.3561  -17.5656   23.3681 O   0  0  0  0  0  0  0  0  0  0  0  0
    5.6943  -12.3612   26.0300 C   0  0  0  0  0  0  0  0  0  0  0  0
    6.0442  -13.4636   25.0432 C   0  0  0  0  0  0  0  0  0  0  0  0
    7.4897  -13.8194   25.2762 C   0  0  2  0  0  0  0  0  0  0  0  0
    8.3820  -12.7362   24.7696 C   0  0  0  0  0  0  0  0  0  0  0  0
    7.8431  -15.1813   24.7219 C   0  0  2  0  0  0  0  0  0  0  0  0
    7.0167  -16.2239   25.2580 N   0  0  0  0  0  0  0  0  0  0  0  0
    9.2573  -15.4843   25.0805 C   0  0  0  0  0  0  0  0  0  0  0  0
   10.2072  -15.1693   24.3213 O   0  0  0  0  0  0  0  0  0  0  0  0
   10.1813  -13.9176   27.9312 C   0  0  0  0  0  0  0  0  0  0  0  0
   10.9467  -14.8447   28.8845 C   0  0  1  0  0  0  0  0  0  0  0  0
   10.3234  -14.6422   30.2481 C   0  0  0  0  0  0  0  0  0  0  0  0
   10.7241  -16.2363   28.3749 C   0  0  0  0  0  0  0  0  0  0  0  0
   10.8664  -16.2830   26.8662 C   0  0  2  0  0  0  0  0  0  0  0  0
    9.5388  -16.1346   26.2896 N   0  0  0  0  0  0  0  0  0  0  0  0
   11.5245  -17.5207   26.4140 C   0  0  0  0  0  0  0  0  0  0  0  0
   12.7165  -17.7498   26.7014 O   0  0  0  0  0  0  0  0  0  0  0  0
   10.8226  -18.4397   25.6655 O   0  0  0  0  0  0  0  0  0  0  0  0
  2  1  1  6
  2  3  1  0
  4  2  1  0
  4  5  2  0
  6  7  1  0
  7  8  1  0
  8 10  1  0
  8  9  1  6
 10 11  1  1
 10 12  1  0
 11  4  1  0
 12 19  1  0
 13 12  2  0
 15 14  1  6
 15 16  1  0
 17 15  1  0
 18 17  1  1
 19 18  1  0
 20 22  1  0
 20 18  1  0
 21 20  2  0
M  END
$$$$
