AIL.pdb
     RDKit          3D

 22 21  0  0  1  0  0  0  0  0999 V2000
    8.7225  -12.2023   20.0002 C   0  0  0  0  0  0  0  0  0  0  0  0
    8.3605  -13.5283   19.4017 C   0  0  2  0  0  0  0  0  0  0  0  0
    7.4566  -13.4192   18.2812 N   0  0  0  0  0  0  0  0  0  0  0  0
    7.7967  -14.3818   20.4886 C   0  0  0  0  0  0  0  0  0  0  0  0
    6.5500  -14.3192   20.6568 O   0  0  0  0  0  0  0  0  0  0  0  0
    8.4648  -19.3960   20.4461 C   0  0  0  0  0  0  0  0  0  0  0  0
    7.9522  -17.9743   20.6121 C   0  0  0  0  0  0  0  0  0  0  0  0
    8.3092  -17.5389   22.0097 C   0  0  2  0  0  0  0  0  0  0  0  0
    7.6779  -18.4425   23.0152 C   0  0  0  0  0  0  0  0  0  0  0  0
    8.0000  -16.0788   22.2536 C   0  0  2  0  0  0  0  0  0  0  0  0
    8.6192  -15.2175   21.2880 N   0  0  0  0  0  0  0  0  0  0  0  0
    8.5156  -15.7059   23.6009 C   0  0  0  0  0  0  0  0  0  0  0  0
    9.7463  -15.5812   23.8196 O   0  0  0  0  0  0  0  0  0  0  0  0
    5.5886  -12.3388   26.5968 C   0  0  0  0  0  0  0  0  0  0  0  0
    6.7720  -13.0648   25.9435 C   0  0  1  0  0  0  0  0  0  0  0  0
    7.9799  -12.1856   26.1821 C   0  0  0  0  0  0  0  0  0  0  0  0
    6.8941  -14.3785   26.6541 C   0  0  0  0  0  0  0  0  0  0  0  0
    7.9870  -15.2246   26.0310 C   0  0  2  0  0  0  0  0  0  0  0  0
    7.6122  -15.4885   24.6500 N   0  0  0  0  0  0  0  0  0  0  0  0
    8.2151  -16.4698   26.7839 C   0  0  0  0  0  0  0  0  0  0  0  0
    7.5306  -17.4871   26.5547 O   0  0  0  0  0  0  0  0  0  0  0  0
    9.1928  -16.5191   27.7530 O   0  0  0  0  0  0  0  0  0  0  0  0
  2  1  1  1
  2  3  1  0
  4  2  1  0
  4  5  2  0
  6  7  1  0
  7  8  1  0
  8 10  1  0
  8  9  1  1
 10 11  1  6
 10 12  1  0
 11  4  1  0
 12 19  1  0
 13 12  2  0
 15 14  1  1
 15 16  1  0
 17 15  1  0
 18 17  1  1
 19 18  1  0
 20 22  1  0
 20 18  1  0
 21 20  2  0
M  END
$$$$
