AIL.pdb
     RDKit          3D

 22 21  0  0  1  0  0  0  0  0999 V2000
   11.4381  -18.7775   21.4541 C   0  0  0  0  0  0  0  0  0  0  0  0
   11.6368  -17.4386   20.8095 C   0  0  2  0  0  0  0  0  0  0  0  0
   13.0272  -17.0782   20.6632 N   0  0  0  0  0  0  0  0  0  0  0  0
   10.8833  -16.4294   21.6103 C   0  0  0  0  0  0  0  0  0  0  0  0
   11.5061  -15.9000   22.5686 O   0  0  0  0  0  0  0  0  0  0  0  0
    7.2116  -13.0873   19.2540 C   0  0  0  0  0  0  0  0  0  0  0  0
    8.3950  -13.6620   20.0159 C   0  0  0  0  0  0  0  0  0  0  0  0
    7.8432  -14.3177   21.2552 C   0  0  2  0  0  0  0  0  0  0  0  0
    7.0726  -13.3320   22.0681 C   0  0  0  0  0  0  0  0  0  0  0  0
    8.9118  -15.0314   22.0524 C   0  0  2  0  0  0  0  0  0  0  0  0
    9.5398  -16.0852   21.3091 N   0  0  0  0  0  0  0  0  0  0  0  0
    8.2775  -15.6336   23.2588 C   0  0  0  0  0  0  0  0  0  0  0  0
    7.9630  -16.8492   23.2953 O   0  0  0  0  0  0  0  0  0  0  0  0
    6.1742  -11.8693   26.4847 C   0  0  0  0  0  0  0  0  0  0  0  0
    7.2686  -12.9061   26.1990 C   0  0  1  0  0  0  0  0  0  0  0  0
    8.2647  -12.7790   27.3306 C   0  0  0  0  0  0  0  0  0  0  0  0
    6.5864  -14.2404   26.2089 C   0  0  0  0  0  0  0  0  0  0  0  0
    7.4997  -15.3127   25.6479 C   0  0  2  0  0  0  0  0  0  0  0  0
    8.0243  -14.8308   24.3792 N   0  0  0  0  0  0  0  0  0  0  0  0
    6.8055  -16.6031   25.4986 C   0  0  0  0  0  0  0  0  0  0  0  0
    6.8197  -17.4442   26.4197 O   0  0  0  0  0  0  0  0  0  0  0  0
    6.1314  -16.8914   24.3325 O   0  0  0  0  0  0  0  0  0  0  0  0
  2  1  1  1
  2  3  1  0
  4  2  1  0
  4  5  2  0
  6  7  1  0
  7  8  1  0
  8 10  1  0
  8  9  1  1
 10 11  1  6
 10 12  1  0
 11  4  1  0
 12 19  1  0
 13 12  2  0
 15 14  1  1
 15 16  1  0
 17 15  1  0
 18 17  1  6
 19 18  1  0
 20 22  1  0
 20 18  1  0
 21 20  2  0
M  END
$$$$
