AIL.pdb
     RDKit          3D

 22 21  0  0  1  0  0  0  0  0999 V2000
    7.6770  -19.3940   22.3170 C   0  0  0  0  0  0  0  0  0  0  0  0
    7.7995  -18.6705   21.0096 C   0  0  2  0  0  0  0  0  0  0  0  0
    8.4114  -19.4678   19.9732 N   0  0  0  0  0  0  0  0  0  0  0  0
    8.5538  -17.4064   21.2557 C   0  0  0  0  0  0  0  0  0  0  0  0
    9.8036  -17.4656   21.1107 O   0  0  0  0  0  0  0  0  0  0  0  0
    6.5947  -12.5130   19.7850 C   0  0  0  0  0  0  0  0  0  0  0  0
    7.4939  -13.7252   19.9674 C   0  0  0  0  0  0  0  0  0  0  0  0
    7.8911  -13.7631   21.4203 C   0  0  2  0  0  0  0  0  0  0  0  0
    8.5955  -12.5043   21.8018 C   0  0  0  0  0  0  0  0  0  0  0  0
    8.6771  -15.0070   21.7693 C   0  0  2  0  0  0  0  0  0  0  0  0
    7.8997  -16.2045   21.6320 N   0  0  0  0  0  0  0  0  0  0  0  0
    9.1175  -14.9041   23.1891 C   0  0  0  0  0  0  0  0  0  0  0  0
   10.2576  -14.4720   23.4914 O   0  0  0  0  0  0  0  0  0  0  0  0
    6.1991  -12.5224   26.6305 C   0  0  0  0  0  0  0  0  0  0  0  0
    7.4324  -13.1270   25.9465 C   0  0  1  0  0  0  0  0  0  0  0  0
    8.6203  -12.3554   26.4777 C   0  0  0  0  0  0  0  0  0  0  0  0
    7.4738  -14.5652   26.3657 C   0  0  0  0  0  0  0  0  0  0  0  0
    8.5734  -15.3057   25.6302 C   0  0  2  0  0  0  0  0  0  0  0  0
    8.2446  -15.2967   24.2128 N   0  0  0  0  0  0  0  0  0  0  0  0
    8.7518  -16.6752   26.1422 C   0  0  0  0  0  0  0  0  0  0  0  0
    8.5165  -17.6621   25.4165 O   0  0  0  0  0  0  0  0  0  0  0  0
    9.1826  -16.8762   27.4350 O   0  0  0  0  0  0  0  0  0  0  0  0
  2  1  1  1
  2  3  1  0
  4  2  1  0
  4  5  2  0
  6  7  1  0
  7  8  1  0
  8 10  1  0
  8  9  1  6
 10 11  1  1
 10 12  1  0
 11  4  1  0
 12 19  1  0
 13 12  2  0
 15 14  1  1
 15 16  1  0
 17 15  1  0
 18 17  1  1
 19 18  1  0
 20 22  1  0
 20 18  1  0
 21 20  2  0
M  END
$$$$
