AIL.pdb
     RDKit          3D

 22 21  0  0  1  0  0  0  0  0999 V2000
    7.5400  -13.6079   20.0909 C   0  0  0  0  0  0  0  0  0  0  0  0
    7.2456  -14.7771   20.9820 C   0  0  2  0  0  0  0  0  0  0  0  0
    5.8334  -14.9877   21.1962 N   0  0  0  0  0  0  0  0  0  0  0  0
    7.9767  -14.5685   22.2663 C   0  0  0  0  0  0  0  0  0  0  0  0
    9.2328  -14.5133   22.1902 O   0  0  0  0  0  0  0  0  0  0  0  0
    5.7708  -11.5715   26.2333 C   0  0  0  0  0  0  0  0  0  0  0  0
    6.6835  -12.1478   25.1626 C   0  0  0  0  0  0  0  0  0  0  0  0
    7.2819  -13.4098   25.7279 C   0  0  2  0  0  0  0  0  0  0  0  0
    8.0834  -13.1058   26.9491 C   0  0  0  0  0  0  0  0  0  0  0  0
    8.0589  -14.1916   24.6926 C   0  0  2  0  0  0  0  0  0  0  0  0
    7.2950  -14.4397   23.5043 N   0  0  0  0  0  0  0  0  0  0  0  0
    8.4364  -15.5077   25.2805 C   0  0  0  0  0  0  0  0  0  0  0  0
    7.5654  -16.3397   25.6369 O   0  0  0  0  0  0  0  0  0  0  0  0
   12.6848  -17.7736   23.1168 C   0  0  0  0  0  0  0  0  0  0  0  0
   11.3121  -17.5649   23.7697 C   0  0  1  0  0  0  0  0  0  0  0  0
   10.5109  -18.8093   23.4559 C   0  0  0  0  0  0  0  0  0  0  0  0
   11.5701  -17.4284   25.2396 C   0  0  0  0  0  0  0  0  0  0  0  0
   10.2911  -17.0855   25.9780 C   0  0  2  0  0  0  0  0  0  0  0  0
    9.7910  -15.8290   25.4414 N   0  0  0  0  0  0  0  0  0  0  0  0
   10.4992  -17.0147   27.4344 C   0  0  0  0  0  0  0  0  0  0  0  0
   10.6690  -18.0529   28.1047 O   0  0  0  0  0  0  0  0  0  0  0  0
   10.5076  -15.7927   28.0700 O   0  0  0  0  0  0  0  0  0  0  0  0
  2  1  1  6
  2  3  1  0
  4  2  1  0
  4  5  2  0
  6  7  1  0
  7  8  1  0
  8 10  1  0
  8  9  1  1
 10 11  1  6
 10 12  1  0
 11  4  1  0
 12 19  1  0
 13 12  2  0
 15 14  1  6
 15 16  1  0
 17 15  1  0
 18 17  1  6
 19 18  1  0
 20 22  1  0
 20 18  1  0
 21 20  2  0
M  END
$$$$
