AIL.pdb
     RDKit          3D

 22 21  0  0  1  0  0  0  0  0999 V2000
    5.7074  -18.5215   23.7126 C   0  0  0  0  0  0  0  0  0  0  0  0
    5.8537  -18.2533   22.2448 C   0  0  2  0  0  0  0  0  0  0  0  0
    5.9678  -19.4566   21.4551 N   0  0  0  0  0  0  0  0  0  0  0  0
    7.0306  -17.3543   22.0595 C   0  0  0  0  0  0  0  0  0  0  0  0
    8.1038  -17.9074   21.7006 O   0  0  0  0  0  0  0  0  0  0  0  0
    6.6226  -12.4413   19.8365 C   0  0  0  0  0  0  0  0  0  0  0  0
    7.1261  -13.8402   20.1543 C   0  0  0  0  0  0  0  0  0  0  0  0
    7.7718  -13.7764   21.5142 C   0  0  2  0  0  0  0  0  0  0  0  0
    8.9444  -12.8541   21.4924 C   0  0  0  0  0  0  0  0  0  0  0  0
    8.1107  -15.1476   22.0546 C   0  0  2  0  0  0  0  0  0  0  0  0
    6.9454  -15.9543   22.2756 N   0  0  0  0  0  0  0  0  0  0  0  0
    8.8096  -14.9809   23.3600 C   0  0  0  0  0  0  0  0  0  0  0  0
   10.0370  -14.7199   23.4169 O   0  0  0  0  0  0  0  0  0  0  0  0
    6.3520  -12.1405   26.9035 C   0  0  0  0  0  0  0  0  0  0  0  0
    7.4471  -12.8215   26.0720 C   0  0  1  0  0  0  0  0  0  0  0  0
    8.6619  -11.9257   26.1745 C   0  0  0  0  0  0  0  0  0  0  0  0
    7.6856  -14.1540   26.7150 C   0  0  0  0  0  0  0  0  0  0  0  0
    8.6488  -14.9827   25.8878 C   0  0  2  0  0  0  0  0  0  0  0  0
    8.0864  -15.1171   24.5526 N   0  0  0  0  0  0  0  0  0  0  0  0
    8.9156  -16.2936   26.5041 C   0  0  0  0  0  0  0  0  0  0  0  0
    9.4174  -16.3714   27.6434 O   0  0  0  0  0  0  0  0  0  0  0  0
    8.6104  -17.4503   25.8213 O   0  0  0  0  0  0  0  0  0  0  0  0
  2  1  1  1
  2  3  1  0
  4  2  1  0
  4  5  2  0
  6  7  1  0
  7  8  1  0
  8 10  1  0
  8  9  1  6
 10 11  1  1
 10 12  1  0
 11  4  1  0
 12 19  1  0
 13 12  2  0
 15 14  1  1
 15 16  1  0
 17 15  1  0
 18 17  1  1
 19 18  1  0
 20 22  1  0
 20 18  1  0
 21 20  2  0
M  END
$$$$
