AIL.pdb
     RDKit          3D

 22 21  0  0  1  0  0  0  0  0999 V2000
    6.6128  -18.7919   24.8295 C   0  0  0  0  0  0  0  0  0  0  0  0
    6.4593  -18.7485   23.3388 C   0  0  2  0  0  0  0  0  0  0  0  0
    6.5860  -20.0447   22.7158 N   0  0  0  0  0  0  0  0  0  0  0  0
    7.4576  -17.7760   22.8046 C   0  0  0  0  0  0  0  0  0  0  0  0
    8.6038  -18.2344   22.5542 O   0  0  0  0  0  0  0  0  0  0  0  0
    8.0008  -12.2247   20.2354 C   0  0  0  0  0  0  0  0  0  0  0  0
    8.6926  -13.4139   20.8824 C   0  0  0  0  0  0  0  0  0  0  0  0
    7.6094  -14.3470   21.3581 C   0  0  2  0  0  0  0  0  0  0  0  0
    6.5614  -13.5923   22.1052 C   0  0  0  0  0  0  0  0  0  0  0  0
    8.1617  -15.5182   22.1393 C   0  0  2  0  0  0  0  0  0  0  0  0
    7.1338  -16.4110   22.5908 N   0  0  0  0  0  0  0  0  0  0  0  0
    8.8738  -14.9923   23.3378 C   0  0  0  0  0  0  0  0  0  0  0  0
   10.0155  -14.4761   23.2470 O   0  0  0  0  0  0  0  0  0  0  0  0
    5.9728  -12.2816   26.7469 C   0  0  0  0  0  0  0  0  0  0  0  0
    7.1605  -12.7691   25.9067 C   0  0  1  0  0  0  0  0  0  0  0  0
    8.1309  -11.6099   25.8499 C   0  0  0  0  0  0  0  0  0  0  0  0
    7.7371  -13.9384   26.6456 C   0  0  0  0  0  0  0  0  0  0  0  0
    8.8432  -14.5892   25.8383 C   0  0  2  0  0  0  0  0  0  0  0  0
    8.2611  -15.0729   24.5956 N   0  0  0  0  0  0  0  0  0  0  0  0
    9.5087  -15.6685   26.5877 C   0  0  0  0  0  0  0  0  0  0  0  0
   10.1898  -15.4139   27.6012 O   0  0  0  0  0  0  0  0  0  0  0  0
    9.3823  -16.9753   26.1710 O   0  0  0  0  0  0  0  0  0  0  0  0
  2  1  1  1
  2  3  1  0
  4  2  1  0
  4  5  2  0
  6  7  1  0
  7  8  1  0
  8 10  1  0
  8  9  1  1
 10 11  1  1
 10 12  1  0
 11  4  1  0
 12 19  1  0
 13 12  2  0
 15 14  1  1
 15 16  1  0
 17 15  1  0
 18 17  1  1
 19 18  1  0
 20 22  1  0
 20 18  1  0
 21 20  2  0
M  END
$$$$
