AIL.pdb
     RDKit          3D

 22 21  0  0  1  0  0  0  0  0999 V2000
    7.4049  -17.1761   21.6735 C   0  0  0  0  0  0  0  0  0  0  0  0
    7.5019  -15.7059   21.3963 C   0  0  2  0  0  0  0  0  0  0  0  0
    8.1879  -15.4036   20.1624 N   0  0  0  0  0  0  0  0  0  0  0  0
    8.1614  -15.0619   22.5701 C   0  0  0  0  0  0  0  0  0  0  0  0
    9.4133  -14.9385   22.5081 O   0  0  0  0  0  0  0  0  0  0  0  0
    6.9676  -11.2384   27.1909 C   0  0  0  0  0  0  0  0  0  0  0  0
    7.9757  -12.1515   26.5114 C   0  0  0  0  0  0  0  0  0  0  0  0
    7.2159  -12.9684   25.4987 C   0  0  2  0  0  0  0  0  0  0  0  0
    6.0452  -13.6359   26.1390 C   0  0  0  0  0  0  0  0  0  0  0  0
    8.1089  -13.9338   24.7521 C   0  0  2  0  0  0  0  0  0  0  0  0
    7.4194  -14.6134   23.6937 N   0  0  0  0  0  0  0  0  0  0  0  0
    8.6026  -14.9597   25.7133 C   0  0  0  0  0  0  0  0  0  0  0  0
    7.8438  -15.8537   26.1639 O   0  0  0  0  0  0  0  0  0  0  0  0
   13.8907  -15.7707   25.1758 C   0  0  0  0  0  0  0  0  0  0  0  0
   12.3771  -15.9873   25.3039 C   0  0  1  0  0  0  0  0  0  0  0  0
   12.1154  -17.3892   24.7989 C   0  0  0  0  0  0  0  0  0  0  0  0
   12.0630  -15.8567   26.7634 C   0  0  0  0  0  0  0  0  0  0  0  0
   10.5661  -15.9161   26.9962 C   0  0  2  0  0  0  0  0  0  0  0  0
    9.9414  -14.9309   26.1266 N   0  0  0  0  0  0  0  0  0  0  0  0
   10.2205  -15.6951   28.4109 C   0  0  0  0  0  0  0  0  0  0  0  0
    9.8418  -14.5744   28.8064 O   0  0  0  0  0  0  0  0  0  0  0  0
   10.3139  -16.7323   29.3125 O   0  0  0  0  0  0  0  0  0  0  0  0
  2  1  1  1
  2  3  1  0
  4  2  1  0
  4  5  2  0
  6  7  1  0
  7  8  1  0
  8 10  1  0
  8  9  1  1
 10 11  1  6
 10 12  1  0
 11  4  1  0
 12 19  1  0
 13 12  2  0
 15 14  1  1
 15 16  1  0
 17 15  1  0
 18 17  1  1
 19 18  1  0
 20 22  1  0
 20 18  1  0
 21 20  2  0
M  END
$$$$
