AIL.pdb
     RDKit          3D

 22 21  0  0  1  0  0  0  0  0999 V2000
   10.6067  -19.0924   21.7137 C   0  0  0  0  0  0  0  0  0  0  0  0
   10.8829  -17.9601   20.7707 C   0  0  2  0  0  0  0  0  0  0  0  0
   12.2564  -17.9101   20.3285 N   0  0  0  0  0  0  0  0  0  0  0  0
   10.4702  -16.6935   21.4439 C   0  0  0  0  0  0  0  0  0  0  0  0
   11.3514  -16.1162   22.1342 O   0  0  0  0  0  0  0  0  0  0  0  0
    7.2536  -12.9155   19.2024 C   0  0  0  0  0  0  0  0  0  0  0  0
    8.3823  -13.6403   19.9182 C   0  0  0  0  0  0  0  0  0  0  0  0
    7.8348  -14.1074   21.2419 C   0  0  2  0  0  0  0  0  0  0  0  0
    7.3291  -12.9495   22.0354 C   0  0  0  0  0  0  0  0  0  0  0  0
    8.8250  -14.9576   22.0059 C   0  0  2  0  0  0  0  0  0  0  0  0
    9.1581  -16.1688   21.3136 N   0  0  0  0  0  0  0  0  0  0  0  0
    8.2178  -15.3276   23.3153 C   0  0  0  0  0  0  0  0  0  0  0  0
    7.3720  -16.2519   23.4070 O   0  0  0  0  0  0  0  0  0  0  0  0
    5.8107  -12.0881   26.2086 C   0  0  0  0  0  0  0  0  0  0  0  0
    7.1519  -12.7606   25.8872 C   0  0  1  0  0  0  0  0  0  0  0  0
    8.1660  -12.1250   26.8126 C   0  0  0  0  0  0  0  0  0  0  0  0
    6.9658  -14.2173   26.1862 C   0  0  0  0  0  0  0  0  0  0  0  0
    8.2129  -15.0010   25.8271 C   0  0  2  0  0  0  0  0  0  0  0  0
    8.5949  -14.6326   24.4723 N   0  0  0  0  0  0  0  0  0  0  0  0
    8.0077  -16.4532   25.9625 C   0  0  0  0  0  0  0  0  0  0  0  0
    8.4520  -17.0697   26.9516 O   0  0  0  0  0  0  0  0  0  0  0  0
    7.3188  -17.1447   24.9905 O   0  0  0  0  0  0  0  0  0  0  0  0
  2  1  1  1
  2  3  1  0
  4  2  1  0
  4  5  2  0
  6  7  1  0
  7  8  1  0
  8 10  1  0
  8  9  1  1
 10 11  1  6
 10 12  1  0
 11  4  1  0
 12 19  1  0
 13 12  2  0
 15 14  1  1
 15 16  1  0
 17 15  1  0
 18 17  1  6
 19 18  1  0
 20 22  1  0
 20 18  1  0
 21 20  2  0
M  END
$$$$
