HQV.pdb
     RDKit          3D

 27 27  0  0  1  0  0  0  0  0999 V2000
   28.0003  -28.1167  -18.8147 N   0  0  0  0  0  0  0  0  0  0  0  0
   27.7707  -28.5296  -17.4528 C   0  0  1  0  0  0  0  0  0  0  0  0
   26.5396  -27.8209  -16.9106 C   0  0  0  0  0  0  0  0  0  0  0  0
   26.8586  -26.3935  -16.6715 C   0  0  0  0  0  0  0  0  0  0  0  0
   28.0551  -25.7911  -16.9476 C   0  0  0  0  0  0  0  0  0  0  0  0
   27.9477  -24.5070  -16.5925 N   0  0  0  0  0  0  0  0  0  0  0  0
   26.7160  -24.2851  -16.1004 C   0  0  0  0  0  0  0  0  0  0  0  0
   26.0274  -25.4491  -16.1433 N   0  0  0  0  0  0  0  0  0  0  0  0
   27.4809  -29.9856  -17.3956 C   0  0  0  0  0  0  0  0  0  0  0  0
   26.8264  -30.4930  -18.3470 O   0  0  0  0  0  0  0  0  0  0  0  0
   31.6046  -32.7422  -15.9222 N   0  0  0  0  0  0  0  0  0  0  0  0
   31.1621  -32.7709  -17.2708 C   0  0  0  0  0  0  0  0  0  0  0  0
   32.0223  -32.6724  -18.1767 O   0  0  0  0  0  0  0  0  0  0  0  0
   29.7343  -32.9120  -17.6225 C   0  0  0  0  0  0  0  0  0  0  0  0
   28.9229  -33.0364  -16.3780 C   0  0  0  0  0  0  0  0  0  0  0  0
   27.6508  -32.2504  -16.4034 C   0  0  2  0  0  0  0  0  0  0  0  0
   27.8990  -30.8215  -16.3368 N   0  0  0  0  0  0  0  0  0  0  0  0
   26.7323  -32.6249  -15.2897 C   0  0  0  0  0  0  0  0  0  0  0  0
   26.8290  -32.0940  -14.1540 O   0  0  0  0  0  0  0  0  0  0  0  0
   23.1204  -32.3109  -15.2036 C   0  0  0  0  0  0  0  0  0  0  0  0
   23.3753  -33.7592  -14.8386 C   0  0  2  0  0  0  0  0  0  0  0  0
   22.4399  -34.1863  -13.7393 C   0  0  0  0  0  0  0  0  0  0  0  0
   24.8125  -33.8963  -14.3882 C   0  0  2  0  0  0  0  0  0  0  0  0
   25.7155  -33.5987  -15.4822 N   0  0  0  0  0  0  0  0  0  0  0  0
   25.0795  -35.2924  -13.9329 C   0  0  0  0  0  0  0  0  0  0  0  0
   24.8245  -35.6100  -12.6146 O   0  0  0  0  0  0  0  0  0  0  0  0
   25.5244  -36.1798  -14.7018 O   0  0  0  0  0  0  0  0  0  0  0  0
  2  1  1  6
  3  2  1  0
  4  3  1  0
  5  4  2  0
  6  5  1  0
  7  6  1  0
  7  8  2  0
  8  4  1  0
  9  2  1  0
 10  9  2  0
 11 12  1  0
 12 14  1  0
 13 12  2  0
 14 15  1  0
 16 15  1  1
 16 17  1  0
 17  9  1  0
 18 16  1  0
 18 19  2  0
 21 20  1  1
 21 23  1  0
 22 21  1  0
 23 24  1  6
 24 18  1  0
 25 23  1  0
 26 25  1  0
 27 25  2  0
M  END
$$$$
