HQV.pdb
     RDKit          3D

 27 27  0  0  1  0  0  0  0  0999 V2000
   18.3376   -9.4848  -13.9745 N   0  0  0  0  0  0  0  0  0  0  0  0
   18.6138   -8.9845  -12.6511 C   0  0  1  0  0  0  0  0  0  0  0  0
   19.6691   -7.8931  -12.7335 C   0  0  0  0  0  0  0  0  0  0  0  0
   20.9603   -8.4872  -13.1533 C   0  0  0  0  0  0  0  0  0  0  0  0
   21.5517   -8.3173  -14.3748 C   0  0  0  0  0  0  0  0  0  0  0  0
   22.6959   -9.0080  -14.3647 N   0  0  0  0  0  0  0  0  0  0  0  0
   22.8405   -9.6079  -13.1699 C   0  0  0  0  0  0  0  0  0  0  0  0
   21.7689   -9.2932  -12.4061 N   0  0  0  0  0  0  0  0  0  0  0  0
   17.3987   -8.3560  -12.0716 C   0  0  0  0  0  0  0  0  0  0  0  0
   16.6471   -7.7038  -12.8467 O   0  0  0  0  0  0  0  0  0  0  0  0
   13.3034  -10.8792   -8.4475 N   0  0  0  0  0  0  0  0  0  0  0  0
   13.6165  -11.0369   -9.8232 C   0  0  0  0  0  0  0  0  0  0  0  0
   13.1092  -12.0043  -10.4372 O   0  0  0  0  0  0  0  0  0  0  0  0
   14.5119  -10.1009  -10.5335 C   0  0  0  0  0  0  0  0  0  0  0  0
   14.9473   -9.0215   -9.6020 C   0  0  0  0  0  0  0  0  0  0  0  0
   15.7627   -7.9509  -10.2545 C   0  0  2  0  0  0  0  0  0  0  0  0
   17.0476   -8.4528  -10.7071 N   0  0  0  0  0  0  0  0  0  0  0  0
   15.9989   -6.7893   -9.3495 C   0  0  0  0  0  0  0  0  0  0  0  0
   16.9664   -6.7704   -8.5466 O   0  0  0  0  0  0  0  0  0  0  0  0
   14.5235   -3.0344  -10.1052 C   0  0  0  0  0  0  0  0  0  0  0  0
   15.6213   -3.2972   -9.0946 C   0  0  2  0  0  0  0  0  0  0  0  0
   16.9561   -3.3591   -9.7875 C   0  0  0  0  0  0  0  0  0  0  0  0
   15.3301   -4.6073   -8.3973 C   0  0  2  0  0  0  0  0  0  0  0  0
   15.1315   -5.6639   -9.3694 N   0  0  0  0  0  0  0  0  0  0  0  0
   14.0878   -4.4910   -7.5783 C   0  0  0  0  0  0  0  0  0  0  0  0
   14.1473   -3.7787   -6.3981 O   0  0  0  0  0  0  0  0  0  0  0  0
   13.0000   -5.0145   -7.9235 O   0  0  0  0  0  0  0  0  0  0  0  0
  2  1  1  6
  3  2  1  0
  4  3  1  0
  5  4  2  0
  6  5  1  0
  7  6  1  0
  7  8  2  0
  8  4  1  0
  9  2  1  0
 10  9  2  0
 11 12  1  0
 12 14  1  0
 13 12  2  0
 14 15  1  0
 16 15  1  1
 16 17  1  0
 17  9  1  0
 18 16  1  0
 18 19  2  0
 21 20  1  6
 21 23  1  0
 22 21  1  0
 23 24  1  6
 24 18  1  0
 25 23  1  0
 26 25  1  0
 27 25  2  0
M  END
$$$$
