HQV.pdb
     RDKit          3D

 27 27  0  0  1  0  0  0  0  0999 V2000
   18.1585  -12.3354  -15.5025 N   0  0  0  0  0  0  0  0  0  0  0  0
   16.9603  -11.6695  -15.0567 C   0  0  1  0  0  0  0  0  0  0  0  0
   16.2386  -12.5492  -14.0483 C   0  0  0  0  0  0  0  0  0  0  0  0
   15.6208  -13.6987  -14.7507 C   0  0  0  0  0  0  0  0  0  0  0  0
   14.4525  -13.6592  -15.4611 C   0  0  0  0  0  0  0  0  0  0  0  0
   14.2336  -14.8879  -15.9393 N   0  0  0  0  0  0  0  0  0  0  0  0
   15.2324  -15.6995  -15.5491 C   0  0  0  0  0  0  0  0  0  0  0  0
   16.1025  -14.9739  -14.8093 N   0  0  0  0  0  0  0  0  0  0  0  0
   17.3020  -10.4079  -14.3504 C   0  0  0  0  0  0  0  0  0  0  0  0
   18.3072  -10.4139  -13.5885 O   0  0  0  0  0  0  0  0  0  0  0  0
   18.7357   -5.2774  -16.5027 N   0  0  0  0  0  0  0  0  0  0  0  0
   18.4866   -4.8248  -15.1804 C   0  0  0  0  0  0  0  0  0  0  0  0
   18.9728   -3.7238  -14.8316 O   0  0  0  0  0  0  0  0  0  0  0  0
   17.6804   -5.6106  -14.2239 C   0  0  0  0  0  0  0  0  0  0  0  0
   17.3037   -6.9146  -14.8406 C   0  0  0  0  0  0  0  0  0  0  0  0
   17.0265   -7.9969  -13.8465 C   0  0  2  0  0  0  0  0  0  0  0  0
   16.5622   -9.2130  -14.4895 N   0  0  0  0  0  0  0  0  0  0  0  0
   16.0186   -7.5843  -12.8276 C   0  0  0  0  0  0  0  0  0  0  0  0
   14.7851   -7.7016  -13.0413 O   0  0  0  0  0  0  0  0  0  0  0  0
   15.5197   -8.5179   -9.2572 C   0  0  0  0  0  0  0  0  0  0  0  0
   15.6604   -7.0094   -9.2703 C   0  0  2  0  0  0  0  0  0  0  0  0
   14.6675   -6.3906   -8.3231 C   0  0  0  0  0  0  0  0  0  0  0  0
   15.4200   -6.5157  -10.6795 C   0  0  2  0  0  0  0  0  0  0  0  0
   16.4269   -7.0436  -11.5785 N   0  0  0  0  0  0  0  0  0  0  0  0
   15.4939   -5.0256  -10.7237 C   0  0  0  0  0  0  0  0  0  0  0  0
   14.3897   -4.3041  -10.3186 O   0  0  0  0  0  0  0  0  0  0  0  0
   16.5175   -4.4117  -11.1135 O   0  0  0  0  0  0  0  0  0  0  0  0
  2  1  1  1
  3  2  1  0
  4  3  1  0
  5  4  2  0
  6  5  1  0
  7  6  1  0
  7  8  2  0
  8  4  1  0
  9  2  1  0
 10  9  2  0
 11 12  1  0
 12 14  1  0
 13 12  2  0
 14 15  1  0
 16 15  1  6
 16 17  1  0
 17  9  1  0
 18 16  1  0
 18 19  2  0
 21 20  1  6
 21 23  1  0
 22 21  1  0
 23 24  1  6
 24 18  1  0
 25 23  1  0
 26 25  1  0
 27 25  2  0
M  END
$$$$
