HQV.pdb
     RDKit          3D

 27 27  0  0  1  0  0  0  0  0999 V2000
   23.6691  -13.2325  -22.6224 N   0  0  0  0  0  0  0  0  0  0  0  0
   22.7578  -13.1572  -21.5081 C   0  0  1  0  0  0  0  0  0  0  0  0
   21.7467  -12.0491  -21.7561 C   0  0  0  0  0  0  0  0  0  0  0  0
   22.4368  -10.7379  -21.7302 C   0  0  0  0  0  0  0  0  0  0  0  0
   23.0106  -10.1652  -20.6284 C   0  0  0  0  0  0  0  0  0  0  0  0
   23.5266   -8.9928  -21.0100 N   0  0  0  0  0  0  0  0  0  0  0  0
   23.2930   -8.8122  -22.3220 C   0  0  0  0  0  0  0  0  0  0  0  0
   22.6162   -9.8892  -22.7834 N   0  0  0  0  0  0  0  0  0  0  0  0
   21.9826  -14.4189  -21.3876 C   0  0  0  0  0  0  0  0  0  0  0  0
   21.6887  -15.0325  -22.4496 O   0  0  0  0  0  0  0  0  0  0  0  0
   23.5910  -19.2429  -18.7045 N   0  0  0  0  0  0  0  0  0  0  0  0
   22.2737  -19.6438  -19.0501 C   0  0  0  0  0  0  0  0  0  0  0  0
   21.9704  -20.8524  -18.9176 O   0  0  0  0  0  0  0  0  0  0  0  0
   21.2708  -18.6832  -19.5537 C   0  0  0  0  0  0  0  0  0  0  0  0
   21.8693  -17.3190  -19.6096 C   0  0  0  0  0  0  0  0  0  0  0  0
   20.9329  -16.2670  -20.1127 C   0  0  2  0  0  0  0  0  0  0  0  0
   21.5626  -14.9594  -20.1522 N   0  0  0  0  0  0  0  0  0  0  0  0
   19.6935  -16.1722  -19.2887 C   0  0  0  0  0  0  0  0  0  0  0  0
   19.6640  -15.5035  -18.2243 O   0  0  0  0  0  0  0  0  0  0  0  0
   16.0432  -17.7145  -20.7305 C   0  0  0  0  0  0  0  0  0  0  0  0
   16.0971  -16.5082  -19.8154 C   0  0  2  0  0  0  0  0  0  0  0  0
   16.2024  -15.2470  -20.6304 C   0  0  0  0  0  0  0  0  0  0  0  0
   17.2972  -16.6474  -18.9056 C   0  0  2  0  0  0  0  0  0  0  0  0
   18.5034  -16.8393  -19.6860 N   0  0  0  0  0  0  0  0  0  0  0  0
   17.1311  -17.8296  -18.0098 C   0  0  0  0  0  0  0  0  0  0  0  0
   17.9078  -18.9448  -18.2486 O   0  0  0  0  0  0  0  0  0  0  0  0
   16.3161  -17.8440  -17.0549 O   0  0  0  0  0  0  0  0  0  0  0  0
  2  1  1  6
  3  2  1  0
  4  3  1  0
  5  4  2  0
  6  5  1  0
  7  6  1  0
  7  8  2  0
  8  4  1  0
  9  2  1  0
 10  9  2  0
 11 12  1  0
 12 14  1  0
 13 12  2  0
 14 15  1  0
 16 15  1  1
 16 17  1  0
 17  9  1  0
 18 16  1  0
 18 19  2  0
 21 20  1  6
 21 23  1  0
 22 21  1  0
 23 24  1  6
 24 18  1  0
 25 23  1  0
 26 25  1  0
 27 25  2  0
M  END
$$$$
