HQV.pdb
     RDKit          3D

 27 27  0  0  1  0  0  0  0  0999 V2000
-18537.1836-19454.5176-13729.0254 N   0  0  0  0  0  0  0  0  0  0  0  0
-18538.6230-19454.5000-13728.8926 C   0  0  1  0  0  0  0  0  0  0  0  0
-18539.1797-19455.8516-13729.3262 C   0  0  0  0  0  0  0  0  0  0  0  0
-18540.6328-19455.7168-13729.6104 C   0  0  0  0  0  0  0  0  0  0  0  0
-18541.3867-19456.6270-13730.2832 C   0  0  0  0  0  0  0  0  0  0  0  0
-18542.6348-19456.1387-13730.3447 N   0  0  0  0  0  0  0  0  0  0  0  0
-18542.6777-19454.9551-13729.7109 C   0  0  0  0  0  0  0  0  0  0  0  0
-18541.4277-19454.6777-13729.2607 N   0  0  0  0  0  0  0  0  0  0  0  0
-18538.9980-19454.3359-13727.4619 C   0  0  0  0  0  0  0  0  0  0  0  0
-18540.0332-19453.6680-13727.2012 O   0  0  0  0  0  0  0  0  0  0  0  0
-18537.6758-19451.3379-13723.1953 N   0  0  0  0  0  0  0  0  0  0  0  0
-18536.7637-19450.9961-13724.2314 C   0  0  0  0  0  0  0  0  0  0  0  0
-18535.8867-19450.1426-13723.9834 O   0  0  0  0  0  0  0  0  0  0  0  0
-18536.8477-19451.6035-13725.5771 C   0  0  0  0  0  0  0  0  0  0  0  0
-18537.9570-19452.5898-13725.6113 C   0  0  0  0  0  0  0  0  0  0  0  0
-18537.5195-19454.0156-13725.4951 C   0  0  2  0  0  0  0  0  0  0  0  0
-18538.2539-19454.8809-13726.3936 N   0  0  0  0  0  0  0  0  0  0  0  0
-18537.6602-19454.5391-13724.1074 C   0  0  0  0  0  0  0  0  0  0  0  0
-18537.3438-19455.7109-13723.8145 O   0  0  0  0  0  0  0  0  0  0  0  0
-18540.8535-19452.3926-13721.4688 C   0  0  0  0  0  0  0  0  0  0  0  0
-18539.5840-19451.9629-13722.1504 C   0  0  2  0  0  0  0  0  0  0  0  0
-18539.6973-19450.5430-13722.6328 C   0  0  0  0  0  0  0  0  0  0  0  0
-18539.3262-19452.8828-13723.3145 C   0  0  2  0  0  0  0  0  0  0  0  0
-18538.1523-19453.6973-13723.0684 N   0  0  0  0  0  0  0  0  0  0  0  0
-18539.0801-19452.1035-13724.5605 C   0  0  0  0  0  0  0  0  0  0  0  0
-18539.5527-19450.8105-13724.6162 O   0  0  0  0  0  0  0  0  0  0  0  0
-18538.4648-19452.5742-13725.5527 O   0  0  0  0  0  0  0  0  0  0  0  0
  2  1  1  1
  3  2  1  0
  4  3  1  0
  5  4  2  0
  6  5  1  0
  7  6  1  0
  7  8  2  0
  8  4  1  0
  9  2  1  0
 10  9  2  0
 11 12  1  0
 12 14  1  0
 13 12  2  0
 14 15  1  0
 16 15  1  1
 16 17  1  0
 17  9  1  0
 18 16  1  0
 18 19  2  0
 21 20  1  6
 21 23  1  0
 22 21  1  0
 23 24  1  1
 24 18  1  0
 25 23  1  0
 26 25  1  0
 27 25  2  0
M  END
$$$$
