HQV.pdb
     RDKit          3D

 27 27  0  0  1  0  0  0  0  0999 V2000
   28.3904  -21.9466  -16.8451 N   0  0  0  0  0  0  0  0  0  0  0  0
   27.6978  -20.9118  -16.1189 C   0  0  1  0  0  0  0  0  0  0  0  0
   27.1491  -19.8871  -17.0991 C   0  0  0  0  0  0  0  0  0  0  0  0
   28.2679  -19.0917  -17.6576 C   0  0  0  0  0  0  0  0  0  0  0  0
   28.8663  -19.3061  -18.8688 C   0  0  0  0  0  0  0  0  0  0  0  0
   29.8259  -18.3863  -19.0090 N   0  0  0  0  0  0  0  0  0  0  0  0
   29.8475  -17.5990  -17.9190 C   0  0  0  0  0  0  0  0  0  0  0  0
   28.8842  -18.0256  -17.0699 N   0  0  0  0  0  0  0  0  0  0  0  0
   26.5279  -21.4789  -15.3998 C   0  0  0  0  0  0  0  0  0  0  0  0
   25.8544  -22.3711  -15.9839 O   0  0  0  0  0  0  0  0  0  0  0  0
   25.5653  -21.7396   -9.2324 N   0  0  0  0  0  0  0  0  0  0  0  0
   24.8534  -20.6575   -9.8135 C   0  0  0  0  0  0  0  0  0  0  0  0
   24.3978  -19.7732   -9.0513 O   0  0  0  0  0  0  0  0  0  0  0  0
   24.6420  -20.5538  -11.2718 C   0  0  0  0  0  0  0  0  0  0  0  0
   25.2221  -21.7496  -11.9472 C   0  0  0  0  0  0  0  0  0  0  0  0
   25.0456  -21.7514  -13.4323 C   0  0  2  0  0  0  0  0  0  0  0  0
   26.1372  -21.0709  -14.1054 N   0  0  0  0  0  0  0  0  0  0  0  0
   23.7618  -21.1176  -13.8500 C   0  0  0  0  0  0  0  0  0  0  0  0
   23.6654  -19.8736  -14.0056 O   0  0  0  0  0  0  0  0  0  0  0  0
   19.6215  -21.3200  -16.2795 C   0  0  0  0  0  0  0  0  0  0  0  0
   20.9152  -21.9714  -15.8348 C   0  0  2  0  0  0  0  0  0  0  0  0
   20.6860  -23.4316  -15.5500 C   0  0  0  0  0  0  0  0  0  0  0  0
   21.4074  -21.2647  -14.5915 C   0  0  2  0  0  0  0  0  0  0  0  0
   22.6039  -21.9071  -14.0853 N   0  0  0  0  0  0  0  0  0  0  0  0
   20.3664  -21.3151  -13.5231 C   0  0  0  0  0  0  0  0  0  0  0  0
   19.3136  -20.4260  -13.5938 O   0  0  0  0  0  0  0  0  0  0  0  0
   20.4155  -22.1317  -12.5706 O   0  0  0  0  0  0  0  0  0  0  0  0
  2  1  1  6
  3  2  1  0
  4  3  1  0
  5  4  2  0
  6  5  1  0
  7  6  1  0
  7  8  2  0
  8  4  1  0
  9  2  1  0
 10  9  2  0
 11 12  1  0
 12 14  1  0
 13 12  2  0
 14 15  1  0
 16 15  1  1
 16 17  1  0
 17  9  1  0
 18 16  1  0
 18 19  2  0
 21 20  1  1
 21 23  1  0
 22 21  1  0
 23 24  1  1
 24 18  1  0
 25 23  1  0
 26 25  1  0
 27 25  2  0
M  END
$$$$
