HQV.pdb
     RDKit          3D

 27 27  0  0  1  0  0  0  0  0999 V2000
   26.9183  -19.0810  -17.4050 N   0  0  0  0  0  0  0  0  0  0  0  0
   26.3184  -18.3541  -16.3143 C   0  0  1  0  0  0  0  0  0  0  0  0
   25.4558  -17.2315  -16.8690 C   0  0  0  0  0  0  0  0  0  0  0  0
   26.3276  -16.1512  -17.3880 C   0  0  0  0  0  0  0  0  0  0  0  0
   26.8463  -15.1255  -16.6466 C   0  0  0  0  0  0  0  0  0  0  0  0
   27.5745  -14.3653  -17.4702 N   0  0  0  0  0  0  0  0  0  0  0  0
   27.5280  -14.8848  -18.7097 C   0  0  0  0  0  0  0  0  0  0  0  0
   26.7563  -15.9957  -18.6740 N   0  0  0  0  0  0  0  0  0  0  0  0
   25.4129  -19.2401  -15.5382 C   0  0  0  0  0  0  0  0  0  0  0  0
   24.8787  -20.2099  -16.1424 O   0  0  0  0  0  0  0  0  0  0  0  0
   25.7480  -20.4747   -9.4662 N   0  0  0  0  0  0  0  0  0  0  0  0
   24.6606  -21.2896   -9.8770 C   0  0  0  0  0  0  0  0  0  0  0  0
   24.1535  -22.0663   -9.0345 O   0  0  0  0  0  0  0  0  0  0  0  0
   24.1239  -21.2422  -11.2525 C   0  0  0  0  0  0  0  0  0  0  0  0
   24.8916  -20.2473  -12.0546 C   0  0  0  0  0  0  0  0  0  0  0  0
   24.3704  -20.0575  -13.4435 C   0  0  2  0  0  0  0  0  0  0  0  0
   25.1241  -19.0506  -14.1688 N   0  0  0  0  0  0  0  0  0  0  0  0
   22.9292  -19.6743  -13.4592 C   0  0  0  0  0  0  0  0  0  0  0  0
   22.5638  -18.4897  -13.2491 O   0  0  0  0  0  0  0  0  0  0  0  0
   18.5383  -20.0286  -15.2073 C   0  0  0  0  0  0  0  0  0  0  0  0
   19.9954  -20.4431  -15.1851 C   0  0  2  0  0  0  0  0  0  0  0  0
   20.1249  -21.8936  -15.5663 C   0  0  0  0  0  0  0  0  0  0  0  0
   20.5394  -20.2155  -13.7924 C   0  0  2  0  0  0  0  0  0  0  0  0
   21.9219  -20.6438  -13.7136 N   0  0  0  0  0  0  0  0  0  0  0  0
   19.7529  -21.0011  -12.7964 C   0  0  0  0  0  0  0  0  0  0  0  0
   18.5539  -20.4812  -12.3536 O   0  0  0  0  0  0  0  0  0  0  0  0
   20.1415  -22.1091  -12.3517 O   0  0  0  0  0  0  0  0  0  0  0  0
  2  1  1  6
  3  2  1  0
  4  3  1  0
  5  4  2  0
  6  5  1  0
  7  6  1  0
  7  8  2  0
  8  4  1  0
  9  2  1  0
 10  9  2  0
 11 12  1  0
 12 14  1  0
 13 12  2  0
 14 15  1  0
 16 15  1  1
 16 17  1  0
 17  9  1  0
 18 16  1  0
 18 19  2  0
 21 20  1  1
 21 23  1  0
 22 21  1  0
 23 24  1  6
 24 18  1  0
 25 23  1  0
 26 25  1  0
 27 25  2  0
M  END
$$$$
