HQV.pdb
     RDKit          3D

 27 27  0  0  1  0  0  0  0  0999 V2000
   22.2589  -13.5740  -19.2854 N   0  0  0  0  0  0  0  0  0  0  0  0
   22.9751  -12.4124  -18.8213 C   0  0  1  0  0  0  0  0  0  0  0  0
   23.8388  -11.8678  -19.9480 C   0  0  0  0  0  0  0  0  0  0  0  0
   24.9295  -12.8276  -20.2403 C   0  0  0  0  0  0  0  0  0  0  0  0
   25.1464  -14.0064  -19.5814 C   0  0  0  0  0  0  0  0  0  0  0  0
   26.2180  -14.5826  -20.1348 N   0  0  0  0  0  0  0  0  0  0  0  0
   26.6811  -13.7982  -21.1242 C   0  0  0  0  0  0  0  0  0  0  0  0
   25.8899  -12.7033  -21.2015 N   0  0  0  0  0  0  0  0  0  0  0  0
   22.0247  -11.3307  -18.4554 C   0  0  0  0  0  0  0  0  0  0  0  0
   20.9006  -11.3169  -19.0273 O   0  0  0  0  0  0  0  0  0  0  0  0
   18.0498  -11.5207  -15.2831 N   0  0  0  0  0  0  0  0  0  0  0  0
   17.9409  -10.1096  -15.3938 C   0  0  0  0  0  0  0  0  0  0  0  0
   16.8818   -9.5665  -15.0018 O   0  0  0  0  0  0  0  0  0  0  0  0
   19.0306   -9.2826  -15.9514 C   0  0  0  0  0  0  0  0  0  0  0  0
   20.1045  -10.1666  -16.4879 C   0  0  0  0  0  0  0  0  0  0  0  0
   21.2684   -9.4245  -17.0636 C   0  0  2  0  0  0  0  0  0  0  0  0
   22.3165  -10.3262  -17.5064 N   0  0  0  0  0  0  0  0  0  0  0  0
   21.8552   -8.4538  -16.0952 C   0  0  0  0  0  0  0  0  0  0  0  0
   22.6353   -8.8287  -15.1832 O   0  0  0  0  0  0  0  0  0  0  0  0
   23.2584   -5.0827  -17.4490 C   0  0  0  0  0  0  0  0  0  0  0  0
   22.4809   -4.8231  -16.1747 C   0  0  2  0  0  0  0  0  0  0  0  0
   23.1977   -3.8023  -15.3321 C   0  0  0  0  0  0  0  0  0  0  0  0
   22.3459   -6.1264  -15.4193 C   0  0  2  0  0  0  0  0  0  0  0  0
   21.5469   -7.0691  -16.1767 N   0  0  0  0  0  0  0  0  0  0  0  0
   21.6715   -5.8952  -14.1080 C   0  0  0  0  0  0  0  0  0  0  0  0
   20.3545   -6.2838  -13.9728 O   0  0  0  0  0  0  0  0  0  0  0  0
   22.2565   -5.3638  -13.1323 O   0  0  0  0  0  0  0  0  0  0  0  0
  2  1  1  6
  3  2  1  0
  4  3  1  0
  5  4  2  0
  6  5  1  0
  7  6  1  0
  7  8  2  0
  8  4  1  0
  9  2  1  0
 10  9  2  0
 11 12  1  0
 12 14  1  0
 13 12  2  0
 14 15  1  0
 16 15  1  1
 16 17  1  0
 17  9  1  0
 18 16  1  0
 18 19  2  0
 21 20  1  6
 21 23  1  0
 22 21  1  0
 23 24  1  6
 24 18  1  0
 25 23  1  0
 26 25  1  0
 27 25  2  0
M  END
$$$$
