HQV.pdb
     RDKit          3D

 27 27  0  0  1  0  0  0  0  0999 V2000
   26.4151  -19.4957  -15.8683 N   0  0  0  0  0  0  0  0  0  0  0  0
   27.3659  -19.1409  -14.8446 C   0  0  1  0  0  0  0  0  0  0  0  0
   27.9521  -17.7720  -15.1518 C   0  0  0  0  0  0  0  0  0  0  0  0
   28.6906  -17.8294  -16.4354 C   0  0  0  0  0  0  0  0  0  0  0  0
   29.9005  -18.4376  -16.6278 C   0  0  0  0  0  0  0  0  0  0  0  0
   30.2314  -18.2724  -17.9122 N   0  0  0  0  0  0  0  0  0  0  0  0
   29.2624  -17.5767  -18.5332 C   0  0  0  0  0  0  0  0  0  0  0  0
   28.2977  -17.2942  -17.6275 N   0  0  0  0  0  0  0  0  0  0  0  0
   26.6889  -19.0259  -13.5272 C   0  0  0  0  0  0  0  0  0  0  0  0
   26.2928  -17.8838  -13.1670 O   0  0  0  0  0  0  0  0  0  0  0  0
   21.6833  -21.4073  -12.7067 N   0  0  0  0  0  0  0  0  0  0  0  0
   21.8277  -20.8536  -11.4074 C   0  0  0  0  0  0  0  0  0  0  0  0
   20.8187  -20.8181  -10.6652 O   0  0  0  0  0  0  0  0  0  0  0  0
   23.1195  -20.3276  -10.9208 C   0  0  0  0  0  0  0  0  0  0  0  0
   24.1450  -20.4473  -11.9962 C   0  0  0  0  0  0  0  0  0  0  0  0
   25.5131  -20.0097  -11.5798 C   0  0  2  0  0  0  0  0  0  0  0  0
   26.4693  -20.1238  -12.6663 N   0  0  0  0  0  0  0  0  0  0  0  0
   26.0248  -20.7863  -10.4139 C   0  0  0  0  0  0  0  0  0  0  0  0
   26.2250  -22.0253  -10.4890 O   0  0  0  0  0  0  0  0  0  0  0  0
   26.7636  -18.9107   -6.6676 C   0  0  0  0  0  0  0  0  0  0  0  0
   27.5288  -20.1527   -7.0769 C   0  0  2  0  0  0  0  0  0  0  0  0
   28.8260  -19.7657   -7.7352 C   0  0  0  0  0  0  0  0  0  0  0  0
   26.6725  -20.9524   -8.0332 C   0  0  2  0  0  0  0  0  0  0  0  0
   26.3023  -20.1434   -9.1774 N   0  0  0  0  0  0  0  0  0  0  0  0
   25.4197  -21.3977   -7.3550 C   0  0  0  0  0  0  0  0  0  0  0  0
   25.4922  -22.4647   -6.4831 O   0  0  0  0  0  0  0  0  0  0  0  0
   24.3119  -20.8395   -7.5491 O   0  0  0  0  0  0  0  0  0  0  0  0
  2  1  1  6
  3  2  1  0
  4  3  1  0
  5  4  2  0
  6  5  1  0
  7  6  1  0
  7  8  2  0
  8  4  1  0
  9  2  1  0
 10  9  2  0
 11 12  1  0
 12 14  1  0
 13 12  2  0
 14 15  1  0
 16 15  1  6
 16 17  1  0
 17  9  1  0
 18 16  1  0
 18 19  2  0
 21 20  1  6
 21 23  1  0
 22 21  1  0
 23 24  1  6
 24 18  1  0
 25 23  1  0
 26 25  1  0
 27 25  2  0
M  END
$$$$
