HQV.pdb
     RDKit          3D

 27 27  0  0  1  0  0  0  0  0999 V2000
   17.6305  -12.0522  -17.2784 N   0  0  0  0  0  0  0  0  0  0  0  0
   17.4417  -10.7309  -16.7341 C   0  0  1  0  0  0  0  0  0  0  0  0
   16.3314  -10.7660  -15.6958 C   0  0  0  0  0  0  0  0  0  0  0  0
   15.0432  -11.0695  -16.3626 C   0  0  0  0  0  0  0  0  0  0  0  0
   14.3071  -12.2086  -16.1847 C   0  0  0  0  0  0  0  0  0  0  0  0
   13.2196  -12.1064  -16.9550 N   0  0  0  0  0  0  0  0  0  0  0  0
   13.2514  -10.9338  -17.6128 C   0  0  0  0  0  0  0  0  0  0  0  0
   14.3796  -10.2783  -17.2544 N   0  0  0  0  0  0  0  0  0  0  0  0
   18.6689  -10.2825  -16.0270 C   0  0  0  0  0  0  0  0  0  0  0  0
   19.3064  -11.1384  -15.3547 O   0  0  0  0  0  0  0  0  0  0  0  0
   22.6875  -11.4699  -14.9136 N   0  0  0  0  0  0  0  0  0  0  0  0
   23.4676  -10.3206  -15.2070 C   0  0  0  0  0  0  0  0  0  0  0  0
   24.6480  -10.2853  -14.7878 O   0  0  0  0  0  0  0  0  0  0  0  0
   22.9266   -9.1855  -15.9823 C   0  0  0  0  0  0  0  0  0  0  0  0
   21.5174   -9.4741  -16.3740 C   0  0  0  0  0  0  0  0  0  0  0  0
   20.5040   -8.6647  -15.6294 C   0  0  2  0  0  0  0  0  0  0  0  0
   19.1519   -8.9560  -16.0708 N   0  0  0  0  0  0  0  0  0  0  0  0
   20.7416   -7.1985  -15.7641 C   0  0  0  0  0  0  0  0  0  0  0  0
   20.7587   -6.6382  -16.8896 O   0  0  0  0  0  0  0  0  0  0  0  0
   18.6726   -4.6087  -14.8547 C   0  0  0  0  0  0  0  0  0  0  0  0
   19.9506   -4.2265  -14.1363 C   0  0  2  0  0  0  0  0  0  0  0  0
   20.1619   -2.7383  -14.2163 C   0  0  0  0  0  0  0  0  0  0  0  0
   21.1048   -4.9566  -14.7860 C   0  0  2  0  0  0  0  0  0  0  0  0
   20.9566   -6.3884  -14.6166 N   0  0  0  0  0  0  0  0  0  0  0  0
   22.3946   -4.5461  -14.1571 C   0  0  0  0  0  0  0  0  0  0  0  0
   23.1034   -3.5124  -14.7342 O   0  0  0  0  0  0  0  0  0  0  0  0
   22.8527   -5.1042  -13.1298 O   0  0  0  0  0  0  0  0  0  0  0  0
  2  1  1  1
  3  2  1  0
  4  3  1  0
  5  4  2  0
  6  5  1  0
  7  6  1  0
  7  8  2  0
  8  4  1  0
  9  2  1  0
 10  9  2  0
 11 12  1  0
 12 14  1  0
 13 12  2  0
 14 15  1  0
 16 15  1  6
 16 17  1  0
 17  9  1  0
 18 16  1  0
 18 19  2  0
 21 20  1  6
 21 23  1  0
 22 21  1  0
 23 24  1  1
 24 18  1  0
 25 23  1  0
 26 25  1  0
 27 25  2  0
M  END
$$$$
