HQV.pdb
     RDKit          3D

 27 27  0  0  1  0  0  0  0  0999 V2000
   18.4489  -15.0563  -18.7039 N   0  0  0  0  0  0  0  0  0  0  0  0
   18.2083  -14.4112  -17.4375 C   0  0  1  0  0  0  0  0  0  0  0  0
   18.8576  -15.2211  -16.3265 C   0  0  0  0  0  0  0  0  0  0  0  0
   18.1445  -16.5116  -16.1765 C   0  0  0  0  0  0  0  0  0  0  0  0
   16.9627  -16.6922  -15.5121 C   0  0  0  0  0  0  0  0  0  0  0  0
   16.6483  -17.9883  -15.6004 N   0  0  0  0  0  0  0  0  0  0  0  0
   17.6003  -18.6281  -16.3024 C   0  0  0  0  0  0  0  0  0  0  0  0
   18.5373  -17.7226  -16.6673 N   0  0  0  0  0  0  0  0  0  0  0  0
   18.8452  -13.0692  -17.4112 C   0  0  0  0  0  0  0  0  0  0  0  0
   19.9935  -12.9529  -17.9199 O   0  0  0  0  0  0  0  0  0  0  0  0
   15.9937   -7.6370  -17.9039 N   0  0  0  0  0  0  0  0  0  0  0  0
   17.3560   -7.2453  -17.8253 C   0  0  0  0  0  0  0  0  0  0  0  0
   17.6313   -6.0323  -17.9774 O   0  0  0  0  0  0  0  0  0  0  0  0
   18.4366   -8.2202  -17.5724 C   0  0  0  0  0  0  0  0  0  0  0  0
   17.8520   -9.5808  -17.4001 C   0  0  0  0  0  0  0  0  0  0  0  0
   18.8502  -10.6237  -17.0091 C   0  0  2  0  0  0  0  0  0  0  0  0
   18.2323  -11.9277  -16.8492 N   0  0  0  0  0  0  0  0  0  0  0  0
   19.5634  -10.2783  -15.7456 C   0  0  0  0  0  0  0  0  0  0  0  0
   19.0854  -10.5752  -14.6212 O   0  0  0  0  0  0  0  0  0  0  0  0
   23.6119   -9.1395  -15.6848 C   0  0  0  0  0  0  0  0  0  0  0  0
   22.8769   -9.7317  -14.4996 C   0  0  2  0  0  0  0  0  0  0  0  0
   22.9141  -11.2349  -14.5683 C   0  0  0  0  0  0  0  0  0  0  0  0
   21.4469   -9.2399  -14.5254 C   0  0  2  0  0  0  0  0  0  0  0  0
   20.8114   -9.5995  -15.7774 N   0  0  0  0  0  0  0  0  0  0  0  0
   21.4101   -7.7534  -14.3966 C   0  0  0  0  0  0  0  0  0  0  0  0
   21.6236   -7.1998  -13.1508 O   0  0  0  0  0  0  0  0  0  0  0  0
   21.1935   -6.9961  -15.3744 O   0  0  0  0  0  0  0  0  0  0  0  0
  2  1  1  6
  3  2  1  0
  4  3  1  0
  5  4  2  0
  6  5  1  0
  7  6  1  0
  7  8  2  0
  8  4  1  0
  9  2  1  0
 10  9  2  0
 11 12  1  0
 12 14  1  0
 13 12  2  0
 14 15  1  0
 16 15  1  1
 16 17  1  0
 17  9  1  0
 18 16  1  0
 18 19  2  0
 21 20  1  6
 21 23  1  0
 22 21  1  0
 23 24  1  6
 24 18  1  0
 25 23  1  0
 26 25  1  0
 27 25  2  0
M  END
$$$$
