RKI.pdb
     RDKit          3D

 29 28  0  0  1  0  0  0  0  0999 V2000
   34.5487  -24.7967  -14.7952 N   0  0  0  0  0  0  0  0  0  0  0  0
   33.7448  -25.1700  -15.9054 C   0  0  0  0  0  0  0  0  0  0  0  0
   34.2662  -25.5517  -17.0336 N   0  0  0  0  0  0  0  0  0  0  0  0
   32.3338  -25.1162  -15.7536 N   0  0  0  0  0  0  0  0  0  0  0  0
   31.5077  -24.3674  -16.7169 C   0  0  0  0  0  0  0  0  0  0  0  0
   31.6472  -22.9264  -16.3828 C   0  0  0  0  0  0  0  0  0  0  0  0
   30.4738  -22.2477  -15.7975 C   0  0  0  0  0  0  0  0  0  0  0  0
   29.1255  -22.7626  -16.1840 C   0  0  2  0  0  0  0  0  0  0  0  0
   28.9438  -22.8260  -17.6233 N   0  0  0  0  0  0  0  0  0  0  0  0
   28.1341  -21.8383  -15.6042 C   0  0  0  0  0  0  0  0  0  0  0  0
   28.1360  -21.6128  -14.3853 O   0  0  0  0  0  0  0  0  0  0  0  0
   33.6805  -25.7614  -17.8450 N   0  0  0  0  0  0  0  0  0  0  0  0
   27.1874  -21.2137  -16.4353 C   0  0  1  0  0  0  0  0  0  0  0  0
   26.1306  -20.3923  -15.8713 C   0  0  0  0  0  0  0  0  0  0  0  0
   25.3003  -19.8865  -17.0439 C   0  0  0  0  0  0  0  0  0  0  0  0
   24.2952  -18.8507  -16.5447 C   0  0  0  0  0  0  0  0  0  0  0  0
   24.1976  -17.7002  -17.5134 C   0  0  0  0  0  0  0  0  0  0  0  0
   23.2557  -18.0937  -18.6310 N   0  0  0  0  0  0  0  0  0  0  0  0
   21.9334  -17.5805  -18.3831 C   0  0  0  0  0  0  0  0  0  0  0  0
   25.3038  -21.1371  -14.9035 O   0  0  0  0  0  0  0  0  0  0  0  0
   24.9725  -22.3553  -15.0765 C   0  0  0  0  0  0  0  0  0  0  0  0
   26.3755  -20.9309   -9.7149 C   0  0  0  0  0  0  0  0  0  0  0  0
   25.8993  -21.3760  -11.0810 C   0  0  2  0  0  0  0  0  0  0  0  0
   24.5715  -20.7530  -11.3569 C   0  0  0  0  0  0  0  0  0  0  0  0
   23.5914  -21.1605  -10.2724 C   0  0  2  0  0  0  0  0  0  0  0  0
   24.0210  -21.1058  -12.7360 N   0  0  0  0  0  0  0  0  0  0  0  0
   24.8567  -20.4828  -13.7357 C   0  0  0  0  0  0  0  0  0  0  0  0
   22.6384  -20.6213  -12.9129 O   0  0  0  0  0  0  0  0  0  0  0  0
   21.5658  -21.4474  -12.6365 O   0  0  0  0  0  0  0  0  0  0  0  0
  2  1  1  0
  2  3  2  0
  4  2  1  0
  5  4  1  0
  6  5  1  0
  7  6  1  0
  8  7  1  0
  8  9  1  6
 10  8  1  0
 10 12  1  0
 11 10  2  0
 13 12  1  0
 13 14  1  6
 15 14  1  0
 16 15  1  0
 17 16  1  0
 18 17  1  0
 19 26  1  0
 19 13  1  0
 20 19  2  0
 21 22  1  0
 23 22  1  0
 23 25  1  0
 23 24  1  6
 25 26  1  6
 25 27  1  0
 27 28  1  0
 29 27  2  0
M  END
$$$$
