RKI.pdb
     RDKit          3D

 29 28  0  0  1  0  0  0  0  0999 V2000
   22.4379  -20.3284  -16.8053 N   0  0  0  0  0  0  0  0  0  0  0  0
   21.4952  -19.3764  -16.3332 C   0  0  0  0  0  0  0  0  0  0  0  0
   20.3629  -19.7349  -15.8040 N   0  0  0  0  0  0  0  0  0  0  0  0
   21.8218  -17.9996  -16.4541 N   0  0  0  0  0  0  0  0  0  0  0  0
   23.1644  -17.5876  -16.9000 C   0  0  0  0  0  0  0  0  0  0  0  0
   24.1454  -18.2737  -16.0199 C   0  0  0  0  0  0  0  0  0  0  0  0
   25.5770  -17.9959  -16.2515 C   0  0  0  0  0  0  0  0  0  0  0  0
   26.4674  -19.1695  -16.5004 C   0  0  2  0  0  0  0  0  0  0  0  0
   25.9282  -20.0781  -17.4965 N   0  0  0  0  0  0  0  0  0  0  0  0
   26.6082  -19.8778  -15.2151 C   0  0  0  0  0  0  0  0  0  0  0  0
   25.6716  -20.5629  -14.7795 O   0  0  0  0  0  0  0  0  0  0  0  0
   19.6754  -19.0414  -15.5013 N   0  0  0  0  0  0  0  0  0  0  0  0
   27.8054  -19.7749  -14.4850 C   0  0  1  0  0  0  0  0  0  0  0  0
   27.9644  -20.4656  -13.2173 C   0  0  0  0  0  0  0  0  0  0  0  0
   29.4469  -20.4062  -12.8725 C   0  0  0  0  0  0  0  0  0  0  0  0
   29.7171  -21.2709  -11.6431 C   0  0  0  0  0  0  0  0  0  0  0  0
   31.1960  -21.3385  -11.3600 C   0  0  0  0  0  0  0  0  0  0  0  0
   31.4225  -22.3170  -10.2276 N   0  0  0  0  0  0  0  0  0  0  0  0
   32.8302  -22.4764   -9.9701 C   0  0  0  0  0  0  0  0  0  0  0  0
   27.1363  -19.8705  -12.1518 O   0  0  0  0  0  0  0  0  0  0  0  0
   26.8896  -18.6219  -12.0896 C   0  0  0  0  0  0  0  0  0  0  0  0
   21.8088  -19.8849  -11.0255 C   0  0  0  0  0  0  0  0  0  0  0  0
   23.0569  -19.8989  -10.1692 C   0  0  2  0  0  0  0  0  0  0  0  0
   24.2180  -20.3065  -11.0135 C   0  0  0  0  0  0  0  0  0  0  0  0
   23.9489  -21.6761  -11.6088 C   0  0  2  0  0  0  0  0  0  0  0  0
   25.5406  -20.3044  -10.2518 N   0  0  0  0  0  0  0  0  0  0  0  0
   26.5909  -20.7095  -11.1567 C   0  0  0  0  0  0  0  0  0  0  0  0
   25.5165  -21.2417   -9.1123 O   0  0  0  0  0  0  0  0  0  0  0  0
   26.2147  -22.4327   -9.1699 O   0  0  0  0  0  0  0  0  0  0  0  0
  2  1  1  0
  2  3  2  0
  4  2  1  0
  5  4  1  0
  6  5  1  0
  7  6  1  0
  8  7  1  0
  8  9  1  6
 10  8  1  0
 10 12  1  0
 11 10  2  0
 13 12  1  0
 13 14  1  1
 15 14  1  0
 16 15  1  0
 17 16  1  0
 18 17  1  0
 19 26  1  0
 19 13  1  0
 20 19  2  0
 21 22  1  0
 23 22  1  0
 23 25  1  0
 23 24  1  6
 25 26  1  1
 25 27  1  0
 27 28  1  0
 29 27  2  0
M  END
$$$$
