RKI.pdb
     RDKit          3D

 29 28  0  0  1  0  0  0  0  0999 V2000
   20.1553  -19.9460  -17.5974 N   0  0  0  0  0  0  0  0  0  0  0  0
   19.6211  -19.0661  -16.6184 C   0  0  0  0  0  0  0  0  0  0  0  0
   18.5075  -19.3230  -15.9983 N   0  0  0  0  0  0  0  0  0  0  0  0
   20.3425  -17.8783  -16.3263 N   0  0  0  0  0  0  0  0  0  0  0  0
   21.7484  -17.7373  -16.7441 C   0  0  0  0  0  0  0  0  0  0  0  0
   22.4165  -19.0359  -16.4705 C   0  0  0  0  0  0  0  0  0  0  0  0
   23.6746  -19.0036  -15.6982 C   0  0  0  0  0  0  0  0  0  0  0  0
   24.7670  -19.9240  -16.1361 C   0  0  2  0  0  0  0  0  0  0  0  0
   24.2974  -20.9555  -17.0440 N   0  0  0  0  0  0  0  0  0  0  0  0
   25.3090  -20.5523  -14.9176 C   0  0  0  0  0  0  0  0  0  0  0  0
   24.6466  -21.4099  -14.3157 O   0  0  0  0  0  0  0  0  0  0  0  0
   18.1448  -18.6959  -15.2769 N   0  0  0  0  0  0  0  0  0  0  0  0
   26.5771  -20.1774  -14.4396 C   0  0  2  0  0  0  0  0  0  0  0  0
   27.0948  -20.7246  -13.1979 C   0  0  0  0  0  0  0  0  0  0  0  0
   28.6134  -20.6487  -13.2890 C   0  0  0  0  0  0  0  0  0  0  0  0
   29.2296  -21.3225  -12.0648 C   0  0  0  0  0  0  0  0  0  0  0  0
   30.7315  -21.1998  -12.0946 C   0  0  0  0  0  0  0  0  0  0  0  0
   31.2901  -21.8523  -10.8484 N   0  0  0  0  0  0  0  0  0  0  0  0
   32.7238  -21.7240  -10.8088 C   0  0  0  0  0  0  0  0  0  0  0  0
   26.5863  -20.0023  -12.0169 O   0  0  0  0  0  0  0  0  0  0  0  0
   26.5118  -18.7312  -11.9681 C   0  0  0  0  0  0  0  0  0  0  0  0
   22.3340  -20.7093   -7.9082 C   0  0  0  0  0  0  0  0  0  0  0  0
   23.6978  -20.0916   -8.1307 C   0  0  2  0  0  0  0  0  0  0  0  0
   24.3177  -20.7108   -9.3389 C   0  0  0  0  0  0  0  0  0  0  0  0
   24.4007  -22.2136   -9.1456 C   0  0  2  0  0  0  0  0  0  0  0  0
   25.6935  -20.1364   -9.6654 N   0  0  0  0  0  0  0  0  0  0  0  0
   26.1627  -20.7399  -10.8908 C   0  0  0  0  0  0  0  0  0  0  0  0
   26.6721  -20.4211   -8.5982 O   0  0  0  0  0  0  0  0  0  0  0  0
   26.7871  -19.5777   -7.5098 O   0  0  0  0  0  0  0  0  0  0  0  0
  2  1  1  0
  2  3  2  0
  4  2  1  0
  5  4  1  0
  6  5  1  0
  7  6  1  0
  8  7  1  0
  8  9  1  6
 10  8  1  0
 10 12  1  0
 11 10  2  0
 13 12  1  0
 13 14  1  1
 15 14  1  0
 16 15  1  0
 17 16  1  0
 18 17  1  0
 19 26  1  0
 19 13  1  0
 20 19  2  0
 21 22  1  0
 23 22  1  0
 23 25  1  0
 23 24  1  6
 25 26  1  1
 25 27  1  0
 27 28  1  0
 29 27  2  0
M  END
$$$$
