RKI.pdb
     RDKit          3D

 29 28  0  0  1  0  0  0  0  0999 V2000
   15.7975  -22.9325  -11.0859 N   0  0  0  0  0  0  0  0  0  0  0  0
   16.7954  -23.7260  -11.7126 C   0  0  0  0  0  0  0  0  0  0  0  0
   17.0433  -24.9444  -11.3326 N   0  0  0  0  0  0  0  0  0  0  0  0
   17.5298  -23.1491  -12.7825 N   0  0  0  0  0  0  0  0  0  0  0  0
   17.2601  -21.7658  -13.2124 C   0  0  0  0  0  0  0  0  0  0  0  0
   17.9112  -20.8677  -12.2239 C   0  0  0  0  0  0  0  0  0  0  0  0
   19.3526  -21.0652  -11.9722 C   0  0  0  0  0  0  0  0  0  0  0  0
   20.3045  -20.2482  -12.7838 C   0  0  2  0  0  0  0  0  0  0  0  0
   19.8518  -20.0574  -14.1502 N   0  0  0  0  0  0  0  0  0  0  0  0
   21.5894  -20.9709  -12.7888 C   0  0  0  0  0  0  0  0  0  0  0  0
   22.1501  -21.2450  -11.7178 O   0  0  0  0  0  0  0  0  0  0  0  0
   17.7530  -25.5123  -11.8004 N   0  0  0  0  0  0  0  0  0  0  0  0
   22.1773  -21.3482  -14.0090 C   0  0  1  0  0  0  0  0  0  0  0  0
   23.4672  -22.0150  -14.0377 C   0  0  0  0  0  0  0  0  0  0  0  0
   23.5463  -22.7523  -15.3682 C   0  0  0  0  0  0  0  0  0  0  0  0
   24.8002  -23.6236  -15.3919 C   0  0  0  0  0  0  0  0  0  0  0  0
   24.9186  -24.3426  -16.7113 C   0  0  0  0  0  0  0  0  0  0  0  0
   26.1598  -25.2081  -16.6754 N   0  0  0  0  0  0  0  0  0  0  0  0
   26.3005  -25.9431  -17.9056 C   0  0  0  0  0  0  0  0  0  0  0  0
   24.5865  -21.0683  -13.8757 O   0  0  0  0  0  0  0  0  0  0  0  0
   24.5096  -19.8462  -14.2282 C   0  0  0  0  0  0  0  0  0  0  0  0
   27.5750  -21.5861   -9.4106 C   0  0  0  0  0  0  0  0  0  0  0  0
   26.8372  -20.9758  -10.5829 C   0  0  2  0  0  0  0  0  0  0  0  0
   27.6549  -21.1600  -11.8177 C   0  0  0  0  0  0  0  0  0  0  0  0
   28.9834  -20.4462  -11.6505 C   0  0  2  0  0  0  0  0  0  0  0  0
   26.9452  -20.6811  -13.0812 N   0  0  0  0  0  0  0  0  0  0  0  0
   25.7954  -21.5250  -13.3085 C   0  0  0  0  0  0  0  0  0  0  0  0
   27.8239  -20.7578  -14.2642 O   0  0  0  0  0  0  0  0  0  0  0  0
   28.5455  -19.6530  -14.6738 O   0  0  0  0  0  0  0  0  0  0  0  0
  2  1  1  0
  2  3  2  0
  4  2  1  0
  5  4  1  0
  6  5  1  0
  7  6  1  0
  8  7  1  0
  8  9  1  6
 10  8  1  0
 10 12  1  0
 11 10  2  0
 13 12  1  0
 13 14  1  1
 15 14  1  0
 16 15  1  0
 17 16  1  0
 18 17  1  0
 19 26  1  0
 19 13  1  0
 20 19  2  0
 21 22  1  0
 23 22  1  0
 23 25  1  0
 23 24  1  6
 25 26  1  6
 25 27  1  0
 27 28  1  0
 29 27  2  0
M  END
$$$$
