RKI.pdb
     RDKit          3D

 29 28  0  0  1  0  0  0  0  0999 V2000
   29.6163  -23.2390  -19.5121 N   0  0  0  0  0  0  0  0  0  0  0  0
   29.8787  -24.4932  -18.8988 C   0  0  0  0  0  0  0  0  0  0  0  0
   30.6247  -25.3935  -19.4676 N   0  0  0  0  0  0  0  0  0  0  0  0
   29.2980  -24.7472  -17.6279 N   0  0  0  0  0  0  0  0  0  0  0  0
   28.4692  -23.7231  -16.9681 C   0  0  0  0  0  0  0  0  0  0  0  0
   29.3986  -22.7511  -16.3365 C   0  0  0  0  0  0  0  0  0  0  0  0
   28.8049  -21.6828  -15.5080 C   0  0  0  0  0  0  0  0  0  0  0  0
   27.5048  -21.1072  -15.9670 C   0  0  2  0  0  0  0  0  0  0  0  0
   27.6733  -20.1045  -17.0037 N   0  0  0  0  0  0  0  0  0  0  0  0
   26.8710  -20.4915  -14.7869 C   0  0  0  0  0  0  0  0  0  0  0  0
   27.3816  -19.4923  -14.2602 O   0  0  0  0  0  0  0  0  0  0  0  0
   30.8534  -26.2700  -18.9937 N   0  0  0  0  0  0  0  0  0  0  0  0
   25.6878  -21.0391  -14.2604 C   0  0  2  0  0  0  0  0  0  0  0  0
   25.0306  -20.4286  -13.1181 C   0  0  0  0  0  0  0  0  0  0  0  0
   23.5352  -20.4653  -13.4059 C   0  0  0  0  0  0  0  0  0  0  0  0
   23.1735  -19.3274  -14.3580 C   0  0  0  0  0  0  0  0  0  0  0  0
   21.6814  -19.2630  -14.5609 C   0  0  0  0  0  0  0  0  0  0  0  0
   21.3856  -18.2123  -15.6096 N   0  0  0  0  0  0  0  0  0  0  0  0
   19.9702  -18.1335  -15.8624 C   0  0  0  0  0  0  0  0  0  0  0  0
   25.3561  -21.1175  -11.8554 O   0  0  0  0  0  0  0  0  0  0  0  0
   25.5339  -22.3773  -11.7857 C   0  0  0  0  0  0  0  0  0  0  0  0
   27.9412  -19.6981   -6.5421 C   0  0  0  0  0  0  0  0  0  0  0  0
   26.9093  -20.5856   -7.2042 C   0  0  2  0  0  0  0  0  0  0  0  0
   26.6306  -20.0637   -8.5744 C   0  0  0  0  0  0  0  0  0  0  0  0
   26.1044  -18.6440   -8.4728 C   0  0  2  0  0  0  0  0  0  0  0  0
   25.6592  -20.9395   -9.3611 N   0  0  0  0  0  0  0  0  0  0  0  0
   25.4777  -20.3593  -10.6713 C   0  0  0  0  0  0  0  0  0  0  0  0
   24.3426  -21.0256   -8.7003 O   0  0  0  0  0  0  0  0  0  0  0  0
   23.2470  -20.3744   -9.2339 O   0  0  0  0  0  0  0  0  0  0  0  0
  2  1  1  0
  2  3  2  0
  4  2  1  0
  5  4  1  0
  6  5  1  0
  7  6  1  0
  8  7  1  0
  8  9  1  6
 10  8  1  0
 10 12  1  0
 11 10  2  0
 13 12  1  0
 13 14  1  6
 15 14  1  0
 16 15  1  0
 17 16  1  0
 18 17  1  0
 19 26  1  0
 19 13  1  0
 20 19  2  0
 21 22  1  0
 23 22  1  0
 23 25  1  0
 23 24  1  6
 25 26  1  1
 25 27  1  0
 27 28  1  0
 29 27  2  0
M  END
$$$$
