RKI.pdb
     RDKit          3D

 29 28  0  0  1  0  0  0  0  0999 V2000
   21.4883  -22.9513  -19.7148 N   0  0  0  0  0  0  0  0  0  0  0  0
   22.2438  -23.1676  -18.5314 C   0  0  0  0  0  0  0  0  0  0  0  0
   23.1683  -24.0793  -18.4634 N   0  0  0  0  0  0  0  0  0  0  0  0
   21.9622  -22.3518  -17.4035 N   0  0  0  0  0  0  0  0  0  0  0  0
   20.9892  -21.2499  -17.5038 C   0  0  0  0  0  0  0  0  0  0  0  0
   19.8198  -21.6239  -16.6670 C   0  0  0  0  0  0  0  0  0  0  0  0
   19.8329  -21.2006  -15.2525 C   0  0  0  0  0  0  0  0  0  0  0  0
   20.4872  -22.1188  -14.2723 C   0  0  2  0  0  0  0  0  0  0  0  0
   20.9576  -23.3476  -14.8866 N   0  0  0  0  0  0  0  0  0  0  0  0
   19.4768  -22.4380  -13.2473 C   0  0  0  0  0  0  0  0  0  0  0  0
   18.9448  -21.5267  -12.5970 O   0  0  0  0  0  0  0  0  0  0  0  0
   23.6483  -24.2839  -17.5843 N   0  0  0  0  0  0  0  0  0  0  0  0
   19.1181  -23.7765  -13.0087 C   0  0  2  0  0  0  0  0  0  0  0  0
   18.1046  -24.1099  -12.0234 C   0  0  0  0  0  0  0  0  0  0  0  0
   16.8953  -24.6177  -12.7980 C   0  0  0  0  0  0  0  0  0  0  0  0
   15.7692  -24.9489  -11.8211 C   0  0  0  0  0  0  0  0  0  0  0  0
   14.4278  -24.6572  -12.4433 C   0  0  0  0  0  0  0  0  0  0  0  0
   13.3497  -24.9840  -11.4323 N   0  0  0  0  0  0  0  0  0  0  0  0
   12.0459  -24.9019  -12.0378 C   0  0  0  0  0  0  0  0  0  0  0  0
   18.5827  -25.1091  -11.0498 O   0  0  0  0  0  0  0  0  0  0  0  0
   19.4702  -25.9775  -11.3357 C   0  0  0  0  0  0  0  0  0  0  0  0
   16.5376  -24.5320   -5.7279 C   0  0  0  0  0  0  0  0  0  0  0  0
   16.7359  -25.1560   -7.0925 C   0  0  2  0  0  0  0  0  0  0  0  0
   18.1987  -25.3046   -7.3482 C   0  0  0  0  0  0  0  0  0  0  0  0
   18.8626  -23.9424   -7.2694 C   0  0  1  0  0  0  0  0  0  0  0  0
   18.5066  -25.9736   -8.6851 N   0  0  0  0  0  0  0  0  0  0  0  0
   18.0414  -25.1115   -9.7464 C   0  0  0  0  0  0  0  0  0  0  0  0
   17.8306  -27.2791   -8.8116 O   0  0  0  0  0  0  0  0  0  0  0  0
   16.6820  -27.4028   -9.5697 O   0  0  0  0  0  0  0  0  0  0  0  0
  2  1  1  0
  2  3  2  0
  4  2  1  0
  5  4  1  0
  6  5  1  0
  7  6  1  0
  8  7  1  0
  8  9  1  6
 10  8  1  0
 10 12  1  0
 11 10  2  0
 13 12  1  0
 13 14  1  6
 15 14  1  0
 16 15  1  0
 17 16  1  0
 18 17  1  0
 19 26  1  0
 19 13  1  0
 20 19  2  0
 21 22  1  0
 23 22  1  0
 23 25  1  0
 23 24  1  1
 25 26  1  6
 25 27  1  0
 27 28  1  0
 29 27  2  0
M  END
$$$$
