RKI.pdb
     RDKit          3D

 29 28  0  0  1  0  0  0  0  0999 V2000
   20.3471  -26.5833  -24.3021 N   0  0  0  0  0  0  0  0  0  0  0  0
   21.6331  -25.9798  -24.3147 C   0  0  0  0  0  0  0  0  0  0  0  0
   21.7937  -24.7095  -24.5402 N   0  0  0  0  0  0  0  0  0  0  0  0
   22.7600  -26.8091  -24.0714 N   0  0  0  0  0  0  0  0  0  0  0  0
   22.5794  -28.2005  -23.6213 C   0  0  0  0  0  0  0  0  0  0  0  0
   23.3153  -28.3424  -22.3384 C   0  0  0  0  0  0  0  0  0  0  0  0
   24.6980  -28.8566  -22.4012 C   0  0  0  0  0  0  0  0  0  0  0  0
   25.3988  -29.0880  -21.1022 C   0  0  2  0  0  0  0  0  0  0  0  0
   25.2015  -30.4337  -20.5935 N   0  0  0  0  0  0  0  0  0  0  0  0
   24.8484  -28.1145  -20.1417 C   0  0  0  0  0  0  0  0  0  0  0  0
   23.8691  -28.4177  -19.4448 O   0  0  0  0  0  0  0  0  0  0  0  0
   22.7189  -24.2762  -24.5007 N   0  0  0  0  0  0  0  0  0  0  0  0
   25.4353  -26.8429  -20.0174 C   0  0  2  0  0  0  0  0  0  0  0  0
   24.9531  -25.8952  -19.0281 C   0  0  0  0  0  0  0  0  0  0  0  0
   26.1769  -25.1596  -18.4977 C   0  0  0  0  0  0  0  0  0  0  0  0
   27.1206  -26.1588  -17.8319 C   0  0  0  0  0  0  0  0  0  0  0  0
   28.3717  -25.4665  -17.3554 C   0  0  0  0  0  0  0  0  0  0  0  0
   29.3555  -26.5198  -16.8932 N   0  0  0  0  0  0  0  0  0  0  0  0
   30.5508  -25.9047  -16.3771 C   0  0  0  0  0  0  0  0  0  0  0  0
   23.9609  -24.9603  -19.5907 O   0  0  0  0  0  0  0  0  0  0  0  0
   23.9740  -24.5970  -20.8120 C   0  0  0  0  0  0  0  0  0  0  0  0
   18.9402  -24.0357  -21.4533 C   0  0  0  0  0  0  0  0  0  0  0  0
   19.7761  -23.3249  -20.4107 C   0  0  2  0  0  0  0  0  0  0  0  0
   20.9352  -24.1919  -20.0472 C   0  0  0  0  0  0  0  0  0  0  0  0
   20.4281  -25.4410  -19.3506 C   0  0  2  0  0  0  0  0  0  0  0  0
   21.9672  -23.4768  -19.1794 N   0  0  0  0  0  0  0  0  0  0  0  0
   22.9525  -24.4418  -18.7505 C   0  0  0  0  0  0  0  0  0  0  0  0
   21.3507  -22.8730  -17.9824 O   0  0  0  0  0  0  0  0  0  0  0  0
   21.5011  -23.4645  -16.7428 O   0  0  0  0  0  0  0  0  0  0  0  0
  2  1  1  0
  2  3  2  0
  4  2  1  0
  5  4  1  0
  6  5  1  0
  7  6  1  0
  8  7  1  0
  8  9  1  1
 10  8  1  0
 10 12  1  0
 11 10  2  0
 13 12  1  0
 13 14  1  6
 15 14  1  0
 16 15  1  0
 17 16  1  0
 18 17  1  0
 19 26  1  0
 19 13  1  0
 20 19  2  0
 21 22  1  0
 23 22  1  0
 23 25  1  0
 23 24  1  6
 25 26  1  1
 25 27  1  0
 27 28  1  0
 29 27  2  0
M  END
$$$$
