RKI.pdb
     RDKit          3D

 29 28  0  0  1  0  0  0  0  0999 V2000
   20.4704  -28.4478   -9.7072 N   0  0  0  0  0  0  0  0  0  0  0  0
   19.5045  -29.4658   -9.4862 C   0  0  0  0  0  0  0  0  0  0  0  0
   19.8461  -30.7005   -9.2643 N   0  0  0  0  0  0  0  0  0  0  0  0
   18.1328  -29.0992   -9.5136 N   0  0  0  0  0  0  0  0  0  0  0  0
   17.7297  -27.7000   -9.2883 C   0  0  0  0  0  0  0  0  0  0  0  0
   17.8750  -27.4336   -7.8338 C   0  0  0  0  0  0  0  0  0  0  0  0
   18.8485  -26.4011   -7.4258 C   0  0  0  0  0  0  0  0  0  0  0  0
   18.3443  -25.2934   -6.5592 C   0  0  2  0  0  0  0  0  0  0  0  0
   16.9713  -25.4985   -6.1335 N   0  0  0  0  0  0  0  0  0  0  0  0
   18.4317  -24.0558   -7.3555 C   0  0  0  0  0  0  0  0  0  0  0  0
   17.3981  -23.5130   -7.7720 O   0  0  0  0  0  0  0  0  0  0  0  0
   19.1458  -31.4433   -9.2090 N   0  0  0  0  0  0  0  0  0  0  0  0
   19.6880  -23.4928   -7.6414 C   0  0  2  0  0  0  0  0  0  0  0  0
   19.8165  -22.4122   -8.6031 C   0  0  0  0  0  0  0  0  0  0  0  0
   21.2958  -22.0531   -8.6587 C   0  0  0  0  0  0  0  0  0  0  0  0
   21.4991  -20.8870   -9.6237 C   0  0  0  0  0  0  0  0  0  0  0  0
   22.9611  -20.5351   -9.7259 C   0  0  0  0  0  0  0  0  0  0  0  0
   23.0963  -19.2943  -10.5822 N   0  0  0  0  0  0  0  0  0  0  0  0
   24.4828  -18.9444  -10.7515 C   0  0  0  0  0  0  0  0  0  0  0  0
   19.2997  -22.7865   -9.9328 O   0  0  0  0  0  0  0  0  0  0  0  0
   19.4937  -23.9361  -10.4469 C   0  0  0  0  0  0  0  0  0  0  0  0
   14.5442  -23.2914  -11.3783 C   0  0  0  0  0  0  0  0  0  0  0  0
   16.0553  -23.3695  -11.4184 C   0  0  2  0  0  0  0  0  0  0  0  0
   16.5879  -22.1180  -12.0328 C   0  0  0  0  0  0  0  0  0  0  0  0
   16.0523  -21.9860  -13.4464 C   0  0  2  0  0  0  0  0  0  0  0  0
   18.1127  -22.0531  -12.0299 N   0  0  0  0  0  0  0  0  0  0  0  0
   18.5595  -21.8400  -10.6730 C   0  0  0  0  0  0  0  0  0  0  0  0
   18.6143  -20.9466  -12.8675 O   0  0  0  0  0  0  0  0  0  0  0  0
   18.8947  -19.7151  -12.3071 O   0  0  0  0  0  0  0  0  0  0  0  0
  2  1  1  0
  2  3  2  0
  4  2  1  0
  5  4  1  0
  6  5  1  0
  7  6  1  0
  8  7  1  0
  8  9  1  6
 10  8  1  0
 10 12  1  0
 11 10  2  0
 13 12  1  0
 13 14  1  1
 15 14  1  0
 16 15  1  0
 17 16  1  0
 18 17  1  0
 19 26  1  0
 19 13  1  0
 20 19  2  0
 21 22  1  0
 23 22  1  0
 23 25  1  0
 23 24  1  1
 25 26  1  6
 25 27  1  0
 27 28  1  0
 29 27  2  0
M  END
$$$$
