RKI.pdb
     RDKit          3D

 29 28  0  0  1  0  0  0  0  0999 V2000
   15.1849  -19.4979    2.3765 N   0  0  0  0  0  0  0  0  0  0  0  0
   16.5488  -19.1181    2.2600 C   0  0  0  0  0  0  0  0  0  0  0  0
   17.4328  -19.8930    1.7045 N   0  0  0  0  0  0  0  0  0  0  0  0
   16.9330  -17.8507    2.7729 N   0  0  0  0  0  0  0  0  0  0  0  0
   15.9151  -16.9022    3.2580 C   0  0  0  0  0  0  0  0  0  0  0  0
   16.6352  -15.6837    3.7098 C   0  0  0  0  0  0  0  0  0  0  0  0
   15.8244  -14.5813    4.2643 C   0  0  0  0  0  0  0  0  0  0  0  0
   16.5427  -13.3225    4.6271 C   0  0  2  0  0  0  0  0  0  0  0  0
   17.4998  -12.9143    3.6143 N   0  0  0  0  0  0  0  0  0  0  0  0
   17.2500  -13.5853    5.8935 C   0  0  0  0  0  0  0  0  0  0  0  0
   18.4278  -13.2242    6.0317 O   0  0  0  0  0  0  0  0  0  0  0  0
   18.4219  -19.6357    1.6773 N   0  0  0  0  0  0  0  0  0  0  0  0
   16.5874  -14.2456    6.9432 C   0  0  2  0  0  0  0  0  0  0  0  0
   17.2588  -14.4926    8.2071 C   0  0  0  0  0  0  0  0  0  0  0  0
   16.1829  -14.9284    9.1933 C   0  0  0  0  0  0  0  0  0  0  0  0
   16.7731  -14.9741   10.6010 C   0  0  0  0  0  0  0  0  0  0  0  0
   15.7131  -15.3450   11.6062 C   0  0  0  0  0  0  0  0  0  0  0  0
   16.3396  -15.3478   12.9840 N   0  0  0  0  0  0  0  0  0  0  0  0
   15.4107  -15.8522   13.9618 C   0  0  0  0  0  0  0  0  0  0  0  0
   18.3225  -15.5067    8.0830 O   0  0  0  0  0  0  0  0  0  0  0  0
   18.2560  -16.4751    7.2576 C   0  0  0  0  0  0  0  0  0  0  0  0
   23.3352  -13.6990    9.5224 C   0  0  0  0  0  0  0  0  0  0  0  0
   22.1807  -14.3306    8.7745 C   0  0  2  0  0  0  0  0  0  0  0  0
   21.8041  -15.6050    9.4537 C   0  0  0  0  0  0  0  0  0  0  0  0
   23.0022  -16.5361    9.4730 C   0  0  2  0  0  0  0  0  0  0  0  0
   20.6025  -16.2922    8.8107 N   0  0  0  0  0  0  0  0  0  0  0  0
   19.4639  -15.4088    8.9073 C   0  0  0  0  0  0  0  0  0  0  0  0
   20.2705  -17.5602    9.4886 O   0  0  0  0  0  0  0  0  0  0  0  0
   19.5872  -17.5546   10.6895 O   0  0  0  0  0  0  0  0  0  0  0  0
  2  1  1  0
  2  3  2  0
  4  2  1  0
  5  4  1  0
  6  5  1  0
  7  6  1  0
  8  7  1  0
  8  9  1  6
 10  8  1  0
 10 12  1  0
 11 10  2  0
 13 12  1  0
 13 14  1  6
 15 14  1  0
 16 15  1  0
 17 16  1  0
 18 17  1  0
 19 26  1  0
 19 13  1  0
 20 19  2  0
 21 22  1  0
 23 22  1  0
 23 25  1  0
 23 24  1  1
 25 26  1  6
 25 27  1  0
 27 28  1  0
 29 27  2  0
M  END
$$$$
