RKI.pdb
     RDKit          3D

 29 28  0  0  1  0  0  0  0  0999 V2000
   20.6317  -27.1502  -10.7154 N   0  0  0  0  0  0  0  0  0  0  0  0
   19.9504  -28.2200  -11.3554 C   0  0  0  0  0  0  0  0  0  0  0  0
   20.5815  -29.2611  -11.8118 N   0  0  0  0  0  0  0  0  0  0  0  0
   18.5397  -28.1260  -11.4885 N   0  0  0  0  0  0  0  0  0  0  0  0
   17.7592  -27.2728  -10.5753 C   0  0  0  0  0  0  0  0  0  0  0  0
   18.0942  -27.6956   -9.1909 C   0  0  0  0  0  0  0  0  0  0  0  0
   17.3290  -27.0801   -8.0882 C   0  0  0  0  0  0  0  0  0  0  0  0
   17.5435  -25.6225   -7.8402 C   0  0  2  0  0  0  0  0  0  0  0  0
   18.8424  -25.1634   -8.2993 N   0  0  0  0  0  0  0  0  0  0  0  0
   17.4369  -25.4177   -6.3842 C   0  0  0  0  0  0  0  0  0  0  0  0
   18.4590  -25.4126   -5.6829 O   0  0  0  0  0  0  0  0  0  0  0  0
   20.0849  -30.0137  -12.2938 N   0  0  0  0  0  0  0  0  0  0  0  0
   16.1753  -25.2285   -5.7929 C   0  0  2  0  0  0  0  0  0  0  0  0
   16.0523  -24.9836   -4.3666 C   0  0  0  0  0  0  0  0  0  0  0  0
   14.6449  -24.4482   -4.1370 C   0  0  0  0  0  0  0  0  0  0  0  0
   14.5217  -23.0602   -4.7620 C   0  0  0  0  0  0  0  0  0  0  0  0
   13.1472  -22.4918   -4.5186 C   0  0  0  0  0  0  0  0  0  0  0  0
   13.0697  -21.1290   -5.1728 N   0  0  0  0  0  0  0  0  0  0  0  0
   11.7671  -20.5470   -4.9780 C   0  0  0  0  0  0  0  0  0  0  0  0
   16.3063  -26.1983   -3.5697 O   0  0  0  0  0  0  0  0  0  0  0  0
   15.9620  -27.3612   -3.9605 C   0  0  0  0  0  0  0  0  0  0  0  0
   21.0270  -27.2584   -1.7491 C   0  0  0  0  0  0  0  0  0  0  0  0
   19.5936  -27.4016   -2.2136 C   0  0  2  0  0  0  0  0  0  0  0  0
   18.6842  -27.1787   -1.0514 C   0  0  0  0  0  0  0  0  0  0  0  0
   18.9649  -28.2235    0.0126 C   0  0  2  0  0  0  0  0  0  0  0  0
   17.2076  -27.1910   -1.4373 N   0  0  0  0  0  0  0  0  0  0  0  0
   16.9564  -26.0780   -2.3228 C   0  0  0  0  0  0  0  0  0  0  0  0
   16.3329  -27.0568   -0.2564 O   0  0  0  0  0  0  0  0  0  0  0  0
   16.2212  -25.8455    0.3987 O   0  0  0  0  0  0  0  0  0  0  0  0
  2  1  1  0
  2  3  2  0
  4  2  1  0
  5  4  1  0
  6  5  1  0
  7  6  1  0
  8  7  1  0
  8  9  1  1
 10  8  1  0
 10 12  1  0
 11 10  2  0
 13 12  1  0
 13 14  1  6
 15 14  1  0
 16 15  1  0
 17 16  1  0
 18 17  1  0
 19 26  1  0
 19 13  1  0
 20 19  2  0
 21 22  1  0
 23 22  1  0
 23 25  1  0
 23 24  1  1
 25 26  1  6
 25 27  1  0
 27 28  1  0
 29 27  2  0
M  END
$$$$
