RKI.pdb
     RDKit          3D

 29 28  0  0  1  0  0  0  0  0999 V2000
   25.8960  -25.3511  -17.2123 N   0  0  0  0  0  0  0  0  0  0  0  0
   25.8426  -24.4107  -16.1489 C   0  0  0  0  0  0  0  0  0  0  0  0
   25.5165  -24.7590  -14.9394 N   0  0  0  0  0  0  0  0  0  0  0  0
   26.1585  -23.0572  -16.4407 N   0  0  0  0  0  0  0  0  0  0  0  0
   26.1092  -22.0343  -15.3813 C   0  0  0  0  0  0  0  0  0  0  0  0
   25.2359  -20.9380  -15.8745 C   0  0  0  0  0  0  0  0  0  0  0  0
   24.1773  -21.2944  -16.8401 C   0  0  0  0  0  0  0  0  0  0  0  0
   23.2793  -20.1942  -17.3040 C   0  0  2  0  0  0  0  0  0  0  0  0
   23.9019  -18.8861  -17.2043 N   0  0  0  0  0  0  0  0  0  0  0  0
   22.0799  -20.2335  -16.4477 C   0  0  0  0  0  0  0  0  0  0  0  0
   22.0012  -19.4921  -15.4574 O   0  0  0  0  0  0  0  0  0  0  0  0
   25.1391  -25.6876  -14.7380 N   0  0  0  0  0  0  0  0  0  0  0  0
   21.0265  -21.1124  -16.7558 C   0  0  2  0  0  0  0  0  0  0  0  0
   19.8345  -21.1628  -15.9277 C   0  0  0  0  0  0  0  0  0  0  0  0
   18.8184  -22.0130  -16.6793 C   0  0  0  0  0  0  0  0  0  0  0  0
   18.2476  -21.2092  -17.8456 C   0  0  0  0  0  0  0  0  0  0  0  0
   17.2361  -22.0278  -18.6061 C   0  0  0  0  0  0  0  0  0  0  0  0
   16.7410  -21.2086  -19.7786 N   0  0  0  0  0  0  0  0  0  0  0  0
   15.8846  -21.9998  -20.6236 C   0  0  0  0  0  0  0  0  0  0  0  0
   20.1117  -21.7097  -14.5864 O   0  0  0  0  0  0  0  0  0  0  0  0
   20.9935  -22.6057  -14.3782 C   0  0  0  0  0  0  0  0  0  0  0  0
   20.9511  -18.2549  -10.8183 C   0  0  0  0  0  0  0  0  0  0  0  0
   20.9249  -19.4958  -11.6847 C   0  0  2  0  0  0  0  0  0  0  0  0
   19.7717  -20.3488  -11.2727 C   0  0  0  0  0  0  0  0  0  0  0  0
   19.9081  -20.7006   -9.8029 C   0  0  2  0  0  0  0  0  0  0  0  0
   19.6334  -21.6139  -12.1151 N   0  0  0  0  0  0  0  0  0  0  0  0
   19.3760  -21.2275  -13.4828 C   0  0  0  0  0  0  0  0  0  0  0  0
   18.5185  -22.4613  -11.6499 O   0  0  0  0  0  0  0  0  0  0  0  0
   17.2992  -22.4338  -12.2995 O   0  0  0  0  0  0  0  0  0  0  0  0
  2  1  1  0
  2  3  2  0
  4  2  1  0
  5  4  1  0
  6  5  1  0
  7  6  1  0
  8  7  1  0
  8  9  1  1
 10  8  1  0
 10 12  1  0
 11 10  2  0
 13 12  1  0
 13 14  1  6
 15 14  1  0
 16 15  1  0
 17 16  1  0
 18 17  1  0
 19 26  1  0
 19 13  1  0
 20 19  2  0
 21 22  1  0
 23 22  1  0
 23 25  1  0
 23 24  1  6
 25 26  1  6
 25 27  1  0
 27 28  1  0
 29 27  2  0
M  END
$$$$
