RKI.pdb
     RDKit          3D

 29 28  0  0  1  0  0  0  0  0999 V2000
   29.0932  -22.7665  -18.1080 N   0  0  0  0  0  0  0  0  0  0  0  0
   28.6626  -23.6650  -17.0954 C   0  0  0  0  0  0  0  0  0  0  0  0
   28.7424  -24.9545  -17.2418 N   0  0  0  0  0  0  0  0  0  0  0  0
   28.1333  -23.1145  -15.8981 N   0  0  0  0  0  0  0  0  0  0  0  0
   27.3546  -21.8641  -15.9322 C   0  0  0  0  0  0  0  0  0  0  0  0
   27.0997  -21.4709  -14.5222 C   0  0  0  0  0  0  0  0  0  0  0  0
   26.5297  -20.1301  -14.2828 C   0  0  0  0  0  0  0  0  0  0  0  0
   26.1542  -19.3247  -15.4839 C   0  0  2  0  0  0  0  0  0  0  0  0
   27.1307  -18.2956  -15.7935 N   0  0  0  0  0  0  0  0  0  0  0  0
   24.8551  -18.6949  -15.1855 C   0  0  0  0  0  0  0  0  0  0  0  0
   24.7660  -17.8610  -14.2727 O   0  0  0  0  0  0  0  0  0  0  0  0
   28.3121  -25.5927  -16.5689 N   0  0  0  0  0  0  0  0  0  0  0  0
   23.7184  -19.0414  -15.9372 C   0  0  2  0  0  0  0  0  0  0  0  0
   22.4070  -18.5294  -15.5801 C   0  0  0  0  0  0  0  0  0  0  0  0
   21.6530  -18.3161  -16.8863 C   0  0  0  0  0  0  0  0  0  0  0  0
   20.2886  -17.6975  -16.5896 C   0  0  0  0  0  0  0  0  0  0  0  0
   20.2921  -16.2273  -16.9216 C   0  0  0  0  0  0  0  0  0  0  0  0
   18.9341  -15.6551  -16.5758 N   0  0  0  0  0  0  0  0  0  0  0  0
   17.9040  -16.2868  -17.3590 C   0  0  0  0  0  0  0  0  0  0  0  0
   21.6802  -19.4422  -14.6781 O   0  0  0  0  0  0  0  0  0  0  0  0
   21.7889  -20.7098  -14.7494 C   0  0  0  0  0  0  0  0  0  0  0  0
   20.5521  -19.6540   -8.9055 C   0  0  0  0  0  0  0  0  0  0  0  0
   19.9118  -20.0226  -10.2266 C   0  0  2  0  0  0  0  0  0  0  0  0
   20.6218  -19.3040  -11.3252 C   0  0  0  0  0  0  0  0  0  0  0  0
   20.4894  -17.8073  -11.1130 C   0  0  2  0  0  0  0  0  0  0  0  0
   20.1233  -19.6938  -12.7140 N   0  0  0  0  0  0  0  0  0  0  0  0
   20.8276  -18.8993  -13.6931 C   0  0  0  0  0  0  0  0  0  0  0  0
   18.6761  -19.4478  -12.8643 O   0  0  0  0  0  0  0  0  0  0  0  0
   18.2216  -18.3426  -13.5579 O   0  0  0  0  0  0  0  0  0  0  0  0
  2  1  1  0
  2  3  2  0
  4  2  1  0
  5  4  1  0
  6  5  1  0
  7  6  1  0
  8  7  1  0
  8  9  1  1
 10  8  1  0
 10 12  1  0
 11 10  2  0
 13 12  1  0
 13 14  1  6
 15 14  1  0
 16 15  1  0
 17 16  1  0
 18 17  1  0
 19 26  1  0
 19 13  1  0
 20 19  2  0
 21 22  1  0
 23 22  1  0
 23 25  1  0
 23 24  1  6
 25 26  1  6
 25 27  1  0
 27 28  1  0
 29 27  2  0
M  END
$$$$
