RKI.pdb
     RDKit          3D

 29 28  0  0  1  0  0  0  0  0999 V2000
   29.0092  -27.0537  -15.9230 N   0  0  0  0  0  0  0  0  0  0  0  0
   29.5050  -26.2413  -16.9776 C   0  0  0  0  0  0  0  0  0  0  0  0
   30.6520  -26.4748  -17.5437 N   0  0  0  0  0  0  0  0  0  0  0  0
   28.7065  -25.1486  -17.4080 N   0  0  0  0  0  0  0  0  0  0  0  0
   27.2604  -25.1247  -17.1266 C   0  0  0  0  0  0  0  0  0  0  0  0
   27.0298  -24.0560  -16.1205 C   0  0  0  0  0  0  0  0  0  0  0  0
   25.6295  -23.7126  -15.8023 C   0  0  0  0  0  0  0  0  0  0  0  0
   24.5663  -24.3325  -16.6494 C   0  0  2  0  0  0  0  0  0  0  0  0
   24.5026  -23.7521  -17.9789 N   0  0  0  0  0  0  0  0  0  0  0  0
   23.2849  -24.1107  -15.9550 C   0  0  0  0  0  0  0  0  0  0  0  0
   22.5625  -23.1565  -16.2779 O   0  0  0  0  0  0  0  0  0  0  0  0
   31.0002  -25.8831  -18.3012 N   0  0  0  0  0  0  0  0  0  0  0  0
   22.8840  -24.9822  -14.9271 C   0  0  2  0  0  0  0  0  0  0  0  0
   21.6348  -24.7694  -14.2174 C   0  0  0  0  0  0  0  0  0  0  0  0
   21.4929  -25.9217  -13.2314 C   0  0  0  0  0  0  0  0  0  0  0  0
   20.1480  -25.8149  -12.5158 C   0  0  0  0  0  0  0  0  0  0  0  0
   20.0194  -26.8925  -11.4700 C   0  0  0  0  0  0  0  0  0  0  0  0
   18.6254  -26.8270  -10.8838 N   0  0  0  0  0  0  0  0  0  0  0  0
   18.4560  -27.8321   -9.8667 C   0  0  0  0  0  0  0  0  0  0  0  0
   21.5994  -23.4635  -13.5329 O   0  0  0  0  0  0  0  0  0  0  0  0
   22.4652  -23.1194  -12.6637 C   0  0  0  0  0  0  0  0  0  0  0  0
   22.7095  -19.2796  -15.6019 C   0  0  0  0  0  0  0  0  0  0  0  0
   22.3495  -20.3403  -14.5839 C   0  0  2  0  0  0  0  0  0  0  0  0
   20.9089  -20.1943  -14.2225 C   0  0  0  0  0  0  0  0  0  0  0  0
   20.6690  -18.8013  -13.6707 C   0  0  2  0  0  0  0  0  0  0  0  0
   20.4315  -21.2522  -13.2313 N   0  0  0  0  0  0  0  0  0  0  0  0
   20.5690  -22.5516  -13.8467 C   0  0  0  0  0  0  0  0  0  0  0  0
   19.0164  -21.0561  -12.8619 O   0  0  0  0  0  0  0  0  0  0  0  0
   18.6786  -20.2835  -11.7673 O   0  0  0  0  0  0  0  0  0  0  0  0
  2  1  1  0
  2  3  2  0
  4  2  1  0
  5  4  1  0
  6  5  1  0
  7  6  1  0
  8  7  1  0
  8  9  1  6
 10  8  1  0
 10 12  1  0
 11 10  2  0
 13 12  1  0
 13 14  1  6
 15 14  1  0
 16 15  1  0
 17 16  1  0
 18 17  1  0
 19 26  1  0
 19 13  1  0
 20 19  2  0
 21 22  1  0
 23 22  1  0
 23 25  1  0
 23 24  1  6
 25 26  1  1
 25 27  1  0
 27 28  1  0
 29 27  2  0
M  END
$$$$
