RKI.pdb
     RDKit          3D

 29 28  0  0  1  0  0  0  0  0999 V2000
   20.4219  -21.2907  -13.2872 N   0  0  0  0  0  0  0  0  0  0  0  0
   19.9815  -21.2338  -11.9378 C   0  0  0  0  0  0  0  0  0  0  0  0
   18.8649  -21.7795  -11.5559 N   0  0  0  0  0  0  0  0  0  0  0  0
   20.8020  -20.5554  -10.9979 N   0  0  0  0  0  0  0  0  0  0  0  0
   22.0466  -19.8970  -11.4320 C   0  0  0  0  0  0  0  0  0  0  0  0
   23.0764  -20.9592  -11.5694 C   0  0  0  0  0  0  0  0  0  0  0  0
   24.3611  -20.7548  -10.8710 C   0  0  0  0  0  0  0  0  0  0  0  0
   25.5689  -21.4074  -11.4607 C   0  0  2  0  0  0  0  0  0  0  0  0
   26.6562  -21.5351  -10.5067 N   0  0  0  0  0  0  0  0  0  0  0  0
   26.0020  -20.5624  -12.5884 C   0  0  0  0  0  0  0  0  0  0  0  0
   26.5619  -19.4781  -12.3708 O   0  0  0  0  0  0  0  0  0  0  0  0
   18.5224  -21.6732  -10.5985 N   0  0  0  0  0  0  0  0  0  0  0  0
   25.7790  -20.9879  -13.9099 C   0  0  2  0  0  0  0  0  0  0  0  0
   26.1295  -20.1372  -15.0336 C   0  0  0  0  0  0  0  0  0  0  0  0
   26.4047  -21.0634  -16.2111 C   0  0  0  0  0  0  0  0  0  0  0  0
   27.8038  -21.6595  -16.0719 C   0  0  0  0  0  0  0  0  0  0  0  0
   28.0469  -22.6916  -17.1430 C   0  0  0  0  0  0  0  0  0  0  0  0
   29.4569  -23.2196  -16.9881 N   0  0  0  0  0  0  0  0  0  0  0  0
   29.7212  -24.2505  -17.9581 C   0  0  0  0  0  0  0  0  0  0  0  0
   25.0668  -19.1638  -15.3471 O   0  0  0  0  0  0  0  0  0  0  0  0
   23.8376  -19.3823  -15.0922 C   0  0  0  0  0  0  0  0  0  0  0  0
   26.6263  -13.9750  -15.0771 C   0  0  0  0  0  0  0  0  0  0  0  0
   25.7710  -15.2155  -14.9341 C   0  0  2  0  0  0  0  0  0  0  0  0
   25.1897  -15.5580  -16.2654 C   0  0  0  0  0  0  0  0  0  0  0  0
   24.2566  -14.4455  -16.7063 C   0  0  2  0  0  0  0  0  0  0  0  0
   24.4631  -16.9002  -16.2726 N   0  0  0  0  0  0  0  0  0  0  0  0
   25.4155  -17.9382  -15.9537 C   0  0  0  0  0  0  0  0  0  0  0  0
   23.8731  -17.1953  -17.5926 O   0  0  0  0  0  0  0  0  0  0  0  0
   22.5063  -17.1219  -17.7813 O   0  0  0  0  0  0  0  0  0  0  0  0
  2  1  1  0
  2  3  2  0
  4  2  1  0
  5  4  1  0
  6  5  1  0
  7  6  1  0
  8  7  1  0
  8  9  1  1
 10  8  1  0
 10 12  1  0
 11 10  2  0
 13 12  1  0
 13 14  1  1
 15 14  1  0
 16 15  1  0
 17 16  1  0
 18 17  1  0
 19 26  1  0
 19 13  1  0
 20 19  2  0
 21 22  1  0
 23 22  1  0
 23 25  1  0
 23 24  1  6
 25 26  1  1
 25 27  1  0
 27 28  1  0
 29 27  2  0
M  END
$$$$
