RKI.pdb
     RDKit          3D

 29 28  0  0  1  0  0  0  0  0999 V2000
   17.8943  -25.6410   -8.1378 N   0  0  0  0  0  0  0  0  0  0  0  0
   17.0364  -24.5544   -8.4562 C   0  0  0  0  0  0  0  0  0  0  0  0
   15.7662  -24.7236   -8.6764 N   0  0  0  0  0  0  0  0  0  0  0  0
   17.6064  -23.2558   -8.5304 N   0  0  0  0  0  0  0  0  0  0  0  0
   19.0483  -23.0870   -8.7826 C   0  0  0  0  0  0  0  0  0  0  0  0
   19.1942  -22.6322  -10.1895 C   0  0  0  0  0  0  0  0  0  0  0  0
   20.5651  -22.4359  -10.7017 C   0  0  0  0  0  0  0  0  0  0  0  0
   21.2189  -21.1237  -10.4136 C   0  0  2  0  0  0  0  0  0  0  0  0
   20.2944  -20.1481   -9.8642 N   0  0  0  0  0  0  0  0  0  0  0  0
   21.7557  -20.6252  -11.6929 C   0  0  0  0  0  0  0  0  0  0  0  0
   21.1824  -19.7005  -12.2870 O   0  0  0  0  0  0  0  0  0  0  0  0
   15.1586  -23.9355   -8.9109 N   0  0  0  0  0  0  0  0  0  0  0  0
   22.9178  -21.1996  -12.2376 C   0  0  2  0  0  0  0  0  0  0  0  0
   23.4671  -20.7173  -13.4926 C   0  0  0  0  0  0  0  0  0  0  0  0
   24.8001  -21.4287  -13.6858 C   0  0  0  0  0  0  0  0  0  0  0  0
   25.4401  -20.9617  -14.9914 C   0  0  0  0  0  0  0  0  0  0  0  0
   26.7353  -21.6926  -15.2354 C   0  0  0  0  0  0  0  0  0  0  0  0
   27.3194  -21.2080  -16.5450 N   0  0  0  0  0  0  0  0  0  0  0  0
   28.4865  -21.9756  -16.8940 C   0  0  0  0  0  0  0  0  0  0  0  0
   22.5559  -20.9569  -14.6272 O   0  0  0  0  0  0  0  0  0  0  0  0
   21.8617  -22.0196  -14.7388 C   0  0  0  0  0  0  0  0  0  0  0  0
   18.9615  -17.4873  -15.6746 C   0  0  0  0  0  0  0  0  0  0  0  0
   19.7074  -18.8039  -15.6364 C   0  0  2  0  0  0  0  0  0  0  0  0
   20.6454  -18.8618  -16.7958 C   0  0  0  0  0  0  0  0  0  0  0  0
   19.8498  -18.8174  -18.0872 C   0  0  2  0  0  0  0  0  0  0  0  0
   21.5537  -20.0881  -16.7687 N   0  0  0  0  0  0  0  0  0  0  0  0
   22.4414  -19.9754  -15.6349 C   0  0  0  0  0  0  0  0  0  0  0  0
   22.3695  -20.1913  -17.9939 O   0  0  0  0  0  0  0  0  0  0  0  0
   22.0749  -21.1404  -18.9539 O   0  0  0  0  0  0  0  0  0  0  0  0
  2  1  1  0
  2  3  2  0
  4  2  1  0
  5  4  1  0
  6  5  1  0
  7  6  1  0
  8  7  1  0
  8  9  1  6
 10  8  1  0
 10 12  1  0
 11 10  2  0
 13 12  1  0
 13 14  1  1
 15 14  1  0
 16 15  1  0
 17 16  1  0
 18 17  1  0
 19 26  1  0
 19 13  1  0
 20 19  2  0
 21 22  1  0
 23 22  1  0
 23 25  1  0
 23 24  1  1
 25 26  1  6
 25 27  1  0
 27 28  1  0
 29 27  2  0
M  END
$$$$
