RKI.pdb
     RDKit          3D

 29 28  0  0  1  0  0  0  0  0999 V2000
   29.6183  -24.3899  -16.1158 N   0  0  0  0  0  0  0  0  0  0  0  0
   28.3374  -24.7421  -16.6191 C   0  0  0  0  0  0  0  0  0  0  0  0
   27.8817  -25.9577  -16.5480 N   0  0  0  0  0  0  0  0  0  0  0  0
   27.5512  -23.7192  -17.2128 N   0  0  0  0  0  0  0  0  0  0  0  0
   28.1109  -22.3717  -17.4174 C   0  0  0  0  0  0  0  0  0  0  0  0
   28.1106  -21.6944  -16.0950 C   0  0  0  0  0  0  0  0  0  0  0  0
   26.9057  -20.9248  -15.7257 C   0  0  0  0  0  0  0  0  0  0  0  0
   26.4441  -19.8784  -16.6869 C   0  0  2  0  0  0  0  0  0  0  0  0
   27.4558  -18.8680  -16.9403 N   0  0  0  0  0  0  0  0  0  0  0  0
   25.2558  -19.2439  -16.0880 C   0  0  0  0  0  0  0  0  0  0  0  0
   24.9965  -19.4222  -14.8890 O   0  0  0  0  0  0  0  0  0  0  0  0
   26.9547  -26.1988  -16.9053 N   0  0  0  0  0  0  0  0  0  0  0  0
   24.4181  -18.4371  -16.8781 C   0  0  2  0  0  0  0  0  0  0  0  0
   23.2325  -17.8184  -16.3116 C   0  0  0  0  0  0  0  0  0  0  0  0
   22.9240  -16.6004  -17.1727 C   0  0  0  0  0  0  0  0  0  0  0  0
   21.7979  -15.7950  -16.5279 C   0  0  0  0  0  0  0  0  0  0  0  0
   21.5403  -14.5307  -17.3067 C   0  0  0  0  0  0  0  0  0  0  0  0
   20.3797  -13.8010  -16.6650 N   0  0  0  0  0  0  0  0  0  0  0  0
   20.0689  -12.6008  -17.3974 C   0  0  0  0  0  0  0  0  0  0  0  0
   22.0896  -18.7492  -16.2608 O   0  0  0  0  0  0  0  0  0  0  0  0
   21.8918  -19.6437  -17.1464 C   0  0  0  0  0  0  0  0  0  0  0  0
   18.5703  -20.9597  -11.8047 C   0  0  0  0  0  0  0  0  0  0  0  0
   18.5944  -20.5940  -13.2733 C   0  0  2  0  0  0  0  0  0  0  0  0
   19.8479  -19.8374  -13.5627 C   0  0  0  0  0  0  0  0  0  0  0  0
   19.8710  -18.5684  -12.7309 C   0  0  2  0  0  0  0  0  0  0  0  0
   20.0198  -19.5100  -15.0434 N   0  0  0  0  0  0  0  0  0  0  0  0
   21.1729  -18.6531  -15.1921 C   0  0  0  0  0  0  0  0  0  0  0  0
   18.8415  -18.8087  -15.5886 O   0  0  0  0  0  0  0  0  0  0  0  0
   18.8722  -17.4427  -15.7942 O   0  0  0  0  0  0  0  0  0  0  0  0
  2  1  1  0
  2  3  2  0
  4  2  1  0
  5  4  1  0
  6  5  1  0
  7  6  1  0
  8  7  1  0
  8  9  1  1
 10  8  1  0
 10 12  1  0
 11 10  2  0
 13 12  1  0
 13 14  1  6
 15 14  1  0
 16 15  1  0
 17 16  1  0
 18 17  1  0
 19 26  1  0
 19 13  1  0
 20 19  2  0
 21 22  1  0
 23 22  1  0
 23 25  1  0
 23 24  1  6
 25 26  1  6
 25 27  1  0
 27 28  1  0
 29 27  2  0
M  END
$$$$
