RKN.pdb
     RDKit          3D

 29 28  0  0  1  0  0  0  0  0999 V2000
   31.3477  -21.7707   -9.0615 N   0  0  0  0  0  0  0  0  0  0  0  0
   31.2915  -22.2832  -10.3773 C   0  0  0  0  0  0  0  0  0  0  0  0
   32.2247  -23.0734  -10.7902 N   0  0  0  0  0  0  0  0  0  0  0  0
   30.2370  -21.9719  -11.3025 N   0  0  0  0  0  0  0  0  0  0  0  0
   29.2340  -21.0054  -11.0447 C   0  0  0  0  0  0  0  0  0  0  0  0
   28.2679  -21.3953   -9.9925 C   0  0  0  0  0  0  0  0  0  0  0  0
   26.8537  -21.4123  -10.4021 C   0  0  0  0  0  0  0  0  0  0  0  0
   26.5481  -21.7661  -11.8196 C   0  0  2  0  0  0  0  0  0  0  0  0
   27.6434  -21.3379  -12.6788 N   0  0  0  0  0  0  0  0  0  0  0  0
   25.3105  -21.0388  -12.2701 C   0  0  0  0  0  0  0  0  0  0  0  0
   24.8505  -20.1433  -11.5456 O   0  0  0  0  0  0  0  0  0  0  0  0
   32.2855  -23.4373  -11.7538 N   0  0  0  0  0  0  0  0  0  0  0  0
   24.6998  -21.3787  -13.4888 C   0  0  1  0  0  0  0  0  0  0  0  0
   23.4553  -20.6948  -13.8583 C   0  0  0  0  0  0  0  0  0  0  0  0
   23.5737  -20.2270  -15.3001 C   0  0  0  0  0  0  0  0  0  0  0  0
   22.4374  -19.3858  -15.7052 C   0  0  0  0  0  0  0  0  0  0  0  0
   22.5903  -18.9440  -17.1516 C   0  0  0  0  0  0  0  0  0  0  0  0
   21.4297  -18.0733  -17.5283 N   0  0  0  0  0  0  0  0  0  0  0  0
   21.6498  -17.6468  -18.9110 C   0  0  0  0  0  0  0  0  0  0  0  0
   22.3031  -21.5846  -13.7185 O   0  0  0  0  0  0  0  0  0  0  0  0
   22.4508  -22.8149  -13.9201 N   0  0  0  0  0  0  0  0  0  0  0  0
   18.4877  -23.9518  -10.9271 C   0  0  0  0  0  0  0  0  0  0  0  0
   18.3206  -22.5982  -11.3047 O   0  0  0  0  0  0  0  0  0  0  0  0
   17.1844  -22.1020  -11.2905 C   0  0  0  0  0  0  0  0  0  0  0  0
   19.4915  -21.8190  -11.7021 C   0  0  1  0  0  0  0  0  0  0  0  0
   19.9392  -21.9792  -13.1234 N   0  0  0  0  0  0  0  0  0  0  0  0
   21.0348  -21.0330  -13.3553 C   0  0  0  0  0  0  0  0  0  0  0  0
   18.9038  -21.6167  -14.1260 O   0  0  0  0  0  0  0  0  0  0  0  0
   18.1320  -22.5822  -14.7298 O   0  0  0  0  0  0  0  0  0  0  0  0
  2  1  1  0
  3  2  2  0
  4  2  1  0
  5  4  1  0
  6  5  1  0
  7  6  1  0
  8  7  1  0
  8  9  1  6
 10  8  1  0
 10 11  2  0
 12 10  1  0
 13 12  1  0
 13 14  1  1
 15 14  1  0
 16 17  1  0
 16 15  1  0
 18 17  1  0
 19 13  1  0
 20 19  2  0
 22 23  2  0
 22 21  1  0
 24 22  1  0
 25 24  1  1
 25 26  1  0
 26 19  1  0
 27 28  1  0
 27 25  1  0
 29 27  2  0
M  END
$$$$
