RKN.pdb
     RDKit          3D

 29 28  0  0  1  0  0  0  0  0999 V2000
   28.6284  -31.6438  -15.7199 N   0  0  0  0  0  0  0  0  0  0  0  0
   27.2985  -31.5645  -16.1915 C   0  0  0  0  0  0  0  0  0  0  0  0
   26.4546  -32.4851  -15.8661 N   0  0  0  0  0  0  0  0  0  0  0  0
   26.8187  -30.4993  -17.0283 N   0  0  0  0  0  0  0  0  0  0  0  0
   27.6212  -29.4045  -17.4333 C   0  0  0  0  0  0  0  0  0  0  0  0
   27.8310  -28.3814  -16.3835 C   0  0  0  0  0  0  0  0  0  0  0  0
   26.6851  -27.4948  -16.1214 C   0  0  0  0  0  0  0  0  0  0  0  0
   26.4700  -26.3483  -17.0526 C   0  0  2  0  0  0  0  0  0  0  0  0
   27.1808  -25.1765  -16.5596 N   0  0  0  0  0  0  0  0  0  0  0  0
   25.0070  -26.0007  -17.1024 C   0  0  0  0  0  0  0  0  0  0  0  0
   24.5628  -25.1808  -16.2846 O   0  0  0  0  0  0  0  0  0  0  0  0
   25.4884  -32.5325  -16.2251 N   0  0  0  0  0  0  0  0  0  0  0  0
   24.1741  -26.6011  -18.0613 C   0  0  2  0  0  0  0  0  0  0  0  0
   22.7601  -26.2108  -18.0973 C   0  0  0  0  0  0  0  0  0  0  0  0
   22.1475  -26.7416  -19.3835 C   0  0  0  0  0  0  0  0  0  0  0  0
   20.7541  -26.3038  -19.5560 C   0  0  0  0  0  0  0  0  0  0  0  0
   20.2102  -26.7723  -20.8958 C   0  0  0  0  0  0  0  0  0  0  0  0
   18.8187  -26.2451  -21.0766 N   0  0  0  0  0  0  0  0  0  0  0  0
   18.3225  -26.7815  -22.3448 C   0  0  0  0  0  0  0  0  0  0  0  0
   22.0359  -26.7460  -16.9450 O   0  0  0  0  0  0  0  0  0  0  0  0
   22.5014  -27.7404  -16.3363 N   0  0  0  0  0  0  0  0  0  0  0  0
   19.3574  -27.0919  -12.6553 C   0  0  0  0  0  0  0  0  0  0  0  0
   20.6804  -26.6204  -12.8291 O   0  0  0  0  0  0  0  0  0  0  0  0
   21.4036  -26.4668  -11.8337 C   0  0  0  0  0  0  0  0  0  0  0  0
   21.1613  -26.3263  -14.1775 C   0  0  1  0  0  0  0  0  0  0  0  0
   20.2034  -26.6070  -15.2955 N   0  0  0  0  0  0  0  0  0  0  0  0
   20.8141  -26.1244  -16.5379 C   0  0  0  0  0  0  0  0  0  0  0  0
   18.9192  -25.8667  -15.1891 O   0  0  0  0  0  0  0  0  0  0  0  0
   17.7690  -26.4971  -14.7743 O   0  0  0  0  0  0  0  0  0  0  0  0
  2  1  1  0
  3  2  2  0
  4  2  1  0
  5  4  1  0
  6  5  1  0
  7  6  1  0
  8  7  1  0
  8  9  1  1
 10  8  1  0
 10 11  2  0
 12 10  1  0
 13 12  1  0
 13 14  1  6
 15 14  1  0
 16 17  1  0
 16 15  1  0
 18 17  1  0
 19 13  1  0
 20 19  2  0
 22 23  2  0
 22 21  1  0
 24 22  1  0
 25 24  1  6
 25 26  1  0
 26 19  1  0
 27 28  1  0
 27 25  1  0
 29 27  2  0
M  END
$$$$
