RKN.pdb
     RDKit          3D

 29 28  0  0  1  0  0  0  0  0999 V2000
   22.6022  -20.6494  -12.6562 N   0  0  0  0  0  0  0  0  0  0  0  0
   23.2623  -21.8545  -12.3255 C   0  0  0  0  0  0  0  0  0  0  0  0
   22.7288  -22.9815  -12.6584 N   0  0  0  0  0  0  0  0  0  0  0  0
   24.5172  -21.9024  -11.6270 N   0  0  0  0  0  0  0  0  0  0  0  0
   25.2291  -20.7462  -11.2232 C   0  0  0  0  0  0  0  0  0  0  0  0
   26.4869  -20.5134  -11.9691 C   0  0  0  0  0  0  0  0  0  0  0  0
   27.4842  -21.5934  -11.8871 C   0  0  0  0  0  0  0  0  0  0  0  0
   28.8069  -21.3649  -12.5401 C   0  0  2  0  0  0  0  0  0  0  0  0
   29.3818  -20.1161  -12.0591 N   0  0  0  0  0  0  0  0  0  0  0  0
   28.6241  -21.2341  -14.0278 C   0  0  0  0  0  0  0  0  0  0  0  0
   28.3958  -20.1110  -14.5020 O   0  0  0  0  0  0  0  0  0  0  0  0
   23.1730  -23.8985  -12.4953 N   0  0  0  0  0  0  0  0  0  0  0  0
   28.7129  -22.3700  -14.8495 C   0  0  2  0  0  0  0  0  0  0  0  0
   28.6481  -22.1841  -16.3036 C   0  0  0  0  0  0  0  0  0  0  0  0
   29.2045  -23.4307  -16.9728 C   0  0  0  0  0  0  0  0  0  0  0  0
   30.5793  -23.7249  -16.5414 C   0  0  0  0  0  0  0  0  0  0  0  0
   31.1419  -24.9027  -17.3204 C   0  0  0  0  0  0  0  0  0  0  0  0
   32.4908  -25.2593  -16.7726 N   0  0  0  0  0  0  0  0  0  0  0  0
   32.9247  -26.4720  -17.4679 C   0  0  0  0  0  0  0  0  0  0  0  0
   27.2727  -21.9558  -16.7451 O   0  0  0  0  0  0  0  0  0  0  0  0
   26.3349  -22.5546  -16.1636 N   0  0  0  0  0  0  0  0  0  0  0  0
   23.2035  -19.0322  -15.7210 C   0  0  0  0  0  0  0  0  0  0  0  0
   23.7180  -19.8510  -16.7542 O   0  0  0  0  0  0  0  0  0  0  0  0
   22.9488  -20.6050  -17.3684 C   0  0  0  0  0  0  0  0  0  0  0  0
   25.1432  -19.7875  -17.0715 C   0  0  2  0  0  0  0  0  0  0  0  0
   25.6276  -20.7367  -18.1254 N   0  0  0  0  0  0  0  0  0  0  0  0
   27.0274  -21.0558  -17.8290 C   0  0  0  0  0  0  0  0  0  0  0  0
   25.6501  -20.1575  -19.4938 O   0  0  0  0  0  0  0  0  0  0  0  0
   24.6004  -20.3481  -20.3624 O   0  0  0  0  0  0  0  0  0  0  0  0
  2  1  1  0
  3  2  2  0
  4  2  1  0
  5  4  1  0
  6  5  1  0
  7  6  1  0
  8  7  1  0
  8  9  1  1
 10  8  1  0
 10 11  2  0
 12 10  1  0
 13 12  1  0
 13 14  1  1
 15 14  1  0
 16 17  1  0
 16 15  1  0
 18 17  1  0
 19 13  1  0
 20 19  2  0
 22 23  2  0
 22 21  1  0
 24 22  1  0
 25 24  1  1
 25 26  1  0
 26 19  1  0
 27 28  1  0
 27 25  1  0
 29 27  2  0
M  END
$$$$
