RKN.pdb
     RDKit          3D

 29 28  0  0  1  0  0  0  0  0999 V2000
   18.5328  -24.8788  -11.1703 N   0  0  0  0  0  0  0  0  0  0  0  0
   18.4157  -23.4887  -10.9439 C   0  0  0  0  0  0  0  0  0  0  0  0
   18.0372  -22.7191  -11.9082 N   0  0  0  0  0  0  0  0  0  0  0  0
   18.6980  -22.8673   -9.6793 N   0  0  0  0  0  0  0  0  0  0  0  0
   19.0518  -23.5936   -8.5157 C   0  0  0  0  0  0  0  0  0  0  0  0
   17.9080  -24.2295   -7.8229 C   0  0  0  0  0  0  0  0  0  0  0  0
   18.1539  -24.6339   -6.4287 C   0  0  0  0  0  0  0  0  0  0  0  0
   18.4011  -26.0814   -6.1613 C   0  0  2  0  0  0  0  0  0  0  0  0
   17.9650  -26.8724   -7.3039 N   0  0  0  0  0  0  0  0  0  0  0  0
   17.5937  -26.5242   -4.9715 C   0  0  0  0  0  0  0  0  0  0  0  0
   16.3588  -26.4188   -5.0187 O   0  0  0  0  0  0  0  0  0  0  0  0
   17.8993  -21.7010  -11.8112 N   0  0  0  0  0  0  0  0  0  0  0  0
   18.2399  -27.0442   -3.8376 C   0  0  1  0  0  0  0  0  0  0  0  0
   17.4236  -27.3895   -2.6683 C   0  0  0  0  0  0  0  0  0  0  0  0
   18.0645  -28.5773   -1.9684 C   0  0  0  0  0  0  0  0  0  0  0  0
   17.7851  -29.8450   -2.6596 C   0  0  0  0  0  0  0  0  0  0  0  0
   19.0753  -30.6049   -2.9215 C   0  0  0  0  0  0  0  0  0  0  0  0
   18.7637  -31.8658   -3.6698 N   0  0  0  0  0  0  0  0  0  0  0  0
   20.0324  -32.5697   -3.8629 C   0  0  0  0  0  0  0  0  0  0  0  0
   17.3253  -26.2619   -1.7422 O   0  0  0  0  0  0  0  0  0  0  0  0
   18.3174  -25.5084   -1.5865 N   0  0  0  0  0  0  0  0  0  0  0  0
   13.6771  -21.8354   -0.7116 C   0  0  0  0  0  0  0  0  0  0  0  0
   14.7127  -22.6631   -0.2164 O   0  0  0  0  0  0  0  0  0  0  0  0
   15.3297  -22.3165    0.8017 C   0  0  0  0  0  0  0  0  0  0  0  0
   15.0291  -23.9058   -0.9175 C   0  0  1  0  0  0  0  0  0  0  0  0
   16.0041  -24.8178   -0.2365 N   0  0  0  0  0  0  0  0  0  0  0  0
   16.1016  -26.0432   -1.0354 C   0  0  0  0  0  0  0  0  0  0  0  0
   15.5653  -25.2732    1.1083 O   0  0  0  0  0  0  0  0  0  0  0  0
   16.0980  -24.7249    2.2520 O   0  0  0  0  0  0  0  0  0  0  0  0
  2  1  1  0
  3  2  2  0
  4  2  1  0
  5  4  1  0
  6  5  1  0
  7  6  1  0
  8  7  1  0
  8  9  1  6
 10  8  1  0
 10 11  2  0
 12 10  1  0
 13 12  1  0
 13 14  1  6
 15 14  1  0
 16 17  1  0
 16 15  1  0
 18 17  1  0
 19 13  1  0
 20 19  2  0
 22 23  2  0
 22 21  1  0
 24 22  1  0
 25 24  1  6
 25 26  1  0
 26 19  1  0
 27 28  1  0
 27 25  1  0
 29 27  2  0
M  END
$$$$
