RKN.pdb
     RDKit          3D

 29 28  0  0  1  0  0  0  0  0999 V2000
   27.0284  -21.2847  -12.0779 N   0  0  0  0  0  0  0  0  0  0  0  0
   26.1521  -21.2936  -10.9692 C   0  0  0  0  0  0  0  0  0  0  0  0
   26.6304  -21.1289   -9.7819 N   0  0  0  0  0  0  0  0  0  0  0  0
   24.7318  -21.4787  -11.0857 N   0  0  0  0  0  0  0  0  0  0  0  0
   23.9351  -20.8109  -12.0480 C   0  0  0  0  0  0  0  0  0  0  0  0
   24.4685  -20.8704  -13.4281 C   0  0  0  0  0  0  0  0  0  0  0  0
   23.5740  -20.3560  -14.4783 C   0  0  0  0  0  0  0  0  0  0  0  0
   22.4512  -21.2338  -14.9221 C   0  0  2  0  0  0  0  0  0  0  0  0
   22.9680  -22.5479  -15.2790 N   0  0  0  0  0  0  0  0  0  0  0  0
   21.8068  -20.6532  -16.1514 C   0  0  0  0  0  0  0  0  0  0  0  0
   22.1926  -21.0415  -17.2644 O   0  0  0  0  0  0  0  0  0  0  0  0
   26.0576  -21.1457   -8.9237 N   0  0  0  0  0  0  0  0  0  0  0  0
   20.7902  -19.6919  -16.0248 C   0  0  2  0  0  0  0  0  0  0  0  0
   20.1502  -19.1905  -17.2463 C   0  0  0  0  0  0  0  0  0  0  0  0
   18.7316  -18.7633  -16.9051 C   0  0  0  0  0  0  0  0  0  0  0  0
   17.8600  -19.9128  -16.6190 C   0  0  0  0  0  0  0  0  0  0  0  0
   16.4318  -19.4518  -16.3777 C   0  0  0  0  0  0  0  0  0  0  0  0
   15.5766  -20.6395  -16.0536 N   0  0  0  0  0  0  0  0  0  0  0  0
   14.2351  -20.1307  -15.7641 C   0  0  0  0  0  0  0  0  0  0  0  0
   20.8895  -18.0576  -17.8020 O   0  0  0  0  0  0  0  0  0  0  0  0
   21.2088  -17.1053  -17.0487 N   0  0  0  0  0  0  0  0  0  0  0  0
   24.6367  -15.5795  -19.7833 C   0  0  0  0  0  0  0  0  0  0  0  0
   24.3097  -16.0515  -18.4899 O   0  0  0  0  0  0  0  0  0  0  0  0
   24.9970  -15.6915  -17.5227 C   0  0  0  0  0  0  0  0  0  0  0  0
   23.1701  -16.9518  -18.3264 C   0  0  2  0  0  0  0  0  0  0  0  0
   22.4380  -17.3239  -19.5801 N   0  0  0  0  0  0  0  0  0  0  0  0
   21.2317  -18.0603  -19.1904 C   0  0  0  0  0  0  0  0  0  0  0  0
   23.1870  -18.2577  -20.4608 O   0  0  0  0  0  0  0  0  0  0  0  0
   24.4775  -17.9841  -20.8507 O   0  0  0  0  0  0  0  0  0  0  0  0
  2  1  1  0
  3  2  2  0
  4  2  1  0
  5  4  1  0
  6  5  1  0
  7  6  1  0
  8  7  1  0
  8  9  1  6
 10  8  1  0
 10 11  2  0
 12 10  1  0
 13 12  1  0
 13 14  1  6
 15 14  1  0
 16 17  1  0
 16 15  1  0
 18 17  1  0
 19 13  1  0
 20 19  2  0
 22 23  2  0
 22 21  1  0
 24 22  1  0
 25 24  1  1
 25 26  1  0
 26 19  1  0
 27 28  1  0
 27 25  1  0
 29 27  2  0
M  END
$$$$
