RKN.pdb
     RDKit          3D

 29 28  0  0  1  0  0  0  0  0999 V2000
   28.6202  -20.0478  -17.3040 N   0  0  0  0  0  0  0  0  0  0  0  0
   28.4813  -21.0945  -16.3646 C   0  0  0  0  0  0  0  0  0  0  0  0
   28.5267  -22.3193  -16.7690 N   0  0  0  0  0  0  0  0  0  0  0  0
   28.2885  -20.8737  -14.9578 N   0  0  0  0  0  0  0  0  0  0  0  0
   28.0924  -19.5909  -14.3899 C   0  0  0  0  0  0  0  0  0  0  0  0
   26.7519  -19.0128  -14.6384 C   0  0  0  0  0  0  0  0  0  0  0  0
   25.7093  -19.3835  -13.6671 C   0  0  0  0  0  0  0  0  0  0  0  0
   24.8288  -20.5405  -14.0049 C   0  0  2  0  0  0  0  0  0  0  0  0
   24.9824  -20.8786  -15.4132 N   0  0  0  0  0  0  0  0  0  0  0  0
   23.3885  -20.1649  -13.7855 C   0  0  0  0  0  0  0  0  0  0  0  0
   23.0356  -19.7982  -12.6544 O   0  0  0  0  0  0  0  0  0  0  0  0
   28.3761  -23.1340  -16.1538 N   0  0  0  0  0  0  0  0  0  0  0  0
   22.4742  -20.2336  -14.8499 C   0  0  2  0  0  0  0  0  0  0  0  0
   21.0740  -19.8811  -14.5886 C   0  0  0  0  0  0  0  0  0  0  0  0
   20.4143  -19.5212  -15.9102 C   0  0  0  0  0  0  0  0  0  0  0  0
   19.0298  -19.0585  -15.7309 C   0  0  0  0  0  0  0  0  0  0  0  0
   18.3532  -18.8666  -17.0785 C   0  0  0  0  0  0  0  0  0  0  0  0
   16.9860  -18.2892  -16.8680 N   0  0  0  0  0  0  0  0  0  0  0  0
   16.3571  -18.1949  -18.1862 C   0  0  0  0  0  0  0  0  0  0  0  0
   20.3584  -20.9927  -13.9633 O   0  0  0  0  0  0  0  0  0  0  0  0
   20.9325  -22.1030  -13.8463 N   0  0  0  0  0  0  0  0  0  0  0  0
   19.2996  -23.6919   -9.6003 C   0  0  0  0  0  0  0  0  0  0  0  0
   19.0883  -23.5361  -10.9909 O   0  0  0  0  0  0  0  0  0  0  0  0
   18.7397  -24.5176  -11.6636 C   0  0  0  0  0  0  0  0  0  0  0  0
   19.2865  -22.2222  -11.5995 C   0  0  2  0  0  0  0  0  0  0  0  0
   18.3981  -21.8920  -12.7605 N   0  0  0  0  0  0  0  0  0  0  0  0
   19.0211  -20.7895  -13.4993 C   0  0  0  0  0  0  0  0  0  0  0  0
   17.0594  -21.3798  -12.3683 O   0  0  0  0  0  0  0  0  0  0  0  0
   16.0418  -22.2408  -12.0282 O   0  0  0  0  0  0  0  0  0  0  0  0
  2  1  1  0
  3  2  2  0
  4  2  1  0
  5  4  1  0
  6  5  1  0
  7  6  1  0
  8  7  1  0
  8  9  1  6
 10  8  1  0
 10 11  2  0
 12 10  1  0
 13 12  1  0
 13 14  1  6
 15 14  1  0
 16 17  1  0
 16 15  1  0
 18 17  1  0
 19 13  1  0
 20 19  2  0
 22 23  2  0
 22 21  1  0
 24 22  1  0
 25 24  1  6
 25 26  1  0
 26 19  1  0
 27 28  1  0
 27 25  1  0
 29 27  2  0
M  END
$$$$
