RKN.pdb
     RDKit          3D

 29 28  0  0  1  0  0  0  0  0999 V2000
   25.2974  -20.5127  -21.7679 N   0  0  0  0  0  0  0  0  0  0  0  0
   24.3710  -19.4476  -21.6999 C   0  0  0  0  0  0  0  0  0  0  0  0
   23.6672  -19.1523  -22.7405 N   0  0  0  0  0  0  0  0  0  0  0  0
   24.1606  -18.6573  -20.5183 N   0  0  0  0  0  0  0  0  0  0  0  0
   24.8242  -18.8992  -19.2904 C   0  0  0  0  0  0  0  0  0  0  0  0
   26.2031  -19.4191  -19.4349 C   0  0  0  0  0  0  0  0  0  0  0  0
   26.8753  -19.7966  -18.1805 C   0  0  0  0  0  0  0  0  0  0  0  0
   26.4792  -19.0710  -16.9376 C   0  0  2  0  0  0  0  0  0  0  0  0
   27.3484  -17.9183  -16.7450 N   0  0  0  0  0  0  0  0  0  0  0  0
   26.6532  -19.9717  -15.7452 C   0  0  0  0  0  0  0  0  0  0  0  0
   26.0398  -21.0493  -15.7197 O   0  0  0  0  0  0  0  0  0  0  0  0
   22.9944  -18.3707  -22.7768 N   0  0  0  0  0  0  0  0  0  0  0  0
   27.4967  -19.5859  -14.6900 C   0  0  1  0  0  0  0  0  0  0  0  0
   27.5806  -20.4565  -13.5119 C   0  0  0  0  0  0  0  0  0  0  0  0
   28.9953  -20.3835  -12.9599 C   0  0  0  0  0  0  0  0  0  0  0  0
   29.1824  -21.2626  -11.7958 C   0  0  0  0  0  0  0  0  0  0  0  0
   30.5977  -21.1377  -11.2555 C   0  0  0  0  0  0  0  0  0  0  0  0
   30.7735  -22.0830  -10.1055 N   0  0  0  0  0  0  0  0  0  0  0  0
   32.1628  -21.9587   -9.6620 C   0  0  0  0  0  0  0  0  0  0  0  0
   26.6250  -20.0459  -12.4837 O   0  0  0  0  0  0  0  0  0  0  0  0
   26.6466  -18.8628  -12.0644 N   0  0  0  0  0  0  0  0  0  0  0  0
   21.0013  -21.3913  -10.6957 C   0  0  0  0  0  0  0  0  0  0  0  0
   22.2546  -20.7640  -10.5000 O   0  0  0  0  0  0  0  0  0  0  0  0
   22.3644  -19.8910   -9.6264 C   0  0  0  0  0  0  0  0  0  0  0  0
   23.3884  -21.1608  -11.3326 C   0  0  2  0  0  0  0  0  0  0  0  0
   24.7027  -20.5182  -11.0074 N   0  0  0  0  0  0  0  0  0  0  0  0
   25.6880  -21.0013  -11.9796 C   0  0  0  0  0  0  0  0  0  0  0  0
   25.2521  -20.9068   -9.6825 O   0  0  0  0  0  0  0  0  0  0  0  0
   25.0348  -20.1296   -8.5684 O   0  0  0  0  0  0  0  0  0  0  0  0
  2  1  1  0
  3  2  2  0
  4  2  1  0
  5  4  1  0
  6  5  1  0
  7  6  1  0
  8  7  1  0
  8  9  1  1
 10  8  1  0
 10 11  2  0
 12 10  1  0
 13 12  1  0
 13 14  1  1
 15 14  1  0
 16 17  1  0
 16 15  1  0
 18 17  1  0
 19 13  1  0
 20 19  2  0
 22 23  2  0
 22 21  1  0
 24 22  1  0
 25 24  1  6
 25 26  1  0
 26 19  1  0
 27 28  1  0
 27 25  1  0
 29 27  2  0
M  END
$$$$
