RKN.pdb
     RDKit          3D

 29 28  0  0  1  0  0  0  0  0999 V2000
   21.2142  -19.6170  -21.2071 N   0  0  0  0  0  0  0  0  0  0  0  0
   21.9318  -20.8345  -21.1979 C   0  0  0  0  0  0  0  0  0  0  0  0
   22.0496  -21.5091  -22.2918 N   0  0  0  0  0  0  0  0  0  0  0  0
   22.5509  -21.3782  -20.0206 N   0  0  0  0  0  0  0  0  0  0  0  0
   22.6829  -20.6598  -18.8069 C   0  0  0  0  0  0  0  0  0  0  0  0
   24.0250  -20.0735  -18.5885 C   0  0  0  0  0  0  0  0  0  0  0  0
   24.2751  -18.7886  -19.2624 C   0  0  0  0  0  0  0  0  0  0  0  0
   24.6241  -17.6154  -18.4079 C   0  0  2  0  0  0  0  0  0  0  0  0
   25.3950  -18.0607  -17.2552 N   0  0  0  0  0  0  0  0  0  0  0  0
   23.3670  -16.9722  -17.8888 C   0  0  0  0  0  0  0  0  0  0  0  0
   23.0535  -17.1523  -16.7024 O   0  0  0  0  0  0  0  0  0  0  0  0
   22.5649  -22.4001  -22.3653 N   0  0  0  0  0  0  0  0  0  0  0  0
   22.5751  -16.1866  -18.7429 C   0  0  2  0  0  0  0  0  0  0  0  0
   21.3834  -15.5369  -18.1853 C   0  0  0  0  0  0  0  0  0  0  0  0
   21.1237  -14.2580  -18.9654 C   0  0  0  0  0  0  0  0  0  0  0  0
   19.9418  -13.5366  -18.4699 C   0  0  0  0  0  0  0  0  0  0  0  0
   20.3129  -12.6513  -17.2914 C   0  0  0  0  0  0  0  0  0  0  0  0
   19.0726  -12.0143  -16.7411 N   0  0  0  0  0  0  0  0  0  0  0  0
   19.4772  -11.2430  -15.5647 C   0  0  0  0  0  0  0  0  0  0  0  0
   20.2166  -16.4146  -18.2688 O   0  0  0  0  0  0  0  0  0  0  0  0
   20.0438  -17.1080  -19.3010 N   0  0  0  0  0  0  0  0  0  0  0  0
   16.5515  -19.6429  -17.1809 C   0  0  0  0  0  0  0  0  0  0  0  0
   16.9516  -19.0535  -15.9581 O   0  0  0  0  0  0  0  0  0  0  0  0
   16.6459  -19.6066  -14.8913 C   0  0  0  0  0  0  0  0  0  0  0  0
   17.7151  -17.8075  -15.9832 C   0  0  2  0  0  0  0  0  0  0  0  0
   18.1083  -17.3019  -17.3382 N   0  0  0  0  0  0  0  0  0  0  0  0
   19.2992  -16.4629  -17.1729 C   0  0  0  0  0  0  0  0  0  0  0  0
   17.0981  -16.4106  -17.9654 O   0  0  0  0  0  0  0  0  0  0  0  0
   16.9647  -15.0999  -17.5694 O   0  0  0  0  0  0  0  0  0  0  0  0
  2  1  1  0
  3  2  2  0
  4  2  1  0
  5  4  1  0
  6  5  1  0
  7  6  1  0
  8  7  1  0
  8  9  1  1
 10  8  1  0
 10 11  2  0
 12 10  1  0
 13 12  1  0
 13 14  1  6
 15 14  1  0
 16 17  1  0
 16 15  1  0
 18 17  1  0
 19 13  1  0
 20 19  2  0
 22 23  2  0
 22 21  1  0
 24 22  1  0
 25 24  1  6
 25 26  1  0
 26 19  1  0
 27 28  1  0
 27 25  1  0
 29 27  2  0
M  END
$$$$
