RKN.pdb
     RDKit          3D

 29 28  0  0  1  0  0  0  0  0999 V2000
   22.6491  -20.9743   -9.6366 N   0  0  0  0  0  0  0  0  0  0  0  0
   22.7615  -21.1098  -11.0388 C   0  0  0  0  0  0  0  0  0  0  0  0
   21.7089  -20.9815  -11.7744 N   0  0  0  0  0  0  0  0  0  0  0  0
   24.0019  -21.3873  -11.7092 N   0  0  0  0  0  0  0  0  0  0  0  0
   25.2409  -21.5152  -11.0346 C   0  0  0  0  0  0  0  0  0  0  0  0
   26.1015  -20.3125  -11.1073 C   0  0  0  0  0  0  0  0  0  0  0  0
   27.4851  -20.5464  -11.5531 C   0  0  0  0  0  0  0  0  0  0  0  0
   27.7007  -20.8890  -12.9898 C   0  0  2  0  0  0  0  0  0  0  0  0
   29.1064  -21.1963  -13.2149 N   0  0  0  0  0  0  0  0  0  0  0  0
   27.3537  -19.7062  -13.8526 C   0  0  0  0  0  0  0  0  0  0  0  0
   27.7480  -18.5823  -13.5067 O   0  0  0  0  0  0  0  0  0  0  0  0
   21.6966  -21.1419  -12.7937 N   0  0  0  0  0  0  0  0  0  0  0  0
   26.5977  -19.8874  -15.0227 C   0  0  2  0  0  0  0  0  0  0  0  0
   26.2775  -18.7076  -15.8342 C   0  0  0  0  0  0  0  0  0  0  0  0
   26.9857  -18.8386  -17.1732 C   0  0  0  0  0  0  0  0  0  0  0  0
   26.7824  -17.6576  -18.0259 C   0  0  0  0  0  0  0  0  0  0  0  0
   27.5168  -17.8210  -19.3467 C   0  0  0  0  0  0  0  0  0  0  0  0
   27.3268  -16.5859  -20.1745 N   0  0  0  0  0  0  0  0  0  0  0  0
   25.9084  -16.5273  -20.5310 C   0  0  0  0  0  0  0  0  0  0  0  0
   24.8353  -18.5884  -16.0453 O   0  0  0  0  0  0  0  0  0  0  0  0
   24.1642  -19.6209  -16.2898 N   0  0  0  0  0  0  0  0  0  0  0  0
   20.3469  -14.3858  -15.5218 C   0  0  0  0  0  0  0  0  0  0  0  0
   20.8683  -15.6340  -15.9376 O   0  0  0  0  0  0  0  0  0  0  0  0
   20.1264  -16.4334  -16.5274 C   0  0  0  0  0  0  0  0  0  0  0  0
   22.2683  -15.9497  -15.6613 C   0  0  1  0  0  0  0  0  0  0  0  0
   22.7858  -17.2264  -16.2516 N   0  0  0  0  0  0  0  0  0  0  0  0
   24.2225  -17.2987  -15.9684 C   0  0  0  0  0  0  0  0  0  0  0  0
   22.6856  -17.2895  -17.7330 O   0  0  0  0  0  0  0  0  0  0  0  0
   23.3899  -16.4168  -18.5297 O   0  0  0  0  0  0  0  0  0  0  0  0
  2  1  1  0
  3  2  2  0
  4  2  1  0
  5  4  1  0
  6  5  1  0
  7  6  1  0
  8  7  1  0
  8  9  1  1
 10  8  1  0
 10 11  2  0
 12 10  1  0
 13 12  1  0
 13 14  1  6
 15 14  1  0
 16 17  1  0
 16 15  1  0
 18 17  1  0
 19 13  1  0
 20 19  2  0
 22 23  2  0
 22 21  1  0
 24 22  1  0
 25 24  1  1
 25 26  1  0
 26 19  1  0
 27 28  1  0
 27 25  1  0
 29 27  2  0
M  END
$$$$
