RKN.pdb
     RDKit          3D

 29 28  0  0  1  0  0  0  0  0999 V2000
   14.6661  -27.0956   -1.6443 N   0  0  0  0  0  0  0  0  0  0  0  0
   15.9905  -27.5888   -1.6354 C   0  0  0  0  0  0  0  0  0  0  0  0
   16.5982  -27.7528   -0.5087 N   0  0  0  0  0  0  0  0  0  0  0  0
   16.7165  -27.9257   -2.8288 N   0  0  0  0  0  0  0  0  0  0  0  0
   17.3377  -26.9625   -3.6613 C   0  0  0  0  0  0  0  0  0  0  0  0
   16.4452  -26.3784   -4.6884 C   0  0  0  0  0  0  0  0  0  0  0  0
   16.9620  -26.4001   -6.0669 C   0  0  0  0  0  0  0  0  0  0  0  0
   18.3694  -25.9531   -6.2854 C   0  0  2  0  0  0  0  0  0  0  0  0
   18.7265  -24.9534   -5.2882 N   0  0  0  0  0  0  0  0  0  0  0  0
   18.4934  -25.3057   -7.6378 C   0  0  0  0  0  0  0  0  0  0  0  0
   18.3395  -24.0781   -7.7254 O   0  0  0  0  0  0  0  0  0  0  0  0
   17.5596  -28.1174   -0.4216 N   0  0  0  0  0  0  0  0  0  0  0  0
   18.7779  -26.0891   -8.7687 C   0  0  1  0  0  0  0  0  0  0  0  0
   19.0406  -25.4061  -10.0405 C   0  0  0  0  0  0  0  0  0  0  0  0
   19.7130  -26.3900  -10.9846 C   0  0  0  0  0  0  0  0  0  0  0  0
   20.1577  -25.7474  -12.2305 C   0  0  0  0  0  0  0  0  0  0  0  0
   20.7515  -26.7765  -13.1786 C   0  0  0  0  0  0  0  0  0  0  0  0
   21.2670  -26.0820  -14.4029 N   0  0  0  0  0  0  0  0  0  0  0  0
   21.8142  -27.1179  -15.2803 C   0  0  0  0  0  0  0  0  0  0  0  0
   17.8013  -24.9118  -10.6393 O   0  0  0  0  0  0  0  0  0  0  0  0
   16.7281  -25.5256  -10.4217 N   0  0  0  0  0  0  0  0  0  0  0  0
   14.3568  -21.9144  -13.0799 C   0  0  0  0  0  0  0  0  0  0  0  0
   14.8882  -21.4785  -11.8429 O   0  0  0  0  0  0  0  0  0  0  0  0
   14.3787  -20.5002  -11.2766 C   0  0  0  0  0  0  0  0  0  0  0  0
   16.0246  -22.1921  -11.2639 C   0  0  1  0  0  0  0  0  0  0  0  0
   16.5804  -23.3200  -12.0794 N   0  0  0  0  0  0  0  0  0  0  0  0
   17.8404  -23.7405  -11.4589 C   0  0  0  0  0  0  0  0  0  0  0  0
   16.9483  -22.9362  -13.4671 O   0  0  0  0  0  0  0  0  0  0  0  0
   16.2364  -23.4069  -14.5460 O   0  0  0  0  0  0  0  0  0  0  0  0
  2  1  1  0
  3  2  2  0
  4  2  1  0
  5  4  1  0
  6  5  1  0
  7  6  1  0
  8  7  1  0
  8  9  1  1
 10  8  1  0
 10 11  2  0
 12 10  1  0
 13 12  1  0
 13 14  1  1
 15 14  1  0
 16 17  1  0
 16 15  1  0
 18 17  1  0
 19 13  1  0
 20 19  2  0
 22 23  2  0
 22 21  1  0
 24 22  1  0
 25 24  1  1
 25 26  1  0
 26 19  1  0
 27 28  1  0
 27 25  1  0
 29 27  2  0
M  END
$$$$
