RKN.pdb
     RDKit          3D

 29 28  0  0  1  0  0  0  0  0999 V2000
   27.5074  -20.9357  -10.5390 N   0  0  0  0  0  0  0  0  0  0  0  0
   28.8120  -21.1083  -11.0541 C   0  0  0  0  0  0  0  0  0  0  0  0
   29.6281  -21.9106  -10.4575 N   0  0  0  0  0  0  0  0  0  0  0  0
   29.2952  -20.4311  -12.2258 N   0  0  0  0  0  0  0  0  0  0  0  0
   28.5169  -19.5118  -12.9714 C   0  0  0  0  0  0  0  0  0  0  0  0
   27.8239  -20.1054  -14.1376 C   0  0  0  0  0  0  0  0  0  0  0  0
   26.4693  -19.5922  -14.4015 C   0  0  0  0  0  0  0  0  0  0  0  0
   25.3773  -20.0127  -13.4749 C   0  0  2  0  0  0  0  0  0  0  0  0
   25.8026  -21.1793  -12.7136 N   0  0  0  0  0  0  0  0  0  0  0  0
   24.1620  -20.4099  -14.2678 C   0  0  0  0  0  0  0  0  0  0  0  0
   23.7024  -19.6066  -15.0935 O   0  0  0  0  0  0  0  0  0  0  0  0
   30.6161  -22.0328  -10.7292 N   0  0  0  0  0  0  0  0  0  0  0  0
   23.5712  -21.6684  -14.0656 C   0  0  2  0  0  0  0  0  0  0  0  0
   22.3264  -21.9758  -14.7792 C   0  0  0  0  0  0  0  0  0  0  0  0
   22.1497  -23.4855  -14.8090 C   0  0  0  0  0  0  0  0  0  0  0  0
   23.1176  -24.1395  -15.7025 C   0  0  0  0  0  0  0  0  0  0  0  0
   23.0492  -25.6502  -15.5482 C   0  0  0  0  0  0  0  0  0  0  0  0
   24.0260  -26.2884  -16.4891 N   0  0  0  0  0  0  0  0  0  0  0  0
   23.9436  -27.7334  -16.2714 C   0  0  0  0  0  0  0  0  0  0  0  0
   21.1759  -21.3544  -14.1241 O   0  0  0  0  0  0  0  0  0  0  0  0
   21.3161  -20.8598  -12.9788 N   0  0  0  0  0  0  0  0  0  0  0  0
   18.5515  -16.7470  -14.0075 C   0  0  0  0  0  0  0  0  0  0  0  0
   18.4018  -18.1040  -13.6353 O   0  0  0  0  0  0  0  0  0  0  0  0
   17.4718  -18.4254  -12.8809 C   0  0  0  0  0  0  0  0  0  0  0  0
   19.3474  -19.0929  -14.1492 C   0  0  2  0  0  0  0  0  0  0  0  0
   18.8574  -20.5082  -14.2041 N   0  0  0  0  0  0  0  0  0  0  0  0
   19.9178  -21.3244  -14.8031 C   0  0  0  0  0  0  0  0  0  0  0  0
   17.6795  -20.7042  -15.0887 O   0  0  0  0  0  0  0  0  0  0  0  0
   16.4176  -20.8650  -14.5650 O   0  0  0  0  0  0  0  0  0  0  0  0
  2  1  1  0
  3  2  2  0
  4  2  1  0
  5  4  1  0
  6  5  1  0
  7  6  1  0
  8  7  1  0
  8  9  1  6
 10  8  1  0
 10 11  2  0
 12 10  1  0
 13 12  1  0
 13 14  1  6
 15 14  1  0
 16 17  1  0
 16 15  1  0
 18 17  1  0
 19 13  1  0
 20 19  2  0
 22 23  2  0
 22 21  1  0
 24 22  1  0
 25 24  1  1
 25 26  1  0
 26 19  1  0
 27 28  1  0
 27 25  1  0
 29 27  2  0
M  END
$$$$
