PLN.pdb
     RDKit          3D

 24 24  0  0  1  0  0  0  0  0999 V2000
    7.4406  -15.4889   20.6142 N   0  0  0  0  0  0  0  0  0  0  0  0
    6.4824  -14.9611   19.6792 C   0  0  0  0  0  0  0  0  0  0  0  0
    7.1928  -13.9313   18.8395 C   0  0  0  0  0  0  0  0  0  0  0  0
    8.3494  -13.4866   19.7032 C   0  0  0  0  0  0  0  0  0  0  0  0
    8.5811  -14.6385   20.6465 C   0  0  1  0  0  0  0  0  0  0  0  0
    8.8808  -14.2088   22.0344 C   0  0  0  0  0  0  0  0  0  0  0  0
   10.0241  -13.7098   22.2895 O   0  0  0  0  0  0  0  0  0  0  0  0
    7.9831  -11.4545   26.4298 C   0  0  0  0  0  0  0  0  0  0  0  0
    7.2726  -12.7794   26.4952 C   0  0  1  0  0  0  0  0  0  0  0  0
    5.8754  -12.4678   27.0568 C   0  0  0  0  0  0  0  0  0  0  0  0
    7.0578  -13.4515   25.1826 C   0  0  0  0  0  0  0  0  0  0  0  0
    8.2656  -13.9445   24.4714 C   0  0  2  0  0  0  0  0  0  0  0  0
    7.9852  -14.3118   23.1050 N   0  0  0  0  0  0  0  0  0  0  0  0
    8.9511  -14.9855   25.2560 C   0  0  0  0  0  0  0  0  0  0  0  0
    9.2218  -14.7458   26.4538 O   0  0  0  0  0  0  0  0  0  0  0  0
   10.0051  -19.1182   27.5639 N   0  0  0  0  0  0  0  0  0  0  0  0
    9.5047  -19.5416   26.3010 C   0  0  0  0  0  0  0  0  0  0  0  0
    9.0166  -20.6785   26.2004 O   0  0  0  0  0  0  0  0  0  0  0  0
    9.5393  -18.6765   25.0832 C   0  0  0  0  0  0  0  0  0  0  0  0
   10.0031  -17.2862   25.4725 C   0  0  2  0  0  0  0  0  0  0  0  0
    9.3286  -16.2625   24.7222 N   0  0  0  0  0  0  0  0  0  0  0  0
   11.4575  -17.2215   25.1574 C   0  0  0  0  0  0  0  0  0  0  0  0
   11.8819  -16.5718   24.1637 O   0  0  0  0  0  0  0  0  0  0  0  0
   12.4153  -17.8641   25.9293 O   0  0  0  0  0  0  0  0  0  0  0  0
  2  1  1  0
  3  2  1  0
  4  3  1  0
  4  5  1  0
  5  6  1  1
  5  1  1  0
  6  7  2  0
  9  8  1  6
  9 10  1  0
 11  9  1  0
 12 11  1  1
 13 12  1  0
 13  6  1  0
 14 15  2  0
 14 12  1  0
 16 17  1  0
 17 19  1  0
 17 18  2  0
 20 19  1  6
 20 21  1  0
 21 14  1  0
 22 20  1  0
 22 24  1  0
 23 22  2  0
M  END
$$$$
