PLN.pdb
     RDKit          3D

 24 24  0  0  1  0  0  0  0  0999 V2000
    7.0710  -15.1273   20.4871 N   0  0  0  0  0  0  0  0  0  0  0  0
    6.2670  -14.3817   19.5552 C   0  0  0  0  0  0  0  0  0  0  0  0
    7.1875  -13.4474   18.8134 C   0  0  0  0  0  0  0  0  0  0  0  0
    8.3614  -13.2694   19.7470 C   0  0  0  0  0  0  0  0  0  0  0  0
    8.3407  -14.4984   20.6184 C   0  0  1  0  0  0  0  0  0  0  0  0
    8.6443  -14.2130   22.0422 C   0  0  0  0  0  0  0  0  0  0  0  0
    9.8478  -13.9648   22.3757 O   0  0  0  0  0  0  0  0  0  0  0  0
    7.8088  -11.6179   26.6922 C   0  0  0  0  0  0  0  0  0  0  0  0
    6.9397  -12.8357   26.5315 C   0  0  1  0  0  0  0  0  0  0  0  0
    5.5479  -12.4149   27.0319 C   0  0  0  0  0  0  0  0  0  0  0  0
    6.7575  -13.3068   25.1294 C   0  0  0  0  0  0  0  0  0  0  0  0
    7.9494  -13.8753   24.4485 C   0  0  2  0  0  0  0  0  0  0  0  0
    7.6903  -14.1951   23.0661 N   0  0  0  0  0  0  0  0  0  0  0  0
    8.5283  -14.9791   25.2331 C   0  0  0  0  0  0  0  0  0  0  0  0
    7.8921  -15.4016   26.2243 O   0  0  0  0  0  0  0  0  0  0  0  0
   10.9951  -19.2751   26.5898 N   0  0  0  0  0  0  0  0  0  0  0  0
    9.9116  -19.2653   25.6674 C   0  0  0  0  0  0  0  0  0  0  0  0
    9.3812  -20.3432   25.3548 O   0  0  0  0  0  0  0  0  0  0  0  0
    9.3796  -18.0110   25.0542 C   0  0  0  0  0  0  0  0  0  0  0  0
   10.2368  -16.8394   25.4923 C   0  0  2  0  0  0  0  0  0  0  0  0
    9.7852  -15.5983   24.9252 N   0  0  0  0  0  0  0  0  0  0  0  0
   11.6137  -17.1127   24.9940 C   0  0  0  0  0  0  0  0  0  0  0  0
   12.2771  -18.0984   25.4159 O   0  0  0  0  0  0  0  0  0  0  0  0
   12.2363  -16.3086   24.0495 O   0  0  0  0  0  0  0  0  0  0  0  0
  2  1  1  0
  3  2  1  0
  4  3  1  0
  4  5  1  0
  5  6  1  1
  5  1  1  0
  6  7  2  0
  9  8  1  6
  9 10  1  0
 11  9  1  0
 12 11  1  1
 13 12  1  0
 13  6  1  0
 14 15  2  0
 14 12  1  0
 16 17  1  0
 17 19  1  0
 17 18  2  0
 20 19  1  6
 20 21  1  0
 21 14  1  0
 22 20  1  0
 22 24  1  0
 23 22  2  0
M  END
$$$$
