PLN.pdb
     RDKit          3D

 24 24  0  0  1  0  0  0  0  0999 V2000
    7.4284  -15.6462   20.7149 N   0  0  0  0  0  0  0  0  0  0  0  0
    6.5374  -15.0455   19.7578 C   0  0  0  0  0  0  0  0  0  0  0  0
    7.2908  -13.9310   19.0790 C   0  0  0  0  0  0  0  0  0  0  0  0
    8.3643  -13.5543   20.0725 C   0  0  0  0  0  0  0  0  0  0  0  0
    8.5441  -14.7871   20.9199 C   0  0  1  0  0  0  0  0  0  0  0  0
    8.7219  -14.4868   22.3618 C   0  0  0  0  0  0  0  0  0  0  0  0
    9.8933  -14.5332   22.8588 O   0  0  0  0  0  0  0  0  0  0  0  0
    7.6944  -11.5226   26.9055 C   0  0  0  0  0  0  0  0  0  0  0  0
    6.7393  -12.6422   26.5914 C   0  0  1  0  0  0  0  0  0  0  0  0
    5.3438  -12.1019   26.9454 C   0  0  0  0  0  0  0  0  0  0  0  0
    6.6824  -13.0465   25.1582 C   0  0  0  0  0  0  0  0  0  0  0  0
    7.8272  -13.8352   24.6338 C   0  0  2  0  0  0  0  0  0  0  0  0
    7.6804  -14.1497   23.2337 N   0  0  0  0  0  0  0  0  0  0  0  0
    8.1058  -14.9968   25.4953 C   0  0  0  0  0  0  0  0  0  0  0  0
    8.3378  -14.7954   26.7083 O   0  0  0  0  0  0  0  0  0  0  0  0
    7.1593  -19.6730   27.7502 N   0  0  0  0  0  0  0  0  0  0  0  0
    7.3357  -19.7623   26.3411 C   0  0  0  0  0  0  0  0  0  0  0  0
    7.6069  -20.8652   25.8399 O   0  0  0  0  0  0  0  0  0  0  0  0
    7.2088  -18.5839   25.4313 C   0  0  0  0  0  0  0  0  0  0  0  0
    8.1803  -17.5065   25.8729 C   0  0  2  0  0  0  0  0  0  0  0  0
    8.1279  -16.3503   25.0205 N   0  0  0  0  0  0  0  0  0  0  0  0
    9.5429  -18.1009   25.7787 C   0  0  0  0  0  0  0  0  0  0  0  0
   10.2343  -17.9860   24.7306 O   0  0  0  0  0  0  0  0  0  0  0  0
   10.1212  -18.8054   26.8253 O   0  0  0  0  0  0  0  0  0  0  0  0
  2  1  1  0
  3  2  1  0
  4  3  1  0
  4  5  1  0
  5  6  1  1
  5  1  1  0
  6  7  2  0
  9  8  1  6
  9 10  1  0
 11  9  1  0
 12 11  1  1
 13 12  1  0
 13  6  1  0
 14 15  2  0
 14 12  1  0
 16 17  1  0
 17 19  1  0
 17 18  2  0
 20 19  1  6
 20 21  1  0
 21 14  1  0
 22 20  1  0
 22 24  1  0
 23 22  2  0
M  END
$$$$
