PLN.pdb
     RDKit          3D

 24 24  0  0  1  0  0  0  0  0999 V2000
    7.2174  -15.7897   21.4485 N   0  0  0  0  0  0  0  0  0  0  0  0
    6.5035  -14.9277   20.5441 C   0  0  0  0  0  0  0  0  0  0  0  0
    7.5095  -13.9917   19.9256 C   0  0  0  0  0  0  0  0  0  0  0  0
    8.6414  -13.9558   20.9250 C   0  0  0  0  0  0  0  0  0  0  0  0
    8.5103  -15.2468   21.6907 C   0  0  1  0  0  0  0  0  0  0  0  0
    8.7548  -15.0931   23.1459 C   0  0  0  0  0  0  0  0  0  0  0  0
    9.9558  -15.0772   23.5686 O   0  0  0  0  0  0  0  0  0  0  0  0
    5.6113  -11.7590   26.0960 C   0  0  0  0  0  0  0  0  0  0  0  0
    6.7371  -12.5743   25.5196 C   0  0  1  0  0  0  0  0  0  0  0  0
    8.0140  -11.7636   25.7973 C   0  0  0  0  0  0  0  0  0  0  0  0
    6.9421  -13.9098   26.1482 C   0  0  0  0  0  0  0  0  0  0  0  0
    7.9559  -14.7999   25.5256 C   0  0  2  0  0  0  0  0  0  0  0  0
    7.7466  -14.9613   24.1076 N   0  0  0  0  0  0  0  0  0  0  0  0
    8.0787  -16.0629   26.2731 C   0  0  0  0  0  0  0  0  0  0  0  0
    7.0995  -16.4521   26.9479 O   0  0  0  0  0  0  0  0  0  0  0  0
    6.9295  -19.5029   27.3735 N   0  0  0  0  0  0  0  0  0  0  0  0
    7.2824  -19.6400   26.0018 C   0  0  0  0  0  0  0  0  0  0  0  0
    6.5270  -20.2759   25.2495 O   0  0  0  0  0  0  0  0  0  0  0  0
    8.5268  -19.0507   25.4215 C   0  0  0  0  0  0  0  0  0  0  0  0
    9.2709  -18.2928   26.5037 C   0  0  2  0  0  0  0  0  0  0  0  0
    9.2619  -16.8742   26.2725 N   0  0  0  0  0  0  0  0  0  0  0  0
   10.6817  -18.7689   26.4602 C   0  0  0  0  0  0  0  0  0  0  0  0
   11.4116  -18.5569   25.4541 O   0  0  0  0  0  0  0  0  0  0  0  0
   11.2651  -19.4638   27.5104 O   0  0  0  0  0  0  0  0  0  0  0  0
  2  1  1  0
  3  2  1  0
  4  3  1  0
  4  5  1  0
  5  6  1  1
  5  1  1  0
  6  7  2  0
  9  8  1  1
  9 10  1  0
 11  9  1  0
 12 11  1  1
 13 12  1  0
 13  6  1  0
 14 15  2  0
 14 12  1  0
 16 17  1  0
 17 19  1  0
 17 18  2  0
 20 19  1  6
 20 21  1  0
 21 14  1  0
 22 20  1  0
 22 24  1  0
 23 22  2  0
M  END
$$$$
