PLN.pdb
     RDKit          3D

 24 24  0  0  1  0  0  0  0  0999 V2000
    7.1124  -14.8390   20.6834 N   0  0  0  0  0  0  0  0  0  0  0  0
    6.2165  -13.9099   20.0469 C   0  0  0  0  0  0  0  0  0  0  0  0
    7.0479  -12.7633   19.5326 C   0  0  0  0  0  0  0  0  0  0  0  0
    8.2836  -12.7864   20.4007 C   0  0  0  0  0  0  0  0  0  0  0  0
    8.3681  -14.2055   20.8998 C   0  0  1  0  0  0  0  0  0  0  0  0
    8.7706  -14.3033   22.3243 C   0  0  0  0  0  0  0  0  0  0  0  0
   10.0049  -14.2062   22.6217 O   0  0  0  0  0  0  0  0  0  0  0  0
    5.5250  -12.4905   26.4485 C   0  0  0  0  0  0  0  0  0  0  0  0
    6.7523  -12.8297   25.6466 C   0  0  1  0  0  0  0  0  0  0  0  0
    7.8934  -12.0165   26.2800 C   0  0  0  0  0  0  0  0  0  0  0  0
    7.1735  -14.2581   25.7015 C   0  0  0  0  0  0  0  0  0  0  0  0
    8.2499  -14.6804   24.7685 C   0  0  2  0  0  0  0  0  0  0  0  0
    7.8800  -14.4975   23.3863 N   0  0  0  0  0  0  0  0  0  0  0  0
    8.7331  -16.0321   25.0982 C   0  0  0  0  0  0  0  0  0  0  0  0
    7.9080  -16.9726   25.1079 O   0  0  0  0  0  0  0  0  0  0  0  0
   11.1078  -18.3529   23.1149 N   0  0  0  0  0  0  0  0  0  0  0  0
   12.1560  -17.9000   23.9641 C   0  0  0  0  0  0  0  0  0  0  0  0
   13.2260  -17.5340   23.4522 O   0  0  0  0  0  0  0  0  0  0  0  0
   12.0278  -17.8439   25.4517 C   0  0  0  0  0  0  0  0  0  0  0  0
   10.5727  -17.6270   25.8188 C   0  0  2  0  0  0  0  0  0  0  0  0
   10.1006  -16.3319   25.4115 N   0  0  0  0  0  0  0  0  0  0  0  0
   10.4935  -17.7125   27.3038 C   0  0  0  0  0  0  0  0  0  0  0  0
   10.1816  -16.7085   27.9999 O   0  0  0  0  0  0  0  0  0  0  0  0
   10.7550  -18.8864   27.9964 O   0  0  0  0  0  0  0  0  0  0  0  0
  2  1  1  0
  3  2  1  0
  4  3  1  0
  4  5  1  0
  5  6  1  1
  5  1  1  0
  6  7  2  0
  9  8  1  1
  9 10  1  0
 11  9  1  0
 12 11  1  1
 13 12  1  0
 13  6  1  0
 14 15  2  0
 14 12  1  0
 16 17  1  0
 17 19  1  0
 17 18  2  0
 20 19  1  1
 20 21  1  0
 21 14  1  0
 22 20  1  0
 22 24  1  0
 23 22  2  0
M  END
$$$$
