PLN.pdb
     RDKit          3D

 24 24  0  0  1  0  0  0  0  0999 V2000
    7.3289  -15.0124   21.0628 N   0  0  0  0  0  0  0  0  0  0  0  0
    6.4426  -14.2124   20.2594 C   0  0  0  0  0  0  0  0  0  0  0  0
    7.2814  -13.1715   19.5642 C   0  0  0  0  0  0  0  0  0  0  0  0
    8.5036  -13.0378   20.4416 C   0  0  0  0  0  0  0  0  0  0  0  0
    8.5809  -14.3469   21.1836 C   0  0  1  0  0  0  0  0  0  0  0  0
    8.9614  -14.1915   22.6090 C   0  0  0  0  0  0  0  0  0  0  0  0
   10.1637  -13.8837   22.8937 O   0  0  0  0  0  0  0  0  0  0  0  0
    5.3268  -12.4242   26.3657 C   0  0  0  0  0  0  0  0  0  0  0  0
    6.5703  -12.6998   25.5644 C   0  0  1  0  0  0  0  0  0  0  0  0
    7.5086  -11.5138   25.8429 C   0  0  0  0  0  0  0  0  0  0  0  0
    7.3186  -13.9283   25.9537 C   0  0  0  0  0  0  0  0  0  0  0  0
    8.4496  -14.3345   25.0799 C   0  0  2  0  0  0  0  0  0  0  0  0
    8.0825  -14.3604   23.6851 N   0  0  0  0  0  0  0  0  0  0  0  0
    9.0759  -15.5740   25.5703 C   0  0  0  0  0  0  0  0  0  0  0  0
    9.3805  -15.6474   26.7817 O   0  0  0  0  0  0  0  0  0  0  0  0
    9.7913  -21.3056   25.1691 N   0  0  0  0  0  0  0  0  0  0  0  0
   10.5910  -20.2395   24.6703 C   0  0  0  0  0  0  0  0  0  0  0  0
   11.8268  -20.3528   24.7000 O   0  0  0  0  0  0  0  0  0  0  0  0
   10.0092  -18.9829   24.1091 C   0  0  0  0  0  0  0  0  0  0  0  0
    9.9181  -17.9418   25.2078 C   0  0  2  0  0  0  0  0  0  0  0  0
    9.3588  -16.7052   24.7345 N   0  0  0  0  0  0  0  0  0  0  0  0
   11.3125  -17.6849   25.6643 C   0  0  0  0  0  0  0  0  0  0  0  0
   11.7963  -18.2915   26.6582 O   0  0  0  0  0  0  0  0  0  0  0  0
   12.1474  -16.7756   25.0300 O   0  0  0  0  0  0  0  0  0  0  0  0
  2  1  1  0
  3  2  1  0
  4  3  1  0
  4  5  1  0
  5  6  1  1
  5  1  1  0
  6  7  2  0
  9  8  1  1
  9 10  1  0
 11  9  1  0
 12 11  1  1
 13 12  1  0
 13  6  1  0
 14 15  2  0
 14 12  1  0
 16 17  1  0
 17 19  1  0
 17 18  2  0
 20 19  1  6
 20 21  1  0
 21 14  1  0
 22 20  1  0
 22 24  1  0
 23 22  2  0
M  END
$$$$
