PLN.pdb
     RDKit          3D

 24 24  0  0  1  0  0  0  0  0999 V2000
    7.1219  -15.0101   20.6847 N   0  0  0  0  0  0  0  0  0  0  0  0
    6.3829  -14.0169   19.9510 C   0  0  0  0  0  0  0  0  0  0  0  0
    7.3840  -13.0692   19.3426 C   0  0  0  0  0  0  0  0  0  0  0  0
    8.6015  -13.2030   20.2263 C   0  0  0  0  0  0  0  0  0  0  0  0
    8.4620  -14.5637   20.8581 C   0  0  1  0  0  0  0  0  0  0  0  0
    8.8455  -14.5872   22.2910 C   0  0  0  0  0  0  0  0  0  0  0  0
   10.0811  -14.5531   22.5966 O   0  0  0  0  0  0  0  0  0  0  0  0
    5.6554  -12.1739   26.1500 C   0  0  0  0  0  0  0  0  0  0  0  0
    6.8187  -12.6813   25.3415 C   0  0  1  0  0  0  0  0  0  0  0  0
    8.0172  -11.8126   25.7580 C   0  0  0  0  0  0  0  0  0  0  0  0
    7.2108  -14.0941   25.6083 C   0  0  0  0  0  0  0  0  0  0  0  0
    8.2802  -14.6704   24.7529 C   0  0  2  0  0  0  0  0  0  0  0  0
    7.9352  -14.6449   23.3526 N   0  0  0  0  0  0  0  0  0  0  0  0
    8.7032  -15.9890   25.2543 C   0  0  0  0  0  0  0  0  0  0  0  0
    7.8415  -16.8904   25.3571 O   0  0  0  0  0  0  0  0  0  0  0  0
   12.8035  -18.7546   23.5726 N   0  0  0  0  0  0  0  0  0  0  0  0
   12.1088  -18.9200   24.8033 C   0  0  0  0  0  0  0  0  0  0  0  0
   11.5999  -20.0227   25.0606 O   0  0  0  0  0  0  0  0  0  0  0  0
   11.9624  -17.8222   25.8062 C   0  0  0  0  0  0  0  0  0  0  0  0
   10.4892  -17.5925   26.0824 C   0  0  2  0  0  0  0  0  0  0  0  0
   10.0514  -16.2989   25.6343 N   0  0  0  0  0  0  0  0  0  0  0  0
   10.3198  -17.6621   27.5607 C   0  0  0  0  0  0  0  0  0  0  0  0
    9.9423  -16.6575   28.2226 O   0  0  0  0  0  0  0  0  0  0  0  0
   10.5647  -18.8211   28.2839 O   0  0  0  0  0  0  0  0  0  0  0  0
  2  1  1  0
  3  2  1  0
  4  3  1  0
  4  5  1  0
  5  6  1  1
  5  1  1  0
  6  7  2  0
  9  8  1  1
  9 10  1  0
 11  9  1  0
 12 11  1  1
 13 12  1  0
 13  6  1  0
 14 15  2  0
 14 12  1  0
 16 17  1  0
 17 19  1  0
 17 18  2  0
 20 19  1  1
 20 21  1  0
 21 14  1  0
 22 20  1  0
 22 24  1  0
 23 22  2  0
M  END
$$$$
