PLN.pdb
     RDKit          3D

 24 24  0  0  1  0  0  0  0  0999 V2000
    7.2309  -15.0272   20.4280 N   0  0  0  0  0  0  0  0  0  0  0  0
    6.4436  -14.2348   19.5207 C   0  0  0  0  0  0  0  0  0  0  0  0
    7.3762  -13.2615   18.8473 C   0  0  0  0  0  0  0  0  0  0  0  0
    8.5310  -13.1311   19.8120 C   0  0  0  0  0  0  0  0  0  0  0  0
    8.4962  -14.4041   20.6172 C   0  0  1  0  0  0  0  0  0  0  0  0
    8.7710  -14.1934   22.0597 C   0  0  0  0  0  0  0  0  0  0  0  0
    9.9704  -13.9841   22.4322 O   0  0  0  0  0  0  0  0  0  0  0  0
    7.7504  -11.7250   26.5807 C   0  0  0  0  0  0  0  0  0  0  0  0
    7.0085  -13.0340   26.5626 C   0  0  1  0  0  0  0  0  0  0  0  0
    5.6040  -12.7165   27.1022 C   0  0  0  0  0  0  0  0  0  0  0  0
    6.8142  -13.6366   25.2136 C   0  0  0  0  0  0  0  0  0  0  0  0
    8.0371  -14.0421   24.4734 C   0  0  2  0  0  0  0  0  0  0  0  0
    7.7935  -14.2071   23.0613 N   0  0  0  0  0  0  0  0  0  0  0  0
    8.6870  -15.1946   25.1203 C   0  0  0  0  0  0  0  0  0  0  0  0
    8.9414  -15.1244   26.3435 O   0  0  0  0  0  0  0  0  0  0  0  0
    9.8579  -20.8428   25.5565 N   0  0  0  0  0  0  0  0  0  0  0  0
   10.4758  -19.8362   24.7630 C   0  0  0  0  0  0  0  0  0  0  0  0
   11.7065  -19.8700   24.6041 O   0  0  0  0  0  0  0  0  0  0  0  0
    9.7081  -18.7342   24.1083 C   0  0  0  0  0  0  0  0  0  0  0  0
    9.6358  -17.5487   25.0510 C   0  0  2  0  0  0  0  0  0  0  0  0
    9.0476  -16.3964   24.4248 N   0  0  0  0  0  0  0  0  0  0  0  0
   11.0396  -17.2182   25.4237 C   0  0  0  0  0  0  0  0  0  0  0  0
   11.7238  -16.4099   24.7393 O   0  0  0  0  0  0  0  0  0  0  0  0
   11.6660  -17.7736   26.5306 O   0  0  0  0  0  0  0  0  0  0  0  0
  2  1  1  0
  3  2  1  0
  4  3  1  0
  4  5  1  0
  5  6  1  1
  5  1  1  0
  6  7  2  0
  9  8  1  6
  9 10  1  0
 11  9  1  0
 12 11  1  1
 13 12  1  0
 13  6  1  0
 14 15  2  0
 14 12  1  0
 16 17  1  0
 17 19  1  0
 17 18  2  0
 20 19  1  6
 20 21  1  0
 21 14  1  0
 22 20  1  0
 22 24  1  0
 23 22  2  0
M  END
$$$$
