PLN.pdb
     RDKit          3D

 24 24  0  0  1  0  0  0  0  0999 V2000
    7.2839  -14.9820   20.3862 N   0  0  0  0  0  0  0  0  0  0  0  0
    6.5116  -14.1608   19.4918 C   0  0  0  0  0  0  0  0  0  0  0  0
    7.4533  -13.1610   18.8720 C   0  0  0  0  0  0  0  0  0  0  0  0
    8.5881  -13.0607   19.8638 C   0  0  0  0  0  0  0  0  0  0  0  0
    8.5425  -14.3615   20.6227 C   0  0  1  0  0  0  0  0  0  0  0  0
    8.7875  -14.2010   22.0770 C   0  0  0  0  0  0  0  0  0  0  0  0
    9.9872  -14.0903   22.4891 O   0  0  0  0  0  0  0  0  0  0  0  0
    7.7356  -11.6697   26.5383 C   0  0  0  0  0  0  0  0  0  0  0  0
    6.9390  -12.9461   26.5191 C   0  0  1  0  0  0  0  0  0  0  0  0
    5.5332  -12.5593   27.0079 C   0  0  0  0  0  0  0  0  0  0  0  0
    6.7612  -13.5649   25.1751 C   0  0  0  0  0  0  0  0  0  0  0  0
    7.9909  -14.0060   24.4675 C   0  0  2  0  0  0  0  0  0  0  0  0
    7.7812  -14.1608   23.0489 N   0  0  0  0  0  0  0  0  0  0  0  0
    8.5876  -15.1790   25.1288 C   0  0  0  0  0  0  0  0  0  0  0  0
    8.7736  -15.1339   26.3654 O   0  0  0  0  0  0  0  0  0  0  0  0
   10.7371  -19.7798   26.1689 N   0  0  0  0  0  0  0  0  0  0  0  0
   10.2881  -19.8558   24.8209 C   0  0  0  0  0  0  0  0  0  0  0  0
   10.4274  -20.9229   24.2021 O   0  0  0  0  0  0  0  0  0  0  0  0
    9.6529  -18.7045   24.1113 C   0  0  0  0  0  0  0  0  0  0  0  0
    9.5430  -17.5306   25.0649 C   0  0  2  0  0  0  0  0  0  0  0  0
    8.9704  -16.3736   24.4328 N   0  0  0  0  0  0  0  0  0  0  0  0
   10.9318  -17.1980   25.4886 C   0  0  0  0  0  0  0  0  0  0  0  0
   11.6225  -16.3534   24.8568 O   0  0  0  0  0  0  0  0  0  0  0  0
   11.5363  -17.7911   26.5881 O   0  0  0  0  0  0  0  0  0  0  0  0
  2  1  1  0
  3  2  1  0
  4  3  1  0
  4  5  1  0
  5  6  1  1
  5  1  1  0
  6  7  2  0
  9  8  1  6
  9 10  1  0
 11  9  1  0
 12 11  1  1
 13 12  1  0
 13  6  1  0
 14 15  2  0
 14 12  1  0
 16 17  1  0
 17 19  1  0
 17 18  2  0
 20 19  1  6
 20 21  1  0
 21 14  1  0
 22 20  1  0
 22 24  1  0
 23 22  2  0
M  END
$$$$
