PLN.pdb
     RDKit          3D

 24 24  0  0  1  0  0  0  0  0999 V2000
    7.1789  -15.3458   21.6427 N   0  0  0  0  0  0  0  0  0  0  0  0
    6.2983  -14.5115   20.8686 C   0  0  0  0  0  0  0  0  0  0  0  0
    7.1518  -13.7274   19.9057 C   0  0  0  0  0  0  0  0  0  0  0  0
    8.5129  -13.6988   20.5598 C   0  0  0  0  0  0  0  0  0  0  0  0
    8.5188  -14.8978   21.4723 C   0  0  1  0  0  0  0  0  0  0  0  0
    9.1583  -14.6331   22.7844 C   0  0  0  0  0  0  0  0  0  0  0  0
   10.4272  -14.5443   22.8424 O   0  0  0  0  0  0  0  0  0  0  0  0
    5.7601  -12.7637   26.5781 C   0  0  0  0  0  0  0  0  0  0  0  0
    6.8703  -12.9611   25.5816 C   0  0  1  0  0  0  0  0  0  0  0  0
    7.1249  -11.5727   24.9715 C   0  0  0  0  0  0  0  0  0  0  0  0
    8.1689  -13.4120   26.1570 C   0  0  0  0  0  0  0  0  0  0  0  0
    9.0556  -14.2136   25.2746 C   0  0  2  0  0  0  0  0  0  0  0  0
    8.4598  -14.4702   23.9862 N   0  0  0  0  0  0  0  0  0  0  0  0
    9.5463  -15.4149   25.9712 C   0  0  0  0  0  0  0  0  0  0  0  0
    9.8270  -15.3240   27.1872 O   0  0  0  0  0  0  0  0  0  0  0  0
   10.2443  -20.2108   27.9926 N   0  0  0  0  0  0  0  0  0  0  0  0
    9.9683  -20.2019   26.5967 C   0  0  0  0  0  0  0  0  0  0  0  0
   10.2612  -21.2016   25.9216 O   0  0  0  0  0  0  0  0  0  0  0  0
    9.3387  -19.0387   25.9016 C   0  0  0  0  0  0  0  0  0  0  0  0
   10.2740  -17.8474   25.9766 C   0  0  2  0  0  0  0  0  0  0  0  0
    9.7227  -16.6870   25.3320 N   0  0  0  0  0  0  0  0  0  0  0  0
   11.5181  -18.2401   25.2578 C   0  0  0  0  0  0  0  0  0  0  0  0
   12.5585  -18.5734   25.8875 O   0  0  0  0  0  0  0  0  0  0  0  0
   11.6019  -18.2613   23.8727 O   0  0  0  0  0  0  0  0  0  0  0  0
  2  1  1  0
  3  2  1  0
  4  3  1  0
  4  5  1  0
  5  6  1  1
  5  1  1  0
  6  7  2  0
  9  8  1  1
  9 10  1  0
 11  9  1  0
 12 11  1  1
 13 12  1  0
 13  6  1  0
 14 15  2  0
 14 12  1  0
 16 17  1  0
 17 19  1  0
 17 18  2  0
 20 19  1  6
 20 21  1  0
 21 14  1  0
 22 20  1  0
 22 24  1  0
 23 22  2  0
M  END
$$$$
