PLN.pdb
     RDKit          3D

 24 24  0  0  1  0  0  0  0  0999 V2000
    7.2593  -14.9724   20.5555 N   0  0  0  0  0  0  0  0  0  0  0  0
    6.5581  -14.1651   19.5925 C   0  0  0  0  0  0  0  0  0  0  0  0
    7.5731  -13.2675   18.9332 C   0  0  0  0  0  0  0  0  0  0  0  0
    8.6919  -13.1730   19.9435 C   0  0  0  0  0  0  0  0  0  0  0  0
    8.5495  -14.4166   20.7822 C   0  0  1  0  0  0  0  0  0  0  0  0
    8.7751  -14.1773   22.2288 C   0  0  0  0  0  0  0  0  0  0  0  0
    9.9626  -13.9711   22.6393 O   0  0  0  0  0  0  0  0  0  0  0  0
    7.8900  -11.6455   26.8458 C   0  0  0  0  0  0  0  0  0  0  0  0
    6.9667  -12.8179   26.6524 C   0  0  1  0  0  0  0  0  0  0  0  0
    5.5848  -12.3328   27.1210 C   0  0  0  0  0  0  0  0  0  0  0  0
    6.7979  -13.2689   25.2421 C   0  0  0  0  0  0  0  0  0  0  0  0
    7.9559  -13.9514   24.6090 C   0  0  2  0  0  0  0  0  0  0  0  0
    7.7626  -14.1605   23.1949 N   0  0  0  0  0  0  0  0  0  0  0  0
    8.3299  -15.1616   25.3604 C   0  0  0  0  0  0  0  0  0  0  0  0
    8.6086  -15.0452   26.5746 O   0  0  0  0  0  0  0  0  0  0  0  0
    6.2244  -18.3751   23.0979 N   0  0  0  0  0  0  0  0  0  0  0  0
    6.6034  -18.5202   24.4617 C   0  0  0  0  0  0  0  0  0  0  0  0
    5.7490  -18.3377   25.3436 O   0  0  0  0  0  0  0  0  0  0  0  0
    7.9895  -18.8842   24.8843 C   0  0  0  0  0  0  0  0  0  0  0  0
    8.6513  -17.6754   25.5169 C   0  0  2  0  0  0  0  0  0  0  0  0
    8.3946  -16.4704   24.7765 N   0  0  0  0  0  0  0  0  0  0  0  0
   10.1175  -17.9373   25.4982 C   0  0  0  0  0  0  0  0  0  0  0  0
   10.8928  -17.2585   24.7716 O   0  0  0  0  0  0  0  0  0  0  0  0
   10.7059  -18.9302   26.2691 O   0  0  0  0  0  0  0  0  0  0  0  0
  2  1  1  0
  3  2  1  0
  4  3  1  0
  4  5  1  0
  5  6  1  1
  5  1  1  0
  6  7  2  0
  9  8  1  6
  9 10  1  0
 11  9  1  0
 12 11  1  1
 13 12  1  0
 13  6  1  0
 14 15  2  0
 14 12  1  0
 16 17  1  0
 17 19  1  0
 17 18  2  0
 20 19  1  6
 20 21  1  0
 21 14  1  0
 22 20  1  0
 22 24  1  0
 23 22  2  0
M  END
$$$$
