PLN.pdb
     RDKit          3D

 24 24  0  0  1  0  0  0  0  0999 V2000
    7.2142  -14.8046   20.7246 N   0  0  0  0  0  0  0  0  0  0  0  0
    6.4834  -13.8079   19.9874 C   0  0  0  0  0  0  0  0  0  0  0  0
    7.4885  -12.8344   19.4284 C   0  0  0  0  0  0  0  0  0  0  0  0
    8.6802  -12.9682   20.3467 C   0  0  0  0  0  0  0  0  0  0  0  0
    8.5415  -14.3428   20.9477 C   0  0  1  0  0  0  0  0  0  0  0  0
    8.8813  -14.3888   22.3911 C   0  0  0  0  0  0  0  0  0  0  0  0
   10.1074  -14.3725   22.7341 O   0  0  0  0  0  0  0  0  0  0  0  0
    5.6613  -12.1010   26.2387 C   0  0  0  0  0  0  0  0  0  0  0  0
    6.8786  -12.5971   25.5063 C   0  0  1  0  0  0  0  0  0  0  0  0
    8.0605  -11.8089   26.0950 C   0  0  0  0  0  0  0  0  0  0  0  0
    7.1956  -14.0398   25.7035 C   0  0  0  0  0  0  0  0  0  0  0  0
    8.2386  -14.6276   24.8236 C   0  0  2  0  0  0  0  0  0  0  0  0
    7.9388  -14.4496   23.4239 N   0  0  0  0  0  0  0  0  0  0  0  0
    8.5356  -16.0166   25.2133 C   0  0  0  0  0  0  0  0  0  0  0  0
    7.6048  -16.8525   25.1906 O   0  0  0  0  0  0  0  0  0  0  0  0
   11.3846  -20.5667   24.1617 N   0  0  0  0  0  0  0  0  0  0  0  0
   11.9106  -19.5082   24.9539 C   0  0  0  0  0  0  0  0  0  0  0  0
   12.7659  -19.7717   25.8142 O   0  0  0  0  0  0  0  0  0  0  0  0
   11.4792  -18.0863   24.7977 C   0  0  0  0  0  0  0  0  0  0  0  0
   10.2448  -17.8441   25.6444 C   0  0  2  0  0  0  0  0  0  0  0  0
    9.8356  -16.4664   25.6203 N   0  0  0  0  0  0  0  0  0  0  0  0
   10.6134  -18.2024   27.0424 C   0  0  0  0  0  0  0  0  0  0  0  0
   10.9111  -19.3869   27.3559 O   0  0  0  0  0  0  0  0  0  0  0  0
   10.6495  -17.2656   28.0657 O   0  0  0  0  0  0  0  0  0  0  0  0
  2  1  1  0
  3  2  1  0
  4  3  1  0
  4  5  1  0
  5  6  1  1
  5  1  1  0
  6  7  2  0
  9  8  1  1
  9 10  1  0
 11  9  1  0
 12 11  1  1
 13 12  1  0
 13  6  1  0
 14 15  2  0
 14 12  1  0
 16 17  1  0
 17 19  1  0
 17 18  2  0
 20 19  1  6
 20 21  1  0
 21 14  1  0
 22 20  1  0
 22 24  1  0
 23 22  2  0
M  END
$$$$
