CYV.pdb
     RDKit          3D

 26 26  0  0  1  0  0  0  0  0999 V2000
    7.2117  -16.7689   18.7288 N   0  0  0  0  0  0  0  0  0  0  0  0
    7.8172  -15.8195   19.6069 C   0  0  1  0  0  0  0  0  0  0  0  0
    7.4908  -14.4211   19.0974 C   0  0  0  0  0  0  0  0  0  0  0  0
    8.1753  -13.1648   20.2061 S   0  0  0  0  0  0  0  0  0  0  0  0
    7.3705  -15.9387   21.0066 C   0  0  0  0  0  0  0  0  0  0  0  0
    6.1432  -16.1721   21.2308 O   0  0  0  0  0  0  0  0  0  0  0  0
    7.9015  -19.5543   29.0550 O   0  0  0  0  0  0  0  0  0  0  0  0
    8.0040  -19.0644   27.7582 C   0  0  0  0  0  0  0  0  0  0  0  0
    9.2206  -18.6574   27.2418 C   0  0  0  0  0  0  0  0  0  0  0  0
    9.3231  -18.1730   25.9597 C   0  0  0  0  0  0  0  0  0  0  0  0
    8.2139  -18.0642   25.1098 C   0  0  0  0  0  0  0  0  0  0  0  0
    8.3531  -17.5084   23.7566 C   0  0  0  0  0  0  0  0  0  0  0  0
    7.7779  -16.1742   23.4923 C   0  0  2  0  0  0  0  0  0  0  0  0
    8.2247  -15.8088   22.1154 N   0  0  0  0  0  0  0  0  0  0  0  0
    8.1875  -15.1235   24.4303 C   0  0  0  0  0  0  0  0  0  0  0  0
    9.4224  -14.7665   24.3719 O   0  0  0  0  0  0  0  0  0  0  0  0
    7.0121  -18.4740   25.6410 C   0  0  0  0  0  0  0  0  0  0  0  0
    6.9047  -18.9604   26.9264 C   0  0  0  0  0  0  0  0  0  0  0  0
    5.6314  -12.8016   26.9921 C   0  0  0  0  0  0  0  0  0  0  0  0
    6.9515  -12.3182   26.4774 C   0  0  2  0  0  0  0  0  0  0  0  0
    6.6938  -11.5417   25.2068 C   0  0  0  0  0  0  0  0  0  0  0  0
    7.9220  -13.4443   26.1922 C   0  0  2  0  0  0  0  0  0  0  0  0
    7.3506  -14.4714   25.3772 N   0  0  0  0  0  0  0  0  0  0  0  0
    8.3690  -14.0022   27.4842 C   0  0  0  0  0  0  0  0  0  0  0  0
    8.0795  -15.1393   27.8847 O   0  0  0  0  0  0  0  0  0  0  0  0
    9.1770  -13.2408   28.3580 O   0  0  0  0  0  0  0  0  0  0  0  0
  2  3  1  0
  2  1  1  6
  4  3  1  0
  5  6  2  0
  5  2  1  0
  7  8  1  0
  8 18  2  0
  9 10  2  0
  9  8  1  0
 10 11  1  0
 11 17  2  0
 11 12  1  0
 13 12  1  1
 13 14  1  0
 14  5  1  0
 15 13  1  0
 15 16  2  0
 18 17  1  0
 20 19  1  6
 20 21  1  0
 22 23  1  6
 22 20  1  0
 23 15  1  0
 24 22  1  0
 25 24  2  0
 26 24  1  0
M  END
$$$$
