CYV.pdb
     RDKit          3D

 26 26  0  0  1  0  0  0  0  0999 V2000
    1.3817  -29.1627   28.6833 N   0  0  0  0  0  0  0  0  0  0  0  0
    0.9938  -27.7966   28.8324 C   0  0  1  0  0  0  0  0  0  0  0  0
    2.1085  -26.9196   28.2755 C   0  0  0  0  0  0  0  0  0  0  0  0
    3.4521  -26.7598   29.4776 S   0  0  0  0  0  0  0  0  0  0  0  0
   -0.2691  -27.4618   28.1498 C   0  0  0  0  0  0  0  0  0  0  0  0
   -0.6096  -28.1495   27.1388 O   0  0  0  0  0  0  0  0  0  0  0  0
   -5.0412  -28.8879   33.0998 O   0  0  0  0  0  0  0  0  0  0  0  0
   -4.6043  -28.5152   31.8340 C   0  0  0  0  0  0  0  0  0  0  0  0
   -3.6187  -29.2303   31.1786 C   0  0  0  0  0  0  0  0  0  0  0  0
   -3.1860  -28.8628   29.9269 C   0  0  0  0  0  0  0  0  0  0  0  0
   -3.7119  -27.7547   29.2487 C   0  0  0  0  0  0  0  0  0  0  0  0
   -3.2011  -27.3686   27.9260 C   0  0  0  0  0  0  0  0  0  0  0  0
   -2.3977  -26.1336   27.8262 C   0  0  2  0  0  0  0  0  0  0  0  0
   -1.1250  -26.4215   28.5515 N   0  0  0  0  0  0  0  0  0  0  0  0
   -3.0230  -24.9370   28.3997 C   0  0  0  0  0  0  0  0  0  0  0  0
   -2.7578  -24.7006   29.6364 O   0  0  0  0  0  0  0  0  0  0  0  0
   -4.6915  -27.0556   29.9165 C   0  0  0  0  0  0  0  0  0  0  0  0
   -5.1284  -27.4206   31.1720 C   0  0  0  0  0  0  0  0  0  0  0  0
   -4.5242  -21.6084   26.2516 C   0  0  0  0  0  0  0  0  0  0  0  0
   -4.0306  -21.5819   27.6648 C   0  0  2  0  0  0  0  0  0  0  0  0
   -2.5376  -21.3508   27.6266 C   0  0  0  0  0  0  0  0  0  0  0  0
   -4.3236  -22.8627   28.4163 C   0  0  2  0  0  0  0  0  0  0  0  0
   -3.8764  -24.0272   27.7167 N   0  0  0  0  0  0  0  0  0  0  0  0
   -5.7795  -22.9324   28.6527 C   0  0  0  0  0  0  0  0  0  0  0  0
   -6.5275  -23.7685   28.1247 O   0  0  0  0  0  0  0  0  0  0  0  0
   -6.4139  -22.0176   29.5228 O   0  0  0  0  0  0  0  0  0  0  0  0
  2  3  1  0
  2  1  1  6
  4  3  1  0
  5  6  2  0
  5  2  1  0
  7  8  1  0
  8 18  2  0
  9 10  2  0
  9  8  1  0
 10 11  1  0
 11 17  2  0
 11 12  1  0
 13 12  1  1
 13 14  1  0
 14  5  1  0
 15 13  1  0
 15 16  2  0
 18 17  1  0
 20 19  1  6
 20 21  1  0
 22 23  1  6
 22 20  1  0
 23 15  1  0
 24 22  1  0
 25 24  2  0
 26 24  1  0
M  END
$$$$
