CYV.pdb
     RDKit          3D

 26 26  0  0  1  0  0  0  0  0999 V2000
    7.4118  -17.7926   19.9843 N   0  0  0  0  0  0  0  0  0  0  0  0
    8.1735  -16.7120   20.5238 C   0  0  1  0  0  0  0  0  0  0  0  0
    7.6680  -15.4148   19.9044 C   0  0  0  0  0  0  0  0  0  0  0  0
    8.1916  -15.2894   18.1763 S   0  0  0  0  0  0  0  0  0  0  0  0
    8.0951  -16.6073   21.9920 C   0  0  0  0  0  0  0  0  0  0  0  0
    6.9818  -16.8399   22.5553 O   0  0  0  0  0  0  0  0  0  0  0  0
   11.1164  -17.0361   30.4531 O   0  0  0  0  0  0  0  0  0  0  0  0
   10.9095  -16.9854   29.0796 C   0  0  0  0  0  0  0  0  0  0  0  0
   10.0694  -17.8852   28.4494 C   0  0  0  0  0  0  0  0  0  0  0  0
    9.8640  -17.8360   27.0914 C   0  0  0  0  0  0  0  0  0  0  0  0
   10.4865  -16.8822   26.2744 C   0  0  0  0  0  0  0  0  0  0  0  0
   10.2724  -16.8803   24.8206 C   0  0  0  0  0  0  0  0  0  0  0  0
    9.0582  -16.2210   24.2993 C   0  0  2  0  0  0  0  0  0  0  0  0
    9.1838  -16.2636   22.8122 N   0  0  0  0  0  0  0  0  0  0  0  0
    8.8710  -14.8315   24.7308 C   0  0  0  0  0  0  0  0  0  0  0  0
    9.6977  -13.9743   24.2436 O   0  0  0  0  0  0  0  0  0  0  0  0
   11.3186  -15.9955   26.9191 C   0  0  0  0  0  0  0  0  0  0  0  0
   11.5275  -16.0413   28.2810 C   0  0  0  0  0  0  0  0  0  0  0  0
    5.5241  -12.9704   26.7879 C   0  0  0  0  0  0  0  0  0  0  0  0
    6.5662  -12.3059   25.9430 C   0  0  2  0  0  0  0  0  0  0  0  0
    6.0798  -12.3251   24.5123 C   0  0  0  0  0  0  0  0  0  0  0  0
    7.9155  -12.9867   26.0262 C   0  0  2  0  0  0  0  0  0  0  0  0
    7.8677  -14.3572   25.6199 N   0  0  0  0  0  0  0  0  0  0  0  0
    8.3979  -12.8794   27.4176 C   0  0  0  0  0  0  0  0  0  0  0  0
    8.5646  -13.8511   28.1695 O   0  0  0  0  0  0  0  0  0  0  0  0
    8.7039  -11.6200   27.9802 O   0  0  0  0  0  0  0  0  0  0  0  0
  2  3  1  0
  2  1  1  6
  4  3  1  0
  5  6  2  0
  5  2  1  0
  7  8  1  0
  8 18  2  0
  9 10  2  0
  9  8  1  0
 10 11  1  0
 11 17  2  0
 11 12  1  0
 13 12  1  1
 13 14  1  0
 14  5  1  0
 15 13  1  0
 15 16  2  0
 18 17  1  0
 20 19  1  1
 20 21  1  0
 22 23  1  1
 22 20  1  0
 23 15  1  0
 24 22  1  0
 25 24  2  0
 26 24  1  0
M  END
$$$$
