CYV.pdb
     RDKit          3D

 26 26  0  0  1  0  0  0  0  0999 V2000
    5.5074  -20.9574   18.0381 N   0  0  0  0  0  0  0  0  0  0  0  0
    5.6902  -19.8223   18.8850 C   0  0  1  0  0  0  0  0  0  0  0  0
    5.2967  -20.2158   20.3035 C   0  0  0  0  0  0  0  0  0  0  0  0
    3.5023  -20.4129   20.4337 S   0  0  0  0  0  0  0  0  0  0  0  0
    7.0710  -19.3064   18.8937 C   0  0  0  0  0  0  0  0  0  0  0  0
    8.0258  -20.1348   18.7786 O   0  0  0  0  0  0  0  0  0  0  0  0
   13.7542  -13.2781   18.4843 O   0  0  0  0  0  0  0  0  0  0  0  0
   12.5519  -13.9754   18.4753 C   0  0  0  0  0  0  0  0  0  0  0  0
   11.4540  -13.5168   19.1802 C   0  0  0  0  0  0  0  0  0  0  0  0
   10.2647  -14.2054   19.1720 C   0  0  0  0  0  0  0  0  0  0  0  0
   10.0960  -15.3991   18.4571 C   0  0  0  0  0  0  0  0  0  0  0  0
    8.8211  -16.1288   18.4988 C   0  0  0  0  0  0  0  0  0  0  0  0
    8.8173  -17.4856   19.0818 C   0  0  2  0  0  0  0  0  0  0  0  0
    7.3981  -17.9453   19.0224 N   0  0  0  0  0  0  0  0  0  0  0  0
    9.2969  -17.5692   20.4655 C   0  0  0  0  0  0  0  0  0  0  0  0
    8.4951  -17.1232   21.3675 O   0  0  0  0  0  0  0  0  0  0  0  0
   11.1991  -15.8398   17.7618 C   0  0  0  0  0  0  0  0  0  0  0  0
   12.3940  -15.1523   17.7674 C   0  0  0  0  0  0  0  0  0  0  0  0
   12.6091  -19.8936   21.8766 C   0  0  0  0  0  0  0  0  0  0  0  0
   11.3904  -19.5494   22.6752 C   0  0  2  0  0  0  0  0  0  0  0  0
   10.3688  -20.6398   22.4490 C   0  0  0  0  0  0  0  0  0  0  0  0
   10.7933  -18.2118   22.2937 C   0  0  2  0  0  0  0  0  0  0  0  0
   10.5470  -18.0982   20.8894 N   0  0  0  0  0  0  0  0  0  0  0  0
   11.7196  -17.1524   22.7406 C   0  0  0  0  0  0  0  0  0  0  0  0
   12.3636  -16.4253   21.9700 O   0  0  0  0  0  0  0  0  0  0  0  0
   11.9246  -16.9064   24.1168 O   0  0  0  0  0  0  0  0  0  0  0  0
  2  3  1  0
  2  1  1  6
  4  3  1  0
  5  6  2  0
  5  2  1  0
  7  8  1  0
  8 18  2  0
  9 10  2  0
  9  8  1  0
 10 11  1  0
 11 17  2  0
 11 12  1  0
 13 12  1  1
 13 14  1  0
 14  5  1  0
 15 13  1  0
 15 16  2  0
 18 17  1  0
 20 19  1  6
 20 21  1  0
 22 23  1  6
 22 20  1  0
 23 15  1  0
 24 22  1  0
 25 24  2  0
 26 24  1  0
M  END
$$$$
