CYV.pdb
     RDKit          3D

 26 26  0  0  1  0  0  0  0  0999 V2000
    6.7828  -17.0003   18.7769 N   0  0  0  0  0  0  0  0  0  0  0  0
    7.5599  -16.1589   19.6298 C   0  0  1  0  0  0  0  0  0  0  0  0
    7.3517  -14.7137   19.1940 C   0  0  0  0  0  0  0  0  0  0  0  0
    8.2118  -13.5819   20.3144 S   0  0  0  0  0  0  0  0  0  0  0  0
    7.2175  -16.2854   21.0579 C   0  0  0  0  0  0  0  0  0  0  0  0
    5.9915  -16.3312   21.3831 O   0  0  0  0  0  0  0  0  0  0  0  0
    7.8717  -19.5432   29.3265 O   0  0  0  0  0  0  0  0  0  0  0  0
    8.0225  -19.1150   28.0127 C   0  0  0  0  0  0  0  0  0  0  0  0
    6.9244  -18.9068   27.1982 C   0  0  0  0  0  0  0  0  0  0  0  0
    7.0723  -18.4833   25.8991 C   0  0  0  0  0  0  0  0  0  0  0  0
    8.3298  -18.2402   25.3296 C   0  0  0  0  0  0  0  0  0  0  0  0
    8.4534  -17.8224   23.9262 C   0  0  0  0  0  0  0  0  0  0  0  0
    7.7689  -16.5821   23.5090 C   0  0  2  0  0  0  0  0  0  0  0  0
    8.1707  -16.3589   22.0885 N   0  0  0  0  0  0  0  0  0  0  0  0
    8.1012  -15.3923   24.2999 C   0  0  0  0  0  0  0  0  0  0  0  0
    9.2496  -14.8620   24.0643 O   0  0  0  0  0  0  0  0  0  0  0  0
    9.4103  -18.4528   26.1552 C   0  0  0  0  0  0  0  0  0  0  0  0
    9.2666  -18.8776   27.4588 C   0  0  0  0  0  0  0  0  0  0  0  0
    5.7869  -12.1674   25.4050 C   0  0  0  0  0  0  0  0  0  0  0  0
    6.6533  -12.7375   26.4848 C   0  0  2  0  0  0  0  0  0  0  0  0
    7.2498  -11.5818   27.2545 C   0  0  0  0  0  0  0  0  0  0  0  0
    7.7651  -13.6136   25.9485 C   0  0  2  0  0  0  0  0  0  0  0  0
    7.2749  -14.7805   25.2824 N   0  0  0  0  0  0  0  0  0  0  0  0
    8.6345  -13.9943   27.0796 C   0  0  0  0  0  0  0  0  0  0  0  0
    8.4406  -14.9853   27.7990 O   0  0  0  0  0  0  0  0  0  0  0  0
    9.7700  -13.2208   27.4091 O   0  0  0  0  0  0  0  0  0  0  0  0
  2  3  1  0
  2  1  1  6
  4  3  1  0
  5  6  2  0
  5  2  1  0
  7  8  1  0
  8 18  2  0
  9 10  2  0
  9  8  1  0
 10 11  1  0
 11 17  2  0
 11 12  1  0
 13 12  1  1
 13 14  1  0
 14  5  1  0
 15 13  1  0
 15 16  2  0
 18 17  1  0
 20 19  1  6
 20 21  1  0
 22 23  1  1
 22 20  1  0
 23 15  1  0
 24 22  1  0
 25 24  2  0
 26 24  1  0
M  END
$$$$
