CYV.pdb
     RDKit          3D

 26 26  0  0  1  0  0  0  0  0999 V2000
    6.8825  -16.3793   19.0768 N   0  0  0  0  0  0  0  0  0  0  0  0
    7.6559  -15.6139   20.0016 C   0  0  1  0  0  0  0  0  0  0  0  0
    7.3613  -14.1378   19.7643 C   0  0  0  0  0  0  0  0  0  0  0  0
    8.1403  -13.5727   18.2314 S   0  0  0  0  0  0  0  0  0  0  0  0
    7.3828  -15.9387   21.4131 C   0  0  0  0  0  0  0  0  0  0  0  0
    6.1749  -16.0739   21.7788 O   0  0  0  0  0  0  0  0  0  0  0  0
    8.6666  -19.1156   29.6824 O   0  0  0  0  0  0  0  0  0  0  0  0
    8.6885  -18.7508   28.3413 C   0  0  0  0  0  0  0  0  0  0  0  0
    9.8392  -18.2589   27.7528 C   0  0  0  0  0  0  0  0  0  0  0  0
    9.8620  -17.8980   26.4269 C   0  0  0  0  0  0  0  0  0  0  0  0
    8.7337  -18.0059   25.6024 C   0  0  0  0  0  0  0  0  0  0  0  0
    8.7831  -17.5774   24.1976 C   0  0  0  0  0  0  0  0  0  0  0  0
    8.0454  -16.3555   23.8188 C   0  0  2  0  0  0  0  0  0  0  0  0
    8.3834  -16.1091   22.3857 N   0  0  0  0  0  0  0  0  0  0  0  0
    8.3725  -15.1622   24.6067 C   0  0  0  0  0  0  0  0  0  0  0  0
    9.5262  -14.6383   24.3828 O   0  0  0  0  0  0  0  0  0  0  0  0
    7.5982  -18.4972   26.2054 C   0  0  0  0  0  0  0  0  0  0  0  0
    7.5709  -18.8604   27.5350 C   0  0  0  0  0  0  0  0  0  0  0  0
    5.7158  -12.8170   27.0824 C   0  0  0  0  0  0  0  0  0  0  0  0
    6.9305  -12.3044   26.3730 C   0  0  2  0  0  0  0  0  0  0  0  0
    6.4970  -11.8215   25.0082 C   0  0  0  0  0  0  0  0  0  0  0  0
    8.0099  -13.3541   26.2172 C   0  0  2  0  0  0  0  0  0  0  0  0
    7.5363  -14.5409   25.5746 N   0  0  0  0  0  0  0  0  0  0  0  0
    8.5374  -13.6716   27.5593 C   0  0  0  0  0  0  0  0  0  0  0  0
    9.0847  -12.8433   28.3020 O   0  0  0  0  0  0  0  0  0  0  0  0
    8.4407  -14.9810   28.0814 O   0  0  0  0  0  0  0  0  0  0  0  0
  2  3  1  0
  2  1  1  6
  4  3  1  0
  5  6  2  0
  5  2  1  0
  7  8  1  0
  8 18  2  0
  9 10  2  0
  9  8  1  0
 10 11  1  0
 11 17  2  0
 11 12  1  0
 13 12  1  1
 13 14  1  0
 14  5  1  0
 15 13  1  0
 15 16  2  0
 18 17  1  0
 20 19  1  6
 20 21  1  0
 22 23  1  1
 22 20  1  0
 23 15  1  0
 24 22  1  0
 25 24  2  0
 26 24  1  0
M  END
$$$$
