CYV.pdb
     RDKit          3D

 26 26  0  0  1  0  0  0  0  0999 V2000
   11.9514  -16.8327   19.8805 N   0  0  0  0  0  0  0  0  0  0  0  0
   10.9225  -17.3294   20.7371 C   0  0  1  0  0  0  0  0  0  0  0  0
   11.3532  -18.6944   21.2597 C   0  0  0  0  0  0  0  0  0  0  0  0
   11.5203  -19.8732   19.8964 S   0  0  0  0  0  0  0  0  0  0  0  0
   10.6266  -16.4473   21.8803 C   0  0  0  0  0  0  0  0  0  0  0  0
   11.4922  -15.5814   22.2146 O   0  0  0  0  0  0  0  0  0  0  0  0
    5.5611  -11.3728   27.2137 O   0  0  0  0  0  0  0  0  0  0  0  0
    6.0783  -12.3146   26.3319 C   0  0  0  0  0  0  0  0  0  0  0  0
    5.9142  -13.6694   26.5557 C   0  0  0  0  0  0  0  0  0  0  0  0
    6.4251  -14.6015   25.6845 C   0  0  0  0  0  0  0  0  0  0  0  0
    7.1343  -14.2385   24.5313 C   0  0  0  0  0  0  0  0  0  0  0  0
    7.6978  -15.2618   23.6398 C   0  0  0  0  0  0  0  0  0  0  0  0
    9.1493  -15.5234   23.7145 C   0  0  2  0  0  0  0  0  0  0  0  0
    9.4377  -16.5061   22.6281 N   0  0  0  0  0  0  0  0  0  0  0  0
    9.6186  -16.0640   24.9948 C   0  0  0  0  0  0  0  0  0  0  0  0
    9.8591  -17.3279   25.0184 O   0  0  0  0  0  0  0  0  0  0  0  0
    7.2874  -12.8863   24.3254 C   0  0  0  0  0  0  0  0  0  0  0  0
    6.7767  -11.9479   25.1966 C   0  0  0  0  0  0  0  0  0  0  0  0
    9.6556  -14.3388   29.0254 C   0  0  0  0  0  0  0  0  0  0  0  0
   10.8261  -15.0433   28.4130 C   0  0  2  0  0  0  0  0  0  0  0  0
   11.7605  -13.9906   27.8628 C   0  0  0  0  0  0  0  0  0  0  0  0
   10.4287  -15.9940   27.3043 C   0  0  2  0  0  0  0  0  0  0  0  0
    9.8341  -15.3235   26.1896 N   0  0  0  0  0  0  0  0  0  0  0  0
    9.4917  -16.9872   27.8663 C   0  0  0  0  0  0  0  0  0  0  0  0
    8.2928  -17.0598   27.5586 O   0  0  0  0  0  0  0  0  0  0  0  0
    9.9309  -17.9371   28.8155 O   0  0  0  0  0  0  0  0  0  0  0  0
  2  3  1  0
  2  1  1  1
  4  3  1  0
  5  6  2  0
  5  2  1  0
  7  8  1  0
  8 18  2  0
  9 10  2  0
  9  8  1  0
 10 11  1  0
 11 17  2  0
 11 12  1  0
 13 12  1  1
 13 14  1  0
 14  5  1  0
 15 13  1  0
 15 16  2  0
 18 17  1  0
 20 19  1  6
 20 21  1  0
 22 23  1  6
 22 20  1  0
 23 15  1  0
 24 22  1  0
 25 24  2  0
 26 24  1  0
M  END
$$$$
