CYV.pdb
     RDKit          3D

 26 26  0  0  1  0  0  0  0  0999 V2000
   10.4069  -17.1627   18.8035 N   0  0  0  0  0  0  0  0  0  0  0  0
    9.1961  -17.0284   19.5486 C   0  0  1  0  0  0  0  0  0  0  0  0
    8.6459  -18.4229   19.8218 C   0  0  0  0  0  0  0  0  0  0  0  0
    9.8332  -19.3986   20.7779 S   0  0  0  0  0  0  0  0  0  0  0  0
    9.3646  -16.3177   20.8289 C   0  0  0  0  0  0  0  0  0  0  0  0
   10.5425  -16.1090   21.2532 O   0  0  0  0  0  0  0  0  0  0  0  0
    6.9753  -11.4827   28.0569 O   0  0  0  0  0  0  0  0  0  0  0  0
    7.0564  -12.1648   26.8485 C   0  0  0  0  0  0  0  0  0  0  0  0
    6.4167  -13.3776   26.6677 C   0  0  0  0  0  0  0  0  0  0  0  0
    6.4962  -14.0529   25.4734 C   0  0  0  0  0  0  0  0  0  0  0  0
    7.2217  -13.5583   24.3808 C   0  0  0  0  0  0  0  0  0  0  0  0
    7.3151  -14.3235   23.1297 C   0  0  0  0  0  0  0  0  0  0  0  0
    8.5259  -15.1383   22.9039 C   0  0  2  0  0  0  0  0  0  0  0  0
    8.2948  -15.8539   21.6142 N   0  0  0  0  0  0  0  0  0  0  0  0
    8.8219  -16.1170   23.9557 C   0  0  0  0  0  0  0  0  0  0  0  0
    8.0381  -17.1358   24.0137 O   0  0  0  0  0  0  0  0  0  0  0  0
    7.8512  -12.3506   24.5794 C   0  0  0  0  0  0  0  0  0  0  0  0
    7.7742  -11.6699   25.7757 C   0  0  0  0  0  0  0  0  0  0  0  0
   12.5434  -16.9178   25.6606 C   0  0  0  0  0  0  0  0  0  0  0  0
   11.3655  -17.8419   25.6563 C   0  0  2  0  0  0  0  0  0  0  0  0
   11.3681  -18.5846   24.3401 C   0  0  0  0  0  0  0  0  0  0  0  0
   10.0469  -17.1180   25.8244 C   0  0  2  0  0  0  0  0  0  0  0  0
    9.8862  -16.0421   24.8958 N   0  0  0  0  0  0  0  0  0  0  0  0
    9.9734  -16.6158   27.2109 C   0  0  0  0  0  0  0  0  0  0  0  0
   10.0312  -17.3419   28.2143 O   0  0  0  0  0  0  0  0  0  0  0  0
    9.8286  -15.2347   27.4715 O   0  0  0  0  0  0  0  0  0  0  0  0
  2  3  1  0
  2  1  1  1
  4  3  1  0
  5  6  2  0
  5  2  1  0
  7  8  1  0
  8 18  2  0
  9 10  2  0
  9  8  1  0
 10 11  1  0
 11 17  2  0
 11 12  1  0
 13 12  1  1
 13 14  1  0
 14  5  1  0
 15 13  1  0
 15 16  2  0
 18 17  1  0
 20 19  1  6
 20 21  1  0
 22 23  1  6
 22 20  1  0
 23 15  1  0
 24 22  1  0
 25 24  2  0
 26 24  1  0
M  END
$$$$
