CYV.pdb
     RDKit          3D

 26 26  0  0  1  0  0  0  0  0999 V2000
    7.2178  -12.5824   19.5377 N   0  0  0  0  0  0  0  0  0  0  0  0
    6.8460  -13.6160   20.4501 C   0  0  1  0  0  0  0  0  0  0  0  0
    6.7571  -14.9264   19.6776 C   0  0  0  0  0  0  0  0  0  0  0  0
    6.3751  -16.2982   20.7949 S   0  0  0  0  0  0  0  0  0  0  0  0
    7.7869  -13.7816   21.5727 C   0  0  0  0  0  0  0  0  0  0  0  0
    9.0219  -13.5800   21.3601 O   0  0  0  0  0  0  0  0  0  0  0  0
   10.5286  -15.0313   30.0630 O   0  0  0  0  0  0  0  0  0  0  0  0
    9.8334  -14.7808   28.8857 C   0  0  0  0  0  0  0  0  0  0  0  0
    9.1384  -15.7858   28.2381 C   0  0  0  0  0  0  0  0  0  0  0  0
    8.4506  -15.5393   27.0741 C   0  0  0  0  0  0  0  0  0  0  0  0
    8.4131  -14.2696   26.4815 C   0  0  0  0  0  0  0  0  0  0  0  0
    7.6973  -14.0489   25.2173 C   0  0  0  0  0  0  0  0  0  0  0  0
    8.4028  -14.3588   23.9575 C   0  0  2  0  0  0  0  0  0  0  0  0
    7.3988  -14.1513   22.8722 N   0  0  0  0  0  0  0  0  0  0  0  0
    8.9425  -15.7197   23.8656 C   0  0  0  0  0  0  0  0  0  0  0  0
    8.0751  -16.6628   23.7478 O   0  0  0  0  0  0  0  0  0  0  0  0
    9.1103  -13.2824   27.1401 C   0  0  0  0  0  0  0  0  0  0  0  0
    9.8017  -13.5254   28.3078 C   0  0  0  0  0  0  0  0  0  0  0  0
   12.9002  -16.9908   22.8213 C   0  0  0  0  0  0  0  0  0  0  0  0
   11.6380  -17.7911   22.7319 C   0  0  2  0  0  0  0  0  0  0  0  0
   11.0022  -17.4997   21.3922 C   0  0  0  0  0  0  0  0  0  0  0  0
   10.6554  -17.4689   23.8373 C   0  0  2  0  0  0  0  0  0  0  0  0
   10.3180  -16.0799   23.8876 N   0  0  0  0  0  0  0  0  0  0  0  0
   11.2493  -17.9005   25.1184 C   0  0  0  0  0  0  0  0  0  0  0  0
   11.4691  -17.1383   26.0713 O   0  0  0  0  0  0  0  0  0  0  0  0
   11.6086  -19.2507   25.3286 O   0  0  0  0  0  0  0  0  0  0  0  0
  2  3  1  0
  2  1  1  6
  4  3  1  0
  5  6  2  0
  5  2  1  0
  7  8  1  0
  8 18  2  0
  9 10  2  0
  9  8  1  0
 10 11  1  0
 11 17  2  0
 11 12  1  0
 13 12  1  1
 13 14  1  0
 14  5  1  0
 15 13  1  0
 15 16  2  0
 18 17  1  0
 20 19  1  1
 20 21  1  0
 22 23  1  1
 22 20  1  0
 23 15  1  0
 24 22  1  0
 25 24  2  0
 26 24  1  0
M  END
$$$$
