CYV.pdb
     RDKit          3D

 26 26  0  0  1  0  0  0  0  0999 V2000
   10.0880  -16.6531   18.2960 N   0  0  0  0  0  0  0  0  0  0  0  0
    9.2307  -17.1249   19.3359 C   0  0  1  0  0  0  0  0  0  0  0  0
    9.5414  -18.5965   19.5807 C   0  0  0  0  0  0  0  0  0  0  0  0
    8.4477  -19.2736   20.8541 S   0  0  0  0  0  0  0  0  0  0  0  0
    9.3740  -16.3851   20.6027 C   0  0  0  0  0  0  0  0  0  0  0  0
   10.5367  -16.0276   20.9649 O   0  0  0  0  0  0  0  0  0  0  0  0
    6.5684  -11.7028   27.8273 O   0  0  0  0  0  0  0  0  0  0  0  0
    6.7299  -12.4170   26.6459 C   0  0  0  0  0  0  0  0  0  0  0  0
    7.3916  -11.8676   25.5629 C   0  0  0  0  0  0  0  0  0  0  0  0
    7.5520  -12.5730   24.3944 C   0  0  0  0  0  0  0  0  0  0  0  0
    7.0603  -13.8755   24.2329 C   0  0  0  0  0  0  0  0  0  0  0  0
    7.2182  -14.5879   22.9574 C   0  0  0  0  0  0  0  0  0  0  0  0
    8.4986  -15.2779   22.7023 C   0  0  2  0  0  0  0  0  0  0  0  0
    8.2960  -16.0490   21.4400 N   0  0  0  0  0  0  0  0  0  0  0  0
    8.9353  -16.1911   23.7639 C   0  0  0  0  0  0  0  0  0  0  0  0
    8.2422  -17.2664   23.9022 O   0  0  0  0  0  0  0  0  0  0  0  0
    6.4048  -14.4055   25.3210 C   0  0  0  0  0  0  0  0  0  0  0  0
    6.2417  -13.7015   26.4950 C   0  0  0  0  0  0  0  0  0  0  0  0
   12.8273  -16.3550   25.5169 C   0  0  0  0  0  0  0  0  0  0  0  0
   11.8669  -17.4858   25.3165 C   0  0  2  0  0  0  0  0  0  0  0  0
   12.0666  -18.0166   23.9157 C   0  0  0  0  0  0  0  0  0  0  0  0
   10.4222  -17.0723   25.4980 C   0  0  2  0  0  0  0  0  0  0  0  0
   10.0435  -15.9975   24.6337 N   0  0  0  0  0  0  0  0  0  0  0  0
   10.2295  -16.6884   26.9107 C   0  0  0  0  0  0  0  0  0  0  0  0
    9.8608  -15.5631   27.2783 O   0  0  0  0  0  0  0  0  0  0  0  0
   10.4639  -17.6172   27.9493 O   0  0  0  0  0  0  0  0  0  0  0  0
  2  3  1  0
  2  1  1  6
  4  3  1  0
  5  6  2  0
  5  2  1  0
  7  8  1  0
  8 18  2  0
  9 10  2  0
  9  8  1  0
 10 11  1  0
 11 17  2  0
 11 12  1  0
 13 12  1  1
 13 14  1  0
 14  5  1  0
 15 13  1  0
 15 16  2  0
 18 17  1  0
 20 19  1  6
 20 21  1  0
 22 23  1  6
 22 20  1  0
 23 15  1  0
 24 22  1  0
 25 24  2  0
 26 24  1  0
M  END
$$$$
