CYV.pdb
     RDKit          3D

 26 26  0  0  1  0  0  0  0  0999 V2000
   10.7763  -17.0741   19.2147 N   0  0  0  0  0  0  0  0  0  0  0  0
    9.6963  -17.3063   20.1195 C   0  0  1  0  0  0  0  0  0  0  0  0
    9.7320  -18.7702   20.5408 C   0  0  0  0  0  0  0  0  0  0  0  0
    8.7267  -19.7780   19.4230 S   0  0  0  0  0  0  0  0  0  0  0  0
    9.7398  -16.4573   21.3237 C   0  0  0  0  0  0  0  0  0  0  0  0
   10.8712  -16.0695   21.7484 O   0  0  0  0  0  0  0  0  0  0  0  0
    6.4728  -11.7055   28.2707 O   0  0  0  0  0  0  0  0  0  0  0  0
    6.6977  -12.3880   27.0809 C   0  0  0  0  0  0  0  0  0  0  0  0
    6.1985  -13.6623   26.8822 C   0  0  0  0  0  0  0  0  0  0  0  0
    6.4202  -14.3380   25.7061 C   0  0  0  0  0  0  0  0  0  0  0  0
    7.1566  -13.7821   24.6510 C   0  0  0  0  0  0  0  0  0  0  0  0
    7.4050  -14.5464   23.4207 C   0  0  0  0  0  0  0  0  0  0  0  0
    8.7064  -15.2299   23.2796 C   0  0  2  0  0  0  0  0  0  0  0  0
    8.5987  -16.0479   22.0353 N   0  0  0  0  0  0  0  0  0  0  0  0
    9.0769  -16.0995   24.4014 C   0  0  0  0  0  0  0  0  0  0  0  0
    8.4323  -17.2096   24.4902 O   0  0  0  0  0  0  0  0  0  0  0  0
    7.6452  -12.5137   24.8670 C   0  0  0  0  0  0  0  0  0  0  0  0
    7.4253  -11.8324   26.0451 C   0  0  0  0  0  0  0  0  0  0  0  0
   12.2418  -17.8657   24.8681 C   0  0  0  0  0  0  0  0  0  0  0  0
   11.8873  -17.2639   26.1923 C   0  0  2  0  0  0  0  0  0  0  0  0
   12.2086  -18.2823   27.2616 C   0  0  0  0  0  0  0  0  0  0  0  0
   10.4285  -16.8721   26.2909 C   0  0  2  0  0  0  0  0  0  0  0  0
   10.0746  -15.8296   25.3780 N   0  0  0  0  0  0  0  0  0  0  0  0
   10.1599  -16.4517   27.6807 C   0  0  0  0  0  0  0  0  0  0  0  0
   10.0962  -17.2338   28.6406 O   0  0  0  0  0  0  0  0  0  0  0  0
    9.9553  -15.0897   27.9957 O   0  0  0  0  0  0  0  0  0  0  0  0
  2  3  1  0
  2  1  1  6
  4  3  1  0
  5  6  2  0
  5  2  1  0
  7  8  1  0
  8 18  2  0
  9 10  2  0
  9  8  1  0
 10 11  1  0
 11 17  2  0
 11 12  1  0
 13 12  1  1
 13 14  1  0
 14  5  1  0
 15 13  1  0
 15 16  2  0
 18 17  1  0
 20 19  1  6
 20 21  1  0
 22 23  1  6
 22 20  1  0
 23 15  1  0
 24 22  1  0
 25 24  2  0
 26 24  1  0
M  END
$$$$
