CYV.pdb
     RDKit          3D

 26 26  0  0  1  0  0  0  0  0999 V2000
    5.7407  -17.5472   19.7979 N   0  0  0  0  0  0  0  0  0  0  0  0
    6.7917  -16.7860   20.3937 C   0  0  1  0  0  0  0  0  0  0  0  0
    6.7570  -15.3808   19.8054 C   0  0  0  0  0  0  0  0  0  0  0  0
    8.0673  -14.3589   20.5229 S   0  0  0  0  0  0  0  0  0  0  0  0
    6.6986  -16.6959   21.8620 C   0  0  0  0  0  0  0  0  0  0  0  0
    5.5552  -16.5223   22.3849 O   0  0  0  0  0  0  0  0  0  0  0  0
    8.7641  -18.9654   30.2764 O   0  0  0  0  0  0  0  0  0  0  0  0
    8.6771  -18.7196   28.9111 C   0  0  0  0  0  0  0  0  0  0  0  0
    7.4938  -18.9171   28.2231 C   0  0  0  0  0  0  0  0  0  0  0  0
    7.4066  -18.6743   26.8732 C   0  0  0  0  0  0  0  0  0  0  0  0
    8.4987  -18.2175   26.1228 C   0  0  0  0  0  0  0  0  0  0  0  0
    8.3803  -18.0020   24.6740 C   0  0  0  0  0  0  0  0  0  0  0  0
    7.6381  -16.8135   24.2080 C   0  0  2  0  0  0  0  0  0  0  0  0
    7.8046  -16.7909   22.7245 N   0  0  0  0  0  0  0  0  0  0  0  0
    8.0948  -15.5365   24.7670 C   0  0  0  0  0  0  0  0  0  0  0  0
    9.2392  -15.1179   24.3537 O   0  0  0  0  0  0  0  0  0  0  0  0
    9.6674  -18.0268   26.8244 C   0  0  0  0  0  0  0  0  0  0  0  0
    9.7593  -18.2691   28.1784 C   0  0  0  0  0  0  0  0  0  0  0  0
    5.9676  -12.7616   27.3889 C   0  0  0  0  0  0  0  0  0  0  0  0
    7.0653  -12.4140   26.4319 C   0  0  2  0  0  0  0  0  0  0  0  0
    6.4256  -12.0268   25.1187 C   0  0  0  0  0  0  0  0  0  0  0  0
    8.0331  -13.5554   26.2043 C   0  0  2  0  0  0  0  0  0  0  0  0
    7.3909  -14.7315   25.7044 N   0  0  0  0  0  0  0  0  0  0  0  0
    8.7104  -13.8440   27.4843 C   0  0  0  0  0  0  0  0  0  0  0  0
    8.6026  -14.9156   28.0985 O   0  0  0  0  0  0  0  0  0  0  0  0
    9.5440  -12.8793   28.0931 O   0  0  0  0  0  0  0  0  0  0  0  0
  2  3  1  0
  2  1  1  6
  4  3  1  0
  5  6  2  0
  5  2  1  0
  7  8  1  0
  8 18  2  0
  9 10  2  0
  9  8  1  0
 10 11  1  0
 11 17  2  0
 11 12  1  0
 13 12  1  1
 13 14  1  0
 14  5  1  0
 15 13  1  0
 15 16  2  0
 18 17  1  0
 20 19  1  1
 20 21  1  0
 22 23  1  1
 22 20  1  0
 23 15  1  0
 24 22  1  0
 25 24  2  0
 26 24  1  0
M  END
$$$$
