CYV.pdb
     RDKit          3D

 26 26  0  0  1  0  0  0  0  0999 V2000
    5.2866  -20.4864   24.7807 N   0  0  0  0  0  0  0  0  0  0  0  0
    6.3895  -19.6604   25.1555 C   0  0  1  0  0  0  0  0  0  0  0  0
    7.6697  -20.3145   24.6505 C   0  0  0  0  0  0  0  0  0  0  0  0
    9.0995  -19.2573   24.9884 S   0  0  0  0  0  0  0  0  0  0  0  0
    6.3082  -18.2876   24.6250 C   0  0  0  0  0  0  0  0  0  0  0  0
    5.7276  -18.1040   23.5114 O   0  0  0  0  0  0  0  0  0  0  0  0
   11.4437  -14.8037   29.1329 O   0  0  0  0  0  0  0  0  0  0  0  0
   10.3138  -14.8296   28.3239 C   0  0  0  0  0  0  0  0  0  0  0  0
    9.9861  -13.7541   27.5185 C   0  0  0  0  0  0  0  0  0  0  0  0
    8.8691  -13.7788   26.7182 C   0  0  0  0  0  0  0  0  0  0  0  0
    8.0062  -14.8822   26.6713 C   0  0  0  0  0  0  0  0  0  0  0  0
    6.8008  -14.8611   25.8310 C   0  0  0  0  0  0  0  0  0  0  0  0
    6.7353  -15.7949   24.6888 C   0  0  2  0  0  0  0  0  0  0  0  0
    6.8373  -17.1620   25.2801 N   0  0  0  0  0  0  0  0  0  0  0  0
    7.7885  -15.6216   23.6826 C   0  0  0  0  0  0  0  0  0  0  0  0
    8.7406  -16.4866   23.7091 O   0  0  0  0  0  0  0  0  0  0  0  0
    8.3483  -15.9426   27.4792 C   0  0  0  0  0  0  0  0  0  0  0  0
    9.4677  -15.9222   28.2836 C   0  0  0  0  0  0  0  0  0  0  0  0
    8.3663  -12.5009   20.7321 C   0  0  0  0  0  0  0  0  0  0  0  0
    8.0908  -13.9224   20.3512 C   0  0  2  0  0  0  0  0  0  0  0  0
    6.6152  -14.0396   20.0466 C   0  0  0  0  0  0  0  0  0  0  0  0
    8.4610  -14.9073   21.4394 C   0  0  2  0  0  0  0  0  0  0  0  0
    7.8434  -14.6020   22.6928 N   0  0  0  0  0  0  0  0  0  0  0  0
    9.9311  -14.9069   21.5770 C   0  0  0  0  0  0  0  0  0  0  0  0
   10.7144  -15.1152   20.6387 O   0  0  0  0  0  0  0  0  0  0  0  0
   10.5386  -14.6603   22.8285 O   0  0  0  0  0  0  0  0  0  0  0  0
  2  3  1  0
  2  1  1  6
  4  3  1  0
  5  6  2  0
  5  2  1  0
  7  8  1  0
  8 18  2  0
  9 10  2  0
  9  8  1  0
 10 11  1  0
 11 17  2  0
 11 12  1  0
 13 12  1  1
 13 14  1  0
 14  5  1  0
 15 13  1  0
 15 16  2  0
 18 17  1  0
 20 19  1  1
 20 21  1  0
 22 23  1  1
 22 20  1  0
 23 15  1  0
 24 22  1  0
 25 24  2  0
 26 24  1  0
M  END
$$$$
