CYV.pdb
     RDKit          3D

 26 26  0  0  1  0  0  0  0  0999 V2000
    3.5326  -17.6112   21.3285 N   0  0  0  0  0  0  0  0  0  0  0  0
    4.4329  -18.2292   22.2486 C   0  0  1  0  0  0  0  0  0  0  0  0
    5.1129  -19.3953   21.5419 C   0  0  0  0  0  0  0  0  0  0  0  0
    4.0994  -20.8900   21.6626 S   0  0  0  0  0  0  0  0  0  0  0  0
    5.4644  -17.3154   22.7719 C   0  0  0  0  0  0  0  0  0  0  0  0
    5.9679  -16.4581   21.9829 O   0  0  0  0  0  0  0  0  0  0  0  0
   10.7349  -13.5445   29.0589 O   0  0  0  0  0  0  0  0  0  0  0  0
    9.7472  -14.1933   28.3271 C   0  0  0  0  0  0  0  0  0  0  0  0
    9.7673  -15.5658   28.1588 C   0  0  0  0  0  0  0  0  0  0  0  0
    8.7911  -16.2084   27.4355 C   0  0  0  0  0  0  0  0  0  0  0  0
    7.7301  -15.5189   26.8328 C   0  0  0  0  0  0  0  0  0  0  0  0
    6.7227  -16.2333   26.0363 C   0  0  0  0  0  0  0  0  0  0  0  0
    6.9507  -16.3607   24.5829 C   0  0  2  0  0  0  0  0  0  0  0  0
    5.9280  -17.3348   24.0988 N   0  0  0  0  0  0  0  0  0  0  0  0
    8.2870  -16.8307   24.2018 C   0  0  0  0  0  0  0  0  0  0  0  0
    8.4729  -18.1028   24.2543 O   0  0  0  0  0  0  0  0  0  0  0  0
    7.7268  -14.1541   27.0111 C   0  0  0  0  0  0  0  0  0  0  0  0
    8.7039  -13.5055   27.7358 C   0  0  0  0  0  0  0  0  0  0  0  0
    9.9270  -15.7857   20.8556 C   0  0  0  0  0  0  0  0  0  0  0  0
   10.9700  -15.8951   21.9241 C   0  0  2  0  0  0  0  0  0  0  0  0
   12.1637  -16.6073   21.3309 C   0  0  0  0  0  0  0  0  0  0  0  0
   10.4878  -16.6497   23.1444 C   0  0  2  0  0  0  0  0  0  0  0  0
    9.3737  -16.0164   23.7796 N   0  0  0  0  0  0  0  0  0  0  0  0
   11.6184  -16.7671   24.0868 C   0  0  0  0  0  0  0  0  0  0  0  0
   12.7057  -17.2907   23.8021 O   0  0  0  0  0  0  0  0  0  0  0  0
   11.5131  -16.2711   25.4056 O   0  0  0  0  0  0  0  0  0  0  0  0
  2  3  1  0
  2  1  1  6
  4  3  1  0
  5  6  2  0
  5  2  1  0
  7  8  1  0
  8 18  2  0
  9 10  2  0
  9  8  1  0
 10 11  1  0
 11 17  2  0
 11 12  1  0
 13 12  1  1
 13 14  1  0
 14  5  1  0
 15 13  1  0
 15 16  2  0
 18 17  1  0
 20 19  1  6
 20 21  1  0
 22 23  1  1
 22 20  1  0
 23 15  1  0
 24 22  1  0
 25 24  2  0
 26 24  1  0
M  END
$$$$
