CYV.pdb
     RDKit          3D

 26 26  0  0  1  0  0  0  0  0999 V2000
   11.9887  -16.7398   19.5601 N   0  0  0  0  0  0  0  0  0  0  0  0
   11.0840  -17.2976   20.5138 C   0  0  1  0  0  0  0  0  0  0  0  0
   11.6496  -18.6314   20.9859 C   0  0  0  0  0  0  0  0  0  0  0  0
   12.2740  -18.4934   22.6791 S   0  0  0  0  0  0  0  0  0  0  0  0
   10.8495  -16.4325   21.6840 C   0  0  0  0  0  0  0  0  0  0  0  0
   11.6636  -15.4846   21.9068 O   0  0  0  0  0  0  0  0  0  0  0  0
    5.5841  -11.5888   27.0294 O   0  0  0  0  0  0  0  0  0  0  0  0
    6.1666  -12.4920   26.1480 C   0  0  0  0  0  0  0  0  0  0  0  0
    5.9417  -13.8515   26.2651 C   0  0  0  0  0  0  0  0  0  0  0  0
    6.5171  -14.7455   25.3941 C   0  0  0  0  0  0  0  0  0  0  0  0
    7.3559  -14.3371   24.3481 C   0  0  0  0  0  0  0  0  0  0  0  0
    7.9832  -15.3226   23.4566 C   0  0  0  0  0  0  0  0  0  0  0  0
    9.4364  -15.5505   23.5880 C   0  0  2  0  0  0  0  0  0  0  0  0
    9.7735  -16.5934   22.5742 N   0  0  0  0  0  0  0  0  0  0  0  0
    9.8780  -16.0005   24.9124 C   0  0  0  0  0  0  0  0  0  0  0  0
   10.0906  -17.2635   25.0362 O   0  0  0  0  0  0  0  0  0  0  0  0
    7.5679  -12.9809   24.2474 C   0  0  0  0  0  0  0  0  0  0  0  0
    6.9929  -12.0807   25.1188 C   0  0  0  0  0  0  0  0  0  0  0  0
    9.2594  -14.3245   28.7873 C   0  0  0  0  0  0  0  0  0  0  0  0
   10.6194  -14.8303   28.4187 C   0  0  2  0  0  0  0  0  0  0  0  0
   11.4791  -13.6344   28.0802 C   0  0  0  0  0  0  0  0  0  0  0  0
   10.5959  -15.7835   27.2431 C   0  0  2  0  0  0  0  0  0  0  0  0
   10.0948  -15.1748   26.0497 N   0  0  0  0  0  0  0  0  0  0  0  0
    9.7667  -16.9477   27.6137 C   0  0  0  0  0  0  0  0  0  0  0  0
   10.0749  -17.7653   28.4933 O   0  0  0  0  0  0  0  0  0  0  0  0
    8.5383  -17.1956   26.9612 O   0  0  0  0  0  0  0  0  0  0  0  0
  2  3  1  0
  2  1  1  6
  4  3  1  0
  5  6  2  0
  5  2  1  0
  7  8  1  0
  8 18  2  0
  9 10  2  0
  9  8  1  0
 10 11  1  0
 11 17  2  0
 11 12  1  0
 13 12  1  1
 13 14  1  0
 14  5  1  0
 15 13  1  0
 15 16  2  0
 18 17  1  0
 20 19  1  6
 20 21  1  0
 22 23  1  6
 22 20  1  0
 23 15  1  0
 24 22  1  0
 25 24  2  0
 26 24  1  0
M  END
$$$$
