VNG.pdb
     RDKit          3D

 20 19  0  0  1  0  0  0  0  0999 V2000
    7.5985  -12.2874   19.2450 C   0  0  0  0  0  0  0  0  0  0  0  0
    8.6892  -13.1979   19.7660 C   0  0  1  0  0  0  0  0  0  0  0  0
    8.1737  -14.0735   20.8853 C   0  0  0  0  0  0  0  0  0  0  0  0
    9.1959  -14.0437   18.6158 C   0  0  2  0  0  0  0  0  0  0  0  0
    8.1208  -14.8722   18.0689 N   0  0  0  0  0  0  0  0  0  0  0  0
   10.3522  -14.8731   19.0126 C   0  0  0  0  0  0  0  0  0  0  0  0
   10.2452  -16.1100   19.0252 O   0  0  0  0  0  0  0  0  0  0  0  0
   13.9758  -15.5861   17.2199 N   0  0  0  0  0  0  0  0  0  0  0  0
   14.5197  -14.5923   18.0675 C   0  0  0  0  0  0  0  0  0  0  0  0
   15.4105  -13.8472   17.5933 O   0  0  0  0  0  0  0  0  0  0  0  0
   14.0633  -14.4265   19.4662 C   0  0  0  0  0  0  0  0  0  0  0  0
   12.7565  -15.1301   19.7395 C   0  0  2  0  0  0  0  0  0  0  0  0
   11.6089  -14.3185   19.3892 N   0  0  0  0  0  0  0  0  0  0  0  0
   12.7540  -15.4291   21.2051 C   0  0  0  0  0  0  0  0  0  0  0  0
   13.7663  -15.9581   21.7006 O   0  0  0  0  0  0  0  0  0  0  0  0
   11.6675  -15.1416   22.0428 N   0  0  0  0  0  0  0  0  0  0  0  0
   11.7656  -15.3490   23.4737 C   0  0  0  0  0  0  0  0  0  0  0  0
   11.7178  -16.8058   23.7778 C   0  0  0  0  0  0  0  0  0  0  0  0
   11.8301  -17.2567   25.0852 O   0  0  0  0  0  0  0  0  0  0  0  0
   11.5763  -17.6715   22.8787 O   0  0  0  0  0  0  0  0  0  0  0  0
  2  1  1  6
  3  2  1  0
  4  2  1  0
  4  5  1  1
  6  4  1  0
  6  7  2  0
  8  9  1  0
  9 11  1  0
 10  9  2  0
 12 11  1  1
 12 13  1  0
 12 14  1  0
 13  6  1  0
 14 16  1  0
 15 14  2  0
 16 17  1  0
 17 18  1  0
 18 19  1  0
 20 18  2  0
M  END
$$$$
