VNG.pdb
     RDKit          3D

 20 19  0  0  1  0  0  0  0  0999 V2000
    8.3093  -12.6990   20.9666 C   0  0  0  0  0  0  0  0  0  0  0  0
    7.3605  -13.3764   20.0018 C   0  0  1  0  0  0  0  0  0  0  0  0
    7.5080  -12.8072   18.6091 C   0  0  0  0  0  0  0  0  0  0  0  0
    7.6547  -14.8625   20.0058 C   0  0  2  0  0  0  0  0  0  0  0  0
    6.8321  -15.5562   19.0142 N   0  0  0  0  0  0  0  0  0  0  0  0
    7.4754  -15.4536   21.3478 C   0  0  0  0  0  0  0  0  0  0  0  0
    6.3862  -15.3328   21.9315 O   0  0  0  0  0  0  0  0  0  0  0  0
    5.6911  -18.8078   23.4446 N   0  0  0  0  0  0  0  0  0  0  0  0
    6.8856  -18.5762   22.7224 C   0  0  0  0  0  0  0  0  0  0  0  0
    6.8508  -18.7254   21.4773 O   0  0  0  0  0  0  0  0  0  0  0  0
    8.1389  -18.1718   23.3990 C   0  0  0  0  0  0  0  0  0  0  0  0
    8.3610  -16.6794   23.3696 C   0  0  2  0  0  0  0  0  0  0  0  0
    8.5060  -16.1694   22.0216 N   0  0  0  0  0  0  0  0  0  0  0  0
    9.6117  -16.4387   24.1540 C   0  0  0  0  0  0  0  0  0  0  0  0
    9.6259  -16.7643   25.3556 O   0  0  0  0  0  0  0  0  0  0  0  0
   10.7642  -15.8651   23.5993 N   0  0  0  0  0  0  0  0  0  0  0  0
   11.9272  -15.6045   24.4238 C   0  0  0  0  0  0  0  0  0  0  0  0
   12.9677  -16.6394   24.1718 C   0  0  0  0  0  0  0  0  0  0  0  0
   12.6879  -17.7402   23.3749 O   0  0  0  0  0  0  0  0  0  0  0  0
   14.1215  -16.5597   24.6619 O   0  0  0  0  0  0  0  0  0  0  0  0
  2  1  1  1
  3  2  1  0
  4  2  1  0
  4  5  1  6
  6  4  1  0
  6  7  2  0
  8  9  1  0
  9 11  1  0
 10  9  2  0
 12 11  1  6
 12 13  1  0
 12 14  1  0
 13  6  1  0
 14 16  1  0
 15 14  2  0
 16 17  1  0
 17 18  1  0
 18 19  1  0
 20 18  2  0
M  END
$$$$
