VNG.pdb
     RDKit          3D

 20 19  0  0  1  0  0  0  0  0999 V2000
    7.2085  -16.2609   20.2995 C   0  0  0  0  0  0  0  0  0  0  0  0
    7.6865  -15.0103   19.5941 C   0  0  1  0  0  0  0  0  0  0  0  0
    7.0189  -14.8613   18.2459 C   0  0  0  0  0  0  0  0  0  0  0  0
    7.3812  -13.8173   20.4765 C   0  0  2  0  0  0  0  0  0  0  0  0
    7.7103  -12.5675   19.7901 N   0  0  0  0  0  0  0  0  0  0  0  0
    8.0765  -13.9047   21.7770 C   0  0  0  0  0  0  0  0  0  0  0  0
    9.2799  -13.6083   21.8511 O   0  0  0  0  0  0  0  0  0  0  0  0
    6.5967  -12.1215   24.7566 N   0  0  0  0  0  0  0  0  0  0  0  0
    6.3705  -13.2560   25.5713 C   0  0  0  0  0  0  0  0  0  0  0  0
    5.4720  -13.1764   26.4430 O   0  0  0  0  0  0  0  0  0  0  0  0
    7.1588  -14.4991   25.4115 C   0  0  0  0  0  0  0  0  0  0  0  0
    8.1138  -14.4371   24.2448 C   0  0  2  0  0  0  0  0  0  0  0  0
    7.4269  -14.3191   22.9749 N   0  0  0  0  0  0  0  0  0  0  0  0
    8.9000  -15.7087   24.2945 C   0  0  0  0  0  0  0  0  0  0  0  0
    8.2841  -16.7867   24.2016 O   0  0  0  0  0  0  0  0  0  0  0  0
   10.2938  -15.7413   24.4403 N   0  0  0  0  0  0  0  0  0  0  0  0
   11.0016  -17.0055   24.4734 C   0  0  0  0  0  0  0  0  0  0  0  0
   12.4674  -16.7618   24.5685 C   0  0  0  0  0  0  0  0  0  0  0  0
   13.3566  -17.8257   24.6201 O   0  0  0  0  0  0  0  0  0  0  0  0
   12.9509  -15.6030   24.6051 O   0  0  0  0  0  0  0  0  0  0  0  0
  2  1  1  1
  3  2  1  0
  4  2  1  0
  4  5  1  6
  6  4  1  0
  6  7  2  0
  8  9  1  0
  9 11  1  0
 10  9  2  0
 12 11  1  1
 12 13  1  0
 12 14  1  0
 13  6  1  0
 14 16  1  0
 15 14  2  0
 16 17  1  0
 17 18  1  0
 18 19  1  0
 20 18  2  0
M  END
$$$$
