VNG.pdb
     RDKit          3D

 20 19  0  0  1  0  0  0  0  0999 V2000
    7.4658  -20.6986   18.8039 C   0  0  0  0  0  0  0  0  0  0  0  0
    8.2591  -19.5767   19.4381 C   0  0  1  0  0  0  0  0  0  0  0  0
    9.6210  -20.0609   19.8810 C   0  0  0  0  0  0  0  0  0  0  0  0
    8.3929  -18.4554   18.4282 C   0  0  2  0  0  0  0  0  0  0  0  0
    9.1109  -18.9129   17.2380 N   0  0  0  0  0  0  0  0  0  0  0  0
    9.0439  -17.2652   19.0130 C   0  0  0  0  0  0  0  0  0  0  0  0
   10.2415  -17.0409   18.7743 O   0  0  0  0  0  0  0  0  0  0  0  0
    6.5693  -12.5216   19.5371 N   0  0  0  0  0  0  0  0  0  0  0  0
    7.7385  -13.3155   19.6050 C   0  0  0  0  0  0  0  0  0  0  0  0
    8.4862  -13.3372   18.5980 O   0  0  0  0  0  0  0  0  0  0  0  0
    8.0796  -14.0977   20.8150 C   0  0  0  0  0  0  0  0  0  0  0  0
    9.0193  -15.2418   20.5229 C   0  0  2  0  0  0  0  0  0  0  0  0
    8.3574  -16.3425   19.8532 N   0  0  0  0  0  0  0  0  0  0  0  0
    9.5478  -15.6833   21.8508 C   0  0  0  0  0  0  0  0  0  0  0  0
    8.7314  -15.9319   22.7572 O   0  0  0  0  0  0  0  0  0  0  0  0
   10.9158  -15.8294   22.1196 N   0  0  0  0  0  0  0  0  0  0  0  0
   11.3647  -16.3333   23.4021 C   0  0  0  0  0  0  0  0  0  0  0  0
   12.8473  -16.2304   23.4947 C   0  0  0  0  0  0  0  0  0  0  0  0
   13.5054  -16.5738   24.6670 O   0  0  0  0  0  0  0  0  0  0  0  0
   13.5509  -15.8352   22.5321 O   0  0  0  0  0  0  0  0  0  0  0  0
  2  1  1  6
  3  2  1  0
  4  2  1  0
  4  5  1  6
  6  4  1  0
  6  7  2  0
  8  9  1  0
  9 11  1  0
 10  9  2  0
 12 11  1  1
 12 13  1  0
 12 14  1  0
 13  6  1  0
 14 16  1  0
 15 14  2  0
 16 17  1  0
 17 18  1  0
 18 19  1  0
 20 18  2  0
M  END
$$$$
