VNG.pdb
     RDKit          3D

 20 19  0  0  1  0  0  0  0  0999 V2000
    9.7081  -19.7835   20.5971 C   0  0  0  0  0  0  0  0  0  0  0  0
    9.6915  -19.5902   19.0963 C   0  0  1  0  0  0  0  0  0  0  0  0
    9.1856  -20.8313   18.3969 C   0  0  0  0  0  0  0  0  0  0  0  0
    8.8104  -18.4000   18.7771 C   0  0  2  0  0  0  0  0  0  0  0  0
    8.5665  -18.3072   17.3372 N   0  0  0  0  0  0  0  0  0  0  0  0
    9.3796  -17.1404   19.2987 C   0  0  0  0  0  0  0  0  0  0  0  0
   10.5308  -16.8064   18.9751 O   0  0  0  0  0  0  0  0  0  0  0  0
    6.2885  -12.8869   19.4439 N   0  0  0  0  0  0  0  0  0  0  0  0
    7.5722  -13.4756   19.5308 C   0  0  0  0  0  0  0  0  0  0  0  0
    8.2399  -13.5737   18.4734 O   0  0  0  0  0  0  0  0  0  0  0  0
    8.1202  -13.9627   20.8171 C   0  0  0  0  0  0  0  0  0  0  0  0
    9.1954  -15.0057   20.6343 C   0  0  2  0  0  0  0  0  0  0  0  0
    8.6638  -16.2710   20.1707 N   0  0  0  0  0  0  0  0  0  0  0  0
    9.8346  -15.1708   21.9765 C   0  0  0  0  0  0  0  0  0  0  0  0
   10.2702  -14.1557   22.5510 O   0  0  0  0  0  0  0  0  0  0  0  0
    9.9648  -16.4122   22.6144 N   0  0  0  0  0  0  0  0  0  0  0  0
   10.6109  -16.5114   23.9078 C   0  0  0  0  0  0  0  0  0  0  0  0
   10.5039  -17.9052   24.4207 C   0  0  0  0  0  0  0  0  0  0  0  0
   10.9562  -18.2244   25.6930 O   0  0  0  0  0  0  0  0  0  0  0  0
   10.0082  -18.8332   23.7345 O   0  0  0  0  0  0  0  0  0  0  0  0
  2  1  1  1
  3  2  1  0
  4  2  1  0
  4  5  1  6
  6  4  1  0
  6  7  2  0
  8  9  1  0
  9 11  1  0
 10  9  2  0
 12 11  1  1
 12 13  1  0
 12 14  1  0
 13  6  1  0
 14 16  1  0
 15 14  2  0
 16 17  1  0
 17 18  1  0
 18 19  1  0
 20 18  2  0
M  END
$$$$
