VNG.pdb
     RDKit          3D

 20 19  0  0  1  0  0  0  0  0999 V2000
    8.9215  -12.9602   21.4940 C   0  0  0  0  0  0  0  0  0  0  0  0
    7.7557  -13.1568   20.5494 C   0  0  1  0  0  0  0  0  0  0  0  0
    8.0350  -12.5212   19.2064 C   0  0  0  0  0  0  0  0  0  0  0  0
    7.5099  -14.6438   20.3962 C   0  0  2  0  0  0  0  0  0  0  0  0
    6.4749  -14.8972   19.3932 N   0  0  0  0  0  0  0  0  0  0  0  0
    7.1636  -15.2782   21.6846 C   0  0  0  0  0  0  0  0  0  0  0  0
    6.1256  -14.9403   22.2761 O   0  0  0  0  0  0  0  0  0  0  0  0
    6.6077  -17.8337   25.9993 N   0  0  0  0  0  0  0  0  0  0  0  0
    6.5495  -18.6496   24.8448 C   0  0  0  0  0  0  0  0  0  0  0  0
    5.9900  -19.7675   24.9501 O   0  0  0  0  0  0  0  0  0  0  0  0
    7.1242  -18.2123   23.5523 C   0  0  0  0  0  0  0  0  0  0  0  0
    7.6988  -16.8182   23.6125 C   0  0  2  0  0  0  0  0  0  0  0  0
    7.9733  -16.2771   22.2971 N   0  0  0  0  0  0  0  0  0  0  0  0
    8.9642  -16.9334   24.4018 C   0  0  0  0  0  0  0  0  0  0  0  0
   10.0326  -16.6031   23.8544 O   0  0  0  0  0  0  0  0  0  0  0  0
    9.0014  -17.3946   25.7250 N   0  0  0  0  0  0  0  0  0  0  0  0
   10.2614  -17.4999   26.4332 C   0  0  0  0  0  0  0  0  0  0  0  0
   10.0221  -17.9816   27.8217 C   0  0  0  0  0  0  0  0  0  0  0  0
    8.7312  -18.2150   28.2737 O   0  0  0  0  0  0  0  0  0  0  0  0
   10.9628  -18.1927   28.6268 O   0  0  0  0  0  0  0  0  0  0  0  0
  2  1  1  1
  3  2  1  0
  4  2  1  0
  4  5  1  6
  6  4  1  0
  6  7  2  0
  8  9  1  0
  9 11  1  0
 10  9  2  0
 12 11  1  6
 12 13  1  0
 12 14  1  0
 13  6  1  0
 14 16  1  0
 15 14  2  0
 16 17  1  0
 17 18  1  0
 18 19  1  0
 20 18  2  0
M  END
$$$$
