VNG.pdb
     RDKit          3D

 20 19  0  0  1  0  0  0  0  0999 V2000
    8.1200  -13.1722   18.1246 C   0  0  0  0  0  0  0  0  0  0  0  0
    8.5199  -13.2885   19.5795 C   0  0  1  0  0  0  0  0  0  0  0  0
    7.4493  -12.7181   20.4817 C   0  0  0  0  0  0  0  0  0  0  0  0
    8.7605  -14.7508   19.8938 C   0  0  2  0  0  0  0  0  0  0  0  0
    7.6016  -15.5598   19.5145 N   0  0  0  0  0  0  0  0  0  0  0  0
    9.1060  -14.9566   21.3154 C   0  0  0  0  0  0  0  0  0  0  0  0
    8.2722  -14.6879   22.1951 O   0  0  0  0  0  0  0  0  0  0  0  0
    8.1270  -15.9932   24.9214 N   0  0  0  0  0  0  0  0  0  0  0  0
    8.6724  -16.8357   23.9240 C   0  0  0  0  0  0  0  0  0  0  0  0
    7.8730  -17.5106   23.2318 O   0  0  0  0  0  0  0  0  0  0  0  0
   10.1322  -16.9272   23.6947 C   0  0  0  0  0  0  0  0  0  0  0  0
   10.7143  -15.6534   23.1327 C   0  0  2  0  0  0  0  0  0  0  0  0
   10.3703  -15.4571   21.7393 N   0  0  0  0  0  0  0  0  0  0  0  0
   12.1966  -15.7795   23.2894 C   0  0  0  0  0  0  0  0  0  0  0  0
   12.6640  -15.8471   24.4414 O   0  0  0  0  0  0  0  0  0  0  0  0
   13.0798  -15.8249   22.2019 N   0  0  0  0  0  0  0  0  0  0  0  0
   14.5066  -15.9598   22.4170 C   0  0  0  0  0  0  0  0  0  0  0  0
   15.2162  -15.9720   21.1080 C   0  0  0  0  0  0  0  0  0  0  0  0
   16.6019  -16.0234   21.0582 O   0  0  0  0  0  0  0  0  0  0  0  0
   14.6001  -15.9369   20.0139 O   0  0  0  0  0  0  0  0  0  0  0  0
  2  1  1  6
  3  2  1  0
  4  2  1  0
  4  5  1  1
  6  4  1  0
  6  7  2  0
  8  9  1  0
  9 11  1  0
 10  9  2  0
 12 11  1  6
 12 13  1  0
 12 14  1  0
 13  6  1  0
 14 16  1  0
 15 14  2  0
 16 17  1  0
 17 18  1  0
 18 19  1  0
 20 18  2  0
M  END
$$$$
