VNG.pdb
     RDKit          3D

 20 19  0  0  1  0  0  0  0  0999 V2000
    8.2515  -12.3173   25.1785 C   0  0  0  0  0  0  0  0  0  0  0  0
    7.4907  -12.9629   26.3163 C   0  0  1  0  0  0  0  0  0  0  0  0
    6.5037  -11.9933   26.9256 C   0  0  0  0  0  0  0  0  0  0  0  0
    6.7764  -14.1866   25.7803 C   0  0  2  0  0  0  0  0  0  0  0  0
    6.0475  -14.8706   26.8491 N   0  0  0  0  0  0  0  0  0  0  0  0
    7.7066  -15.1107   25.0999 C   0  0  0  0  0  0  0  0  0  0  0  0
    8.4403  -15.8507   25.7749 O   0  0  0  0  0  0  0  0  0  0  0  0
    7.1555  -18.3452   21.2335 N   0  0  0  0  0  0  0  0  0  0  0  0
    7.2070  -16.9319   21.2768 C   0  0  0  0  0  0  0  0  0  0  0  0
    6.1378  -16.3047   21.0840 O   0  0  0  0  0  0  0  0  0  0  0  0
    8.4705  -16.2062   21.5393 C   0  0  0  0  0  0  0  0  0  0  0  0
    8.7630  -16.0604   23.0126 C   0  0  2  0  0  0  0  0  0  0  0  0
    7.8090  -15.2002   23.6821 N   0  0  0  0  0  0  0  0  0  0  0  0
   10.1381  -15.4780   23.0988 C   0  0  0  0  0  0  0  0  0  0  0  0
   10.3269  -14.3402   22.6300 O   0  0  0  0  0  0  0  0  0  0  0  0
   11.2198  -16.1530   23.6813 N   0  0  0  0  0  0  0  0  0  0  0  0
   12.5018  -15.4952   23.8353 C   0  0  0  0  0  0  0  0  0  0  0  0
   13.5955  -16.4156   23.4182 C   0  0  0  0  0  0  0  0  0  0  0  0
   14.9223  -16.0198   23.5088 O   0  0  0  0  0  0  0  0  0  0  0  0
   13.3658  -17.5682   22.9748 O   0  0  0  0  0  0  0  0  0  0  0  0
  2  1  1  6
  3  2  1  0
  4  2  1  0
  4  5  1  1
  6  4  1  0
  6  7  2  0
  8  9  1  0
  9 11  1  0
 10  9  2  0
 12 11  1  6
 12 13  1  0
 12 14  1  0
 13  6  1  0
 14 16  1  0
 15 14  2  0
 16 17  1  0
 17 18  1  0
 18 19  1  0
 20 18  2  0
M  END
$$$$
