VNG.pdb
     RDKit          3D

 20 19  0  0  1  0  0  0  0  0999 V2000
    7.4831  -12.7024   18.9273 C   0  0  0  0  0  0  0  0  0  0  0  0
    8.1280  -13.4714   20.0599 C   0  0  1  0  0  0  0  0  0  0  0  0
    7.7001  -12.9194   21.4007 C   0  0  0  0  0  0  0  0  0  0  0  0
    7.7359  -14.9292   19.9322 C   0  0  2  0  0  0  0  0  0  0  0  0
    6.2837  -15.0850   20.0237 N   0  0  0  0  0  0  0  0  0  0  0  0
    8.4217  -15.7714   20.9335 C   0  0  0  0  0  0  0  0  0  0  0  0
    7.8521  -16.0404   22.0035 O   0  0  0  0  0  0  0  0  0  0  0  0
    9.7105  -19.5703   19.2347 N   0  0  0  0  0  0  0  0  0  0  0  0
    9.8526  -19.2888   20.6140 C   0  0  0  0  0  0  0  0  0  0  0  0
    9.0288  -19.8117   21.4023 O   0  0  0  0  0  0  0  0  0  0  0  0
   10.9306  -18.4104   21.1226 C   0  0  0  0  0  0  0  0  0  0  0  0
   10.4043  -17.1259   21.7144 C   0  0  2  0  0  0  0  0  0  0  0  0
    9.7281  -16.3023   20.7332 N   0  0  0  0  0  0  0  0  0  0  0  0
   11.5989  -16.4097   22.2598 C   0  0  0  0  0  0  0  0  0  0  0  0
   12.0731  -15.4666   21.5997 O   0  0  0  0  0  0  0  0  0  0  0  0
   12.2064  -16.7512   23.4761 N   0  0  0  0  0  0  0  0  0  0  0  0
   13.3222  -15.9787   23.9846 C   0  0  0  0  0  0  0  0  0  0  0  0
   13.8569  -16.6158   25.2196 C   0  0  0  0  0  0  0  0  0  0  0  0
   15.0160  -16.1375   25.8139 O   0  0  0  0  0  0  0  0  0  0  0  0
   13.2905  -17.5955   25.7648 O   0  0  0  0  0  0  0  0  0  0  0  0
  2  1  1  6
  3  2  1  0
  4  2  1  0
  4  5  1  1
  6  4  1  0
  6  7  2  0
  8  9  1  0
  9 11  1  0
 10  9  2  0
 12 11  1  6
 12 13  1  0
 12 14  1  0
 13  6  1  0
 14 16  1  0
 15 14  2  0
 16 17  1  0
 17 18  1  0
 18 19  1  0
 20 18  2  0
M  END
$$$$
