VNG.pdb
     RDKit          3D

 20 19  0  0  1  0  0  0  0  0999 V2000
    9.5237  -12.6741   20.0596 C   0  0  0  0  0  0  0  0  0  0  0  0
    8.1854  -13.2411   19.6385 C   0  0  1  0  0  0  0  0  0  0  0  0
    7.4429  -12.2706   18.7484 C   0  0  0  0  0  0  0  0  0  0  0  0
    8.4268  -14.5510   18.9168 C   0  0  2  0  0  0  0  0  0  0  0  0
    7.1744  -15.0862   18.3815 N   0  0  0  0  0  0  0  0  0  0  0  0
    9.0956  -15.5410   19.7857 C   0  0  0  0  0  0  0  0  0  0  0  0
    8.4599  -16.0782   20.7070 O   0  0  0  0  0  0  0  0  0  0  0  0
   10.4057  -19.0920   17.9848 N   0  0  0  0  0  0  0  0  0  0  0  0
   10.5250  -18.8570   19.3749 C   0  0  0  0  0  0  0  0  0  0  0  0
    9.6521  -19.3545   20.1260 O   0  0  0  0  0  0  0  0  0  0  0  0
   11.6352  -18.0545   19.9367 C   0  0  0  0  0  0  0  0  0  0  0  0
   11.1630  -16.7649   20.5622 C   0  0  2  0  0  0  0  0  0  0  0  0
   10.4586  -15.9198   19.6199 N   0  0  0  0  0  0  0  0  0  0  0  0
   12.3958  -16.0771   21.0567 C   0  0  0  0  0  0  0  0  0  0  0  0
   13.0484  -16.6196   21.9677 O   0  0  0  0  0  0  0  0  0  0  0  0
   12.8479  -14.8539   20.5425 N   0  0  0  0  0  0  0  0  0  0  0  0
   14.0182  -14.2074   21.1016 C   0  0  0  0  0  0  0  0  0  0  0  0
   15.2521  -14.8079   20.5237 C   0  0  0  0  0  0  0  0  0  0  0  0
   16.1395  -14.0295   19.7944 O   0  0  0  0  0  0  0  0  0  0  0  0
   15.5353  -16.0229   20.6700 O   0  0  0  0  0  0  0  0  0  0  0  0
  2  1  1  6
  3  2  1  0
  4  2  1  0
  4  5  1  1
  6  4  1  0
  6  7  2  0
  8  9  1  0
  9 11  1  0
 10  9  2  0
 12 11  1  6
 12 13  1  0
 12 14  1  0
 13  6  1  0
 14 16  1  0
 15 14  2  0
 16 17  1  0
 17 18  1  0
 18 19  1  0
 20 18  2  0
M  END
$$$$
