EVY.pdb
     RDKit          3D

 29 29  0  0  1  0  0  0  0  0999 V2000
   19.6444  -12.9591  -18.9015 N   0  0  0  0  0  0  0  0  0  0  0  0
   20.5985  -11.8645  -18.9824 C   0  0  1  0  0  0  0  0  0  0  0  0
   20.0105  -10.7305  -19.7610 C   0  0  0  0  0  0  0  0  0  0  0  0
   19.7259  -11.0386  -21.1962 C   0  0  0  0  0  0  0  0  0  0  0  0
   19.1671   -9.8576  -21.8703 C   0  0  0  0  0  0  0  0  0  0  0  0
   19.8436   -8.9046  -22.3227 O   0  0  0  0  0  0  0  0  0  0  0  0
   20.9476  -11.3732  -17.6127 C   0  0  0  0  0  0  0  0  0  0  0  0
   20.0869  -11.5150  -16.7142 O   0  0  0  0  0  0  0  0  0  0  0  0
   17.7736   -9.7488  -22.0420 O   0  0  0  0  0  0  0  0  0  0  0  0
   23.7982  -12.4063  -15.4291 C   0  0  0  0  0  0  0  0  0  0  0  0
   23.8431  -10.9120  -15.5527 C   0  0  2  0  0  0  0  0  0  0  0  0
   24.1124  -10.3293  -14.1794 C   0  0  0  0  0  0  0  0  0  0  0  0
   22.5460  -10.3156  -16.0502 C   0  0  2  0  0  0  0  0  0  0  0  0
   22.1983  -10.7814  -17.3676 N   0  0  0  0  0  0  0  0  0  0  0  0
   22.5722   -8.8416  -16.0400 C   0  0  0  0  0  0  0  0  0  0  0  0
   23.4322   -8.2695  -16.7590 O   0  0  0  0  0  0  0  0  0  0  0  0
   21.0635   -0.3829  -16.5206 O   0  0  0  0  0  0  0  0  0  0  0  0
   20.9041   -1.7539  -16.3318 C   0  0  0  0  0  0  0  0  0  0  0  0
   20.2723   -2.2705  -15.2347 C   0  0  0  0  0  0  0  0  0  0  0  0
   20.1364   -3.6437  -15.0872 C   0  0  0  0  0  0  0  0  0  0  0  0
   20.6180   -4.5531  -16.0150 C   0  0  0  0  0  0  0  0  0  0  0  0
   20.4875   -6.0182  -15.8662 C   0  0  0  0  0  0  0  0  0  0  0  0
   21.7516   -6.6113  -15.3634 C   0  0  2  0  0  0  0  0  0  0  0  0
   21.6752   -8.0606  -15.2560 N   0  0  0  0  0  0  0  0  0  0  0  0
   22.0643   -6.0710  -14.0140 C   0  0  0  0  0  0  0  0  0  0  0  0
   21.4670   -6.6824  -12.9092 O   0  0  0  0  0  0  0  0  0  0  0  0
   21.2610   -3.9970  -17.1300 C   0  0  0  0  0  0  0  0  0  0  0  0
   21.3934   -2.6325  -17.2717 C   0  0  0  0  0  0  0  0  0  0  0  0
   22.8182   -5.1114  -13.7740 O   0  0  0  0  0  0  0  0  0  0  0  0
  2  1  1  1
  2  3  1  0
  3  4  1  0
  4  5  1  0
  5  6  2  0
  5  9  1  0
  7  8  2  0
  7  2  1  0
 11 10  1  1
 11 13  1  0
 12 11  1  0
 13 14  1  6
 14  7  1  0
 15 24  1  0
 15 13  1  0
 16 15  2  0
 18 17  1  0
 19 18  2  0
 20 19  1  0
 21 27  1  0
 21 20  2  0
 23 22  1  1
 22 21  1  0
 23 25  1  0
 23 24  1  0
 25 26  1  0
 27 28  2  0
 28 18  1  0
 29 25  2  0
M  END
$$$$
