EVY.pdb
     RDKit          3D

 29 29  0  0  1  0  0  0  0  0999 V2000
   22.3946  -20.2714   -9.1129 N   0  0  0  0  0  0  0  0  0  0  0  0
   22.1477  -20.7142  -10.4759 C   0  0  1  0  0  0  0  0  0  0  0  0
   20.8405  -20.1718  -10.9607 C   0  0  0  0  0  0  0  0  0  0  0  0
   19.6338  -20.8484  -10.3932 C   0  0  0  0  0  0  0  0  0  0  0  0
   18.4125  -20.3242  -11.0217 C   0  0  0  0  0  0  0  0  0  0  0  0
   17.8617  -20.8147  -12.0349 O   0  0  0  0  0  0  0  0  0  0  0  0
   23.2324  -20.2315  -11.3868 C   0  0  0  0  0  0  0  0  0  0  0  0
   23.7008  -19.0907  -11.1693 O   0  0  0  0  0  0  0  0  0  0  0  0
   17.7816  -19.1890  -10.4771 O   0  0  0  0  0  0  0  0  0  0  0  0
   26.5245  -21.7730  -11.7455 C   0  0  0  0  0  0  0  0  0  0  0  0
   25.9672  -21.6428  -13.1320 C   0  0  2  0  0  0  0  0  0  0  0  0
   27.0736  -21.1523  -14.0450 C   0  0  0  0  0  0  0  0  0  0  0  0
   24.8302  -20.6511  -13.2270 C   0  0  2  0  0  0  0  0  0  0  0  0
   23.6924  -21.0442  -12.4368 N   0  0  0  0  0  0  0  0  0  0  0  0
   24.4066  -20.4230  -14.6206 C   0  0  0  0  0  0  0  0  0  0  0  0
   23.7310  -21.3260  -15.1790 O   0  0  0  0  0  0  0  0  0  0  0  0
   18.5610  -17.5545  -14.1091 O   0  0  0  0  0  0  0  0  0  0  0  0
   19.7918  -17.5818  -14.7611 C   0  0  0  0  0  0  0  0  0  0  0  0
   20.8411  -16.7963  -14.3717 C   0  0  0  0  0  0  0  0  0  0  0  0
   22.0499  -16.8559  -15.0509 C   0  0  0  0  0  0  0  0  0  0  0  0
   22.2650  -17.6905  -16.1357 C   0  0  0  0  0  0  0  0  0  0  0  0
   23.5444  -17.7577  -16.8733 C   0  0  0  0  0  0  0  0  0  0  0  0
   24.1935  -19.0788  -16.6829 C   0  0  2  0  0  0  0  0  0  0  0  0
   24.7337  -19.2384  -15.3410 N   0  0  0  0  0  0  0  0  0  0  0  0
   25.3146  -19.2371  -17.6465 C   0  0  0  0  0  0  0  0  0  0  0  0
   25.0030  -19.5901  -18.9615 O   0  0  0  0  0  0  0  0  0  0  0  0
   21.1732  -18.4850  -16.5138 C   0  0  0  0  0  0  0  0  0  0  0  0
   19.9749  -18.4221  -15.8359 C   0  0  0  0  0  0  0  0  0  0  0  0
   26.5211  -19.0831  -17.3868 O   0  0  0  0  0  0  0  0  0  0  0  0
  2  1  1  1
  2  3  1  0
  3  4  1  0
  4  5  1  0
  5  6  2  0
  5  9  1  0
  7  8  2  0
  7  2  1  0
 11 10  1  1
 11 13  1  0
 12 11  1  0
 13 14  1  1
 14  7  1  0
 15 24  1  0
 15 13  1  0
 16 15  2  0
 18 17  1  0
 19 18  2  0
 20 19  1  0
 21 27  1  0
 21 20  2  0
 23 22  1  1
 22 21  1  0
 23 25  1  0
 23 24  1  0
 25 26  1  0
 27 28  2  0
 28 18  1  0
 29 25  2  0
M  END
$$$$
