EVY.pdb
     RDKit          3D

 29 29  0  0  1  0  0  0  0  0999 V2000
   21.0108  -13.3659  -19.1381 N   0  0  0  0  0  0  0  0  0  0  0  0
   21.4723  -11.9884  -19.0725 C   0  0  1  0  0  0  0  0  0  0  0  0
   20.7612  -11.1618  -20.0967 C   0  0  0  0  0  0  0  0  0  0  0  0
   21.0965  -11.4987  -21.5145 C   0  0  0  0  0  0  0  0  0  0  0  0
   20.2683  -12.6197  -21.9819 C   0  0  0  0  0  0  0  0  0  0  0  0
   19.0288  -12.7101  -21.8203 O   0  0  0  0  0  0  0  0  0  0  0  0
   21.2004  -11.4100  -17.7193 C   0  0  0  0  0  0  0  0  0  0  0  0
   20.1232  -11.7264  -17.1646 O   0  0  0  0  0  0  0  0  0  0  0  0
   20.8713  -13.6923  -22.6669 O   0  0  0  0  0  0  0  0  0  0  0  0
   22.5077   -9.8853  -13.4042 C   0  0  0  0  0  0  0  0  0  0  0  0
   22.6470  -10.5986  -14.7164 C   0  0  2  0  0  0  0  0  0  0  0  0
   24.1081  -10.5712  -15.1197 C   0  0  0  0  0  0  0  0  0  0  0  0
   21.8580   -9.9529  -15.8328 C   0  0  2  0  0  0  0  0  0  0  0  0
   22.1322  -10.5498  -17.1141 N   0  0  0  0  0  0  0  0  0  0  0  0
   22.0890   -8.4987  -15.9075 C   0  0  0  0  0  0  0  0  0  0  0  0
   23.0946   -8.1012  -16.5513 O   0  0  0  0  0  0  0  0  0  0  0  0
   15.9034   -6.5267  -18.5549 O   0  0  0  0  0  0  0  0  0  0  0  0
   17.2112   -6.3065  -18.1286 C   0  0  0  0  0  0  0  0  0  0  0  0
   17.5281   -5.3376  -17.2173 C   0  0  0  0  0  0  0  0  0  0  0  0
   18.8453   -5.1529  -16.8213 C   0  0  0  0  0  0  0  0  0  0  0  0
   19.8936   -5.9160  -17.3096 C   0  0  0  0  0  0  0  0  0  0  0  0
   21.3019   -5.7244  -16.9028 C   0  0  0  0  0  0  0  0  0  0  0  0
   21.5028   -6.1348  -15.4907 C   0  0  2  0  0  0  0  0  0  0  0  0
   21.2292   -7.5492  -15.2843 N   0  0  0  0  0  0  0  0  0  0  0  0
   20.5945   -5.3615  -14.6033 C   0  0  0  0  0  0  0  0  0  0  0  0
   19.5870   -6.0573  -13.9309 O   0  0  0  0  0  0  0  0  0  0  0  0
   19.5411   -6.9021  -18.2421 C   0  0  0  0  0  0  0  0  0  0  0  0
   18.2314   -7.0814  -18.6320 C   0  0  0  0  0  0  0  0  0  0  0  0
   20.6485   -4.1354  -14.4016 O   0  0  0  0  0  0  0  0  0  0  0  0
  2  1  1  1
  2  3  1  0
  3  4  1  0
  4  5  1  0
  5  6  2  0
  5  9  1  0
  7  8  2  0
  7  2  1  0
 11 10  1  1
 11 13  1  0
 12 11  1  0
 13 14  1  6
 14  7  1  0
 15 24  1  0
 15 13  1  0
 16 15  2  0
 18 17  1  0
 19 18  2  0
 20 19  1  0
 21 27  1  0
 21 20  2  0
 23 22  1  6
 22 21  1  0
 23 25  1  0
 23 24  1  0
 25 26  1  0
 27 28  2  0
 28 18  1  0
 29 25  2  0
M  END
$$$$
