EVY.pdb
     RDKit          3D

 29 29  0  0  1  0  0  0  0  0999 V2000
   17.1440  -12.6552  -17.0774 N   0  0  0  0  0  0  0  0  0  0  0  0
   17.0240  -11.6603  -16.0236 C   0  0  1  0  0  0  0  0  0  0  0  0
   17.6308  -12.1797  -14.7588 C   0  0  0  0  0  0  0  0  0  0  0  0
   16.8307  -13.2391  -14.0705 C   0  0  0  0  0  0  0  0  0  0  0  0
   16.9579  -14.5183  -14.7838 C   0  0  0  0  0  0  0  0  0  0  0  0
   16.0404  -15.0679  -15.4370 O   0  0  0  0  0  0  0  0  0  0  0  0
   17.7326  -10.4004  -16.4111 C   0  0  0  0  0  0  0  0  0  0  0  0
   18.7621  -10.5130  -17.1152 O   0  0  0  0  0  0  0  0  0  0  0  0
   18.1839  -15.2107  -14.7578 O   0  0  0  0  0  0  0  0  0  0  0  0
   16.5556   -7.5595  -18.6068 C   0  0  0  0  0  0  0  0  0  0  0  0
   16.8427   -7.0667  -17.2195 C   0  0  2  0  0  0  0  0  0  0  0  0
   17.4402   -5.6773  -17.3227 C   0  0  0  0  0  0  0  0  0  0  0  0
   17.8339   -7.9305  -16.4731 C   0  0  2  0  0  0  0  0  0  0  0  0
   17.2429   -9.1520  -15.9916 N   0  0  0  0  0  0  0  0  0  0  0  0
   18.4624   -7.2114  -15.3500 C   0  0  0  0  0  0  0  0  0  0  0  0
   17.7580   -6.9952  -14.3299 O   0  0  0  0  0  0  0  0  0  0  0  0
   25.4740   -7.1586  -17.8499 O   0  0  0  0  0  0  0  0  0  0  0  0
   24.5121   -7.1049  -16.8437 C   0  0  0  0  0  0  0  0  0  0  0  0
   23.6218   -8.1207  -16.6307 C   0  0  0  0  0  0  0  0  0  0  0  0
   22.6795   -8.0245  -15.6164 C   0  0  0  0  0  0  0  0  0  0  0  0
   22.5830   -6.9251  -14.7786 C   0  0  0  0  0  0  0  0  0  0  0  0
   21.5790   -6.8061  -13.7000 C   0  0  0  0  0  0  0  0  0  0  0  0
   20.3556   -6.1250  -14.1920 C   0  0  2  0  0  0  0  0  0  0  0  0
   19.8132   -6.7604  -15.3836 N   0  0  0  0  0  0  0  0  0  0  0  0
   20.6635   -4.7105  -14.5307 C   0  0  0  0  0  0  0  0  0  0  0  0
   20.9934   -3.8438  -13.4861 O   0  0  0  0  0  0  0  0  0  0  0  0
   23.5076   -5.8986  -15.0183 C   0  0  0  0  0  0  0  0  0  0  0  0
   24.4413   -5.9991  -16.0270 C   0  0  0  0  0  0  0  0  0  0  0  0
   20.6538   -4.2199  -15.6735 O   0  0  0  0  0  0  0  0  0  0  0  0
  2  1  1  6
  2  3  1  0
  3  4  1  0
  4  5  1  0
  5  6  2  0
  5  9  1  0
  7  8  2  0
  7  2  1  0
 11 10  1  6
 11 13  1  0
 12 11  1  0
 13 14  1  1
 14  7  1  0
 15 24  1  0
 15 13  1  0
 16 15  2  0
 18 17  1  0
 19 18  2  0
 20 19  1  0
 21 27  1  0
 21 20  2  0
 23 22  1  6
 22 21  1  0
 23 25  1  0
 23 24  1  0
 25 26  1  0
 27 28  2  0
 28 18  1  0
 29 25  2  0
M  END
$$$$
