EVY.pdb
     RDKit          3D

 29 29  0  0  1  0  0  0  0  0999 V2000
   21.4042  -17.2946  -19.5986 N   0  0  0  0  0  0  0  0  0  0  0  0
   22.0590  -17.0700  -18.3197 C   0  0  1  0  0  0  0  0  0  0  0  0
   21.8512  -15.6551  -17.8806 C   0  0  0  0  0  0  0  0  0  0  0  0
   22.5488  -14.6316  -18.7183 C   0  0  0  0  0  0  0  0  0  0  0  0
   21.5700  -13.8452  -19.4830 C   0  0  0  0  0  0  0  0  0  0  0  0
   20.6259  -13.1927  -18.9796 O   0  0  0  0  0  0  0  0  0  0  0  0
   21.4943  -17.9818  -17.2761 C   0  0  0  0  0  0  0  0  0  0  0  0
   20.3207  -17.7647  -16.8968 O   0  0  0  0  0  0  0  0  0  0  0  0
   21.6635  -13.7932  -20.8872 O   0  0  0  0  0  0  0  0  0  0  0  0
   22.5206  -21.9860  -17.0464 C   0  0  0  0  0  0  0  0  0  0  0  0
   21.3483  -21.2840  -16.4275 C   0  0  2  0  0  0  0  0  0  0  0  0
   20.3296  -21.0095  -17.5162 C   0  0  0  0  0  0  0  0  0  0  0  0
   21.7105  -19.9559  -15.8026 C   0  0  2  0  0  0  0  0  0  0  0  0
   22.2680  -19.0343  -16.7582 N   0  0  0  0  0  0  0  0  0  0  0  0
   22.6392  -20.1105  -14.6680 C   0  0  0  0  0  0  0  0  0  0  0  0
   23.8689  -19.9769  -14.8997 O   0  0  0  0  0  0  0  0  0  0  0  0
   27.0811  -20.5846   -7.2440 O   0  0  0  0  0  0  0  0  0  0  0  0
   26.1371  -20.3400   -8.2388 C   0  0  0  0  0  0  0  0  0  0  0  0
   24.9730  -21.0515   -8.3306 C   0  0  0  0  0  0  0  0  0  0  0  0
   24.0606  -20.7740   -9.3389 C   0  0  0  0  0  0  0  0  0  0  0  0
   24.2646  -19.7870  -10.2897 C   0  0  0  0  0  0  0  0  0  0  0  0
   23.3052  -19.4868  -11.3737 C   0  0  0  0  0  0  0  0  0  0  0  0
   23.2044  -20.6267  -12.3187 C   0  0  2  0  0  0  0  0  0  0  0  0
   22.1978  -20.4031  -13.3456 N   0  0  0  0  0  0  0  0  0  0  0  0
   22.8363  -21.8651  -11.5828 C   0  0  0  0  0  0  0  0  0  0  0  0
   23.8680  -22.7051  -11.1572 O   0  0  0  0  0  0  0  0  0  0  0  0
   25.4654  -19.0727  -10.1725 C   0  0  0  0  0  0  0  0  0  0  0  0
   26.3681  -19.3523   -9.1692 C   0  0  0  0  0  0  0  0  0  0  0  0
   21.6790  -22.2281  -11.3077 O   0  0  0  0  0  0  0  0  0  0  0  0
  2  1  1  6
  2  3  1  0
  3  4  1  0
  4  5  1  0
  5  6  2  0
  5  9  1  0
  7  8  2  0
  7  2  1  0
 11 10  1  6
 11 13  1  0
 12 11  1  0
 13 14  1  6
 14  7  1  0
 15 24  1  0
 15 13  1  0
 16 15  2  0
 18 17  1  0
 19 18  2  0
 20 19  1  0
 21 27  1  0
 21 20  2  0
 23 22  1  1
 22 21  1  0
 23 25  1  0
 23 24  1  0
 25 26  1  0
 27 28  2  0
 28 18  1  0
 29 25  2  0
M  END
$$$$
