EVY.pdb
     RDKit          3D

 29 29  0  0  1  0  0  0  0  0999 V2000
   18.4871  -13.6648  -15.7997 N   0  0  0  0  0  0  0  0  0  0  0  0
   18.6146  -12.3462  -16.3997 C   0  0  1  0  0  0  0  0  0  0  0  0
   17.2739  -11.6868  -16.4744 C   0  0  0  0  0  0  0  0  0  0  0  0
   16.3065  -12.3411  -17.4081 C   0  0  0  0  0  0  0  0  0  0  0  0
   15.2884  -13.0829  -16.6500 C   0  0  0  0  0  0  0  0  0  0  0  0
   14.6405  -14.0615  -17.0896 O   0  0  0  0  0  0  0  0  0  0  0  0
   19.5253  -11.4856  -15.5815 C   0  0  0  0  0  0  0  0  0  0  0  0
   19.4302  -11.5694  -14.3357 O   0  0  0  0  0  0  0  0  0  0  0  0
   14.9881  -12.6997  -15.3286 O   0  0  0  0  0  0  0  0  0  0  0  0
   23.1278  -11.8407  -15.4271 C   0  0  0  0  0  0  0  0  0  0  0  0
   22.8554  -10.4166  -15.8113 C   0  0  2  0  0  0  0  0  0  0  0  0
   23.8366   -9.5287  -15.0717 C   0  0  0  0  0  0  0  0  0  0  0  0
   21.4632   -9.9557  -15.4436 C   0  0  2  0  0  0  0  0  0  0  0  0
   20.4440  -10.6266  -16.2081 N   0  0  0  0  0  0  0  0  0  0  0  0
   21.3052   -8.4969  -15.5857 C   0  0  0  0  0  0  0  0  0  0  0  0
   21.3356   -8.0184  -16.7493 O   0  0  0  0  0  0  0  0  0  0  0  0
   19.5613    0.0144  -14.8944 O   0  0  0  0  0  0  0  0  0  0  0  0
   19.7242   -1.3357  -14.5923 C   0  0  0  0  0  0  0  0  0  0  0  0
   20.8324   -1.8102  -13.9469 C   0  0  0  0  0  0  0  0  0  0  0  0
   20.9530   -3.1640  -13.6663 C   0  0  0  0  0  0  0  0  0  0  0  0
   19.9867   -4.0948  -14.0121 C   0  0  0  0  0  0  0  0  0  0  0  0
   20.1063   -5.5405  -13.7269 C   0  0  0  0  0  0  0  0  0  0  0  0
   20.9827   -6.2034  -14.7244 C   0  0  2  0  0  0  0  0  0  0  0  0
   21.1257   -7.6292  -14.4703 N   0  0  0  0  0  0  0  0  0  0  0  0
   22.3397   -5.5969  -14.6905 C   0  0  0  0  0  0  0  0  0  0  0  0
   22.7020   -4.7437  -15.7354 O   0  0  0  0  0  0  0  0  0  0  0  0
   18.8612   -3.5818  -14.6724 C   0  0  0  0  0  0  0  0  0  0  0  0
   18.7462   -2.2364  -14.9486 C   0  0  0  0  0  0  0  0  0  0  0  0
   23.1947   -5.7818  -13.8063 O   0  0  0  0  0  0  0  0  0  0  0  0
  2  1  1  1
  2  3  1  0
  3  4  1  0
  4  5  1  0
  5  6  2  0
  5  9  1  0
  7  8  2  0
  7  2  1  0
 11 10  1  1
 11 13  1  0
 12 11  1  0
 13 14  1  6
 14  7  1  0
 15 24  1  0
 15 13  1  0
 16 15  2  0
 18 17  1  0
 19 18  2  0
 20 19  1  0
 21 27  1  0
 21 20  2  0
 23 22  1  1
 22 21  1  0
 23 25  1  0
 23 24  1  0
 25 26  1  0
 27 28  2  0
 28 18  1  0
 29 25  2  0
M  END
$$$$
