EVY.pdb
     RDKit          3D

 29 29  0  0  1  0  0  0  0  0999 V2000
   22.1682  -13.8876  -18.5654 N   0  0  0  0  0  0  0  0  0  0  0  0
   22.6758  -12.5781  -18.9427 C   0  0  1  0  0  0  0  0  0  0  0  0
   21.6479  -11.8425  -19.7427 C   0  0  0  0  0  0  0  0  0  0  0  0
   21.2414  -12.5198  -21.0123 C   0  0  0  0  0  0  0  0  0  0  0  0
   19.9176  -13.1405  -20.8579 C   0  0  0  0  0  0  0  0  0  0  0  0
   18.8490  -12.5117  -20.6762 O   0  0  0  0  0  0  0  0  0  0  0  0
   22.9995  -11.7720  -17.7241 C   0  0  0  0  0  0  0  0  0  0  0  0
   22.2795  -11.9427  -16.7139 O   0  0  0  0  0  0  0  0  0  0  0  0
   19.7958  -14.5425  -20.9123 O   0  0  0  0  0  0  0  0  0  0  0  0
   26.3146  -11.7978  -15.9590 C   0  0  0  0  0  0  0  0  0  0  0  0
   25.9421  -10.3695  -16.2257 C   0  0  2  0  0  0  0  0  0  0  0  0
   26.2513   -9.5576  -14.9833 C   0  0  0  0  0  0  0  0  0  0  0  0
   24.4735  -10.1837  -16.5328 C   0  0  2  0  0  0  0  0  0  0  0  0
   24.0743  -10.8670  -17.7357 N   0  0  0  0  0  0  0  0  0  0  0  0
   24.1015   -8.7603  -16.6285 C   0  0  0  0  0  0  0  0  0  0  0  0
   24.6385   -8.0782  -17.5396 O   0  0  0  0  0  0  0  0  0  0  0  0
   20.7233   -0.8482  -17.1273 O   0  0  0  0  0  0  0  0  0  0  0  0
   20.9713   -2.2153  -17.0263 C   0  0  0  0  0  0  0  0  0  0  0  0
   21.7817   -2.8766  -17.9070 C   0  0  0  0  0  0  0  0  0  0  0  0
   22.0005   -4.2400  -17.7686 C   0  0  0  0  0  0  0  0  0  0  0  0
   21.4286   -4.9969  -16.7588 C   0  0  0  0  0  0  0  0  0  0  0  0
   21.6465   -6.4510  -16.6048 C   0  0  0  0  0  0  0  0  0  0  0  0
   22.9191   -6.7202  -15.8902 C   0  0  2  0  0  0  0  0  0  0  0  0
   23.1748   -8.1448  -15.7389 N   0  0  0  0  0  0  0  0  0  0  0  0
   22.8751   -6.1190  -14.5311 C   0  0  0  0  0  0  0  0  0  0  0  0
   23.3967   -4.8337  -14.3664 O   0  0  0  0  0  0  0  0  0  0  0  0
   20.6027   -4.2944  -15.8698 C   0  0  0  0  0  0  0  0  0  0  0  0
   20.3886   -2.9403  -16.0116 C   0  0  0  0  0  0  0  0  0  0  0  0
   22.4113   -6.6618  -13.5128 O   0  0  0  0  0  0  0  0  0  0  0  0
  2  1  1  1
  2  3  1  0
  3  4  1  0
  4  5  1  0
  5  6  2  0
  5  9  1  0
  7  8  2  0
  7  2  1  0
 11 10  1  1
 11 13  1  0
 12 11  1  0
 13 14  1  6
 14  7  1  0
 15 24  1  0
 15 13  1  0
 16 15  2  0
 18 17  1  0
 19 18  2  0
 20 19  1  0
 21 27  1  0
 21 20  2  0
 23 22  1  1
 22 21  1  0
 23 25  1  0
 23 24  1  0
 25 26  1  0
 27 28  2  0
 28 18  1  0
 29 25  2  0
M  END
$$$$
