EVY.pdb
     RDKit          3D

 29 29  0  0  1  0  0  0  0  0999 V2000
   21.7617  -24.1018  -17.7449 N   0  0  0  0  0  0  0  0  0  0  0  0
   22.5186  -25.0466  -16.9390 C   0  0  1  0  0  0  0  0  0  0  0  0
   21.8432  -26.3813  -16.9471 C   0  0  0  0  0  0  0  0  0  0  0  0
   20.5015  -26.4071  -16.2874 C   0  0  0  0  0  0  0  0  0  0  0  0
   20.4823  -27.4067  -15.2097 C   0  0  0  0  0  0  0  0  0  0  0  0
   19.5042  -27.6313  -14.4590 O   0  0  0  0  0  0  0  0  0  0  0  0
   23.9025  -25.2082  -17.4852 C   0  0  0  0  0  0  0  0  0  0  0  0
   24.0161  -25.3922  -18.7186 O   0  0  0  0  0  0  0  0  0  0  0  0
   21.6259  -28.1924  -14.9687 O   0  0  0  0  0  0  0  0  0  0  0  0
   26.7214  -22.7404  -17.2993 C   0  0  0  0  0  0  0  0  0  0  0  0
   27.2025  -24.0454  -16.7376 C   0  0  2  0  0  0  0  0  0  0  0  0
   28.6073  -24.2944  -17.2500 C   0  0  0  0  0  0  0  0  0  0  0  0
   26.3533  -25.2240  -17.1562 C   0  0  2  0  0  0  0  0  0  0  0  0
   25.0153  -25.1503  -16.6292 N   0  0  0  0  0  0  0  0  0  0  0  0
   26.9625  -26.5112  -16.7748 C   0  0  0  0  0  0  0  0  0  0  0  0
   27.3223  -26.6530  -15.5772 O   0  0  0  0  0  0  0  0  0  0  0  0
   29.2967  -34.8080  -15.6563 O   0  0  0  0  0  0  0  0  0  0  0  0
   28.6856  -33.5863  -15.9294 C   0  0  0  0  0  0  0  0  0  0  0  0
   28.5067  -32.6294  -14.9692 C   0  0  0  0  0  0  0  0  0  0  0  0
   27.8921  -31.4261  -15.2860 C   0  0  0  0  0  0  0  0  0  0  0  0
   27.4334  -31.1257  -16.5584 C   0  0  0  0  0  0  0  0  0  0  0  0
   26.7696  -29.8517  -16.9075 C   0  0  0  0  0  0  0  0  0  0  0  0
   27.7728  -28.8030  -17.2184 C   0  0  2  0  0  0  0  0  0  0  0  0
   27.1555  -27.5765  -17.7006 N   0  0  0  0  0  0  0  0  0  0  0  0
   28.7044  -29.2877  -18.2708 C   0  0  0  0  0  0  0  0  0  0  0  0
   29.9731  -29.7177  -17.8748 O   0  0  0  0  0  0  0  0  0  0  0  0
   27.6295  -32.1237  -17.5236 C   0  0  0  0  0  0  0  0  0  0  0  0
   28.2405  -33.3169  -17.2038 C   0  0  0  0  0  0  0  0  0  0  0  0
   28.4561  -29.3462  -19.4881 O   0  0  0  0  0  0  0  0  0  0  0  0
  2  1  1  6
  2  3  1  0
  3  4  1  0
  4  5  1  0
  5  6  2  0
  5  9  1  0
  7  8  2  0
  7  2  1  0
 11 10  1  6
 11 13  1  0
 12 11  1  0
 13 14  1  1
 14  7  1  0
 15 24  1  0
 15 13  1  0
 16 15  2  0
 18 17  1  0
 19 18  2  0
 20 19  1  0
 21 27  1  0
 21 20  2  0
 23 22  1  6
 22 21  1  0
 23 25  1  0
 23 24  1  0
 25 26  1  0
 27 28  2  0
 28 18  1  0
 29 25  2  0
M  END
$$$$
