EVY.pdb
     RDKit          3D

 29 29  0  0  1  0  0  0  0  0999 V2000
   20.1243   -6.3658  -20.5768 N   0  0  0  0  0  0  0  0  0  0  0  0
   19.4217   -5.0995  -20.4432 C   0  0  1  0  0  0  0  0  0  0  0  0
   18.0786   -5.3232  -19.8237 C   0  0  0  0  0  0  0  0  0  0  0  0
   17.1316   -6.1262  -20.6570 C   0  0  0  0  0  0  0  0  0  0  0  0
   15.8529   -6.2989  -19.9525 C   0  0  0  0  0  0  0  0  0  0  0  0
   15.7244   -6.3623  -18.7076 O   0  0  0  0  0  0  0  0  0  0  0  0
   20.1980   -4.1603  -19.5744 C   0  0  0  0  0  0  0  0  0  0  0  0
   20.9535   -4.6654  -18.7129 O   0  0  0  0  0  0  0  0  0  0  0  0
   14.6594   -6.4047  -20.6926 O   0  0  0  0  0  0  0  0  0  0  0  0
   22.9689   -2.1375  -20.4545 C   0  0  0  0  0  0  0  0  0  0  0  0
   21.9377   -1.1912  -19.9148 C   0  0  2  0  0  0  0  0  0  0  0  0
   22.6467   -0.1368  -19.0878 C   0  0  0  0  0  0  0  0  0  0  0  0
   20.9236   -1.8629  -19.0171 C   0  0  2  0  0  0  0  0  0  0  0  0
   20.0695   -2.7706  -19.7382 N   0  0  0  0  0  0  0  0  0  0  0  0
   20.0972   -0.8866  -18.2841 C   0  0  0  0  0  0  0  0  0  0  0  0
   19.3535   -0.1293  -18.9601 O   0  0  0  0  0  0  0  0  0  0  0  0
   14.0391   -3.3562  -17.2347 O   0  0  0  0  0  0  0  0  0  0  0  0
   15.0925   -2.6012  -16.7236 C   0  0  0  0  0  0  0  0  0  0  0  0
   15.0012   -1.2486  -16.5453 C   0  0  0  0  0  0  0  0  0  0  0  0
   16.0763   -0.5360  -16.0332 C   0  0  0  0  0  0  0  0  0  0  0  0
   17.2764   -1.1317  -15.6801 C   0  0  0  0  0  0  0  0  0  0  0  0
   18.4322   -0.3835  -15.1416 C   0  0  0  0  0  0  0  0  0  0  0  0
   19.2373    0.2048  -16.2409 C   0  0  2  0  0  0  0  0  0  0  0  0
   20.1159   -0.7736  -16.8642 N   0  0  0  0  0  0  0  0  0  0  0  0
   20.0847    1.3076  -15.7153 C   0  0  0  0  0  0  0  0  0  0  0  0
   19.4467    2.4643  -15.2614 O   0  0  0  0  0  0  0  0  0  0  0  0
   17.3431   -2.5189  -15.8728 C   0  0  0  0  0  0  0  0  0  0  0  0
   16.2725   -3.2220  -16.3816 C   0  0  0  0  0  0  0  0  0  0  0  0
   21.3262    1.2962  -15.6419 O   0  0  0  0  0  0  0  0  0  0  0  0
  2  1  1  1
  2  3  1  0
  3  4  1  0
  4  5  1  0
  5  6  2  0
  5  9  1  0
  7  8  2  0
  7  2  1  0
 11 10  1  1
 11 13  1  0
 12 11  1  0
 13 14  1  6
 14  7  1  0
 15 24  1  0
 15 13  1  0
 16 15  2  0
 18 17  1  0
 19 18  2  0
 20 19  1  0
 21 27  1  0
 21 20  2  0
 23 22  1  1
 22 21  1  0
 23 25  1  0
 23 24  1  0
 25 26  1  0
 27 28  2  0
 28 18  1  0
 29 25  2  0
M  END
$$$$
