EVY.pdb
     RDKit          3D

 29 29  0  0  1  0  0  0  0  0999 V2000
   26.7156   -9.1928  -21.5461 N   0  0  0  0  0  0  0  0  0  0  0  0
   26.7050   -8.3281  -20.3768 C   0  0  1  0  0  0  0  0  0  0  0  0
   26.1485   -6.9873  -20.7377 C   0  0  0  0  0  0  0  0  0  0  0  0
   26.9966   -6.1904  -21.6767 C   0  0  0  0  0  0  0  0  0  0  0  0
   26.3930   -4.8711  -21.9144 C   0  0  0  0  0  0  0  0  0  0  0  0
   25.4071   -4.6586  -22.6581 O   0  0  0  0  0  0  0  0  0  0  0  0
   25.8577   -8.9217  -19.2955 C   0  0  0  0  0  0  0  0  0  0  0  0
   24.9346   -9.6920  -19.6459 O   0  0  0  0  0  0  0  0  0  0  0  0
   26.9306   -3.7352  -21.2790 O   0  0  0  0  0  0  0  0  0  0  0  0
   27.2252  -11.0357  -16.5462 C   0  0  0  0  0  0  0  0  0  0  0  0
   26.3791   -9.9672  -15.9198 C   0  0  2  0  0  0  0  0  0  0  0  0
   25.5468  -10.6018  -14.8231 C   0  0  0  0  0  0  0  0  0  0  0  0
   25.4229   -9.3165  -16.8934 C   0  0  2  0  0  0  0  0  0  0  0  0
   26.1076   -8.6140  -17.9475 N   0  0  0  0  0  0  0  0  0  0  0  0
   24.4829   -8.4011  -16.2213 C   0  0  0  0  0  0  0  0  0  0  0  0
   24.9519   -7.3405  -15.7326 O   0  0  0  0  0  0  0  0  0  0  0  0
   18.0271  -11.7111  -18.0506 O   0  0  0  0  0  0  0  0  0  0  0  0
   18.8062  -10.6199  -17.6728 C   0  0  0  0  0  0  0  0  0  0  0  0
   19.8740  -10.1945  -18.4135 C   0  0  0  0  0  0  0  0  0  0  0  0
   20.6230   -9.1023  -17.9988 C   0  0  0  0  0  0  0  0  0  0  0  0
   20.3454   -8.3933  -16.8412 C   0  0  0  0  0  0  0  0  0  0  0  0
   21.1399   -7.2337  -16.3835 C   0  0  0  0  0  0  0  0  0  0  0  0
   22.2398   -7.6694  -15.4873 C   0  0  2  0  0  0  0  0  0  0  0  0
   23.0896   -8.6750  -16.1075 N   0  0  0  0  0  0  0  0  0  0  0  0
   21.6777   -8.2544  -14.2414 C   0  0  0  0  0  0  0  0  0  0  0  0
   21.0904   -7.3867  -13.3175 O   0  0  0  0  0  0  0  0  0  0  0  0
   19.2457   -8.8501  -16.1009 C   0  0  0  0  0  0  0  0  0  0  0  0
   18.5051   -9.9353  -16.5172 C   0  0  0  0  0  0  0  0  0  0  0  0
   21.6825   -9.4611  -13.9405 O   0  0  0  0  0  0  0  0  0  0  0  0
  2  1  1  6
  2  3  1  0
  3  4  1  0
  4  5  1  0
  5  6  2  0
  5  9  1  0
  7  8  2  0
  7  2  1  0
 11 10  1  6
 11 13  1  0
 12 11  1  0
 13 14  1  6
 14  7  1  0
 15 24  1  0
 15 13  1  0
 16 15  2  0
 18 17  1  0
 19 18  2  0
 20 19  1  0
 21 27  1  0
 21 20  2  0
 23 22  1  6
 22 21  1  0
 23 25  1  0
 23 24  1  0
 25 26  1  0
 27 28  2  0
 28 18  1  0
 29 25  2  0
M  END
$$$$
