EVY.pdb
     RDKit          3D

 29 29  0  0  1  0  0  0  0  0999 V2000
   17.1845  -10.7030  -17.0004 N   0  0  0  0  0  0  0  0  0  0  0  0
   18.4264  -10.0980  -17.4551 C   0  0  1  0  0  0  0  0  0  0  0  0
   18.1366   -8.8305  -18.1949 C   0  0  0  0  0  0  0  0  0  0  0  0
   17.3953   -9.0126  -19.4806 C   0  0  0  0  0  0  0  0  0  0  0  0
   18.2893   -9.5591  -20.5118 C   0  0  0  0  0  0  0  0  0  0  0  0
   19.5365   -9.6309  -20.4129 O   0  0  0  0  0  0  0  0  0  0  0  0
   19.3099   -9.7798  -16.2899 C   0  0  0  0  0  0  0  0  0  0  0  0
   18.7519   -9.5138  -15.2009 O   0  0  0  0  0  0  0  0  0  0  0  0
   17.7461  -10.0496  -21.7149 O   0  0  0  0  0  0  0  0  0  0  0  0
   22.0472  -11.8454  -14.6318 C   0  0  0  0  0  0  0  0  0  0  0  0
   22.6171  -10.5359  -15.0903 C   0  0  2  0  0  0  0  0  0  0  0  0
   23.5510  -10.0206  -14.0131 C   0  0  0  0  0  0  0  0  0  0  0  0
   21.5645   -9.4754  -15.3208 C   0  0  2  0  0  0  0  0  0  0  0  0
   20.7075   -9.7869  -16.4353 N   0  0  0  0  0  0  0  0  0  0  0  0
   22.1553   -8.1384  -15.5126 C   0  0  0  0  0  0  0  0  0  0  0  0
   22.9635   -7.9902  -16.4658 O   0  0  0  0  0  0  0  0  0  0  0  0
   16.6808   -3.1460  -15.2456 O   0  0  0  0  0  0  0  0  0  0  0  0
   17.9834   -3.5935  -15.4547 C   0  0  0  0  0  0  0  0  0  0  0  0
   19.0735   -2.8041  -15.2132 C   0  0  0  0  0  0  0  0  0  0  0  0
   20.3537   -3.2912  -15.4362 C   0  0  0  0  0  0  0  0  0  0  0  0
   20.6025   -4.5713  -15.9044 C   0  0  0  0  0  0  0  0  0  0  0  0
   21.9604   -5.0998  -16.1542 C   0  0  0  0  0  0  0  0  0  0  0  0
   22.5004   -5.7598  -14.9395 C   0  0  2  0  0  0  0  0  0  0  0  0
   21.8488   -7.0325  -14.6687 N   0  0  0  0  0  0  0  0  0  0  0  0
   22.2996   -4.8846  -13.7545 C   0  0  0  0  0  0  0  0  0  0  0  0
   23.0301   -3.6960  -13.6869 O   0  0  0  0  0  0  0  0  0  0  0  0
   19.4677   -5.3594  -16.1435 C   0  0  0  0  0  0  0  0  0  0  0  0
   18.1985   -4.8708  -15.9204 C   0  0  0  0  0  0  0  0  0  0  0  0
   21.5315   -5.1160  -12.8040 O   0  0  0  0  0  0  0  0  0  0  0  0
  2  1  1  1
  2  3  1  0
  3  4  1  0
  4  5  1  0
  5  6  2  0
  5  9  1  0
  7  8  2  0
  7  2  1  0
 11 10  1  1
 11 13  1  0
 12 11  1  0
 13 14  1  6
 14  7  1  0
 15 24  1  0
 15 13  1  0
 16 15  2  0
 18 17  1  0
 19 18  2  0
 20 19  1  0
 21 27  1  0
 21 20  2  0
 23 22  1  6
 22 21  1  0
 23 25  1  0
 23 24  1  0
 25 26  1  0
 27 28  2  0
 28 18  1  0
 29 25  2  0
M  END
$$$$
