EVY.pdb
     RDKit          3D

 29 29  0  0  1  0  0  0  0  0999 V2000
   23.7328  -16.4793  -20.3928 N   0  0  0  0  0  0  0  0  0  0  0  0
   24.2139  -17.5784  -19.5710 C   0  0  1  0  0  0  0  0  0  0  0  0
   25.3777  -17.1284  -18.7459 C   0  0  0  0  0  0  0  0  0  0  0  0
   26.6670  -17.0123  -19.4943 C   0  0  0  0  0  0  0  0  0  0  0  0
   27.3942  -18.2895  -19.4586 C   0  0  0  0  0  0  0  0  0  0  0  0
   27.2552  -19.1679  -18.5757 O   0  0  0  0  0  0  0  0  0  0  0  0
   23.1334  -18.0560  -18.6524 C   0  0  0  0  0  0  0  0  0  0  0  0
   22.3063  -17.2075  -18.2473 O   0  0  0  0  0  0  0  0  0  0  0  0
   28.3249  -18.5891  -20.4722 O   0  0  0  0  0  0  0  0  0  0  0  0
   20.3504  -20.3642  -19.2689 C   0  0  0  0  0  0  0  0  0  0  0  0
   21.1440  -20.9215  -18.1245 C   0  0  2  0  0  0  0  0  0  0  0  0
   20.1744  -21.4669  -17.0946 C   0  0  0  0  0  0  0  0  0  0  0  0
   22.0017  -19.8859  -17.4334 C   0  0  2  0  0  0  0  0  0  0  0  0
   23.0683  -19.4079  -18.2745 N   0  0  0  0  0  0  0  0  0  0  0  0
   22.5616  -20.3853  -16.1643 C   0  0  0  0  0  0  0  0  0  0  0  0
   23.2724  -21.4227  -16.2097 O   0  0  0  0  0  0  0  0  0  0  0  0
   25.9414  -21.3910   -8.1817 O   0  0  0  0  0  0  0  0  0  0  0  0
   25.4470  -20.8903   -9.3840 C   0  0  0  0  0  0  0  0  0  0  0  0
   26.1158  -21.0411  -10.5671 C   0  0  0  0  0  0  0  0  0  0  0  0
   25.5859  -20.5254  -11.7415 C   0  0  0  0  0  0  0  0  0  0  0  0
   24.3803  -19.8442  -11.7895 C   0  0  0  0  0  0  0  0  0  0  0  0
   23.8086  -19.2826  -13.0317 C   0  0  0  0  0  0  0  0  0  0  0  0
   22.9725  -20.2909  -13.7296 C   0  0  2  0  0  0  0  0  0  0  0  0
   22.3258  -19.7453  -14.9137 N   0  0  0  0  0  0  0  0  0  0  0  0
   21.9082  -20.7868  -12.8176 C   0  0  0  0  0  0  0  0  0  0  0  0
   20.7366  -20.0340  -12.7080 O   0  0  0  0  0  0  0  0  0  0  0  0
   23.7154  -19.7039  -10.5630 C   0  0  0  0  0  0  0  0  0  0  0  0
   24.2459  -20.2180   -9.3995 C   0  0  0  0  0  0  0  0  0  0  0  0
   21.9650  -21.8235  -12.1330 O   0  0  0  0  0  0  0  0  0  0  0  0
  2  1  1  1
  2  3  1  0
  3  4  1  0
  4  5  1  0
  5  6  2  0
  5  9  1  0
  7  8  2  0
  7  2  1  0
 11 10  1  6
 11 13  1  0
 12 11  1  0
 13 14  1  6
 14  7  1  0
 15 24  1  0
 15 13  1  0
 16 15  2  0
 18 17  1  0
 19 18  2  0
 20 19  1  0
 21 27  1  0
 21 20  2  0
 23 22  1  1
 22 21  1  0
 23 25  1  0
 23 24  1  0
 25 26  1  0
 27 28  2  0
 28 18  1  0
 29 25  2  0
M  END
$$$$
