MME.pdb
     RDKit          3D

 26 25  0  0  1  0  0  0  0  0999 V2000
    8.4186  -11.4633   19.2255 C   0  0  0  0  0  0  0  0  0  0  0  0
    7.3876  -12.7344   18.4755 S   0  0  0  0  0  0  0  0  0  0  0  0
    7.6100  -14.3528   19.2418 C   0  0  0  0  0  0  0  0  0  0  0  0
    8.4910  -14.2329   20.4426 C   0  0  0  0  0  0  0  0  0  0  0  0
    8.8125  -15.5773   21.0667 C   0  0  2  0  0  0  0  0  0  0  0  0
    7.6022  -16.4182   21.0088 N   0  0  0  0  0  0  0  0  0  0  0  0
    9.2126  -15.4663   22.4671 C   0  0  0  0  0  0  0  0  0  0  0  0
   10.4337  -15.2144   22.7535 O   0  0  0  0  0  0  0  0  0  0  0  0
    5.0348  -13.3023   27.2129 C   0  0  0  0  0  0  0  0  0  0  0  0
    6.5775  -12.4855   26.6490 S   0  0  0  0  0  0  0  0  0  0  0  0
    7.2472  -13.4024   25.2200 C   0  0  0  0  0  0  0  0  0  0  0  0
    7.6624  -14.7483   25.7116 C   0  0  0  0  0  0  0  0  0  0  0  0
    8.8168  -15.3518   24.9248 C   0  0  2  0  0  0  0  0  0  0  0  0
    8.3225  -15.6202   23.5909 N   0  0  0  0  0  0  0  0  0  0  0  0
    9.2213  -16.5561   25.6665 C   0  0  0  0  0  0  0  0  0  0  0  0
    8.3796  -17.5090   25.6601 O   0  0  0  0  0  0  0  0  0  0  0  0
   10.4637  -16.5947   26.3153 N   0  0  0  0  0  0  0  0  0  0  0  0
   10.9044  -17.8716   26.8883 C   0  0  1  0  0  0  0  0  0  0  0  0
   12.2305  -18.2704   26.2608 C   0  0  0  0  0  0  0  0  0  0  0  0
   12.1558  -18.4463   24.7748 C   0  0  0  0  0  0  0  0  0  0  0  0
   13.4943  -18.8782   24.2566 C   0  0  0  0  0  0  0  0  0  0  0  0
   14.4693  -18.9041   25.0304 O   0  0  0  0  0  0  0  0  0  0  0  0
   10.9454  -17.7951   28.3586 C   0  0  0  0  0  0  0  0  0  0  0  0
   11.3052  -18.8164   28.9950 O   0  0  0  0  0  0  0  0  0  0  0  0
   13.6489  -19.2434   22.9372 O   0  0  0  0  0  0  0  0  0  0  0  0
   10.6118  -16.6651   29.0837 O   0  0  0  0  0  0  0  0  0  0  0  0
  2  3  1  0
  2  1  1  0
  4  5  1  0
  4  3  1  0
  5  6  1  1
  7  8  2  0
  7  5  1  0
 10  9  1  0
 11 12  1  0
 11 10  1  0
 13 12  1  1
 13 14  1  0
 14  7  1  0
 15 13  1  0
 15 16  2  0
 17 15  1  0
 18 17  1  0
 18 19  1  6
 19 20  1  0
 20 21  1  0
 21 22  2  0
 23 18  1  0
 24 23  2  0
 25 21  1  0
 26 23  1  0
M  END
$$$$
