MME.pdb
     RDKit          3D

 26 25  0  0  1  0  0  0  0  0999 V2000
    6.9362  -18.2451   15.7906 C   0  0  0  0  0  0  0  0  0  0  0  0
    7.2680  -18.0003   17.5431 S   0  0  0  0  0  0  0  0  0  0  0  0
    7.0382  -16.2877   18.0625 C   0  0  0  0  0  0  0  0  0  0  0  0
    7.4277  -16.1320   19.4966 C   0  0  0  0  0  0  0  0  0  0  0  0
    7.2576  -14.7101   19.9961 C   0  0  2  0  0  0  0  0  0  0  0  0
    7.9107  -13.7991   19.0375 N   0  0  0  0  0  0  0  0  0  0  0  0
    7.8710  -14.4960   21.3044 C   0  0  0  0  0  0  0  0  0  0  0  0
    9.1411  -14.3692   21.3896 O   0  0  0  0  0  0  0  0  0  0  0  0
    7.1876  -10.6644   26.9973 C   0  0  0  0  0  0  0  0  0  0  0  0
    6.3754  -12.3092   26.9871 S   0  0  0  0  0  0  0  0  0  0  0  0
    7.4768  -13.5106   26.1655 C   0  0  0  0  0  0  0  0  0  0  0  0
    6.8617  -13.8482   24.8490 C   0  0  0  0  0  0  0  0  0  0  0  0
    7.8802  -14.2194   23.7809 C   0  0  2  0  0  0  0  0  0  0  0  0
    7.1464  -14.4118   22.5480 N   0  0  0  0  0  0  0  0  0  0  0  0
    8.5528  -15.4318   24.2723 C   0  0  0  0  0  0  0  0  0  0  0  0
    7.9186  -16.5188   24.0912 O   0  0  0  0  0  0  0  0  0  0  0  0
    9.8086  -15.3352   24.8884 N   0  0  0  0  0  0  0  0  0  0  0  0
   10.5946  -16.5636   25.0511 C   0  0  1  0  0  0  0  0  0  0  0  0
   11.9631  -16.3694   24.4178 C   0  0  0  0  0  0  0  0  0  0  0  0
   12.8999  -17.5123   24.6648 C   0  0  0  0  0  0  0  0  0  0  0  0
   14.2321  -17.2060   24.0502 C   0  0  0  0  0  0  0  0  0  0  0  0
   15.1797  -17.9951   24.2218 O   0  0  0  0  0  0  0  0  0  0  0  0
   10.6501  -16.9615   26.4681 C   0  0  0  0  0  0  0  0  0  0  0  0
   10.2629  -16.1350   27.3309 O   0  0  0  0  0  0  0  0  0  0  0  0
   14.4111  -16.0630   23.3021 O   0  0  0  0  0  0  0  0  0  0  0  0
   11.1032  -18.1922   26.9085 O   0  0  0  0  0  0  0  0  0  0  0  0
  2  3  1  0
  2  1  1  0
  4  5  1  0
  4  3  1  0
  5  6  1  6
  7  8  2  0
  7  5  1  0
 10  9  1  0
 11 12  1  0
 11 10  1  0
 13 12  1  1
 13 14  1  0
 14  7  1  0
 15 13  1  0
 15 16  2  0
 17 15  1  0
 18 17  1  0
 18 19  1  1
 19 20  1  0
 20 21  1  0
 21 22  2  0
 23 18  1  0
 24 23  2  0
 25 21  1  0
 26 23  1  0
M  END
$$$$
