MME.pdb
     RDKit          3D

 26 25  0  0  1  0  0  0  0  0999 V2000
    8.7223  -11.7984   19.8201 C   0  0  0  0  0  0  0  0  0  0  0  0
    7.1572  -12.6791   19.9473 S   0  0  0  0  0  0  0  0  0  0  0  0
    7.2431  -14.3517   19.2758 C   0  0  0  0  0  0  0  0  0  0  0  0
    8.5474  -14.9826   19.6410 C   0  0  0  0  0  0  0  0  0  0  0  0
    8.3900  -16.1082   20.6451 C   0  0  2  0  0  0  0  0  0  0  0  0
    6.9584  -16.4495   20.7406 N   0  0  0  0  0  0  0  0  0  0  0  0
    8.8511  -15.7392   21.9811 C   0  0  0  0  0  0  0  0  0  0  0  0
   10.0905  -15.4843   22.1698 O   0  0  0  0  0  0  0  0  0  0  0  0
    7.0492  -11.6044   27.2280 C   0  0  0  0  0  0  0  0  0  0  0  0
    6.0491  -12.7043   26.1533 S   0  0  0  0  0  0  0  0  0  0  0  0
    7.1255  -13.4087   24.8585 C   0  0  0  0  0  0  0  0  0  0  0  0
    7.5411  -14.7661   25.3171 C   0  0  0  0  0  0  0  0  0  0  0  0
    8.6077  -15.4031   24.4382 C   0  0  2  0  0  0  0  0  0  0  0  0
    8.0039  -15.6331   23.1428 N   0  0  0  0  0  0  0  0  0  0  0  0
    9.0186  -16.6326   25.1337 C   0  0  0  0  0  0  0  0  0  0  0  0
    8.5127  -17.7087   24.6836 O   0  0  0  0  0  0  0  0  0  0  0  0
    9.9121  -16.5622   26.2119 N   0  0  0  0  0  0  0  0  0  0  0  0
   10.9164  -17.6234   26.3473 C   0  0  1  0  0  0  0  0  0  0  0  0
   12.0424  -17.3759   25.3563 C   0  0  0  0  0  0  0  0  0  0  0  0
   13.1475  -18.3835   25.4486 C   0  0  0  0  0  0  0  0  0  0  0  0
   14.2508  -18.0000   24.5092 C   0  0  0  0  0  0  0  0  0  0  0  0
   14.8832  -16.9461   24.7080 O   0  0  0  0  0  0  0  0  0  0  0  0
   11.3715  -17.7335   27.7438 C   0  0  0  0  0  0  0  0  0  0  0  0
   11.1990  -16.7474   28.5023 O   0  0  0  0  0  0  0  0  0  0  0  0
   14.5650  -18.8025   23.4345 O   0  0  0  0  0  0  0  0  0  0  0  0
   11.9782  -18.8586   28.2729 O   0  0  0  0  0  0  0  0  0  0  0  0
  2  3  1  0
  2  1  1  0
  4  5  1  0
  4  3  1  0
  5  6  1  1
  7  8  2  0
  7  5  1  0
 10  9  1  0
 11 12  1  0
 11 10  1  0
 13 12  1  1
 13 14  1  0
 14  7  1  0
 15 13  1  0
 15 16  2  0
 17 15  1  0
 18 17  1  0
 18 19  1  6
 19 20  1  0
 20 21  1  0
 21 22  2  0
 23 18  1  0
 24 23  2  0
 25 21  1  0
 26 23  1  0
M  END
$$$$
