MME.pdb
     RDKit          3D

 26 25  0  0  1  0  0  0  0  0999 V2000
    8.3281  -11.7400   20.6301 C   0  0  0  0  0  0  0  0  0  0  0  0
    7.5773  -12.6267   19.2548 S   0  0  0  0  0  0  0  0  0  0  0  0
    7.9045  -14.4004   19.3086 C   0  0  0  0  0  0  0  0  0  0  0  0
    7.7156  -14.9129   20.6993 C   0  0  0  0  0  0  0  0  0  0  0  0
    9.0305  -15.1557   21.4150 C   0  0  2  0  0  0  0  0  0  0  0  0
    9.7770  -16.1922   20.6775 N   0  0  0  0  0  0  0  0  0  0  0  0
    8.8468  -15.6276   22.7851 C   0  0  0  0  0  0  0  0  0  0  0  0
    8.1789  -16.6980   22.9967 O   0  0  0  0  0  0  0  0  0  0  0  0
    7.6344  -11.7317   26.7553 C   0  0  0  0  0  0  0  0  0  0  0  0
    6.2742  -12.8263   26.1921 S   0  0  0  0  0  0  0  0  0  0  0  0
    6.7556  -13.6088   24.6150 C   0  0  0  0  0  0  0  0  0  0  0  0
    7.1891  -15.0021   24.9251 C   0  0  0  0  0  0  0  0  0  0  0  0
    8.6773  -15.1231   25.2196 C   0  0  2  0  0  0  0  0  0  0  0  0
    9.3699  -14.9715   23.9575 N   0  0  0  0  0  0  0  0  0  0  0  0
    8.8562  -16.4422   25.8457 C   0  0  0  0  0  0  0  0  0  0  0  0
    8.1046  -16.6787   26.8435 O   0  0  0  0  0  0  0  0  0  0  0  0
    9.8049  -17.3381   25.3326 N   0  0  0  0  0  0  0  0  0  0  0  0
   10.0943  -18.5534   26.1022 C   0  0  1  0  0  0  0  0  0  0  0  0
   10.9556  -19.4837   25.2630 C   0  0  0  0  0  0  0  0  0  0  0  0
   10.6502  -19.4158   23.7977 C   0  0  0  0  0  0  0  0  0  0  0  0
   11.5369  -20.3726   23.0595 C   0  0  0  0  0  0  0  0  0  0  0  0
   11.0966  -21.4935   22.7437 O   0  0  0  0  0  0  0  0  0  0  0  0
   10.6885  -18.2138   27.4064 C   0  0  0  0  0  0  0  0  0  0  0  0
   10.9243  -19.1486   28.2113 O   0  0  0  0  0  0  0  0  0  0  0  0
   12.8276  -20.0195   22.7319 O   0  0  0  0  0  0  0  0  0  0  0  0
   11.0041  -16.9257   27.8004 O   0  0  0  0  0  0  0  0  0  0  0  0
  2  3  1  0
  2  1  1  0
  4  5  1  0
  4  3  1  0
  5  6  1  6
  7  8  2  0
  7  5  1  0
 10  9  1  0
 11 12  1  0
 11 10  1  0
 13 12  1  6
 13 14  1  0
 14  7  1  0
 15 13  1  0
 15 16  2  0
 17 15  1  0
 18 17  1  0
 18 19  1  6
 19 20  1  0
 20 21  1  0
 21 22  2  0
 23 18  1  0
 24 23  2  0
 25 21  1  0
 26 23  1  0
M  END
$$$$
