MME.pdb
     RDKit          3D

 26 25  0  0  1  0  0  0  0  0999 V2000
    8.4338  -11.3643   19.2787 C   0  0  0  0  0  0  0  0  0  0  0  0
    7.5803  -12.5988   18.2843 S   0  0  0  0  0  0  0  0  0  0  0  0
    7.4702  -14.2007   19.1074 C   0  0  0  0  0  0  0  0  0  0  0  0
    8.5493  -14.3233   20.1336 C   0  0  0  0  0  0  0  0  0  0  0  0
    8.5335  -15.6657   20.8391 C   0  0  2  0  0  0  0  0  0  0  0  0
    7.1669  -16.2151   20.7629 N   0  0  0  0  0  0  0  0  0  0  0  0
    8.8959  -15.5640   22.2505 C   0  0  0  0  0  0  0  0  0  0  0  0
   10.1129  -15.3355   22.5717 O   0  0  0  0  0  0  0  0  0  0  0  0
    6.5899  -11.7916   26.8047 C   0  0  0  0  0  0  0  0  0  0  0  0
    8.0628  -12.8763   26.9425 S   0  0  0  0  0  0  0  0  0  0  0  0
    7.5228  -14.6193   26.9043 C   0  0  0  0  0  0  0  0  0  0  0  0
    7.2137  -14.9570   25.4845 C   0  0  0  0  0  0  0  0  0  0  0  0
    8.4272  -15.4241   24.6939 C   0  0  2  0  0  0  0  0  0  0  0  0
    7.9717  -15.7024   23.3484 N   0  0  0  0  0  0  0  0  0  0  0  0
    8.9411  -16.6034   25.4076 C   0  0  0  0  0  0  0  0  0  0  0  0
    8.0666  -17.4658   25.7363 O   0  0  0  0  0  0  0  0  0  0  0  0
   10.3124  -16.7162   25.6775 N   0  0  0  0  0  0  0  0  0  0  0  0
   10.7978  -17.9637   26.2785 C   0  0  1  0  0  0  0  0  0  0  0  0
   12.2298  -18.2104   25.8312 C   0  0  0  0  0  0  0  0  0  0  0  0
   12.4071  -18.1487   24.3447 C   0  0  0  0  0  0  0  0  0  0  0  0
   13.7208  -17.5011   24.0264 C   0  0  0  0  0  0  0  0  0  0  0  0
   13.7430  -16.4895   23.3008 O   0  0  0  0  0  0  0  0  0  0  0  0
   10.6322  -17.9348   27.7417 C   0  0  0  0  0  0  0  0  0  0  0  0
   10.9922  -18.9430   28.3985 O   0  0  0  0  0  0  0  0  0  0  0  0
   14.8950  -18.0172   24.5290 O   0  0  0  0  0  0  0  0  0  0  0  0
   10.1038  -16.8631   28.4391 O   0  0  0  0  0  0  0  0  0  0  0  0
  2  3  1  0
  2  1  1  0
  4  5  1  0
  4  3  1  0
  5  6  1  1
  7  8  2  0
  7  5  1  0
 10  9  1  0
 11 12  1  0
 11 10  1  0
 13 12  1  1
 13 14  1  0
 14  7  1  0
 15 13  1  0
 15 16  2  0
 17 15  1  0
 18 17  1  0
 18 19  1  1
 19 20  1  0
 20 21  1  0
 21 22  2  0
 23 18  1  0
 24 23  2  0
 25 21  1  0
 26 23  1  0
M  END
$$$$
