MME.pdb
     RDKit          3D

 26 25  0  0  1  0  0  0  0  0999 V2000
    6.6015  -21.0808   27.5631 C   0  0  0  0  0  0  0  0  0  0  0  0
    6.9294  -21.8422   25.9650 S   0  0  0  0  0  0  0  0  0  0  0  0
    6.7129  -20.6944   24.5896 C   0  0  0  0  0  0  0  0  0  0  0  0
    5.6837  -19.6686   24.9373 C   0  0  0  0  0  0  0  0  0  0  0  0
    5.5064  -18.6280   23.8483 C   0  0  2  0  0  0  0  0  0  0  0  0
    5.6160  -19.3003   22.5402 N   0  0  0  0  0  0  0  0  0  0  0  0
    6.5239  -17.5813   23.8991 C   0  0  0  0  0  0  0  0  0  0  0  0
    7.5436  -17.6585   23.1303 O   0  0  0  0  0  0  0  0  0  0  0  0
    7.6237  -11.0512   26.7802 C   0  0  0  0  0  0  0  0  0  0  0  0
    6.1753  -12.1716   26.6714 S   0  0  0  0  0  0  0  0  0  0  0  0
    6.4420  -13.3570   25.3094 C   0  0  0  0  0  0  0  0  0  0  0  0
    7.2899  -14.4625   25.8431 C   0  0  0  0  0  0  0  0  0  0  0  0
    7.6117  -15.5328   24.8103 C   0  0  2  0  0  0  0  0  0  0  0  0
    6.4774  -16.4312   24.7674 N   0  0  0  0  0  0  0  0  0  0  0  0
    8.8596  -16.1659   25.2644 C   0  0  0  0  0  0  0  0  0  0  0  0
    8.7222  -17.0718   26.1457 O   0  0  0  0  0  0  0  0  0  0  0  0
   10.0881  -15.7589   24.7247 N   0  0  0  0  0  0  0  0  0  0  0  0
   11.2649  -16.5987   24.9756 C   0  0  1  0  0  0  0  0  0  0  0  0
   12.3557  -16.2421   23.9785 C   0  0  0  0  0  0  0  0  0  0  0  0
   13.6468  -16.9604   24.2277 C   0  0  0  0  0  0  0  0  0  0  0  0
   14.6504  -16.5550   23.1909 C   0  0  0  0  0  0  0  0  0  0  0  0
   14.5953  -15.4113   22.7021 O   0  0  0  0  0  0  0  0  0  0  0  0
   11.6907  -16.4904   26.3814 C   0  0  0  0  0  0  0  0  0  0  0  0
   11.3142  -15.4886   27.0388 O   0  0  0  0  0  0  0  0  0  0  0  0
   15.6258  -17.4365   22.7793 O   0  0  0  0  0  0  0  0  0  0  0  0
   12.4813  -17.4262   27.0242 O   0  0  0  0  0  0  0  0  0  0  0  0
  2  3  1  0
  2  1  1  0
  4  5  1  0
  4  3  1  0
  5  6  1  6
  7  8  2  0
  7  5  1  0
 10  9  1  0
 11 12  1  0
 11 10  1  0
 13 12  1  1
 13 14  1  0
 14  7  1  0
 15 13  1  0
 15 16  2  0
 17 15  1  0
 18 17  1  0
 18 19  1  6
 19 20  1  0
 20 21  1  0
 21 22  2  0
 23 18  1  0
 24 23  2  0
 25 21  1  0
 26 23  1  0
M  END
$$$$
