MME.pdb
     RDKit          3D

 26 25  0  0  1  0  0  0  0  0999 V2000
    6.8235  -11.5919   27.3509 C   0  0  0  0  0  0  0  0  0  0  0  0
    6.9872  -13.3642   27.6220 S   0  0  0  0  0  0  0  0  0  0  0  0
    6.5655  -14.3338   26.1599 C   0  0  0  0  0  0  0  0  0  0  0  0
    6.6253  -15.7923   26.4792 C   0  0  0  0  0  0  0  0  0  0  0  0
    6.3048  -16.6653   25.2812 C   0  0  2  0  0  0  0  0  0  0  0  0
    6.3536  -18.0763   25.7076 N   0  0  0  0  0  0  0  0  0  0  0  0
    7.2603  -16.4955   24.1894 C   0  0  0  0  0  0  0  0  0  0  0  0
    8.2772  -17.2685   24.1186 O   0  0  0  0  0  0  0  0  0  0  0  0
    6.4595  -12.2555   19.4746 C   0  0  0  0  0  0  0  0  0  0  0  0
    8.2256  -12.6258   19.1445 S   0  0  0  0  0  0  0  0  0  0  0  0
    8.6806  -14.1685   20.0074 C   0  0  0  0  0  0  0  0  0  0  0  0
    7.8460  -14.2493   21.2413 C   0  0  0  0  0  0  0  0  0  0  0  0
    8.1463  -15.4709   22.0978 C   0  0  2  0  0  0  0  0  0  0  0  0
    7.1535  -15.5011   23.1509 N   0  0  0  0  0  0  0  0  0  0  0  0
    9.5248  -15.2936   22.5798 C   0  0  0  0  0  0  0  0  0  0  0  0
    9.6641  -14.4791   23.5462 O   0  0  0  0  0  0  0  0  0  0  0  0
   10.5739  -16.0027   21.9779 N   0  0  0  0  0  0  0  0  0  0  0  0
   11.8257  -16.1537   22.7284 C   0  0  1  0  0  0  0  0  0  0  0  0
   11.6054  -17.1227   23.8789 C   0  0  0  0  0  0  0  0  0  0  0  0
   12.8636  -17.4648   24.6171 C   0  0  0  0  0  0  0  0  0  0  0  0
   12.5446  -18.4155   25.7311 C   0  0  0  0  0  0  0  0  0  0  0  0
   11.9813  -17.9883   26.7559 O   0  0  0  0  0  0  0  0  0  0  0  0
   12.9266  -16.5425   21.8305 C   0  0  0  0  0  0  0  0  0  0  0  0
   14.1050  -16.3717   22.2299 O   0  0  0  0  0  0  0  0  0  0  0  0
   12.8702  -19.7500   25.6265 O   0  0  0  0  0  0  0  0  0  0  0  0
   12.7424  -17.0860   20.5717 O   0  0  0  0  0  0  0  0  0  0  0  0
  2  3  1  0
  2  1  1  0
  4  5  1  0
  4  3  1  0
  5  6  1  1
  7  8  2  0
  7  5  1  0
 10  9  1  0
 11 12  1  0
 11 10  1  0
 13 12  1  6
 13 14  1  0
 14  7  1  0
 15 13  1  0
 15 16  2  0
 17 15  1  0
 18 17  1  0
 18 19  1  1
 19 20  1  0
 20 21  1  0
 21 22  2  0
 23 18  1  0
 24 23  2  0
 25 21  1  0
 26 23  1  0
M  END
$$$$
