MME.pdb
     RDKit          3D

 26 25  0  0  1  0  0  0  0  0999 V2000
    6.0331  -11.2182   26.9419 C   0  0  0  0  0  0  0  0  0  0  0  0
    6.8314  -12.7990   27.2661 S   0  0  0  0  0  0  0  0  0  0  0  0
    7.1898  -13.7203   25.7567 C   0  0  0  0  0  0  0  0  0  0  0  0
    6.0822  -14.6810   25.4691 C   0  0  0  0  0  0  0  0  0  0  0  0
    6.5513  -16.1231   25.4492 C   0  0  2  0  0  0  0  0  0  0  0  0
    7.4137  -16.3479   26.6244 N   0  0  0  0  0  0  0  0  0  0  0  0
    7.3297  -16.4452   24.2559 C   0  0  0  0  0  0  0  0  0  0  0  0
    7.3641  -17.6529   23.8354 O   0  0  0  0  0  0  0  0  0  0  0  0
    8.7821  -11.8625   20.1515 C   0  0  0  0  0  0  0  0  0  0  0  0
    7.5813  -13.1129   19.5520 S   0  0  0  0  0  0  0  0  0  0  0  0
    7.3855  -14.4067   20.8244 C   0  0  0  0  0  0  0  0  0  0  0  0
    8.7503  -14.7578   21.3138 C   0  0  0  0  0  0  0  0  0  0  0  0
    8.7639  -15.9299   22.2843 C   0  0  2  0  0  0  0  0  0  0  0  0
    8.0863  -15.4899   23.4855 N   0  0  0  0  0  0  0  0  0  0  0  0
   10.1815  -16.2669   22.4863 C   0  0  0  0  0  0  0  0  0  0  0  0
   10.8366  -15.4557   23.2138 O   0  0  0  0  0  0  0  0  0  0  0  0
   10.7188  -17.4187   21.8942 N   0  0  0  0  0  0  0  0  0  0  0  0
   12.1550  -17.6728   22.0559 C   0  0  1  0  0  0  0  0  0  0  0  0
   12.3536  -19.0518   22.6644 C   0  0  0  0  0  0  0  0  0  0  0  0
   11.5687  -19.2648   23.9228 C   0  0  0  0  0  0  0  0  0  0  0  0
   11.7000  -20.6938   24.3556 C   0  0  0  0  0  0  0  0  0  0  0  0
   12.3593  -21.4855   23.6565 O   0  0  0  0  0  0  0  0  0  0  0  0
   12.8637  -17.4824   20.7789 C   0  0  0  0  0  0  0  0  0  0  0  0
   14.1171  -17.5617   20.7797 O   0  0  0  0  0  0  0  0  0  0  0  0
   11.0981  -21.1316   25.5149 O   0  0  0  0  0  0  0  0  0  0  0  0
   12.2327  -17.2216   19.5757 O   0  0  0  0  0  0  0  0  0  0  0  0
  2  3  1  0
  2  1  1  0
  4  5  1  0
  4  3  1  0
  5  6  1  1
  7  8  2  0
  7  5  1  0
 10  9  1  0
 11 12  1  0
 11 10  1  0
 13 12  1  6
 13 14  1  0
 14  7  1  0
 15 13  1  0
 15 16  2  0
 17 15  1  0
 18 17  1  0
 18 19  1  6
 19 20  1  0
 20 21  1  0
 21 22  2  0
 23 18  1  0
 24 23  2  0
 25 21  1  0
 26 23  1  0
M  END
$$$$
