MME.pdb
     RDKit          3D

 26 25  0  0  1  0  0  0  0  0999 V2000
    6.5148  -11.7248   18.7654 C   0  0  0  0  0  0  0  0  0  0  0  0
    7.9072  -12.3630   19.7115 S   0  0  0  0  0  0  0  0  0  0  0  0
    8.2226  -14.1108   19.3930 C   0  0  0  0  0  0  0  0  0  0  0  0
    9.2788  -14.6169   20.3208 C   0  0  0  0  0  0  0  0  0  0  0  0
    8.8412  -15.8520   21.0845 C   0  0  2  0  0  0  0  0  0  0  0  0
    7.3880  -16.0229   20.8990 N   0  0  0  0  0  0  0  0  0  0  0  0
    9.0991  -15.7478   22.5185 C   0  0  0  0  0  0  0  0  0  0  0  0
   10.2931  -15.5413   22.9286 O   0  0  0  0  0  0  0  0  0  0  0  0
    7.5937  -11.6436   27.1359 C   0  0  0  0  0  0  0  0  0  0  0  0
    6.3245  -12.9112   26.7516 S   0  0  0  0  0  0  0  0  0  0  0  0
    6.8243  -13.8155   25.2471 C   0  0  0  0  0  0  0  0  0  0  0  0
    7.2486  -15.1815   25.6709 C   0  0  0  0  0  0  0  0  0  0  0  0
    8.4762  -15.6924   24.9307 C   0  0  2  0  0  0  0  0  0  0  0  0
    8.0928  -15.8601   23.5448 N   0  0  0  0  0  0  0  0  0  0  0  0
    8.8569  -16.9447   25.6020 C   0  0  0  0  0  0  0  0  0  0  0  0
    7.9371  -17.8182   25.6891 O   0  0  0  0  0  0  0  0  0  0  0  0
   10.1608  -17.1091   26.0906 N   0  0  0  0  0  0  0  0  0  0  0  0
   10.5422  -18.4267   26.6118 C   0  0  1  0  0  0  0  0  0  0  0  0
   11.8509  -18.8589   25.9700 C   0  0  0  0  0  0  0  0  0  0  0  0
   12.3290  -20.1990   26.4395 C   0  0  0  0  0  0  0  0  0  0  0  0
   13.6527  -20.5052   25.8065 C   0  0  0  0  0  0  0  0  0  0  0  0
   14.1877  -19.6567   25.0689 O   0  0  0  0  0  0  0  0  0  0  0  0
   10.5825  -18.4116   28.0841 C   0  0  0  0  0  0  0  0  0  0  0  0
   10.5984  -17.2981   28.6647 O   0  0  0  0  0  0  0  0  0  0  0  0
   14.2749  -21.7128   26.0355 O   0  0  0  0  0  0  0  0  0  0  0  0
   10.6035  -19.5509   28.8687 O   0  0  0  0  0  0  0  0  0  0  0  0
  2  3  1  0
  2  1  1  0
  4  5  1  0
  4  3  1  0
  5  6  1  1
  7  8  2  0
  7  5  1  0
 10  9  1  0
 11 12  1  0
 11 10  1  0
 13 12  1  1
 13 14  1  0
 14  7  1  0
 15 13  1  0
 15 16  2  0
 17 15  1  0
 18 17  1  0
 18 19  1  6
 19 20  1  0
 20 21  1  0
 21 22  2  0
 23 18  1  0
 24 23  2  0
 25 21  1  0
 26 23  1  0
M  END
$$$$
