MME.pdb
     RDKit          3D

 26 25  0  0  1  0  0  0  0  0999 V2000
    8.1854  -11.3411   19.5801 C   0  0  0  0  0  0  0  0  0  0  0  0
    6.9827  -12.5599   19.0242 S   0  0  0  0  0  0  0  0  0  0  0  0
    6.9638  -14.0400   20.0559 C   0  0  0  0  0  0  0  0  0  0  0  0
    8.3089  -14.6905   20.0412 C   0  0  0  0  0  0  0  0  0  0  0  0
    8.3630  -15.9380   20.9020 C   0  0  2  0  0  0  0  0  0  0  0  0
    6.9948  -16.4731   21.0319 N   0  0  0  0  0  0  0  0  0  0  0  0
    8.8681  -15.6724   22.2466 C   0  0  0  0  0  0  0  0  0  0  0  0
   10.0952  -15.3466   22.4037 O   0  0  0  0  0  0  0  0  0  0  0  0
    6.8487  -10.9275   26.4919 C   0  0  0  0  0  0  0  0  0  0  0  0
    7.4258  -12.6340   26.8382 S   0  0  0  0  0  0  0  0  0  0  0  0
    7.0891  -13.6820   25.3823 C   0  0  0  0  0  0  0  0  0  0  0  0
    7.6186  -15.0437   25.6839 C   0  0  0  0  0  0  0  0  0  0  0  0
    8.7129  -15.4946   24.7274 C   0  0  2  0  0  0  0  0  0  0  0  0
    8.0787  -15.7470   23.4508 N   0  0  0  0  0  0  0  0  0  0  0  0
    9.3163  -16.6873   25.3419 C   0  0  0  0  0  0  0  0  0  0  0  0
    8.5581  -17.7052   25.4162 O   0  0  0  0  0  0  0  0  0  0  0  0
   10.6427  -16.6468   25.7947 N   0  0  0  0  0  0  0  0  0  0  0  0
   11.2804  -17.9113   26.1787 C   0  0  1  0  0  0  0  0  0  0  0  0
   12.7738  -17.8207   25.9086 C   0  0  0  0  0  0  0  0  0  0  0  0
   13.1000  -17.4003   24.5079 C   0  0  0  0  0  0  0  0  0  0  0  0
   14.2693  -16.4628   24.5290 C   0  0  0  0  0  0  0  0  0  0  0  0
   14.7939  -16.1653   25.6182 O   0  0  0  0  0  0  0  0  0  0  0  0
   10.9516  -18.2574   27.5720 C   0  0  0  0  0  0  0  0  0  0  0  0
   10.2477  -17.4531   28.2317 O   0  0  0  0  0  0  0  0  0  0  0  0
   14.7617  -15.9324   23.3568 O   0  0  0  0  0  0  0  0  0  0  0  0
   11.3708  -19.4163   28.2005 O   0  0  0  0  0  0  0  0  0  0  0  0
  2  3  1  0
  2  1  1  0
  4  5  1  0
  4  3  1  0
  5  6  1  1
  7  8  2  0
  7  5  1  0
 10  9  1  0
 11 12  1  0
 11 10  1  0
 13 12  1  1
 13 14  1  0
 14  7  1  0
 15 13  1  0
 15 16  2  0
 17 15  1  0
 18 17  1  0
 18 19  1  1
 19 20  1  0
 20 21  1  0
 21 22  2  0
 23 18  1  0
 24 23  2  0
 25 21  1  0
 26 23  1  0
M  END
$$$$
