MME.pdb
     RDKit          3D

 26 25  0  0  1  0  0  0  0  0999 V2000
    6.2377  -12.9296   20.2285 C   0  0  0  0  0  0  0  0  0  0  0  0
    7.8352  -12.8910   19.3994 S   0  0  0  0  0  0  0  0  0  0  0  0
    9.1998  -13.3262   20.4968 C   0  0  0  0  0  0  0  0  0  0  0  0
    9.5616  -14.7647   20.3166 C   0  0  0  0  0  0  0  0  0  0  0  0
    8.7913  -15.6810   21.2478 C   0  0  2  0  0  0  0  0  0  0  0  0
    7.3900  -15.2234   21.2962 N   0  0  0  0  0  0  0  0  0  0  0  0
    9.3135  -15.6653   22.6118 C   0  0  0  0  0  0  0  0  0  0  0  0
   10.5628  -15.8581   22.8085 O   0  0  0  0  0  0  0  0  0  0  0  0
    5.8022  -12.0112   25.9231 C   0  0  0  0  0  0  0  0  0  0  0  0
    7.1390  -12.5904   27.0378 S   0  0  0  0  0  0  0  0  0  0  0  0
    8.4615  -13.3497   26.0349 C   0  0  0  0  0  0  0  0  0  0  0  0
    8.2633  -14.8275   26.0848 C   0  0  0  0  0  0  0  0  0  0  0  0
    9.1333  -15.5899   25.0961 C   0  0  2  0  0  0  0  0  0  0  0  0
    8.5183  -15.4436   23.7939 N   0  0  0  0  0  0  0  0  0  0  0  0
    9.1756  -16.9766   25.5855 C   0  0  0  0  0  0  0  0  0  0  0  0
    8.4957  -17.2054   26.6352 O   0  0  0  0  0  0  0  0  0  0  0  0
    9.9295  -17.9389   24.8989 N   0  0  0  0  0  0  0  0  0  0  0  0
   10.7594  -18.8575   25.6868 C   0  0  1  0  0  0  0  0  0  0  0  0
   12.0617  -19.1153   24.9461 C   0  0  0  0  0  0  0  0  0  0  0  0
   12.9366  -20.1296   25.6176 C   0  0  0  0  0  0  0  0  0  0  0  0
   14.1523  -20.3740   24.7756 C   0  0  0  0  0  0  0  0  0  0  0  0
   14.9487  -19.4398   24.5674 O   0  0  0  0  0  0  0  0  0  0  0  0
   10.9487  -18.3440   27.0542 C   0  0  0  0  0  0  0  0  0  0  0  0
   10.5797  -19.0651   28.0140 O   0  0  0  0  0  0  0  0  0  0  0  0
   14.3900  -21.6185   24.2348 O   0  0  0  0  0  0  0  0  0  0  0  0
   11.5096  -17.1138   27.3475 O   0  0  0  0  0  0  0  0  0  0  0  0
  2  3  1  0
  2  1  1  0
  4  5  1  0
  4  3  1  0
  5  6  1  1
  7  8  2  0
  7  5  1  0
 10  9  1  0
 11 12  1  0
 11 10  1  0
 13 12  1  1
 13 14  1  0
 14  7  1  0
 15 13  1  0
 15 16  2  0
 17 15  1  0
 18 17  1  0
 18 19  1  6
 19 20  1  0
 20 21  1  0
 21 22  2  0
 23 18  1  0
 24 23  2  0
 25 21  1  0
 26 23  1  0
M  END
$$$$
