MME.pdb
     RDKit          3D

 26 25  0  0  1  0  0  0  0  0999 V2000
    8.3556  -12.0530   18.1739 C   0  0  0  0  0  0  0  0  0  0  0  0
    7.0898  -12.1942   19.4464 S   0  0  0  0  0  0  0  0  0  0  0  0
    7.1248  -13.7894   20.2890 C   0  0  0  0  0  0  0  0  0  0  0  0
    8.3855  -14.5175   19.9525 C   0  0  0  0  0  0  0  0  0  0  0  0
    8.5261  -15.8222   20.7128 C   0  0  2  0  0  0  0  0  0  0  0  0
    7.2143  -16.4960   20.7270 N   0  0  0  0  0  0  0  0  0  0  0  0
    8.9412  -15.6237   22.0992 C   0  0  0  0  0  0  0  0  0  0  0  0
   10.1373  -15.2449   22.3488 O   0  0  0  0  0  0  0  0  0  0  0  0
    6.4021  -11.0355   26.3725 C   0  0  0  0  0  0  0  0  0  0  0  0
    6.7834  -12.8004   26.6967 S   0  0  0  0  0  0  0  0  0  0  0  0
    7.1482  -13.6302   25.1125 C   0  0  0  0  0  0  0  0  0  0  0  0
    7.4956  -15.0472   25.4236 C   0  0  0  0  0  0  0  0  0  0  0  0
    8.6316  -15.5944   24.5717 C   0  0  2  0  0  0  0  0  0  0  0  0
    8.0927  -15.8231   23.2477 N   0  0  0  0  0  0  0  0  0  0  0  0
    9.0894  -16.8165   25.2507 C   0  0  0  0  0  0  0  0  0  0  0  0
    8.1993  -17.7064   25.4306 O   0  0  0  0  0  0  0  0  0  0  0  0
   10.4287  -16.9373   25.6477 N   0  0  0  0  0  0  0  0  0  0  0  0
   10.8917  -18.2443   26.1277 C   0  0  1  0  0  0  0  0  0  0  0  0
   12.3060  -18.4889   25.6265 C   0  0  0  0  0  0  0  0  0  0  0  0
   12.9058  -19.7631   26.1380 C   0  0  0  0  0  0  0  0  0  0  0  0
   14.3217  -19.8746   25.6589 C   0  0  0  0  0  0  0  0  0  0  0  0
   14.9918  -18.8392   25.4882 O   0  0  0  0  0  0  0  0  0  0  0  0
   10.7590  -18.3375   27.5916 C   0  0  0  0  0  0  0  0  0  0  0  0
   10.5281  -17.2830   28.2336 O   0  0  0  0  0  0  0  0  0  0  0  0
   14.8801  -21.1087   25.4080 O   0  0  0  0  0  0  0  0  0  0  0  0
   10.8727  -19.5174   28.3048 O   0  0  0  0  0  0  0  0  0  0  0  0
  2  3  1  0
  2  1  1  0
  4  5  1  0
  4  3  1  0
  5  6  1  1
  7  8  2  0
  7  5  1  0
 10  9  1  0
 11 12  1  0
 11 10  1  0
 13 12  1  1
 13 14  1  0
 14  7  1  0
 15 13  1  0
 15 16  2  0
 17 15  1  0
 18 17  1  0
 18 19  1  1
 19 20  1  0
 20 21  1  0
 21 22  2  0
 23 18  1  0
 24 23  2  0
 25 21  1  0
 26 23  1  0
M  END
$$$$
