FCF.pdb
     RDKit          3D

 29 30  0  0  1  0  0  0  0  0999 V2000
   28.1026  -21.3107  -16.0463 N   0  0  0  0  0  0  0  0  0  0  0  0
   27.6271  -20.3377  -15.0832 C   0  0  1  0  0  0  0  0  0  0  0  0
   26.8169  -19.3051  -15.8401 C   0  0  0  0  0  0  0  0  0  0  0  0
   27.6800  -18.4444  -16.6814 C   0  0  0  0  0  0  0  0  0  0  0  0
   28.6795  -17.6597  -16.1358 C   0  0  0  0  0  0  0  0  0  0  0  0
   29.4850  -16.8544  -16.9343 C   0  0  0  0  0  0  0  0  0  0  0  0
   29.3150  -16.8111  -18.2920 C   0  0  0  0  0  0  0  0  0  0  0  0
   28.3246  -17.5849  -18.8595 C   0  0  0  0  0  0  0  0  0  0  0  0
   27.5259  -18.3835  -18.0669 C   0  0  0  0  0  0  0  0  0  0  0  0
   26.8004  -21.0563  -14.0861 C   0  0  0  0  0  0  0  0  0  0  0  0
   26.1167  -22.0581  -14.4110 O   0  0  0  0  0  0  0  0  0  0  0  0
   26.7344  -20.6546  -12.7119 N   0  0  0  0  0  0  0  0  0  0  0  0
   25.6403  -21.0303  -11.8414 C   0  0  1  0  0  0  0  0  0  0  0  0
   25.9563  -20.5935  -10.4293 C   0  0  0  0  0  0  0  0  0  0  0  0
   24.5336  -20.8949   -9.3451 S   0  0  0  0  0  0  0  0  0  0  0  0
   24.3477  -20.4919  -12.3177 C   0  0  0  0  0  0  0  0  0  0  0  0
   24.3250  -19.3344  -12.8207 O   0  0  0  0  0  0  0  0  0  0  0  0
   23.1333  -21.2170  -12.2346 N   0  0  0  0  0  0  0  0  0  0  0  0
   21.8888  -20.7606  -12.8385 C   0  0  1  0  0  0  0  0  0  0  0  0
   22.0696  -20.5895  -14.3167 C   0  0  0  0  0  0  0  0  0  0  0  0
   20.8601  -20.2082  -15.0578 C   0  0  0  0  0  0  0  0  0  0  0  0
   20.4922  -18.8677  -15.2223 C   0  0  0  0  0  0  0  0  0  0  0  0
   19.3664  -18.5140  -15.9306 C   0  0  0  0  0  0  0  0  0  0  0  0
   18.5442  -19.4529  -16.5132 C   0  0  0  0  0  0  0  0  0  0  0  0
   18.8910  -20.7763  -16.3616 C   0  0  0  0  0  0  0  0  0  0  0  0
   20.0152  -21.1366  -15.6549 C   0  0  0  0  0  0  0  0  0  0  0  0
   20.7847  -21.7021  -12.5655 C   0  0  0  0  0  0  0  0  0  0  0  0
   21.0115  -22.9330  -12.6143 O   0  0  0  0  0  0  0  0  0  0  0  0
   19.4880  -21.3008  -12.2527 O   0  0  0  0  0  0  0  0  0  0  0  0
  2  1  1  6
  2 10  1  0
  2  3  1  0
  4  3  1  0
  4  9  1  0
  5  4  2  0
  6  5  1  0
  6  7  2  0
  7  8  1  0
  8  9  2  0
 10 11  2  0
 12 13  1  0
 12 10  1  0
 14 15  1  0
 13 14  1  1
 16 13  1  0
 16 17  2  0
 18 16  1  0
 19 18  1  0
 19 27  1  0
 19 20  1  6
 21 20  1  0
 21 22  2  0
 23 22  1  0
 24 23  2  0
 25 26  2  0
 25 24  1  0
 26 21  1  0
 27 28  2  0
 27 29  1  0
M  END
$$$$
