FCF.pdb
     RDKit          3D

 29 30  0  0  1  0  0  0  0  0999 V2000
   21.1366  -13.5475  -17.4330 N   0  0  0  0  0  0  0  0  0  0  0  0
   21.6941  -12.2600  -17.7957 C   0  0  1  0  0  0  0  0  0  0  0  0
   21.1395  -11.8897  -19.1562 C   0  0  0  0  0  0  0  0  0  0  0  0
   21.6069  -12.8221  -20.2078 C   0  0  0  0  0  0  0  0  0  0  0  0
   20.7574  -13.7403  -20.7973 C   0  0  0  0  0  0  0  0  0  0  0  0
   21.2058  -14.6121  -21.7842 C   0  0  0  0  0  0  0  0  0  0  0  0
   22.5077  -14.5905  -22.2069 C   0  0  0  0  0  0  0  0  0  0  0  0
   23.3740  -13.6835  -21.6338 C   0  0  0  0  0  0  0  0  0  0  0  0
   22.9287  -12.8190  -20.6549 C   0  0  0  0  0  0  0  0  0  0  0  0
   21.2895  -11.2841  -16.7574 C   0  0  0  0  0  0  0  0  0  0  0  0
   20.3160  -11.5111  -15.9977 O   0  0  0  0  0  0  0  0  0  0  0  0
   21.9770  -10.0415  -16.5632 N   0  0  0  0  0  0  0  0  0  0  0  0
   21.5851   -9.0836  -15.5508 C   0  0  1  0  0  0  0  0  0  0  0  0
   21.7319   -9.7156  -14.1856 C   0  0  0  0  0  0  0  0  0  0  0  0
   23.4640  -10.1605  -13.8820 S   0  0  0  0  0  0  0  0  0  0  0  0
   22.3431   -7.8189  -15.6663 C   0  0  0  0  0  0  0  0  0  0  0  0
   23.4298   -7.8235  -16.3085 O   0  0  0  0  0  0  0  0  0  0  0  0
   21.9043   -6.6020  -15.0885 N   0  0  0  0  0  0  0  0  0  0  0  0
   22.5772   -5.3282  -15.3041 C   0  0  1  0  0  0  0  0  0  0  0  0
   22.6898   -5.0510  -16.7730 C   0  0  0  0  0  0  0  0  0  0  0  0
   21.4194   -4.7895  -17.4624 C   0  0  0  0  0  0  0  0  0  0  0  0
   20.7269   -3.5849  -17.2930 C   0  0  0  0  0  0  0  0  0  0  0  0
   19.5446   -3.3376  -17.9527 C   0  0  0  0  0  0  0  0  0  0  0  0
   18.9805   -4.2555  -18.8107 C   0  0  0  0  0  0  0  0  0  0  0  0
   19.6481   -5.4459  -18.9893 C   0  0  0  0  0  0  0  0  0  0  0  0
   20.8305   -5.6992  -18.3329 C   0  0  0  0  0  0  0  0  0  0  0  0
   21.8636   -4.2252  -14.6304 C   0  0  0  0  0  0  0  0  0  0  0  0
   20.7455   -4.4527  -14.1134 O   0  0  0  0  0  0  0  0  0  0  0  0
   22.3634   -2.9286  -14.5327 O   0  0  0  0  0  0  0  0  0  0  0  0
  2  1  1  1
  2 10  1  0
  2  3  1  0
  4  3  1  0
  4  9  1  0
  5  4  2  0
  6  5  1  0
  6  7  2  0
  7  8  1  0
  8  9  2  0
 10 11  2  0
 12 13  1  0
 12 10  1  0
 14 15  1  0
 13 14  1  1
 16 13  1  0
 16 17  2  0
 18 16  1  0
 19 18  1  0
 19 27  1  0
 19 20  1  6
 21 20  1  0
 21 22  2  0
 23 22  1  0
 24 23  2  0
 25 26  2  0
 25 24  1  0
 26 21  1  0
 27 28  2  0
 27 29  1  0
M  END
$$$$
