FCF.pdb
     RDKit          3D

 29 30  0  0  1  0  0  0  0  0999 V2000
   20.3141  -13.0031  -17.5464 N   0  0  0  0  0  0  0  0  0  0  0  0
   20.8444  -11.7531  -18.0531 C   0  0  1  0  0  0  0  0  0  0  0  0
   20.0089  -11.3563  -19.2532 C   0  0  0  0  0  0  0  0  0  0  0  0
   20.2274  -12.2722  -20.3966 C   0  0  0  0  0  0  0  0  0  0  0  0
   19.3026  -13.2409  -20.7410 C   0  0  0  0  0  0  0  0  0  0  0  0
   19.5169  -14.0966  -21.8167 C   0  0  0  0  0  0  0  0  0  0  0  0
   20.6543  -14.0083  -22.5734 C   0  0  0  0  0  0  0  0  0  0  0  0
   21.5914  -13.0500  -22.2494 C   0  0  0  0  0  0  0  0  0  0  0  0
   21.3784  -12.2015  -21.1822 C   0  0  0  0  0  0  0  0  0  0  0  0
   20.7509  -10.7499  -16.9674 C   0  0  0  0  0  0  0  0  0  0  0  0
   19.7724  -10.7343  -16.1808 O   0  0  0  0  0  0  0  0  0  0  0  0
   21.7586   -9.7528  -16.7555 N   0  0  0  0  0  0  0  0  0  0  0  0
   21.6950   -8.7988  -15.6685 C   0  0  1  0  0  0  0  0  0  0  0  0
   22.9525   -8.9082  -14.8371 C   0  0  0  0  0  0  0  0  0  0  0  0
   22.5799   -9.6625  -13.2302 S   0  0  0  0  0  0  0  0  0  0  0  0
   21.4652   -7.4218  -16.1570 C   0  0  0  0  0  0  0  0  0  0  0  0
   22.0564   -7.0480  -17.2077 O   0  0  0  0  0  0  0  0  0  0  0  0
   20.6110   -6.5030  -15.4984 N   0  0  0  0  0  0  0  0  0  0  0  0
   20.3719   -5.1494  -15.9806 C   0  0  1  0  0  0  0  0  0  0  0  0
   19.7982   -5.1931  -17.3648 C   0  0  0  0  0  0  0  0  0  0  0  0
   18.4239   -5.7030  -17.4597 C   0  0  0  0  0  0  0  0  0  0  0  0
   18.1568   -7.0320  -17.8086 C   0  0  0  0  0  0  0  0  0  0  0  0
   16.8682   -7.5100  -17.8815 C   0  0  0  0  0  0  0  0  0  0  0  0
   15.7767   -6.7127  -17.6170 C   0  0  0  0  0  0  0  0  0  0  0  0
   16.0209   -5.4026  -17.2721 C   0  0  0  0  0  0  0  0  0  0  0  0
   17.3068   -4.9186  -17.1974 C   0  0  0  0  0  0  0  0  0  0  0  0
   19.4672   -4.4114  -15.0769 C   0  0  0  0  0  0  0  0  0  0  0  0
   18.8999   -5.0313  -14.1479 O   0  0  0  0  0  0  0  0  0  0  0  0
   19.2015   -3.0491  -15.1948 O   0  0  0  0  0  0  0  0  0  0  0  0
  2  1  1  1
  2 10  1  0
  2  3  1  0
  4  3  1  0
  4  9  1  0
  5  4  2  0
  6  5  1  0
  6  7  2  0
  7  8  1  0
  8  9  2  0
 10 11  2  0
 12 13  1  0
 12 10  1  0
 14 15  1  0
 13 14  1  6
 16 13  1  0
 16 17  2  0
 18 16  1  0
 19 18  1  0
 19 27  1  0
 19 20  1  6
 21 20  1  0
 21 22  2  0
 23 22  1  0
 24 23  2  0
 25 26  2  0
 25 24  1  0
 26 21  1  0
 27 28  2  0
 27 29  1  0
M  END
$$$$
