FCF.pdb
     RDKit          3D

 29 30  0  0  1  0  0  0  0  0999 V2000
   15.5367  -14.6399    3.9185 N   0  0  0  0  0  0  0  0  0  0  0  0
   16.2776  -15.8805    4.0285 C   0  0  1  0  0  0  0  0  0  0  0  0
   17.6192  -15.6716    3.3560 C   0  0  0  0  0  0  0  0  0  0  0  0
   18.3694  -14.5527    3.9714 C   0  0  0  0  0  0  0  0  0  0  0  0
   18.1770  -13.2417    3.5758 C   0  0  0  0  0  0  0  0  0  0  0  0
   18.8866  -12.1975    4.1599 C   0  0  0  0  0  0  0  0  0  0  0  0
   19.8026  -12.4330    5.1496 C   0  0  0  0  0  0  0  0  0  0  0  0
   20.0120  -13.7324    5.5612 C   0  0  0  0  0  0  0  0  0  0  0  0
   19.3079  -14.7678    4.9815 C   0  0  0  0  0  0  0  0  0  0  0  0
   16.4315  -16.1883    5.4692 C   0  0  0  0  0  0  0  0  0  0  0  0
   16.2718  -15.3008    6.3430 O   0  0  0  0  0  0  0  0  0  0  0  0
   16.7669  -17.4992    5.9419 N   0  0  0  0  0  0  0  0  0  0  0  0
   16.8014  -17.8351    7.3497 C   0  0  1  0  0  0  0  0  0  0  0  0
   15.5086  -18.5204    7.7288 C   0  0  0  0  0  0  0  0  0  0  0  0
   15.1180  -19.8295    6.5356 S   0  0  0  0  0  0  0  0  0  0  0  0
   17.9877  -18.6489    7.6928 C   0  0  0  0  0  0  0  0  0  0  0  0
   18.5549  -19.3050    6.7756 O   0  0  0  0  0  0  0  0  0  0  0  0
   18.5164  -18.7255    9.0051 N   0  0  0  0  0  0  0  0  0  0  0  0
   19.6546  -19.5628    9.3590 C   0  0  1  0  0  0  0  0  0  0  0  0
   20.5992  -18.7983   10.2367 C   0  0  0  0  0  0  0  0  0  0  0  0
   21.3288  -17.7084    9.5755 C   0  0  0  0  0  0  0  0  0  0  0  0
   22.2739  -17.9596    8.5740 C   0  0  0  0  0  0  0  0  0  0  0  0
   22.9442  -16.9346    7.9461 C   0  0  0  0  0  0  0  0  0  0  0  0
   22.7241  -15.6131    8.2659 C   0  0  0  0  0  0  0  0  0  0  0  0
   21.7976  -15.3476    9.2487 C   0  0  0  0  0  0  0  0  0  0  0  0
   21.1240  -16.3677    9.8802 C   0  0  0  0  0  0  0  0  0  0  0  0
   19.2185  -20.8004   10.0357 C   0  0  0  0  0  0  0  0  0  0  0  0
   18.0036  -20.9502   10.3019 O   0  0  0  0  0  0  0  0  0  0  0  0
   20.0864  -21.8266   10.4018 O   0  0  0  0  0  0  0  0  0  0  0  0
  2  1  1  1
  2 10  1  0
  2  3  1  0
  4  3  1  0
  4  9  1  0
  5  4  2  0
  6  5  1  0
  6  7  2  0
  7  8  1  0
  8  9  2  0
 10 11  2  0
 12 13  1  0
 12 10  1  0
 14 15  1  0
 13 14  1  6
 16 13  1  0
 16 17  2  0
 18 16  1  0
 19 18  1  0
 19 27  1  0
 19 20  1  1
 21 20  1  0
 21 22  2  0
 23 22  1  0
 24 23  2  0
 25 26  2  0
 25 24  1  0
 26 21  1  0
 27 28  2  0
 27 29  1  0
M  END
$$$$
