FCF.pdb
     RDKit          3D

 29 30  0  0  1  0  0  0  0  0999 V2000
   18.5435  -12.4320  -17.7793 N   0  0  0  0  0  0  0  0  0  0  0  0
   19.4896  -11.3713  -18.0620 C   0  0  1  0  0  0  0  0  0  0  0  0
   18.7896  -10.3595  -18.9463 C   0  0  0  0  0  0  0  0  0  0  0  0
   18.5162  -10.9098  -20.2939 C   0  0  0  0  0  0  0  0  0  0  0  0
   17.2494  -11.3157  -20.6719 C   0  0  0  0  0  0  0  0  0  0  0  0
   17.0026  -11.8315  -21.9400 C   0  0  0  0  0  0  0  0  0  0  0  0
   18.0088  -11.9551  -22.8601 C   0  0  0  0  0  0  0  0  0  0  0  0
   19.2807  -11.5569  -22.5064 C   0  0  0  0  0  0  0  0  0  0  0  0
   19.5250  -11.0454  -21.2483 C   0  0  0  0  0  0  0  0  0  0  0  0
   19.8993  -10.7753  -16.7694 C   0  0  0  0  0  0  0  0  0  0  0  0
   19.0870  -10.6680  -15.8179 O   0  0  0  0  0  0  0  0  0  0  0  0
   21.2285  -10.2934  -16.5339 N   0  0  0  0  0  0  0  0  0  0  0  0
   21.6133   -9.6381  -15.3016 C   0  0  1  0  0  0  0  0  0  0  0  0
   22.9032  -10.2445  -14.7983 C   0  0  0  0  0  0  0  0  0  0  0  0
   23.4611   -9.3827  -13.3030 S   0  0  0  0  0  0  0  0  0  0  0  0
   21.7108   -8.1714  -15.4649 C   0  0  0  0  0  0  0  0  0  0  0  0
   22.2576   -7.7155  -16.5072 O   0  0  0  0  0  0  0  0  0  0  0  0
   21.2178   -7.2546  -14.5037 N   0  0  0  0  0  0  0  0  0  0  0  0
   21.4128   -5.8143  -14.6016 C   0  0  1  0  0  0  0  0  0  0  0  0
   20.0925   -5.1310  -14.7935 C   0  0  0  0  0  0  0  0  0  0  0  0
   20.1524   -3.6674  -14.9030 C   0  0  0  0  0  0  0  0  0  0  0  0
   19.5607   -2.8350  -13.9458 C   0  0  0  0  0  0  0  0  0  0  0  0
   19.6323   -1.4640  -14.0439 C   0  0  0  0  0  0  0  0  0  0  0  0
   20.2857   -0.8387  -15.0826 C   0  0  0  0  0  0  0  0  0  0  0  0
   20.8736   -1.6420  -16.0333 C   0  0  0  0  0  0  0  0  0  0  0  0
   20.8058   -3.0132  -15.9409 C   0  0  0  0  0  0  0  0  0  0  0  0
   22.0920   -5.2836  -13.4029 C   0  0  0  0  0  0  0  0  0  0  0  0
   21.8182   -5.7745  -12.2835 O   0  0  0  0  0  0  0  0  0  0  0  0
   23.0319   -4.2561  -13.4400 O   0  0  0  0  0  0  0  0  0  0  0  0
  2  1  1  1
  2 10  1  0
  2  3  1  0
  4  3  1  0
  4  9  1  0
  5  4  2  0
  6  5  1  0
  6  7  2  0
  7  8  1  0
  8  9  2  0
 10 11  2  0
 12 13  1  0
 12 10  1  0
 14 15  1  0
 13 14  1  6
 16 13  1  0
 16 17  2  0
 18 16  1  0
 19 18  1  0
 19 27  1  0
 19 20  1  1
 21 20  1  0
 21 22  2  0
 23 22  1  0
 24 23  2  0
 25 26  2  0
 25 24  1  0
 26 21  1  0
 27 28  2  0
 27 29  1  0
M  END
$$$$
