FCF.pdb
     RDKit          3D

 29 30  0  0  1  0  0  0  0  0999 V2000
   24.6556  -15.3403  -18.6893 N   0  0  0  0  0  0  0  0  0  0  0  0
   24.5993  -14.3465  -17.6360 C   0  0  1  0  0  0  0  0  0  0  0  0
   26.0164  -14.1126  -17.1535 C   0  0  0  0  0  0  0  0  0  0  0  0
   26.5550  -15.2983  -16.4481 C   0  0  0  0  0  0  0  0  0  0  0  0
   26.2783  -15.5411  -15.1151 C   0  0  0  0  0  0  0  0  0  0  0  0
   26.7889  -16.6576  -14.4612 C   0  0  0  0  0  0  0  0  0  0  0  0
   27.5856  -17.5571  -15.1174 C   0  0  0  0  0  0  0  0  0  0  0  0
   27.8757  -17.3365  -16.4473 C   0  0  0  0  0  0  0  0  0  0  0  0
   27.3689  -16.2288  -17.0954 C   0  0  0  0  0  0  0  0  0  0  0  0
   24.0075  -13.1152  -18.2083 C   0  0  0  0  0  0  0  0  0  0  0  0
   24.3492  -12.6971  -19.3419 O   0  0  0  0  0  0  0  0  0  0  0  0
   23.0240  -12.3408  -17.5101 N   0  0  0  0  0  0  0  0  0  0  0  0
   22.4124  -11.1594  -18.0814 C   0  0  1  0  0  0  0  0  0  0  0  0
   21.1572  -11.5588  -18.8227 C   0  0  0  0  0  0  0  0  0  0  0  0
   20.2206  -12.7787  -17.8610 S   0  0  0  0  0  0  0  0  0  0  0  0
   22.1522  -10.1241  -17.0577 C   0  0  0  0  0  0  0  0  0  0  0  0
   21.7542  -10.4902  -15.9171 O   0  0  0  0  0  0  0  0  0  0  0  0
   22.3297   -8.7394  -17.2997 N   0  0  0  0  0  0  0  0  0  0  0  0
   21.9696   -7.7085  -16.3355 C   0  0  1  0  0  0  0  0  0  0  0  0
   22.7819   -6.4726  -16.5803 C   0  0  0  0  0  0  0  0  0  0  0  0
   22.3515   -5.2805  -15.8378 C   0  0  0  0  0  0  0  0  0  0  0  0
   22.5057   -5.1850  -14.4499 C   0  0  0  0  0  0  0  0  0  0  0  0
   22.1153   -4.0600  -13.7599 C   0  0  0  0  0  0  0  0  0  0  0  0
   21.5547   -2.9725  -14.3923 C   0  0  0  0  0  0  0  0  0  0  0  0
   21.3956   -3.0490  -15.7574 C   0  0  0  0  0  0  0  0  0  0  0  0
   21.7840   -4.1708  -16.4531 C   0  0  0  0  0  0  0  0  0  0  0  0
   20.5289   -7.3932  -16.4023 C   0  0  0  0  0  0  0  0  0  0  0  0
   19.9611   -7.3849  -17.5188 O   0  0  0  0  0  0  0  0  0  0  0  0
   19.7505   -7.1000  -15.2848 O   0  0  0  0  0  0  0  0  0  0  0  0
  2  1  1  6
  2 10  1  0
  2  3  1  0
  4  3  1  0
  4  9  1  0
  5  4  2  0
  6  5  1  0
  6  7  2  0
  7  8  1  0
  8  9  2  0
 10 11  2  0
 12 13  1  0
 12 10  1  0
 14 15  1  0
 13 14  1  1
 16 13  1  0
 16 17  2  0
 18 16  1  0
 19 18  1  0
 19 27  1  0
 19 20  1  6
 21 20  1  0
 21 22  2  0
 23 22  1  0
 24 23  2  0
 25 26  2  0
 25 24  1  0
 26 21  1  0
 27 28  2  0
 27 29  1  0
M  END
$$$$
