FCF.pdb
     RDKit          3D

 29 30  0  0  1  0  0  0  0  0999 V2000
   22.3966  -21.2282  -15.0735 N   0  0  0  0  0  0  0  0  0  0  0  0
   22.9005  -20.1995  -14.1858 C   0  0  1  0  0  0  0  0  0  0  0  0
   21.7074  -19.5595  -13.5055 C   0  0  0  0  0  0  0  0  0  0  0  0
   20.8681  -18.8098  -14.4684 C   0  0  0  0  0  0  0  0  0  0  0  0
   19.5248  -19.0915  -14.6375 C   0  0  0  0  0  0  0  0  0  0  0  0
   18.7446  -18.3818  -15.5445 C   0  0  0  0  0  0  0  0  0  0  0  0
   19.2820  -17.3769  -16.3032 C   0  0  0  0  0  0  0  0  0  0  0  0
   20.6196  -17.0775  -16.1524 C   0  0  0  0  0  0  0  0  0  0  0  0
   21.3930  -17.7818  -15.2525 C   0  0  0  0  0  0  0  0  0  0  0  0
   23.8026  -20.8498  -13.2073 C   0  0  0  0  0  0  0  0  0  0  0  0
   23.3649  -21.6805  -12.3736 O   0  0  0  0  0  0  0  0  0  0  0  0
   25.2077  -20.5716  -13.1567 N   0  0  0  0  0  0  0  0  0  0  0  0
   26.0786  -21.1370  -12.1478 C   0  0  1  0  0  0  0  0  0  0  0  0
   27.4418  -21.3862  -12.7512 C   0  0  0  0  0  0  0  0  0  0  0  0
   28.5913  -21.9838  -11.4816 S   0  0  0  0  0  0  0  0  0  0  0  0
   26.1482  -20.2856  -10.9405 C   0  0  0  0  0  0  0  0  0  0  0  0
   26.1101  -19.0320  -11.0834 O   0  0  0  0  0  0  0  0  0  0  0  0
   26.2558  -20.8138   -9.6301 N   0  0  0  0  0  0  0  0  0  0  0  0
   27.1429  -20.2588   -8.6167 C   0  0  1  0  0  0  0  0  0  0  0  0
   26.3711  -19.9672   -7.3651 C   0  0  0  0  0  0  0  0  0  0  0  0
   27.1771  -19.5328   -6.2166 C   0  0  0  0  0  0  0  0  0  0  0  0
   27.6433  -18.2178   -6.1026 C   0  0  0  0  0  0  0  0  0  0  0  0
   28.3853  -17.8108   -5.0172 C   0  0  0  0  0  0  0  0  0  0  0  0
   28.7085  -18.6688   -3.9894 C   0  0  0  0  0  0  0  0  0  0  0  0
   28.2581  -19.9660   -4.0850 C   0  0  0  0  0  0  0  0  0  0  0  0
   27.5158  -20.3792   -5.1673 C   0  0  0  0  0  0  0  0  0  0  0  0
   28.2612  -21.1771   -8.3236 C   0  0  0  0  0  0  0  0  0  0  0  0
   28.0381  -22.4088   -8.2770 O   0  0  0  0  0  0  0  0  0  0  0  0
   29.5677  -20.7528   -8.0925 O   0  0  0  0  0  0  0  0  0  0  0  0
  2  1  1  6
  2 10  1  0
  2  3  1  0
  4  3  1  0
  4  9  1  0
  5  4  2  0
  6  5  1  0
  6  7  2  0
  7  8  1  0
  8  9  2  0
 10 11  2  0
 12 13  1  0
 12 10  1  0
 14 15  1  0
 13 14  1  6
 16 13  1  0
 16 17  2  0
 18 16  1  0
 19 18  1  0
 19 27  1  0
 19 20  1  1
 21 20  1  0
 21 22  2  0
 23 22  1  0
 24 23  2  0
 25 26  2  0
 25 24  1  0
 26 21  1  0
 27 28  2  0
 27 29  1  0
M  END
$$$$
