FCF.pdb
     RDKit          3D

 29 30  0  0  1  0  0  0  0  0999 V2000
   23.3519  -21.8156  -15.0763 N   0  0  0  0  0  0  0  0  0  0  0  0
   23.7806  -20.8301  -14.1040 C   0  0  1  0  0  0  0  0  0  0  0  0
   22.6630  -20.6702  -13.0935 C   0  0  0  0  0  0  0  0  0  0  0  0
   21.4520  -20.0797  -13.7087 C   0  0  0  0  0  0  0  0  0  0  0  0
   21.4821  -18.8513  -14.3430 C   0  0  0  0  0  0  0  0  0  0  0  0
   20.3392  -18.3049  -14.9178 C   0  0  0  0  0  0  0  0  0  0  0  0
   19.1417  -18.9670  -14.8748 C   0  0  0  0  0  0  0  0  0  0  0  0
   19.0866  -20.1939  -14.2477 C   0  0  0  0  0  0  0  0  0  0  0  0
   20.2206  -20.7354  -13.6777 C   0  0  0  0  0  0  0  0  0  0  0  0
   25.0218  -21.3316  -13.4701 C   0  0  0  0  0  0  0  0  0  0  0  0
   25.1090  -22.5155  -13.0611 O   0  0  0  0  0  0  0  0  0  0  0  0
   26.1788  -20.5051  -13.2896 N   0  0  0  0  0  0  0  0  0  0  0  0
   27.3175  -20.9201  -12.4977 C   0  0  1  0  0  0  0  0  0  0  0  0
   28.5536  -20.2037  -12.9914 C   0  0  0  0  0  0  0  0  0  0  0  0
   29.7505  -20.0130  -11.6418 S   0  0  0  0  0  0  0  0  0  0  0  0
   27.0889  -20.7097  -11.0517 C   0  0  0  0  0  0  0  0  0  0  0  0
   26.3240  -19.7721  -10.6921 O   0  0  0  0  0  0  0  0  0  0  0  0
   27.6898  -21.5134  -10.0515 N   0  0  0  0  0  0  0  0  0  0  0  0
   27.5165  -21.2742   -8.6251 C   0  0  1  0  0  0  0  0  0  0  0  0
   28.7409  -20.6161   -8.0640 C   0  0  0  0  0  0  0  0  0  0  0  0
   28.6538  -20.2284   -6.6499 C   0  0  0  0  0  0  0  0  0  0  0  0
   28.2533  -18.9437   -6.2645 C   0  0  0  0  0  0  0  0  0  0  0  0
   28.1583  -18.5890   -4.9381 C   0  0  0  0  0  0  0  0  0  0  0  0
   28.4498  -19.4725   -3.9225 C   0  0  0  0  0  0  0  0  0  0  0  0
   28.8452  -20.7406   -4.2833 C   0  0  0  0  0  0  0  0  0  0  0  0
   28.9422  -21.1015   -5.6075 C   0  0  0  0  0  0  0  0  0  0  0  0
   26.3252  -20.4425   -8.3629 C   0  0  0  0  0  0  0  0  0  0  0  0
   25.4093  -20.9047   -7.6442 O   0  0  0  0  0  0  0  0  0  0  0  0
   26.1539  -19.1574   -8.8724 O   0  0  0  0  0  0  0  0  0  0  0  0
  2  1  1  6
  2 10  1  0
  2  3  1  0
  4  3  1  0
  4  9  1  0
  5  4  2  0
  6  5  1  0
  6  7  2  0
  7  8  1  0
  8  9  2  0
 10 11  2  0
 12 13  1  0
 12 10  1  0
 14 15  1  0
 13 14  1  6
 16 13  1  0
 16 17  2  0
 18 16  1  0
 19 18  1  0
 19 27  1  0
 19 20  1  6
 21 20  1  0
 21 22  2  0
 23 22  1  0
 24 23  2  0
 25 26  2  0
 25 24  1  0
 26 21  1  0
 27 28  2  0
 27 29  1  0
M  END
$$$$
