FCF.pdb
     RDKit          3D

 29 30  0  0  1  0  0  0  0  0999 V2000
   21.2706   -6.7461  -22.8857 N   0  0  0  0  0  0  0  0  0  0  0  0
   20.2727   -5.9796  -22.1666 C   0  0  1  0  0  0  0  0  0  0  0  0
   19.1021   -6.9009  -21.8899 C   0  0  0  0  0  0  0  0  0  0  0  0
   18.1950   -6.9956  -23.0568 C   0  0  0  0  0  0  0  0  0  0  0  0
   17.7613   -5.8716  -23.7356 C   0  0  0  0  0  0  0  0  0  0  0  0
   16.9091   -5.9708  -24.8307 C   0  0  0  0  0  0  0  0  0  0  0  0
   16.4694   -7.1888  -25.2750 C   0  0  0  0  0  0  0  0  0  0  0  0
   16.8883   -8.3244  -24.6143 C   0  0  0  0  0  0  0  0  0  0  0  0
   17.7336   -8.2253  -23.5281 C   0  0  0  0  0  0  0  0  0  0  0  0
   20.8936   -5.4943  -20.9124 C   0  0  0  0  0  0  0  0  0  0  0  0
   22.0040   -5.9346  -20.5254 O   0  0  0  0  0  0  0  0  0  0  0  0
   20.2707   -4.5076  -20.0800 N   0  0  0  0  0  0  0  0  0  0  0  0
   20.8483   -4.0669  -18.8277 C   0  0  1  0  0  0  0  0  0  0  0  0
   20.3632   -2.6685  -18.5217 C   0  0  0  0  0  0  0  0  0  0  0  0
   21.0747   -1.4851  -19.6979 S   0  0  0  0  0  0  0  0  0  0  0  0
   20.5624   -5.0119  -17.7265 C   0  0  0  0  0  0  0  0  0  0  0  0
   19.5087   -5.7046  -17.7844 O   0  0  0  0  0  0  0  0  0  0  0  0
   21.4181   -5.1748  -16.6091 N   0  0  0  0  0  0  0  0  0  0  0  0
   21.1658   -6.1365  -15.5445 C   0  0  1  0  0  0  0  0  0  0  0  0
   22.4482   -6.4754  -14.8464 C   0  0  0  0  0  0  0  0  0  0  0  0
   22.3348   -7.4703  -13.7717 C   0  0  0  0  0  0  0  0  0  0  0  0
   22.0117   -7.1010  -12.4608 C   0  0  0  0  0  0  0  0  0  0  0  0
   21.8914   -8.0380  -11.4599 C   0  0  0  0  0  0  0  0  0  0  0  0
   22.0808   -9.3826  -11.6907 C   0  0  0  0  0  0  0  0  0  0  0  0
   22.3991   -9.7638  -12.9744 C   0  0  0  0  0  0  0  0  0  0  0  0
   22.5208   -8.8321  -13.9796 C   0  0  0  0  0  0  0  0  0  0  0  0
   20.1802   -5.6163  -14.5761 C   0  0  0  0  0  0  0  0  0  0  0  0
   19.5747   -6.4237  -13.8341 O   0  0  0  0  0  0  0  0  0  0  0  0
   19.8776   -4.2640  -14.4341 O   0  0  0  0  0  0  0  0  0  0  0  0
  2  1  1  6
  2 10  1  0
  2  3  1  0
  4  3  1  0
  4  9  1  0
  5  4  2  0
  6  5  1  0
  6  7  2  0
  7  8  1  0
  8  9  2  0
 10 11  2  0
 12 13  1  0
 12 10  1  0
 14 15  1  0
 13 14  1  1
 16 13  1  0
 16 17  2  0
 18 16  1  0
 19 18  1  0
 19 27  1  0
 19 20  1  1
 21 20  1  0
 21 22  2  0
 23 22  1  0
 24 23  2  0
 25 26  2  0
 25 24  1  0
 26 21  1  0
 27 28  2  0
 27 29  1  0
M  END
$$$$
