FCF.pdb
     RDKit          3D

 29 30  0  0  1  0  0  0  0  0999 V2000
   22.3581  -22.0206  -14.3417 N   0  0  0  0  0  0  0  0  0  0  0  0
   22.8830  -20.8972  -13.5914 C   0  0  1  0  0  0  0  0  0  0  0  0
   21.7461  -20.3281  -12.7671 C   0  0  0  0  0  0  0  0  0  0  0  0
   20.7715  -19.5999  -13.6118 C   0  0  0  0  0  0  0  0  0  0  0  0
   19.4953  -20.0839  -13.8340 C   0  0  0  0  0  0  0  0  0  0  0  0
   18.5869  -19.3926  -14.6290 C   0  0  0  0  0  0  0  0  0  0  0  0
   18.9267  -18.2057  -15.2206 C   0  0  0  0  0  0  0  0  0  0  0  0
   20.1939  -17.7028  -15.0139 C   0  0  0  0  0  0  0  0  0  0  0  0
   21.0946  -18.3889  -14.2251 C   0  0  0  0  0  0  0  0  0  0  0  0
   23.9803  -21.4007  -12.7332 C   0  0  0  0  0  0  0  0  0  0  0  0
   23.8123  -22.3904  -11.9790 O   0  0  0  0  0  0  0  0  0  0  0  0
   25.2793  -20.7951  -12.7150 N   0  0  0  0  0  0  0  0  0  0  0  0
   26.3348  -21.2404  -11.8298 C   0  0  1  0  0  0  0  0  0  0  0  0
   27.6735  -20.9716  -12.4781 C   0  0  0  0  0  0  0  0  0  0  0  0
   29.0197  -21.3876  -11.3358 S   0  0  0  0  0  0  0  0  0  0  0  0
   26.2275  -20.6224  -10.4904 C   0  0  0  0  0  0  0  0  0  0  0  0
   25.8035  -19.4365  -10.4054 O   0  0  0  0  0  0  0  0  0  0  0  0
   26.5794  -21.3017   -9.2978 N   0  0  0  0  0  0  0  0  0  0  0  0
   26.8187  -20.6206   -8.0326 C   0  0  1  0  0  0  0  0  0  0  0  0
   27.5460  -21.5317   -7.0904 C   0  0  0  0  0  0  0  0  0  0  0  0
   28.0209  -20.9040   -5.8502 C   0  0  0  0  0  0  0  0  0  0  0  0
   29.2050  -20.1585   -5.8117 C   0  0  0  0  0  0  0  0  0  0  0  0
   29.6385  -19.5591   -4.6511 C   0  0  0  0  0  0  0  0  0  0  0  0
   28.9362  -19.6586   -3.4705 C   0  0  0  0  0  0  0  0  0  0  0  0
   27.7691  -20.3880   -3.4900 C   0  0  0  0  0  0  0  0  0  0  0  0
   27.3301  -20.9897   -4.6470 C   0  0  0  0  0  0  0  0  0  0  0  0
   27.5864  -19.3754   -8.2321 C   0  0  0  0  0  0  0  0  0  0  0  0
   28.6188  -19.4065   -8.9409 O   0  0  0  0  0  0  0  0  0  0  0  0
   27.2290  -18.1506   -7.6731 O   0  0  0  0  0  0  0  0  0  0  0  0
  2  1  1  1
  2 10  1  0
  2  3  1  0
  4  3  1  0
  4  9  1  0
  5  4  2  0
  6  5  1  0
  6  7  2  0
  7  8  1  0
  8  9  2  0
 10 11  2  0
 12 13  1  0
 12 10  1  0
 14 15  1  0
 13 14  1  6
 16 13  1  0
 16 17  2  0
 18 16  1  0
 19 18  1  0
 19 27  1  0
 19 20  1  1
 21 20  1  0
 21 22  2  0
 23 22  1  0
 24 23  2  0
 25 26  2  0
 25 24  1  0
 26 21  1  0
 27 28  2  0
 27 29  1  0
M  END
$$$$
