FCF.pdb
     RDKit          3D

 29 30  0  0  1  0  0  0  0  0999 V2000
   27.9542  -23.4883  -20.3402 N   0  0  0  0  0  0  0  0  0  0  0  0
   28.3110  -24.8068  -19.8561 C   0  0  1  0  0  0  0  0  0  0  0  0
   28.1080  -25.7822  -20.9976 C   0  0  0  0  0  0  0  0  0  0  0  0
   26.6763  -25.9160  -21.3525 C   0  0  0  0  0  0  0  0  0  0  0  0
   25.7899  -26.6149  -20.5537 C   0  0  0  0  0  0  0  0  0  0  0  0
   24.4469  -26.7351  -20.8956 C   0  0  0  0  0  0  0  0  0  0  0  0
   23.9554  -26.1635  -22.0383 C   0  0  0  0  0  0  0  0  0  0  0  0
   24.8201  -25.4613  -22.8512 C   0  0  0  0  0  0  0  0  0  0  0  0
   26.1522  -25.3425  -22.5116 C   0  0  0  0  0  0  0  0  0  0  0  0
   29.7267  -24.7608  -19.4228 C   0  0  0  0  0  0  0  0  0  0  0  0
   30.4452  -23.7583  -19.6583 O   0  0  0  0  0  0  0  0  0  0  0  0
   30.3491  -25.8435  -18.7194 N   0  0  0  0  0  0  0  0  0  0  0  0
   31.6804  -25.7461  -18.1588 C   0  0  1  0  0  0  0  0  0  0  0  0
   31.6801  -24.7142  -17.0544 C   0  0  0  0  0  0  0  0  0  0  0  0
   30.4051  -25.1087  -15.8260 S   0  0  0  0  0  0  0  0  0  0  0  0
   32.1812  -27.0591  -17.6976 C   0  0  0  0  0  0  0  0  0  0  0  0
   31.8946  -27.4370  -16.5279 O   0  0  0  0  0  0  0  0  0  0  0  0
   32.9685  -27.9121  -18.5100 N   0  0  0  0  0  0  0  0  0  0  0  0
   33.3785  -29.2486  -18.1006 C   0  0  1  0  0  0  0  0  0  0  0  0
   32.1722  -30.1173  -17.9075 C   0  0  0  0  0  0  0  0  0  0  0  0
   32.4533  -31.5398  -17.6726 C   0  0  0  0  0  0  0  0  0  0  0  0
   32.5916  -32.4451  -18.7312 C   0  0  0  0  0  0  0  0  0  0  0  0
   32.8702  -33.7742  -18.5075 C   0  0  0  0  0  0  0  0  0  0  0  0
   33.0274  -34.2845  -17.2379 C   0  0  0  0  0  0  0  0  0  0  0  0
   32.8949  -33.4082  -16.1847 C   0  0  0  0  0  0  0  0  0  0  0  0
   32.6165  -32.0783  -16.4016 C   0  0  0  0  0  0  0  0  0  0  0  0
   34.2904  -29.8554  -19.0906 C   0  0  0  0  0  0  0  0  0  0  0  0
   34.0972  -29.6344  -20.3083 O   0  0  0  0  0  0  0  0  0  0  0  0
   35.3677  -30.6699  -18.7497 O   0  0  0  0  0  0  0  0  0  0  0  0
  2  1  1  6
  2 10  1  0
  2  3  1  0
  4  3  1  0
  4  9  1  0
  5  4  2  0
  6  5  1  0
  6  7  2  0
  7  8  1  0
  8  9  2  0
 10 11  2  0
 12 13  1  0
 12 10  1  0
 14 15  1  0
 13 14  1  1
 16 13  1  0
 16 17  2  0
 18 16  1  0
 19 18  1  0
 19 27  1  0
 19 20  1  6
 21 20  1  0
 21 22  2  0
 23 22  1  0
 24 23  2  0
 25 26  2  0
 25 24  1  0
 26 21  1  0
 27 28  2  0
 27 29  1  0
M  END
$$$$
