MLM.pdb
     RDKit          3D

 25 24  0  0  1  0  0  0  0  0999 V2000
    7.1107  -20.7919   27.3817 C   0  0  0  0  0  0  0  0  0  0  0  0
    6.1145  -21.7380   26.1723 S   0  0  0  0  0  0  0  0  0  0  0  0
    5.5863  -20.6024   24.8740 C   0  0  0  0  0  0  0  0  0  0  0  0
    6.5338  -19.4003   24.8564 C   0  0  0  0  0  0  0  0  0  0  0  0
    5.9941  -18.4628   23.7764 C   0  0  2  0  0  0  0  0  0  0  0  0
    6.0967  -19.1890   22.5266 N   0  0  0  0  0  0  0  0  0  0  0  0
    6.8392  -17.2474   23.6640 C   0  0  0  0  0  0  0  0  0  0  0  0
    7.6475  -17.0759   22.7099 O   0  0  0  0  0  0  0  0  0  0  0  0
    5.7191  -12.2806   26.4662 C   0  0  0  0  0  0  0  0  0  0  0  0
    6.1616  -12.9554   25.1358 C   0  0  1  0  0  0  0  0  0  0  0  0
    6.9189  -11.8679   24.4111 C   0  0  0  0  0  0  0  0  0  0  0  0
    7.0091  -14.0878   25.5421 C   0  0  0  0  0  0  0  0  0  0  0  0
    7.6194  -14.9915   24.5467 C   0  0  2  0  0  0  0  0  0  0  0  0
    6.7709  -16.2309   24.6257 N   0  0  0  0  0  0  0  0  0  0  0  0
    8.9770  -15.4674   24.7219 C   0  0  0  0  0  0  0  0  0  0  0  0
    9.9555  -14.6914   24.3870 O   0  0  0  0  0  0  0  0  0  0  0  0
   10.4976  -13.0839   28.8246 C   0  0  0  0  0  0  0  0  0  0  0  0
   10.9378  -14.6428   29.6270 S   0  0  0  0  0  0  0  0  0  0  0  0
   11.3025  -15.8630   28.3629 C   0  0  0  0  0  0  0  0  0  0  0  0
   10.3765  -15.8671   27.2194 C   0  0  0  0  0  0  0  0  0  0  0  0
   10.6100  -16.8242   26.0894 C   0  0  2  0  0  0  0  0  0  0  0  0
    9.4064  -16.7228   25.2436 N   0  0  0  0  0  0  0  0  0  0  0  0
   10.9498  -18.1898   26.4337 C   0  0  0  0  0  0  0  0  0  0  0  0
   10.2572  -19.3227   26.0317 O   0  0  0  0  0  0  0  0  0  0  0  0
   11.9579  -18.4395   27.1722 O   0  0  0  0  0  0  0  0  0  0  0  0
  1  2  1  0
  2  3  1  0
  4  3  1  0
  4  5  1  0
  5  7  1  0
  5  6  1  6
  7  8  2  0
 10  9  1  1
 11 10  1  0
 13 12  1  1
 12 10  1  0
 14 13  1  0
 14  7  1  0
 15 16  2  0
 15 13  1  0
 17 18  1  0
 19 20  1  0
 19 18  1  0
 21 20  1  1
 21 22  1  0
 21 23  1  0
 22 15  1  0
 23 24  1  0
 25 23  2  0
M  END
$$$$
