MLM.pdb
     RDKit          3D

 25 24  0  0  1  0  0  0  0  0999 V2000
    8.1103  -11.4439   19.6527 C   0  0  0  0  0  0  0  0  0  0  0  0
    7.8946  -12.8351   18.4830 S   0  0  0  0  0  0  0  0  0  0  0  0
    8.0728  -14.3741   19.4071 C   0  0  0  0  0  0  0  0  0  0  0  0
    8.6001  -14.0492   20.8069 C   0  0  0  0  0  0  0  0  0  0  0  0
    8.6779  -15.3875   21.5414 C   0  0  2  0  0  0  0  0  0  0  0  0
    7.3462  -15.9560   21.4820 N   0  0  0  0  0  0  0  0  0  0  0  0
    9.0192  -15.1839   22.9719 C   0  0  0  0  0  0  0  0  0  0  0  0
   10.1922  -14.9141   23.3519 O   0  0  0  0  0  0  0  0  0  0  0  0
    5.5468  -12.6199   26.2380 C   0  0  0  0  0  0  0  0  0  0  0  0
    6.9142  -12.9634   25.5798 C   0  0  1  0  0  0  0  0  0  0  0  0
    7.8784  -11.9902   26.2161 C   0  0  0  0  0  0  0  0  0  0  0  0
    7.1740  -14.3659   25.9418 C   0  0  0  0  0  0  0  0  0  0  0  0
    8.3523  -15.0909   25.4262 C   0  0  2  0  0  0  0  0  0  0  0  0
    8.0391  -15.2847   23.9679 N   0  0  0  0  0  0  0  0  0  0  0  0
    8.6671  -16.4198   25.9111 C   0  0  0  0  0  0  0  0  0  0  0  0
    8.4170  -17.4345   25.1495 O   0  0  0  0  0  0  0  0  0  0  0  0
   12.4429  -17.2742   23.2358 C   0  0  0  0  0  0  0  0  0  0  0  0
   13.5307  -17.7637   24.5941 S   0  0  0  0  0  0  0  0  0  0  0  0
   12.5242  -18.2151   26.0094 C   0  0  0  0  0  0  0  0  0  0  0  0
   11.3077  -17.4067   26.1883 C   0  0  0  0  0  0  0  0  0  0  0  0
   10.3133  -17.8000   27.2387 C   0  0  2  0  0  0  0  0  0  0  0  0
    9.2483  -16.7831   27.1612 N   0  0  0  0  0  0  0  0  0  0  0  0
   10.8111  -18.0006   28.5844 C   0  0  0  0  0  0  0  0  0  0  0  0
   11.0979  -19.2264   29.1675 O   0  0  0  0  0  0  0  0  0  0  0  0
   11.0194  -17.0055   29.3527 O   0  0  0  0  0  0  0  0  0  0  0  0
  1  2  1  0
  2  3  1  0
  4  3  1  0
  4  5  1  0
  5  7  1  0
  5  6  1  1
  7  8  2  0
 10  9  1  1
 11 10  1  0
 13 12  1  1
 12 10  1  0
 14 13  1  0
 14  7  1  0
 15 16  2  0
 15 13  1  0
 17 18  1  0
 19 20  1  0
 19 18  1  0
 21 20  1  6
 21 22  1  0
 21 23  1  0
 22 15  1  0
 23 24  1  0
 25 23  2  0
M  END
$$$$
