MLM.pdb
     RDKit          3D

 25 24  0  0  1  0  0  0  0  0999 V2000
    6.7914  -18.2181   27.9449 C   0  0  0  0  0  0  0  0  0  0  0  0
    6.3244  -19.8923   27.3709 S   0  0  0  0  0  0  0  0  0  0  0  0
    6.0073  -19.8061   25.5971 C   0  0  0  0  0  0  0  0  0  0  0  0
    7.0880  -18.9397   24.9456 C   0  0  0  0  0  0  0  0  0  0  0  0
    6.5787  -18.6307   23.5379 C   0  0  2  0  0  0  0  0  0  0  0  0
    6.5858  -19.8912   22.8229 N   0  0  0  0  0  0  0  0  0  0  0  0
    7.5036  -17.7066   22.8345 C   0  0  0  0  0  0  0  0  0  0  0  0
    8.4128  -18.1222   22.0640 O   0  0  0  0  0  0  0  0  0  0  0  0
    6.3136  -12.6596   20.7130 C   0  0  0  0  0  0  0  0  0  0  0  0
    7.0471  -14.0317   20.6981 C   0  0  1  0  0  0  0  0  0  0  0  0
    8.1043  -13.8671   19.6319 C   0  0  0  0  0  0  0  0  0  0  0  0
    7.6011  -14.1866   22.0527 C   0  0  0  0  0  0  0  0  0  0  0  0
    8.4101  -15.3639   22.4260 C   0  0  2  0  0  0  0  0  0  0  0  0
    7.4011  -16.3194   23.0015 N   0  0  0  0  0  0  0  0  0  0  0  0
    9.4343  -15.2577   23.4458 C   0  0  0  0  0  0  0  0  0  0  0  0
   10.1099  -14.1588   23.5357 O   0  0  0  0  0  0  0  0  0  0  0  0
    7.6355  -11.9939   26.9921 C   0  0  0  0  0  0  0  0  0  0  0  0
    7.5909  -13.4575   28.0521 S   0  0  0  0  0  0  0  0  0  0  0  0
    8.9840  -14.5122   27.6436 C   0  0  0  0  0  0  0  0  0  0  0  0
    9.0359  -14.9554   26.2414 C   0  0  0  0  0  0  0  0  0  0  0  0
   10.1581  -15.8427   25.7935 C   0  0  2  0  0  0  0  0  0  0  0  0
    9.8134  -16.2331   24.4139 N   0  0  0  0  0  0  0  0  0  0  0  0
   10.4910  -16.9719   26.6378 C   0  0  0  0  0  0  0  0  0  0  0  0
   10.1938  -18.3000   26.3684 O   0  0  0  0  0  0  0  0  0  0  0  0
   11.1051  -16.7969   27.7406 O   0  0  0  0  0  0  0  0  0  0  0  0
  1  2  1  0
  2  3  1  0
  4  3  1  0
  4  5  1  0
  5  7  1  0
  5  6  1  6
  7  8  2  0
 10  9  1  1
 11 10  1  0
 13 12  1  1
 12 10  1  0
 14 13  1  0
 14  7  1  0
 15 16  2  0
 15 13  1  0
 17 18  1  0
 19 20  1  0
 19 18  1  0
 21 20  1  1
 21 22  1  0
 21 23  1  0
 22 15  1  0
 23 24  1  0
 25 23  2  0
M  END
$$$$
