MLM.pdb
     RDKit          3D

 25 24  0  0  1  0  0  0  0  0999 V2000
    6.4371  -12.3228   26.6171 C   0  0  0  0  0  0  0  0  0  0  0  0
    7.8447  -13.4886   26.7150 S   0  0  0  0  0  0  0  0  0  0  0  0
    7.2114  -15.1537   26.4305 C   0  0  0  0  0  0  0  0  0  0  0  0
    6.2556  -15.1190   25.2354 C   0  0  0  0  0  0  0  0  0  0  0  0
    6.2983  -16.5217   24.6296 C   0  0  2  0  0  0  0  0  0  0  0  0
    6.7246  -17.4063   25.6954 N   0  0  0  0  0  0  0  0  0  0  0  0
    7.3114  -16.5970   23.5470 C   0  0  0  0  0  0  0  0  0  0  0  0
    7.6571  -17.6925   23.0239 O   0  0  0  0  0  0  0  0  0  0  0  0
    8.0748  -12.1468   20.4211 C   0  0  0  0  0  0  0  0  0  0  0  0
    7.6999  -13.5570   20.9615 C   0  0  1  0  0  0  0  0  0  0  0  0
    7.0924  -14.2541   19.7672 C   0  0  0  0  0  0  0  0  0  0  0  0
    8.9724  -14.1513   21.4013 C   0  0  0  0  0  0  0  0  0  0  0  0
    9.0250  -15.4875   22.0272 C   0  0  2  0  0  0  0  0  0  0  0  0
    7.9308  -15.4393   23.0581 N   0  0  0  0  0  0  0  0  0  0  0  0
   10.2006  -15.9081   22.7629 C   0  0  0  0  0  0  0  0  0  0  0  0
   11.3677  -15.6337   22.2785 O   0  0  0  0  0  0  0  0  0  0  0  0
    9.6651  -14.3942   29.8573 C   0  0  0  0  0  0  0  0  0  0  0  0
    9.9906  -13.9372   28.1389 S   0  0  0  0  0  0  0  0  0  0  0  0
   10.6044  -15.3773   27.2620 C   0  0  0  0  0  0  0  0  0  0  0  0
   10.7966  -15.1873   25.8156 C   0  0  0  0  0  0  0  0  0  0  0  0
   11.3180  -16.3240   24.9891 C   0  0  2  0  0  0  0  0  0  0  0  0
   10.2557  -16.6044   24.0057 N   0  0  0  0  0  0  0  0  0  0  0  0
   11.7676  -17.5074   25.6936 C   0  0  0  0  0  0  0  0  0  0  0  0
   11.2970  -18.7970   25.4932 O   0  0  0  0  0  0  0  0  0  0  0  0
   12.6675  -17.4232   26.5920 O   0  0  0  0  0  0  0  0  0  0  0  0
  1  2  1  0
  2  3  1  0
  4  3  1  0
  4  5  1  0
  5  7  1  0
  5  6  1  1
  7  8  2  0
 10  9  1  6
 11 10  1  0
 13 12  1  1
 12 10  1  0
 14 13  1  0
 14  7  1  0
 15 16  2  0
 15 13  1  0
 17 18  1  0
 19 20  1  0
 19 18  1  0
 21 20  1  1
 21 22  1  0
 21 23  1  0
 22 15  1  0
 23 24  1  0
 25 23  2  0
M  END
$$$$
