MLM.pdb
     RDKit          3D

 25 24  0  0  1  0  0  0  0  0999 V2000
   10.1875  -18.4371   15.7256 C   0  0  0  0  0  0  0  0  0  0  0  0
    9.2874  -19.8798   16.4029 S   0  0  0  0  0  0  0  0  0  0  0  0
    9.0552  -19.6128   18.1718 C   0  0  0  0  0  0  0  0  0  0  0  0
   10.0100  -18.5085   18.6322 C   0  0  0  0  0  0  0  0  0  0  0  0
    9.8337  -18.4132   20.1476 C   0  0  2  0  0  0  0  0  0  0  0  0
    8.4515  -18.7585   20.4133 N   0  0  0  0  0  0  0  0  0  0  0  0
   10.0502  -17.0212   20.6162 C   0  0  0  0  0  0  0  0  0  0  0  0
   11.1643  -16.4389   20.5034 O   0  0  0  0  0  0  0  0  0  0  0  0
    6.3478  -13.0903   19.8988 C   0  0  0  0  0  0  0  0  0  0  0  0
    7.7546  -13.7552   19.9074 C   0  0  1  0  0  0  0  0  0  0  0  0
    8.6850  -12.6424   19.4866 C   0  0  0  0  0  0  0  0  0  0  0  0
    7.9622  -14.1984   21.2953 C   0  0  0  0  0  0  0  0  0  0  0  0
    9.2019  -14.8852   21.7093 C   0  0  2  0  0  0  0  0  0  0  0  0
    9.0121  -16.2911   21.2097 N   0  0  0  0  0  0  0  0  0  0  0  0
    9.5228  -15.0378   23.1142 C   0  0  0  0  0  0  0  0  0  0  0  0
   10.1478  -14.0793   23.7165 O   0  0  0  0  0  0  0  0  0  0  0  0
    7.5836  -11.5100   27.0719 C   0  0  0  0  0  0  0  0  0  0  0  0
    6.4621  -12.8721   26.6784 S   0  0  0  0  0  0  0  0  0  0  0  0
    7.3773  -14.4142   26.7437 C   0  0  0  0  0  0  0  0  0  0  0  0
    7.8506  -14.9099   25.4416 C   0  0  0  0  0  0  0  0  0  0  0  0
    8.9399  -15.9390   25.4002 C   0  0  2  0  0  0  0  0  0  0  0  0
    9.2255  -16.1405   23.9676 N   0  0  0  0  0  0  0  0  0  0  0  0
    8.7115  -17.1787   26.1143 C   0  0  0  0  0  0  0  0  0  0  0  0
    8.7802  -17.3453   27.4899 O   0  0  0  0  0  0  0  0  0  0  0  0
    8.4243  -18.2469   25.4816 O   0  0  0  0  0  0  0  0  0  0  0  0
  1  2  1  0
  2  3  1  0
  4  3  1  0
  4  5  1  0
  5  7  1  0
  5  6  1  6
  7  8  2  0
 10  9  1  1
 11 10  1  0
 13 12  1  1
 12 10  1  0
 14 13  1  0
 14  7  1  0
 15 16  2  0
 15 13  1  0
 17 18  1  0
 19 20  1  0
 19 18  1  0
 21 20  1  6
 21 22  1  0
 21 23  1  0
 22 15  1  0
 23 24  1  0
 25 23  2  0
M  END
$$$$
