MLM.pdb
     RDKit          3D

 25 24  0  0  1  0  0  0  0  0999 V2000
    9.4370  -18.3792   15.7964 C   0  0  0  0  0  0  0  0  0  0  0  0
    8.9756  -20.0279   16.4438 S   0  0  0  0  0  0  0  0  0  0  0  0
    8.9495  -19.9329   18.2451 C   0  0  0  0  0  0  0  0  0  0  0  0
    9.4259  -18.5421   18.6714 C   0  0  0  0  0  0  0  0  0  0  0  0
    9.3356  -18.5227   20.1972 C   0  0  2  0  0  0  0  0  0  0  0  0
    7.9469  -18.7817   20.5205 N   0  0  0  0  0  0  0  0  0  0  0  0
    9.6806  -17.1798   20.7279 C   0  0  0  0  0  0  0  0  0  0  0  0
   10.8568  -16.7234   20.6906 O   0  0  0  0  0  0  0  0  0  0  0  0
    6.5256  -13.2145   19.2647 C   0  0  0  0  0  0  0  0  0  0  0  0
    7.8921  -13.8958   19.5638 C   0  0  1  0  0  0  0  0  0  0  0  0
    8.9116  -12.8508   19.1765 C   0  0  0  0  0  0  0  0  0  0  0  0
    7.8701  -14.1856   21.0064 C   0  0  0  0  0  0  0  0  0  0  0  0
    8.9684  -14.9224   21.6628 C   0  0  2  0  0  0  0  0  0  0  0  0
    8.7006  -16.3568   21.2982 N   0  0  0  0  0  0  0  0  0  0  0  0
    9.0876  -14.9296   23.1071 C   0  0  0  0  0  0  0  0  0  0  0  0
    9.9814  -14.1767   23.6604 O   0  0  0  0  0  0  0  0  0  0  0  0
    7.6049  -11.2628   27.0004 C   0  0  0  0  0  0  0  0  0  0  0  0
    6.2500  -12.3811   26.5748 S   0  0  0  0  0  0  0  0  0  0  0  0
    6.8541  -13.6088   25.4138 C   0  0  0  0  0  0  0  0  0  0  0  0
    7.3085  -14.8684   26.0239 C   0  0  0  0  0  0  0  0  0  0  0  0
    8.5440  -15.5347   25.4979 C   0  0  2  0  0  0  0  0  0  0  0  0
    8.3182  -15.6753   24.0475 N   0  0  0  0  0  0  0  0  0  0  0  0
    8.9546  -16.7709   26.1320 C   0  0  0  0  0  0  0  0  0  0  0  0
    9.3769  -16.9054   27.4467 O   0  0  0  0  0  0  0  0  0  0  0  0
    8.9562  -17.8646   25.4779 O   0  0  0  0  0  0  0  0  0  0  0  0
  1  2  1  0
  2  3  1  0
  4  3  1  0
  4  5  1  0
  5  7  1  0
  5  6  1  6
  7  8  2  0
 10  9  1  1
 11 10  1  0
 13 12  1  1
 12 10  1  0
 14 13  1  0
 14  7  1  0
 15 16  2  0
 15 13  1  0
 17 18  1  0
 19 20  1  0
 19 18  1  0
 21 20  1  1
 21 22  1  0
 21 23  1  0
 22 15  1  0
 23 24  1  0
 25 23  2  0
M  END
$$$$
