MLM.pdb
     RDKit          3D

 25 24  0  0  1  0  0  0  0  0999 V2000
   12.1395  -19.0371   17.9525 C   0  0  0  0  0  0  0  0  0  0  0  0
   10.3860  -19.1290   17.4360 S   0  0  0  0  0  0  0  0  0  0  0  0
    9.3598  -18.9389   18.9074 C   0  0  0  0  0  0  0  0  0  0  0  0
   10.0209  -17.9209   19.8401 C   0  0  0  0  0  0  0  0  0  0  0  0
    9.1206  -17.8424   21.0729 C   0  0  2  0  0  0  0  0  0  0  0  0
    7.7631  -17.7530   20.5735 N   0  0  0  0  0  0  0  0  0  0  0  0
    9.3986  -16.6085   21.8501 C   0  0  0  0  0  0  0  0  0  0  0  0
   10.4940  -15.9881   21.7585 O   0  0  0  0  0  0  0  0  0  0  0  0
    7.4954  -12.2034   24.6146 C   0  0  0  0  0  0  0  0  0  0  0  0
    7.3076  -13.5873   25.3006 C   0  0  1  0  0  0  0  0  0  0  0  0
    5.9160  -13.5180   25.8836 C   0  0  0  0  0  0  0  0  0  0  0  0
    7.4400  -14.5748   24.2175 C   0  0  0  0  0  0  0  0  0  0  0  0
    8.7606  -14.9607   23.6817 C   0  0  2  0  0  0  0  0  0  0  0  0
    8.4429  -16.0785   22.7268 N   0  0  0  0  0  0  0  0  0  0  0  0
    9.7772  -15.5076   24.5578 C   0  0  0  0  0  0  0  0  0  0  0  0
   10.9495  -14.9618   24.5660 O   0  0  0  0  0  0  0  0  0  0  0  0
   10.2780  -12.7596   28.8739 C   0  0  0  0  0  0  0  0  0  0  0  0
   10.4824  -14.2402   29.8907 S   0  0  0  0  0  0  0  0  0  0  0  0
   10.9700  -15.6063   28.8345 C   0  0  0  0  0  0  0  0  0  0  0  0
   10.2594  -15.6797   27.5480 C   0  0  0  0  0  0  0  0  0  0  0  0
   10.6028  -16.7730   26.5814 C   0  0  2  0  0  0  0  0  0  0  0  0
    9.6605  -16.6056   25.4597 N   0  0  0  0  0  0  0  0  0  0  0  0
   10.6411  -18.1271   27.0948 C   0  0  0  0  0  0  0  0  0  0  0  0
    9.8748  -19.1890   26.6365 O   0  0  0  0  0  0  0  0  0  0  0  0
   11.4212  -18.4337   28.0547 O   0  0  0  0  0  0  0  0  0  0  0  0
  1  2  1  0
  2  3  1  0
  4  3  1  0
  4  5  1  0
  5  7  1  0
  5  6  1  6
  7  8  2  0
 10  9  1  6
 11 10  1  0
 13 12  1  1
 12 10  1  0
 14 13  1  0
 14  7  1  0
 15 16  2  0
 15 13  1  0
 17 18  1  0
 19 20  1  0
 19 18  1  0
 21 20  1  1
 21 22  1  0
 21 23  1  0
 22 15  1  0
 23 24  1  0
 25 23  2  0
M  END
$$$$
