MLM.pdb
     RDKit          3D

 25 24  0  0  1  0  0  0  0  0999 V2000
    7.6985  -11.6325   19.5876 C   0  0  0  0  0  0  0  0  0  0  0  0
    7.7955  -13.0658   18.4533 S   0  0  0  0  0  0  0  0  0  0  0  0
    7.8670  -14.5654   19.4535 C   0  0  0  0  0  0  0  0  0  0  0  0
    8.4641  -14.2178   20.8194 C   0  0  0  0  0  0  0  0  0  0  0  0
    8.5603  -15.5410   21.5786 C   0  0  2  0  0  0  0  0  0  0  0  0
    7.2216  -16.0960   21.5890 N   0  0  0  0  0  0  0  0  0  0  0  0
    8.9653  -15.3109   22.9882 C   0  0  0  0  0  0  0  0  0  0  0  0
   10.1713  -15.1494   23.3239 O   0  0  0  0  0  0  0  0  0  0  0  0
    5.5810  -12.8425   26.6829 C   0  0  0  0  0  0  0  0  0  0  0  0
    6.8938  -13.0847   25.8835 C   0  0  1  0  0  0  0  0  0  0  0  0
    7.8914  -12.1550   26.5329 C   0  0  0  0  0  0  0  0  0  0  0  0
    7.2069  -14.5091   26.0804 C   0  0  0  0  0  0  0  0  0  0  0  0
    8.3945  -15.1313   25.4619 C   0  0  2  0  0  0  0  0  0  0  0  0
    8.0116  -15.2636   24.0134 N   0  0  0  0  0  0  0  0  0  0  0  0
    8.8127  -16.4630   25.8514 C   0  0  0  0  0  0  0  0  0  0  0  0
    7.9473  -17.4229   25.8104 O   0  0  0  0  0  0  0  0  0  0  0  0
   12.2984  -20.0776   22.8710 C   0  0  0  0  0  0  0  0  0  0  0  0
   12.9035  -20.7201   24.4486 S   0  0  0  0  0  0  0  0  0  0  0  0
   11.7850  -20.2027   25.7529 C   0  0  0  0  0  0  0  0  0  0  0  0
   11.2965  -18.8194   25.6383 C   0  0  0  0  0  0  0  0  0  0  0  0
   10.3546  -18.2855   26.6752 C   0  0  2  0  0  0  0  0  0  0  0  0
   10.1036  -16.8862   26.2839 N   0  0  0  0  0  0  0  0  0  0  0  0
   10.7440  -18.4268   28.0635 C   0  0  0  0  0  0  0  0  0  0  0  0
   11.1677  -17.3997   28.8943 O   0  0  0  0  0  0  0  0  0  0  0  0
   10.7235  -19.5688   28.6286 O   0  0  0  0  0  0  0  0  0  0  0  0
  1  2  1  0
  2  3  1  0
  4  3  1  0
  4  5  1  0
  5  7  1  0
  5  6  1  1
  7  8  2  0
 10  9  1  1
 11 10  1  0
 13 12  1  1
 12 10  1  0
 14 13  1  0
 14  7  1  0
 15 16  2  0
 15 13  1  0
 17 18  1  0
 19 20  1  0
 19 18  1  0
 21 20  1  6
 21 22  1  0
 21 23  1  0
 22 15  1  0
 23 24  1  0
 25 23  2  0
M  END
$$$$
