MLM.pdb
     RDKit          3D

 25 24  0  0  1  0  0  0  0  0999 V2000
    8.5439  -20.7580   27.8680 C   0  0  0  0  0  0  0  0  0  0  0  0
    6.8087  -20.2574   28.1655 S   0  0  0  0  0  0  0  0  0  0  0  0
    6.0346  -19.9483   26.5656 C   0  0  0  0  0  0  0  0  0  0  0  0
    7.1257  -19.5989   25.5505 C   0  0  0  0  0  0  0  0  0  0  0  0
    6.4311  -18.7847   24.4591 C   0  0  2  0  0  0  0  0  0  0  0  0
    6.3622  -19.6477   23.2970 N   0  0  0  0  0  0  0  0  0  0  0  0
    7.2419  -17.5963   24.0924 C   0  0  0  0  0  0  0  0  0  0  0  0
    7.8867  -17.5299   23.0094 O   0  0  0  0  0  0  0  0  0  0  0  0
    5.9173  -12.7110   26.3141 C   0  0  0  0  0  0  0  0  0  0  0  0
    6.3206  -13.5616   25.0752 C   0  0  1  0  0  0  0  0  0  0  0  0
    6.4776  -12.5433   23.9708 C   0  0  0  0  0  0  0  0  0  0  0  0
    7.5838  -14.2157   25.4522 C   0  0  0  0  0  0  0  0  0  0  0  0
    8.1735  -15.2892   24.6277 C   0  0  2  0  0  0  0  0  0  0  0  0
    7.3232  -16.4884   24.9461 N   0  0  0  0  0  0  0  0  0  0  0  0
    9.5327  -15.7334   24.8630 C   0  0  0  0  0  0  0  0  0  0  0  0
   10.4929  -14.8725   24.7679 O   0  0  0  0  0  0  0  0  0  0  0  0
   10.5163  -12.6954   29.0559 C   0  0  0  0  0  0  0  0  0  0  0  0
   10.4703  -14.5005   29.1400 S   0  0  0  0  0  0  0  0  0  0  0  0
   11.0647  -15.1690   27.5845 C   0  0  0  0  0  0  0  0  0  0  0  0
   10.7958  -16.6015   27.3820 C   0  0  0  0  0  0  0  0  0  0  0  0
   11.1589  -17.2385   26.0745 C   0  0  2  0  0  0  0  0  0  0  0  0
    9.9810  -17.0416   25.2096 N   0  0  0  0  0  0  0  0  0  0  0  0
   11.6163  -18.6128   26.1084 C   0  0  0  0  0  0  0  0  0  0  0  0
   11.0138  -19.6830   25.4631 O   0  0  0  0  0  0  0  0  0  0  0  0
   12.6532  -18.9337   26.7760 O   0  0  0  0  0  0  0  0  0  0  0  0
  1  2  1  0
  2  3  1  0
  4  3  1  0
  4  5  1  0
  5  7  1  0
  5  6  1  6
  7  8  2  0
 10  9  1  1
 11 10  1  0
 13 12  1  1
 12 10  1  0
 14 13  1  0
 14  7  1  0
 15 16  2  0
 15 13  1  0
 17 18  1  0
 19 20  1  0
 19 18  1  0
 21 20  1  1
 21 22  1  0
 21 23  1  0
 22 15  1  0
 23 24  1  0
 25 23  2  0
M  END
$$$$
