MLM.pdb
     RDKit          3D

 25 24  0  0  1  0  0  0  0  0999 V2000
    8.8908  -18.3933   15.7902 C   0  0  0  0  0  0  0  0  0  0  0  0
    8.5962  -20.0088   16.5986 S   0  0  0  0  0  0  0  0  0  0  0  0
    8.6018  -19.7491   18.3838 C   0  0  0  0  0  0  0  0  0  0  0  0
    9.5587  -18.5999   18.7108 C   0  0  0  0  0  0  0  0  0  0  0  0
    9.5296  -18.4564   20.2323 C   0  0  2  0  0  0  0  0  0  0  0  0
    8.1558  -18.6884   20.6311 N   0  0  0  0  0  0  0  0  0  0  0  0
    9.8911  -17.0748   20.6378 C   0  0  0  0  0  0  0  0  0  0  0  0
   11.0610  -16.6195   20.5070 O   0  0  0  0  0  0  0  0  0  0  0  0
    6.5442  -12.9455   19.7100 C   0  0  0  0  0  0  0  0  0  0  0  0
    7.8889  -13.7270   19.7571 C   0  0  1  0  0  0  0  0  0  0  0  0
    8.8918  -12.7599   19.1738 C   0  0  0  0  0  0  0  0  0  0  0  0
    8.1157  -14.0169   21.1820 C   0  0  0  0  0  0  0  0  0  0  0  0
    9.2729  -14.8154   21.6328 C   0  0  2  0  0  0  0  0  0  0  0  0
    8.9345  -16.2120   21.1887 N   0  0  0  0  0  0  0  0  0  0  0  0
    9.5708  -14.9442   23.0452 C   0  0  0  0  0  0  0  0  0  0  0  0
   10.1094  -13.9425   23.6604 O   0  0  0  0  0  0  0  0  0  0  0  0
    7.2463  -11.5758   26.8196 C   0  0  0  0  0  0  0  0  0  0  0  0
    6.3373  -13.1379   26.7842 S   0  0  0  0  0  0  0  0  0  0  0  0
    7.5133  -14.4932   26.7758 C   0  0  0  0  0  0  0  0  0  0  0  0
    8.0438  -14.8456   25.4493 C   0  0  0  0  0  0  0  0  0  0  0  0
    9.1115  -15.8922   25.3404 C   0  0  2  0  0  0  0  0  0  0  0  0
    9.3349  -16.0657   23.8932 N   0  0  0  0  0  0  0  0  0  0  0  0
    8.8897  -17.1437   26.0356 C   0  0  0  0  0  0  0  0  0  0  0  0
    8.9627  -17.3316   27.4083 O   0  0  0  0  0  0  0  0  0  0  0  0
    8.6050  -18.2030   25.3870 O   0  0  0  0  0  0  0  0  0  0  0  0
  1  2  1  0
  2  3  1  0
  4  3  1  0
  4  5  1  0
  5  7  1  0
  5  6  1  6
  7  8  2  0
 10  9  1  1
 11 10  1  0
 13 12  1  1
 12 10  1  0
 14 13  1  0
 14  7  1  0
 15 16  2  0
 15 13  1  0
 17 18  1  0
 19 20  1  0
 19 18  1  0
 21 20  1  6
 21 22  1  0
 21 23  1  0
 22 15  1  0
 23 24  1  0
 25 23  2  0
M  END
$$$$
