MLM.pdb
     RDKit          3D

 25 24  0  0  1  0  0  0  0  0999 V2000
    7.5727  -18.0688   15.6305 C   0  0  0  0  0  0  0  0  0  0  0  0
    9.3902  -18.2506   15.7484 S   0  0  0  0  0  0  0  0  0  0  0  0
    9.8059  -18.5988   17.4690 C   0  0  0  0  0  0  0  0  0  0  0  0
    8.5914  -18.2769   18.3434 C   0  0  0  0  0  0  0  0  0  0  0  0
    9.0836  -18.3719   19.7874 C   0  0  2  0  0  0  0  0  0  0  0  0
    7.8953  -18.4757   20.6105 N   0  0  0  0  0  0  0  0  0  0  0  0
    9.8001  -17.1329   20.1820 C   0  0  0  0  0  0  0  0  0  0  0  0
   11.0298  -16.9648   19.9526 O   0  0  0  0  0  0  0  0  0  0  0  0
    7.0413  -12.5085   20.6781 C   0  0  0  0  0  0  0  0  0  0  0  0
    7.6839  -13.8833   20.3343 C   0  0  1  0  0  0  0  0  0  0  0  0
    7.4651  -14.0248   18.8466 C   0  0  0  0  0  0  0  0  0  0  0  0
    9.1012  -13.7496   20.7074 C   0  0  0  0  0  0  0  0  0  0  0  0
    9.8435  -14.8628   21.3317 C   0  0  2  0  0  0  0  0  0  0  0  0
    9.1296  -16.0890   20.8327 N   0  0  0  0  0  0  0  0  0  0  0  0
    9.8647  -15.0145   22.7728 C   0  0  0  0  0  0  0  0  0  0  0  0
   10.0721  -13.9688   23.5046 O   0  0  0  0  0  0  0  0  0  0  0  0
    6.9993  -11.6706   27.0686 C   0  0  0  0  0  0  0  0  0  0  0  0
    6.6743  -13.2724   26.2965 S   0  0  0  0  0  0  0  0  0  0  0  0
    8.2316  -14.1357   26.0739 C   0  0  0  0  0  0  0  0  0  0  0  0
    8.1944  -15.2415   25.1038 C   0  0  0  0  0  0  0  0  0  0  0  0
    9.3823  -16.1472   24.9777 C   0  0  2  0  0  0  0  0  0  0  0  0
    9.6712  -16.2050   23.5329 N   0  0  0  0  0  0  0  0  0  0  0  0
    9.2891  -17.4561   25.5918 C   0  0  0  0  0  0  0  0  0  0  0  0
    9.6223  -17.7607   26.9037 O   0  0  0  0  0  0  0  0  0  0  0  0
    8.8781  -18.4583   24.9206 O   0  0  0  0  0  0  0  0  0  0  0  0
  1  2  1  0
  2  3  1  0
  4  3  1  0
  4  5  1  0
  5  7  1  0
  5  6  1  1
  7  8  2  0
 10  9  1  6
 11 10  1  0
 13 12  1  1
 12 10  1  0
 14 13  1  0
 14  7  1  0
 15 16  2  0
 15 13  1  0
 17 18  1  0
 19 20  1  0
 19 18  1  0
 21 20  1  6
 21 22  1  0
 21 23  1  0
 22 15  1  0
 23 24  1  0
 25 23  2  0
M  END
$$$$
