MLM.pdb
     RDKit          3D

 25 24  0  0  1  0  0  0  0  0999 V2000
    8.0126  -19.9013   28.1383 C   0  0  0  0  0  0  0  0  0  0  0  0
    6.5914  -20.9556   27.6704 S   0  0  0  0  0  0  0  0  0  0  0  0
    6.1581  -20.5816   25.9596 C   0  0  0  0  0  0  0  0  0  0  0  0
    6.9735  -19.3707   25.4991 C   0  0  0  0  0  0  0  0  0  0  0  0
    6.4120  -18.9895   24.1294 C   0  0  2  0  0  0  0  0  0  0  0  0
    6.9065  -19.9866   23.2013 N   0  0  0  0  0  0  0  0  0  0  0  0
    6.9340  -17.6693   23.6953 C   0  0  0  0  0  0  0  0  0  0  0  0
    7.7541  -17.5500   22.7433 O   0  0  0  0  0  0  0  0  0  0  0  0
    7.2021  -12.1145   24.3312 C   0  0  0  0  0  0  0  0  0  0  0  0
    7.2115  -13.0261   25.5921 C   0  0  1  0  0  0  0  0  0  0  0  0
    6.3641  -12.2739   26.5907 C   0  0  0  0  0  0  0  0  0  0  0  0
    6.6107  -14.2959   25.1534 C   0  0  0  0  0  0  0  0  0  0  0  0
    7.3259  -15.2158   24.2465 C   0  0  2  0  0  0  0  0  0  0  0  0
    6.5309  -16.4895   24.3345 N   0  0  0  0  0  0  0  0  0  0  0  0
    8.6889  -15.6164   24.5323 C   0  0  0  0  0  0  0  0  0  0  0  0
    9.6256  -15.2599   23.7152 O   0  0  0  0  0  0  0  0  0  0  0  0
   10.1852  -12.9745   29.4494 C   0  0  0  0  0  0  0  0  0  0  0  0
   11.2658  -14.3738   29.8259 S   0  0  0  0  0  0  0  0  0  0  0  0
   11.5702  -15.2943   28.3159 C   0  0  0  0  0  0  0  0  0  0  0  0
   10.3825  -15.5194   27.4769 C   0  0  0  0  0  0  0  0  0  0  0  0
   10.5400  -16.1973   26.1491 C   0  0  2  0  0  0  0  0  0  0  0  0
    9.1669  -16.3740   25.6415 N   0  0  0  0  0  0  0  0  0  0  0  0
   11.3209  -17.4170   26.1133 C   0  0  0  0  0  0  0  0  0  0  0  0
   10.8851  -18.6439   25.6343 O   0  0  0  0  0  0  0  0  0  0  0  0
   12.5179  -17.4323   26.5504 O   0  0  0  0  0  0  0  0  0  0  0  0
  1  2  1  0
  2  3  1  0
  4  3  1  0
  4  5  1  0
  5  7  1  0
  5  6  1  6
  7  8  2  0
 10  9  1  6
 11 10  1  0
 13 12  1  1
 12 10  1  0
 14 13  1  0
 14  7  1  0
 15 16  2  0
 15 13  1  0
 17 18  1  0
 19 20  1  0
 19 18  1  0
 21 20  1  1
 21 22  1  0
 21 23  1  0
 22 15  1  0
 23 24  1  0
 25 23  2  0
M  END
$$$$
