PPG.pdb
     RDKit          3D

 19 20  0  0  1  0  0  0  0  0999 V2000
    8.9657  -13.4684   20.4648 N   0  0  0  0  0  0  0  0  0  0  0  0
    8.2830  -13.8036   19.2229 C   0  0  0  0  0  0  0  0  0  0  0  0
    6.8132  -13.6428   19.4730 C   0  0  0  0  0  0  0  0  0  0  0  0
    6.6869  -13.8978   20.9397 C   0  0  0  0  0  0  0  0  0  0  0  0
    8.0027  -13.3778   21.4842 C   0  0  1  0  0  0  0  0  0  0  0  0
    8.3262  -13.9732   22.7996 C   0  0  0  0  0  0  0  0  0  0  0  0
    9.0536  -15.0266   22.6773 O   0  0  0  0  0  0  0  0  0  0  0  0
    7.9484  -13.5364   24.0645 N   0  0  0  0  0  0  0  0  0  0  0  0
    7.4498  -12.2053   24.4708 C   0  0  0  0  0  0  0  0  0  0  0  0
    6.1455  -12.6466   25.1554 C   0  0  0  0  0  0  0  0  0  0  0  0
    6.3657  -14.1093   25.5593 C   0  0  0  0  0  0  0  0  0  0  0  0
    7.8713  -14.1996   25.3196 C   0  0  1  0  0  0  0  0  0  0  0  0
    8.4453  -15.4775   25.5535 C   0  0  0  0  0  0  0  0  0  0  0  0
    8.6164  -15.9956   26.6511 O   0  0  0  0  0  0  0  0  0  0  0  0
    8.8721  -16.2517   24.4105 N   0  0  0  0  0  0  0  0  0  0  0  0
    9.3880  -17.5913   24.5973 C   0  0  0  0  0  0  0  0  0  0  0  0
   10.7836  -17.5763   25.0957 C   0  0  0  0  0  0  0  0  0  0  0  0
   11.2518  -18.4202   26.0737 O   0  0  0  0  0  0  0  0  0  0  0  0
   11.5787  -16.7431   24.5920 O   0  0  0  0  0  0  0  0  0  0  0  0
  1  5  1  0
  1  2  1  0
  2  3  1  0
  3  4  1  0
  5  6  1  1
  5  4  1  0
  6  8  1  0
  7  6  2  0
  8 12  1  0
  8  9  1  0
 10  9  1  0
 11 12  1  0
 11 10  1  0
 12 13  1  6
 13 14  2  0
 13 15  1  0
 15 16  1  0
 17 16  1  0
 17 18  1  0
 19 17  2  0
M  END
$$$$
