PPG.pdb
     RDKit          3D

 19 20  0  0  1  0  0  0  0  0999 V2000
    9.0238  -14.5299   21.4381 N   0  0  0  0  0  0  0  0  0  0  0  0
    8.4090  -14.7738   20.1407 C   0  0  0  0  0  0  0  0  0  0  0  0
    7.0794  -14.0805   20.1480 C   0  0  0  0  0  0  0  0  0  0  0  0
    6.7066  -14.0728   21.5948 C   0  0  0  0  0  0  0  0  0  0  0  0
    8.0520  -13.9724   22.2862 C   0  0  1  0  0  0  0  0  0  0  0  0
    7.9890  -14.4574   23.6828 C   0  0  0  0  0  0  0  0  0  0  0  0
    8.3085  -15.7001   23.7681 O   0  0  0  0  0  0  0  0  0  0  0  0
    7.6435  -13.7516   24.8300 N   0  0  0  0  0  0  0  0  0  0  0  0
    7.6588  -12.2904   25.0546 C   0  0  0  0  0  0  0  0  0  0  0  0
    6.2054  -12.1142   25.5249 C   0  0  0  0  0  0  0  0  0  0  0  0
    5.7737  -13.4866   26.0552 C   0  0  0  0  0  0  0  0  0  0  0  0
    7.1394  -14.1693   26.0919 C   0  0  1  0  0  0  0  0  0  0  0  0
    7.1254  -15.5278   26.5058 C   0  0  0  0  0  0  0  0  0  0  0  0
    6.1600  -16.1260   26.9668 O   0  0  0  0  0  0  0  0  0  0  0  0
    8.3466  -16.2901   26.3813 N   0  0  0  0  0  0  0  0  0  0  0  0
    8.3352  -17.7172   26.6240 C   0  0  0  0  0  0  0  0  0  0  0  0
    9.6833  -18.3111   26.4613 C   0  0  0  0  0  0  0  0  0  0  0  0
   10.6392  -18.3113   27.4482 O   0  0  0  0  0  0  0  0  0  0  0  0
    9.9619  -18.8429   25.3569 O   0  0  0  0  0  0  0  0  0  0  0  0
  1  5  1  0
  1  2  1  0
  2  3  1  0
  3  4  1  0
  5  6  1  1
  5  4  1  0
  6  8  1  0
  7  6  2  0
  8 12  1  0
  8  9  1  0
 10  9  1  0
 11 12  1  0
 11 10  1  0
 12 13  1  6
 13 14  2  0
 13 15  1  0
 15 16  1  0
 17 16  1  0
 17 18  1  0
 19 17  2  0
M  END
$$$$
