PPG.pdb
     RDKit          3D

 19 20  0  0  1  0  0  0  0  0999 V2000
    8.9740  -14.0199   21.2395 N   0  0  0  0  0  0  0  0  0  0  0  0
    8.3654  -14.0282   19.9165 C   0  0  0  0  0  0  0  0  0  0  0  0
    7.0816  -13.2602   20.0193 C   0  0  0  0  0  0  0  0  0  0  0  0
    6.6877  -13.4440   21.4487 C   0  0  0  0  0  0  0  0  0  0  0  0
    8.0258  -13.5339   22.1555 C   0  0  1  0  0  0  0  0  0  0  0  0
    7.9110  -14.2162   23.4635 C   0  0  0  0  0  0  0  0  0  0  0  0
    8.1049  -15.4830   23.3561 O   0  0  0  0  0  0  0  0  0  0  0  0
    7.6344  -13.6618   24.7083 N   0  0  0  0  0  0  0  0  0  0  0  0
    7.7026  -12.2445   25.1234 C   0  0  0  0  0  0  0  0  0  0  0  0
    6.2757  -12.0977   25.6777 C   0  0  0  0  0  0  0  0  0  0  0  0
    5.8255  -13.5178   26.0406 C   0  0  0  0  0  0  0  0  0  0  0  0
    7.1706  -14.2320   25.9252 C   0  0  1  0  0  0  0  0  0  0  0  0
    7.1332  -15.6328   26.1559 C   0  0  0  0  0  0  0  0  0  0  0  0
    6.1716  -16.2631   26.5809 O   0  0  0  0  0  0  0  0  0  0  0  0
    8.3229  -16.4018   25.8713 N   0  0  0  0  0  0  0  0  0  0  0  0
    8.3075  -17.8409   26.0272 C   0  0  0  0  0  0  0  0  0  0  0  0
    9.0712  -18.2706   27.2224 C   0  0  0  0  0  0  0  0  0  0  0  0
   10.3435  -17.8379   27.5089 O   0  0  0  0  0  0  0  0  0  0  0  0
    8.5194  -19.0756   28.0145 O   0  0  0  0  0  0  0  0  0  0  0  0
  1  5  1  0
  1  2  1  0
  2  3  1  0
  3  4  1  0
  5  6  1  1
  5  4  1  0
  6  8  1  0
  7  6  2  0
  8 12  1  0
  8  9  1  0
 10  9  1  0
 11 12  1  0
 11 10  1  0
 12 13  1  6
 13 14  2  0
 13 15  1  0
 15 16  1  0
 17 16  1  0
 17 18  1  0
 19 17  2  0
M  END
$$$$
