PPG.pdb
     RDKit          3D

 19 20  0  0  1  0  0  0  0  0999 V2000
    8.6957  -14.2375   21.7192 N   0  0  0  0  0  0  0  0  0  0  0  0
    8.1702  -15.1255   20.6914 C   0  0  0  0  0  0  0  0  0  0  0  0
    6.6918  -15.2326   20.9182 C   0  0  0  0  0  0  0  0  0  0  0  0
    6.5535  -14.9919   22.3862 C   0  0  0  0  0  0  0  0  0  0  0  0
    7.6875  -14.0283   22.6755 C   0  0  1  0  0  0  0  0  0  0  0  0
    8.0718  -14.0457   24.1043 C   0  0  0  0  0  0  0  0  0  0  0  0
    8.8656  -15.0219   24.3700 O   0  0  0  0  0  0  0  0  0  0  0  0
    7.6868  -13.1722   25.1154 N   0  0  0  0  0  0  0  0  0  0  0  0
    7.1313  -11.8075   24.9946 C   0  0  0  0  0  0  0  0  0  0  0  0
    5.8558  -12.0029   25.8310 C   0  0  0  0  0  0  0  0  0  0  0  0
    6.1475  -13.1890   26.7579 C   0  0  0  0  0  0  0  0  0  0  0  0
    7.6532  -13.3058   26.5304 C   0  0  1  0  0  0  0  0  0  0  0  0
    8.2880  -14.3728   27.2199 C   0  0  0  0  0  0  0  0  0  0  0  0
    8.7993  -14.3033   28.3318 O   0  0  0  0  0  0  0  0  0  0  0  0
    8.3476  -15.6627   26.5714 N   0  0  0  0  0  0  0  0  0  0  0  0
    8.8367  -16.8149   27.2985 C   0  0  0  0  0  0  0  0  0  0  0  0
    8.7748  -18.0473   26.4776 C   0  0  0  0  0  0  0  0  0  0  0  0
    9.7649  -18.4320   25.6061 O   0  0  0  0  0  0  0  0  0  0  0  0
    7.7576  -18.7773   26.5890 O   0  0  0  0  0  0  0  0  0  0  0  0
  1  5  1  0
  1  2  1  0
  2  3  1  0
  3  4  1  0
  5  6  1  1
  5  4  1  0
  6  8  1  0
  7  6  2  0
  8 12  1  0
  8  9  1  0
 10  9  1  0
 11 12  1  0
 11 10  1  0
 12 13  1  6
 13 14  2  0
 13 15  1  0
 15 16  1  0
 17 16  1  0
 17 18  1  0
 19 17  2  0
M  END
$$$$
