PPG.pdb
     RDKit          3D

 19 20  0  0  1  0  0  0  0  0999 V2000
    9.0711  -13.9596   20.8563 N   0  0  0  0  0  0  0  0  0  0  0  0
    8.4196  -14.0811   19.5595 C   0  0  0  0  0  0  0  0  0  0  0  0
    7.0679  -13.4444   19.6863 C   0  0  0  0  0  0  0  0  0  0  0  0
    6.7465  -13.6119   21.1357 C   0  0  0  0  0  0  0  0  0  0  0  0
    8.1112  -13.5375   21.7917 C   0  0  1  0  0  0  0  0  0  0  0  0
    8.1144  -14.1768   23.1262 C   0  0  0  0  0  0  0  0  0  0  0  0
    8.5293  -15.3926   23.0686 O   0  0  0  0  0  0  0  0  0  0  0  0
    7.7401  -13.6308   24.3490 N   0  0  0  0  0  0  0  0  0  0  0  0
    7.5990  -12.2066   24.7197 C   0  0  0  0  0  0  0  0  0  0  0  0
    6.1563  -12.2483   25.2504 C   0  0  0  0  0  0  0  0  0  0  0  0
    5.9062  -13.7067   25.6524 C   0  0  0  0  0  0  0  0  0  0  0  0
    7.3410  -14.2249   25.5773 C   0  0  1  0  0  0  0  0  0  0  0  0
    7.4990  -15.6093   25.8520 C   0  0  0  0  0  0  0  0  0  0  0  0
    7.1210  -16.1860   26.8654 O   0  0  0  0  0  0  0  0  0  0  0  0
    8.1613  -16.4285   24.8629 N   0  0  0  0  0  0  0  0  0  0  0  0
    8.3140  -17.8504   25.0874 C   0  0  0  0  0  0  0  0  0  0  0  0
    9.5434  -18.1544   25.8572 C   0  0  0  0  0  0  0  0  0  0  0  0
   10.4076  -17.1928   26.3222 O   0  0  0  0  0  0  0  0  0  0  0  0
    9.8049  -19.3607   26.0948 O   0  0  0  0  0  0  0  0  0  0  0  0
  1  5  1  0
  1  2  1  0
  2  3  1  0
  3  4  1  0
  5  6  1  1
  5  4  1  0
  6  8  1  0
  7  6  2  0
  8 12  1  0
  8  9  1  0
 10  9  1  0
 11 12  1  0
 11 10  1  0
 12 13  1  6
 13 14  2  0
 13 15  1  0
 15 16  1  0
 17 16  1  0
 17 18  1  0
 19 17  2  0
M  END
$$$$
