PPG.pdb
     RDKit          3D

 19 20  0  0  1  0  0  0  0  0999 V2000
    9.4517  -14.2694   17.7531 N   0  0  0  0  0  0  0  0  0  0  0  0
    8.5262  -14.3999   16.6363 C   0  0  0  0  0  0  0  0  0  0  0  0
    7.1860  -13.9326   17.1203 C   0  0  0  0  0  0  0  0  0  0  0  0
    7.2374  -14.2101   18.5874 C   0  0  0  0  0  0  0  0  0  0  0  0
    8.7042  -14.0105   18.9144 C   0  0  1  0  0  0  0  0  0  0  0  0
    9.0897  -14.7122   20.1588 C   0  0  0  0  0  0  0  0  0  0  0  0
    9.7168  -15.8071   19.9110 O   0  0  0  0  0  0  0  0  0  0  0  0
    8.8574  -14.3308   21.4757 N   0  0  0  0  0  0  0  0  0  0  0  0
    8.4653  -13.0042   21.9972 C   0  0  0  0  0  0  0  0  0  0  0  0
    7.2135  -13.4265   22.7842 C   0  0  0  0  0  0  0  0  0  0  0  0
    7.4008  -14.9176   23.0887 C   0  0  0  0  0  0  0  0  0  0  0  0
    8.8701  -15.0591   22.6966 C   0  0  1  0  0  0  0  0  0  0  0  0
    9.4015  -16.3715   22.8065 C   0  0  0  0  0  0  0  0  0  0  0  0
    8.7770  -17.4132   22.6408 O   0  0  0  0  0  0  0  0  0  0  0  0
   10.7996  -16.5141   23.1427 N   0  0  0  0  0  0  0  0  0  0  0  0
   11.3888  -17.8329   23.2381 C   0  0  0  0  0  0  0  0  0  0  0  0
   12.5097  -18.0023   22.2835 C   0  0  0  0  0  0  0  0  0  0  0  0
   12.4323  -17.6719   20.9521 O   0  0  0  0  0  0  0  0  0  0  0  0
   13.5888  -18.4750   22.7219 O   0  0  0  0  0  0  0  0  0  0  0  0
  1  5  1  0
  1  2  1  0
  2  3  1  0
  3  4  1  0
  5  6  1  1
  5  4  1  0
  6  8  1  0
  7  6  2  0
  8 12  1  0
  8  9  1  0
 10  9  1  0
 11 12  1  0
 11 10  1  0
 12 13  1  6
 13 14  2  0
 13 15  1  0
 15 16  1  0
 17 16  1  0
 17 18  1  0
 19 17  2  0
M  END
$$$$
