PPG.pdb
     RDKit          3D

 19 20  0  0  1  0  0  0  0  0999 V2000
    8.9643  -13.8459   21.6252 N   0  0  0  0  0  0  0  0  0  0  0  0
    8.3425  -14.3044   20.3907 C   0  0  0  0  0  0  0  0  0  0  0  0
    6.8897  -13.9417   20.4702 C   0  0  0  0  0  0  0  0  0  0  0  0
    6.6199  -13.9339   21.9396 C   0  0  0  0  0  0  0  0  0  0  0  0
    7.9448  -13.4806   22.5205 C   0  0  1  0  0  0  0  0  0  0  0  0
    8.0888  -13.8816   23.9375 C   0  0  0  0  0  0  0  0  0  0  0  0
    8.6540  -15.0313   24.0499 O   0  0  0  0  0  0  0  0  0  0  0  0
    7.7014  -13.1868   25.0780 N   0  0  0  0  0  0  0  0  0  0  0  0
    7.4654  -11.7364   25.2398 C   0  0  0  0  0  0  0  0  0  0  0  0
    6.0407  -11.7973   25.8153 C   0  0  0  0  0  0  0  0  0  0  0  0
    5.9049  -13.1934   26.4345 C   0  0  0  0  0  0  0  0  0  0  0  0
    7.3714  -13.6177   26.3920 C   0  0  1  0  0  0  0  0  0  0  0  0
    7.6345  -14.9319   26.8618 C   0  0  0  0  0  0  0  0  0  0  0  0
    7.8505  -15.2460   28.0268 O   0  0  0  0  0  0  0  0  0  0  0  0
    7.6543  -16.0083   25.8981 N   0  0  0  0  0  0  0  0  0  0  0  0
    7.6933  -17.3827   26.3509 C   0  0  0  0  0  0  0  0  0  0  0  0
    7.5643  -18.3349   25.2226 C   0  0  0  0  0  0  0  0  0  0  0  0
    6.4182  -19.0423   24.9507 O   0  0  0  0  0  0  0  0  0  0  0  0
    8.5621  -18.5006   24.4762 O   0  0  0  0  0  0  0  0  0  0  0  0
  1  5  1  0
  1  2  1  0
  2  3  1  0
  3  4  1  0
  5  6  1  1
  5  4  1  0
  6  8  1  0
  7  6  2  0
  8 12  1  0
  8  9  1  0
 10  9  1  0
 11 12  1  0
 11 10  1  0
 12 13  1  6
 13 14  2  0
 13 15  1  0
 15 16  1  0
 17 16  1  0
 17 18  1  0
 19 17  2  0
M  END
$$$$
