PPG.pdb
     RDKit          3D

 19 20  0  0  1  0  0  0  0  0999 V2000
    9.0686  -14.5041   21.4624 N   0  0  0  0  0  0  0  0  0  0  0  0
    8.5212  -14.6624   20.1222 C   0  0  0  0  0  0  0  0  0  0  0  0
    7.2420  -13.8812   20.0756 C   0  0  0  0  0  0  0  0  0  0  0  0
    6.7811  -13.8964   21.4967 C   0  0  0  0  0  0  0  0  0  0  0  0
    8.0844  -13.9104   22.2709 C   0  0  1  0  0  0  0  0  0  0  0  0
    7.9027  -14.4362   23.6421 C   0  0  0  0  0  0  0  0  0  0  0  0
    8.0217  -15.7161   23.6789 O   0  0  0  0  0  0  0  0  0  0  0  0
    7.6356  -13.7323   24.8112 N   0  0  0  0  0  0  0  0  0  0  0  0
    7.8257  -12.2921   25.0857 C   0  0  0  0  0  0  0  0  0  0  0  0
    6.4004  -11.9569   25.5556 C   0  0  0  0  0  0  0  0  0  0  0  0
    5.8015  -13.2838   26.0370 C   0  0  0  0  0  0  0  0  0  0  0  0
    7.0743  -14.1278   26.0561 C   0  0  1  0  0  0  0  0  0  0  0  0
    6.8927  -15.4876   26.4233 C   0  0  0  0  0  0  0  0  0  0  0  0
    5.8222  -16.0838   26.4556 O   0  0  0  0  0  0  0  0  0  0  0  0
    8.0597  -16.2541   26.7955 N   0  0  0  0  0  0  0  0  0  0  0  0
    7.9658  -17.6921   26.9330 C   0  0  0  0  0  0  0  0  0  0  0  0
    9.2868  -18.3028   27.2129 C   0  0  0  0  0  0  0  0  0  0  0  0
   10.3553  -18.2337   26.3517 O   0  0  0  0  0  0  0  0  0  0  0  0
    9.4320  -18.9169   28.3000 O   0  0  0  0  0  0  0  0  0  0  0  0
  1  5  1  0
  1  2  1  0
  2  3  1  0
  3  4  1  0
  5  6  1  1
  5  4  1  0
  6  8  1  0
  7  6  2  0
  8 12  1  0
  8  9  1  0
 10  9  1  0
 11 12  1  0
 11 10  1  0
 12 13  1  6
 13 14  2  0
 13 15  1  0
 15 16  1  0
 17 16  1  0
 17 18  1  0
 19 17  2  0
M  END
$$$$
