PPG.pdb
     RDKit          3D

 19 20  0  0  1  0  0  0  0  0999 V2000
    9.0572  -13.5183   20.2853 N   0  0  0  0  0  0  0  0  0  0  0  0
    8.3101  -13.7257   19.0526 C   0  0  0  0  0  0  0  0  0  0  0  0
    6.8764  -13.4010   19.3485 C   0  0  0  0  0  0  0  0  0  0  0  0
    6.7554  -13.6913   20.8091 C   0  0  0  0  0  0  0  0  0  0  0  0
    8.1364  -13.3506   21.3334 C   0  0  1  0  0  0  0  0  0  0  0  0
    8.4176  -14.0267   22.6192 C   0  0  0  0  0  0  0  0  0  0  0  0
    9.0640  -15.1249   22.4462 O   0  0  0  0  0  0  0  0  0  0  0  0
    8.0763  -13.6200   23.9044 N   0  0  0  0  0  0  0  0  0  0  0  0
    7.7101  -12.2684   24.3783 C   0  0  0  0  0  0  0  0  0  0  0  0
    6.3636  -12.6118   25.0368 C   0  0  0  0  0  0  0  0  0  0  0  0
    6.4340  -14.1080   25.3647 C   0  0  0  0  0  0  0  0  0  0  0  0
    7.9248  -14.3359   25.1233 C   0  0  1  0  0  0  0  0  0  0  0  0
    8.3667  -15.6751   25.2916 C   0  0  0  0  0  0  0  0  0  0  0  0
    8.0662  -16.4171   26.2198 O   0  0  0  0  0  0  0  0  0  0  0  0
    9.2494  -16.2315   24.2919 N   0  0  0  0  0  0  0  0  0  0  0  0
    9.6971  -17.6033   24.4066 C   0  0  0  0  0  0  0  0  0  0  0  0
   11.1751  -17.6940   24.4655 C   0  0  0  0  0  0  0  0  0  0  0  0
   11.9216  -17.2703   25.5384 O   0  0  0  0  0  0  0  0  0  0  0  0
   11.7738  -18.1867   23.4761 O   0  0  0  0  0  0  0  0  0  0  0  0
  1  5  1  0
  1  2  1  0
  2  3  1  0
  3  4  1  0
  5  6  1  1
  5  4  1  0
  6  8  1  0
  7  6  2  0
  8 12  1  0
  8  9  1  0
 10  9  1  0
 11 12  1  0
 11 10  1  0
 12 13  1  6
 13 14  2  0
 13 15  1  0
 15 16  1  0
 17 16  1  0
 17 18  1  0
 19 17  2  0
M  END
$$$$
