YTE.pdb
     RDKit          3D

 29 29  0  0  1  0  0  0  0  0999 V2000
    4.9556  -10.3605   28.0628 O   0  0  0  0  0  0  0  0  0  0  0  0
    5.6802  -11.3249   27.3979 C   0  0  0  0  0  0  0  0  0  0  0  0
    7.0158  -11.5467   27.7110 C   0  0  0  0  0  0  0  0  0  0  0  0
    7.7511  -12.5225   27.0403 C   0  0  0  0  0  0  0  0  0  0  0  0
    7.1096  -13.2436   26.0716 C   0  0  0  0  0  0  0  0  0  0  0  0
    7.8375  -14.2930   25.3226 C   0  0  0  0  0  0  0  0  0  0  0  0
    6.8955  -15.3298   24.7566 C   0  0  2  0  0  0  0  0  0  0  0  0
    6.3608  -16.0604   25.8928 N   0  0  0  0  0  0  0  0  0  0  0  0
    7.6084  -16.2350   23.8079 C   0  0  0  0  0  0  0  0  0  0  0  0
    8.0225  -17.3713   24.1852 O   0  0  0  0  0  0  0  0  0  0  0  0
    5.7754  -13.0202   25.7606 C   0  0  0  0  0  0  0  0  0  0  0  0
    5.0427  -12.0728   26.4044 C   0  0  0  0  0  0  0  0  0  0  0  0
    7.2933  -15.1582   19.9488 C   0  0  0  0  0  0  0  0  0  0  0  0
    8.6415  -15.8153   20.1889 C   0  0  1  0  0  0  0  0  0  0  0  0
    9.6533  -14.8894   19.8360 O   0  0  0  0  0  0  0  0  0  0  0  0
    8.8153  -16.2829   21.5871 C   0  0  2  0  0  0  0  0  0  0  0  0
    7.8186  -15.8226   22.4920 N   0  0  0  0  0  0  0  0  0  0  0  0
   10.2232  -16.0623   22.0045 C   0  0  0  0  0  0  0  0  0  0  0  0
   10.7410  -15.0077   22.3771 O   0  0  0  0  0  0  0  0  0  0  0  0
   11.0869  -17.2091   21.9760 N   0  0  0  0  0  0  0  0  0  0  0  0
   12.4444  -17.1161   22.5080 C   0  0  1  0  0  0  0  0  0  0  0  0
   12.4487  -17.4357   23.9846 C   0  0  0  0  0  0  0  0  0  0  0  0
   11.8998  -18.8664   24.1322 C   0  0  0  0  0  0  0  0  0  0  0  0
   11.9067  -19.2635   25.5610 C   0  0  0  0  0  0  0  0  0  0  0  0
   12.9774  -19.3481   26.2117 O   0  0  0  0  0  0  0  0  0  0  0  0
   13.3022  -18.0795   21.7806 C   0  0  0  0  0  0  0  0  0  0  0  0
   12.7979  -18.9123   20.9946 O   0  0  0  0  0  0  0  0  0  0  0  0
   10.7176  -19.5622   26.2318 O   0  0  0  0  0  0  0  0  0  0  0  0
   14.6678  -18.0683   21.9612 O   0  0  0  0  0  0  0  0  0  0  0  0
  1  2  1  0
  2 12  2  0
  3  2  1  0
  3  4  2  0
  4  5  1  0
  5 11  2  0
  5  6  1  0
  7  8  1  1
  7  6  1  0
  9 10  2  0
  9  7  1  0
 12 11  1  0
 14 13  1  1
 14 16  1  0
 15 14  1  0
 16 17  1  1
 17  9  1  0
 18 19  2  0
 18 16  1  0
 20 18  1  0
 21 20  1  0
 21 22  1  1
 22 23  1  0
 23 24  1  0
 24 28  1  0
 25 24  2  0
 26 21  1  0
 27 26  2  0
 29 26  1  0
M  END
$$$$
