YTE.pdb
     RDKit          3D

 29 29  0  0  1  0  0  0  0  0999 V2000
    8.6179  -12.7152   16.6127 O   0  0  0  0  0  0  0  0  0  0  0  0
    8.2213  -13.2335   17.8256 C   0  0  0  0  0  0  0  0  0  0  0  0
    7.5963  -12.4267   18.7687 C   0  0  0  0  0  0  0  0  0  0  0  0
    7.1932  -12.9488   19.9965 C   0  0  0  0  0  0  0  0  0  0  0  0
    7.4367  -14.2737   20.2311 C   0  0  0  0  0  0  0  0  0  0  0  0
    7.0337  -14.8864   21.5172 C   0  0  0  0  0  0  0  0  0  0  0  0
    7.4180  -16.3460   21.5848 C   0  0  2  0  0  0  0  0  0  0  0  0
    6.7553  -16.9957   20.4670 N   0  0  0  0  0  0  0  0  0  0  0  0
    7.0081  -16.9444   22.8893 C   0  0  0  0  0  0  0  0  0  0  0  0
    5.7832  -17.0758   23.1845 O   0  0  0  0  0  0  0  0  0  0  0  0
    8.0612  -15.0778   19.2875 C   0  0  0  0  0  0  0  0  0  0  0  0
    8.4611  -14.5856   18.0846 C   0  0  0  0  0  0  0  0  0  0  0  0
    6.4378  -19.6963   23.0211 C   0  0  0  0  0  0  0  0  0  0  0  0
    7.6759  -19.7866   23.8965 C   0  0  1  0  0  0  0  0  0  0  0  0
    8.7681  -20.1669   23.0791 O   0  0  0  0  0  0  0  0  0  0  0  0
    7.9680  -18.5215   24.6162 C   0  0  2  0  0  0  0  0  0  0  0  0
    7.9871  -17.3631   23.7905 N   0  0  0  0  0  0  0  0  0  0  0  0
    9.1544  -18.7178   25.4874 C   0  0  0  0  0  0  0  0  0  0  0  0
   10.3348  -18.8027   25.1431 O   0  0  0  0  0  0  0  0  0  0  0  0
    8.9038  -18.8177   26.8978 N   0  0  0  0  0  0  0  0  0  0  0  0
   10.0199  -18.9449   27.8319 C   0  0  1  0  0  0  0  0  0  0  0  0
    9.5354  -18.7623   29.2511 C   0  0  0  0  0  0  0  0  0  0  0  0
   10.7497  -18.9908   30.1694 C   0  0  0  0  0  0  0  0  0  0  0  0
   11.3850  -17.6915   30.4969 C   0  0  0  0  0  0  0  0  0  0  0  0
   12.0424  -17.0500   29.6406 O   0  0  0  0  0  0  0  0  0  0  0  0
   10.6167  -20.2908   27.6717 C   0  0  0  0  0  0  0  0  0  0  0  0
    9.8975  -21.2763   27.3936 O   0  0  0  0  0  0  0  0  0  0  0  0
   11.2765  -17.1382   31.7756 O   0  0  0  0  0  0  0  0  0  0  0  0
   11.9735  -20.4723   27.8263 O   0  0  0  0  0  0  0  0  0  0  0  0
  1  2  1  0
  2 12  2  0
  3  2  1  0
  3  4  2  0
  4  5  1  0
  5 11  2  0
  5  6  1  0
  7  8  1  6
  7  6  1  0
  9 10  2  0
  9  7  1  0
 12 11  1  0
 14 13  1  6
 14 16  1  0
 15 14  1  0
 16 17  1  6
 17  9  1  0
 18 19  2  0
 18 16  1  0
 20 18  1  0
 21 20  1  0
 21 22  1  1
 22 23  1  0
 23 24  1  0
 24 28  1  0
 25 24  2  0
 26 21  1  0
 27 26  2  0
 29 26  1  0
M  END
$$$$
