YTE.pdb
     RDKit          3D

 29 29  0  0  1  0  0  0  0  0999 V2000
    8.4929  -13.3766   23.5894 O   0  0  0  0  0  0  0  0  0  0  0  0
    8.2214  -13.3716   22.2391 C   0  0  0  0  0  0  0  0  0  0  0  0
    7.4042  -14.3459   21.6788 C   0  0  0  0  0  0  0  0  0  0  0  0
    7.1271  -14.3427   20.3129 C   0  0  0  0  0  0  0  0  0  0  0  0
    7.6879  -13.3515   19.5560 C   0  0  0  0  0  0  0  0  0  0  0  0
    7.4326  -13.2955   18.0988 C   0  0  0  0  0  0  0  0  0  0  0  0
    8.6492  -13.7063   17.3028 C   0  0  2  0  0  0  0  0  0  0  0  0
    8.2218  -13.7917   15.9169 N   0  0  0  0  0  0  0  0  0  0  0  0
    9.1903  -15.0085   17.7917 C   0  0  0  0  0  0  0  0  0  0  0  0
    8.9680  -16.0814   17.1557 O   0  0  0  0  0  0  0  0  0  0  0  0
    8.5040  -12.3793   20.1179 C   0  0  0  0  0  0  0  0  0  0  0  0
    8.7850  -12.3667   21.4483 C   0  0  0  0  0  0  0  0  0  0  0  0
   11.0223  -17.0933   17.1775 C   0  0  0  0  0  0  0  0  0  0  0  0
   11.6783  -16.7056   18.4915 C   0  0  1  0  0  0  0  0  0  0  0  0
   12.7270  -15.7964   18.2104 O   0  0  0  0  0  0  0  0  0  0  0  0
   10.7206  -16.1249   19.4660 C   0  0  2  0  0  0  0  0  0  0  0  0
    9.9492  -15.0409   18.9617 N   0  0  0  0  0  0  0  0  0  0  0  0
   11.4205  -15.8807   20.7526 C   0  0  0  0  0  0  0  0  0  0  0  0
   12.0544  -14.8775   21.0857 O   0  0  0  0  0  0  0  0  0  0  0  0
   11.3516  -16.9317   21.7287 N   0  0  0  0  0  0  0  0  0  0  0  0
   11.9097  -16.7282   23.0635 C   0  0  1  0  0  0  0  0  0  0  0  0
   11.5223  -17.8726   23.9705 C   0  0  0  0  0  0  0  0  0  0  0  0
   12.0718  -17.5381   25.3692 C   0  0  0  0  0  0  0  0  0  0  0  0
   11.7862  -18.6544   26.3027 C   0  0  0  0  0  0  0  0  0  0  0  0
   10.8474  -18.5885   27.1341 O   0  0  0  0  0  0  0  0  0  0  0  0
   13.3843  -16.6508   22.9504 C   0  0  0  0  0  0  0  0  0  0  0  0
   13.9871  -17.2812   22.0532 O   0  0  0  0  0  0  0  0  0  0  0  0
   12.5583  -19.8193   26.2909 O   0  0  0  0  0  0  0  0  0  0  0  0
   14.1095  -15.8811   23.8331 O   0  0  0  0  0  0  0  0  0  0  0  0
  1  2  1  0
  2 12  2  0
  3  2  1  0
  3  4  2  0
  4  5  1  0
  5 11  2  0
  5  6  1  0
  7  8  1  6
  7  6  1  0
  9 10  2  0
  9  7  1  0
 12 11  1  0
 14 13  1  6
 14 16  1  0
 15 14  1  0
 16 17  1  6
 17  9  1  0
 18 19  2  0
 18 16  1  0
 20 18  1  0
 21 20  1  0
 21 22  1  1
 22 23  1  0
 23 24  1  0
 24 28  1  0
 25 24  2  0
 26 21  1  0
 27 26  2  0
 29 26  1  0
M  END
$$$$
