YTE.pdb
     RDKit          3D

 29 29  0  0  1  0  0  0  0  0999 V2000
    5.2616  -10.8573   28.1858 O   0  0  0  0  0  0  0  0  0  0  0  0
    5.9740  -11.8278   27.5167 C   0  0  0  0  0  0  0  0  0  0  0  0
    6.9865  -12.5304   28.1588 C   0  0  0  0  0  0  0  0  0  0  0  0
    7.7083  -13.5136   27.4844 C   0  0  0  0  0  0  0  0  0  0  0  0
    7.3819  -13.7543   26.1786 C   0  0  0  0  0  0  0  0  0  0  0  0
    8.1136  -14.7853   25.4082 C   0  0  0  0  0  0  0  0  0  0  0  0
    7.1858  -15.5824   24.5213 C   0  0  2  0  0  0  0  0  0  0  0  0
    6.2558  -16.2612   25.4073 N   0  0  0  0  0  0  0  0  0  0  0  0
    7.9523  -16.5510   23.6835 C   0  0  0  0  0  0  0  0  0  0  0  0
    8.1013  -17.7527   24.0561 O   0  0  0  0  0  0  0  0  0  0  0  0
    6.3701  -13.0512   25.5392 C   0  0  0  0  0  0  0  0  0  0  0  0
    5.6555  -12.0889   26.1813 C   0  0  0  0  0  0  0  0  0  0  0  0
    7.6265  -16.8979   19.8580 C   0  0  0  0  0  0  0  0  0  0  0  0
    9.1002  -16.7179   20.1792 C   0  0  1  0  0  0  0  0  0  0  0  0
    9.5078  -15.4531   19.6897 O   0  0  0  0  0  0  0  0  0  0  0  0
    9.3952  -16.8454   21.6286 C   0  0  2  0  0  0  0  0  0  0  0  0
    8.5089  -16.1254   22.4773 N   0  0  0  0  0  0  0  0  0  0  0  0
   10.8441  -16.6116   21.8546 C   0  0  0  0  0  0  0  0  0  0  0  0
   11.3674  -15.7037   22.5034 O   0  0  0  0  0  0  0  0  0  0  0  0
   11.7462  -17.5523   21.2520 N   0  0  0  0  0  0  0  0  0  0  0  0
   13.1855  -17.4290   21.4709 C   0  0  1  0  0  0  0  0  0  0  0  0
   13.4978  -17.5166   22.9465 C   0  0  0  0  0  0  0  0  0  0  0  0
   13.3171  -18.9902   23.3534 C   0  0  0  0  0  0  0  0  0  0  0  0
   13.3760  -19.1159   24.8298 C   0  0  0  0  0  0  0  0  0  0  0  0
   14.4304  -18.8699   25.4661 O   0  0  0  0  0  0  0  0  0  0  0  0
   13.8677  -18.5247   20.7448 C   0  0  0  0  0  0  0  0  0  0  0  0
   13.2108  -19.4772   20.2683 O   0  0  0  0  0  0  0  0  0  0  0  0
   12.2571  -19.5181   25.5641 O   0  0  0  0  0  0  0  0  0  0  0  0
   15.2357  -18.5063   20.5849 O   0  0  0  0  0  0  0  0  0  0  0  0
  1  2  1  0
  2 12  2  0
  3  2  1  0
  3  4  2  0
  4  5  1  0
  5 11  2  0
  5  6  1  0
  7  8  1  1
  7  6  1  0
  9 10  2  0
  9  7  1  0
 12 11  1  0
 14 13  1  1
 14 16  1  0
 15 14  1  0
 16 17  1  1
 17  9  1  0
 18 19  2  0
 18 16  1  0
 20 18  1  0
 21 20  1  0
 21 22  1  1
 22 23  1  0
 23 24  1  0
 24 28  1  0
 25 24  2  0
 26 21  1  0
 27 26  2  0
 29 26  1  0
M  END
$$$$
