YTE.pdb
     RDKit          3D

 29 29  0  0  1  0  0  0  0  0999 V2000
    8.2393  -11.5318   17.5605 O   0  0  0  0  0  0  0  0  0  0  0  0
    8.1280  -12.4122   18.6140 C   0  0  0  0  0  0  0  0  0  0  0  0
    9.2630  -12.9013   19.2492 C   0  0  0  0  0  0  0  0  0  0  0  0
    9.1533  -13.7915   20.3161 C   0  0  0  0  0  0  0  0  0  0  0  0
    7.8954  -14.1593   20.7062 C   0  0  0  0  0  0  0  0  0  0  0  0
    7.7135  -15.1034   21.8320 C   0  0  0  0  0  0  0  0  0  0  0  0
    7.7610  -16.5406   21.3685 C   0  0  2  0  0  0  0  0  0  0  0  0
    6.3808  -16.9786   21.2514 N   0  0  0  0  0  0  0  0  0  0  0  0
    8.5254  -17.3857   22.3324 C   0  0  0  0  0  0  0  0  0  0  0  0
    7.9604  -17.8702   23.3577 O   0  0  0  0  0  0  0  0  0  0  0  0
    6.7631  -13.6694   20.0701 C   0  0  0  0  0  0  0  0  0  0  0  0
    6.8510  -12.8004   19.0279 C   0  0  0  0  0  0  0  0  0  0  0  0
   10.9743  -20.1693   21.0053 C   0  0  0  0  0  0  0  0  0  0  0  0
   11.6807  -19.2927   22.0250 C   0  0  1  0  0  0  0  0  0  0  0  0
   12.5891  -18.4547   21.3334 O   0  0  0  0  0  0  0  0  0  0  0  0
   10.7403  -18.4903   22.8471 C   0  0  2  0  0  0  0  0  0  0  0  0
    9.8762  -17.6434   22.0986 N   0  0  0  0  0  0  0  0  0  0  0  0
   11.4897  -17.8404   23.9521 C   0  0  0  0  0  0  0  0  0  0  0  0
   11.9736  -16.7069   23.9682 O   0  0  0  0  0  0  0  0  0  0  0  0
   11.6723  -18.6172   25.1458 N   0  0  0  0  0  0  0  0  0  0  0  0
   12.4455  -18.0748   26.2605 C   0  0  1  0  0  0  0  0  0  0  0  0
   12.0425  -18.7486   27.5513 C   0  0  0  0  0  0  0  0  0  0  0  0
   12.9561  -18.1825   28.6534 C   0  0  0  0  0  0  0  0  0  0  0  0
   12.6366  -18.8244   29.9515 C   0  0  0  0  0  0  0  0  0  0  0  0
   11.4805  -18.7745   30.4394 O   0  0  0  0  0  0  0  0  0  0  0  0
   13.8832  -18.3113   25.9953 C   0  0  0  0  0  0  0  0  0  0  0  0
   14.2481  -19.2675   25.2754 O   0  0  0  0  0  0  0  0  0  0  0  0
   13.6163  -19.5050   30.6795 O   0  0  0  0  0  0  0  0  0  0  0  0
   14.8363  -17.4783   26.5387 O   0  0  0  0  0  0  0  0  0  0  0  0
  1  2  1  0
  2 12  2  0
  3  2  1  0
  3  4  2  0
  4  5  1  0
  5 11  2  0
  5  6  1  0
  7  8  1  1
  7  6  1  0
  9 10  2  0
  9  7  1  0
 12 11  1  0
 14 13  1  6
 14 16  1  0
 15 14  1  0
 16 17  1  6
 17  9  1  0
 18 19  2  0
 18 16  1  0
 20 18  1  0
 21 20  1  0
 21 22  1  1
 22 23  1  0
 23 24  1  0
 24 28  1  0
 25 24  2  0
 26 21  1  0
 27 26  2  0
 29 26  1  0
M  END
$$$$
