YTE.pdb
     RDKit          3D

 29 29  0  0  1  0  0  0  0  0999 V2000
   10.7033  -14.8986   30.4010 O   0  0  0  0  0  0  0  0  0  0  0  0
   10.0477  -14.6684   29.2117 C   0  0  0  0  0  0  0  0  0  0  0  0
    9.1106  -13.6477   29.1072 C   0  0  0  0  0  0  0  0  0  0  0  0
    8.4464  -13.4120   27.9047 C   0  0  0  0  0  0  0  0  0  0  0  0
    8.7524  -14.2192   26.8443 C   0  0  0  0  0  0  0  0  0  0  0  0
    8.0793  -14.0198   25.5408 C   0  0  0  0  0  0  0  0  0  0  0  0
    6.9742  -15.0270   25.3236 C   0  0  2  0  0  0  0  0  0  0  0  0
    7.0411  -15.9548   26.4395 N   0  0  0  0  0  0  0  0  0  0  0  0
    7.1419  -15.7274   24.0163 C   0  0  0  0  0  0  0  0  0  0  0  0
    6.1929  -16.4022   23.5173 O   0  0  0  0  0  0  0  0  0  0  0  0
    9.6888  -15.2383   26.9510 C   0  0  0  0  0  0  0  0  0  0  0  0
   10.3464  -15.4826   28.1159 C   0  0  0  0  0  0  0  0  0  0  0  0
    6.2575  -15.3253   21.5075 C   0  0  0  0  0  0  0  0  0  0  0  0
    7.6879  -15.3860   21.0000 C   0  0  1  0  0  0  0  0  0  0  0  0
    8.0886  -14.0735   20.6502 O   0  0  0  0  0  0  0  0  0  0  0  0
    8.6255  -15.9813   21.9852 C   0  0  2  0  0  0  0  0  0  0  0  0
    8.3579  -15.6353   23.3390 N   0  0  0  0  0  0  0  0  0  0  0  0
   10.0204  -15.7667   21.5235 C   0  0  0  0  0  0  0  0  0  0  0  0
   10.5332  -14.7123   21.1434 O   0  0  0  0  0  0  0  0  0  0  0  0
   10.8783  -16.9182   21.5203 N   0  0  0  0  0  0  0  0  0  0  0  0
   12.2340  -16.8220   22.0564 C   0  0  1  0  0  0  0  0  0  0  0  0
   12.4989  -17.9620   23.0118 C   0  0  0  0  0  0  0  0  0  0  0  0
   11.7805  -19.1979   22.4406 C   0  0  0  0  0  0  0  0  0  0  0  0
   12.0935  -20.3890   23.2667 C   0  0  0  0  0  0  0  0  0  0  0  0
   11.5011  -21.4821   23.0902 O   0  0  0  0  0  0  0  0  0  0  0  0
   13.1915  -16.8763   20.9280 C   0  0  0  0  0  0  0  0  0  0  0  0
   12.7990  -17.1599   19.7742 O   0  0  0  0  0  0  0  0  0  0  0  0
   13.0587  -20.3327   24.2758 O   0  0  0  0  0  0  0  0  0  0  0  0
   14.5275  -16.6133   21.1369 O   0  0  0  0  0  0  0  0  0  0  0  0
  1  2  1  0
  2 12  2  0
  3  2  1  0
  3  4  2  0
  4  5  1  0
  5 11  2  0
  5  6  1  0
  7  8  1  1
  7  6  1  0
  9 10  2  0
  9  7  1  0
 12 11  1  0
 14 13  1  1
 14 16  1  0
 15 14  1  0
 16 17  1  1
 17  9  1  0
 18 19  2  0
 18 16  1  0
 20 18  1  0
 21 20  1  0
 21 22  1  1
 22 23  1  0
 23 24  1  0
 24 28  1  0
 25 24  2  0
 26 21  1  0
 27 26  2  0
 29 26  1  0
M  END
$$$$
