YTE.pdb
     RDKit          3D

 29 29  0  0  1  0  0  0  0  0999 V2000
    5.0817  -10.3662   27.7144 O   0  0  0  0  0  0  0  0  0  0  0  0
    5.8425  -11.3333   27.0955 C   0  0  0  0  0  0  0  0  0  0  0  0
    5.5805  -11.7059   25.7827 C   0  0  0  0  0  0  0  0  0  0  0  0
    6.3495  -12.6836   25.1537 C   0  0  0  0  0  0  0  0  0  0  0  0
    7.3607  -13.2544   25.8756 C   0  0  0  0  0  0  0  0  0  0  0  0
    8.2115  -14.3001   25.2634 C   0  0  0  0  0  0  0  0  0  0  0  0
    7.3841  -15.3602   24.5747 C   0  0  2  0  0  0  0  0  0  0  0  0
    6.5087  -15.9197   25.5902 N   0  0  0  0  0  0  0  0  0  0  0  0
    8.2584  -16.4060   23.9667 C   0  0  0  0  0  0  0  0  0  0  0  0
    8.3278  -17.5655   24.4723 O   0  0  0  0  0  0  0  0  0  0  0  0
    7.6206  -12.8806   27.1869 C   0  0  0  0  0  0  0  0  0  0  0  0
    6.8810  -11.9288   27.8164 C   0  0  0  0  0  0  0  0  0  0  0  0
    8.5536  -17.1567   20.1707 C   0  0  0  0  0  0  0  0  0  0  0  0
    9.9469  -16.8954   20.7164 C   0  0  1  0  0  0  0  0  0  0  0  0
   10.3973  -15.6551   20.2021 O   0  0  0  0  0  0  0  0  0  0  0  0
    9.9970  -16.9034   22.2001 C   0  0  2  0  0  0  0  0  0  0  0  0
    9.0053  -16.1001   22.8289 N   0  0  0  0  0  0  0  0  0  0  0  0
   11.3956  -16.6736   22.6428 C   0  0  0  0  0  0  0  0  0  0  0  0
   11.9025  -15.6134   23.0146 O   0  0  0  0  0  0  0  0  0  0  0  0
   12.2634  -17.8177   22.6434 N   0  0  0  0  0  0  0  0  0  0  0  0
   13.5389  -17.7681   23.3542 C   0  0  1  0  0  0  0  0  0  0  0  0
   14.0051  -19.1661   23.6867 C   0  0  0  0  0  0  0  0  0  0  0  0
   15.4106  -19.0329   24.3005 C   0  0  0  0  0  0  0  0  0  0  0  0
   15.5067  -19.8649   25.5242 C   0  0  0  0  0  0  0  0  0  0  0  0
   14.5415  -20.5658   25.9166 O   0  0  0  0  0  0  0  0  0  0  0  0
   14.5348  -17.0967   22.4879 C   0  0  0  0  0  0  0  0  0  0  0  0
   14.3976  -17.0956   21.2441 O   0  0  0  0  0  0  0  0  0  0  0  0
   16.6777  -19.8930   26.2866 O   0  0  0  0  0  0  0  0  0  0  0  0
   15.6248  -16.4637   23.0436 O   0  0  0  0  0  0  0  0  0  0  0  0
  1  2  1  0
  2 12  2  0
  3  2  1  0
  3  4  2  0
  4  5  1  0
  5 11  2  0
  5  6  1  0
  7  8  1  1
  7  6  1  0
  9 10  2  0
  9  7  1  0
 12 11  1  0
 14 13  1  1
 14 16  1  0
 15 14  1  0
 16 17  1  1
 17  9  1  0
 18 19  2  0
 18 16  1  0
 20 18  1  0
 21 20  1  0
 21 22  1  6
 22 23  1  0
 23 24  1  0
 24 28  1  0
 25 24  2  0
 26 21  1  0
 27 26  2  0
 29 26  1  0
M  END
$$$$
