YTE.pdb
     RDKit          3D

 29 29  0  0  1  0  0  0  0  0999 V2000
    5.0975  -10.1480   27.1217 O   0  0  0  0  0  0  0  0  0  0  0  0
    5.8406  -11.2249   26.6915 C   0  0  0  0  0  0  0  0  0  0  0  0
    6.3005  -12.1734   27.5970 C   0  0  0  0  0  0  0  0  0  0  0  0
    7.0518  -13.2647   27.1641 C   0  0  0  0  0  0  0  0  0  0  0  0
    7.3147  -13.3607   25.8257 C   0  0  0  0  0  0  0  0  0  0  0  0
    8.1093  -14.4961   25.3047 C   0  0  0  0  0  0  0  0  0  0  0  0
    7.2336  -15.5298   24.6360 C   0  0  2  0  0  0  0  0  0  0  0  0
    6.4899  -16.1849   25.6983 N   0  0  0  0  0  0  0  0  0  0  0  0
    8.0570  -16.5038   23.8609 C   0  0  0  0  0  0  0  0  0  0  0  0
    8.5009  -17.5563   24.4089 O   0  0  0  0  0  0  0  0  0  0  0  0
    6.8543  -12.4120   24.9230 C   0  0  0  0  0  0  0  0  0  0  0  0
    6.1201  -11.3412   25.3272 C   0  0  0  0  0  0  0  0  0  0  0  0
   10.5139  -16.9439   19.5076 C   0  0  0  0  0  0  0  0  0  0  0  0
    9.5036  -16.2055   20.3685 C   0  0  1  0  0  0  0  0  0  0  0  0
    8.2360  -16.3039   19.7448 O   0  0  0  0  0  0  0  0  0  0  0  0
    9.4497  -16.7154   21.7617 C   0  0  2  0  0  0  0  0  0  0  0  0
    8.3385  -16.2498   22.5185 N   0  0  0  0  0  0  0  0  0  0  0  0
   10.7825  -16.5485   22.3948 C   0  0  0  0  0  0  0  0  0  0  0  0
   11.2685  -15.5178   22.8645 O   0  0  0  0  0  0  0  0  0  0  0  0
   11.6048  -17.7229   22.4754 N   0  0  0  0  0  0  0  0  0  0  0  0
   12.8172  -17.7126   23.2906 C   0  0  1  0  0  0  0  0  0  0  0  0
   12.8663  -18.9417   24.1675 C   0  0  0  0  0  0  0  0  0  0  0  0
   14.2123  -18.9032   24.9137 C   0  0  0  0  0  0  0  0  0  0  0  0
   14.3421  -20.0995   25.7804 C   0  0  0  0  0  0  0  0  0  0  0  0
   15.4291  -20.3882   26.3391 O   0  0  0  0  0  0  0  0  0  0  0  0
   13.9911  -17.6893   22.3881 C   0  0  0  0  0  0  0  0  0  0  0  0
   13.9348  -18.2232   21.2578 O   0  0  0  0  0  0  0  0  0  0  0  0
   13.2560  -20.9508   26.0013 O   0  0  0  0  0  0  0  0  0  0  0  0
   15.1600  -17.0772   22.7838 O   0  0  0  0  0  0  0  0  0  0  0  0
  1  2  1  0
  2 12  2  0
  3  2  1  0
  3  4  2  0
  4  5  1  0
  5 11  2  0
  5  6  1  0
  7  8  1  1
  7  6  1  0
  9 10  2  0
  9  7  1  0
 12 11  1  0
 14 13  1  6
 14 16  1  0
 15 14  1  0
 16 17  1  1
 17  9  1  0
 18 19  2  0
 18 16  1  0
 20 18  1  0
 21 20  1  0
 21 22  1  6
 22 23  1  0
 23 24  1  0
 24 28  1  0
 25 24  2  0
 26 21  1  0
 27 26  2  0
 29 26  1  0
M  END
$$$$
