YTE.pdb
     RDKit          3D

 29 29  0  0  1  0  0  0  0  0999 V2000
    6.4817  -11.2637   17.8552 O   0  0  0  0  0  0  0  0  0  0  0  0
    6.9871  -12.3604   18.5179 C   0  0  0  0  0  0  0  0  0  0  0  0
    6.1739  -13.4505   18.8033 C   0  0  0  0  0  0  0  0  0  0  0  0
    6.6831  -14.5618   19.4729 C   0  0  0  0  0  0  0  0  0  0  0  0
    8.0018  -14.5337   19.8335 C   0  0  0  0  0  0  0  0  0  0  0  0
    8.6006  -15.6835   20.5487 C   0  0  0  0  0  0  0  0  0  0  0  0
    9.4403  -16.5376   19.6278 C   0  0  2  0  0  0  0  0  0  0  0  0
    8.5285  -17.0987   18.6456 N   0  0  0  0  0  0  0  0  0  0  0  0
   10.1493  -17.6058   20.3919 C   0  0  0  0  0  0  0  0  0  0  0  0
    9.5274  -18.6318   20.7987 O   0  0  0  0  0  0  0  0  0  0  0  0
    8.8121  -13.4437   19.5473 C   0  0  0  0  0  0  0  0  0  0  0  0
    8.3327  -12.3512   18.8948 C   0  0  0  0  0  0  0  0  0  0  0  0
   12.9806  -19.7698   19.4583 C   0  0  0  0  0  0  0  0  0  0  0  0
   13.4560  -18.9537   20.6480 C   0  0  1  0  0  0  0  0  0  0  0  0
   14.3445  -17.9580   20.1741 O   0  0  0  0  0  0  0  0  0  0  0  0
   12.3394  -18.3461   21.4148 C   0  0  2  0  0  0  0  0  0  0  0  0
   11.5117  -17.4700   20.6588 N   0  0  0  0  0  0  0  0  0  0  0  0
   12.8638  -17.8022   22.6932 C   0  0  0  0  0  0  0  0  0  0  0  0
   13.1962  -16.6406   22.9365 O   0  0  0  0  0  0  0  0  0  0  0  0
   12.9986  -18.7333   23.7780 N   0  0  0  0  0  0  0  0  0  0  0  0
   13.5080  -18.2818   25.0707 C   0  0  1  0  0  0  0  0  0  0  0  0
   13.1334  -19.2681   26.1521 C   0  0  0  0  0  0  0  0  0  0  0  0
   13.8132  -18.7885   27.4474 C   0  0  0  0  0  0  0  0  0  0  0  0
   13.3986  -19.6486   28.5820 C   0  0  0  0  0  0  0  0  0  0  0  0
   12.5824  -20.5901   28.4255 O   0  0  0  0  0  0  0  0  0  0  0  0
   14.9817  -18.1662   24.9817 C   0  0  0  0  0  0  0  0  0  0  0  0
   15.5948  -17.3134   25.6619 O   0  0  0  0  0  0  0  0  0  0  0  0
   13.9009  -19.4361   29.8687 O   0  0  0  0  0  0  0  0  0  0  0  0
   15.6950  -18.9990   24.1479 O   0  0  0  0  0  0  0  0  0  0  0  0
  1  2  1  0
  2 12  2  0
  3  2  1  0
  3  4  2  0
  4  5  1  0
  5 11  2  0
  5  6  1  0
  7  8  1  6
  7  6  1  0
  9 10  2  0
  9  7  1  0
 12 11  1  0
 14 13  1  6
 14 16  1  0
 15 14  1  0
 16 17  1  6
 17  9  1  0
 18 19  2  0
 18 16  1  0
 20 18  1  0
 21 20  1  0
 21 22  1  1
 22 23  1  0
 23 24  1  0
 24 28  1  0
 25 24  2  0
 26 21  1  0
 27 26  2  0
 29 26  1  0
M  END
$$$$
