YTE.pdb
     RDKit          3D

 29 29  0  0  1  0  0  0  0  0999 V2000
    5.7253  -12.1126   18.4532 O   0  0  0  0  0  0  0  0  0  0  0  0
    6.6148  -12.9123   19.1362 C   0  0  0  0  0  0  0  0  0  0  0  0
    7.9364  -13.0157   18.7195 C   0  0  0  0  0  0  0  0  0  0  0  0
    8.8387  -13.8235   19.4094 C   0  0  0  0  0  0  0  0  0  0  0  0
    8.3731  -14.5028   20.5009 C   0  0  0  0  0  0  0  0  0  0  0  0
    9.2828  -15.3783   21.2741 C   0  0  0  0  0  0  0  0  0  0  0  0
    9.6618  -16.6161   20.4951 C   0  0  2  0  0  0  0  0  0  0  0  0
    8.4689  -17.4432   20.4354 N   0  0  0  0  0  0  0  0  0  0  0  0
   10.7943  -17.3325   21.1523 C   0  0  0  0  0  0  0  0  0  0  0  0
   10.5787  -18.1847   22.0646 O   0  0  0  0  0  0  0  0  0  0  0  0
    7.0525  -14.3980   20.9153 C   0  0  0  0  0  0  0  0  0  0  0  0
    6.1584  -13.6148   20.2547 C   0  0  0  0  0  0  0  0  0  0  0  0
   13.3074  -19.4349   19.4844 C   0  0  0  0  0  0  0  0  0  0  0  0
   14.0999  -18.3629   20.2126 C   0  0  1  0  0  0  0  0  0  0  0  0
   14.6038  -17.4552   19.2494 O   0  0  0  0  0  0  0  0  0  0  0  0
   13.3003  -17.6530   21.2425 C   0  0  2  0  0  0  0  0  0  0  0  0
   12.1031  -17.0588   20.7549 N   0  0  0  0  0  0  0  0  0  0  0  0
   14.1938  -16.7638   22.0273 C   0  0  0  0  0  0  0  0  0  0  0  0
   14.2584  -15.5337   21.9835 O   0  0  0  0  0  0  0  0  0  0  0  0
   15.0874  -17.4062   22.9497 N   0  0  0  0  0  0  0  0  0  0  0  0
   16.0092  -16.6063   23.7528 C   0  0  1  0  0  0  0  0  0  0  0  0
   15.7478  -16.8299   25.2239 C   0  0  0  0  0  0  0  0  0  0  0  0
   15.3459  -18.3072   25.3854 C   0  0  0  0  0  0  0  0  0  0  0  0
   15.2034  -18.6359   26.8244 C   0  0  0  0  0  0  0  0  0  0  0  0
   15.5054  -17.8071   27.7182 O   0  0  0  0  0  0  0  0  0  0  0  0
   17.3949  -17.0086   23.4195 C   0  0  0  0  0  0  0  0  0  0  0  0
   17.6098  -17.9808   22.6617 O   0  0  0  0  0  0  0  0  0  0  0  0
   14.7308  -19.8854   27.2349 O   0  0  0  0  0  0  0  0  0  0  0  0
   18.4645  -16.3143   23.9405 O   0  0  0  0  0  0  0  0  0  0  0  0
  1  2  1  0
  2 12  2  0
  3  2  1  0
  3  4  2  0
  4  5  1  0
  5 11  2  0
  5  6  1  0
  7  8  1  1
  7  6  1  0
  9 10  2  0
  9  7  1  0
 12 11  1  0
 14 13  1  6
 14 16  1  0
 15 14  1  0
 16 17  1  6
 17  9  1  0
 18 19  2  0
 18 16  1  0
 20 18  1  0
 21 20  1  0
 21 22  1  1
 22 23  1  0
 23 24  1  0
 24 28  1  0
 25 24  2  0
 26 21  1  0
 27 26  2  0
 29 26  1  0
M  END
$$$$
