YTE.pdb
     RDKit          3D

 29 29  0  0  1  0  0  0  0  0999 V2000
    5.3478  -10.6962   28.5270 O   0  0  0  0  0  0  0  0  0  0  0  0
    5.9258  -11.5731   27.6359 C   0  0  0  0  0  0  0  0  0  0  0  0
    5.4947  -11.6260   26.3158 C   0  0  0  0  0  0  0  0  0  0  0  0
    6.0785  -12.5117   25.4118 C   0  0  0  0  0  0  0  0  0  0  0  0
    7.0816  -13.3178   25.8740 C   0  0  0  0  0  0  0  0  0  0  0  0
    7.7399  -14.2809   24.9624 C   0  0  0  0  0  0  0  0  0  0  0  0
    6.7873  -15.3637   24.5121 C   0  0  2  0  0  0  0  0  0  0  0  0
    6.4786  -16.1535   25.6918 N   0  0  0  0  0  0  0  0  0  0  0  0
    7.4001  -16.1985   23.4373 C   0  0  0  0  0  0  0  0  0  0  0  0
    6.7515  -17.1487   22.9069 O   0  0  0  0  0  0  0  0  0  0  0  0
    7.5105  -13.2633   27.1931 C   0  0  0  0  0  0  0  0  0  0  0  0
    6.9528  -12.4055   28.0888 C   0  0  0  0  0  0  0  0  0  0  0  0
    6.9864  -16.1793   20.7882 C   0  0  0  0  0  0  0  0  0  0  0  0
    8.4643  -15.8968   20.5802 C   0  0  1  0  0  0  0  0  0  0  0  0
    8.6103  -14.5269   20.2523 O   0  0  0  0  0  0  0  0  0  0  0  0
    9.2917  -16.2501   21.7610 C   0  0  2  0  0  0  0  0  0  0  0  0
    8.7012  -15.9263   23.0142 N   0  0  0  0  0  0  0  0  0  0  0  0
   10.6778  -15.7607   21.5504 C   0  0  0  0  0  0  0  0  0  0  0  0
   11.0383  -14.6112   21.2901 O   0  0  0  0  0  0  0  0  0  0  0  0
   11.7257  -16.7356   21.6654 N   0  0  0  0  0  0  0  0  0  0  0  0
   12.6466  -16.6896   22.7987 C   0  0  1  0  0  0  0  0  0  0  0  0
   12.4031  -17.8648   23.7164 C   0  0  0  0  0  0  0  0  0  0  0  0
   13.4322  -17.7603   24.8566 C   0  0  0  0  0  0  0  0  0  0  0  0
   13.2794  -18.9106   25.7799 C   0  0  0  0  0  0  0  0  0  0  0  0
   12.1512  -19.3991   26.0358 O   0  0  0  0  0  0  0  0  0  0  0  0
   14.0333  -16.7328   22.2805 C   0  0  0  0  0  0  0  0  0  0  0  0
   14.2887  -17.2985   21.1940 O   0  0  0  0  0  0  0  0  0  0  0  0
   14.3898  -19.4884   26.4015 O   0  0  0  0  0  0  0  0  0  0  0  0
   15.0590  -16.1482   22.9903 O   0  0  0  0  0  0  0  0  0  0  0  0
  1  2  1  0
  2 12  2  0
  3  2  1  0
  3  4  2  0
  4  5  1  0
  5 11  2  0
  5  6  1  0
  7  8  1  1
  7  6  1  0
  9 10  2  0
  9  7  1  0
 12 11  1  0
 14 13  1  1
 14 16  1  0
 15 14  1  0
 16 17  1  1
 17  9  1  0
 18 19  2  0
 18 16  1  0
 20 18  1  0
 21 20  1  0
 21 22  1  1
 22 23  1  0
 23 24  1  0
 24 28  1  0
 25 24  2  0
 26 21  1  0
 27 26  2  0
 29 26  1  0
M  END
$$$$
