YTE.pdb
     RDKit          3D

 29 29  0  0  1  0  0  0  0  0999 V2000
   -0.7017  -20.6731   22.1029 O   0  0  0  0  0  0  0  0  0  0  0  0
    0.5769  -20.1676   22.1865 C   0  0  0  0  0  0  0  0  0  0  0  0
    1.5704  -20.8663   22.8618 C   0  0  0  0  0  0  0  0  0  0  0  0
    2.8652  -20.3575   22.9471 C   0  0  0  0  0  0  0  0  0  0  0  0
    3.1133  -19.1550   22.3453 C   0  0  0  0  0  0  0  0  0  0  0  0
    4.4685  -18.5616   22.4027 C   0  0  0  0  0  0  0  0  0  0  0  0
    4.9731  -18.1890   21.0282 C   0  0  2  0  0  0  0  0  0  0  0  0
    4.7652  -19.3546   20.1862 N   0  0  0  0  0  0  0  0  0  0  0  0
    6.4125  -17.7973   21.0779 C   0  0  0  0  0  0  0  0  0  0  0  0
    7.3235  -18.6528   20.8701 O   0  0  0  0  0  0  0  0  0  0  0  0
    2.1193  -18.4589   21.6714 C   0  0  0  0  0  0  0  0  0  0  0  0
    0.8508  -18.9399   21.5779 C   0  0  0  0  0  0  0  0  0  0  0  0
    7.4596  -14.3601   19.5546 C   0  0  0  0  0  0  0  0  0  0  0  0
    8.1652  -14.5311   20.8889 C   0  0  1  0  0  0  0  0  0  0  0  0
    7.6223  -13.5921   21.7993 O   0  0  0  0  0  0  0  0  0  0  0  0
    8.0597  -15.9114   21.4253 C   0  0  2  0  0  0  0  0  0  0  0  0
    6.7548  -16.4739   21.3558 N   0  0  0  0  0  0  0  0  0  0  0  0
    8.7232  -15.9717   22.7524 C   0  0  0  0  0  0  0  0  0  0  0  0
    8.1860  -16.0050   23.8612 O   0  0  0  0  0  0  0  0  0  0  0  0
   10.1589  -15.9979   22.7502 N   0  0  0  0  0  0  0  0  0  0  0  0
   10.8888  -16.2048   23.9987 C   0  0  1  0  0  0  0  0  0  0  0  0
   10.6252  -17.5931   24.5329 C   0  0  0  0  0  0  0  0  0  0  0  0
   11.4495  -17.7372   25.8251 C   0  0  0  0  0  0  0  0  0  0  0  0
   11.2749  -19.0995   26.3845 C   0  0  0  0  0  0  0  0  0  0  0  0
   11.6800  -20.1166   25.7693 O   0  0  0  0  0  0  0  0  0  0  0  0
   12.3354  -16.0327   23.7324 C   0  0  0  0  0  0  0  0  0  0  0  0
   12.7601  -15.9482   22.5584 O   0  0  0  0  0  0  0  0  0  0  0  0
   10.6474  -19.2973   27.6174 O   0  0  0  0  0  0  0  0  0  0  0  0
   13.2308  -15.9626   24.7769 O   0  0  0  0  0  0  0  0  0  0  0  0
  1  2  1  0
  2 12  2  0
  3  2  1  0
  3  4  2  0
  4  5  1  0
  5 11  2  0
  5  6  1  0
  7  8  1  6
  7  6  1  0
  9 10  2  0
  9  7  1  0
 12 11  1  0
 14 13  1  6
 14 16  1  0
 15 14  1  0
 16 17  1  1
 17  9  1  0
 18 19  2  0
 18 16  1  0
 20 18  1  0
 21 20  1  0
 21 22  1  6
 22 23  1  0
 23 24  1  0
 24 28  1  0
 25 24  2  0
 26 21  1  0
 27 26  2  0
 29 26  1  0
M  END
$$$$
