YTE.pdb
     RDKit          3D

 29 29  0  0  1  0  0  0  0  0999 V2000
   15.6754  -16.5484   12.4980 O   0  0  0  0  0  0  0  0  0  0  0  0
   15.0679  -16.3679   13.7209 C   0  0  0  0  0  0  0  0  0  0  0  0
   13.6879  -16.2322   13.8115 C   0  0  0  0  0  0  0  0  0  0  0  0
   13.0706  -16.0503   15.0479 C   0  0  0  0  0  0  0  0  0  0  0  0
   13.8718  -16.0110   16.1552 C   0  0  0  0  0  0  0  0  0  0  0  0
   13.2755  -15.8185   17.4966 C   0  0  0  0  0  0  0  0  0  0  0  0
   12.7686  -14.4078   17.6849 C   0  0  2  0  0  0  0  0  0  0  0  0
   13.9389  -13.5470   17.6684 N   0  0  0  0  0  0  0  0  0  0  0  0
   12.0116  -14.2807   18.9649 C   0  0  0  0  0  0  0  0  0  0  0  0
   12.6206  -14.1143   20.0633 O   0  0  0  0  0  0  0  0  0  0  0  0
   15.2501  -16.1467   16.0623 C   0  0  0  0  0  0  0  0  0  0  0  0
   15.8694  -16.3249   14.8649 C   0  0  0  0  0  0  0  0  0  0  0  0
    8.5087  -12.3112   19.1941 C   0  0  0  0  0  0  0  0  0  0  0  0
    8.4083  -13.7090   19.7801 C   0  0  1  0  0  0  0  0  0  0  0  0
    7.6674  -14.5132   18.8802 O   0  0  0  0  0  0  0  0  0  0  0  0
    9.7344  -14.3136   20.0624 C   0  0  2  0  0  0  0  0  0  0  0  0
   10.6182  -14.3456   18.9480 N   0  0  0  0  0  0  0  0  0  0  0  0
    9.5422  -15.6014   20.7761 C   0  0  0  0  0  0  0  0  0  0  0  0
    9.3278  -16.7103   20.2827 O   0  0  0  0  0  0  0  0  0  0  0  0
    9.6172  -15.5568   22.2094 N   0  0  0  0  0  0  0  0  0  0  0  0
   10.3566  -16.5864   22.9358 C   0  0  1  0  0  0  0  0  0  0  0  0
   11.8304  -16.4926   22.6171 C   0  0  0  0  0  0  0  0  0  0  0  0
   12.5170  -17.6694   23.3337 C   0  0  0  0  0  0  0  0  0  0  0  0
   13.9829  -17.6037   23.1193 C   0  0  0  0  0  0  0  0  0  0  0  0
   14.7660  -17.2787   24.0456 O   0  0  0  0  0  0  0  0  0  0  0  0
   10.1404  -16.3860   24.3871 C   0  0  0  0  0  0  0  0  0  0  0  0
   10.3819  -17.3069   25.1991 O   0  0  0  0  0  0  0  0  0  0  0  0
   14.5429  -17.8981   21.8731 O   0  0  0  0  0  0  0  0  0  0  0  0
    9.6711  -15.1802   24.8597 O   0  0  0  0  0  0  0  0  0  0  0  0
  1  2  1  0
  2 12  2  0
  3  2  1  0
  3  4  2  0
  4  5  1  0
  5 11  2  0
  5  6  1  0
  7  8  1  1
  7  6  1  0
  9 10  2  0
  9  7  1  0
 12 11  1  0
 14 13  1  6
 14 16  1  0
 15 14  1  0
 16 17  1  6
 17  9  1  0
 18 19  2  0
 18 16  1  0
 20 18  1  0
 21 20  1  0
 21 22  1  1
 22 23  1  0
 23 24  1  0
 24 28  1  0
 25 24  2  0
 26 21  1  0
 27 26  2  0
 29 26  1  0
M  END
$$$$
