YTE.pdb
     RDKit          3D

 29 29  0  0  1  0  0  0  0  0999 V2000
    8.6103  -12.2798   17.5104 O   0  0  0  0  0  0  0  0  0  0  0  0
    8.1934  -12.8919   18.6718 C   0  0  0  0  0  0  0  0  0  0  0  0
    6.8705  -12.7954   19.0862 C   0  0  0  0  0  0  0  0  0  0  0  0
    6.4459  -13.4146   20.2605 C   0  0  0  0  0  0  0  0  0  0  0  0
    7.3762  -14.1126   20.9796 C   0  0  0  0  0  0  0  0  0  0  0  0
    6.9868  -14.7907   22.2368 C   0  0  0  0  0  0  0  0  0  0  0  0
    6.9330  -16.2911   22.0680 C   0  0  2  0  0  0  0  0  0  0  0  0
    5.7540  -16.5706   21.2664 N   0  0  0  0  0  0  0  0  0  0  0  0
    6.8701  -16.9739   23.3937 C   0  0  0  0  0  0  0  0  0  0  0  0
    5.8060  -16.9560   24.0810 O   0  0  0  0  0  0  0  0  0  0  0  0
    8.6971  -14.2076   20.5637 C   0  0  0  0  0  0  0  0  0  0  0  0
    9.1291  -13.6103   19.4211 C   0  0  0  0  0  0  0  0  0  0  0  0
    6.7355  -20.1856   24.5966 C   0  0  0  0  0  0  0  0  0  0  0  0
    8.0418  -19.6969   25.1983 C   0  0  1  0  0  0  0  0  0  0  0  0
    9.1080  -20.3173   24.5028 O   0  0  0  0  0  0  0  0  0  0  0  0
    8.1760  -18.2188   25.1645 C   0  0  2  0  0  0  0  0  0  0  0  0
    7.9968  -17.6388   23.8778 N   0  0  0  0  0  0  0  0  0  0  0  0
    9.4106  -17.8238   25.8888 C   0  0  0  0  0  0  0  0  0  0  0  0
   10.5245  -17.6007   25.4108 O   0  0  0  0  0  0  0  0  0  0  0  0
    9.2992  -17.6798   27.3132 N   0  0  0  0  0  0  0  0  0  0  0  0
   10.4657  -17.2919   28.1028 C   0  0  1  0  0  0  0  0  0  0  0  0
   10.2111  -15.9739   28.7959 C   0  0  0  0  0  0  0  0  0  0  0  0
    9.7189  -14.9913   27.7179 C   0  0  0  0  0  0  0  0  0  0  0  0
    9.5073  -13.6513   28.3167 C   0  0  0  0  0  0  0  0  0  0  0  0
    8.9992  -12.7119   27.6560 O   0  0  0  0  0  0  0  0  0  0  0  0
   10.7267  -18.3483   29.1073 C   0  0  0  0  0  0  0  0  0  0  0  0
    9.9317  -19.3047   29.2454 O   0  0  0  0  0  0  0  0  0  0  0  0
    9.8720  -13.3873   29.6397 O   0  0  0  0  0  0  0  0  0  0  0  0
   11.8507  -18.2897   29.9014 O   0  0  0  0  0  0  0  0  0  0  0  0
  1  2  1  0
  2 12  2  0
  3  2  1  0
  3  4  2  0
  4  5  1  0
  5 11  2  0
  5  6  1  0
  7  8  1  6
  7  6  1  0
  9 10  2  0
  9  7  1  0
 12 11  1  0
 14 13  1  6
 14 16  1  0
 15 14  1  0
 16 17  1  6
 17  9  1  0
 18 19  2  0
 18 16  1  0
 20 18  1  0
 21 20  1  0
 21 22  1  1
 22 23  1  0
 23 24  1  0
 24 28  1  0
 25 24  2  0
 26 21  1  0
 27 26  2  0
 29 26  1  0
M  END
$$$$
