YTE.pdb
     RDKit          3D

 29 29  0  0  1  0  0  0  0  0999 V2000
    4.7044  -10.2590   27.0858 O   0  0  0  0  0  0  0  0  0  0  0  0
    5.4975  -11.3180   26.7027 C   0  0  0  0  0  0  0  0  0  0  0  0
    6.1374  -11.3119   25.4692 C   0  0  0  0  0  0  0  0  0  0  0  0
    6.9412  -12.3819   25.0796 C   0  0  0  0  0  0  0  0  0  0  0  0
    7.0713  -13.4261   25.9526 C   0  0  0  0  0  0  0  0  0  0  0  0
    7.9101  -14.5926   25.5953 C   0  0  0  0  0  0  0  0  0  0  0  0
    7.1697  -15.5595   24.7011 C   0  0  2  0  0  0  0  0  0  0  0  0
    6.1277  -16.1567   25.5185 N   0  0  0  0  0  0  0  0  0  0  0  0
    8.0963  -16.5926   24.1518 C   0  0  0  0  0  0  0  0  0  0  0  0
    8.2318  -17.7126   24.7283 O   0  0  0  0  0  0  0  0  0  0  0  0
    6.4311  -13.4300   27.1842 C   0  0  0  0  0  0  0  0  0  0  0  0
    5.6433  -12.3951   27.5810 C   0  0  0  0  0  0  0  0  0  0  0  0
    8.3687  -16.8638   20.2291 C   0  0  0  0  0  0  0  0  0  0  0  0
    9.7545  -17.0003   20.8358 C   0  0  1  0  0  0  0  0  0  0  0  0
   10.5071  -15.8545   20.4804 O   0  0  0  0  0  0  0  0  0  0  0  0
    9.7249  -17.1788   22.3093 C   0  0  2  0  0  0  0  0  0  0  0  0
    8.8189  -16.3190   22.9904 N   0  0  0  0  0  0  0  0  0  0  0  0
   11.1165  -17.1972   22.8271 C   0  0  0  0  0  0  0  0  0  0  0  0
   11.6762  -16.3381   23.5110 O   0  0  0  0  0  0  0  0  0  0  0  0
   11.9069  -18.3502   22.4987 N   0  0  0  0  0  0  0  0  0  0  0  0
   13.3058  -18.4208   22.9141 C   0  0  1  0  0  0  0  0  0  0  0  0
   13.9760  -17.0810   22.7183 C   0  0  0  0  0  0  0  0  0  0  0  0
   15.4347  -17.2403   23.1837 C   0  0  0  0  0  0  0  0  0  0  0  0
   16.1751  -15.9746   22.9624 C   0  0  0  0  0  0  0  0  0  0  0  0
   16.6873  -15.7021   21.8486 O   0  0  0  0  0  0  0  0  0  0  0  0
   13.3537  -18.8049   24.3436 C   0  0  0  0  0  0  0  0  0  0  0  0
   14.2282  -19.5970   24.7601 O   0  0  0  0  0  0  0  0  0  0  0  0
   16.3316  -15.0419   23.9912 O   0  0  0  0  0  0  0  0  0  0  0  0
   12.4344  -18.2920   25.2321 O   0  0  0  0  0  0  0  0  0  0  0  0
  1  2  1  0
  2 12  2  0
  3  2  1  0
  3  4  2  0
  4  5  1  0
  5 11  2  0
  5  6  1  0
  7  8  1  1
  7  6  1  0
  9 10  2  0
  9  7  1  0
 12 11  1  0
 14 13  1  1
 14 16  1  0
 15 14  1  0
 16 17  1  1
 17  9  1  0
 18 19  2  0
 18 16  1  0
 20 18  1  0
 21 20  1  0
 21 22  1  1
 22 23  1  0
 23 24  1  0
 24 28  1  0
 25 24  2  0
 26 21  1  0
 27 26  2  0
 29 26  1  0
M  END
$$$$
