TID.pdb
     RDKit          3D

 24 23  0  0  1  0  0  0  0  0999 V2000
    6.7182  -16.1292   20.6604 C   0  0  0  0  0  0  0  0  0  0  0  0
    7.4993  -15.0441   19.9473 C   0  0  1  0  0  0  0  0  0  0  0  0
    7.1441  -14.9769   18.6111 O   0  0  0  0  0  0  0  0  0  0  0  0
    7.3819  -13.7154   20.6569 C   0  0  2  0  0  0  0  0  0  0  0  0
    7.9060  -12.6944   19.7870 N   0  0  0  0  0  0  0  0  0  0  0  0
    8.0526  -13.7236   21.9770 C   0  0  0  0  0  0  0  0  0  0  0  0
    9.2827  -13.6156   22.0105 O   0  0  0  0  0  0  0  0  0  0  0  0
    5.6984  -11.3031   25.9725 C   0  0  0  0  0  0  0  0  0  0  0  0
    6.7247  -11.9602   25.1097 C   0  0  0  0  0  0  0  0  0  0  0  0
    6.9492  -13.4223   25.4870 C   0  0  2  0  0  0  0  0  0  0  0  0
    7.2925  -13.5821   26.9229 C   0  0  0  0  0  0  0  0  0  0  0  0
    7.9223  -13.9508   24.4925 C   0  0  2  0  0  0  0  0  0  0  0  0
    7.2809  -13.8530   23.1593 N   0  0  0  0  0  0  0  0  0  0  0  0
    8.4133  -15.3148   24.7242 C   0  0  0  0  0  0  0  0  0  0  0  0
    7.6193  -16.3288   24.6869 O   0  0  0  0  0  0  0  0  0  0  0  0
    9.7424  -15.6213   24.9945 N   0  0  0  0  0  0  0  0  0  0  0  0
   10.1981  -17.0330   25.2088 C   0  0  1  0  0  0  0  0  0  0  0  0
   11.5770  -17.0865   24.5939 C   0  0  0  0  0  0  0  0  0  0  0  0
   11.7161  -17.9001   23.3976 C   0  0  0  0  0  0  0  0  0  0  0  0
   10.7807  -18.5631   22.9360 O   0  0  0  0  0  0  0  0  0  0  0  0
   10.2238  -17.2939   26.6596 C   0  0  0  0  0  0  0  0  0  0  0  0
   10.3195  -16.2743   27.5695 O   0  0  0  0  0  0  0  0  0  0  0  0
   12.9821  -17.9077   22.7677 O   0  0  0  0  0  0  0  0  0  0  0  0
   10.1581  -18.4733   27.0866 O   0  0  0  0  0  0  0  0  0  0  0  0
  2  1  1  1
  2  3  1  0
  4  2  1  0
  4  6  1  0
  4  5  1  6
  6  7  2  0
  8  9  1  0
  9 10  1  0
 10 12  1  0
 10 11  1  1
 12 14  1  0
 12 13  1  6
 13  6  1  0
 14 16  1  0
 14 15  2  0
 16 17  1  0
 17 21  1  0
 17 18  1  1
 19 18  1  0
 20 19  2  0
 21 24  2  0
 21 22  1  0
 23 19  1  0
M  END
$$$$
