TID.pdb
     RDKit          3D

 24 23  0  0  1  0  0  0  0  0999 V2000
    8.2758  -19.3549   18.8167 C   0  0  0  0  0  0  0  0  0  0  0  0
    8.9921  -18.9208   17.5540 C   0  0  1  0  0  0  0  0  0  0  0  0
    8.6132  -19.7040   16.4773 O   0  0  0  0  0  0  0  0  0  0  0  0
    8.8215  -17.4417   17.2971 C   0  0  2  0  0  0  0  0  0  0  0  0
    9.4456  -17.1304   16.0371 N   0  0  0  0  0  0  0  0  0  0  0  0
    9.3541  -16.6153   18.4042 C   0  0  0  0  0  0  0  0  0  0  0  0
   10.5759  -16.4472   18.4753 O   0  0  0  0  0  0  0  0  0  0  0  0
    6.8164  -12.2482   20.0682 C   0  0  0  0  0  0  0  0  0  0  0  0
    7.8960  -13.2569   19.8525 C   0  0  0  0  0  0  0  0  0  0  0  0
    7.9010  -14.3397   20.9285 C   0  0  2  0  0  0  0  0  0  0  0  0
    7.9820  -13.7674   22.2964 C   0  0  0  0  0  0  0  0  0  0  0  0
    8.9657  -15.3003   20.5293 C   0  0  2  0  0  0  0  0  0  0  0  0
    8.4643  -16.0414   19.3470 N   0  0  0  0  0  0  0  0  0  0  0  0
    9.4184  -16.2371   21.5651 C   0  0  0  0  0  0  0  0  0  0  0  0
    8.6678  -17.2026   21.9704 O   0  0  0  0  0  0  0  0  0  0  0  0
   10.6637  -16.1656   22.1796 N   0  0  0  0  0  0  0  0  0  0  0  0
   11.0503  -17.0971   23.2882 C   0  0  1  0  0  0  0  0  0  0  0  0
   12.5591  -17.1507   23.2330 C   0  0  0  0  0  0  0  0  0  0  0  0
   13.1365  -17.8287   22.0845 C   0  0  0  0  0  0  0  0  0  0  0  0
   12.5827  -18.7871   21.5347 O   0  0  0  0  0  0  0  0  0  0  0  0
   10.5583  -16.5319   24.5579 C   0  0  0  0  0  0  0  0  0  0  0  0
   10.4864  -17.2872   25.6985 O   0  0  0  0  0  0  0  0  0  0  0  0
   14.3773  -17.3455   21.6082 O   0  0  0  0  0  0  0  0  0  0  0  0
   10.1919  -15.3316   24.6106 O   0  0  0  0  0  0  0  0  0  0  0  0
  2  1  1  1
  2  3  1  0
  4  2  1  0
  4  6  1  0
  4  5  1  6
  6  7  2  0
  8  9  1  0
  9 10  1  0
 10 12  1  0
 10 11  1  1
 12 14  1  0
 12 13  1  6
 13  6  1  0
 14 16  1  0
 14 15  2  0
 16 17  1  0
 17 21  1  0
 17 18  1  1
 19 18  1  0
 20 19  2  0
 21 24  2  0
 21 22  1  0
 23 19  1  0
M  END
$$$$
