TID.pdb
     RDKit          3D

 24 23  0  0  1  0  0  0  0  0999 V2000
    7.8285  -19.6021   16.9861 C   0  0  0  0  0  0  0  0  0  0  0  0
    8.3725  -18.8717   18.1971 C   0  0  1  0  0  0  0  0  0  0  0  0
    9.1826  -19.7023   18.9521 O   0  0  0  0  0  0  0  0  0  0  0  0
    9.0509  -17.5785   17.8095 C   0  0  2  0  0  0  0  0  0  0  0  0
   10.1461  -17.8930   16.9288 N   0  0  0  0  0  0  0  0  0  0  0  0
    9.4886  -16.7992   18.9900 C   0  0  0  0  0  0  0  0  0  0  0  0
   10.6679  -16.8879   19.3468 O   0  0  0  0  0  0  0  0  0  0  0  0
    7.0346  -12.1644   19.9859 C   0  0  0  0  0  0  0  0  0  0  0  0
    8.1036  -13.2066   20.0099 C   0  0  0  0  0  0  0  0  0  0  0  0
    7.9119  -14.2075   21.1465 C   0  0  2  0  0  0  0  0  0  0  0  0
    7.8988  -13.5466   22.4763 C   0  0  0  0  0  0  0  0  0  0  0  0
    8.9311  -15.2694   20.9251 C   0  0  2  0  0  0  0  0  0  0  0  0
    8.5591  -15.9784   19.6772 N   0  0  0  0  0  0  0  0  0  0  0  0
    9.1197  -16.2285   22.0206 C   0  0  0  0  0  0  0  0  0  0  0  0
    8.1866  -17.0488   22.3619 O   0  0  0  0  0  0  0  0  0  0  0  0
   10.2911  -16.3324   22.7625 N   0  0  0  0  0  0  0  0  0  0  0  0
   10.4395  -17.3365   23.8652 C   0  0  1  0  0  0  0  0  0  0  0  0
   11.8174  -17.9226   23.6651 C   0  0  0  0  0  0  0  0  0  0  0  0
   12.3165  -18.7710   24.7344 C   0  0  0  0  0  0  0  0  0  0  0  0
   11.5656  -19.4368   25.4558 O   0  0  0  0  0  0  0  0  0  0  0  0
   10.3159  -16.6288   25.1527 C   0  0  0  0  0  0  0  0  0  0  0  0
   10.3916  -15.2632   25.2299 O   0  0  0  0  0  0  0  0  0  0  0  0
   13.7172  -18.8095   24.9253 O   0  0  0  0  0  0  0  0  0  0  0  0
   10.1378  -17.2795   26.2122 O   0  0  0  0  0  0  0  0  0  0  0  0
  2  1  1  6
  2  3  1  0
  4  2  1  0
  4  6  1  0
  4  5  1  6
  6  7  2  0
  8  9  1  0
  9 10  1  0
 10 12  1  0
 10 11  1  1
 12 14  1  0
 12 13  1  6
 13  6  1  0
 14 16  1  0
 14 15  2  0
 16 17  1  0
 17 21  1  0
 17 18  1  1
 19 18  1  0
 20 19  2  0
 21 24  2  0
 21 22  1  0
 23 19  1  0
M  END
$$$$
