TID.pdb
     RDKit          3D

 24 23  0  0  1  0  0  0  0  0999 V2000
    6.0320  -17.3951   22.3427 C   0  0  0  0  0  0  0  0  0  0  0  0
    6.6131  -16.5893   21.1986 C   0  0  1  0  0  0  0  0  0  0  0  0
    5.9710  -16.8869   20.0089 O   0  0  0  0  0  0  0  0  0  0  0  0
    6.6259  -15.1106   21.5086 C   0  0  2  0  0  0  0  0  0  0  0  0
    6.9156  -14.3993   20.2904 N   0  0  0  0  0  0  0  0  0  0  0  0
    7.5764  -14.7733   22.5927 C   0  0  0  0  0  0  0  0  0  0  0  0
    8.7690  -14.6309   22.3037 O   0  0  0  0  0  0  0  0  0  0  0  0
    5.8914  -11.6195   26.3572 C   0  0  0  0  0  0  0  0  0  0  0  0
    6.8551  -12.3639   25.4931 C   0  0  0  0  0  0  0  0  0  0  0  0
    7.2868  -13.6896   26.1150 C   0  0  2  0  0  0  0  0  0  0  0  0
    7.9697  -13.4983   27.4197 C   0  0  0  0  0  0  0  0  0  0  0  0
    8.0413  -14.4074   25.0515 C   0  0  2  0  0  0  0  0  0  0  0  0
    7.1058  -14.6222   23.9215 N   0  0  0  0  0  0  0  0  0  0  0  0
    8.6695  -15.6754   25.4426 C   0  0  0  0  0  0  0  0  0  0  0  0
    7.9670  -16.6706   25.8621 O   0  0  0  0  0  0  0  0  0  0  0  0
   10.0400  -15.9054   25.3932 N   0  0  0  0  0  0  0  0  0  0  0  0
   10.6310  -17.2304   25.7691 C   0  0  1  0  0  0  0  0  0  0  0  0
   11.9971  -17.2358   25.1241 C   0  0  0  0  0  0  0  0  0  0  0  0
   12.8212  -18.4066   25.3738 C   0  0  0  0  0  0  0  0  0  0  0  0
   12.3976  -19.3965   25.9808 O   0  0  0  0  0  0  0  0  0  0  0  0
   10.7082  -17.3002   27.2397 C   0  0  0  0  0  0  0  0  0  0  0  0
   10.6746  -18.4983   27.9030 O   0  0  0  0  0  0  0  0  0  0  0  0
   14.1495  -18.3744   24.8898 O   0  0  0  0  0  0  0  0  0  0  0  0
   10.8063  -16.2451   27.9140 O   0  0  0  0  0  0  0  0  0  0  0  0
  2  1  1  1
  2  3  1  0
  4  2  1  0
  4  6  1  0
  4  5  1  6
  6  7  2  0
  8  9  1  0
  9 10  1  0
 10 12  1  0
 10 11  1  1
 12 14  1  0
 12 13  1  6
 13  6  1  0
 14 16  1  0
 14 15  2  0
 16 17  1  0
 17 21  1  0
 17 18  1  6
 19 18  1  0
 20 19  2  0
 21 24  2  0
 21 22  1  0
 23 19  1  0
M  END
$$$$
