TID.pdb
     RDKit          3D

 24 23  0  0  1  0  0  0  0  0999 V2000
    6.6611  -16.5865   20.8003 C   0  0  0  0  0  0  0  0  0  0  0  0
    7.3937  -15.5730   19.9447 C   0  0  1  0  0  0  0  0  0  0  0  0
    7.0208  -15.6864   18.6165 O   0  0  0  0  0  0  0  0  0  0  0  0
    7.2362  -14.1705   20.4845 C   0  0  2  0  0  0  0  0  0  0  0  0
    7.6955  -13.2484   19.4782 N   0  0  0  0  0  0  0  0  0  0  0  0
    7.9374  -13.9846   21.7753 C   0  0  0  0  0  0  0  0  0  0  0  0
    9.1697  -13.8993   21.7662 O   0  0  0  0  0  0  0  0  0  0  0  0
    6.9724  -11.9738   27.4523 C   0  0  0  0  0  0  0  0  0  0  0  0
    7.7307  -12.8161   26.4802 C   0  0  0  0  0  0  0  0  0  0  0  0
    6.9280  -13.1056   25.2144 C   0  0  2  0  0  0  0  0  0  0  0  0
    5.6351  -13.7722   25.5133 C   0  0  0  0  0  0  0  0  0  0  0  0
    7.8621  -13.8141   24.2974 C   0  0  2  0  0  0  0  0  0  0  0  0
    7.1915  -13.9089   22.9786 N   0  0  0  0  0  0  0  0  0  0  0  0
    8.3218  -15.1386   24.7331 C   0  0  0  0  0  0  0  0  0  0  0  0
    7.5143  -16.1404   24.7991 O   0  0  0  0  0  0  0  0  0  0  0  0
    9.6334  -15.4184   25.1002 N   0  0  0  0  0  0  0  0  0  0  0  0
   10.0825  -16.8121   25.4197 C   0  0  1  0  0  0  0  0  0  0  0  0
   11.3863  -16.9736   24.6739 C   0  0  0  0  0  0  0  0  0  0  0  0
   12.0768  -18.2398   24.8532 C   0  0  0  0  0  0  0  0  0  0  0  0
   11.4724  -19.3059   25.0139 O   0  0  0  0  0  0  0  0  0  0  0  0
   10.2584  -16.9163   26.8798 C   0  0  0  0  0  0  0  0  0  0  0  0
   10.1035  -15.8298   27.6997 O   0  0  0  0  0  0  0  0  0  0  0  0
   13.4905  -18.2103   24.8375 O   0  0  0  0  0  0  0  0  0  0  0  0
   10.5584  -18.0201   27.3989 O   0  0  0  0  0  0  0  0  0  0  0  0
  2  1  1  1
  2  3  1  0
  4  2  1  0
  4  6  1  0
  4  5  1  6
  6  7  2  0
  8  9  1  0
  9 10  1  0
 10 12  1  0
 10 11  1  1
 12 14  1  0
 12 13  1  6
 13  6  1  0
 14 16  1  0
 14 15  2  0
 16 17  1  0
 17 21  1  0
 17 18  1  6
 19 18  1  0
 20 19  2  0
 21 24  2  0
 21 22  1  0
 23 19  1  0
M  END
$$$$
