TID.pdb
     RDKit          3D

 24 23  0  0  1  0  0  0  0  0999 V2000
    6.1601  -17.0315   20.3742 C   0  0  0  0  0  0  0  0  0  0  0  0
    6.9981  -16.6310   21.5715 C   0  0  1  0  0  0  0  0  0  0  0  0
    8.0790  -17.4821   21.7247 O   0  0  0  0  0  0  0  0  0  0  0  0
    7.3971  -15.1750   21.5102 C   0  0  2  0  0  0  0  0  0  0  0  0
    8.0677  -14.9460   20.2566 N   0  0  0  0  0  0  0  0  0  0  0  0
    8.2254  -14.7714   22.6694 C   0  0  0  0  0  0  0  0  0  0  0  0
    9.4295  -14.5651   22.4862 O   0  0  0  0  0  0  0  0  0  0  0  0
    5.7680  -11.6639   26.1809 C   0  0  0  0  0  0  0  0  0  0  0  0
    6.8161  -12.3376   25.3580 C   0  0  0  0  0  0  0  0  0  0  0  0
    7.4222  -13.5458   26.0673 C   0  0  2  0  0  0  0  0  0  0  0  0
    7.9217  -13.2047   27.4236 C   0  0  0  0  0  0  0  0  0  0  0  0
    8.4011  -14.1273   25.1087 C   0  0  2  0  0  0  0  0  0  0  0  0
    7.6288  -14.6317   23.9479 N   0  0  0  0  0  0  0  0  0  0  0  0
    9.2795  -15.1799   25.6340 C   0  0  0  0  0  0  0  0  0  0  0  0
   10.1207  -14.9411   26.5802 O   0  0  0  0  0  0  0  0  0  0  0  0
    9.2773  -16.4904   25.1691 N   0  0  0  0  0  0  0  0  0  0  0  0
   10.0845  -17.5641   25.8339 C   0  0  1  0  0  0  0  0  0  0  0  0
   11.5048  -17.3045   25.3893 C   0  0  0  0  0  0  0  0  0  0  0  0
   11.7827  -17.5035   23.9767 C   0  0  0  0  0  0  0  0  0  0  0  0
   11.3027  -18.4439   23.3342 O   0  0  0  0  0  0  0  0  0  0  0  0
    9.9225  -17.4259   27.2927 C   0  0  0  0  0  0  0  0  0  0  0  0
    9.2411  -16.3719   27.8415 O   0  0  0  0  0  0  0  0  0  0  0  0
   12.6373  -16.5671   23.3503 O   0  0  0  0  0  0  0  0  0  0  0  0
   10.4160  -18.2863   28.0635 O   0  0  0  0  0  0  0  0  0  0  0  0
  2  1  1  6
  2  3  1  0
  4  2  1  0
  4  6  1  0
  4  5  1  6
  6  7  2  0
  8  9  1  0
  9 10  1  0
 10 12  1  0
 10 11  1  1
 12 14  1  0
 12 13  1  6
 13  6  1  0
 14 16  1  0
 14 15  2  0
 16 17  1  0
 17 21  1  0
 17 18  1  1
 19 18  1  0
 20 19  2  0
 21 24  2  0
 21 22  1  0
 23 19  1  0
M  END
$$$$
