TID.pdb
     RDKit          3D

 24 23  0  0  1  0  0  0  0  0999 V2000
    6.6765  -16.4465   21.0190 C   0  0  0  0  0  0  0  0  0  0  0  0
    7.4399  -15.3986   20.2348 C   0  0  1  0  0  0  0  0  0  0  0  0
    7.0780  -15.4207   18.8988 O   0  0  0  0  0  0  0  0  0  0  0  0
    7.3079  -14.0292   20.8596 C   0  0  2  0  0  0  0  0  0  0  0  0
    7.7649  -13.0540   19.9036 N   0  0  0  0  0  0  0  0  0  0  0  0
    8.0293  -13.9293   22.1488 C   0  0  0  0  0  0  0  0  0  0  0  0
    9.2490  -13.7353   22.1247 O   0  0  0  0  0  0  0  0  0  0  0  0
    5.9003  -11.1939   25.9290 C   0  0  0  0  0  0  0  0  0  0  0  0
    6.8622  -11.9736   25.0946 C   0  0  0  0  0  0  0  0  0  0  0  0
    7.1075  -13.3745   25.6492 C   0  0  2  0  0  0  0  0  0  0  0  0
    7.5407  -13.3450   27.0693 C   0  0  0  0  0  0  0  0  0  0  0  0
    8.0148  -14.0408   24.6753 C   0  0  2  0  0  0  0  0  0  0  0  0
    7.3163  -14.0562   23.3676 N   0  0  0  0  0  0  0  0  0  0  0  0
    8.4684  -15.3919   25.0280 C   0  0  0  0  0  0  0  0  0  0  0  0
    7.6444  -16.3802   25.0933 O   0  0  0  0  0  0  0  0  0  0  0  0
    9.7912  -15.7124   25.3121 N   0  0  0  0  0  0  0  0  0  0  0  0
   10.2171  -17.1204   25.5992 C   0  0  1  0  0  0  0  0  0  0  0  0
   11.6421  -17.1969   25.1034 C   0  0  0  0  0  0  0  0  0  0  0  0
   11.8239  -17.1597   23.6620 C   0  0  0  0  0  0  0  0  0  0  0  0
   10.9932  -17.6320   22.8780 O   0  0  0  0  0  0  0  0  0  0  0  0
   10.1195  -17.3441   27.0532 C   0  0  0  0  0  0  0  0  0  0  0  0
   10.1558  -18.6045   27.5884 O   0  0  0  0  0  0  0  0  0  0  0  0
   13.0061  -16.5536   23.1774 O   0  0  0  0  0  0  0  0  0  0  0  0
    9.9990  -16.3661   27.8322 O   0  0  0  0  0  0  0  0  0  0  0  0
  2  1  1  1
  2  3  1  0
  4  2  1  0
  4  6  1  0
  4  5  1  6
  6  7  2  0
  8  9  1  0
  9 10  1  0
 10 12  1  0
 10 11  1  1
 12 14  1  0
 12 13  1  6
 13  6  1  0
 14 16  1  0
 14 15  2  0
 16 17  1  0
 17 21  1  0
 17 18  1  1
 19 18  1  0
 20 19  2  0
 21 24  2  0
 21 22  1  0
 23 19  1  0
M  END
$$$$
