TID.pdb
     RDKit          3D

 24 23  0  0  1  0  0  0  0  0999 V2000
    6.2169  -17.2050   21.9346 C   0  0  0  0  0  0  0  0  0  0  0  0
    6.6306  -16.2979   20.7936 C   0  0  1  0  0  0  0  0  0  0  0  0
    5.9201  -16.5956   19.6435 O   0  0  0  0  0  0  0  0  0  0  0  0
    6.5430  -14.8401   21.1809 C   0  0  2  0  0  0  0  0  0  0  0  0
    6.7328  -14.0482   19.9931 N   0  0  0  0  0  0  0  0  0  0  0  0
    7.5047  -14.4850   22.2493 C   0  0  0  0  0  0  0  0  0  0  0  0
    8.6660  -14.2145   21.9268 O   0  0  0  0  0  0  0  0  0  0  0  0
    5.8607  -11.6434   26.3192 C   0  0  0  0  0  0  0  0  0  0  0  0
    6.7503  -12.3188   25.3284 C   0  0  0  0  0  0  0  0  0  0  0  0
    7.2814  -13.6546   25.8423 C   0  0  2  0  0  0  0  0  0  0  0  0
    7.9946  -13.5112   27.1369 C   0  0  0  0  0  0  0  0  0  0  0  0
    8.0419  -14.2492   24.7094 C   0  0  2  0  0  0  0  0  0  0  0  0
    7.0797  -14.4626   23.6017 N   0  0  0  0  0  0  0  0  0  0  0  0
    8.7733  -15.4894   24.9965 C   0  0  0  0  0  0  0  0  0  0  0  0
    8.1591  -16.5600   25.3660 O   0  0  0  0  0  0  0  0  0  0  0  0
   10.1547  -15.6120   24.8951 N   0  0  0  0  0  0  0  0  0  0  0  0
   10.8532  -16.9093   25.1695 C   0  0  1  0  0  0  0  0  0  0  0  0
   12.2160  -16.7502   24.5373 C   0  0  0  0  0  0  0  0  0  0  0  0
   13.1641  -17.8259   24.7745 C   0  0  0  0  0  0  0  0  0  0  0  0
   14.3849  -17.6684   24.6625 O   0  0  0  0  0  0  0  0  0  0  0  0
   10.9336  -17.0895   26.6305 C   0  0  0  0  0  0  0  0  0  0  0  0
   10.8751  -18.3323   27.2037 O   0  0  0  0  0  0  0  0  0  0  0  0
   12.6325  -19.0829   25.1447 O   0  0  0  0  0  0  0  0  0  0  0  0
   11.0579  -16.0895   27.3806 O   0  0  0  0  0  0  0  0  0  0  0  0
  2  1  1  1
  2  3  1  0
  4  2  1  0
  4  6  1  0
  4  5  1  6
  6  7  2  0
  8  9  1  0
  9 10  1  0
 10 12  1  0
 10 11  1  1
 12 14  1  0
 12 13  1  6
 13  6  1  0
 14 16  1  0
 14 15  2  0
 16 17  1  0
 17 21  1  0
 17 18  1  1
 19 18  1  0
 20 19  2  0
 21 24  2  0
 21 22  1  0
 23 19  1  0
M  END
$$$$
