TID.pdb
     RDKit          3D

 24 23  0  0  1  0  0  0  0  0999 V2000
    6.5584  -16.5902   21.1417 C   0  0  0  0  0  0  0  0  0  0  0  0
    7.2837  -15.5680   20.2902 C   0  0  1  0  0  0  0  0  0  0  0  0
    6.8502  -15.6225   18.9767 O   0  0  0  0  0  0  0  0  0  0  0  0
    7.1925  -14.1820   20.8849 C   0  0  2  0  0  0  0  0  0  0  0  0
    7.6277  -13.2371   19.8892 N   0  0  0  0  0  0  0  0  0  0  0  0
    7.9611  -14.0608   22.1447 C   0  0  0  0  0  0  0  0  0  0  0  0
    9.1802  -13.8749   22.0722 O   0  0  0  0  0  0  0  0  0  0  0  0
    6.0524  -11.3109   26.0872 C   0  0  0  0  0  0  0  0  0  0  0  0
    6.9497  -12.0938   25.1864 C   0  0  0  0  0  0  0  0  0  0  0  0
    7.1796  -13.5162   25.6906 C   0  0  2  0  0  0  0  0  0  0  0  0
    7.6554  -13.5400   27.0972 C   0  0  0  0  0  0  0  0  0  0  0  0
    8.0423  -14.1716   24.6700 C   0  0  2  0  0  0  0  0  0  0  0  0
    7.2924  -14.1587   23.3910 N   0  0  0  0  0  0  0  0  0  0  0  0
    8.4987  -15.5320   24.9807 C   0  0  0  0  0  0  0  0  0  0  0  0
    7.6672  -16.5102   25.0882 O   0  0  0  0  0  0  0  0  0  0  0  0
    9.8323  -15.8725   25.1783 N   0  0  0  0  0  0  0  0  0  0  0  0
   10.2464  -17.2716   25.5209 C   0  0  1  0  0  0  0  0  0  0  0  0
   11.6966  -17.3531   25.1055 C   0  0  0  0  0  0  0  0  0  0  0  0
   11.9689  -17.1912   23.6871 C   0  0  0  0  0  0  0  0  0  0  0  0
   12.8965  -16.4905   23.2674 O   0  0  0  0  0  0  0  0  0  0  0  0
   10.0702  -17.4621   26.9722 C   0  0  0  0  0  0  0  0  0  0  0  0
   10.0634  -18.7107   27.5355 O   0  0  0  0  0  0  0  0  0  0  0  0
   11.1205  -17.8755   22.7862 O   0  0  0  0  0  0  0  0  0  0  0  0
    9.9207  -16.4659   27.7226 O   0  0  0  0  0  0  0  0  0  0  0  0
  2  1  1  1
  2  3  1  0
  4  2  1  0
  4  6  1  0
  4  5  1  6
  6  7  2  0
  8  9  1  0
  9 10  1  0
 10 12  1  0
 10 11  1  1
 12 14  1  0
 12 13  1  6
 13  6  1  0
 14 16  1  0
 14 15  2  0
 16 17  1  0
 17 21  1  0
 17 18  1  1
 19 18  1  0
 20 19  2  0
 21 24  2  0
 21 22  1  0
 23 19  1  0
M  END
$$$$
