STG.pdb
     RDKit          3D

 18 17  0  0  1  0  0  0  0  0999 V2000
    7.4371  -17.6786   14.4185 O   0  0  0  0  0  0  0  0  0  0  0  0
    8.0290  -17.2802   15.6158 C   0  0  0  0  0  0  0  0  0  0  0  0
    7.9587  -15.7741   15.7112 C   0  0  2  0  0  0  0  0  0  0  0  0
    8.3460  -15.1507   14.4765 N   0  0  0  0  0  0  0  0  0  0  0  0
    8.7763  -15.2352   16.8094 C   0  0  0  0  0  0  0  0  0  0  0  0
    9.9518  -14.7772   16.6104 O   0  0  0  0  0  0  0  0  0  0  0  0
    7.5992  -12.5093   19.1660 C   0  0  0  0  0  0  0  0  0  0  0  0
    8.0748  -13.6551   19.9990 C   0  0  1  0  0  0  0  0  0  0  0  0
    6.9623  -14.3439   20.5240 O   0  0  0  0  0  0  0  0  0  0  0  0
    8.9147  -14.6421   19.2460 C   0  0  2  0  0  0  0  0  0  0  0  0
    8.2295  -15.2307   18.1223 N   0  0  0  0  0  0  0  0  0  0  0  0
    9.2316  -15.7623   20.2005 C   0  0  0  0  0  0  0  0  0  0  0  0
    8.4776  -16.7601   20.1801 O   0  0  0  0  0  0  0  0  0  0  0  0
   10.3274  -15.7090   21.0882 N   0  0  0  0  0  0  0  0  0  0  0  0
   10.6140  -16.8223   21.9657 C   0  0  0  0  0  0  0  0  0  0  0  0
   11.8158  -16.5145   22.7582 C   0  0  0  0  0  0  0  0  0  0  0  0
   12.2595  -17.3897   23.7205 O   0  0  0  0  0  0  0  0  0  0  0  0
   12.4523  -15.4335   22.5561 O   0  0  0  0  0  0  0  0  0  0  0  0
  2  1  1  0
  2  3  1  0
  3  4  1  6
  5 11  1  0
  5  3  1  0
  6  5  2  0
  8  7  1  6
  8 10  1  0
  9  8  1  0
 10 11  1  6
 10 12  1  0
 12 13  2  0
 14 12  1  0
 14 15  1  0
 16 15  1  0
 16 17  1  0
 18 16  2  0
M  END
$$$$
