STG.pdb
     RDKit          3D

 18 17  0  0  1  0  0  0  0  0999 V2000
    7.9965  -19.3687   18.1334 O   0  0  0  0  0  0  0  0  0  0  0  0
    6.8758  -18.5482   18.2488 C   0  0  0  0  0  0  0  0  0  0  0  0
    7.1616  -17.2398   17.5496 C   0  0  2  0  0  0  0  0  0  0  0  0
    7.6254  -17.4519   16.2068 N   0  0  0  0  0  0  0  0  0  0  0  0
    8.1319  -16.4066   18.2770 C   0  0  0  0  0  0  0  0  0  0  0  0
    9.2737  -16.1178   17.7830 O   0  0  0  0  0  0  0  0  0  0  0  0
    7.4206  -12.9092   19.9385 C   0  0  0  0  0  0  0  0  0  0  0  0
    7.9288  -13.8918   20.9432 C   0  0  1  0  0  0  0  0  0  0  0  0
    6.8473  -14.3871   21.7001 O   0  0  0  0  0  0  0  0  0  0  0  0
    8.6414  -15.0626   20.3366 C   0  0  2  0  0  0  0  0  0  0  0  0
    7.7747  -15.9170   19.5636 N   0  0  0  0  0  0  0  0  0  0  0  0
    9.1678  -15.8913   21.4779 C   0  0  0  0  0  0  0  0  0  0  0  0
    8.3839  -16.7207   21.9900 O   0  0  0  0  0  0  0  0  0  0  0  0
   10.4854  -15.7541   21.9642 N   0  0  0  0  0  0  0  0  0  0  0  0
   10.9475  -16.5674   23.0671 C   0  0  0  0  0  0  0  0  0  0  0  0
   12.3339  -16.1949   23.3930 C   0  0  0  0  0  0  0  0  0  0  0  0
   12.9659  -16.7448   24.4826 O   0  0  0  0  0  0  0  0  0  0  0  0
   12.9566  -15.3595   22.6658 O   0  0  0  0  0  0  0  0  0  0  0  0
  2  1  1  0
  2  3  1  0
  3  4  1  6
  5 11  1  0
  5  3  1  0
  6  5  2  0
  8  7  1  6
  8 10  1  0
  9  8  1  0
 10 11  1  1
 10 12  1  0
 12 13  2  0
 14 12  1  0
 14 15  1  0
 16 15  1  0
 16 17  1  0
 18 16  2  0
M  END
$$$$
