STG.pdb
     RDKit          3D

 18 17  0  0  1  0  0  0  0  0999 V2000
    7.1685  -19.4227   27.3401 O   0  0  0  0  0  0  0  0  0  0  0  0
    7.8330  -19.0576   26.1706 C   0  0  0  0  0  0  0  0  0  0  0  0
    6.8109  -18.8647   25.0750 C   0  0  2  0  0  0  0  0  0  0  0  0
    6.1190  -20.0885   24.7804 N   0  0  0  0  0  0  0  0  0  0  0  0
    7.3977  -18.3243   23.8386 C   0  0  0  0  0  0  0  0  0  0  0  0
    7.6182  -19.0628   22.8203 O   0  0  0  0  0  0  0  0  0  0  0  0
    6.5710  -15.4399   21.4999 C   0  0  0  0  0  0  0  0  0  0  0  0
    7.9129  -15.1710   22.1000 C   0  0  1  0  0  0  0  0  0  0  0  0
    7.7929  -14.1634   23.0789 O   0  0  0  0  0  0  0  0  0  0  0  0
    8.5370  -16.3703   22.7469 C   0  0  2  0  0  0  0  0  0  0  0  0
    7.7229  -16.9406   23.7913 N   0  0  0  0  0  0  0  0  0  0  0  0
    9.8131  -15.9018   23.3938 C   0  0  0  0  0  0  0  0  0  0  0  0
    9.7334  -15.4655   24.5634 O   0  0  0  0  0  0  0  0  0  0  0  0
   11.0561  -15.9443   22.7270 N   0  0  0  0  0  0  0  0  0  0  0  0
   12.2715  -15.5763   23.4190 C   0  0  0  0  0  0  0  0  0  0  0  0
   13.3941  -15.5992   22.4669 C   0  0  0  0  0  0  0  0  0  0  0  0
   14.6611  -15.2564   22.8745 O   0  0  0  0  0  0  0  0  0  0  0  0
   13.1971  -15.9373   21.2580 O   0  0  0  0  0  0  0  0  0  0  0  0
  2  1  1  0
  2  3  1  0
  3  4  1  6
  5 11  1  0
  5  3  1  0
  6  5  2  0
  8  7  1  1
  8 10  1  0
  9  8  1  0
 10 11  1  1
 10 12  1  0
 12 13  2  0
 14 12  1  0
 14 15  1  0
 16 15  1  0
 16 17  1  0
 18 16  2  0
M  END
$$$$
