STG.pdb
     RDKit          3D

 18 17  0  0  1  0  0  0  0  0999 V2000
    8.2376  -17.6798   14.1501 O   0  0  0  0  0  0  0  0  0  0  0  0
    7.2573  -16.8614   14.7084 C   0  0  0  0  0  0  0  0  0  0  0  0
    7.7537  -15.4346   14.6934 C   0  0  2  0  0  0  0  0  0  0  0  0
    8.3993  -15.1159   13.4505 N   0  0  0  0  0  0  0  0  0  0  0  0
    8.6661  -15.1384   15.8091 C   0  0  0  0  0  0  0  0  0  0  0  0
    9.8777  -14.7863   15.6115 O   0  0  0  0  0  0  0  0  0  0  0  0
    7.4789  -12.8514   18.7906 C   0  0  0  0  0  0  0  0  0  0  0  0
    8.1095  -14.1038   19.3073 C   0  0  1  0  0  0  0  0  0  0  0  0
    7.1025  -14.9817   19.7580 O   0  0  0  0  0  0  0  0  0  0  0  0
    8.9326  -14.8312   18.2875 C   0  0  2  0  0  0  0  0  0  0  0  0
    8.1711  -15.2515   17.1376 N   0  0  0  0  0  0  0  0  0  0  0  0
    9.4458  -16.0805   18.9525 C   0  0  0  0  0  0  0  0  0  0  0  0
    8.8555  -17.1513   18.6888 O   0  0  0  0  0  0  0  0  0  0  0  0
   10.5442  -16.0661   19.8385 N   0  0  0  0  0  0  0  0  0  0  0  0
   10.9565  -17.2767   20.5137 C   0  0  0  0  0  0  0  0  0  0  0  0
   12.0391  -16.9568   21.4586 C   0  0  0  0  0  0  0  0  0  0  0  0
   12.5257  -17.9175   22.3126 O   0  0  0  0  0  0  0  0  0  0  0  0
   12.5317  -15.7860   21.4900 O   0  0  0  0  0  0  0  0  0  0  0  0
  2  1  1  0
  2  3  1  0
  3  4  1  6
  5 11  1  0
  5  3  1  0
  6  5  2  0
  8  7  1  6
  8 10  1  0
  9  8  1  0
 10 11  1  6
 10 12  1  0
 12 13  2  0
 14 12  1  0
 14 15  1  0
 16 15  1  0
 16 17  1  0
 18 16  2  0
M  END
$$$$
