STG.pdb
     RDKit          3D

 18 17  0  0  1  0  0  0  0  0999 V2000
    9.7602  -16.5015   14.5565 O   0  0  0  0  0  0  0  0  0  0  0  0
    9.9926  -15.8580   15.7708 C   0  0  0  0  0  0  0  0  0  0  0  0
    8.6969  -15.2445   16.2475 C   0  0  2  0  0  0  0  0  0  0  0  0
    8.1071  -14.4111   15.2371 N   0  0  0  0  0  0  0  0  0  0  0  0
    8.8571  -14.4704   17.4885 C   0  0  0  0  0  0  0  0  0  0  0  0
    8.9764  -13.1990   17.4772 O   0  0  0  0  0  0  0  0  0  0  0  0
    6.7579  -13.3682   19.9177 C   0  0  0  0  0  0  0  0  0  0  0  0
    7.6746  -14.2769   20.6708 C   0  0  1  0  0  0  0  0  0  0  0  0
    7.0554  -15.5328   20.8352 O   0  0  0  0  0  0  0  0  0  0  0  0
    8.9945  -14.4984   19.9961 C   0  0  2  0  0  0  0  0  0  0  0  0
    8.8777  -15.1708   18.7261 N   0  0  0  0  0  0  0  0  0  0  0  0
    9.7978  -15.3995   20.8957 C   0  0  0  0  0  0  0  0  0  0  0  0
    9.8499  -16.6114   20.5905 O   0  0  0  0  0  0  0  0  0  0  0  0
   10.4707  -14.9178   22.0389 N   0  0  0  0  0  0  0  0  0  0  0  0
   11.3939  -15.7677   22.7578 C   0  0  0  0  0  0  0  0  0  0  0  0
   10.7002  -16.3675   23.9093 C   0  0  0  0  0  0  0  0  0  0  0  0
   11.3975  -17.1026   24.8379 O   0  0  0  0  0  0  0  0  0  0  0  0
    9.4476  -16.2082   24.0518 O   0  0  0  0  0  0  0  0  0  0  0  0
  2  1  1  0
  2  3  1  0
  3  4  1  6
  5 11  1  0
  5  3  1  0
  6  5  2  0
  8  7  1  6
  8 10  1  0
  9  8  1  0
 10 11  1  6
 10 12  1  0
 12 13  2  0
 14 12  1  0
 14 15  1  0
 16 15  1  0
 16 17  1  0
 18 16  2  0
M  END
$$$$
