STG.pdb
     RDKit          3D

 18 17  0  0  1  0  0  0  0  0999 V2000
    8.2639  -18.9208   16.9816 O   0  0  0  0  0  0  0  0  0  0  0  0
    7.1083  -18.1488   16.8760 C   0  0  0  0  0  0  0  0  0  0  0  0
    7.5036  -16.7345   16.5210 C   0  0  2  0  0  0  0  0  0  0  0  0
    8.1433  -16.6744   15.2364 N   0  0  0  0  0  0  0  0  0  0  0  0
    8.3765  -16.1174   17.5321 C   0  0  0  0  0  0  0  0  0  0  0  0
    9.6182  -15.9132   17.3139 O   0  0  0  0  0  0  0  0  0  0  0  0
    7.1574  -12.8821   19.4443 C   0  0  0  0  0  0  0  0  0  0  0  0
    7.6802  -13.9035   20.4015 C   0  0  1  0  0  0  0  0  0  0  0  0
    6.5975  -14.5433   21.0388 O   0  0  0  0  0  0  0  0  0  0  0  0
    8.5250  -14.9601   19.7562 C   0  0  2  0  0  0  0  0  0  0  0  0
    7.8081  -15.7436   18.7810 N   0  0  0  0  0  0  0  0  0  0  0  0
    8.9510  -15.9047   20.8483 C   0  0  0  0  0  0  0  0  0  0  0  0
    8.1759  -16.8475   21.1220 O   0  0  0  0  0  0  0  0  0  0  0  0
   10.1682  -15.7509   21.5456 N   0  0  0  0  0  0  0  0  0  0  0  0
   10.5393  -16.6843   22.5861 C   0  0  0  0  0  0  0  0  0  0  0  0
   11.8069  -16.2488   23.1947 C   0  0  0  0  0  0  0  0  0  0  0  0
   12.3428  -16.9365   24.2572 O   0  0  0  0  0  0  0  0  0  0  0  0
   12.4153  -15.2304   22.7393 O   0  0  0  0  0  0  0  0  0  0  0  0
  2  1  1  0
  2  3  1  0
  3  4  1  6
  5 11  1  0
  5  3  1  0
  6  5  2  0
  8  7  1  6
  8 10  1  0
  9  8  1  0
 10 11  1  6
 10 12  1  0
 12 13  2  0
 14 12  1  0
 14 15  1  0
 16 15  1  0
 16 17  1  0
 18 16  2  0
M  END
$$$$
