STG.pdb
     RDKit          3D

 18 17  0  0  1  0  0  0  0  0999 V2000
    8.3132  -16.9075   15.3106 O   0  0  0  0  0  0  0  0  0  0  0  0
    9.0407  -16.3685   16.3701 C   0  0  0  0  0  0  0  0  0  0  0  0
    8.2538  -15.2229   16.9624 C   0  0  2  0  0  0  0  0  0  0  0  0
    8.0436  -14.1770   16.0006 N   0  0  0  0  0  0  0  0  0  0  0  0
    8.8861  -14.6612   18.1664 C   0  0  0  0  0  0  0  0  0  0  0  0
    9.6976  -13.6771   18.1027 O   0  0  0  0  0  0  0  0  0  0  0  0
    7.4306  -12.9250   21.0186 C   0  0  0  0  0  0  0  0  0  0  0  0
    8.0859  -14.1487   21.5719 C   0  0  1  0  0  0  0  0  0  0  0  0
    7.1066  -15.1336   21.8141 O   0  0  0  0  0  0  0  0  0  0  0  0
    9.1219  -14.7418   20.6655 C   0  0  2  0  0  0  0  0  0  0  0  0
    8.5756  -15.2401   19.4278 N   0  0  0  0  0  0  0  0  0  0  0  0
    9.7105  -15.9227   21.3905 C   0  0  0  0  0  0  0  0  0  0  0  0
    9.1590  -17.0319   21.2167 O   0  0  0  0  0  0  0  0  0  0  0  0
   10.8355  -15.8050   22.2343 N   0  0  0  0  0  0  0  0  0  0  0  0
   11.3270  -16.9528   22.9641 C   0  0  0  0  0  0  0  0  0  0  0  0
   12.4323  -16.5301   23.8397 C   0  0  0  0  0  0  0  0  0  0  0  0
   12.9759  -17.4061   24.7486 O   0  0  0  0  0  0  0  0  0  0  0  0
   12.8918  -15.3482   23.7598 O   0  0  0  0  0  0  0  0  0  0  0  0
  2  1  1  0
  2  3  1  0
  3  4  1  6
  5 11  1  0
  5  3  1  0
  6  5  2  0
  8  7  1  6
  8 10  1  0
  9  8  1  0
 10 11  1  6
 10 12  1  0
 12 13  2  0
 14 12  1  0
 14 15  1  0
 16 15  1  0
 16 17  1  0
 18 16  2  0
M  END
$$$$
