STG.pdb
     RDKit          3D

 18 17  0  0  1  0  0  0  0  0999 V2000
   -4.4680  -25.4596   25.9726 O   0  0  0  0  0  0  0  0  0  0  0  0
   -4.8280  -25.1836   27.2904 C   0  0  0  0  0  0  0  0  0  0  0  0
   -5.0171  -23.6919   27.4367 C   0  0  2  0  0  0  0  0  0  0  0  0
   -3.8359  -22.9720   27.0498 N   0  0  0  0  0  0  0  0  0  0  0  0
   -5.4052  -23.2990   28.8006 C   0  0  0  0  0  0  0  0  0  0  0  0
   -4.5631  -22.8033   29.6228 O   0  0  0  0  0  0  0  0  0  0  0  0
   -7.6939  -20.6865   30.0609 C   0  0  0  0  0  0  0  0  0  0  0  0
   -8.2536  -22.0093   30.4730 C   0  0  1  0  0  0  0  0  0  0  0  0
   -9.2717  -22.3859   29.5733 O   0  0  0  0  0  0  0  0  0  0  0  0
   -7.2380  -23.1111   30.5074 C   0  0  2  0  0  0  0  0  0  0  0  0
   -6.7579  -23.4823   29.1995 N   0  0  0  0  0  0  0  0  0  0  0  0
   -7.9270  -24.3211   31.0798 C   0  0  0  0  0  0  0  0  0  0  0  0
   -8.4332  -25.1271   30.2681 O   0  0  0  0  0  0  0  0  0  0  0  0
   -8.0095  -24.5547   32.4691 N   0  0  0  0  0  0  0  0  0  0  0  0
   -8.7286  -25.7019   32.9775 C   0  0  0  0  0  0  0  0  0  0  0  0
   -7.7752  -26.7939   33.2333 C   0  0  0  0  0  0  0  0  0  0  0  0
   -7.7327  -27.4090   34.4616 O   0  0  0  0  0  0  0  0  0  0  0  0
   -6.9829  -27.1755   32.3161 O   0  0  0  0  0  0  0  0  0  0  0  0
  2  1  1  0
  2  3  1  0
  3  4  1  1
  5 11  1  0
  5  3  1  0
  6  5  2  0
  8  7  1  6
  8 10  1  0
  9  8  1  0
 10 11  1  6
 10 12  1  0
 12 13  2  0
 14 12  1  0
 14 15  1  0
 16 15  1  0
 16 17  1  0
 18 16  2  0
M  END
$$$$
