STG.pdb
     RDKit          3D

 18 17  0  0  1  0  0  0  0  0999 V2000
    8.4635  -18.3985   14.9303 O   0  0  0  0  0  0  0  0  0  0  0  0
    8.3965  -17.9360   16.2434 C   0  0  0  0  0  0  0  0  0  0  0  0
    8.0262  -16.4715   16.2209 C   0  0  2  0  0  0  0  0  0  0  0  0
    8.1672  -15.9140   14.9046 N   0  0  0  0  0  0  0  0  0  0  0  0
    8.8084  -15.6726   17.1774 C   0  0  0  0  0  0  0  0  0  0  0  0
    9.9074  -15.1131   16.8456 O   0  0  0  0  0  0  0  0  0  0  0  0
    7.7295  -12.6724   19.2620 C   0  0  0  0  0  0  0  0  0  0  0  0
    8.1969  -13.7472   20.1890 C   0  0  1  0  0  0  0  0  0  0  0  0
    7.0795  -14.3808   20.7701 O   0  0  0  0  0  0  0  0  0  0  0  0
    9.0291  -14.8006   19.5223 C   0  0  2  0  0  0  0  0  0  0  0  0
    8.3146  -15.5285   18.5033 N   0  0  0  0  0  0  0  0  0  0  0  0
    9.4071  -15.7957   20.5869 C   0  0  0  0  0  0  0  0  0  0  0  0
    8.6195  -16.7472   20.7842 O   0  0  0  0  0  0  0  0  0  0  0  0
   10.5941  -15.6786   21.3410 N   0  0  0  0  0  0  0  0  0  0  0  0
   10.9027  -16.6409   22.3755 C   0  0  0  0  0  0  0  0  0  0  0  0
   12.1519  -16.2443   23.0457 C   0  0  0  0  0  0  0  0  0  0  0  0
   12.5886  -16.9174   24.1616 O   0  0  0  0  0  0  0  0  0  0  0  0
   12.8362  -15.2734   22.5946 O   0  0  0  0  0  0  0  0  0  0  0  0
  2  1  1  0
  2  3  1  0
  3  4  1  6
  5 11  1  0
  5  3  1  0
  6  5  2  0
  8  7  1  6
  8 10  1  0
  9  8  1  0
 10 11  1  6
 10 12  1  0
 12 13  2  0
 14 12  1  0
 14 15  1  0
 16 15  1  0
 16 17  1  0
 18 16  2  0
M  END
$$$$
