STG.pdb
     RDKit          3D

 18 17  0  0  1  0  0  0  0  0999 V2000
   11.4592  -18.6472   23.1236 O   0  0  0  0  0  0  0  0  0  0  0  0
   11.6149  -18.5933   21.7396 C   0  0  0  0  0  0  0  0  0  0  0  0
   11.9331  -19.9815   21.2355 C   0  0  2  0  0  0  0  0  0  0  0  0
   10.9903  -20.9477   21.7263 N   0  0  0  0  0  0  0  0  0  0  0  0
   13.2980  -20.4117   21.5775 C   0  0  0  0  0  0  0  0  0  0  0  0
   13.7106  -21.5956   21.3345 O   0  0  0  0  0  0  0  0  0  0  0  0
   16.3698  -18.4731   20.4374 C   0  0  0  0  0  0  0  0  0  0  0  0
   16.3895  -19.7655   21.1873 C   0  0  1  0  0  0  0  0  0  0  0  0
   17.7167  -20.0758   21.5479 O   0  0  0  0  0  0  0  0  0  0  0  0
   15.5633  -19.7513   22.4378 C   0  0  2  0  0  0  0  0  0  0  0  0
   14.1697  -19.4727   22.1949 N   0  0  0  0  0  0  0  0  0  0  0  0
   16.0900  -18.6317   23.2953 C   0  0  0  0  0  0  0  0  0  0  0  0
   15.7587  -17.4673   22.9806 O   0  0  0  0  0  0  0  0  0  0  0  0
   16.9230  -18.8641   24.4106 N   0  0  0  0  0  0  0  0  0  0  0  0
   17.1592  -17.8166   25.3793 C   0  0  0  0  0  0  0  0  0  0  0  0
   18.4073  -17.1153   25.0363 C   0  0  0  0  0  0  0  0  0  0  0  0
   18.8569  -16.0729   25.8110 O   0  0  0  0  0  0  0  0  0  0  0  0
   19.0786  -17.4713   24.0179 O   0  0  0  0  0  0  0  0  0  0  0  0
  2  1  1  0
  2  3  1  0
  3  4  1  1
  5 11  1  0
  5  3  1  0
  6  5  2  0
  8  7  1  1
  8 10  1  0
  9  8  1  0
 10 11  1  6
 10 12  1  0
 12 13  2  0
 14 12  1  0
 14 15  1  0
 16 15  1  0
 16 17  1  0
 18 16  2  0
M  END
$$$$
