STG.pdb
     RDKit          3D

 18 17  0  0  1  0  0  0  0  0999 V2000
    8.4674  -17.9024   14.2391 O   0  0  0  0  0  0  0  0  0  0  0  0
    8.2686  -17.4004   15.5241 C   0  0  0  0  0  0  0  0  0  0  0  0
    8.2724  -15.8911   15.4584 C   0  0  2  0  0  0  0  0  0  0  0  0
    8.7726  -15.4212   14.1966 N   0  0  0  0  0  0  0  0  0  0  0  0
    9.0437  -15.2765   16.5504 C   0  0  0  0  0  0  0  0  0  0  0  0
   10.1934  -14.7571   16.3520 O   0  0  0  0  0  0  0  0  0  0  0  0
    7.5549  -12.6322   18.9156 C   0  0  0  0  0  0  0  0  0  0  0  0
    8.1695  -13.7194   19.7361 C   0  0  1  0  0  0  0  0  0  0  0  0
    7.1503  -14.5351   20.2687 O   0  0  0  0  0  0  0  0  0  0  0  0
    9.1094  -14.5986   18.9679 C   0  0  2  0  0  0  0  0  0  0  0  0
    8.4807  -15.2681   17.8564 N   0  0  0  0  0  0  0  0  0  0  0  0
    9.5769  -15.6703   19.9162 C   0  0  0  0  0  0  0  0  0  0  0  0
    8.8904  -16.7139   19.9813 O   0  0  0  0  0  0  0  0  0  0  0  0
   10.7367  -15.5238   20.7067 N   0  0  0  0  0  0  0  0  0  0  0  0
   11.1595  -16.5871   21.5910 C   0  0  0  0  0  0  0  0  0  0  0  0
   12.4429  -16.2176   22.2101 C   0  0  0  0  0  0  0  0  0  0  0  0
   13.0258  -17.0357   23.1482 O   0  0  0  0  0  0  0  0  0  0  0  0
   13.0215  -15.1357   21.8793 O   0  0  0  0  0  0  0  0  0  0  0  0
  2  1  1  0
  2  3  1  0
  3  4  1  6
  5 11  1  0
  5  3  1  0
  6  5  2  0
  8  7  1  6
  8 10  1  0
  9  8  1  0
 10 11  1  6
 10 12  1  0
 12 13  2  0
 14 12  1  0
 14 15  1  0
 16 15  1  0
 16 17  1  0
 18 16  2  0
M  END
$$$$
