STG.pdb
     RDKit          3D

 18 17  0  0  1  0  0  0  0  0999 V2000
   -0.2036  -26.5053   31.4259 O   0  0  0  0  0  0  0  0  0  0  0  0
   -1.1936  -25.6720   30.9081 C   0  0  0  0  0  0  0  0  0  0  0  0
   -1.8135  -26.3474   29.7073 C   0  0  2  0  0  0  0  0  0  0  0  0
   -0.8352  -26.6106   28.6891 N   0  0  0  0  0  0  0  0  0  0  0  0
   -2.9246  -25.5742   29.1306 C   0  0  0  0  0  0  0  0  0  0  0  0
   -2.7495  -24.7741   28.1507 O   0  0  0  0  0  0  0  0  0  0  0  0
   -6.3352  -26.9877   27.8714 C   0  0  0  0  0  0  0  0  0  0  0  0
   -6.5507  -25.9751   28.9489 C   0  0  1  0  0  0  0  0  0  0  0  0
   -6.8091  -26.6371   30.1666 O   0  0  0  0  0  0  0  0  0  0  0  0
   -5.3827  -25.0599   29.1605 C   0  0  2  0  0  0  0  0  0  0  0  0
   -4.2225  -25.7325   29.6900 N   0  0  0  0  0  0  0  0  0  0  0  0
   -5.8058  -24.0439   30.1877 C   0  0  0  0  0  0  0  0  0  0  0  0
   -5.2724  -24.1173   31.3167 O   0  0  0  0  0  0  0  0  0  0  0  0
   -6.7615  -23.0434   29.9093 N   0  0  0  0  0  0  0  0  0  0  0  0
   -7.1288  -22.0791   30.9226 C   0  0  0  0  0  0  0  0  0  0  0  0
   -8.0196  -21.0698   30.3271 C   0  0  0  0  0  0  0  0  0  0  0  0
   -8.6456  -20.1377   31.1197 O   0  0  0  0  0  0  0  0  0  0  0  0
   -8.2156  -21.0545   29.0717 O   0  0  0  0  0  0  0  0  0  0  0  0
  2  1  1  0
  2  3  1  0
  3  4  1  6
  5 11  1  0
  5  3  1  0
  6  5  2  0
  8  7  1  6
  8 10  1  0
  9  8  1  0
 10 11  1  1
 10 12  1  0
 12 13  2  0
 14 12  1  0
 14 15  1  0
 16 15  1  0
 16 17  1  0
 18 16  2  0
M  END
$$$$
