STG.pdb
     RDKit          3D

 18 17  0  0  1  0  0  0  0  0999 V2000
    8.3834  -18.9998   17.7764 O   0  0  0  0  0  0  0  0  0  0  0  0
    7.1584  -18.3365   17.8201 C   0  0  0  0  0  0  0  0  0  0  0  0
    7.3476  -16.9378   17.2813 C   0  0  2  0  0  0  0  0  0  0  0  0
    7.8100  -16.9565   15.9215 N   0  0  0  0  0  0  0  0  0  0  0  0
    8.2674  -16.1326   18.1002 C   0  0  0  0  0  0  0  0  0  0  0  0
    9.4181  -15.7822   17.6712 O   0  0  0  0  0  0  0  0  0  0  0  0
    7.4568  -12.7892   19.9452 C   0  0  0  0  0  0  0  0  0  0  0  0
    7.9460  -13.8125   20.9181 C   0  0  1  0  0  0  0  0  0  0  0  0
    6.8493  -14.3451   21.6262 O   0  0  0  0  0  0  0  0  0  0  0  0
    8.6794  -14.9525   20.2786 C   0  0  2  0  0  0  0  0  0  0  0  0
    7.8498  -15.7416   19.4023 N   0  0  0  0  0  0  0  0  0  0  0  0
    9.1278  -15.8613   21.3918 C   0  0  0  0  0  0  0  0  0  0  0  0
    8.3258  -16.7459   21.7647 O   0  0  0  0  0  0  0  0  0  0  0  0
   10.3943  -15.7376   22.0021 N   0  0  0  0  0  0  0  0  0  0  0  0
   10.8034  -16.6639   23.0346 C   0  0  0  0  0  0  0  0  0  0  0  0
   12.1079  -16.2425   23.5709 C   0  0  0  0  0  0  0  0  0  0  0  0
   12.6887  -16.9282   24.6109 O   0  0  0  0  0  0  0  0  0  0  0  0
   12.7068  -15.2383   23.0734 O   0  0  0  0  0  0  0  0  0  0  0  0
  2  1  1  0
  2  3  1  0
  3  4  1  6
  5 11  1  0
  5  3  1  0
  6  5  2  0
  8  7  1  6
  8 10  1  0
  9  8  1  0
 10 11  1  6
 10 12  1  0
 12 13  2  0
 14 12  1  0
 14 15  1  0
 16 15  1  0
 16 17  1  0
 18 16  2  0
M  END
$$$$
