STG.pdb
     RDKit          3D

 18 17  0  0  1  0  0  0  0  0999 V2000
   -2.2682  -28.0142   32.3607 O   0  0  0  0  0  0  0  0  0  0  0  0
   -2.6186  -26.7704   31.8385 C   0  0  0  0  0  0  0  0  0  0  0  0
   -2.3011  -26.7603   30.3616 C   0  0  2  0  0  0  0  0  0  0  0  0
   -0.8949  -26.9332   30.1252 N   0  0  0  0  0  0  0  0  0  0  0  0
   -2.7638  -25.5363   29.6888 C   0  0  0  0  0  0  0  0  0  0  0  0
   -2.0045  -24.5193   29.5465 O   0  0  0  0  0  0  0  0  0  0  0  0
   -5.8833  -23.4489   26.5496 C   0  0  0  0  0  0  0  0  0  0  0  0
   -5.3711  -24.6540   27.2695 C   0  0  1  0  0  0  0  0  0  0  0  0
   -4.4812  -25.3556   26.4307 O   0  0  0  0  0  0  0  0  0  0  0  0
   -4.6492  -24.3354   28.5438 C   0  0  2  0  0  0  0  0  0  0  0  0
   -4.0947  -25.4995   29.1890 N   0  0  0  0  0  0  0  0  0  0  0  0
   -5.6679  -23.7556   29.4885 C   0  0  0  0  0  0  0  0  0  0  0  0
   -6.4520  -24.5563   30.0441 O   0  0  0  0  0  0  0  0  0  0  0  0
   -5.7517  -22.3713   29.7498 N   0  0  0  0  0  0  0  0  0  0  0  0
   -6.7759  -21.8525   30.6291 C   0  0  0  0  0  0  0  0  0  0  0  0
   -8.0684  -21.8665   29.9246 C   0  0  0  0  0  0  0  0  0  0  0  0
   -8.1138  -21.8736   28.5510 O   0  0  0  0  0  0  0  0  0  0  0  0
   -9.1538  -21.8720   30.5852 O   0  0  0  0  0  0  0  0  0  0  0  0
  2  1  1  0
  2  3  1  0
  3  4  1  1
  5 11  1  0
  5  3  1  0
  6  5  2  0
  8  7  1  6
  8 10  1  0
  9  8  1  0
 10 11  1  1
 10 12  1  0
 12 13  2  0
 14 12  1  0
 14 15  1  0
 16 15  1  0
 16 17  1  0
 18 16  2  0
M  END
$$$$
