STG.pdb
     RDKit          3D

 18 17  0  0  1  0  0  0  0  0999 V2000
    0.1056  -22.6081   23.3613 O   0  0  0  0  0  0  0  0  0  0  0  0
   -0.6334  -22.3988   22.1982 C   0  0  0  0  0  0  0  0  0  0  0  0
   -0.9065  -20.9194   22.0597 C   0  0  2  0  0  0  0  0  0  0  0  0
    0.3109  -20.1720   21.9102 N   0  0  0  0  0  0  0  0  0  0  0  0
   -1.6793  -20.3759   23.1877 C   0  0  0  0  0  0  0  0  0  0  0  0
   -1.3615  -19.2753   23.7521 O   0  0  0  0  0  0  0  0  0  0  0  0
   -4.1712  -18.5084   23.2845 C   0  0  0  0  0  0  0  0  0  0  0  0
   -4.7542  -19.6607   24.0364 C   0  0  1  0  0  0  0  0  0  0  0  0
   -5.5667  -20.4202   23.1699 O   0  0  0  0  0  0  0  0  0  0  0  0
   -3.7271  -20.5783   24.6277 C   0  0  2  0  0  0  0  0  0  0  0  0
   -2.8079  -21.1070   23.6507 N   0  0  0  0  0  0  0  0  0  0  0  0
   -4.4724  -21.7513   25.2065 C   0  0  0  0  0  0  0  0  0  0  0  0
   -4.6688  -22.7306   24.4536 O   0  0  0  0  0  0  0  0  0  0  0  0
   -4.9380  -21.7656   26.5386 N   0  0  0  0  0  0  0  0  0  0  0  0
   -5.5388  -22.9591   27.0918 C   0  0  0  0  0  0  0  0  0  0  0  0
   -5.9261  -22.7010   28.4884 C   0  0  0  0  0  0  0  0  0  0  0  0
   -6.6059  -23.6523   29.2106 O   0  0  0  0  0  0  0  0  0  0  0  0
   -5.6329  -21.5926   29.0361 O   0  0  0  0  0  0  0  0  0  0  0  0
  2  1  1  0
  2  3  1  0
  3  4  1  1
  5 11  1  0
  5  3  1  0
  6  5  2  0
  8  7  1  6
  8 10  1  0
  9  8  1  0
 10 11  1  6
 10 12  1  0
 12 13  2  0
 14 12  1  0
 14 15  1  0
 16 15  1  0
 16 17  1  0
 18 16  2  0
M  END
$$$$
