RAW.pdb
     RDKit          3D

 31 32  0  0  1  0  0  0  0  0999 V2000
   30.9234  -26.0515  -15.7333 N   0  0  0  0  0  0  0  0  0  0  0  0
   30.8293  -25.8017  -17.1498 C   0  0  0  0  0  0  0  0  0  0  0  0
   30.5351  -26.7513  -17.9601 N   0  0  0  0  0  0  0  0  0  0  0  0
   31.0611  -24.5019  -17.6728 N   0  0  0  0  0  0  0  0  0  0  0  0
   30.8672  -23.2925  -16.9067 C   0  0  0  0  0  0  0  0  0  0  0  0
   29.3776  -22.9587  -16.9460 C   0  0  0  0  0  0  0  0  0  0  0  0
   29.1149  -21.6573  -16.1929 C   0  0  0  0  0  0  0  0  0  0  0  0
   28.3109  -22.0118  -14.9634 C   0  0  2  0  0  0  0  0  0  0  0  0
   27.6166  -23.2274  -15.1881 N   0  0  0  0  0  0  0  0  0  0  0  0
   27.4685  -20.8978  -14.5006 C   0  0  0  0  0  0  0  0  0  0  0  0
   27.2815  -19.9155  -15.2432 O   0  0  0  0  0  0  0  0  0  0  0  0
   30.5545  -26.5882  -18.9766 C   0  0  0  0  0  0  0  0  0  0  0  0
   24.6644  -19.8096  -13.5853 C   0  0  2  0  0  0  0  0  0  0  0  0
   25.9738  -19.8268  -12.7822 N   0  0  0  0  0  0  0  0  0  0  0  0
   26.8348  -20.8883  -13.2036 C   0  0  0  0  0  0  0  0  0  0  0  0
   25.5624  -19.9286  -11.3575 O   0  0  0  0  0  0  0  0  0  0  0  0
   24.8493  -19.0475  -10.7888 N   0  0  0  0  0  0  0  0  0  0  0  0
   25.9427  -21.0245  -10.5383 C   0  0  2  0  0  0  0  0  0  0  0  0
   25.6076  -21.0941   -9.0995 C   0  0  0  0  0  0  0  0  0  0  0  0
   26.2280  -19.8492   -8.5180 C   0  0  0  0  0  0  0  0  0  0  0  0
   27.6051  -19.9447   -8.0655 C   0  0  0  0  0  0  0  0  0  0  0  0
   28.6747  -20.3901   -8.8168 N   0  0  0  0  0  0  0  0  0  0  0  0
   29.7671  -20.3709   -8.0365 C   0  0  0  0  0  0  0  0  0  0  0  0
   29.4489  -19.9275   -6.8001 C   0  0  0  0  0  0  0  0  0  0  0  0
   30.2286  -19.7241   -5.6802 C   0  0  0  0  0  0  0  0  0  0  0  0
   29.6429  -19.2359   -4.5362 C   0  0  0  0  0  0  0  0  0  0  0  0
   28.3030  -18.9489   -4.4886 C   0  0  0  0  0  0  0  0  0  0  0  0
   27.5595  -19.1640   -5.6188 C   0  0  0  0  0  0  0  0  0  0  0  0
   28.1061  -19.6583   -6.8042 C   0  0  0  0  0  0  0  0  0  0  0  0
   24.1712  -21.1280   -8.8537 O   0  0  0  0  0  0  0  0  0  0  0  0
   23.3439  -21.0352   -9.7876 O   0  0  0  0  0  0  0  0  0  0  0  0
  1  2  1  0
  2  4  1  0
  2  3  2  0
  4  5  1  0
  5  6  1  0
  7  6  1  0
  7  8  1  0
  8 10  1  0
  8  9  1  6
 10 11  2  0
 13 12  1  6
 14 13  1  0
 14 10  1  0
 15 17  1  0
 15 13  1  0
 16 15  2  0
 18 19  1  6
 18 17  1  0
 19 20  1  0
 20 28  1  0
 20 21  2  0
 21 22  1  0
 23 22  1  0
 23 24  2  0
 25 24  1  0
 26 25  2  0
 27 26  1  0
 27 28  2  0
 28 23  1  0
 29 18  1  0
 29 31  1  0
 30 29  2  0
M  END
$$$$
