RAW.pdb
     RDKit          3D

 31 32  0  0  1  0  0  0  0  0999 V2000
   24.0000  -23.9609  -18.3548 N   0  0  0  0  0  0  0  0  0  0  0  0
   24.1459  -25.3443  -17.9770 C   0  0  0  0  0  0  0  0  0  0  0  0
   23.7293  -26.2779  -18.7515 N   0  0  0  0  0  0  0  0  0  0  0  0
   24.7519  -25.6976  -16.7423 N   0  0  0  0  0  0  0  0  0  0  0  0
   25.3772  -24.7377  -15.8623 C   0  0  0  0  0  0  0  0  0  0  0  0
   26.6674  -24.2724  -16.5339 C   0  0  0  0  0  0  0  0  0  0  0  0
   27.3456  -23.2060  -15.6779 C   0  0  0  0  0  0  0  0  0  0  0  0
   26.4786  -21.9699  -15.7414 C   0  0  2  0  0  0  0  0  0  0  0  0
   26.8499  -21.1904  -16.8661 N   0  0  0  0  0  0  0  0  0  0  0  0
   26.4491  -21.2363  -14.4663 C   0  0  0  0  0  0  0  0  0  0  0  0
   27.4630  -21.2146  -13.7431 O   0  0  0  0  0  0  0  0  0  0  0  0
   23.7660  -27.2598  -18.4436 C   0  0  0  0  0  0  0  0  0  0  0  0
   23.9822  -19.0206  -12.5661 C   0  0  1  0  0  0  0  0  0  0  0  0
   25.2135  -19.9283  -12.7066 N   0  0  0  0  0  0  0  0  0  0  0  0
   25.2805  -20.5257  -14.0044 C   0  0  0  0  0  0  0  0  0  0  0  0
   25.1023  -20.9189  -11.6040 O   0  0  0  0  0  0  0  0  0  0  0  0
   24.2751  -21.8797  -11.6310 N   0  0  0  0  0  0  0  0  0  0  0  0
   25.9199  -20.8530  -10.4447 C   0  0  2  0  0  0  0  0  0  0  0  0
   25.8189  -21.8370   -9.3452 C   0  0  0  0  0  0  0  0  0  0  0  0
   27.0900  -21.6398   -8.5589 C   0  0  0  0  0  0  0  0  0  0  0  0
   27.1766  -20.4523   -7.7267 C   0  0  0  0  0  0  0  0  0  0  0  0
   26.4374  -19.2968   -7.8859 N   0  0  0  0  0  0  0  0  0  0  0  0
   26.8339  -18.4180   -6.9516 C   0  0  0  0  0  0  0  0  0  0  0  0
   27.8070  -18.9593   -6.1858 C   0  0  0  0  0  0  0  0  0  0  0  0
   28.5016  -18.4510   -5.1074 C   0  0  0  0  0  0  0  0  0  0  0  0
   29.4431  -19.2374   -4.4866 C   0  0  0  0  0  0  0  0  0  0  0  0
   29.7031  -20.5124   -4.9184 C   0  0  0  0  0  0  0  0  0  0  0  0
   28.9953  -20.9838   -5.9923 C   0  0  0  0  0  0  0  0  0  0  0  0
   28.0302  -20.2256   -6.6571 C   0  0  0  0  0  0  0  0  0  0  0  0
   24.6454  -21.6296   -8.5056 O   0  0  0  0  0  0  0  0  0  0  0  0
   24.2727  -22.4888   -7.6762 O   0  0  0  0  0  0  0  0  0  0  0  0
  1  2  1  0
  2  4  1  0
  2  3  2  0
  4  5  1  0
  5  6  1  0
  7  6  1  0
  7  8  1  0
  8 10  1  0
  8  9  1  6
 10 11  2  0
 13 12  1  6
 14 13  1  0
 14 10  1  0
 15 17  1  0
 15 13  1  0
 16 15  2  0
 18 19  1  1
 18 17  1  0
 19 20  1  0
 20 28  1  0
 20 21  2  0
 21 22  1  0
 23 22  1  0
 23 24  2  0
 25 24  1  0
 26 25  2  0
 27 26  1  0
 27 28  2  0
 28 23  1  0
 29 18  1  0
 29 31  1  0
 30 29  2  0
M  END
$$$$
