RAW.pdb
     RDKit          3D

 31 32  0  0  1  0  0  0  0  0999 V2000
   28.9828  -27.6790  -16.9585 N   0  0  0  0  0  0  0  0  0  0  0  0
   28.6332  -26.8927  -18.1150 C   0  0  0  0  0  0  0  0  0  0  0  0
   27.8249  -27.3556  -18.9966 N   0  0  0  0  0  0  0  0  0  0  0  0
   29.1774  -25.5941  -18.2990 N   0  0  0  0  0  0  0  0  0  0  0  0
   29.9992  -24.9314  -17.3128 C   0  0  0  0  0  0  0  0  0  0  0  0
   29.1021  -24.5840  -16.1269 C   0  0  0  0  0  0  0  0  0  0  0  0
   29.5849  -23.2947  -15.4678 C   0  0  0  0  0  0  0  0  0  0  0  0
   28.7691  -22.1656  -16.0536 C   0  0  2  0  0  0  0  0  0  0  0  0
   29.5149  -21.5255  -17.0756 N   0  0  0  0  0  0  0  0  0  0  0  0
   28.2358  -21.2618  -15.0223 C   0  0  0  0  0  0  0  0  0  0  0  0
   29.0092  -20.5059  -14.4042 O   0  0  0  0  0  0  0  0  0  0  0  0
   27.5941  -26.7970  -19.8303 C   0  0  0  0  0  0  0  0  0  0  0  0
   24.9767  -19.8145  -13.8880 C   0  0  1  0  0  0  0  0  0  0  0  0
   26.3425  -20.4461  -13.5786 N   0  0  0  0  0  0  0  0  0  0  0  0
   26.8329  -21.2062  -14.6866 C   0  0  0  0  0  0  0  0  0  0  0  0
   26.1341  -21.2569  -12.3505 O   0  0  0  0  0  0  0  0  0  0  0  0
   25.8567  -22.4938  -12.3886 N   0  0  0  0  0  0  0  0  0  0  0  0
   26.2337  -20.6960  -11.0496 C   0  0  1  0  0  0  0  0  0  0  0  0
   25.9239  -21.4677   -9.8266 C   0  0  0  0  0  0  0  0  0  0  0  0
   27.1649  -21.3297   -8.9819 C   0  0  0  0  0  0  0  0  0  0  0  0
   27.2041  -20.2269   -8.0372 C   0  0  0  0  0  0  0  0  0  0  0  0
   26.5443  -19.0214   -8.1728 N   0  0  0  0  0  0  0  0  0  0  0  0
   26.8638  -18.2523   -7.1198 C   0  0  0  0  0  0  0  0  0  0  0  0
   27.7098  -18.9138   -6.2992 C   0  0  0  0  0  0  0  0  0  0  0  0
   28.2900  -18.5430   -5.1036 C   0  0  0  0  0  0  0  0  0  0  0  0
   29.1110  -19.4336   -4.4531 C   0  0  0  0  0  0  0  0  0  0  0  0
   29.3625  -20.6785   -4.9695 C   0  0  0  0  0  0  0  0  0  0  0  0
   28.7703  -21.0123   -6.1588 C   0  0  0  0  0  0  0  0  0  0  0  0
   27.9300  -20.1445   -6.8581 C   0  0  0  0  0  0  0  0  0  0  0  0
   24.7512  -20.9649   -9.1216 O   0  0  0  0  0  0  0  0  0  0  0  0
   24.2696  -21.5681   -8.1370 O   0  0  0  0  0  0  0  0  0  0  0  0
  1  2  1  0
  2  4  1  0
  2  3  2  0
  4  5  1  0
  5  6  1  0
  7  6  1  0
  7  8  1  0
  8 10  1  0
  8  9  1  6
 10 11  2  0
 13 12  1  6
 14 13  1  0
 14 10  1  0
 15 17  1  0
 15 13  1  0
 16 15  2  0
 18 19  1  1
 18 17  1  0
 19 20  1  0
 20 28  1  0
 20 21  2  0
 21 22  1  0
 23 22  1  0
 23 24  2  0
 25 24  1  0
 26 25  2  0
 27 26  1  0
 27 28  2  0
 28 23  1  0
 29 18  1  0
 29 31  1  0
 30 29  2  0
M  END
$$$$
