RAW.pdb
     RDKit          3D

 31 32  0  0  1  0  0  0  0  0999 V2000
   18.5441  -19.3045  -13.9778 N   0  0  0  0  0  0  0  0  0  0  0  0
   18.3328  -20.7112  -14.2107 C   0  0  0  0  0  0  0  0  0  0  0  0
   17.3674  -21.1098  -14.9551 N   0  0  0  0  0  0  0  0  0  0  0  0
   19.1877  -21.6793  -13.6205 N   0  0  0  0  0  0  0  0  0  0  0  0
   20.5142  -21.3756  -13.1355 C   0  0  0  0  0  0  0  0  0  0  0  0
   21.3971  -21.1071  -14.3522 C   0  0  0  0  0  0  0  0  0  0  0  0
   22.8533  -20.9626  -13.9181 C   0  0  0  0  0  0  0  0  0  0  0  0
   23.6478  -21.9960  -14.6826 C   0  0  2  0  0  0  0  0  0  0  0  0
   23.5545  -23.2467  -14.0215 N   0  0  0  0  0  0  0  0  0  0  0  0
   25.0209  -21.5519  -14.9695 C   0  0  0  0  0  0  0  0  0  0  0  0
   25.6880  -20.9936  -14.0780 O   0  0  0  0  0  0  0  0  0  0  0  0
   17.1997  -22.1169  -15.0890 C   0  0  0  0  0  0  0  0  0  0  0  0
   27.4191  -21.6438  -17.9503 C   0  0  1  0  0  0  0  0  0  0  0  0
   26.9179  -21.1681  -16.5783 N   0  0  0  0  0  0  0  0  0  0  0  0
   25.6451  -21.7365  -16.2580 C   0  0  0  0  0  0  0  0  0  0  0  0
   26.9007  -19.6840  -16.6564 O   0  0  0  0  0  0  0  0  0  0  0  0
   26.2587  -18.9649  -15.8324 N   0  0  0  0  0  0  0  0  0  0  0  0
   27.6061  -18.9727  -17.6631 C   0  0  1  0  0  0  0  0  0  0  0  0
   27.5527  -17.4993  -17.7794 C   0  0  0  0  0  0  0  0  0  0  0  0
   28.1348  -17.0076  -16.4786 C   0  0  0  0  0  0  0  0  0  0  0  0
   28.2622  -15.5702  -16.3113 C   0  0  0  0  0  0  0  0  0  0  0  0
   29.3796  -14.8165  -16.6115 N   0  0  0  0  0  0  0  0  0  0  0  0
   29.1222  -13.5415  -16.2791 C   0  0  0  0  0  0  0  0  0  0  0  0
   27.8740  -13.4349  -15.7721 C   0  0  0  0  0  0  0  0  0  0  0  0
   27.1702  -12.3396  -15.3153 C   0  0  0  0  0  0  0  0  0  0  0  0
   25.8832  -12.5116  -14.8634 C   0  0  0  0  0  0  0  0  0  0  0  0
   25.2892  -13.7473  -14.8583 C   0  0  0  0  0  0  0  0  0  0  0  0
   26.0179  -14.8122  -15.3180 C   0  0  0  0  0  0  0  0  0  0  0  0
   27.3271  -14.6904  -15.7865 C   0  0  0  0  0  0  0  0  0  0  0  0
   28.3101  -16.9933  -18.9174 O   0  0  0  0  0  0  0  0  0  0  0  0
   29.3253  -17.5863  -19.3451 O   0  0  0  0  0  0  0  0  0  0  0  0
  1  2  1  0
  2  4  1  0
  2  3  2  0
  4  5  1  0
  5  6  1  0
  7  6  1  0
  7  8  1  0
  8 10  1  0
  8  9  1  1
 10 11  2  0
 13 12  1  1
 14 13  1  0
 14 10  1  0
 15 17  1  0
 15 13  1  0
 16 15  2  0
 18 19  1  6
 18 17  1  0
 19 20  1  0
 20 28  1  0
 20 21  2  0
 21 22  1  0
 23 22  1  0
 23 24  2  0
 25 24  1  0
 26 25  2  0
 27 26  1  0
 27 28  2  0
 28 23  1  0
 29 18  1  0
 29 31  1  0
 30 29  2  0
M  END
$$$$
