RAW.pdb
     RDKit          3D

 31 32  0  0  1  0  0  0  0  0999 V2000
   18.4117  -23.7428  -13.0261 N   0  0  0  0  0  0  0  0  0  0  0  0
   18.4391  -23.0938  -14.3128 C   0  0  0  0  0  0  0  0  0  0  0  0
   17.5253  -22.2547  -14.6382 N   0  0  0  0  0  0  0  0  0  0  0  0
   19.4762  -23.3720  -15.2421 N   0  0  0  0  0  0  0  0  0  0  0  0
   20.6418  -24.1613  -14.9171 C   0  0  0  0  0  0  0  0  0  0  0  0
   21.3503  -23.4745  -13.7517 C   0  0  0  0  0  0  0  0  0  0  0  0
   22.6423  -24.2154  -13.4172 C   0  0  0  0  0  0  0  0  0  0  0  0
   23.3139  -24.5486  -14.7293 C   0  0  2  0  0  0  0  0  0  0  0  0
   23.4388  -25.9556  -14.8514 N   0  0  0  0  0  0  0  0  0  0  0  0
   24.5647  -23.7996  -14.9280 C   0  0  0  0  0  0  0  0  0  0  0  0
   25.3231  -23.5971  -13.9609 O   0  0  0  0  0  0  0  0  0  0  0  0
   17.5622  -21.7782  -15.5502 C   0  0  0  0  0  0  0  0  0  0  0  0
   26.6084  -22.4395  -17.8297 C   0  0  1  0  0  0  0  0  0  0  0  0
   26.1122  -22.4420  -16.3759 N   0  0  0  0  0  0  0  0  0  0  0  0
   24.9642  -23.2797  -16.2141 C   0  0  0  0  0  0  0  0  0  0  0  0
   25.8563  -21.0163  -16.0429 O   0  0  0  0  0  0  0  0  0  0  0  0
   24.6955  -20.5724  -15.7903 N   0  0  0  0  0  0  0  0  0  0  0  0
   26.9004  -20.0553  -15.9851 C   0  0  1  0  0  0  0  0  0  0  0  0
   26.6541  -18.6343  -15.6577 C   0  0  0  0  0  0  0  0  0  0  0  0
   26.2991  -18.6519  -14.1926 C   0  0  0  0  0  0  0  0  0  0  0  0
   27.2390  -19.2951  -13.2909 C   0  0  0  0  0  0  0  0  0  0  0  0
   28.5982  -19.4253  -13.4970 N   0  0  0  0  0  0  0  0  0  0  0  0
   29.1110  -20.1128  -12.4641 C   0  0  0  0  0  0  0  0  0  0  0  0
   28.1336  -20.4365  -11.5886 C   0  0  0  0  0  0  0  0  0  0  0  0
   28.1784  -21.1156  -10.3884 C   0  0  0  0  0  0  0  0  0  0  0  0
   27.0165  -21.2914   -9.6748 C   0  0  0  0  0  0  0  0  0  0  0  0
   25.8189  -20.8059  -10.1328 C   0  0  0  0  0  0  0  0  0  0  0  0
   25.8117  -20.1376  -11.3285 C   0  0  0  0  0  0  0  0  0  0  0  0
   26.9630  -19.9334  -12.0908 C   0  0  0  0  0  0  0  0  0  0  0  0
   27.8139  -17.7867  -15.9060 O   0  0  0  0  0  0  0  0  0  0  0  0
   28.9422  -18.2726  -16.1429 O   0  0  0  0  0  0  0  0  0  0  0  0
  1  2  1  0
  2  4  1  0
  2  3  2  0
  4  5  1  0
  5  6  1  0
  7  6  1  0
  7  8  1  0
  8 10  1  0
  8  9  1  1
 10 11  2  0
 13 12  1  1
 14 13  1  0
 14 10  1  0
 15 17  1  0
 15 13  1  0
 16 15  2  0
 18 19  1  6
 18 17  1  0
 19 20  1  0
 20 28  1  0
 20 21  2  0
 21 22  1  0
 23 22  1  0
 23 24  2  0
 25 24  1  0
 26 25  2  0
 27 26  1  0
 27 28  2  0
 28 23  1  0
 29 18  1  0
 29 31  1  0
 30 29  2  0
M  END
$$$$
