RAW.pdb
     RDKit          3D

 31 32  0  0  1  0  0  0  0  0999 V2000
   27.7979  -22.4483  -20.5018 N   0  0  0  0  0  0  0  0  0  0  0  0
   29.1476  -22.4052  -21.0058 C   0  0  0  0  0  0  0  0  0  0  0  0
   29.3693  -22.3129  -22.2657 N   0  0  0  0  0  0  0  0  0  0  0  0
   30.2543  -22.4648  -20.1180 N   0  0  0  0  0  0  0  0  0  0  0  0
   30.2622  -21.8367  -18.8171 C   0  0  0  0  0  0  0  0  0  0  0  0
   29.5762  -22.7915  -17.8426 C   0  0  0  0  0  0  0  0  0  0  0  0
   29.4419  -22.1312  -16.4730 C   0  0  0  0  0  0  0  0  0  0  0  0
   27.9744  -22.1526  -16.1131 C   0  0  2  0  0  0  0  0  0  0  0  0
   27.2058  -21.7767  -17.2438 N   0  0  0  0  0  0  0  0  0  0  0  0
   27.6832  -21.3895  -14.8892 C   0  0  0  0  0  0  0  0  0  0  0  0
   28.6187  -21.0250  -14.1519 O   0  0  0  0  0  0  0  0  0  0  0  0
   30.3340  -22.2300  -22.6161 C   0  0  0  0  0  0  0  0  0  0  0  0
   24.7686  -19.4439  -13.4857 C   0  0  2  0  0  0  0  0  0  0  0  0
   26.0699  -20.2458  -13.3325 N   0  0  0  0  0  0  0  0  0  0  0  0
   26.3408  -21.0346  -14.4945 C   0  0  0  0  0  0  0  0  0  0  0  0
   25.8938  -21.0531  -12.0970 O   0  0  0  0  0  0  0  0  0  0  0  0
   25.4093  -22.2249  -12.1111 N   0  0  0  0  0  0  0  0  0  0  0  0
   26.2594  -20.5618  -10.8157 C   0  0  1  0  0  0  0  0  0  0  0  0
   26.0232  -21.3297   -9.5740 C   0  0  0  0  0  0  0  0  0  0  0  0
   27.3501  -21.2888   -8.8597 C   0  0  0  0  0  0  0  0  0  0  0  0
   27.5572  -20.2110   -7.9081 C   0  0  0  0  0  0  0  0  0  0  0  0
   26.9038  -18.9945   -7.9084 N   0  0  0  0  0  0  0  0  0  0  0  0
   27.3996  -18.2564   -6.9025 C   0  0  0  0  0  0  0  0  0  0  0  0
   28.3550  -18.9487   -6.2434 C   0  0  0  0  0  0  0  0  0  0  0  0
   29.1245  -18.6156   -5.1477 C   0  0  0  0  0  0  0  0  0  0  0  0
   30.0243  -19.5324   -4.6578 C   0  0  0  0  0  0  0  0  0  0  0  0
   30.1701  -20.7668   -5.2364 C   0  0  0  0  0  0  0  0  0  0  0  0
   29.3904  -21.0629   -6.3231 C   0  0  0  0  0  0  0  0  0  0  0  0
   28.4633  -20.1674   -6.8587 C   0  0  0  0  0  0  0  0  0  0  0  0
   24.9655  -20.7600   -8.7484 O   0  0  0  0  0  0  0  0  0  0  0  0
   24.4982  -19.6218   -8.9750 O   0  0  0  0  0  0  0  0  0  0  0  0
  1  2  1  0
  2  4  1  0
  2  3  2  0
  4  5  1  0
  5  6  1  0
  7  6  1  0
  7  8  1  0
  8 10  1  0
  8  9  1  6
 10 11  2  0
 13 12  1  6
 14 13  1  0
 14 10  1  0
 15 17  1  0
 15 13  1  0
 16 15  2  0
 18 19  1  1
 18 17  1  0
 19 20  1  0
 20 28  1  0
 20 21  2  0
 21 22  1  0
 23 22  1  0
 23 24  2  0
 25 24  1  0
 26 25  2  0
 27 26  1  0
 27 28  2  0
 28 23  1  0
 29 18  1  0
 29 31  1  0
 30 29  2  0
M  END
$$$$
