RAW.pdb
     RDKit          3D

 31 32  0  0  1  0  0  0  0  0999 V2000
   28.5450  -25.8489  -16.2786 N   0  0  0  0  0  0  0  0  0  0  0  0
   29.6068  -26.0784  -17.2259 C   0  0  0  0  0  0  0  0  0  0  0  0
   29.9433  -27.2729  -17.5496 N   0  0  0  0  0  0  0  0  0  0  0  0
   30.2988  -24.9878  -17.8161 N   0  0  0  0  0  0  0  0  0  0  0  0
   29.8418  -23.6199  -17.7328 C   0  0  0  0  0  0  0  0  0  0  0  0
   29.7458  -23.2579  -16.2523 C   0  0  0  0  0  0  0  0  0  0  0  0
   29.4647  -21.7656  -16.0976 C   0  0  0  0  0  0  0  0  0  0  0  0
   28.0075  -21.5521  -16.4359 C   0  0  2  0  0  0  0  0  0  0  0  0
   27.8935  -21.1252  -17.7832 N   0  0  0  0  0  0  0  0  0  0  0  0
   27.3219  -20.6932  -15.4576 C   0  0  0  0  0  0  0  0  0  0  0  0
   27.5338  -19.4657  -15.4585 O   0  0  0  0  0  0  0  0  0  0  0  0
   30.7681  -27.4344  -18.1446 C   0  0  0  0  0  0  0  0  0  0  0  0
   24.3356  -20.0328  -13.8648 C   0  0  1  0  0  0  0  0  0  0  0  0
   25.7839  -20.3817  -13.4899 N   0  0  0  0  0  0  0  0  0  0  0  0
   26.3969  -21.2134  -14.4791 C   0  0  0  0  0  0  0  0  0  0  0  0
   25.7030  -21.0181  -12.1491 O   0  0  0  0  0  0  0  0  0  0  0  0
   25.2182  -22.1764  -11.9719 N   0  0  0  0  0  0  0  0  0  0  0  0
   26.1665  -20.3670  -10.9752 C   0  0  1  0  0  0  0  0  0  0  0  0
   26.0537  -20.9764   -9.6324 C   0  0  0  0  0  0  0  0  0  0  0  0
   26.9977  -20.1655   -8.7814 C   0  0  0  0  0  0  0  0  0  0  0  0
   26.8849  -20.3144   -7.3408 C   0  0  0  0  0  0  0  0  0  0  0  0
   25.9337  -21.0635   -6.6767 N   0  0  0  0  0  0  0  0  0  0  0  0
   26.1345  -20.9148   -5.3576 C   0  0  0  0  0  0  0  0  0  0  0  0
   27.1853  -20.0942   -5.1358 C   0  0  0  0  0  0  0  0  0  0  0  0
   27.7696  -19.6648   -3.9620 C   0  0  0  0  0  0  0  0  0  0  0  0
   28.8622  -18.8326   -4.0234 C   0  0  0  0  0  0  0  0  0  0  0  0
   29.3792  -18.4232   -5.2254 C   0  0  0  0  0  0  0  0  0  0  0  0
   28.7732  -18.8684   -6.3704 C   0  0  0  0  0  0  0  0  0  0  0  0
   27.6621  -19.7132   -6.3618 C   0  0  0  0  0  0  0  0  0  0  0  0
   24.6970  -20.9294   -9.1012 O   0  0  0  0  0  0  0  0  0  0  0  0
   24.2545  -21.8291   -8.3529 O   0  0  0  0  0  0  0  0  0  0  0  0
  1  2  1  0
  2  4  1  0
  2  3  2  0
  4  5  1  0
  5  6  1  0
  7  6  1  0
  7  8  1  0
  8 10  1  0
  8  9  1  6
 10 11  2  0
 13 12  1  6
 14 13  1  0
 14 10  1  0
 15 17  1  0
 15 13  1  0
 16 15  2  0
 18 19  1  1
 18 17  1  0
 19 20  1  0
 20 28  1  0
 20 21  2  0
 21 22  1  0
 23 22  1  0
 23 24  2  0
 25 24  1  0
 26 25  2  0
 27 26  1  0
 27 28  2  0
 28 23  1  0
 29 18  1  0
 29 31  1  0
 30 29  2  0
M  END
$$$$
