RAW.pdb
     RDKit          3D

 31 32  0  0  1  0  0  0  0  0999 V2000
   31.1078  -27.1971  -18.3007 N   0  0  0  0  0  0  0  0  0  0  0  0
   31.2074  -25.7751  -18.0865 C   0  0  0  0  0  0  0  0  0  0  0  0
   32.2007  -25.1141  -18.5569 N   0  0  0  0  0  0  0  0  0  0  0  0
   30.2096  -25.0820  -17.3514 N   0  0  0  0  0  0  0  0  0  0  0  0
   29.0636  -25.7336  -16.7604 C   0  0  0  0  0  0  0  0  0  0  0  0
   27.8216  -24.9564  -17.1908 C   0  0  0  0  0  0  0  0  0  0  0  0
   28.1664  -23.4804  -17.3707 C   0  0  0  0  0  0  0  0  0  0  0  0
   27.0322  -22.6841  -16.7680 C   0  0  2  0  0  0  0  0  0  0  0  0
   26.4388  -21.8755  -17.7701 N   0  0  0  0  0  0  0  0  0  0  0  0
   27.4356  -21.9609  -15.5518 C   0  0  0  0  0  0  0  0  0  0  0  0
   28.3345  -22.4268  -14.8262 O   0  0  0  0  0  0  0  0  0  0  0  0
   32.2936  -24.1083  -18.3568 C   0  0  0  0  0  0  0  0  0  0  0  0
   26.9073  -18.5067  -14.0813 C   0  0  2  0  0  0  0  0  0  0  0  0
   27.2478  -20.0014  -13.9835 N   0  0  0  0  0  0  0  0  0  0  0  0
   26.8300  -20.7131  -15.1517 C   0  0  0  0  0  0  0  0  0  0  0  0
   26.5933  -20.4753  -12.7360 O   0  0  0  0  0  0  0  0  0  0  0  0
   25.4071  -20.9235  -12.7158 N   0  0  0  0  0  0  0  0  0  0  0  0
   27.2577  -20.4572  -11.4810 C   0  0  2  0  0  0  0  0  0  0  0  0
   26.6211  -20.9456  -10.2386 C   0  0  0  0  0  0  0  0  0  0  0  0
   27.6115  -20.5959   -9.1573 C   0  0  0  0  0  0  0  0  0  0  0  0
   27.1447  -20.6660   -7.7835 C   0  0  0  0  0  0  0  0  0  0  0  0
   26.0322  -21.3541   -7.3410 N   0  0  0  0  0  0  0  0  0  0  0  0
   25.9102  -21.1417   -6.0210 C   0  0  0  0  0  0  0  0  0  0  0  0
   26.9055  -20.3384   -5.5843 C   0  0  0  0  0  0  0  0  0  0  0  0
   27.2014  -19.8635   -4.3231 C   0  0  0  0  0  0  0  0  0  0  0  0
   28.3069  -19.0645   -4.1509 C   0  0  0  0  0  0  0  0  0  0  0  0
   29.1172  -18.7324   -5.2059 C   0  0  0  0  0  0  0  0  0  0  0  0
   28.7926  -19.2210   -6.4438 C   0  0  0  0  0  0  0  0  0  0  0  0
   27.6815  -20.0349   -6.6711 C   0  0  0  0  0  0  0  0  0  0  0  0
   25.3264  -20.3259   -9.9843 O   0  0  0  0  0  0  0  0  0  0  0  0
   25.1341  -19.1053  -10.1801 O   0  0  0  0  0  0  0  0  0  0  0  0
  1  2  1  0
  2  4  1  0
  2  3  2  0
  4  5  1  0
  5  6  1  0
  7  6  1  0
  7  8  1  0
  8 10  1  0
  8  9  1  6
 10 11  2  0
 13 12  1  6
 14 13  1  0
 14 10  1  0
 15 17  1  0
 15 13  1  0
 16 15  2  0
 18 19  1  6
 18 17  1  0
 19 20  1  0
 20 28  1  0
 20 21  2  0
 21 22  1  0
 23 22  1  0
 23 24  2  0
 25 24  1  0
 26 25  2  0
 27 26  1  0
 27 28  2  0
 28 23  1  0
 29 18  1  0
 29 31  1  0
 30 29  2  0
M  END
$$$$
