RAW.pdb
     RDKit          3D

 31 32  0  0  1  0  0  0  0  0999 V2000
   25.4016  -22.7339  -18.7877 N   0  0  0  0  0  0  0  0  0  0  0  0
   25.8659  -23.8231  -19.6097 C   0  0  0  0  0  0  0  0  0  0  0  0
   25.0448  -24.7089  -20.0410 N   0  0  0  0  0  0  0  0  0  0  0  0
   27.2387  -23.9352  -19.9554 N   0  0  0  0  0  0  0  0  0  0  0  0
   28.2692  -23.0920  -19.3948 C   0  0  0  0  0  0  0  0  0  0  0  0
   28.6047  -23.6380  -18.0087 C   0  0  0  0  0  0  0  0  0  0  0  0
   28.9492  -22.4889  -17.0650 C   0  0  0  0  0  0  0  0  0  0  0  0
   27.6507  -22.0098  -16.4583 C   0  0  2  0  0  0  0  0  0  0  0  0
   26.9988  -21.1380  -17.3668 N   0  0  0  0  0  0  0  0  0  0  0  0
   27.8289  -21.4658  -15.1029 C   0  0  0  0  0  0  0  0  0  0  0  0
   28.4398  -22.1320  -14.2458 O   0  0  0  0  0  0  0  0  0  0  0  0
   25.3748  -25.4606  -20.6626 C   0  0  0  0  0  0  0  0  0  0  0  0
   27.0642  -18.1765  -13.3072 C   0  0  1  0  0  0  0  0  0  0  0  0
   27.5192  -19.6409  -13.3976 N   0  0  0  0  0  0  0  0  0  0  0  0
   27.3221  -20.1723  -14.7108 C   0  0  0  0  0  0  0  0  0  0  0  0
   26.7512  -20.3592  -12.3471 O   0  0  0  0  0  0  0  0  0  0  0  0
   25.5675  -20.7749  -12.5315 N   0  0  0  0  0  0  0  0  0  0  0  0
   27.2969  -20.6279  -11.0638 C   0  0  2  0  0  0  0  0  0  0  0  0
   26.5118  -21.2662   -9.9851 C   0  0  0  0  0  0  0  0  0  0  0  0
   27.4937  -21.4043   -8.8496 C   0  0  0  0  0  0  0  0  0  0  0  0
   27.4593  -20.3838   -7.8163 C   0  0  0  0  0  0  0  0  0  0  0  0
   26.6770  -19.2459   -7.8284 N   0  0  0  0  0  0  0  0  0  0  0  0
   26.9592  -18.5361   -6.7244 C   0  0  0  0  0  0  0  0  0  0  0  0
   27.8993  -19.1709   -5.9898 C   0  0  0  0  0  0  0  0  0  0  0  0
   28.4865  -18.8405   -4.7857 C   0  0  0  0  0  0  0  0  0  0  0  0
   29.4179  -19.6913   -4.2392 C   0  0  0  0  0  0  0  0  0  0  0  0
   29.7725  -20.8575   -4.8670 C   0  0  0  0  0  0  0  0  0  0  0  0
   29.1700  -21.1530   -6.0612 C   0  0  0  0  0  0  0  0  0  0  0  0
   28.2196  -20.3228   -6.6578 C   0  0  0  0  0  0  0  0  0  0  0  0
   25.3540  -20.4765   -9.5841 O   0  0  0  0  0  0  0  0  0  0  0  0
   24.3879  -20.9906   -8.9779 O   0  0  0  0  0  0  0  0  0  0  0  0
  1  2  1  0
  2  4  1  0
  2  3  2  0
  4  5  1  0
  5  6  1  0
  7  6  1  0
  7  8  1  0
  8 10  1  0
  8  9  1  6
 10 11  2  0
 13 12  1  6
 14 13  1  0
 14 10  1  0
 15 17  1  0
 15 13  1  0
 16 15  2  0
 18 19  1  6
 18 17  1  0
 19 20  1  0
 20 28  1  0
 20 21  2  0
 21 22  1  0
 23 22  1  0
 23 24  2  0
 25 24  1  0
 26 25  2  0
 27 26  1  0
 27 28  2  0
 28 23  1  0
 29 18  1  0
 29 31  1  0
 30 29  2  0
M  END
$$$$
