RAW.pdb
     RDKit          3D

 31 32  0  0  1  0  0  0  0  0999 V2000
   30.1386  -27.3792  -16.7128 N   0  0  0  0  0  0  0  0  0  0  0  0
   29.3653  -27.0250  -17.8765 C   0  0  0  0  0  0  0  0  0  0  0  0
   28.5015  -27.8421  -18.3574 N   0  0  0  0  0  0  0  0  0  0  0  0
   29.5462  -25.7674  -18.5108 N   0  0  0  0  0  0  0  0  0  0  0  0
   30.4106  -24.7336  -17.9902 C   0  0  0  0  0  0  0  0  0  0  0  0
   29.6457  -24.0104  -16.8838 C   0  0  0  0  0  0  0  0  0  0  0  0
   29.9277  -22.5117  -16.9488 C   0  0  0  0  0  0  0  0  0  0  0  0
   28.5927  -21.8152  -17.0770 C   0  0  2  0  0  0  0  0  0  0  0  0
   28.5075  -21.1884  -18.3459 N   0  0  0  0  0  0  0  0  0  0  0  0
   28.3049  -20.9342  -15.9343 C   0  0  0  0  0  0  0  0  0  0  0  0
   29.2416  -20.3655  -15.3421 O   0  0  0  0  0  0  0  0  0  0  0  0
   28.0152  -27.6213  -19.2377 C   0  0  0  0  0  0  0  0  0  0  0  0
   25.8679  -18.6644  -14.6143 C   0  0  1  0  0  0  0  0  0  0  0  0
   26.6992  -19.9139  -14.2865 N   0  0  0  0  0  0  0  0  0  0  0  0
   26.9641  -20.6908  -15.4579 C   0  0  0  0  0  0  0  0  0  0  0  0
   25.9211  -20.6468  -13.2537 O   0  0  0  0  0  0  0  0  0  0  0  0
   24.8280  -21.2351  -13.5129 N   0  0  0  0  0  0  0  0  0  0  0  0
   26.3546  -20.7364  -11.9043 C   0  0  2  0  0  0  0  0  0  0  0  0
   25.5823  -21.4560  -10.8685 C   0  0  0  0  0  0  0  0  0  0  0  0
   26.5917  -21.7303   -9.7829 C   0  0  0  0  0  0  0  0  0  0  0  0
   26.9197  -20.6320   -8.8905 C   0  0  0  0  0  0  0  0  0  0  0  0
   26.2120  -19.4529   -8.7643 N   0  0  0  0  0  0  0  0  0  0  0  0
   26.8521  -18.6775   -7.8746 C   0  0  0  0  0  0  0  0  0  0  0  0
   27.9544  -19.3093   -7.4138 C   0  0  0  0  0  0  0  0  0  0  0  0
   28.9025  -18.9223   -6.4891 C   0  0  0  0  0  0  0  0  0  0  0  0
   29.9300  -19.7832   -6.1834 C   0  0  0  0  0  0  0  0  0  0  0  0
   30.0289  -21.0142   -6.7786 C   0  0  0  0  0  0  0  0  0  0  0  0
   29.0705  -21.3648   -7.6924 C   0  0  0  0  0  0  0  0  0  0  0  0
   28.0086  -20.5272   -8.0377 C   0  0  0  0  0  0  0  0  0  0  0  0
   24.4600  -20.6789  -10.3569 O   0  0  0  0  0  0  0  0  0  0  0  0
   24.4372  -19.4305  -10.4353 O   0  0  0  0  0  0  0  0  0  0  0  0
  1  2  1  0
  2  4  1  0
  2  3  2  0
  4  5  1  0
  5  6  1  0
  7  6  1  0
  7  8  1  0
  8 10  1  0
  8  9  1  6
 10 11  2  0
 13 12  1  6
 14 13  1  0
 14 10  1  0
 15 17  1  0
 15 13  1  0
 16 15  2  0
 18 19  1  1
 18 17  1  0
 19 20  1  0
 20 28  1  0
 20 21  2  0
 21 22  1  0
 23 22  1  0
 23 24  2  0
 25 24  1  0
 26 25  2  0
 27 26  1  0
 27 28  2  0
 28 23  1  0
 29 18  1  0
 29 31  1  0
 30 29  2  0
M  END
$$$$
