RGY.pdb
     RDKit          3D

 28 28  0  0  1  0  0  0  0  0999 V2000
    7.4359  -13.2503   18.1195 N   0  0  0  0  0  0  0  0  0  0  0  0
    7.9344  -13.0129   19.4417 C   0  0  0  0  0  0  0  0  0  0  0  0
    7.9866  -11.8221   19.9068 N   0  0  0  0  0  0  0  0  0  0  0  0
    8.3582  -14.1473   20.1914 N   0  0  0  0  0  0  0  0  0  0  0  0
    7.4039  -15.2355   20.3568 C   0  0  0  0  0  0  0  0  0  0  0  0
    6.7972  -15.1138   21.7303 C   0  0  0  0  0  0  0  0  0  0  0  0
    7.6436  -15.6524   22.8195 C   0  0  0  0  0  0  0  0  0  0  0  0
    8.6037  -16.7303   22.4661 C   0  0  2  0  0  0  0  0  0  0  0  0
    8.0584  -18.0311   22.7777 N   0  0  0  0  0  0  0  0  0  0  0  0
    9.8863  -16.5004   23.1858 C   0  0  0  0  0  0  0  0  0  0  0  0
   10.4857  -15.4194   22.9483 O   0  0  0  0  0  0  0  0  0  0  0  0
    8.4091  -11.6357   20.8401 N   0  0  0  0  0  0  0  0  0  0  0  0
   10.4241  -17.4396   24.0980 C   0  0  0  0  0  0  0  0  0  0  0  0
   11.6868  -17.1915   24.6868 C   0  0  0  0  0  0  0  0  0  0  0  0
   11.6628  -16.4920   25.9694 O   0  0  0  0  0  0  0  0  0  0  0  0
   12.6190  -15.8240   26.4402 O   0  0  0  0  0  0  0  0  0  0  0  0
    7.1435  -11.8044   24.5348 C   0  0  0  0  0  0  0  0  0  0  0  0
    7.5984  -12.7286   25.4809 C   0  0  0  0  0  0  0  0  0  0  0  0
    7.2030  -14.0414   25.3628 C   0  0  0  0  0  0  0  0  0  0  0  0
    7.6544  -14.9480   26.2979 C   0  0  0  0  0  0  0  0  0  0  0  0
    8.4826  -14.5674   27.3337 C   0  0  0  0  0  0  0  0  0  0  0  0
    8.9318  -15.5708   28.2986 C   0  0  2  0  0  0  0  0  0  0  0  0
   10.3345  -16.0625   28.0675 N   0  0  0  0  0  0  0  0  0  0  0  0
   10.4562  -16.5865   26.7273 C   0  0  0  0  0  0  0  0  0  0  0  0
   10.7841  -17.0333   29.0701 O   0  0  0  0  0  0  0  0  0  0  0  0
   11.0569  -18.1977   28.7213 C   0  0  0  0  0  0  0  0  0  0  0  0
    8.8689  -13.2557   27.4394 C   0  0  0  0  0  0  0  0  0  0  0  0
    8.4325  -12.3250   26.5173 O   0  0  0  0  0  0  0  0  0  0  0  0
  2  4  1  0
  2  1  1  0
  3  2  2  0
  5  4  1  0
  6  5  1  0
  7  8  1  0
  7  6  1  0
  8  9  1  1
 10  8  1  0
 10 12  1  0
 11 10  2  0
 13 12  1  0
 14 15  2  0
 14 13  1  0
 16 17  1  0
 17 18  2  0
 18 19  1  0
 20 21  1  0
 20 19  2  0
 22 23  1  0
 22 21  1  6
 23 14  1  0
 24 22  1  0
 25 24  2  0
 26 20  1  0
 27 26  2  0
 27 17  1  0
 28 24  1  0
M  END
$$$$
