RGY.pdb
     RDKit          3D

 28 28  0  0  1  0  0  0  0  0999 V2000
    9.5594  -14.1967   16.5348 N   0  0  0  0  0  0  0  0  0  0  0  0
    8.2570  -13.8855   16.0249 C   0  0  0  0  0  0  0  0  0  0  0  0
    8.1241  -13.4038   14.8470 N   0  0  0  0  0  0  0  0  0  0  0  0
    7.1459  -14.1356   16.8801 N   0  0  0  0  0  0  0  0  0  0  0  0
    7.3763  -14.9718   18.0505 C   0  0  0  0  0  0  0  0  0  0  0  0
    6.9029  -14.2120   19.2621 C   0  0  0  0  0  0  0  0  0  0  0  0
    7.1042  -14.9247   20.5444 C   0  0  0  0  0  0  0  0  0  0  0  0
    8.4756  -14.9215   21.1171 C   0  0  2  0  0  0  0  0  0  0  0  0
    9.3614  -15.7593   20.3425 N   0  0  0  0  0  0  0  0  0  0  0  0
    8.4163  -15.3710   22.5350 C   0  0  0  0  0  0  0  0  0  0  0  0
    7.7368  -14.6669   23.3267 O   0  0  0  0  0  0  0  0  0  0  0  0
    7.1777  -13.2540   14.4394 N   0  0  0  0  0  0  0  0  0  0  0  0
    9.0846  -16.5320   22.9921 C   0  0  0  0  0  0  0  0  0  0  0  0
    9.0552  -16.8532   24.3701 C   0  0  0  0  0  0  0  0  0  0  0  0
    9.7713  -15.9339   25.2516 O   0  0  0  0  0  0  0  0  0  0  0  0
    9.9530  -14.7113   25.0180 O   0  0  0  0  0  0  0  0  0  0  0  0
    6.3935  -11.0234   25.9293 C   0  0  0  0  0  0  0  0  0  0  0  0
    6.9425  -12.1983   26.4530 C   0  0  0  0  0  0  0  0  0  0  0  0
    8.1779  -12.1367   27.0562 C   0  0  0  0  0  0  0  0  0  0  0  0
    8.7143  -13.2976   27.5706 C   0  0  0  0  0  0  0  0  0  0  0  0
    8.0441  -14.5010   27.4922 C   0  0  0  0  0  0  0  0  0  0  0  0
    8.6597  -15.7029   28.0546 C   0  0  2  0  0  0  0  0  0  0  0  0
   10.1248  -15.8464   27.7452 N   0  0  0  0  0  0  0  0  0  0  0  0
   10.2949  -16.4842   26.4608 C   0  0  0  0  0  0  0  0  0  0  0  0
   10.8770  -16.5388   28.7961 O   0  0  0  0  0  0  0  0  0  0  0  0
   11.1340  -17.7515   28.6727 C   0  0  0  0  0  0  0  0  0  0  0  0
    6.8135  -14.5482   26.8884 C   0  0  0  0  0  0  0  0  0  0  0  0
    6.2511  -13.4012   26.3640 O   0  0  0  0  0  0  0  0  0  0  0  0
  2  4  1  0
  2  1  1  0
  3  2  2  0
  5  4  1  0
  6  5  1  0
  7  8  1  0
  7  6  1  0
  8  9  1  6
 10  8  1  0
 10 12  1  0
 11 10  2  0
 13 12  1  0
 14 15  2  0
 14 13  1  0
 16 17  1  0
 17 18  2  0
 18 19  1  0
 20 21  1  0
 20 19  2  0
 22 23  1  0
 22 21  1  6
 23 14  1  0
 24 22  1  0
 25 24  2  0
 26 20  1  0
 27 26  2  0
 27 17  1  0
 28 24  1  0
M  END
$$$$
