RGY.pdb
     RDKit          3D

 28 28  0  0  1  0  0  0  0  0999 V2000
    7.6556  -13.1077   13.4872 N   0  0  0  0  0  0  0  0  0  0  0  0
    8.5452  -13.5194   14.5323 C   0  0  0  0  0  0  0  0  0  0  0  0
    9.5374  -14.2837   14.2704 N   0  0  0  0  0  0  0  0  0  0  0  0
    8.2712  -13.0428   15.8462 N   0  0  0  0  0  0  0  0  0  0  0  0
    7.4254  -13.8702   16.6960 C   0  0  0  0  0  0  0  0  0  0  0  0
    8.2804  -14.9703   17.2688 C   0  0  0  0  0  0  0  0  0  0  0  0
    8.5322  -14.8508   18.7231 C   0  0  0  0  0  0  0  0  0  0  0  0
    8.7385  -16.1105   19.4842 C   0  0  2  0  0  0  0  0  0  0  0  0
    7.5082  -16.5495   20.1009 N   0  0  0  0  0  0  0  0  0  0  0  0
    9.8032  -15.8996   20.5029 C   0  0  0  0  0  0  0  0  0  0  0  0
   10.9124  -15.4745   20.0865 O   0  0  0  0  0  0  0  0  0  0  0  0
   10.2387  -14.5121   15.0054 N   0  0  0  0  0  0  0  0  0  0  0  0
    9.5990  -16.1584   21.8794 C   0  0  0  0  0  0  0  0  0  0  0  0
   10.6398  -15.8868   22.7990 C   0  0  0  0  0  0  0  0  0  0  0  0
   10.2816  -15.9901   24.2118 O   0  0  0  0  0  0  0  0  0  0  0  0
   11.0579  -15.7381   25.1690 O   0  0  0  0  0  0  0  0  0  0  0  0
    7.1404  -10.4768   26.2900 C   0  0  0  0  0  0  0  0  0  0  0  0
    7.1459  -11.8736   26.2194 C   0  0  0  0  0  0  0  0  0  0  0  0
    6.9286  -12.5926   27.3725 C   0  0  0  0  0  0  0  0  0  0  0  0
    6.9350  -13.9691   27.2971 C   0  0  0  0  0  0  0  0  0  0  0  0
    7.1522  -14.6273   26.1042 C   0  0  0  0  0  0  0  0  0  0  0  0
    7.1488  -16.0899   26.0811 C   0  0  2  0  0  0  0  0  0  0  0  0
    8.5012  -16.7050   25.8458 N   0  0  0  0  0  0  0  0  0  0  0  0
    8.9484  -16.4093   24.5049 C   0  0  0  0  0  0  0  0  0  0  0  0
    8.5432  -18.1438   26.1244 O   0  0  0  0  0  0  0  0  0  0  0  0
    8.7833  -18.9436   25.2000 C   0  0  0  0  0  0  0  0  0  0  0  0
    7.3675  -13.8983   24.9625 C   0  0  0  0  0  0  0  0  0  0  0  0
    7.3667  -12.5181   25.0075 O   0  0  0  0  0  0  0  0  0  0  0  0
  2  4  1  0
  2  1  1  0
  3  2  2  0
  5  4  1  0
  6  5  1  0
  7  8  1  0
  7  6  1  0
  8  9  1  1
 10  8  1  0
 10 12  1  0
 11 10  2  0
 13 12  1  0
 14 15  2  0
 14 13  1  0
 16 17  1  0
 17 18  2  0
 18 19  1  0
 20 21  1  0
 20 19  2  0
 22 23  1  0
 22 21  1  1
 23 14  1  0
 24 22  1  0
 25 24  2  0
 26 20  1  0
 27 26  2  0
 27 17  1  0
 28 24  1  0
M  END
$$$$
