RGY.pdb
     RDKit          3D

 28 28  0  0  1  0  0  0  0  0999 V2000
   10.1471  -14.2109   13.5829 N   0  0  0  0  0  0  0  0  0  0  0  0
    8.9315  -13.6087   13.1217 C   0  0  0  0  0  0  0  0  0  0  0  0
    8.7673  -13.3592   11.8775 N   0  0  0  0  0  0  0  0  0  0  0  0
    7.9404  -13.3104   14.1001 N   0  0  0  0  0  0  0  0  0  0  0  0
    8.2447  -13.6439   15.4851 C   0  0  0  0  0  0  0  0  0  0  0  0
    7.4016  -14.8312   15.8709 C   0  0  0  0  0  0  0  0  0  0  0  0
    7.6312  -15.3184   17.2502 C   0  0  0  0  0  0  0  0  0  0  0  0
    8.3778  -14.4240   18.1728 C   0  0  2  0  0  0  0  0  0  0  0  0
    9.6507  -15.0021   18.5362 N   0  0  0  0  0  0  0  0  0  0  0  0
    7.5461  -14.1580   19.3784 C   0  0  0  0  0  0  0  0  0  0  0  0
    6.4153  -13.6399   19.1861 O   0  0  0  0  0  0  0  0  0  0  0  0
    7.9081  -12.8754   11.5430 N   0  0  0  0  0  0  0  0  0  0  0  0
    7.9870  -14.4654   20.6879 C   0  0  0  0  0  0  0  0  0  0  0  0
    7.1275  -14.2211   21.7853 C   0  0  0  0  0  0  0  0  0  0  0  0
    7.6568  -14.5817   23.0986 O   0  0  0  0  0  0  0  0  0  0  0  0
    6.9972  -14.5569   24.1694 O   0  0  0  0  0  0  0  0  0  0  0  0
   11.2434  -15.5973   30.5721 C   0  0  0  0  0  0  0  0  0  0  0  0
   10.6318  -15.4488   29.3231 C   0  0  0  0  0  0  0  0  0  0  0  0
   10.3361  -16.5789   28.5956 C   0  0  0  0  0  0  0  0  0  0  0  0
    9.7333  -16.4268   27.3652 C   0  0  0  0  0  0  0  0  0  0  0  0
    9.4264  -15.1805   26.8591 C   0  0  0  0  0  0  0  0  0  0  0  0
    8.7870  -15.0765   25.5476 C   0  0  2  0  0  0  0  0  0  0  0  0
    9.7418  -15.1643   24.3886 N   0  0  0  0  0  0  0  0  0  0  0  0
    9.0247  -14.9889   23.1475 C   0  0  0  0  0  0  0  0  0  0  0  0
   10.5391  -16.3948   24.3826 O   0  0  0  0  0  0  0  0  0  0  0  0
   10.1782  -17.3594   23.6817 C   0  0  0  0  0  0  0  0  0  0  0  0
    9.7266  -14.0626   27.5948 C   0  0  0  0  0  0  0  0  0  0  0  0
   10.3306  -14.1841   28.8307 O   0  0  0  0  0  0  0  0  0  0  0  0
  2  4  1  0
  2  1  1  0
  3  2  2  0
  5  4  1  0
  6  5  1  0
  7  8  1  0
  7  6  1  0
  8  9  1  1
 10  8  1  0
 10 12  1  0
 11 10  2  0
 13 12  1  0
 14 15  2  0
 14 13  1  0
 16 17  1  0
 17 18  2  0
 18 19  1  0
 20 21  1  0
 20 19  2  0
 22 23  1  0
 22 21  1  1
 23 14  1  0
 24 22  1  0
 25 24  2  0
 26 20  1  0
 27 26  2  0
 27 17  1  0
 28 24  1  0
M  END
$$$$
