RGY.pdb
     RDKit          3D

 28 28  0  0  1  0  0  0  0  0999 V2000
    7.9436  -11.6635   18.3147 N   0  0  0  0  0  0  0  0  0  0  0  0
    7.8285  -13.0681   18.5731 C   0  0  0  0  0  0  0  0  0  0  0  0
    8.2025  -13.9182   17.6931 N   0  0  0  0  0  0  0  0  0  0  0  0
    7.2883  -13.4565   19.8324 N   0  0  0  0  0  0  0  0  0  0  0  0
    7.7390  -14.7235   20.3925 C   0  0  0  0  0  0  0  0  0  0  0  0
    6.5300  -15.6027   20.5795 C   0  0  0  0  0  0  0  0  0  0  0  0
    6.8318  -16.9433   21.1311 C   0  0  0  0  0  0  0  0  0  0  0  0
    8.1453  -17.1235   21.8025 C   0  0  2  0  0  0  0  0  0  0  0  0
    8.7566  -18.3737   21.4157 N   0  0  0  0  0  0  0  0  0  0  0  0
    7.9563  -17.0529   23.2774 C   0  0  0  0  0  0  0  0  0  0  0  0
    7.4380  -16.0009   23.7345 O   0  0  0  0  0  0  0  0  0  0  0  0
    8.1580  -14.9397   17.8904 N   0  0  0  0  0  0  0  0  0  0  0  0
    8.3344  -18.1072   24.1427 C   0  0  0  0  0  0  0  0  0  0  0  0
    8.2388  -17.9248   25.5428 C   0  0  0  0  0  0  0  0  0  0  0  0
    9.2755  -17.0908   26.1466 O   0  0  0  0  0  0  0  0  0  0  0  0
   10.3247  -16.7157   25.5628 O   0  0  0  0  0  0  0  0  0  0  0  0
    6.7953  -11.7178   24.5638 C   0  0  0  0  0  0  0  0  0  0  0  0
    7.4015  -12.4380   25.5981 C   0  0  0  0  0  0  0  0  0  0  0  0
    8.7725  -12.5568   25.6029 C   0  0  0  0  0  0  0  0  0  0  0  0
    9.3648  -13.2676   26.6248 C   0  0  0  0  0  0  0  0  0  0  0  0
    8.6181  -13.8525   27.6267 C   0  0  0  0  0  0  0  0  0  0  0  0
    9.2981  -14.5960   28.6871 C   0  0  2  0  0  0  0  0  0  0  0  0
    9.9931  -15.8439   28.2157 N   0  0  0  0  0  0  0  0  0  0  0  0
    9.0621  -16.6831   27.4984 C   0  0  0  0  0  0  0  0  0  0  0  0
   10.6644  -16.5789   29.2921 O   0  0  0  0  0  0  0  0  0  0  0  0
   10.3037  -17.7400   29.5634 C   0  0  0  0  0  0  0  0  0  0  0  0
    7.2525  -13.7262   27.6097 C   0  0  0  0  0  0  0  0  0  0  0  0
    6.6313  -13.0199   26.5986 O   0  0  0  0  0  0  0  0  0  0  0  0
  2  4  1  0
  2  1  1  0
  3  2  2  0
  5  4  1  0
  6  5  1  0
  7  8  1  0
  7  6  1  0
  8  9  1  1
 10  8  1  0
 10 12  1  0
 11 10  2  0
 13 12  1  0
 14 15  2  0
 14 13  1  0
 16 17  1  0
 17 18  2  0
 18 19  1  0
 20 21  1  0
 20 19  2  0
 22 23  1  0
 22 21  1  6
 23 14  1  0
 24 22  1  0
 25 24  2  0
 26 20  1  0
 27 26  2  0
 27 17  1  0
 28 24  1  0
M  END
$$$$
