RGY.pdb
     RDKit          3D

 28 28  0  0  1  0  0  0  0  0999 V2000
    9.3374  -13.0915   18.9172 N   0  0  0  0  0  0  0  0  0  0  0  0
    7.9562  -13.4066   18.7028 C   0  0  0  0  0  0  0  0  0  0  0  0
    7.0670  -12.4893   18.7751 N   0  0  0  0  0  0  0  0  0  0  0  0
    7.6351  -14.7633   18.4120 N   0  0  0  0  0  0  0  0  0  0  0  0
    7.9489  -15.7586   19.4285 C   0  0  0  0  0  0  0  0  0  0  0  0
    8.4545  -15.0316   20.6471 C   0  0  0  0  0  0  0  0  0  0  0  0
    8.8032  -15.9159   21.7824 C   0  0  0  0  0  0  0  0  0  0  0  0
    7.7382  -16.8158   22.2966 C   0  0  2  0  0  0  0  0  0  0  0  0
    6.5584  -16.0658   22.6603 N   0  0  0  0  0  0  0  0  0  0  0  0
    8.2637  -17.5846   23.4580 C   0  0  0  0  0  0  0  0  0  0  0  0
    9.2935  -18.2807   23.2600 O   0  0  0  0  0  0  0  0  0  0  0  0
    6.0703  -12.6993   18.5590 N   0  0  0  0  0  0  0  0  0  0  0  0
    7.6498  -17.5487   24.7329 C   0  0  0  0  0  0  0  0  0  0  0  0
    8.2825  -18.1861   25.8266 C   0  0  0  0  0  0  0  0  0  0  0  0
    9.4008  -17.4599   26.4242 O   0  0  0  0  0  0  0  0  0  0  0  0
   10.6006  -17.5655   26.0613 O   0  0  0  0  0  0  0  0  0  0  0  0
    6.2347  -12.5017   24.2299 C   0  0  0  0  0  0  0  0  0  0  0  0
    7.0786  -12.9694   25.2424 C   0  0  0  0  0  0  0  0  0  0  0  0
    6.6223  -12.9533   26.5406 C   0  0  0  0  0  0  0  0  0  0  0  0
    7.4582  -13.4155   27.5345 C   0  0  0  0  0  0  0  0  0  0  0  0
    8.7244  -13.8863   27.2541 C   0  0  0  0  0  0  0  0  0  0  0  0
    9.5701  -14.3648   28.3474 C   0  0  2  0  0  0  0  0  0  0  0  0
   10.0853  -15.7655   28.1595 N   0  0  0  0  0  0  0  0  0  0  0  0
    9.0866  -16.5709   27.4966 C   0  0  0  0  0  0  0  0  0  0  0  0
   10.5434  -16.3896   29.4046 O   0  0  0  0  0  0  0  0  0  0  0  0
    9.9799  -17.4195   29.8212 C   0  0  0  0  0  0  0  0  0  0  0  0
    9.1665  -13.8967   25.9558 C   0  0  0  0  0  0  0  0  0  0  0  0
    8.3512  -13.4399   24.9392 O   0  0  0  0  0  0  0  0  0  0  0  0
  2  4  1  0
  2  1  1  0
  3  2  2  0
  5  4  1  0
  6  5  1  0
  7  8  1  0
  7  6  1  0
  8  9  1  1
 10  8  1  0
 10 12  1  0
 11 10  2  0
 13 12  1  0
 14 15  2  0
 14 13  1  0
 16 17  1  0
 17 18  2  0
 18 19  1  0
 20 21  1  0
 20 19  2  0
 22 23  1  0
 22 21  1  6
 23 14  1  0
 24 22  1  0
 25 24  2  0
 26 20  1  0
 27 26  2  0
 27 17  1  0
 28 24  1  0
M  END
$$$$
