RGY.pdb
     RDKit          3D

 28 28  0  0  1  0  0  0  0  0999 V2000
    7.9201  -20.6353   16.1442 N   0  0  0  0  0  0  0  0  0  0  0  0
    6.7779  -19.9799   15.5795 C   0  0  0  0  0  0  0  0  0  0  0  0
    5.9530  -20.6346   14.8529 N   0  0  0  0  0  0  0  0  0  0  0  0
    6.6152  -18.5940   15.8645 N   0  0  0  0  0  0  0  0  0  0  0  0
    7.3121  -18.0631   17.0283 C   0  0  0  0  0  0  0  0  0  0  0  0
    6.2752  -17.6558   18.0424 C   0  0  0  0  0  0  0  0  0  0  0  0
    6.8332  -17.0604   19.2780 C   0  0  0  0  0  0  0  0  0  0  0  0
    8.0404  -17.7037   19.8588 C   0  0  2  0  0  0  0  0  0  0  0  0
    7.6779  -18.6457   20.8922 N   0  0  0  0  0  0  0  0  0  0  0  0
    8.9506  -16.6514   20.3881 C   0  0  0  0  0  0  0  0  0  0  0  0
    9.5167  -15.9112   19.5420 O   0  0  0  0  0  0  0  0  0  0  0  0
    5.0957  -20.1760   14.4800 N   0  0  0  0  0  0  0  0  0  0  0  0
    9.1825  -16.4745   21.7732 C   0  0  0  0  0  0  0  0  0  0  0  0
    9.9932  -15.3999   22.2099 C   0  0  0  0  0  0  0  0  0  0  0  0
   10.1623  -15.2794   23.6563 O   0  0  0  0  0  0  0  0  0  0  0  0
   10.9401  -14.4690   24.2225 O   0  0  0  0  0  0  0  0  0  0  0  0
    5.6573  -11.0580   25.6427 C   0  0  0  0  0  0  0  0  0  0  0  0
    6.2487  -12.3092   25.8444 C   0  0  0  0  0  0  0  0  0  0  0  0
    7.3209  -12.4008   26.7022 C   0  0  0  0  0  0  0  0  0  0  0  0
    7.8999  -13.6365   26.8974 C   0  0  0  0  0  0  0  0  0  0  0  0
    7.4300  -14.7648   26.2574 C   0  0  0  0  0  0  0  0  0  0  0  0
    8.0822  -16.0514   26.5006 C   0  0  2  0  0  0  0  0  0  0  0  0
    9.4606  -16.1644   25.9091 N   0  0  0  0  0  0  0  0  0  0  0  0
    9.3782  -16.1549   24.4674 C   0  0  0  0  0  0  0  0  0  0  0  0
   10.2118  -17.3240   26.3997 O   0  0  0  0  0  0  0  0  0  0  0  0
   10.4134  -17.4552   27.6220 C   0  0  0  0  0  0  0  0  0  0  0  0
    6.3607  -14.6592   25.4051 C   0  0  0  0  0  0  0  0  0  0  0  0
    5.7603  -13.4344   25.1900 O   0  0  0  0  0  0  0  0  0  0  0  0
  2  4  1  0
  2  1  1  0
  3  2  2  0
  5  4  1  0
  6  5  1  0
  7  8  1  0
  7  6  1  0
  8  9  1  1
 10  8  1  0
 10 12  1  0
 11 10  2  0
 13 12  1  0
 14 15  2  0
 14 13  1  0
 16 17  1  0
 17 18  2  0
 18 19  1  0
 20 21  1  0
 20 19  2  0
 22 23  1  0
 22 21  1  1
 23 14  1  0
 24 22  1  0
 25 24  2  0
 26 20  1  0
 27 26  2  0
 27 17  1  0
 28 24  1  0
M  END
$$$$
