RGY.pdb
     RDKit          3D

 28 28  0  0  1  0  0  0  0  0999 V2000
    8.8779  -11.8516   19.3336 N   0  0  0  0  0  0  0  0  0  0  0  0
    8.7767  -13.1396   18.7140 C   0  0  0  0  0  0  0  0  0  0  0  0
    8.3154  -13.2487   17.5255 N   0  0  0  0  0  0  0  0  0  0  0  0
    9.2071  -14.2640   19.4748 N   0  0  0  0  0  0  0  0  0  0  0  0
    8.5408  -14.5065   20.7474 C   0  0  0  0  0  0  0  0  0  0  0  0
    7.3113  -15.3335   20.4755 C   0  0  0  0  0  0  0  0  0  0  0  0
    6.6039  -15.7908   21.6933 C   0  0  0  0  0  0  0  0  0  0  0  0
    6.6693  -17.2402   22.0149 C   0  0  2  0  0  0  0  0  0  0  0  0
    5.3513  -17.7733   22.2703 N   0  0  0  0  0  0  0  0  0  0  0  0
    7.5657  -17.4430   23.1860 C   0  0  0  0  0  0  0  0  0  0  0  0
    8.8033  -17.4638   22.9578 O   0  0  0  0  0  0  0  0  0  0  0  0
    8.3252  -14.1674   17.0355 N   0  0  0  0  0  0  0  0  0  0  0  0
    7.0705  -17.6066   24.5019 C   0  0  0  0  0  0  0  0  0  0  0  0
    7.9673  -17.9391   25.5450 C   0  0  0  0  0  0  0  0  0  0  0  0
    8.9458  -16.9112   25.8926 O   0  0  0  0  0  0  0  0  0  0  0  0
    9.5764  -16.2102   25.0599 O   0  0  0  0  0  0  0  0  0  0  0  0
    5.8376  -12.1257   24.9732 C   0  0  0  0  0  0  0  0  0  0  0  0
    6.7613  -12.7455   25.8210 C   0  0  0  0  0  0  0  0  0  0  0  0
    8.0913  -12.4127   25.7024 C   0  0  0  0  0  0  0  0  0  0  0  0
    8.9974  -13.0266   26.5405 C   0  0  0  0  0  0  0  0  0  0  0  0
    8.5995  -13.9542   27.4811 C   0  0  0  0  0  0  0  0  0  0  0  0
    9.6032  -14.5756   28.3449 C   0  0  2  0  0  0  0  0  0  0  0  0
   10.2226  -15.8209   27.7719 N   0  0  0  0  0  0  0  0  0  0  0  0
    9.1889  -16.7035   27.2843 C   0  0  0  0  0  0  0  0  0  0  0  0
   11.1226  -16.5061   28.7047 O   0  0  0  0  0  0  0  0  0  0  0  0
   12.1176  -15.9060   29.1539 C   0  0  0  0  0  0  0  0  0  0  0  0
    7.2707  -14.2766   27.5885 C   0  0  0  0  0  0  0  0  0  0  0  0
    6.3402  -13.6778   26.7624 O   0  0  0  0  0  0  0  0  0  0  0  0
  2  4  1  0
  2  1  1  0
  3  2  2  0
  5  4  1  0
  6  5  1  0
  7  8  1  0
  7  6  1  0
  8  9  1  1
 10  8  1  0
 10 12  1  0
 11 10  2  0
 13 12  1  0
 14 15  2  0
 14 13  1  0
 16 17  1  0
 17 18  2  0
 18 19  1  0
 20 21  1  0
 20 19  2  0
 22 23  1  0
 22 21  1  6
 23 14  1  0
 24 22  1  0
 25 24  2  0
 26 20  1  0
 27 26  2  0
 27 17  1  0
 28 24  1  0
M  END
$$$$
