RGY.pdb
     RDKit          3D

 28 28  0  0  1  0  0  0  0  0999 V2000
    7.6094  -12.5967   18.6806 N   0  0  0  0  0  0  0  0  0  0  0  0
    8.2417  -13.6767   17.9829 C   0  0  0  0  0  0  0  0  0  0  0  0
    9.3937  -13.5135   17.4504 N   0  0  0  0  0  0  0  0  0  0  0  0
    7.5351  -14.9115   17.9163 N   0  0  0  0  0  0  0  0  0  0  0  0
    7.3248  -15.6311   19.1653 C   0  0  0  0  0  0  0  0  0  0  0  0
    7.4987  -14.6529   20.2977 C   0  0  0  0  0  0  0  0  0  0  0  0
    7.2937  -15.2364   21.6430 C   0  0  0  0  0  0  0  0  0  0  0  0
    8.1187  -16.4181   22.0056 C   0  0  2  0  0  0  0  0  0  0  0  0
    7.4642  -17.2151   23.0170 N   0  0  0  0  0  0  0  0  0  0  0  0
    9.4571  -15.9590   22.4681 C   0  0  0  0  0  0  0  0  0  0  0  0
   10.2557  -15.5531   21.5840 O   0  0  0  0  0  0  0  0  0  0  0  0
    9.8271  -14.2711   16.8825 N   0  0  0  0  0  0  0  0  0  0  0  0
    9.8340  -15.9700   23.8324 C   0  0  0  0  0  0  0  0  0  0  0  0
   11.1105  -15.4851   24.2042 C   0  0  0  0  0  0  0  0  0  0  0  0
   11.4445  -15.5992   25.6221 O   0  0  0  0  0  0  0  0  0  0  0  0
   12.5871  -15.3982   26.1083 O   0  0  0  0  0  0  0  0  0  0  0  0
    6.5856  -11.5258   25.6155 C   0  0  0  0  0  0  0  0  0  0  0  0
    7.2403  -12.5223   26.3465 C   0  0  0  0  0  0  0  0  0  0  0  0
    8.2674  -12.1565   27.1861 C   0  0  0  0  0  0  0  0  0  0  0  0
    8.9092  -13.1428   27.9042 C   0  0  0  0  0  0  0  0  0  0  0  0
    8.5449  -14.4691   27.7969 C   0  0  0  0  0  0  0  0  0  0  0  0
    9.2601  -15.4751   28.5819 C   0  0  2  0  0  0  0  0  0  0  0  0
   10.5263  -15.9716   27.9392 N   0  0  0  0  0  0  0  0  0  0  0  0
   10.3819  -15.9668   26.5023 C   0  0  0  0  0  0  0  0  0  0  0  0
   10.9556  -17.2830   28.4347 O   0  0  0  0  0  0  0  0  0  0  0  0
   11.0427  -18.2420   27.6443 C   0  0  0  0  0  0  0  0  0  0  0  0
    7.5195  -14.8197   26.9563 C   0  0  0  0  0  0  0  0  0  0  0  0
    6.8582  -13.8534   26.2243 O   0  0  0  0  0  0  0  0  0  0  0  0
  2  4  1  0
  2  1  1  0
  3  2  2  0
  5  4  1  0
  6  5  1  0
  7  8  1  0
  7  6  1  0
  8  9  1  1
 10  8  1  0
 10 12  1  0
 11 10  2  0
 13 12  1  0
 14 15  2  0
 14 13  1  0
 16 17  1  0
 17 18  2  0
 18 19  1  0
 20 21  1  0
 20 19  2  0
 22 23  1  0
 22 21  1  6
 23 14  1  0
 24 22  1  0
 25 24  2  0
 26 20  1  0
 27 26  2  0
 27 17  1  0
 28 24  1  0
M  END
$$$$
