RGY.pdb
     RDKit          3D

 28 28  0  0  1  0  0  0  0  0999 V2000
    8.7406  -14.9295   15.8982 N   0  0  0  0  0  0  0  0  0  0  0  0
    8.0289  -13.7302   15.5695 C   0  0  0  0  0  0  0  0  0  0  0  0
    7.6818  -13.4975   14.3602 N   0  0  0  0  0  0  0  0  0  0  0  0
    7.7362  -12.8333   16.6365 N   0  0  0  0  0  0  0  0  0  0  0  0
    8.3064  -13.1370   17.9422 C   0  0  0  0  0  0  0  0  0  0  0  0
    7.4175  -14.1536   18.6099 C   0  0  0  0  0  0  0  0  0  0  0  0
    7.6199  -14.2723   20.0720 C   0  0  0  0  0  0  0  0  0  0  0  0
    8.9083  -14.8494   20.5363 C   0  0  2  0  0  0  0  0  0  0  0  0
    9.3740  -15.8719   19.6285 N   0  0  0  0  0  0  0  0  0  0  0  0
    8.7357  -15.3919   21.9118 C   0  0  0  0  0  0  0  0  0  0  0  0
    8.2739  -14.6055   22.7793 O   0  0  0  0  0  0  0  0  0  0  0  0
    7.2467  -12.5881   14.0993 N   0  0  0  0  0  0  0  0  0  0  0  0
    9.0686  -16.7255   22.2493 C   0  0  0  0  0  0  0  0  0  0  0  0
    8.7865  -17.2036   23.5511 C   0  0  0  0  0  0  0  0  0  0  0  0
    9.5898  -16.6272   24.6270 O   0  0  0  0  0  0  0  0  0  0  0  0
   10.7106  -16.0780   24.4702 O   0  0  0  0  0  0  0  0  0  0  0  0
    6.5112  -10.9096   25.5725 C   0  0  0  0  0  0  0  0  0  0  0  0
    7.0563  -12.0492   26.1726 C   0  0  0  0  0  0  0  0  0  0  0  0
    8.3788  -12.0255   26.5523 C   0  0  0  0  0  0  0  0  0  0  0  0
    8.9109  -13.1514   27.1434 C   0  0  0  0  0  0  0  0  0  0  0  0
    8.1519  -14.2835   27.3573 C   0  0  0  0  0  0  0  0  0  0  0  0
    8.7673  -15.4509   27.9885 C   0  0  2  0  0  0  0  0  0  0  0  0
    9.7340  -16.1906   27.1047 N   0  0  0  0  0  0  0  0  0  0  0  0
    9.0442  -16.7037   25.9444 C   0  0  0  0  0  0  0  0  0  0  0  0
   10.4728  -17.2460   27.8047 O   0  0  0  0  0  0  0  0  0  0  0  0
   10.3274  -18.4336   27.4580 C   0  0  0  0  0  0  0  0  0  0  0  0
    6.8351  -14.2936   26.9739 C   0  0  0  0  0  0  0  0  0  0  0  0
    6.2748  -13.1803   26.3794 O   0  0  0  0  0  0  0  0  0  0  0  0
  2  4  1  0
  2  1  1  0
  3  2  2  0
  5  4  1  0
  6  5  1  0
  7  8  1  0
  7  6  1  0
  8  9  1  6
 10  8  1  0
 10 12  1  0
 11 10  2  0
 13 12  1  0
 14 15  2  0
 14 13  1  0
 16 17  1  0
 17 18  2  0
 18 19  1  0
 20 21  1  0
 20 19  2  0
 22 23  1  0
 22 21  1  6
 23 14  1  0
 24 22  1  0
 25 24  2  0
 26 20  1  0
 27 26  2  0
 27 17  1  0
 28 24  1  0
M  END
$$$$
