RGY.pdb
     RDKit          3D

 28 28  0  0  1  0  0  0  0  0999 V2000
    8.1993  -12.4591   18.1407 N   0  0  0  0  0  0  0  0  0  0  0  0
    8.3386  -13.8232   17.7248 C   0  0  0  0  0  0  0  0  0  0  0  0
    8.1718  -14.1430   16.4972 N   0  0  0  0  0  0  0  0  0  0  0  0
    8.6649  -14.7799   18.7281 N   0  0  0  0  0  0  0  0  0  0  0  0
    8.4044  -14.4130   20.1137 C   0  0  0  0  0  0  0  0  0  0  0  0
    6.9602  -14.7222   20.4104 C   0  0  0  0  0  0  0  0  0  0  0  0
    6.7266  -15.3128   21.7480 C   0  0  0  0  0  0  0  0  0  0  0  0
    7.3617  -16.6258   22.0329 C   0  0  2  0  0  0  0  0  0  0  0  0
    6.9455  -17.6210   21.0723 N   0  0  0  0  0  0  0  0  0  0  0  0
    7.0215  -17.0447   23.4203 C   0  0  0  0  0  0  0  0  0  0  0  0
    5.9479  -17.6833   23.5742 O   0  0  0  0  0  0  0  0  0  0  0  0
    8.3520  -15.1163   16.1740 N   0  0  0  0  0  0  0  0  0  0  0  0
    7.8520  -16.7494   24.5278 C   0  0  0  0  0  0  0  0  0  0  0  0
    7.4749  -17.1951   25.8170 C   0  0  0  0  0  0  0  0  0  0  0  0
    8.4142  -16.8904   26.8939 O   0  0  0  0  0  0  0  0  0  0  0  0
    8.2523  -17.2115   28.0993 O   0  0  0  0  0  0  0  0  0  0  0  0
    5.4097  -12.1471   26.3120 C   0  0  0  0  0  0  0  0  0  0  0  0
    6.6661  -12.6546   26.6583 C   0  0  0  0  0  0  0  0  0  0  0  0
    7.3942  -13.3223   25.7002 C   0  0  0  0  0  0  0  0  0  0  0  0
    8.6319  -13.8203   26.0470 C   0  0  0  0  0  0  0  0  0  0  0  0
    9.1447  -13.6631   27.3181 C   0  0  0  0  0  0  0  0  0  0  0  0
   10.4637  -14.2120   27.6324 C   0  0  1  0  0  0  0  0  0  0  0  0
   10.5549  -15.7079   27.5023 N   0  0  0  0  0  0  0  0  0  0  0  0
    9.5954  -16.1753   26.5295 C   0  0  0  0  0  0  0  0  0  0  0  0
   10.4162  -16.4132   28.7801 O   0  0  0  0  0  0  0  0  0  0  0  0
   11.1766  -16.1306   29.7256 C   0  0  0  0  0  0  0  0  0  0  0  0
    8.4085  -12.9955   28.2633 C   0  0  0  0  0  0  0  0  0  0  0  0
    7.1653  -12.4856   27.9448 O   0  0  0  0  0  0  0  0  0  0  0  0
  2  4  1  0
  2  1  1  0
  3  2  2  0
  5  4  1  0
  6  5  1  0
  7  8  1  0
  7  6  1  0
  8  9  1  6
 10  8  1  0
 10 12  1  0
 11 10  2  0
 13 12  1  0
 14 15  2  0
 14 13  1  0
 16 17  1  0
 17 18  2  0
 18 19  1  0
 20 21  1  0
 20 19  2  0
 22 23  1  0
 22 21  1  6
 23 14  1  0
 24 22  1  0
 25 24  2  0
 26 20  1  0
 27 26  2  0
 27 17  1  0
 28 24  1  0
M  END
$$$$
