RGY.pdb
     RDKit          3D

 28 28  0  0  1  0  0  0  0  0999 V2000
    8.1126  -13.4475   15.5371 N   0  0  0  0  0  0  0  0  0  0  0  0
    8.4381  -13.9947   16.8207 C   0  0  0  0  0  0  0  0  0  0  0  0
    8.9184  -15.1769   16.9145 N   0  0  0  0  0  0  0  0  0  0  0  0
    8.2037  -13.1707   17.9584 N   0  0  0  0  0  0  0  0  0  0  0  0
    8.4121  -13.7665   19.2714 C   0  0  0  0  0  0  0  0  0  0  0  0
    7.0946  -14.3277   19.7390 C   0  0  0  0  0  0  0  0  0  0  0  0
    7.1608  -15.0337   21.0389 C   0  0  0  0  0  0  0  0  0  0  0  0
    8.4895  -15.5384   21.4728 C   0  0  2  0  0  0  0  0  0  0  0  0
    8.9032  -16.6643   20.6678 N   0  0  0  0  0  0  0  0  0  0  0  0
    8.4289  -15.9039   22.9145 C   0  0  0  0  0  0  0  0  0  0  0  0
    7.9981  -15.0252   23.7062 O   0  0  0  0  0  0  0  0  0  0  0  0
    9.1442  -15.5849   17.8455 N   0  0  0  0  0  0  0  0  0  0  0  0
    8.8314  -17.1735   23.3937 C   0  0  0  0  0  0  0  0  0  0  0  0
    8.7940  -17.4349   24.7840 C   0  0  0  0  0  0  0  0  0  0  0  0
    9.7154  -16.6501   25.6025 O   0  0  0  0  0  0  0  0  0  0  0  0
   10.7757  -16.1202   25.1814 O   0  0  0  0  0  0  0  0  0  0  0  0
    6.3473  -11.7289   24.5923 C   0  0  0  0  0  0  0  0  0  0  0  0
    7.0956  -12.4277   25.5451 C   0  0  0  0  0  0  0  0  0  0  0  0
    6.4430  -13.3021   26.3837 C   0  0  0  0  0  0  0  0  0  0  0  0
    7.1855  -13.9882   27.3209 C   0  0  0  0  0  0  0  0  0  0  0  0
    8.5499  -13.8157   27.4304 C   0  0  0  0  0  0  0  0  0  0  0  0
    9.2892  -14.5691   28.4431 C   0  0  2  0  0  0  0  0  0  0  0  0
   10.1444  -15.6741   27.8860 N   0  0  0  0  0  0  0  0  0  0  0  0
    9.3680  -16.4851   26.9778 C   0  0  0  0  0  0  0  0  0  0  0  0
   10.7905  -16.4884   28.9200 O   0  0  0  0  0  0  0  0  0  0  0  0
   10.5596  -17.7114   28.9747 C   0  0  0  0  0  0  0  0  0  0  0  0
    9.1876  -12.9410   26.5882 C   0  0  0  0  0  0  0  0  0  0  0  0
    8.4699  -12.2398   25.6395 O   0  0  0  0  0  0  0  0  0  0  0  0
  2  4  1  0
  2  1  1  0
  3  2  2  0
  5  4  1  0
  6  5  1  0
  7  8  1  0
  7  6  1  0
  8  9  1  6
 10  8  1  0
 10 12  1  0
 11 10  2  0
 13 12  1  0
 14 15  2  0
 14 13  1  0
 16 17  1  0
 17 18  2  0
 18 19  1  0
 20 21  1  0
 20 19  2  0
 22 23  1  0
 22 21  1  6
 23 14  1  0
 24 22  1  0
 25 24  2  0
 26 20  1  0
 27 26  2  0
 27 17  1  0
 28 24  1  0
M  END
$$$$
