RGY.pdb
     RDKit          3D

 28 28  0  0  1  0  0  0  0  0999 V2000
    9.8338  -14.0188   18.4500 N   0  0  0  0  0  0  0  0  0  0  0  0
    8.6748  -13.5213   17.7702 C   0  0  0  0  0  0  0  0  0  0  0  0
    8.6562  -13.4539   16.4926 N   0  0  0  0  0  0  0  0  0  0  0  0
    7.5718  -13.1159   18.5748 N   0  0  0  0  0  0  0  0  0  0  0  0
    6.9481  -14.1287   19.4158 C   0  0  0  0  0  0  0  0  0  0  0  0
    7.7632  -14.2486   20.6770 C   0  0  0  0  0  0  0  0  0  0  0  0
    7.2624  -15.2640   21.6313 C   0  0  0  0  0  0  0  0  0  0  0  0
    7.8158  -16.6384   21.5157 C   0  0  2  0  0  0  0  0  0  0  0  0
    6.8091  -17.5638   21.0501 N   0  0  0  0  0  0  0  0  0  0  0  0
    8.3624  -17.0599   22.8346 C   0  0  0  0  0  0  0  0  0  0  0  0
    7.5284  -17.2842   23.7503 O   0  0  0  0  0  0  0  0  0  0  0  0
    7.8241  -13.0754   15.9939 N   0  0  0  0  0  0  0  0  0  0  0  0
    9.7504  -17.2076   23.0691 C   0  0  0  0  0  0  0  0  0  0  0  0
   10.2446  -17.1181   24.3922 C   0  0  0  0  0  0  0  0  0  0  0  0
    9.9854  -15.8567   25.0827 O   0  0  0  0  0  0  0  0  0  0  0  0
    9.0601  -15.0561   24.7907 O   0  0  0  0  0  0  0  0  0  0  0  0
    5.7830  -11.3240   25.9229 C   0  0  0  0  0  0  0  0  0  0  0  0
    6.5745  -12.3951   26.3498 C   0  0  0  0  0  0  0  0  0  0  0  0
    6.2849  -13.6563   25.8814 C   0  0  0  0  0  0  0  0  0  0  0  0
    7.0682  -14.7084   26.3054 C   0  0  0  0  0  0  0  0  0  0  0  0
    8.1209  -14.5211   27.1774 C   0  0  0  0  0  0  0  0  0  0  0  0
    8.9197  -15.6730   27.5952 C   0  0  2  0  0  0  0  0  0  0  0  0
   10.4056  -15.4468   27.5334 N   0  0  0  0  0  0  0  0  0  0  0  0
   10.8578  -15.5283   26.1644 C   0  0  0  0  0  0  0  0  0  0  0  0
   11.1681  -16.3425   28.4086 O   0  0  0  0  0  0  0  0  0  0  0  0
   11.1035  -16.1986   29.6443 C   0  0  0  0  0  0  0  0  0  0  0  0
    8.3984  -13.2588   27.6364 C   0  0  0  0  0  0  0  0  0  0  0  0
    7.6309  -12.1856   27.2290 O   0  0  0  0  0  0  0  0  0  0  0  0
  2  4  1  0
  2  1  1  0
  3  2  2  0
  5  4  1  0
  6  5  1  0
  7  8  1  0
  7  6  1  0
  8  9  1  1
 10  8  1  0
 10 12  1  0
 11 10  2  0
 13 12  1  0
 14 15  2  0
 14 13  1  0
 16 17  1  0
 17 18  2  0
 18 19  1  0
 20 21  1  0
 20 19  2  0
 22 23  1  0
 22 21  1  6
 23 14  1  0
 24 22  1  0
 25 24  2  0
 26 20  1  0
 27 26  2  0
 27 17  1  0
 28 24  1  0
M  END
$$$$
