RGY.pdb
     RDKit          3D

 28 28  0  0  1  0  0  0  0  0999 V2000
    8.2558  -15.0121   16.4994 N   0  0  0  0  0  0  0  0  0  0  0  0
    7.8130  -13.6496   16.5223 C   0  0  0  0  0  0  0  0  0  0  0  0
    7.6668  -13.0009   15.4291 N   0  0  0  0  0  0  0  0  0  0  0  0
    7.5509  -13.0712   17.7971 N   0  0  0  0  0  0  0  0  0  0  0  0
    7.5761  -13.9577   18.9528 C   0  0  0  0  0  0  0  0  0  0  0  0
    8.9452  -14.5817   19.0272 C   0  0  0  0  0  0  0  0  0  0  0  0
    9.4493  -14.7810   20.4052 C   0  0  0  0  0  0  0  0  0  0  0  0
    9.9099  -16.1458   20.7710 C   0  0  2  0  0  0  0  0  0  0  0  0
    8.7910  -17.0478   20.9159 N   0  0  0  0  0  0  0  0  0  0  0  0
   10.7072  -16.0746   22.0261 C   0  0  0  0  0  0  0  0  0  0  0  0
   11.6491  -15.2403   22.0548 O   0  0  0  0  0  0  0  0  0  0  0  0
    7.4113  -11.9915   15.4420 N   0  0  0  0  0  0  0  0  0  0  0  0
   10.4358  -16.8970   23.1457 C   0  0  0  0  0  0  0  0  0  0  0  0
   11.2507  -16.7926   24.2979 C   0  0  0  0  0  0  0  0  0  0  0  0
   10.5417  -16.6100   25.5624 O   0  0  0  0  0  0  0  0  0  0  0  0
   11.0461  -16.7914   26.7004 O   0  0  0  0  0  0  0  0  0  0  0  0
    6.6254  -10.4770   25.9775 C   0  0  0  0  0  0  0  0  0  0  0  0
    6.6734  -11.8745   26.0037 C   0  0  0  0  0  0  0  0  0  0  0  0
    6.8198  -12.5513   24.8144 C   0  0  0  0  0  0  0  0  0  0  0  0
    6.8665  -13.9286   24.8461 C   0  0  0  0  0  0  0  0  0  0  0  0
    6.7705  -14.6287   26.0310 C   0  0  0  0  0  0  0  0  0  0  0  0
    6.8257  -16.0903   26.0071 C   0  0  2  0  0  0  0  0  0  0  0  0
    8.1626  -16.6622   26.3920 N   0  0  0  0  0  0  0  0  0  0  0  0
    9.1779  -16.1953   25.4773 C   0  0  0  0  0  0  0  0  0  0  0  0
    8.1619  -18.1246   26.4978 O   0  0  0  0  0  0  0  0  0  0  0  0
    8.3473  -18.8162   25.4784 C   0  0  0  0  0  0  0  0  0  0  0  0
    6.6250  -13.9416   27.2090 C   0  0  0  0  0  0  0  0  0  0  0  0
    6.5750  -12.5616   27.2083 O   0  0  0  0  0  0  0  0  0  0  0  0
  2  4  1  0
  2  1  1  0
  3  2  2  0
  5  4  1  0
  6  5  1  0
  7  8  1  0
  7  6  1  0
  8  9  1  1
 10  8  1  0
 10 12  1  0
 11 10  2  0
 13 12  1  0
 14 15  2  0
 14 13  1  0
 16 17  1  0
 17 18  2  0
 18 19  1  0
 20 21  1  0
 20 19  2  0
 22 23  1  0
 22 21  1  1
 23 14  1  0
 24 22  1  0
 25 24  2  0
 26 20  1  0
 27 26  2  0
 27 17  1  0
 28 24  1  0
M  END
$$$$
