RGY.pdb
     RDKit          3D

 28 28  0  0  1  0  0  0  0  0999 V2000
    0.8971  -21.4641   20.3045 N   0  0  0  0  0  0  0  0  0  0  0  0
    0.5474  -20.1248   20.6744 C   0  0  0  0  0  0  0  0  0  0  0  0
   -0.6735  -19.7438   20.6377 N   0  0  0  0  0  0  0  0  0  0  0  0
    1.6073  -19.2621   21.0753 N   0  0  0  0  0  0  0  0  0  0  0  0
    2.9614  -19.7973   21.0270 C   0  0  0  0  0  0  0  0  0  0  0  0
    3.8148  -18.8271   20.2527 C   0  0  0  0  0  0  0  0  0  0  0  0
    4.7723  -18.0614   21.0831 C   0  0  0  0  0  0  0  0  0  0  0  0
    6.1467  -18.6103   21.2187 C   0  0  2  0  0  0  0  0  0  0  0  0
    6.2818  -19.3706   22.4395 N   0  0  0  0  0  0  0  0  0  0  0  0
    7.1284  -17.4923   21.1720 C   0  0  0  0  0  0  0  0  0  0  0  0
    7.2846  -16.9188   20.0625 O   0  0  0  0  0  0  0  0  0  0  0  0
   -0.9436  -18.7969   20.9764 N   0  0  0  0  0  0  0  0  0  0  0  0
    7.8619  -17.0779   22.3093 C   0  0  0  0  0  0  0  0  0  0  0  0
    8.7042  -15.9443   22.2174 C   0  0  0  0  0  0  0  0  0  0  0  0
    9.3963  -15.5664   23.4475 O   0  0  0  0  0  0  0  0  0  0  0  0
   10.2984  -14.6930   23.5237 O   0  0  0  0  0  0  0  0  0  0  0  0
    5.5559  -11.2879   26.3592 C   0  0  0  0  0  0  0  0  0  0  0  0
    6.3633  -12.4176   26.5261 C   0  0  0  0  0  0  0  0  0  0  0  0
    5.8344  -13.6544   26.2355 C   0  0  0  0  0  0  0  0  0  0  0  0
    6.6347  -14.7644   26.4018 C   0  0  0  0  0  0  0  0  0  0  0  0
    7.9360  -14.6579   26.8475 C   0  0  0  0  0  0  0  0  0  0  0  0
    8.7411  -15.8688   27.0065 C   0  0  2  0  0  0  0  0  0  0  0  0
    9.7162  -16.1112   25.8871 N   0  0  0  0  0  0  0  0  0  0  0  0
    9.0049  -16.2507   24.6382 C   0  0  0  0  0  0  0  0  0  0  0  0
   10.6106  -17.2474   26.1294 O   0  0  0  0  0  0  0  0  0  0  0  0
   10.5980  -18.2186   25.3494 C   0  0  0  0  0  0  0  0  0  0  0  0
    8.4504  -13.4191   27.1335 C   0  0  0  0  0  0  0  0  0  0  0  0
    7.6723  -12.2892   26.9764 O   0  0  0  0  0  0  0  0  0  0  0  0
  2  4  1  0
  2  1  1  0
  3  2  2  0
  5  4  1  0
  6  5  1  0
  7  8  1  0
  7  6  1  0
  8  9  1  1
 10  8  1  0
 10 12  1  0
 11 10  2  0
 13 12  1  0
 14 15  2  0
 14 13  1  0
 16 17  1  0
 17 18  2  0
 18 19  1  0
 20 21  1  0
 20 19  2  0
 22 23  1  0
 22 21  1  6
 23 14  1  0
 24 22  1  0
 25 24  2  0
 26 20  1  0
 27 26  2  0
 27 17  1  0
 28 24  1  0
M  END
$$$$
