RGY.pdb
     RDKit          3D

 28 28  0  0  1  0  0  0  0  0999 V2000
    9.6754  -14.3197   15.7260 N   0  0  0  0  0  0  0  0  0  0  0  0
    8.2924  -14.4255   15.3667 C   0  0  0  0  0  0  0  0  0  0  0  0
    7.9379  -15.1517   14.3747 N   0  0  0  0  0  0  0  0  0  0  0  0
    7.3570  -13.6960   16.1549 N   0  0  0  0  0  0  0  0  0  0  0  0
    7.2032  -14.0914   17.5485 C   0  0  0  0  0  0  0  0  0  0  0  0
    8.3146  -13.4491   18.3369 C   0  0  0  0  0  0  0  0  0  0  0  0
    8.3301  -13.8107   19.7728 C   0  0  0  0  0  0  0  0  0  0  0  0
    8.4516  -15.2528   20.1105 C   0  0  2  0  0  0  0  0  0  0  0  0
    7.2112  -15.7653   20.6446 N   0  0  0  0  0  0  0  0  0  0  0  0
    9.5685  -15.4381   21.0771 C   0  0  0  0  0  0  0  0  0  0  0  0
   10.7343  -15.2486   20.6420 O   0  0  0  0  0  0  0  0  0  0  0  0
    6.9388  -15.2032   14.0859 N   0  0  0  0  0  0  0  0  0  0  0  0
    9.3518  -15.8093   22.4257 C   0  0  0  0  0  0  0  0  0  0  0  0
   10.4355  -15.7845   23.3355 C   0  0  0  0  0  0  0  0  0  0  0  0
   10.1104  -16.1230   24.7192 O   0  0  0  0  0  0  0  0  0  0  0  0
   10.9335  -16.1216   25.6705 O   0  0  0  0  0  0  0  0  0  0  0  0
    6.8935  -10.6310   25.7531 C   0  0  0  0  0  0  0  0  0  0  0  0
    6.8867  -12.0165   25.9437 C   0  0  0  0  0  0  0  0  0  0  0  0
    7.9821  -12.6062   26.5322 C   0  0  0  0  0  0  0  0  0  0  0  0
    7.9701  -13.9720   26.7177 C   0  0  0  0  0  0  0  0  0  0  0  0
    6.8955  -14.7454   26.3295 C   0  0  0  0  0  0  0  0  0  0  0  0
    6.9354  -16.1910   26.5498 C   0  0  2  0  0  0  0  0  0  0  0  0
    8.2846  -16.8127   26.3135 N   0  0  0  0  0  0  0  0  0  0  0  0
    8.7540  -16.4784   24.9894 C   0  0  0  0  0  0  0  0  0  0  0  0
    8.3077  -18.2602   26.5454 O   0  0  0  0  0  0  0  0  0  0  0  0
    8.5370  -19.0328   25.5955 C   0  0  0  0  0  0  0  0  0  0  0  0
    5.8103  -14.1448   25.7441 C   0  0  0  0  0  0  0  0  0  0  0  0
    5.7941  -12.7783   25.5455 O   0  0  0  0  0  0  0  0  0  0  0  0
  2  4  1  0
  2  1  1  0
  3  2  2  0
  5  4  1  0
  6  5  1  0
  7  8  1  0
  7  6  1  0
  8  9  1  1
 10  8  1  0
 10 12  1  0
 11 10  2  0
 13 12  1  0
 14 15  2  0
 14 13  1  0
 16 17  1  0
 17 18  2  0
 18 19  1  0
 20 21  1  0
 20 19  2  0
 22 23  1  0
 22 21  1  1
 23 14  1  0
 24 22  1  0
 25 24  2  0
 26 20  1  0
 27 26  2  0
 27 17  1  0
 28 24  1  0
M  END
$$$$
