CCT.pdb
     RDKit          3D

 20 19  0  0  1  0  0  0  0  0999 V2000
   23.8704  -13.0937  -18.5425 N   0  0  0  0  0  0  0  0  0  0  0  0
   24.2004  -11.6889  -18.4054 C   0  0  1  0  0  0  0  0  0  0  0  0
   24.8903  -11.1804  -19.6557 C   0  0  0  0  0  0  0  0  0  0  0  0
   26.5721  -11.8989  -19.6421 S   0  0  0  0  0  0  0  0  0  0  0  0
   23.0011  -10.8788  -18.0648 C   0  0  0  0  0  0  0  0  0  0  0  0
   21.9360  -11.0312  -18.7143 O   0  0  0  0  0  0  0  0  0  0  0  0
   22.9947   -9.9116  -17.0119 N   0  0  0  0  0  0  0  0  0  0  0  0
   21.8086   -9.1189  -16.7526 C   0  0  1  0  0  0  0  0  0  0  0  0
   21.5034   -9.1032  -15.2555 C   0  0  0  0  0  0  0  0  0  0  0  0
   20.0418   -8.0930  -14.8955 S   0  0  0  0  0  0  0  0  0  0  0  0
   21.9893   -7.7098  -17.1786 C   0  0  0  0  0  0  0  0  0  0  0  0
   23.0206   -7.0935  -16.8123 O   0  0  0  0  0  0  0  0  0  0  0  0
   20.5846   -3.7538  -19.8665 C   0  0  0  0  0  0  0  0  0  0  0  0
   20.3414   -5.1564  -19.4302 C   0  0  1  0  0  0  0  0  0  0  0  0
   20.5636   -6.0289  -20.5130 O   0  0  0  0  0  0  0  0  0  0  0  0
   21.2322   -5.6212  -18.3128 C   0  0  2  0  0  0  0  0  0  0  0  0
   21.0566   -7.0101  -17.9836 N   0  0  0  0  0  0  0  0  0  0  0  0
   21.0814   -4.7968  -17.0928 C   0  0  0  0  0  0  0  0  0  0  0  0
   21.8426   -3.8182  -16.8778 O   0  0  0  0  0  0  0  0  0  0  0  0
   20.1055   -5.0620  -16.1417 O   0  0  0  0  0  0  0  0  0  0  0  0
  2  3  1  0
  2  1  1  6
  4  3  1  0
  5  6  2  0
  5  2  1  0
  7  5  1  0
  8  7  1  0
  9 10  1  0
  8  9  1  1
 11  8  1  0
 11 12  2  0
 14 13  1  6
 14 15  1  0
 16 17  1  1
 16 14  1  0
 17 11  1  0
 18 16  1  0
 19 18  2  0
 20 18  1  0
M  END
$$$$
