CCT.pdb
     RDKit          3D

 20 19  0  0  1  0  0  0  0  0999 V2000
   19.7424  -11.9045  -15.3622 N   0  0  0  0  0  0  0  0  0  0  0  0
   19.9684  -10.8460  -16.3263 C   0  0  1  0  0  0  0  0  0  0  0  0
   18.9542  -10.9250  -17.4501 C   0  0  0  0  0  0  0  0  0  0  0  0
   19.4838  -12.3082  -18.5231 S   0  0  0  0  0  0  0  0  0  0  0  0
   19.9728   -9.5091  -15.6757 C   0  0  0  0  0  0  0  0  0  0  0  0
   18.9147   -9.0516  -15.1749 O   0  0  0  0  0  0  0  0  0  0  0  0
   21.1454   -8.6959  -15.5872 N   0  0  0  0  0  0  0  0  0  0  0  0
   21.0743   -7.3684  -15.0084 C   0  0  1  0  0  0  0  0  0  0  0  0
   22.2031   -7.1744  -13.9971 C   0  0  0  0  0  0  0  0  0  0  0  0
   22.2562   -5.4654  -13.3944 S   0  0  0  0  0  0  0  0  0  0  0  0
   21.2234   -6.3137  -16.0405 C   0  0  0  0  0  0  0  0  0  0  0  0
   22.2556   -6.3080  -16.7563 O   0  0  0  0  0  0  0  0  0  0  0  0
   18.8102   -5.3402  -18.9609 C   0  0  0  0  0  0  0  0  0  0  0  0
   19.1838   -4.1465  -18.1534 C   0  0  1  0  0  0  0  0  0  0  0  0
   18.1355   -3.8341  -17.2666 O   0  0  0  0  0  0  0  0  0  0  0  0
   20.4178   -4.3267  -17.3151 C   0  0  2  0  0  0  0  0  0  0  0  0
   20.2594   -5.3008  -16.2690 N   0  0  0  0  0  0  0  0  0  0  0  0
   20.8985   -3.0506  -16.7394 C   0  0  0  0  0  0  0  0  0  0  0  0
   20.8788   -2.8561  -15.4965 O   0  0  0  0  0  0  0  0  0  0  0  0
   21.3868   -2.0227  -17.5345 O   0  0  0  0  0  0  0  0  0  0  0  0
  2  3  1  0
  2  1  1  1
  4  3  1  0
  5  6  2  0
  5  2  1  0
  7  5  1  0
  8  7  1  0
  9 10  1  0
  8  9  1  1
 11  8  1  0
 11 12  2  0
 14 13  1  1
 14 15  1  0
 16 17  1  1
 16 14  1  0
 17 11  1  0
 18 16  1  0
 19 18  2  0
 20 18  1  0
M  END
$$$$
