CCT.pdb
     RDKit          3D

 20 19  0  0  1  0  0  0  0  0999 V2000
   19.7268  -11.7616  -18.1471 N   0  0  0  0  0  0  0  0  0  0  0  0
   18.9958  -11.6369  -16.9016 C   0  0  1  0  0  0  0  0  0  0  0  0
   18.9371  -12.9707  -16.1837 C   0  0  0  0  0  0  0  0  0  0  0  0
   18.4033  -14.2001  -17.4282 S   0  0  0  0  0  0  0  0  0  0  0  0
   19.5665  -10.5678  -16.0403 C   0  0  0  0  0  0  0  0  0  0  0  0
   19.0976  -10.3709  -14.8909 O   0  0  0  0  0  0  0  0  0  0  0  0
   20.6470   -9.7308  -16.4600 N   0  0  0  0  0  0  0  0  0  0  0  0
   21.2368   -8.7788  -15.5390 C   0  0  1  0  0  0  0  0  0  0  0  0
   22.7540   -8.9550  -15.5003 C   0  0  0  0  0  0  0  0  0  0  0  0
   23.2157  -10.4630  -14.6062 S   0  0  0  0  0  0  0  0  0  0  0  0
   20.9676   -7.3801  -15.9523 C   0  0  0  0  0  0  0  0  0  0  0  0
   21.1603   -7.0544  -17.1500 O   0  0  0  0  0  0  0  0  0  0  0  0
   17.6988   -5.6544  -15.9853 C   0  0  0  0  0  0  0  0  0  0  0  0
   18.6574   -4.7658  -15.2723 C   0  0  1  0  0  0  0  0  0  0  0  0
   18.4634   -4.8866  -13.8828 O   0  0  0  0  0  0  0  0  0  0  0  0
   20.1039   -5.0777  -15.5340 C   0  0  2  0  0  0  0  0  0  0  0  0
   20.5006   -6.3784  -15.0658 N   0  0  0  0  0  0  0  0  0  0  0  0
   21.0111   -4.0493  -14.9771 C   0  0  0  0  0  0  0  0  0  0  0  0
   21.8314   -4.3375  -14.0676 O   0  0  0  0  0  0  0  0  0  0  0  0
   20.9986   -2.7360  -15.4270 O   0  0  0  0  0  0  0  0  0  0  0  0
  2  3  1  0
  2  1  1  6
  4  3  1  0
  5  6  2  0
  5  2  1  0
  7  5  1  0
  8  7  1  0
  9 10  1  0
  8  9  1  6
 11  8  1  0
 11 12  2  0
 14 13  1  6
 14 15  1  0
 16 17  1  1
 16 14  1  0
 17 11  1  0
 18 16  1  0
 19 18  2  0
 20 18  1  0
M  END
$$$$
