CCT.pdb
     RDKit          3D

 20 19  0  0  1  0  0  0  0  0999 V2000
   18.7401  -10.9186  -14.9191 N   0  0  0  0  0  0  0  0  0  0  0  0
   18.3411   -9.6292  -15.4475 C   0  0  1  0  0  0  0  0  0  0  0  0
   16.8308   -9.5368  -15.5403 C   0  0  0  0  0  0  0  0  0  0  0  0
   16.3241  -10.7124  -16.8465 S   0  0  0  0  0  0  0  0  0  0  0  0
   18.9175   -8.5130  -14.6521 C   0  0  0  0  0  0  0  0  0  0  0  0
   18.3727   -8.1638  -13.5747 O   0  0  0  0  0  0  0  0  0  0  0  0
   20.0874   -7.7981  -15.0576 N   0  0  0  0  0  0  0  0  0  0  0  0
   20.5867   -6.6967  -14.2576 C   0  0  1  0  0  0  0  0  0  0  0  0
   22.0056   -6.9968  -13.7768 C   0  0  0  0  0  0  0  0  0  0  0  0
   22.7069   -5.5840  -12.8830 S   0  0  0  0  0  0  0  0  0  0  0  0
   20.6449   -5.4369  -15.0382 C   0  0  0  0  0  0  0  0  0  0  0  0
   21.3188   -5.4112  -16.0980 O   0  0  0  0  0  0  0  0  0  0  0  0
   17.5805   -3.3761  -16.3140 C   0  0  0  0  0  0  0  0  0  0  0  0
   18.5728   -2.4905  -15.6449 C   0  0  1  0  0  0  0  0  0  0  0  0
   18.1301   -2.1912  -14.3421 O   0  0  0  0  0  0  0  0  0  0  0  0
   19.9441   -3.0893  -15.5069 C   0  0  2  0  0  0  0  0  0  0  0  0
   19.9777   -4.2473  -14.6547 N   0  0  0  0  0  0  0  0  0  0  0  0
   20.9457   -2.1018  -15.0459 C   0  0  0  0  0  0  0  0  0  0  0  0
   21.5378   -2.2497  -13.9456 O   0  0  0  0  0  0  0  0  0  0  0  0
   21.2736   -0.9812  -15.7969 O   0  0  0  0  0  0  0  0  0  0  0  0
  2  3  1  0
  2  1  1  1
  4  3  1  0
  5  6  2  0
  5  2  1  0
  7  5  1  0
  8  7  1  0
  9 10  1  0
  8  9  1  6
 11  8  1  0
 11 12  2  0
 14 13  1  1
 14 15  1  0
 16 17  1  1
 16 14  1  0
 17 11  1  0
 18 16  1  0
 19 18  2  0
 20 18  1  0
M  END
$$$$
