CCT.pdb
     RDKit          3D

 20 19  0  0  1  0  0  0  0  0999 V2000
   24.5145  -16.2347  -16.5021 N   0  0  0  0  0  0  0  0  0  0  0  0
   24.6264  -14.9971  -15.7559 C   0  0  1  0  0  0  0  0  0  0  0  0
   25.9858  -14.3639  -15.9771 C   0  0  0  0  0  0  0  0  0  0  0  0
   27.1391  -15.2145  -14.8406 S   0  0  0  0  0  0  0  0  0  0  0  0
   23.5184  -14.0615  -16.0842 C   0  0  0  0  0  0  0  0  0  0  0  0
   23.1990  -13.8635  -17.2835 O   0  0  0  0  0  0  0  0  0  0  0  0
   22.7786  -13.3575  -15.0836 N   0  0  0  0  0  0  0  0  0  0  0  0
   21.7416  -12.4183  -15.4644 C   0  0  1  0  0  0  0  0  0  0  0  0
   20.4648  -12.6948  -14.6719 C   0  0  0  0  0  0  0  0  0  0  0  0
   19.1956  -11.4477  -15.0188 S   0  0  0  0  0  0  0  0  0  0  0  0
   22.1407  -11.0185  -15.1795 C   0  0  0  0  0  0  0  0  0  0  0  0
   22.6863  -10.7560  -14.0789 O   0  0  0  0  0  0  0  0  0  0  0  0
   23.9300   -8.2945  -17.7116 C   0  0  0  0  0  0  0  0  0  0  0  0
   22.7240   -7.8015  -16.9909 C   0  0  1  0  0  0  0  0  0  0  0  0
   21.6127   -7.8427  -17.8548 O   0  0  0  0  0  0  0  0  0  0  0  0
   22.3556   -8.6062  -15.7765 C   0  0  2  0  0  0  0  0  0  0  0  0
   21.9406   -9.9481  -16.0858 N   0  0  0  0  0  0  0  0  0  0  0  0
   21.3203   -7.9414  -14.9536 C   0  0  0  0  0  0  0  0  0  0  0  0
   20.1670   -8.4330  -14.8478 O   0  0  0  0  0  0  0  0  0  0  0  0
   21.5713   -6.7598  -14.2695 O   0  0  0  0  0  0  0  0  0  0  0  0
  2  3  1  0
  2  1  1  6
  4  3  1  0
  5  6  2  0
  5  2  1  0
  7  5  1  0
  8  7  1  0
  9 10  1  0
  8  9  1  1
 11  8  1  0
 11 12  2  0
 14 13  1  6
 14 15  1  0
 16 17  1  6
 16 14  1  0
 17 11  1  0
 18 16  1  0
 19 18  2  0
 20 18  1  0
M  END
$$$$
