CCT.pdb
     RDKit          3D

 20 19  0  0  1  0  0  0  0  0999 V2000
   16.1739  -14.2284  -16.2774 N   0  0  0  0  0  0  0  0  0  0  0  0
   17.3771  -13.5527  -15.8339 C   0  0  1  0  0  0  0  0  0  0  0  0
   18.6063  -14.3613  -16.1990 C   0  0  0  0  0  0  0  0  0  0  0  0
   18.7728  -15.6508  -14.9127 S   0  0  0  0  0  0  0  0  0  0  0  0
   17.4486  -12.1650  -16.3629 C   0  0  0  0  0  0  0  0  0  0  0  0
   17.1002  -11.9262  -17.5466 O   0  0  0  0  0  0  0  0  0  0  0  0
   17.9037  -11.0604  -15.5775 N   0  0  0  0  0  0  0  0  0  0  0  0
   17.9660   -9.7301  -16.1510 C   0  0  1  0  0  0  0  0  0  0  0  0
   16.6351   -9.0073  -15.9489 C   0  0  0  0  0  0  0  0  0  0  0  0
   15.9951   -9.2695  -14.2731 S   0  0  0  0  0  0  0  0  0  0  0  0
   19.0160   -8.9054  -15.5052 C   0  0  0  0  0  0  0  0  0  0  0  0
   19.1965   -9.0151  -14.2670 O   0  0  0  0  0  0  0  0  0  0  0  0
   22.8396   -8.7989  -16.2214 C   0  0  0  0  0  0  0  0  0  0  0  0
   22.2306   -7.4429  -16.3052 C   0  0  1  0  0  0  0  0  0  0  0  0
   21.9720   -7.1281  -17.6531 O   0  0  0  0  0  0  0  0  0  0  0  0
   20.9263   -7.3029  -15.5722 C   0  0  2  0  0  0  0  0  0  0  0  0
   19.8366   -7.9909  -16.2107 N   0  0  0  0  0  0  0  0  0  0  0  0
   20.5576   -5.8875  -15.3449 C   0  0  0  0  0  0  0  0  0  0  0  0
   19.5574   -5.3820  -15.9171 O   0  0  0  0  0  0  0  0  0  0  0  0
   21.2891   -5.0633  -14.5007 O   0  0  0  0  0  0  0  0  0  0  0  0
  2  3  1  0
  2  1  1  6
  4  3  1  0
  5  6  2  0
  5  2  1  0
  7  5  1  0
  8  7  1  0
  9 10  1  0
  8  9  1  1
 11  8  1  0
 11 12  2  0
 14 13  1  6
 14 15  1  0
 16 17  1  6
 16 14  1  0
 17 11  1  0
 18 16  1  0
 19 18  2  0
 20 18  1  0
M  END
$$$$
