CCT.pdb
     RDKit          3D

 20 19  0  0  1  0  0  0  0  0999 V2000
   19.7589  -13.0277  -17.5350 N   0  0  0  0  0  0  0  0  0  0  0  0
   20.7302  -11.9559  -17.4409 C   0  0  1  0  0  0  0  0  0  0  0  0
   21.3984  -11.7247  -18.7818 C   0  0  0  0  0  0  0  0  0  0  0  0
   22.7583  -10.5396  -18.4799 S   0  0  0  0  0  0  0  0  0  0  0  0
   20.1176  -10.7118  -16.9044 C   0  0  0  0  0  0  0  0  0  0  0  0
   19.1172  -10.2086  -17.4749 O   0  0  0  0  0  0  0  0  0  0  0  0
   20.6184  -10.0408  -15.7454 N   0  0  0  0  0  0  0  0  0  0  0  0
   19.9724   -8.8371  -15.2596 C   0  0  1  0  0  0  0  0  0  0  0  0
   19.5563   -9.0159  -13.8003 C   0  0  0  0  0  0  0  0  0  0  0  0
   18.1939  -10.2022  -13.6482 S   0  0  0  0  0  0  0  0  0  0  0  0
   20.8826   -7.6675  -15.3165 C   0  0  0  0  0  0  0  0  0  0  0  0
   22.1204   -7.8578  -15.2197 O   0  0  0  0  0  0  0  0  0  0  0  0
   21.6706   -2.8669  -16.3901 C   0  0  0  0  0  0  0  0  0  0  0  0
   20.7469   -4.0283  -16.2684 C   0  0  1  0  0  0  0  0  0  0  0  0
   20.3333   -4.4343  -17.5518 O   0  0  0  0  0  0  0  0  0  0  0  0
   21.3523   -5.2353  -15.6091 C   0  0  2  0  0  0  0  0  0  0  0  0
   20.4331   -6.3333  -15.4753 N   0  0  0  0  0  0  0  0  0  0  0  0
   21.9456   -4.9183  -14.2907 C   0  0  0  0  0  0  0  0  0  0  0  0
   21.2554   -4.9836  -13.2406 O   0  0  0  0  0  0  0  0  0  0  0  0
   23.2740   -4.5390  -14.1538 O   0  0  0  0  0  0  0  0  0  0  0  0
  2  3  1  0
  2  1  1  6
  4  3  1  0
  5  6  2  0
  5  2  1  0
  7  5  1  0
  8  7  1  0
  9 10  1  0
  8  9  1  1
 11  8  1  0
 11 12  2  0
 14 13  1  6
 14 15  1  0
 16 17  1  1
 16 14  1  0
 17 11  1  0
 18 16  1  0
 19 18  2  0
 20 18  1  0
M  END
$$$$
