CCT.pdb
     RDKit          3D

 20 19  0  0  1  0  0  0  0  0999 V2000
   17.1929  -11.7074  -16.1548 N   0  0  0  0  0  0  0  0  0  0  0  0
   17.8254  -10.5400  -16.7363 C   0  0  1  0  0  0  0  0  0  0  0  0
   16.9357   -9.9277  -17.8000 C   0  0  0  0  0  0  0  0  0  0  0  0
   17.2378  -10.8799  -19.3320 S   0  0  0  0  0  0  0  0  0  0  0  0
   18.2051   -9.5506  -15.6935 C   0  0  0  0  0  0  0  0  0  0  0  0
   17.3284   -9.0816  -14.9247 O   0  0  0  0  0  0  0  0  0  0  0  0
   19.5476   -9.0927  -15.5142 N   0  0  0  0  0  0  0  0  0  0  0  0
   19.8553   -8.1054  -14.4978 C   0  0  1  0  0  0  0  0  0  0  0  0
   20.6034   -8.7605  -13.3377 C   0  0  0  0  0  0  0  0  0  0  0  0
   21.1613   -7.5230  -12.1359 S   0  0  0  0  0  0  0  0  0  0  0  0
   20.7252   -7.0277  -15.0285 C   0  0  0  0  0  0  0  0  0  0  0  0
   21.8002   -7.3416  -15.5974 O   0  0  0  0  0  0  0  0  0  0  0  0
   21.4508   -2.3386  -16.4590 C   0  0  0  0  0  0  0  0  0  0  0  0
   20.5738   -3.3756  -15.8487 C   0  0  1  0  0  0  0  0  0  0  0  0
   19.5815   -3.7532  -16.7736 O   0  0  0  0  0  0  0  0  0  0  0  0
   21.2895   -4.6343  -15.4469 C   0  0  2  0  0  0  0  0  0  0  0  0
   20.4115   -5.6495  -14.9304 N   0  0  0  0  0  0  0  0  0  0  0  0
   22.3790   -4.3777  -14.4785 C   0  0  0  0  0  0  0  0  0  0  0  0
   22.1278   -4.1919  -13.2597 O   0  0  0  0  0  0  0  0  0  0  0  0
   23.7114   -4.3307  -14.8657 O   0  0  0  0  0  0  0  0  0  0  0  0
  2  3  1  0
  2  1  1  1
  4  3  1  0
  5  6  2  0
  5  2  1  0
  7  5  1  0
  8  7  1  0
  9 10  1  0
  8  9  1  1
 11  8  1  0
 11 12  2  0
 14 13  1  6
 14 15  1  0
 16 17  1  1
 16 14  1  0
 17 11  1  0
 18 16  1  0
 19 18  2  0
 20 18  1  0
M  END
$$$$
