CCT.pdb
     RDKit          3D

 20 19  0  0  1  0  0  0  0  0999 V2000
   19.1875  -12.5489  -17.9972 N   0  0  0  0  0  0  0  0  0  0  0  0
   20.2848  -11.7370  -17.5097 C   0  0  1  0  0  0  0  0  0  0  0  0
   21.3233  -11.5391  -18.5960 C   0  0  0  0  0  0  0  0  0  0  0  0
   22.2461  -13.1135  -18.7168 S   0  0  0  0  0  0  0  0  0  0  0  0
   19.8020  -10.4423  -16.9609 C   0  0  0  0  0  0  0  0  0  0  0  0
   19.1003   -9.6813  -17.6738 O   0  0  0  0  0  0  0  0  0  0  0  0
   20.1007  -10.0058  -15.6326 N   0  0  0  0  0  0  0  0  0  0  0  0
   19.6227   -8.7215  -15.1586 C   0  0  1  0  0  0  0  0  0  0  0  0
   18.5738   -8.9214  -14.0658 C   0  0  0  0  0  0  0  0  0  0  0  0
   17.2895  -10.0862  -14.5956 S   0  0  0  0  0  0  0  0  0  0  0  0
   20.7191   -7.9129  -14.5723 C   0  0  0  0  0  0  0  0  0  0  0  0
   21.5195   -8.4640  -13.7764 O   0  0  0  0  0  0  0  0  0  0  0  0
   23.5484   -6.4271  -16.4003 C   0  0  0  0  0  0  0  0  0  0  0  0
   22.9475   -5.3474  -15.5696 C   0  0  1  0  0  0  0  0  0  0  0  0
   22.1155   -4.5454  -16.3743 O   0  0  0  0  0  0  0  0  0  0  0  0
   22.0999   -5.8405  -14.4310 C   0  0  2  0  0  0  0  0  0  0  0  0
   20.9191   -6.5402  -14.8603 N   0  0  0  0  0  0  0  0  0  0  0  0
   21.7245   -4.7548  -13.4976 C   0  0  0  0  0  0  0  0  0  0  0  0
   20.5383   -4.3397  -13.4352 O   0  0  0  0  0  0  0  0  0  0  0  0
   22.6522   -4.1523  -12.6588 O   0  0  0  0  0  0  0  0  0  0  0  0
  2  3  1  0
  2  1  1  6
  4  3  1  0
  5  6  2  0
  5  2  1  0
  7  5  1  0
  8  7  1  0
  9 10  1  0
  8  9  1  1
 11  8  1  0
 11 12  2  0
 14 13  1  6
 14 15  1  0
 16 17  1  6
 16 14  1  0
 17 11  1  0
 18 16  1  0
 19 18  2  0
 20 18  1  0
M  END
$$$$
