DGT.pdb
     RDKit          3D

 20 19  0  0  1  0  0  0  0  0999 V2000
   11.6278  -19.2704   21.7115 N   0  0  0  0  0  0  0  0  0  0  0  0
   12.2086  -17.9772   21.4302 C   0  0  1  0  0  0  0  0  0  0  0  0
   12.0052  -17.5461   19.9951 C   0  0  0  0  0  0  0  0  0  0  0  0
   13.0133  -18.2439   19.1532 C   0  0  0  0  0  0  0  0  0  0  0  0
   14.0006  -18.8735   19.6441 O   0  0  0  0  0  0  0  0  0  0  0  0
   11.5571  -16.9822   22.3213 C   0  0  0  0  0  0  0  0  0  0  0  0
   11.8442  -15.7366   22.2542 O   0  0  0  0  0  0  0  0  0  0  0  0
   12.8146  -18.1679   17.7680 O   0  0  0  0  0  0  0  0  0  0  0  0
   10.5892  -17.3977   23.2822 N   0  0  0  0  0  0  0  0  0  0  0  0
    9.9220  -16.4075   24.0912 C   0  0  0  0  0  0  0  0  0  0  0  0
   10.6116  -16.1765   25.3810 C   0  0  0  0  0  0  0  0  0  0  0  0
   11.8959  -16.2254   25.3812 O   0  0  0  0  0  0  0  0  0  0  0  0
    9.9579  -12.9911   27.2090 C   0  0  0  0  0  0  0  0  0  0  0  0
    9.7507  -14.1289   28.2165 C   0  0  1  0  0  0  0  0  0  0  0  0
    8.3966  -14.3942   28.3696 O   0  0  0  0  0  0  0  0  0  0  0  0
   10.5329  -15.3158   27.7083 C   0  0  2  0  0  0  0  0  0  0  0  0
    9.8893  -15.9087   26.5551 N   0  0  0  0  0  0  0  0  0  0  0  0
   10.7243  -16.3405   28.7633 C   0  0  0  0  0  0  0  0  0  0  0  0
   10.2843  -17.5137   28.6464 O   0  0  0  0  0  0  0  0  0  0  0  0
   11.4064  -16.0254   29.9278 O   0  0  0  0  0  0  0  0  0  0  0  0
  2  1  1  6
  2  3  1  0
  4  5  2  0
  4  3  1  0
  6  7  2  0
  6  2  1  0
  8  4  1  0
  9  6  1  0
 10  9  1  0
 11 10  1  0
 12 11  2  0
 14 13  1  6
 14 16  1  0
 15 14  1  0
 16 18  1  0
 16 17  1  6
 17 11  1  0
 18 20  1  0
 19 18  2  0
M  END
$$$$
