DGT.pdb
     RDKit          3D

 20 19  0  0  1  0  0  0  0  0999 V2000
   10.0542  -18.9973   21.2631 N   0  0  0  0  0  0  0  0  0  0  0  0
   10.9008  -17.8265   21.2235 C   0  0  1  0  0  0  0  0  0  0  0  0
   10.7894  -17.0700   19.9188 C   0  0  0  0  0  0  0  0  0  0  0  0
   11.5914  -17.7905   18.8942 C   0  0  0  0  0  0  0  0  0  0  0  0
   12.2138  -18.8690   19.1429 O   0  0  0  0  0  0  0  0  0  0  0  0
   10.4850  -16.9266   22.3306 C   0  0  0  0  0  0  0  0  0  0  0  0
   11.0425  -15.7887   22.5115 O   0  0  0  0  0  0  0  0  0  0  0  0
   11.6263  -17.2072   17.6204 O   0  0  0  0  0  0  0  0  0  0  0  0
    9.4463  -17.3158   23.2264 N   0  0  0  0  0  0  0  0  0  0  0  0
    8.9986  -16.3910   24.2386 C   0  0  0  0  0  0  0  0  0  0  0  0
    9.9128  -16.3442   25.4024 C   0  0  0  0  0  0  0  0  0  0  0  0
   11.0925  -16.8302   25.2468 O   0  0  0  0  0  0  0  0  0  0  0  0
   10.1498  -13.1025   27.5759 C   0  0  0  0  0  0  0  0  0  0  0  0
   10.0569  -14.3241   28.4987 C   0  0  1  0  0  0  0  0  0  0  0  0
    8.7773  -14.4313   29.0262 O   0  0  0  0  0  0  0  0  0  0  0  0
   10.4630  -15.5264   27.6810 C   0  0  2  0  0  0  0  0  0  0  0  0
    9.5072  -15.7851   26.6249 N   0  0  0  0  0  0  0  0  0  0  0  0
   10.6247  -16.7356   28.5244 C   0  0  0  0  0  0  0  0  0  0  0  0
    9.9236  -17.7674   28.3586 O   0  0  0  0  0  0  0  0  0  0  0  0
   11.5710  -16.7601   29.5364 O   0  0  0  0  0  0  0  0  0  0  0  0
  2  1  1  6
  2  3  1  0
  4  5  2  0
  4  3  1  0
  6  7  2  0
  6  2  1  0
  8  4  1  0
  9  6  1  0
 10  9  1  0
 11 10  1  0
 12 11  2  0
 14 13  1  6
 14 16  1  0
 15 14  1  0
 16 18  1  0
 16 17  1  6
 17 11  1  0
 18 20  1  0
 19 18  2  0
M  END
$$$$
