DGT.pdb
     RDKit          3D

 20 19  0  0  1  0  0  0  0  0999 V2000
   10.7868  -16.6286   20.7215 N   0  0  0  0  0  0  0  0  0  0  0  0
    9.5222  -17.0563   20.1674 C   0  0  1  0  0  0  0  0  0  0  0  0
    9.3100  -18.5491   20.2824 C   0  0  0  0  0  0  0  0  0  0  0  0
   10.5949  -19.2268   19.9638 C   0  0  0  0  0  0  0  0  0  0  0  0
   11.1764  -19.1039   18.8417 O   0  0  0  0  0  0  0  0  0  0  0  0
    8.4404  -16.3643   20.9154 C   0  0  0  0  0  0  0  0  0  0  0  0
    7.2497  -16.2902   20.4515 O   0  0  0  0  0  0  0  0  0  0  0  0
   11.1385  -20.0219   20.9819 O   0  0  0  0  0  0  0  0  0  0  0  0
    8.7082  -15.7596   22.1784 N   0  0  0  0  0  0  0  0  0  0  0  0
    7.6284  -15.1542   22.9185 C   0  0  0  0  0  0  0  0  0  0  0  0
    8.0986  -14.4803   24.1503 C   0  0  0  0  0  0  0  0  0  0  0  0
    9.3614  -14.5000   24.3891 O   0  0  0  0  0  0  0  0  0  0  0  0
    6.3484  -11.0838   25.7986 C   0  0  0  0  0  0  0  0  0  0  0  0
    6.5733  -12.2552   26.7629 C   0  0  1  0  0  0  0  0  0  0  0  0
    5.3885  -12.9523   26.9563 O   0  0  0  0  0  0  0  0  0  0  0  0
    7.6719  -13.1066   26.1737 C   0  0  2  0  0  0  0  0  0  0  0  0
    7.1996  -13.8403   25.0186 N   0  0  0  0  0  0  0  0  0  0  0  0
    8.2358  -14.0456   27.1737 C   0  0  0  0  0  0  0  0  0  0  0  0
    8.1647  -15.2944   27.0356 O   0  0  0  0  0  0  0  0  0  0  0  0
    8.8679  -13.5616   28.3080 O   0  0  0  0  0  0  0  0  0  0  0  0
  2  1  1  1
  2  3  1  0
  4  5  2  0
  4  3  1  0
  6  7  2  0
  6  2  1  0
  8  4  1  0
  9  6  1  0
 10  9  1  0
 11 10  1  0
 12 11  2  0
 14 13  1  6
 14 16  1  0
 15 14  1  0
 16 18  1  0
 16 17  1  6
 17 11  1  0
 18 20  1  0
 19 18  2  0
M  END
$$$$
