DGT.pdb
     RDKit          3D

 20 19  0  0  1  0  0  0  0  0999 V2000
   11.2385  -16.8238   21.1030 N   0  0  0  0  0  0  0  0  0  0  0  0
   10.0540  -16.9136   20.2796 C   0  0  1  0  0  0  0  0  0  0  0  0
    9.7580  -18.3286   19.8359 C   0  0  0  0  0  0  0  0  0  0  0  0
   11.0141  -19.1187   19.9345 C   0  0  0  0  0  0  0  0  0  0  0  0
   11.6188  -19.3129   21.0340 O   0  0  0  0  0  0  0  0  0  0  0  0
    8.9046  -16.4172   21.0802 C   0  0  0  0  0  0  0  0  0  0  0  0
    7.7785  -16.1463   20.5352 O   0  0  0  0  0  0  0  0  0  0  0  0
   11.5043  -19.6450   18.7316 O   0  0  0  0  0  0  0  0  0  0  0  0
    9.0327  -16.2278   22.4875 N   0  0  0  0  0  0  0  0  0  0  0  0
    7.8989  -15.7608   23.2468 C   0  0  0  0  0  0  0  0  0  0  0  0
    8.2926  -14.8410   24.3383 C   0  0  0  0  0  0  0  0  0  0  0  0
    9.5484  -14.6216   24.5017 O   0  0  0  0  0  0  0  0  0  0  0  0
    6.3195  -11.4291   25.4133 C   0  0  0  0  0  0  0  0  0  0  0  0
    6.5545  -12.4024   26.5751 C   0  0  1  0  0  0  0  0  0  0  0  0
    5.3953  -13.1171   26.8449 O   0  0  0  0  0  0  0  0  0  0  0  0
    7.7160  -13.2838   26.1839 C   0  0  2  0  0  0  0  0  0  0  0  0
    7.3302  -14.2288   25.1573 N   0  0  0  0  0  0  0  0  0  0  0  0
    8.2757  -14.0063   27.3520 C   0  0  0  0  0  0  0  0  0  0  0  0
    8.2953  -15.2628   27.4168 O   0  0  0  0  0  0  0  0  0  0  0  0
    8.8018  -13.3014   28.4229 O   0  0  0  0  0  0  0  0  0  0  0  0
  2  1  1  1
  2  3  1  0
  4  5  2  0
  4  3  1  0
  6  7  2  0
  6  2  1  0
  8  4  1  0
  9  6  1  0
 10  9  1  0
 11 10  1  0
 12 11  2  0
 14 13  1  6
 14 16  1  0
 15 14  1  0
 16 18  1  0
 16 17  1  6
 17 11  1  0
 18 20  1  0
 19 18  2  0
M  END
$$$$
