DGT.pdb
     RDKit          3D

 20 19  0  0  1  0  0  0  0  0999 V2000
   -1.4277  -26.7541   32.3251 N   0  0  0  0  0  0  0  0  0  0  0  0
   -1.7826  -27.8471   31.4485 C   0  0  1  0  0  0  0  0  0  0  0  0
   -2.1845  -29.0939   32.2039 C   0  0  0  0  0  0  0  0  0  0  0  0
   -1.0243  -29.5346   33.0235 C   0  0  0  0  0  0  0  0  0  0  0  0
   -1.1217  -29.8107   34.2591 O   0  0  0  0  0  0  0  0  0  0  0  0
   -2.9311  -27.4069   30.6144 C   0  0  0  0  0  0  0  0  0  0  0  0
   -3.3824  -28.1338   29.6624 O   0  0  0  0  0  0  0  0  0  0  0  0
    0.2016  -29.6296   32.3511 O   0  0  0  0  0  0  0  0  0  0  0  0
   -3.5608  -26.1511   30.8573 N   0  0  0  0  0  0  0  0  0  0  0  0
   -4.6629  -25.7369   30.0242 C   0  0  0  0  0  0  0  0  0  0  0  0
   -5.1979  -24.4128   30.4156 C   0  0  0  0  0  0  0  0  0  0  0  0
   -5.0183  -24.0394   31.6323 O   0  0  0  0  0  0  0  0  0  0  0  0
   -4.2618  -21.2216   28.8025 C   0  0  0  0  0  0  0  0  0  0  0  0
   -5.7939  -21.2737   28.7518 C   0  0  1  0  0  0  0  0  0  0  0  0
   -6.2203  -21.6390   27.4822 O   0  0  0  0  0  0  0  0  0  0  0  0
   -6.2381  -22.2373   29.8257 C   0  0  2  0  0  0  0  0  0  0  0  0
   -5.8691  -23.5965   29.4911 N   0  0  0  0  0  0  0  0  0  0  0  0
   -7.6990  -22.1547   30.0681 C   0  0  0  0  0  0  0  0  0  0  0  0
   -8.4824  -23.0931   29.7692 O   0  0  0  0  0  0  0  0  0  0  0  0
   -8.2490  -21.0193   30.6416 O   0  0  0  0  0  0  0  0  0  0  0  0
  2  1  1  1
  2  3  1  0
  4  5  2  0
  4  3  1  0
  6  7  2  0
  6  2  1  0
  8  4  1  0
  9  6  1  0
 10  9  1  0
 11 10  1  0
 12 11  2  0
 14 13  1  6
 14 16  1  0
 15 14  1  0
 16 18  1  0
 16 17  1  6
 17 11  1  0
 18 20  1  0
 19 18  2  0
M  END
$$$$
