DGT.pdb
     RDKit          3D

 20 19  0  0  1  0  0  0  0  0999 V2000
   10.7928  -17.3084   21.2350 N   0  0  0  0  0  0  0  0  0  0  0  0
    9.6410  -17.3234   20.3620 C   0  0  1  0  0  0  0  0  0  0  0  0
    9.1230  -18.7203   20.1036 C   0  0  0  0  0  0  0  0  0  0  0  0
   10.1684  -19.4734   19.3606 C   0  0  0  0  0  0  0  0  0  0  0  0
   10.9661  -18.9169   18.5443 O   0  0  0  0  0  0  0  0  0  0  0  0
    8.5656  -16.5317   21.0140 C   0  0  0  0  0  0  0  0  0  0  0  0
    7.4231  -16.3728   20.4590 O   0  0  0  0  0  0  0  0  0  0  0  0
   10.2273  -20.8510   19.6111 O   0  0  0  0  0  0  0  0  0  0  0  0
    8.7855  -15.9235   22.2846 N   0  0  0  0  0  0  0  0  0  0  0  0
    7.7014  -15.2315   22.9374 C   0  0  0  0  0  0  0  0  0  0  0  0
    8.1379  -14.5375   24.1704 C   0  0  0  0  0  0  0  0  0  0  0  0
    9.3796  -14.6260   24.4899 O   0  0  0  0  0  0  0  0  0  0  0  0
    6.3695  -11.0663   25.6773 C   0  0  0  0  0  0  0  0  0  0  0  0
    6.5697  -12.2120   26.6772 C   0  0  1  0  0  0  0  0  0  0  0  0
    5.3768  -12.8955   26.8695 O   0  0  0  0  0  0  0  0  0  0  0  0
    7.6719  -13.0869   26.1305 C   0  0  2  0  0  0  0  0  0  0  0  0
    7.2307  -13.8070   24.9547 N   0  0  0  0  0  0  0  0  0  0  0  0
    8.1731  -14.0408   27.1496 C   0  0  0  0  0  0  0  0  0  0  0  0
    8.0554  -15.2866   27.0172 O   0  0  0  0  0  0  0  0  0  0  0  0
    8.7963  -13.5746   28.2962 O   0  0  0  0  0  0  0  0  0  0  0  0
  2  1  1  1
  2  3  1  0
  4  5  2  0
  4  3  1  0
  6  7  2  0
  6  2  1  0
  8  4  1  0
  9  6  1  0
 10  9  1  0
 11 10  1  0
 12 11  2  0
 14 13  1  6
 14 16  1  0
 15 14  1  0
 16 18  1  0
 16 17  1  6
 17 11  1  0
 18 20  1  0
 19 18  2  0
M  END
$$$$
