DGT.pdb
     RDKit          3D

 20 19  0  0  1  0  0  0  0  0999 V2000
    5.4291  -17.5234   23.3337 N   0  0  0  0  0  0  0  0  0  0  0  0
    6.3786  -17.7593   22.2699 C   0  0  1  0  0  0  0  0  0  0  0  0
    5.7102  -18.0328   20.9413 C   0  0  0  0  0  0  0  0  0  0  0  0
    5.7326  -19.5008   20.7035 C   0  0  0  0  0  0  0  0  0  0  0  0
    6.1447  -20.3309   21.5715 O   0  0  0  0  0  0  0  0  0  0  0  0
    7.2224  -16.5435   22.1351 C   0  0  0  0  0  0  0  0  0  0  0  0
    8.4400  -16.6152   21.7469 O   0  0  0  0  0  0  0  0  0  0  0  0
    5.2693  -19.9269   19.4514 O   0  0  0  0  0  0  0  0  0  0  0  0
    6.6893  -15.2569   22.4404 N   0  0  0  0  0  0  0  0  0  0  0  0
    7.5291  -14.0916   22.3101 C   0  0  0  0  0  0  0  0  0  0  0  0
    7.9508  -13.5519   23.6230 C   0  0  0  0  0  0  0  0  0  0  0  0
    8.7263  -12.5270   23.6188 O   0  0  0  0  0  0  0  0  0  0  0  0
    6.7724  -11.5355   26.1152 C   0  0  0  0  0  0  0  0  0  0  0  0
    6.9190  -12.8840   26.8311 C   0  0  1  0  0  0  0  0  0  0  0  0
    5.6994  -13.5465   26.8621 O   0  0  0  0  0  0  0  0  0  0  0  0
    7.9934  -13.6552   26.1030 C   0  0  2  0  0  0  0  0  0  0  0  0
    7.5145  -14.1346   24.8238 N   0  0  0  0  0  0  0  0  0  0  0  0
    8.4986  -14.7911   26.9120 C   0  0  0  0  0  0  0  0  0  0  0  0
    8.4682  -15.9777   26.4942 O   0  0  0  0  0  0  0  0  0  0  0  0
    9.0276  -14.5695   28.1735 O   0  0  0  0  0  0  0  0  0  0  0  0
  2  1  1  1
  2  3  1  0
  4  5  2  0
  4  3  1  0
  6  7  2  0
  6  2  1  0
  8  4  1  0
  9  6  1  0
 10  9  1  0
 11 10  1  0
 12 11  2  0
 14 13  1  6
 14 16  1  0
 15 14  1  0
 16 18  1  0
 16 17  1  6
 17 11  1  0
 18 20  1  0
 19 18  2  0
M  END
$$$$
