DGT.pdb
     RDKit          3D

 20 19  0  0  1  0  0  0  0  0999 V2000
    9.9775  -18.0961   21.2554 N   0  0  0  0  0  0  0  0  0  0  0  0
    9.5221  -16.9196   20.5501 C   0  0  1  0  0  0  0  0  0  0  0  0
    8.8379  -17.2514   19.2430 C   0  0  0  0  0  0  0  0  0  0  0  0
    9.8745  -17.7061   18.2784 C   0  0  0  0  0  0  0  0  0  0  0  0
   10.4111  -18.8554   18.3380 O   0  0  0  0  0  0  0  0  0  0  0  0
    8.5534  -16.2105   21.4260 C   0  0  0  0  0  0  0  0  0  0  0  0
    8.0438  -15.0866   21.0858 O   0  0  0  0  0  0  0  0  0  0  0  0
   10.2353  -16.7852   17.2855 O   0  0  0  0  0  0  0  0  0  0  0  0
    8.1676  -16.7711   22.6788 N   0  0  0  0  0  0  0  0  0  0  0  0
    7.1915  -16.0880   23.4916 C   0  0  0  0  0  0  0  0  0  0  0  0
    7.8141  -15.1276   24.4311 C   0  0  0  0  0  0  0  0  0  0  0  0
    9.0947  -15.0218   24.4051 O   0  0  0  0  0  0  0  0  0  0  0  0
    6.3371  -11.4499   25.3779 C   0  0  0  0  0  0  0  0  0  0  0  0
    6.6269  -12.3300   26.6002 C   0  0  1  0  0  0  0  0  0  0  0  0
    5.4498  -12.8878   27.0802 O   0  0  0  0  0  0  0  0  0  0  0  0
    7.6393  -13.3636   26.1692 C   0  0  2  0  0  0  0  0  0  0  0  0
    7.0340  -14.3593   25.3102 N   0  0  0  0  0  0  0  0  0  0  0  0
    8.2817  -14.0222   27.3325 C   0  0  0  0  0  0  0  0  0  0  0  0
    8.2465  -15.2688   27.5011 O   0  0  0  0  0  0  0  0  0  0  0  0
    8.9503  -13.2661   28.2821 O   0  0  0  0  0  0  0  0  0  0  0  0
  2  1  1  1
  2  3  1  0
  4  5  2  0
  4  3  1  0
  6  7  2  0
  6  2  1  0
  8  4  1  0
  9  6  1  0
 10  9  1  0
 11 10  1  0
 12 11  2  0
 14 13  1  6
 14 16  1  0
 15 14  1  0
 16 18  1  0
 16 17  1  6
 17 11  1  0
 18 20  1  0
 19 18  2  0
M  END
$$$$
