DGT.pdb
     RDKit          3D

 20 19  0  0  1  0  0  0  0  0999 V2000
    8.8713  -18.1996   20.5380 N   0  0  0  0  0  0  0  0  0  0  0  0
    9.8426  -17.1577   20.2933 C   0  0  1  0  0  0  0  0  0  0  0  0
   10.0908  -16.9259   18.8198 C   0  0  0  0  0  0  0  0  0  0  0  0
   11.1212  -17.8967   18.3640 C   0  0  0  0  0  0  0  0  0  0  0  0
   11.8762  -18.5252   19.1686 O   0  0  0  0  0  0  0  0  0  0  0  0
    9.3213  -15.9004   20.8901 C   0  0  0  0  0  0  0  0  0  0  0  0
   10.0630  -14.8654   21.0205 O   0  0  0  0  0  0  0  0  0  0  0  0
   11.2181  -18.0838   16.9785 O   0  0  0  0  0  0  0  0  0  0  0  0
    7.9699  -15.8191   21.3371 N   0  0  0  0  0  0  0  0  0  0  0  0
    7.5244  -14.6407   22.0393 C   0  0  0  0  0  0  0  0  0  0  0  0
    7.5460  -14.8194   23.5091 C   0  0  0  0  0  0  0  0  0  0  0  0
    6.4678  -14.5463   24.1532 O   0  0  0  0  0  0  0  0  0  0  0  0
    6.4261  -16.7348   25.0144 C   0  0  0  0  0  0  0  0  0  0  0  0
    7.8165  -17.0674   25.5700 C   0  0  1  0  0  0  0  0  0  0  0  0
    8.3870  -18.1058   24.8465 O   0  0  0  0  0  0  0  0  0  0  0  0
    8.6274  -15.7950   25.5196 C   0  0  2  0  0  0  0  0  0  0  0  0
    8.6978  -15.2753   24.1703 N   0  0  0  0  0  0  0  0  0  0  0  0
    9.9953  -15.9933   26.0574 C   0  0  0  0  0  0  0  0  0  0  0  0
   11.0165  -15.9560   25.3230 O   0  0  0  0  0  0  0  0  0  0  0  0
   10.1870  -16.2293   27.4094 O   0  0  0  0  0  0  0  0  0  0  0  0
  2  1  1  6
  2  3  1  0
  4  5  2  0
  4  3  1  0
  6  7  2  0
  6  2  1  0
  8  4  1  0
  9  6  1  0
 10  9  1  0
 11 10  1  0
 12 11  2  0
 14 13  1  6
 14 16  1  0
 15 14  1  0
 16 18  1  0
 16 17  1  6
 17 11  1  0
 18 20  1  0
 19 18  2  0
M  END
$$$$
