DGT.pdb
     RDKit          3D

 20 19  0  0  1  0  0  0  0  0999 V2000
   10.6893  -16.5504   20.2959 N   0  0  0  0  0  0  0  0  0  0  0  0
    9.8787  -17.7050   20.6103 C   0  0  1  0  0  0  0  0  0  0  0  0
   10.6609  -18.7940   21.3095 C   0  0  0  0  0  0  0  0  0  0  0  0
   11.7525  -19.2376   20.4020 C   0  0  0  0  0  0  0  0  0  0  0  0
   12.7699  -18.5209   20.1500 O   0  0  0  0  0  0  0  0  0  0  0  0
    8.7804  -17.2595   21.5067 C   0  0  0  0  0  0  0  0  0  0  0  0
    7.8753  -18.0708   21.9082 O   0  0  0  0  0  0  0  0  0  0  0  0
   11.5967  -20.5072   19.8294 O   0  0  0  0  0  0  0  0  0  0  0  0
    8.7085  -15.9039   21.9424 N   0  0  0  0  0  0  0  0  0  0  0  0
    7.6469  -15.4993   22.8310 C   0  0  0  0  0  0  0  0  0  0  0  0
    8.1494  -14.7434   24.0009 C   0  0  0  0  0  0  0  0  0  0  0  0
    9.4214  -14.5913   24.1039 O   0  0  0  0  0  0  0  0  0  0  0  0
    6.3846  -11.3985   25.3873 C   0  0  0  0  0  0  0  0  0  0  0  0
    6.6473  -12.4245   26.4967 C   0  0  1  0  0  0  0  0  0  0  0  0
    5.4777  -13.1039   26.8093 O   0  0  0  0  0  0  0  0  0  0  0  0
    7.7471  -13.3341   26.0047 C   0  0  2  0  0  0  0  0  0  0  0  0
    7.2689  -14.2093   24.9555 N   0  0  0  0  0  0  0  0  0  0  0  0
    8.3305  -14.1371   27.1067 C   0  0  0  0  0  0  0  0  0  0  0  0
    8.8826  -13.6051   28.1045 O   0  0  0  0  0  0  0  0  0  0  0  0
    8.2810  -15.5214   27.0644 O   0  0  0  0  0  0  0  0  0  0  0  0
  2  1  1  1
  2  3  1  0
  4  5  2  0
  4  3  1  0
  6  7  2  0
  6  2  1  0
  8  4  1  0
  9  6  1  0
 10  9  1  0
 11 10  1  0
 12 11  2  0
 14 13  1  6
 14 16  1  0
 15 14  1  0
 16 18  1  0
 16 17  1  6
 17 11  1  0
 18 20  1  0
 19 18  2  0
M  END
$$$$
