DGT.pdb
     RDKit          3D

 20 19  0  0  1  0  0  0  0  0999 V2000
    7.1871  -17.9778   19.5734 N   0  0  0  0  0  0  0  0  0  0  0  0
    8.4767  -17.3398   19.7108 C   0  0  1  0  0  0  0  0  0  0  0  0
    9.0182  -16.8292   18.3945 C   0  0  0  0  0  0  0  0  0  0  0  0
    9.4379  -18.0002   17.5793 C   0  0  0  0  0  0  0  0  0  0  0  0
    9.7448  -19.1201   18.0931 O   0  0  0  0  0  0  0  0  0  0  0  0
    8.3185  -16.1886   20.6372 C   0  0  0  0  0  0  0  0  0  0  0  0
    9.3217  -15.4825   21.0025 O   0  0  0  0  0  0  0  0  0  0  0  0
    9.4791  -17.7998   16.1928 O   0  0  0  0  0  0  0  0  0  0  0  0
    7.0325  -15.8429   21.1467 N   0  0  0  0  0  0  0  0  0  0  0  0
    6.9206  -14.8160   22.1532 C   0  0  0  0  0  0  0  0  0  0  0  0
    7.0511  -15.3562   23.5256 C   0  0  0  0  0  0  0  0  0  0  0  0
    5.9714  -15.7105   24.1261 O   0  0  0  0  0  0  0  0  0  0  0  0
    6.8105  -17.8636   24.4997 C   0  0  0  0  0  0  0  0  0  0  0  0
    8.2347  -17.7416   25.0557 C   0  0  1  0  0  0  0  0  0  0  0  0
    9.1482  -18.2784   24.1587 O   0  0  0  0  0  0  0  0  0  0  0  0
    8.4735  -16.2782   25.3395 C   0  0  2  0  0  0  0  0  0  0  0  0
    8.3063  -15.4814   24.1425 N   0  0  0  0  0  0  0  0  0  0  0  0
    9.8178  -16.0430   25.9201 C   0  0  0  0  0  0  0  0  0  0  0  0
   10.1534  -16.5032   27.0423 O   0  0  0  0  0  0  0  0  0  0  0  0
   10.7570  -15.2957   25.2275 O   0  0  0  0  0  0  0  0  0  0  0  0
  2  1  1  6
  2  3  1  0
  4  5  2  0
  4  3  1  0
  6  7  2  0
  6  2  1  0
  8  4  1  0
  9  6  1  0
 10  9  1  0
 11 10  1  0
 12 11  2  0
 14 13  1  6
 14 16  1  0
 15 14  1  0
 16 18  1  0
 16 17  1  6
 17 11  1  0
 18 20  1  0
 19 18  2  0
M  END
$$$$
