PGD.pdb
     RDKit          3D

 20 20  0  0  1  0  0  0  0  0999 V2000
    8.5860  -14.6288   19.1920 N   0  0  0  0  0  0  0  0  0  0  0  0
    7.2699  -14.1235   19.6054 C   0  0  0  0  0  0  0  0  0  0  0  0
    7.4967  -12.6986   20.0556 C   0  0  0  0  0  0  0  0  0  0  0  0
    8.9925  -12.4747   19.8743 C   0  0  0  0  0  0  0  0  0  0  0  0
    9.2770  -13.4590   18.7332 C   0  0  1  0  0  0  0  0  0  0  0  0
   10.7282  -13.6473   18.6147 C   0  0  0  0  0  0  0  0  0  0  0  0
   11.4798  -12.7019   18.3518 O   0  0  0  0  0  0  0  0  0  0  0  0
   11.3330  -14.9344   18.7990 N   0  0  0  0  0  0  0  0  0  0  0  0
   12.7411  -15.1122   18.6683 C   0  0  0  0  0  0  0  0  0  0  0  0
   13.4707  -15.0788   19.9421 C   0  0  0  0  0  0  0  0  0  0  0  0
   14.5200  -14.4167   20.0969 O   0  0  0  0  0  0  0  0  0  0  0  0
   12.9729  -15.8224   21.0426 N   0  0  0  0  0  0  0  0  0  0  0  0
   13.7052  -15.9262   22.3164 C   0  0  1  0  0  0  0  0  0  0  0  0
   12.7463  -16.3629   23.3952 C   0  0  0  0  0  0  0  0  0  0  0  0
   13.4063  -16.2198   24.7077 C   0  0  0  0  0  0  0  0  0  0  0  0
   14.6315  -15.9325   24.8413 O   0  0  0  0  0  0  0  0  0  0  0  0
   14.8292  -16.8816   22.1771 C   0  0  0  0  0  0  0  0  0  0  0  0
   15.8190  -16.9475   22.9282 O   0  0  0  0  0  0  0  0  0  0  0  0
   12.6587  -16.4068   25.8629 O   0  0  0  0  0  0  0  0  0  0  0  0
   14.8049  -17.8062   21.1151 O   0  0  0  0  0  0  0  0  0  0  0  0
  1  2  1  0
  3  2  1  0
  4  3  1  0
  5  4  1  0
  5  1  1  0
  6  8  1  0
  5  6  1  1
  7  6  2  0
  9  8  1  0
 10  9  1  0
 10 11  2  0
 12 10  1  0
 13 12  1  0
 13 14  1  1
 14 15  1  0
 15 19  1  0
 15 16  2  0
 17 13  1  0
 18 17  2  0
 20 17  1  0
M  END
$$$$
