PGD.pdb
     RDKit          3D

 20 20  0  0  1  0  0  0  0  0999 V2000
    7.4650  -14.9738   20.4548 N   0  0  0  0  0  0  0  0  0  0  0  0
    6.4274  -13.9393   20.5624 C   0  0  0  0  0  0  0  0  0  0  0  0
    7.1630  -12.6202   20.6219 C   0  0  0  0  0  0  0  0  0  0  0  0
    8.6362  -13.0016   20.5535 C   0  0  0  0  0  0  0  0  0  0  0  0
    8.5393  -14.3161   19.7695 C   0  0  1  0  0  0  0  0  0  0  0  0
    9.8189  -15.0287   19.8706 C   0  0  0  0  0  0  0  0  0  0  0  0
   10.8608  -14.5476   19.4113 O   0  0  0  0  0  0  0  0  0  0  0  0
    9.9130  -16.3110   20.5056 N   0  0  0  0  0  0  0  0  0  0  0  0
   11.1685  -16.9691   20.6546 C   0  0  0  0  0  0  0  0  0  0  0  0
   11.6757  -16.9885   22.0324 C   0  0  0  0  0  0  0  0  0  0  0  0
   12.8033  -17.4423   22.3257 O   0  0  0  0  0  0  0  0  0  0  0  0
   10.8623  -16.4753   23.0749 N   0  0  0  0  0  0  0  0  0  0  0  0
   11.1133  -16.7857   24.4927 C   0  0  1  0  0  0  0  0  0  0  0  0
   10.0856  -16.0745   25.3364 C   0  0  0  0  0  0  0  0  0  0  0  0
   10.4653  -16.1983   26.7574 C   0  0  0  0  0  0  0  0  0  0  0  0
   11.4887  -16.8307   27.1502 O   0  0  0  0  0  0  0  0  0  0  0  0
   11.0632  -18.2511   24.7060 C   0  0  0  0  0  0  0  0  0  0  0  0
   11.9873  -18.9468   25.1646 O   0  0  0  0  0  0  0  0  0  0  0  0
    9.6697  -15.5964   27.7234 O   0  0  0  0  0  0  0  0  0  0  0  0
    9.8840  -18.9446   24.3714 O   0  0  0  0  0  0  0  0  0  0  0  0
  1  2  1  0
  3  2  1  0
  4  3  1  0
  5  4  1  0
  5  1  1  0
  6  8  1  0
  5  6  1  1
  7  6  2  0
  9  8  1  0
 10  9  1  0
 10 11  2  0
 12 10  1  0
 13 12  1  0
 13 14  1  1
 14 15  1  0
 15 19  1  0
 15 16  2  0
 17 13  1  0
 18 17  2  0
 20 17  1  0
M  END
$$$$
