PGD.pdb
     RDKit          3D

 20 20  0  0  1  0  0  0  0  0999 V2000
    7.5397  -14.9091   19.8867 N   0  0  0  0  0  0  0  0  0  0  0  0
    7.2981  -14.1972   18.6244 C   0  0  0  0  0  0  0  0  0  0  0  0
    7.3797  -12.7252   18.9576 C   0  0  0  0  0  0  0  0  0  0  0  0
    7.6629  -12.6878   20.4538 C   0  0  0  0  0  0  0  0  0  0  0  0
    8.3944  -14.0249   20.6243 C   0  0  1  0  0  0  0  0  0  0  0  0
    8.4735  -14.3479   22.0543 C   0  0  0  0  0  0  0  0  0  0  0  0
    9.2429  -13.7421   22.8086 O   0  0  0  0  0  0  0  0  0  0  0  0
    7.6624  -15.3785   22.6344 N   0  0  0  0  0  0  0  0  0  0  0  0
    7.7250  -15.6680   24.0286 C   0  0  0  0  0  0  0  0  0  0  0  0
    8.8164  -16.5755   24.4043 C   0  0  0  0  0  0  0  0  0  0  0  0
    8.9212  -17.0595   25.5524 O   0  0  0  0  0  0  0  0  0  0  0  0
    9.7921  -16.9208   23.4343 N   0  0  0  0  0  0  0  0  0  0  0  0
   10.9201  -17.8176   23.7391 C   0  0  1  0  0  0  0  0  0  0  0  0
   11.5963  -18.2056   22.4484 C   0  0  0  0  0  0  0  0  0  0  0  0
   10.6410  -18.9653   21.6181 C   0  0  0  0  0  0  0  0  0  0  0  0
    9.4767  -19.2745   22.0059 O   0  0  0  0  0  0  0  0  0  0  0  0
   11.8659  -17.1452   24.6606 C   0  0  0  0  0  0  0  0  0  0  0  0
   12.2756  -17.6084   25.7403 O   0  0  0  0  0  0  0  0  0  0  0  0
   11.0245  -19.3680   20.3457 O   0  0  0  0  0  0  0  0  0  0  0  0
   12.3612  -15.8733   24.3137 O   0  0  0  0  0  0  0  0  0  0  0  0
  1  2  1  0
  3  2  1  0
  4  3  1  0
  5  4  1  0
  5  1  1  0
  6  8  1  0
  5  6  1  1
  7  6  2  0
  9  8  1  0
 10  9  1  0
 10 11  2  0
 12 10  1  0
 13 12  1  0
 13 14  1  6
 14 15  1  0
 15 19  1  0
 15 16  2  0
 17 13  1  0
 18 17  2  0
 20 17  1  0
M  END
$$$$
