PGD.pdb
     RDKit          3D

 20 20  0  0  1  0  0  0  0  0999 V2000
-50281.7227108918.0469-19903.4160 N   0  0  0  0  0  0  0  0  0  0  0  0
-50281.6250108919.4453-19903.0371 C   0  0  0  0  0  0  0  0  0  0  0  0
-50280.4297108919.9688-19903.8320 C   0  0  0  0  0  0  0  0  0  0  0  0
-50279.9258108918.8047-19904.6211 C   0  0  0  0  0  0  0  0  0  0  0  0
-50281.2227108918.0000-19904.7676 C   0  0  1  0  0  0  0  0  0  0  0  0
-50280.9102108916.6172-19905.2246 C   0  0  0  0  0  0  0  0  0  0  0  0
-50281.6094108915.6484-19904.9238 O   0  0  0  0  0  0  0  0  0  0  0  0
-50279.7422108916.3516-19906.0547 N   0  0  0  0  0  0  0  0  0  0  0  0
-50279.4492108917.1953-19907.1602 C   0  0  0  0  0  0  0  0  0  0  0  0
-50279.3594108916.4766-19908.4414 C   0  0  0  0  0  0  0  0  0  0  0  0
-50279.7500108916.9844-19909.5117 O   0  0  0  0  0  0  0  0  0  0  0  0
-50278.8203108915.1562-19908.4668 N   0  0  0  0  0  0  0  0  0  0  0  0
-50277.6484108914.7812-19907.6562 C   0  0  1  0  0  0  0  0  0  0  0  0
-50276.9609108913.6016-19908.2969 C   0  0  0  0  0  0  0  0  0  0  0  0
-50277.3945108912.3594-19907.5898 C   0  0  0  0  0  0  0  0  0  0  0  0
-50277.2148108912.1562-19906.3652 O   0  0  0  0  0  0  0  0  0  0  0  0
-50276.7109108915.9062-19907.5664 C   0  0  0  0  0  0  0  0  0  0  0  0
-50276.7461108916.9844-19908.2500 O   0  0  0  0  0  0  0  0  0  0  0  0
-50278.0430108911.4141-19908.3105 O   0  0  0  0  0  0  0  0  0  0  0  0
-50275.6602108915.8438-19906.6543 O   0  0  0  0  0  0  0  0  0  0  0  0
  1  2  1  0
  3  2  1  0
  4  3  1  0
  5  4  1  0
  5  1  1  0
  6  8  1  0
  5  6  1  1
  7  6  2  0
  9  8  1  0
 10  9  1  0
 10 11  2  0
 12 10  1  0
 13 12  1  0
 13 14  1  6
 14 15  1  0
 15 19  1  0
 15 16  2  0
 17 13  1  0
 18 17  2  0
 20 17  1  0
M  END
$$$$
