PGD.pdb
     RDKit          3D

 20 20  0  0  1  0  0  0  0  0999 V2000
    7.3296  -15.0959   20.0623 N   0  0  0  0  0  0  0  0  0  0  0  0
    6.6206  -14.4586   18.9445 C   0  0  0  0  0  0  0  0  0  0  0  0
    7.2467  -13.0925   18.7825 C   0  0  0  0  0  0  0  0  0  0  0  0
    8.3102  -13.0287   19.8712 C   0  0  0  0  0  0  0  0  0  0  0  0
    8.6417  -14.5193   20.0132 C   0  0  1  0  0  0  0  0  0  0  0  0
    9.4147  -14.7222   21.2448 C   0  0  0  0  0  0  0  0  0  0  0  0
   10.6180  -14.4452   21.3016 O   0  0  0  0  0  0  0  0  0  0  0  0
    8.8063  -15.2494   22.4316 N   0  0  0  0  0  0  0  0  0  0  0  0
    9.5138  -15.2857   23.6683 C   0  0  0  0  0  0  0  0  0  0  0  0
   10.2519  -16.5336   23.9006 C   0  0  0  0  0  0  0  0  0  0  0  0
    9.7187  -17.6590   23.7893 O   0  0  0  0  0  0  0  0  0  0  0  0
   11.6212  -16.4683   24.2652 N   0  0  0  0  0  0  0  0  0  0  0  0
   12.3991  -17.6689   24.6158 C   0  0  1  0  0  0  0  0  0  0  0  0
   13.8443  -17.2775   24.7953 C   0  0  0  0  0  0  0  0  0  0  0  0
   14.3162  -16.6142   23.5639 C   0  0  0  0  0  0  0  0  0  0  0  0
   14.0426  -17.0324   22.4012 O   0  0  0  0  0  0  0  0  0  0  0  0
   11.8517  -18.2842   25.8475 C   0  0  0  0  0  0  0  0  0  0  0  0
   11.0552  -17.7412   26.6342 O   0  0  0  0  0  0  0  0  0  0  0  0
   15.1004  -15.4731   23.6703 O   0  0  0  0  0  0  0  0  0  0  0  0
   12.2467  -19.5934   26.1842 O   0  0  0  0  0  0  0  0  0  0  0  0
  1  2  1  0
  3  2  1  0
  4  3  1  0
  5  4  1  0
  5  1  1  0
  6  8  1  0
  5  6  1  1
  7  6  2  0
  9  8  1  0
 10  9  1  0
 10 11  2  0
 12 10  1  0
 13 12  1  0
 13 14  1  1
 14 15  1  0
 15 19  1  0
 15 16  2  0
 17 13  1  0
 18 17  2  0
 20 17  1  0
M  END
$$$$
