PGD.pdb
     RDKit          3D

 20 20  0  0  1  0  0  0  0  0999 V2000
    8.3130  -18.1245   19.1030 N   0  0  0  0  0  0  0  0  0  0  0  0
    7.6834  -18.3140   17.7892 C   0  0  0  0  0  0  0  0  0  0  0  0
    7.7438  -16.9683   17.1036 C   0  0  0  0  0  0  0  0  0  0  0  0
    8.4219  -16.0544   18.1163 C   0  0  0  0  0  0  0  0  0  0  0  0
    9.2690  -17.0790   18.8808 C   0  0  1  0  0  0  0  0  0  0  0  0
    9.7599  -16.4640   20.1204 C   0  0  0  0  0  0  0  0  0  0  0  0
   10.7797  -15.7658   20.1315 O   0  0  0  0  0  0  0  0  0  0  0  0
    9.0771  -16.6479   21.3680 N   0  0  0  0  0  0  0  0  0  0  0  0
    9.5511  -16.0351   22.5644 C   0  0  0  0  0  0  0  0  0  0  0  0
   10.4358  -16.8896   23.3662 C   0  0  0  0  0  0  0  0  0  0  0  0
   10.1327  -18.0613   23.6802 O   0  0  0  0  0  0  0  0  0  0  0  0
   11.6823  -16.3740   23.8046 N   0  0  0  0  0  0  0  0  0  0  0  0
   12.6077  -17.1593   24.6393 C   0  0  1  0  0  0  0  0  0  0  0  0
   13.9638  -16.5003   24.6152 C   0  0  0  0  0  0  0  0  0  0  0  0
   14.4696  -16.4986   23.2285 C   0  0  0  0  0  0  0  0  0  0  0  0
   14.3773  -17.4954   22.4543 O   0  0  0  0  0  0  0  0  0  0  0  0
   12.0822  -17.2579   26.0213 C   0  0  0  0  0  0  0  0  0  0  0  0
   12.5714  -17.9492   26.9328 O   0  0  0  0  0  0  0  0  0  0  0  0
   15.0798  -15.3532   22.7343 O   0  0  0  0  0  0  0  0  0  0  0  0
   10.9333  -16.5190   26.3637 O   0  0  0  0  0  0  0  0  0  0  0  0
  1  2  1  0
  3  2  1  0
  4  3  1  0
  5  4  1  0
  5  1  1  0
  6  8  1  0
  5  6  1  1
  7  6  2  0
  9  8  1  0
 10  9  1  0
 10 11  2  0
 12 10  1  0
 13 12  1  0
 13 14  1  1
 14 15  1  0
 15 19  1  0
 15 16  2  0
 17 13  1  0
 18 17  2  0
 20 17  1  0
M  END
$$$$
