PGD.pdb
     RDKit          3D

 20 20  0  0  1  0  0  0  0  0999 V2000
    7.3963  -15.1297   19.7059 N   0  0  0  0  0  0  0  0  0  0  0  0
    6.9409  -14.3635   18.5380 C   0  0  0  0  0  0  0  0  0  0  0  0
    7.4259  -12.9487   18.7567 C   0  0  0  0  0  0  0  0  0  0  0  0
    8.1476  -12.9958   20.0974 C   0  0  0  0  0  0  0  0  0  0  0  0
    8.5989  -14.4615   20.1104 C   0  0  1  0  0  0  0  0  0  0  0  0
    9.0353  -14.8155   21.4667 C   0  0  0  0  0  0  0  0  0  0  0  0
   10.1296  -14.4460   21.9070 O   0  0  0  0  0  0  0  0  0  0  0  0
    8.2109  -15.6038   22.3359 N   0  0  0  0  0  0  0  0  0  0  0  0
    8.5600  -15.8009   23.7037 C   0  0  0  0  0  0  0  0  0  0  0  0
    9.4156  -16.9702   23.9418 C   0  0  0  0  0  0  0  0  0  0  0  0
    8.9550  -18.1275   24.0500 O   0  0  0  0  0  0  0  0  0  0  0  0
   10.8178  -16.7882   24.0546 N   0  0  0  0  0  0  0  0  0  0  0  0
   11.7365  -17.9080   24.3222 C   0  0  1  0  0  0  0  0  0  0  0  0
   13.1511  -17.4463   24.0783 C   0  0  0  0  0  0  0  0  0  0  0  0
   13.3037  -17.1078   22.6496 C   0  0  0  0  0  0  0  0  0  0  0  0
   12.8837  -17.8470   21.7121 O   0  0  0  0  0  0  0  0  0  0  0  0
   11.5592  -18.3860   25.7135 C   0  0  0  0  0  0  0  0  0  0  0  0
   11.9926  -19.4594   26.1696 O   0  0  0  0  0  0  0  0  0  0  0  0
   13.9374  -15.9225   22.3009 O   0  0  0  0  0  0  0  0  0  0  0  0
   10.8444  -17.5803   26.6209 O   0  0  0  0  0  0  0  0  0  0  0  0
  1  2  1  0
  3  2  1  0
  4  3  1  0
  5  4  1  0
  5  1  1  0
  6  8  1  0
  5  6  1  1
  7  6  2  0
  9  8  1  0
 10  9  1  0
 10 11  2  0
 12 10  1  0
 13 12  1  0
 13 14  1  1
 14 15  1  0
 15 19  1  0
 15 16  2  0
 17 13  1  0
 18 17  2  0
 20 17  1  0
M  END
$$$$
