PGD.pdb
     RDKit          3D

 20 20  0  0  1  0  0  0  0  0999 V2000
    7.4778  -14.8829   20.5855 N   0  0  0  0  0  0  0  0  0  0  0  0
    6.5865  -13.7277   20.7568 C   0  0  0  0  0  0  0  0  0  0  0  0
    7.2140  -12.6007   19.9690 C   0  0  0  0  0  0  0  0  0  0  0  0
    8.4831  -13.2055   19.3827 C   0  0  0  0  0  0  0  0  0  0  0  0
    8.0646  -14.6782   19.2931 C   0  0  1  0  0  0  0  0  0  0  0  0
    9.2575  -15.5009   19.0570 C   0  0  0  0  0  0  0  0  0  0  0  0
    9.9383  -15.3675   18.0340 O   0  0  0  0  0  0  0  0  0  0  0  0
    9.6817  -16.4922   20.0025 N   0  0  0  0  0  0  0  0  0  0  0  0
   10.9867  -17.0616   19.9373 C   0  0  0  0  0  0  0  0  0  0  0  0
   11.8230  -16.7808   21.1111 C   0  0  0  0  0  0  0  0  0  0  0  0
   12.9528  -16.2533   21.0191 O   0  0  0  0  0  0  0  0  0  0  0  0
   11.3380  -17.1176   22.4008 N   0  0  0  0  0  0  0  0  0  0  0  0
   12.0925  -16.8123   23.6284 C   0  0  1  0  0  0  0  0  0  0  0  0
   11.1293  -16.7384   24.7863 C   0  0  0  0  0  0  0  0  0  0  0  0
   10.1781  -15.6353   24.5470 C   0  0  0  0  0  0  0  0  0  0  0  0
   10.2810  -14.8274   23.5783 O   0  0  0  0  0  0  0  0  0  0  0  0
   13.1284  -17.8471   23.8559 C   0  0  0  0  0  0  0  0  0  0  0  0
   13.2194  -18.9257   23.2423 O   0  0  0  0  0  0  0  0  0  0  0  0
    9.1119  -15.4624   25.4197 O   0  0  0  0  0  0  0  0  0  0  0  0
   14.1070  -17.6208   24.8430 O   0  0  0  0  0  0  0  0  0  0  0  0
  1  2  1  0
  3  2  1  0
  4  3  1  0
  5  4  1  0
  5  1  1  0
  6  8  1  0
  5  6  1  1
  7  6  2  0
  9  8  1  0
 10  9  1  0
 10 11  2  0
 12 10  1  0
 13 12  1  0
 13 14  1  1
 14 15  1  0
 15 19  1  0
 15 16  2  0
 17 13  1  0
 18 17  2  0
 20 17  1  0
M  END
$$$$
