PGD.pdb
     RDKit          3D

 20 20  0  0  1  0  0  0  0  0999 V2000
    8.2420  -15.0260   18.2285 N   0  0  0  0  0  0  0  0  0  0  0  0
    7.6809  -14.1459   17.1946 C   0  0  0  0  0  0  0  0  0  0  0  0
    7.3494  -12.8469   17.8925 C   0  0  0  0  0  0  0  0  0  0  0  0
    7.7479  -13.0811   19.3440 C   0  0  0  0  0  0  0  0  0  0  0  0
    8.8585  -14.1216   19.1551 C   0  0  1  0  0  0  0  0  0  0  0  0
    9.1649  -14.7352   20.4532 C   0  0  0  0  0  0  0  0  0  0  0  0
    9.7451  -14.1024   21.3425 O   0  0  0  0  0  0  0  0  0  0  0  0
    8.8040  -16.0925   20.7429 N   0  0  0  0  0  0  0  0  0  0  0  0
    9.0289  -16.6553   22.0329 C   0  0  0  0  0  0  0  0  0  0  0  0
   10.4135  -17.0843   22.2671 C   0  0  0  0  0  0  0  0  0  0  0  0
   10.7446  -18.2893   22.3080 O   0  0  0  0  0  0  0  0  0  0  0  0
   11.4186  -16.1012   22.4547 N   0  0  0  0  0  0  0  0  0  0  0  0
   12.8211  -16.4545   22.7334 C   0  0  1  0  0  0  0  0  0  0  0  0
   13.6869  -15.2455   22.4832 C   0  0  0  0  0  0  0  0  0  0  0  0
   14.3066  -15.3695   21.1492 C   0  0  0  0  0  0  0  0  0  0  0  0
   14.9126  -16.4096   20.7589 O   0  0  0  0  0  0  0  0  0  0  0  0
   12.9544  -16.9315   24.1300 C   0  0  0  0  0  0  0  0  0  0  0  0
   12.2986  -16.5148   25.1018 O   0  0  0  0  0  0  0  0  0  0  0  0
   14.2290  -14.2998   20.2671 O   0  0  0  0  0  0  0  0  0  0  0  0
   13.8940  -17.9413   24.4143 O   0  0  0  0  0  0  0  0  0  0  0  0
  1  2  1  0
  3  2  1  0
  4  3  1  0
  5  4  1  0
  5  1  1  0
  6  8  1  0
  5  6  1  1
  7  6  2  0
  9  8  1  0
 10  9  1  0
 10 11  2  0
 12 10  1  0
 13 12  1  0
 13 14  1  1
 14 15  1  0
 15 19  1  0
 15 16  2  0
 17 13  1  0
 18 17  2  0
 20 17  1  0
M  END
$$$$
