PGD.pdb
     RDKit          3D

 20 20  0  0  1  0  0  0  0  0999 V2000
    8.2458  -14.6535   19.1786 N   0  0  0  0  0  0  0  0  0  0  0  0
    8.5163  -13.3988   18.4639 C   0  0  0  0  0  0  0  0  0  0  0  0
    7.8099  -12.3161   19.2471 C   0  0  0  0  0  0  0  0  0  0  0  0
    7.1430  -13.0535   20.4012 C   0  0  0  0  0  0  0  0  0  0  0  0
    8.0948  -14.2473   20.5456 C   0  0  1  0  0  0  0  0  0  0  0  0
    7.4594  -15.2662   21.3903 C   0  0  0  0  0  0  0  0  0  0  0  0
    6.9810  -16.2972   20.9044 O   0  0  0  0  0  0  0  0  0  0  0  0
    7.3675  -15.1076   22.8126 N   0  0  0  0  0  0  0  0  0  0  0  0
    6.8346  -16.1416   23.6363 C   0  0  0  0  0  0  0  0  0  0  0  0
    7.8533  -16.9574   24.3091 C   0  0  0  0  0  0  0  0  0  0  0  0
    7.5660  -17.9823   24.9652 O   0  0  0  0  0  0  0  0  0  0  0  0
    9.2161  -16.5751   24.2161 N   0  0  0  0  0  0  0  0  0  0  0  0
   10.2937  -17.3443   24.8616 C   0  0  1  0  0  0  0  0  0  0  0  0
   11.6227  -16.8185   24.3806 C   0  0  0  0  0  0  0  0  0  0  0  0
   11.7673  -17.1275   22.9445 C   0  0  0  0  0  0  0  0  0  0  0  0
   11.2246  -18.1279   22.3913 O   0  0  0  0  0  0  0  0  0  0  0  0
   10.1760  -17.2409   26.3350 C   0  0  0  0  0  0  0  0  0  0  0  0
   10.6174  -18.0662   27.1550 O   0  0  0  0  0  0  0  0  0  0  0  0
   12.5341  -16.2877   22.1475 O   0  0  0  0  0  0  0  0  0  0  0  0
    9.5140  -16.1263   26.8854 O   0  0  0  0  0  0  0  0  0  0  0  0
  1  2  1  0
  3  2  1  0
  4  3  1  0
  5  4  1  0
  5  1  1  0
  6  8  1  0
  5  6  1  1
  7  6  2  0
  9  8  1  0
 10  9  1  0
 10 11  2  0
 12 10  1  0
 13 12  1  0
 13 14  1  6
 14 15  1  0
 15 19  1  0
 15 16  2  0
 17 13  1  0
 18 17  2  0
 20 17  1  0
M  END
$$$$
