PGD.pdb
     RDKit          3D

 20 20  0  0  1  0  0  0  0  0999 V2000
    7.2463  -14.9884   20.0071 N   0  0  0  0  0  0  0  0  0  0  0  0
    6.8466  -14.3183   18.7623 C   0  0  0  0  0  0  0  0  0  0  0  0
    7.4125  -12.9193   18.8455 C   0  0  0  0  0  0  0  0  0  0  0  0
    8.1192  -12.8732   20.1942 C   0  0  0  0  0  0  0  0  0  0  0  0
    8.4830  -14.3538   20.3597 C   0  0  1  0  0  0  0  0  0  0  0  0
    8.8866  -14.5945   21.7507 C   0  0  0  0  0  0  0  0  0  0  0  0
   10.0168  -14.2965   22.1529 O   0  0  0  0  0  0  0  0  0  0  0  0
    7.9873  -15.1845   22.6991 N   0  0  0  0  0  0  0  0  0  0  0  0
    8.3742  -15.3827   24.0565 C   0  0  0  0  0  0  0  0  0  0  0  0
    9.2070  -16.5720   24.2753 C   0  0  0  0  0  0  0  0  0  0  0  0
    8.7563  -17.7341   24.1758 O   0  0  0  0  0  0  0  0  0  0  0  0
   10.5746  -16.4047   24.6125 N   0  0  0  0  0  0  0  0  0  0  0  0
   11.4445  -17.5431   24.9545 C   0  0  1  0  0  0  0  0  0  0  0  0
   12.8828  -17.0966   24.8796 C   0  0  0  0  0  0  0  0  0  0  0  0
   13.2275  -16.8296   23.4694 C   0  0  0  0  0  0  0  0  0  0  0  0
   12.8400  -17.5581   22.5099 O   0  0  0  0  0  0  0  0  0  0  0  0
   11.1080  -18.0483   26.3063 C   0  0  0  0  0  0  0  0  0  0  0  0
   11.1460  -19.2397   26.6627 O   0  0  0  0  0  0  0  0  0  0  0  0
   14.0155  -15.7277   23.1643 O   0  0  0  0  0  0  0  0  0  0  0  0
   10.7077  -17.1272   27.2936 O   0  0  0  0  0  0  0  0  0  0  0  0
  1  2  1  0
  3  2  1  0
  4  3  1  0
  5  4  1  0
  5  1  1  0
  6  8  1  0
  5  6  1  1
  7  6  2  0
  9  8  1  0
 10  9  1  0
 10 11  2  0
 12 10  1  0
 13 12  1  0
 13 14  1  1
 14 15  1  0
 15 19  1  0
 15 16  2  0
 17 13  1  0
 18 17  2  0
 20 17  1  0
M  END
$$$$
