SLT.pdb
     RDKit          3D

 22 21  0  0  1  0  0  0  0  0999 V2000
   18.2064   -4.5277  -17.1460 O   0  0  0  0  0  0  0  0  0  0  0  0
   19.5228   -4.9516  -17.0844 C   0  0  0  0  0  0  0  0  0  0  0  0
   19.6138   -6.4629  -17.1009 C   0  0  2  0  0  0  0  0  0  0  0  0
   18.9435   -6.9904  -18.2748 N   0  0  0  0  0  0  0  0  0  0  0  0
   19.0868   -7.0570  -15.8484 C   0  0  0  0  0  0  0  0  0  0  0  0
   18.0209   -7.6943  -15.8918 O   0  0  0  0  0  0  0  0  0  0  0  0
   22.7610   -9.2836  -12.6504 C   0  0  0  0  0  0  0  0  0  0  0  0
   21.4821   -9.0710  -13.4382 C   0  0  1  0  0  0  0  0  0  0  0  0
   20.7548  -10.3972  -13.4688 C   0  0  0  0  0  0  0  0  0  0  0  0
   20.7094   -8.0025  -12.7400 C   0  0  0  0  0  0  0  0  0  0  0  0
   19.4401   -7.6037  -13.4167 C   0  0  2  0  0  0  0  0  0  0  0  0
   19.7936   -6.8914  -14.6457 N   0  0  0  0  0  0  0  0  0  0  0  0
   18.7720   -6.5934  -12.5221 C   0  0  0  0  0  0  0  0  0  0  0  0
   19.2506   -5.4275  -12.3923 O   0  0  0  0  0  0  0  0  0  0  0  0
   14.8528   -4.8249  -10.2497 C   0  0  0  0  0  0  0  0  0  0  0  0
   15.4431   -5.9469  -11.0808 C   0  0  1  0  0  0  0  0  0  0  0  0
   14.9427   -5.8214  -12.3605 O   0  0  0  0  0  0  0  0  0  0  0  0
   16.9484   -5.8527  -11.0182 C   0  0  2  0  0  0  0  0  0  0  0  0
   17.5971   -6.8794  -11.7902 N   0  0  0  0  0  0  0  0  0  0  0  0
   17.4627   -5.8800   -9.6412 C   0  0  0  0  0  0  0  0  0  0  0  0
   18.2085   -6.9456   -9.1546 O   0  0  0  0  0  0  0  0  0  0  0  0
   17.2211   -4.9108   -8.8801 O   0  0  0  0  0  0  0  0  0  0  0  0
  2  1  1  0
  3  2  1  0
  3  4  1  6
  5 12  1  0
  5  3  1  0
  6  5  2  0
  8  7  1  1
  8 10  1  0
  9  8  1  0
 11 10  1  1
 11 12  1  0
 13 11  1  0
 13 19  1  0
 14 13  2  0
 16 15  1  1
 17 16  1  0
 18 19  1  6
 18 16  1  0
 20 18  1  0
 21 20  1  0
 22 20  2  0
M  END
$$$$
