SLT.pdb
     RDKit          3D

 22 21  0  0  1  0  0  0  0  0999 V2000
   19.3868  -11.1358  -19.5430 O   0  0  0  0  0  0  0  0  0  0  0  0
   20.0001  -10.6299  -18.4097 C   0  0  0  0  0  0  0  0  0  0  0  0
   21.2548  -11.4071  -18.0717 C   0  0  2  0  0  0  0  0  0  0  0  0
   20.9208  -12.7857  -17.7659 N   0  0  0  0  0  0  0  0  0  0  0  0
   22.0174  -10.7653  -16.9735 C   0  0  0  0  0  0  0  0  0  0  0  0
   21.6235  -10.9169  -15.8047 O   0  0  0  0  0  0  0  0  0  0  0  0
   27.5249  -10.3771  -16.8171 C   0  0  0  0  0  0  0  0  0  0  0  0
   26.0831  -10.5836  -16.3932 C   0  0  1  0  0  0  0  0  0  0  0  0
   26.1012  -10.9562  -14.9271 C   0  0  0  0  0  0  0  0  0  0  0  0
   25.3609   -9.3049  -16.6572 C   0  0  0  0  0  0  0  0  0  0  0  0
   23.9273   -9.2978  -16.2415 C   0  0  2  0  0  0  0  0  0  0  0  0
   23.1607  -10.0043  -17.2691 N   0  0  0  0  0  0  0  0  0  0  0  0
   23.4707   -7.8637  -16.2873 C   0  0  0  0  0  0  0  0  0  0  0  0
   23.7739   -7.1191  -17.2665 O   0  0  0  0  0  0  0  0  0  0  0  0
   19.9342   -6.7538  -14.8642 C   0  0  0  0  0  0  0  0  0  0  0  0
   20.7392   -5.9092  -15.8322 C   0  0  1  0  0  0  0  0  0  0  0  0
   20.1944   -4.6414  -15.8271 O   0  0  0  0  0  0  0  0  0  0  0  0
   22.1873   -5.9366  -15.4069 C   0  0  2  0  0  0  0  0  0  0  0  0
   22.6939   -7.2760  -15.2632 N   0  0  0  0  0  0  0  0  0  0  0  0
   22.4290   -5.1882  -14.1648 C   0  0  0  0  0  0  0  0  0  0  0  0
   22.2729   -3.8102  -14.0931 O   0  0  0  0  0  0  0  0  0  0  0  0
   22.7877   -5.8126  -13.1360 O   0  0  0  0  0  0  0  0  0  0  0  0
  2  1  1  0
  3  2  1  0
  3  4  1  1
  5 12  1  0
  5  3  1  0
  6  5  2  0
  8  7  1  1
  8 10  1  0
  9  8  1  0
 11 10  1  6
 11 12  1  0
 13 11  1  0
 13 19  1  0
 14 13  2  0
 16 15  1  1
 17 16  1  0
 18 19  1  1
 18 16  1  0
 20 18  1  0
 21 20  1  0
 22 20  2  0
M  END
$$$$
