SLT.pdb
     RDKit          3D

 22 21  0  0  1  0  0  0  0  0999 V2000
   17.1092  -11.4347  -18.4721 O   0  0  0  0  0  0  0  0  0  0  0  0
   17.7652  -10.9955  -17.3350 C   0  0  0  0  0  0  0  0  0  0  0  0
   18.4738   -9.6808  -17.5837 C   0  0  2  0  0  0  0  0  0  0  0  0
   19.2296   -9.7473  -18.8206 N   0  0  0  0  0  0  0  0  0  0  0  0
   19.3262   -9.2920  -16.4340 C   0  0  0  0  0  0  0  0  0  0  0  0
   18.8131   -9.2306  -15.3038 O   0  0  0  0  0  0  0  0  0  0  0  0
   24.3696  -11.2461  -16.0304 C   0  0  0  0  0  0  0  0  0  0  0  0
   23.0160  -10.7702  -15.5379 C   0  0  1  0  0  0  0  0  0  0  0  0
   22.9610  -11.0515  -14.0524 C   0  0  0  0  0  0  0  0  0  0  0  0
   22.9201   -9.3156  -15.8561 C   0  0  0  0  0  0  0  0  0  0  0  0
   21.6016   -8.6911  -15.5406 C   0  0  2  0  0  0  0  0  0  0  0  0
   20.6854   -9.0024  -16.6389 N   0  0  0  0  0  0  0  0  0  0  0  0
   21.8096   -7.2002  -15.5758 C   0  0  0  0  0  0  0  0  0  0  0  0
   22.3990   -6.6521  -16.5544 O   0  0  0  0  0  0  0  0  0  0  0  0
   19.8071   -4.5817  -16.2994 C   0  0  0  0  0  0  0  0  0  0  0  0
   20.3070   -4.1668  -14.9297 C   0  0  1  0  0  0  0  0  0  0  0  0
   19.2972   -4.4244  -14.0251 O   0  0  0  0  0  0  0  0  0  0  0  0
   21.5798   -4.9216  -14.6319 C   0  0  2  0  0  0  0  0  0  0  0  0
   21.3696   -6.3425  -14.5423 N   0  0  0  0  0  0  0  0  0  0  0  0
   22.2477   -4.4497  -13.4101 C   0  0  0  0  0  0  0  0  0  0  0  0
   22.3871   -5.2566  -12.2885 O   0  0  0  0  0  0  0  0  0  0  0  0
   22.7068   -3.2813  -13.3779 O   0  0  0  0  0  0  0  0  0  0  0  0
  2  1  1  0
  3  2  1  0
  3  4  1  6
  5 12  1  0
  5  3  1  0
  6  5  2  0
  8  7  1  1
  8 10  1  0
  9  8  1  0
 11 10  1  6
 11 12  1  0
 13 11  1  0
 13 19  1  0
 14 13  2  0
 16 15  1  6
 17 16  1  0
 18 19  1  1
 18 16  1  0
 20 18  1  0
 21 20  1  0
 22 20  2  0
M  END
$$$$
