SLT.pdb
     RDKit          3D

 22 21  0  0  1  0  0  0  0  0999 V2000
   27.8513  -18.4883  -16.4255 O   0  0  0  0  0  0  0  0  0  0  0  0
   26.8522  -19.3162  -15.9430 C   0  0  0  0  0  0  0  0  0  0  0  0
   27.4097  -20.3483  -14.9857 C   0  0  2  0  0  0  0  0  0  0  0  0
   28.2256  -21.3079  -15.7062 N   0  0  0  0  0  0  0  0  0  0  0  0
   26.3348  -21.0096  -14.2066 C   0  0  0  0  0  0  0  0  0  0  0  0
   25.9143  -22.1150  -14.5879 O   0  0  0  0  0  0  0  0  0  0  0  0
   25.9057  -19.9298   -8.7985 C   0  0  0  0  0  0  0  0  0  0  0  0
   26.0022  -20.6905  -10.1074 C   0  0  1  0  0  0  0  0  0  0  0  0
   26.0792  -22.1611   -9.7607 C   0  0  0  0  0  0  0  0  0  0  0  0
   24.7895  -20.3461  -10.9054 C   0  0  0  0  0  0  0  0  0  0  0  0
   24.7361  -20.9650  -12.2626 C   0  0  2  0  0  0  0  0  0  0  0  0
   25.8150  -20.3823  -13.0622 N   0  0  0  0  0  0  0  0  0  0  0  0
   23.4488  -20.5082  -12.8961 C   0  0  0  0  0  0  0  0  0  0  0  0
   23.2132  -19.2749  -13.0659 O   0  0  0  0  0  0  0  0  0  0  0  0
   22.3127  -21.2307  -16.2345 C   0  0  0  0  0  0  0  0  0  0  0  0
   21.1101  -21.5729  -15.3773 C   0  0  1  0  0  0  0  0  0  0  0  0
   21.0230  -22.9487  -15.3168 O   0  0  0  0  0  0  0  0  0  0  0  0
   21.2835  -20.9273  -14.0238 C   0  0  2  0  0  0  0  0  0  0  0  0
   22.4488  -21.4081  -13.3294 N   0  0  0  0  0  0  0  0  0  0  0  0
   20.1026  -21.0869  -13.1627 C   0  0  0  0  0  0  0  0  0  0  0  0
   18.8714  -20.5351  -13.4916 O   0  0  0  0  0  0  0  0  0  0  0  0
   20.2086  -21.7420  -12.0966 O   0  0  0  0  0  0  0  0  0  0  0  0
  2  1  1  0
  3  2  1  0
  3  4  1  6
  5 12  1  0
  5  3  1  0
  6  5  2  0
  8  7  1  1
  8 10  1  0
  9  8  1  0
 11 10  1  1
 11 12  1  0
 13 11  1  0
 13 19  1  0
 14 13  2  0
 16 15  1  6
 17 16  1  0
 18 19  1  1
 18 16  1  0
 20 18  1  0
 21 20  1  0
 22 20  2  0
M  END
$$$$
