SLT.pdb
     RDKit          3D

 22 21  0  0  1  0  0  0  0  0999 V2000
   17.6957   -9.2229  -21.0298 O   0  0  0  0  0  0  0  0  0  0  0  0
   17.8736   -8.9488  -19.6846 C   0  0  0  0  0  0  0  0  0  0  0  0
   18.5122  -10.1186  -18.9661 C   0  0  2  0  0  0  0  0  0  0  0  0
   17.5930  -11.2406  -18.9243 N   0  0  0  0  0  0  0  0  0  0  0  0
   18.9842   -9.7385  -17.6125 C   0  0  0  0  0  0  0  0  0  0  0  0
   18.1450   -9.5811  -16.7096 O   0  0  0  0  0  0  0  0  0  0  0  0
   21.9298   -9.9724  -13.4018 C   0  0  0  0  0  0  0  0  0  0  0  0
   22.8609   -9.7837  -14.5845 C   0  0  1  0  0  0  0  0  0  0  0  0
   24.0388  -10.7093  -14.3733 C   0  0  0  0  0  0  0  0  0  0  0  0
   22.0804  -10.1104  -15.8135 C   0  0  0  0  0  0  0  0  0  0  0  0
   20.8962   -9.2342  -16.0548 C   0  0  2  0  0  0  0  0  0  0  0  0
   20.3578   -9.5643  -17.3753 N   0  0  0  0  0  0  0  0  0  0  0  0
   21.4144   -7.8238  -16.1521 C   0  0  0  0  0  0  0  0  0  0  0  0
   22.2190   -7.4922  -17.0728 O   0  0  0  0  0  0  0  0  0  0  0  0
   19.1961   -4.6882  -14.8905 C   0  0  0  0  0  0  0  0  0  0  0  0
   20.3313   -4.5516  -15.8860 C   0  0  1  0  0  0  0  0  0  0  0  0
   20.6808   -3.2177  -15.9346 O   0  0  0  0  0  0  0  0  0  0  0  0
   21.4647   -5.4486  -15.4508 C   0  0  2  0  0  0  0  0  0  0  0  0
   21.0421   -6.8084  -15.2421 N   0  0  0  0  0  0  0  0  0  0  0  0
   22.1452   -4.9589  -14.2430 C   0  0  0  0  0  0  0  0  0  0  0  0
   22.9835   -3.8520  -14.2677 O   0  0  0  0  0  0  0  0  0  0  0  0
   21.9640   -5.5587  -13.1548 O   0  0  0  0  0  0  0  0  0  0  0  0
  2  1  1  0
  3  2  1  0
  3  4  1  1
  5 12  1  0
  5  3  1  0
  6  5  2  0
  8  7  1  1
  8 10  1  0
  9  8  1  0
 11 10  1  6
 11 12  1  0
 13 11  1  0
 13 19  1  0
 14 13  2  0
 16 15  1  1
 17 16  1  0
 18 19  1  1
 18 16  1  0
 20 18  1  0
 21 20  1  0
 22 20  2  0
M  END
$$$$
