SLT.pdb
     RDKit          3D

 22 21  0  0  1  0  0  0  0  0999 V2000
   28.5313  -18.6251  -15.9921 O   0  0  0  0  0  0  0  0  0  0  0  0
   27.5326  -19.3818  -15.4037 C   0  0  0  0  0  0  0  0  0  0  0  0
   28.0861  -20.2571  -14.2991 C   0  0  2  0  0  0  0  0  0  0  0  0
   28.9807  -21.2555  -14.8545 N   0  0  0  0  0  0  0  0  0  0  0  0
   27.0036  -20.8709  -13.4923 C   0  0  0  0  0  0  0  0  0  0  0  0
   26.4930  -21.9328  -13.8872 O   0  0  0  0  0  0  0  0  0  0  0  0
   26.3994  -19.4831   -8.0359 C   0  0  0  0  0  0  0  0  0  0  0  0
   26.4866  -20.4427   -9.2076 C   0  0  1  0  0  0  0  0  0  0  0  0
   26.2245  -21.8302   -8.6645 C   0  0  0  0  0  0  0  0  0  0  0  0
   25.4665  -20.0092  -10.2064 C   0  0  0  0  0  0  0  0  0  0  0  0
   25.4822  -20.7722  -11.4892 C   0  0  2  0  0  0  0  0  0  0  0  0
   26.5774  -20.2486  -12.3072 N   0  0  0  0  0  0  0  0  0  0  0  0
   24.2103  -20.4233  -12.2157 C   0  0  0  0  0  0  0  0  0  0  0  0
   24.0379  -19.2646  -12.6983 O   0  0  0  0  0  0  0  0  0  0  0  0
   20.6741  -21.7279  -15.1918 C   0  0  0  0  0  0  0  0  0  0  0  0
   21.9194  -22.0576  -14.3928 C   0  0  1  0  0  0  0  0  0  0  0  0
   22.9850  -22.0600  -15.2694 O   0  0  0  0  0  0  0  0  0  0  0  0
   22.0632  -21.0438  -13.2837 C   0  0  2  0  0  0  0  0  0  0  0  0
   23.1564  -21.3472  -12.3983 N   0  0  0  0  0  0  0  0  0  0  0  0
   20.8306  -20.8819  -12.4987 C   0  0  0  0  0  0  0  0  0  0  0  0
   19.7758  -20.0930  -12.9384 O   0  0  0  0  0  0  0  0  0  0  0  0
   20.7269  -21.4744  -11.3964 O   0  0  0  0  0  0  0  0  0  0  0  0
  2  1  1  0
  3  2  1  0
  3  4  1  6
  5 12  1  0
  5  3  1  0
  6  5  2  0
  8  7  1  1
  8 10  1  0
  9  8  1  0
 11 10  1  1
 11 12  1  0
 13 11  1  0
 13 19  1  0
 14 13  2  0
 16 15  1  6
 17 16  1  0
 18 19  1  1
 18 16  1  0
 20 18  1  0
 21 20  1  0
 22 20  2  0
M  END
$$$$
