SLT.pdb
     RDKit          3D

 22 21  0  0  1  0  0  0  0  0999 V2000
   19.6306   -9.4651  -20.9833 O   0  0  0  0  0  0  0  0  0  0  0  0
   19.5529   -9.0545  -19.6635 C   0  0  0  0  0  0  0  0  0  0  0  0
   19.8819  -10.1886  -18.7158 C   0  0  2  0  0  0  0  0  0  0  0  0
   18.8124  -11.1692  -18.7207 N   0  0  0  0  0  0  0  0  0  0  0  0
   20.1727   -9.6929  -17.3486 C   0  0  0  0  0  0  0  0  0  0  0  0
   19.2443   -9.6337  -16.5247 O   0  0  0  0  0  0  0  0  0  0  0  0
   24.4899  -11.4549  -14.7836 C   0  0  0  0  0  0  0  0  0  0  0  0
   23.0760  -10.9764  -15.0544 C   0  0  1  0  0  0  0  0  0  0  0  0
   22.2530  -11.3102  -13.8297 C   0  0  0  0  0  0  0  0  0  0  0  0
   23.1525   -9.5099  -15.3190 C   0  0  0  0  0  0  0  0  0  0  0  0
   21.8502   -8.8669  -15.6632 C   0  0  2  0  0  0  0  0  0  0  0  0
   21.4791   -9.3024  -17.0105 N   0  0  0  0  0  0  0  0  0  0  0  0
   22.1098   -7.3866  -15.7560 C   0  0  0  0  0  0  0  0  0  0  0  0
   22.9960   -6.9330  -16.5397 O   0  0  0  0  0  0  0  0  0  0  0  0
   19.9190   -4.8782  -16.9873 C   0  0  0  0  0  0  0  0  0  0  0  0
   20.3409   -4.3207  -15.6422 C   0  0  1  0  0  0  0  0  0  0  0  0
   19.2848   -4.4964  -14.7717 O   0  0  0  0  0  0  0  0  0  0  0  0
   21.5999   -5.0270  -15.2010 C   0  0  2  0  0  0  0  0  0  0  0  0
   21.3963   -6.4361  -14.9911 N   0  0  0  0  0  0  0  0  0  0  0  0
   22.1898   -4.4344  -13.9917 C   0  0  0  0  0  0  0  0  0  0  0  0
   22.7007   -3.1432  -13.9783 O   0  0  0  0  0  0  0  0  0  0  0  0
   22.2340   -5.1154  -12.9375 O   0  0  0  0  0  0  0  0  0  0  0  0
  2  1  1  0
  3  2  1  0
  3  4  1  1
  5 12  1  0
  5  3  1  0
  6  5  2  0
  8  7  1  1
  8 10  1  0
  9  8  1  0
 11 10  1  6
 11 12  1  0
 13 11  1  0
 13 19  1  0
 14 13  2  0
 16 15  1  6
 17 16  1  0
 18 19  1  1
 18 16  1  0
 20 18  1  0
 21 20  1  0
 22 20  2  0
M  END
$$$$
