SLT.pdb
     RDKit          3D

 22 21  0  0  1  0  0  0  0  0999 V2000
   19.7429   -9.1144  -21.6974 O   0  0  0  0  0  0  0  0  0  0  0  0
   19.9871   -8.8793  -20.3552 C   0  0  0  0  0  0  0  0  0  0  0  0
   20.5368  -10.1142  -19.6731 C   0  0  2  0  0  0  0  0  0  0  0  0
   19.5277  -11.1565  -19.6390 N   0  0  0  0  0  0  0  0  0  0  0  0
   21.0602   -9.8055  -18.3203 C   0  0  0  0  0  0  0  0  0  0  0  0
   20.2704   -9.8013  -17.3608 O   0  0  0  0  0  0  0  0  0  0  0  0
   24.6545  -10.0383  -14.5292 C   0  0  0  0  0  0  0  0  0  0  0  0
   25.2325   -9.2174  -15.6664 C   0  0  1  0  0  0  0  0  0  0  0  0
   26.6978   -9.5784  -15.7735 C   0  0  0  0  0  0  0  0  0  0  0  0
   24.4593   -9.5638  -16.8945 C   0  0  0  0  0  0  0  0  0  0  0  0
   23.0093   -9.2134  -16.8413 C   0  0  2  0  0  0  0  0  0  0  0  0
   22.4259   -9.5257  -18.1470 N   0  0  0  0  0  0  0  0  0  0  0  0
   22.9310   -7.7171  -16.6923 C   0  0  0  0  0  0  0  0  0  0  0  0
   23.5150   -6.9534  -17.5175 O   0  0  0  0  0  0  0  0  0  0  0  0
   20.6269   -3.7225  -15.1616 C   0  0  0  0  0  0  0  0  0  0  0  0
   20.6516   -5.2285  -15.3340 C   0  0  1  0  0  0  0  0  0  0  0  0
   19.7745   -5.5429  -16.3519 O   0  0  0  0  0  0  0  0  0  0  0  0
   22.0707   -5.6582  -15.6170 C   0  0  2  0  0  0  0  0  0  0  0  0
   22.2174   -7.0895  -15.6462 N   0  0  0  0  0  0  0  0  0  0  0  0
   23.0371   -5.0885  -14.6667 C   0  0  0  0  0  0  0  0  0  0  0  0
   23.2957   -5.6787  -13.4365 O   0  0  0  0  0  0  0  0  0  0  0  0
   23.6484   -4.0358  -14.9751 O   0  0  0  0  0  0  0  0  0  0  0  0
  2  1  1  0
  3  2  1  0
  3  4  1  1
  5 12  1  0
  5  3  1  0
  6  5  2  0
  8  7  1  1
  8 10  1  0
  9  8  1  0
 11 10  1  6
 11 12  1  0
 13 11  1  0
 13 19  1  0
 14 13  2  0
 16 15  1  6
 17 16  1  0
 18 19  1  1
 18 16  1  0
 20 18  1  0
 21 20  1  0
 22 20  2  0
M  END
$$$$
