SLT.pdb
     RDKit          3D

 22 21  0  0  1  0  0  0  0  0999 V2000
   19.1067  -10.8176  -20.7792 O   0  0  0  0  0  0  0  0  0  0  0  0
   19.5648  -10.3437  -19.5618 C   0  0  0  0  0  0  0  0  0  0  0  0
   20.3953  -11.3868  -18.8444 C   0  0  2  0  0  0  0  0  0  0  0  0
   19.5820  -12.5492  -18.5397 N   0  0  0  0  0  0  0  0  0  0  0  0
   21.0439  -10.8314  -17.6318 C   0  0  0  0  0  0  0  0  0  0  0  0
   20.4362  -10.8897  -16.5495 O   0  0  0  0  0  0  0  0  0  0  0  0
   25.0965  -10.3585  -14.4788 C   0  0  0  0  0  0  0  0  0  0  0  0
   25.4187   -9.5433  -15.7169 C   0  0  1  0  0  0  0  0  0  0  0  0
   26.8807   -9.7731  -16.0309 C   0  0  0  0  0  0  0  0  0  0  0  0
   24.5115  -10.0174  -16.8025 C   0  0  0  0  0  0  0  0  0  0  0  0
   23.0595   -9.7746  -16.5559 C   0  0  2  0  0  0  0  0  0  0  0  0
   22.3213  -10.2543  -17.7254 N   0  0  0  0  0  0  0  0  0  0  0  0
   22.8702   -8.2813  -16.5221 C   0  0  0  0  0  0  0  0  0  0  0  0
   23.2701   -7.5565  -17.4814 O   0  0  0  0  0  0  0  0  0  0  0  0
   19.9020   -6.4797  -16.8144 C   0  0  0  0  0  0  0  0  0  0  0  0
   20.4905   -5.9076  -15.5398 C   0  0  1  0  0  0  0  0  0  0  0  0
   19.8068   -6.4679  -14.4803 O   0  0  0  0  0  0  0  0  0  0  0  0
   21.9705   -6.2039  -15.5168 C   0  0  2  0  0  0  0  0  0  0  0  0
   22.2489   -7.6138  -15.4422 N   0  0  0  0  0  0  0  0  0  0  0  0
   22.6719   -5.5103  -14.4265 C   0  0  0  0  0  0  0  0  0  0  0  0
   22.7598   -4.1255  -14.3710 O   0  0  0  0  0  0  0  0  0  0  0  0
   23.2085   -6.1894  -13.5167 O   0  0  0  0  0  0  0  0  0  0  0  0
  2  1  1  0
  3  2  1  0
  3  4  1  1
  5 12  1  0
  5  3  1  0
  6  5  2  0
  8  7  1  1
  8 10  1  0
  9  8  1  0
 11 10  1  6
 11 12  1  0
 13 11  1  0
 13 19  1  0
 14 13  2  0
 16 15  1  6
 17 16  1  0
 18 19  1  1
 18 16  1  0
 20 18  1  0
 21 20  1  0
 22 20  2  0
M  END
$$$$
