SLT.pdb
     RDKit          3D

 22 21  0  0  1  0  0  0  0  0999 V2000
   18.1606   -8.2956  -21.2068 O   0  0  0  0  0  0  0  0  0  0  0  0
   18.1767   -8.0793  -19.8396 C   0  0  0  0  0  0  0  0  0  0  0  0
   18.4992   -9.3526  -19.0865 C   0  0  2  0  0  0  0  0  0  0  0  0
   17.3995  -10.2924  -19.2011 N   0  0  0  0  0  0  0  0  0  0  0  0
   18.8484   -9.0785  -17.6714 C   0  0  0  0  0  0  0  0  0  0  0  0
   17.9307   -8.9597  -16.8420 O   0  0  0  0  0  0  0  0  0  0  0  0
   21.4113   -9.6294  -13.2569 C   0  0  0  0  0  0  0  0  0  0  0  0
   22.4564   -9.3473  -14.3198 C   0  0  1  0  0  0  0  0  0  0  0  0
   23.6145  -10.2862  -14.0627 C   0  0  0  0  0  0  0  0  0  0  0  0
   21.8080   -9.5761  -15.6440 C   0  0  0  0  0  0  0  0  0  0  0  0
   20.6134   -8.7222  -15.9123 C   0  0  2  0  0  0  0  0  0  0  0  0
   20.1966   -8.9588  -17.2954 N   0  0  0  0  0  0  0  0  0  0  0  0
   21.0816   -7.2923  -15.8526 C   0  0  0  0  0  0  0  0  0  0  0  0
   21.9524   -6.8621  -16.6661 O   0  0  0  0  0  0  0  0  0  0  0  0
   20.5148   -2.6243  -14.5636 C   0  0  0  0  0  0  0  0  0  0  0  0
   19.9298   -4.0221  -14.6105 C   0  0  1  0  0  0  0  0  0  0  0  0
   18.9282   -4.0199  -15.5596 O   0  0  0  0  0  0  0  0  0  0  0  0
   21.0390   -4.9988  -14.9177 C   0  0  2  0  0  0  0  0  0  0  0  0
   20.5883   -6.3655  -14.9063 N   0  0  0  0  0  0  0  0  0  0  0  0
   22.1881   -4.8570  -14.0117 C   0  0  0  0  0  0  0  0  0  0  0  0
   22.2066   -5.4361  -12.7496 O   0  0  0  0  0  0  0  0  0  0  0  0
   23.1844   -4.1921  -14.3889 O   0  0  0  0  0  0  0  0  0  0  0  0
  2  1  1  0
  3  2  1  0
  3  4  1  1
  5 12  1  0
  5  3  1  0
  6  5  2  0
  8  7  1  1
  8 10  1  0
  9  8  1  0
 11 10  1  6
 11 12  1  0
 13 11  1  0
 13 19  1  0
 14 13  2  0
 16 15  1  6
 17 16  1  0
 18 19  1  1
 18 16  1  0
 20 18  1  0
 21 20  1  0
 22 20  2  0
M  END
$$$$
