SLT.pdb
     RDKit          3D

 22 21  0  0  1  0  0  0  0  0999 V2000
   21.4125   -9.1007  -19.9119 O   0  0  0  0  0  0  0  0  0  0  0  0
   21.1983  -10.4676  -19.8637 C   0  0  0  0  0  0  0  0  0  0  0  0
   22.4046  -11.1926  -19.3054 C   0  0  2  0  0  0  0  0  0  0  0  0
   22.1806  -12.6260  -19.3295 N   0  0  0  0  0  0  0  0  0  0  0  0
   22.7540  -10.7093  -17.9475 C   0  0  0  0  0  0  0  0  0  0  0  0
   22.1123  -11.1429  -16.9757 O   0  0  0  0  0  0  0  0  0  0  0  0
   27.7772  -10.3124  -16.3783 C   0  0  0  0  0  0  0  0  0  0  0  0
   26.2771  -10.5322  -16.3243 C   0  0  1  0  0  0  0  0  0  0  0  0
   25.9833  -11.2694  -15.0363 C   0  0  0  0  0  0  0  0  0  0  0  0
   25.6345   -9.1869  -16.3814 C   0  0  0  0  0  0  0  0  0  0  0  0
   24.1454   -9.2079  -16.4824 C   0  0  2  0  0  0  0  0  0  0  0  0
   23.7937   -9.7790  -17.7835 N   0  0  0  0  0  0  0  0  0  0  0  0
   23.6938   -7.7719  -16.5172 C   0  0  0  0  0  0  0  0  0  0  0  0
   24.1328   -6.9769  -17.4007 O   0  0  0  0  0  0  0  0  0  0  0  0
   20.9402   -6.2701  -17.6569 C   0  0  0  0  0  0  0  0  0  0  0  0
   20.9517   -5.7318  -16.2397 C   0  0  1  0  0  0  0  0  0  0  0  0
   20.0102   -6.4394  -15.5207 O   0  0  0  0  0  0  0  0  0  0  0  0
   22.3489   -5.8657  -15.6844 C   0  0  2  0  0  0  0  0  0  0  0  0
   22.7739   -7.2372  -15.5869 N   0  0  0  0  0  0  0  0  0  0  0  0
   22.5055   -5.2128  -14.3765 C   0  0  0  0  0  0  0  0  0  0  0  0
   22.3592   -3.8412  -14.2158 O   0  0  0  0  0  0  0  0  0  0  0  0
   22.7801   -5.9154  -13.3725 O   0  0  0  0  0  0  0  0  0  0  0  0
  2  1  1  0
  3  2  1  0
  3  4  1  1
  5 12  1  0
  5  3  1  0
  6  5  2  0
  8  7  1  1
  8 10  1  0
  9  8  1  0
 11 10  1  6
 11 12  1  0
 13 11  1  0
 13 19  1  0
 14 13  2  0
 16 15  1  6
 17 16  1  0
 18 19  1  1
 18 16  1  0
 20 18  1  0
 21 20  1  0
 22 20  2  0
M  END
$$$$
