SLT.pdb
     RDKit          3D

 22 21  0  0  1  0  0  0  0  0999 V2000
   18.5963  -13.8970  -18.2653 O   0  0  0  0  0  0  0  0  0  0  0  0
   19.0139  -13.2875  -17.0946 C   0  0  0  0  0  0  0  0  0  0  0  0
   19.3302  -11.8242  -17.3205 C   0  0  2  0  0  0  0  0  0  0  0  0
   20.1585  -11.6693  -18.5019 N   0  0  0  0  0  0  0  0  0  0  0  0
   19.9516  -11.2071  -16.1236 C   0  0  0  0  0  0  0  0  0  0  0  0
   19.3480  -11.2672  -15.0390 O   0  0  0  0  0  0  0  0  0  0  0  0
   25.1849  -11.6583  -15.2353 C   0  0  0  0  0  0  0  0  0  0  0  0
   23.6842  -11.5743  -15.0301 C   0  0  1  0  0  0  0  0  0  0  0  0
   23.3949  -12.1160  -13.6475 C   0  0  0  0  0  0  0  0  0  0  0  0
   23.3003  -10.1406  -15.1827 C   0  0  0  0  0  0  0  0  0  0  0  0
   21.8332   -9.8743  -15.1136 C   0  0  2  0  0  0  0  0  0  0  0  0
   21.1994  -10.5712  -16.2340 N   0  0  0  0  0  0  0  0  0  0  0  0
   21.6479   -8.4029  -15.3742 C   0  0  0  0  0  0  0  0  0  0  0  0
   22.1754   -7.5393  -14.6117 O   0  0  0  0  0  0  0  0  0  0  0  0
   20.6641   -4.6496  -18.3134 C   0  0  0  0  0  0  0  0  0  0  0  0
   20.6177   -6.1565  -18.1543 C   0  0  1  0  0  0  0  0  0  0  0  0
   21.6120   -6.6874  -18.9502 O   0  0  0  0  0  0  0  0  0  0  0  0
   20.7827   -6.4922  -16.6919 C   0  0  2  0  0  0  0  0  0  0  0  0
   20.8912   -7.9085  -16.4607 N   0  0  0  0  0  0  0  0  0  0  0  0
   19.7035   -5.9435  -15.8577 C   0  0  0  0  0  0  0  0  0  0  0  0
   19.8284   -4.7281  -15.1978 O   0  0  0  0  0  0  0  0  0  0  0  0
   18.6353   -6.5926  -15.7371 O   0  0  0  0  0  0  0  0  0  0  0  0
  2  1  1  0
  3  2  1  0
  3  4  1  6
  5 12  1  0
  5  3  1  0
  6  5  2  0
  8  7  1  1
  8 10  1  0
  9  8  1  0
 11 10  1  6
 11 12  1  0
 13 11  1  0
 13 19  1  0
 14 13  2  0
 16 15  1  1
 17 16  1  0
 18 19  1  6
 18 16  1  0
 20 18  1  0
 21 20  1  0
 22 20  2  0
M  END
$$$$
