SLT.pdb
     RDKit          3D

 22 21  0  0  1  0  0  0  0  0999 V2000
   28.1165  -18.1890  -16.3983 O   0  0  0  0  0  0  0  0  0  0  0  0
   27.3784  -18.5454  -15.2826 C   0  0  0  0  0  0  0  0  0  0  0  0
   27.8529  -19.8639  -14.7092 C   0  0  2  0  0  0  0  0  0  0  0  0
   28.5593  -20.6239  -15.7236 N   0  0  0  0  0  0  0  0  0  0  0  0
   26.7349  -20.6372  -14.1162 C   0  0  0  0  0  0  0  0  0  0  0  0
   26.4099  -21.7157  -14.6411 O   0  0  0  0  0  0  0  0  0  0  0  0
   25.9173  -20.1206   -8.7125 C   0  0  0  0  0  0  0  0  0  0  0  0
   26.1447  -20.7083  -10.0925 C   0  0  1  0  0  0  0  0  0  0  0  0
   26.3813  -22.1912   -9.9092 C   0  0  0  0  0  0  0  0  0  0  0  0
   24.9268  -20.4115  -10.9017 C   0  0  0  0  0  0  0  0  0  0  0  0
   24.9882  -20.8755  -12.3191 C   0  0  2  0  0  0  0  0  0  0  0  0
   26.0683  -20.1432  -12.9825 N   0  0  0  0  0  0  0  0  0  0  0  0
   23.7100  -20.4273  -12.9767 C   0  0  0  0  0  0  0  0  0  0  0  0
   23.4404  -19.1949  -13.0943 O   0  0  0  0  0  0  0  0  0  0  0  0
   22.7612  -21.0969  -16.3995 C   0  0  0  0  0  0  0  0  0  0  0  0
   21.5271  -21.4815  -15.6075 C   0  0  1  0  0  0  0  0  0  0  0  0
   21.4686  -22.8598  -15.5759 O   0  0  0  0  0  0  0  0  0  0  0  0
   21.6208  -20.8581  -14.2359 C   0  0  2  0  0  0  0  0  0  0  0  0
   22.7559  -21.3347  -13.4906 N   0  0  0  0  0  0  0  0  0  0  0  0
   20.3997  -21.0500  -13.4399 C   0  0  0  0  0  0  0  0  0  0  0  0
   19.1686  -20.5543  -13.8488 O   0  0  0  0  0  0  0  0  0  0  0  0
   20.4702  -21.6814  -12.3567 O   0  0  0  0  0  0  0  0  0  0  0  0
  2  1  1  0
  3  2  1  0
  3  4  1  6
  5 12  1  0
  5  3  1  0
  6  5  2  0
  8  7  1  1
  8 10  1  0
  9  8  1  0
 11 10  1  1
 11 12  1  0
 13 11  1  0
 13 19  1  0
 14 13  2  0
 16 15  1  6
 17 16  1  0
 18 19  1  1
 18 16  1  0
 20 18  1  0
 21 20  1  0
 22 20  2  0
M  END
$$$$
