LLC.pdb
     RDKit          3D

 23 22  0  0  1  0  0  0  0  0999 V2000
    7.4766  -20.1389   22.1390 C   0  0  0  0  0  0  0  0  0  0  0  0
    7.7048  -18.8540   21.4052 C   0  0  2  0  0  0  0  0  0  0  0  0
    8.5717  -19.1131   20.1933 C   0  0  0  0  0  0  0  0  0  0  0  0
    8.3543  -17.8309   22.3108 C   0  0  0  0  0  0  0  0  0  0  0  0
    7.7622  -16.4660   22.1513 C   0  0  2  0  0  0  0  0  0  0  0  0
    8.0225  -15.9867   20.8278 N   0  0  0  0  0  0  0  0  0  0  0  0
    8.4452  -15.5697   23.1326 C   0  0  0  0  0  0  0  0  0  0  0  0
    9.5678  -15.0990   22.8320 O   0  0  0  0  0  0  0  0  0  0  0  0
    7.3585  -11.6094   24.9599 C   0  0  0  0  0  0  0  0  0  0  0  0
    6.6406  -12.7837   25.5937 C   0  0  2  0  0  0  0  0  0  0  0  0
    5.4790  -12.3046   26.3718 C   0  0  0  0  0  0  0  0  0  0  0  0
    7.5233  -13.7951   26.1947 C   0  0  0  0  0  0  0  0  0  0  0  0
    8.5381  -14.4984   25.3909 C   0  0  2  0  0  0  0  0  0  0  0  0
    7.8074  -15.2803   24.3665 N   0  0  0  0  0  0  0  0  0  0  0  0
    9.5162  -15.3515   26.0227 C   0  0  0  0  0  0  0  0  0  0  0  0
   10.2064  -14.8706   27.0033 O   0  0  0  0  0  0  0  0  0  0  0  0
    9.8301  -16.6930   25.7104 N   0  0  0  0  0  0  0  0  0  0  0  0
   10.9414  -17.3944   26.3347 C   0  0  1  0  0  0  0  0  0  0  0  0
   10.3121  -18.4068   27.2991 C   0  0  0  0  0  0  0  0  0  0  0  0
   11.6228  -19.3863   28.0812 S   0  0  0  0  0  0  0  0  0  0  0  0
   11.7598  -18.1816   25.3975 C   0  0  0  0  0  0  0  0  0  0  0  0
   13.0965  -18.4192   25.7245 O   0  0  0  0  0  0  0  0  0  0  0  0
   11.3666  -18.6660   24.3187 O   0  0  0  0  0  0  0  0  0  0  0  0
  2  1  1  1
  2  3  1  0
  4  5  1  0
  4  2  1  0
  5  7  1  0
  5  6  1  6
  7  8  2  0
 10  9  1  1
 11 10  1  0
 12 10  1  0
 13 12  1  1
 14 13  1  0
 14  7  1  0
 15 17  1  0
 15 13  1  0
 16 15  2  0
 18 21  1  0
 18 17  1  0
 18 19  1  1
 20 19  1  0
 21 22  1  0
 23 21  2  0
M  END
$$$$
