LLC.pdb
     RDKit          3D

 23 22  0  0  1  0  0  0  0  0999 V2000
    6.4937  -12.9850   26.2694 C   0  0  0  0  0  0  0  0  0  0  0  0
    7.5231  -13.6919   27.0953 C   0  0  2  0  0  0  0  0  0  0  0  0
    8.7734  -12.8447   27.1753 C   0  0  0  0  0  0  0  0  0  0  0  0
    7.8405  -15.0484   26.5053 C   0  0  0  0  0  0  0  0  0  0  0  0
    6.8514  -15.4660   25.4631 C   0  0  2  0  0  0  0  0  0  0  0  0
    6.1130  -16.5978   25.9351 N   0  0  0  0  0  0  0  0  0  0  0  0
    7.6282  -15.8672   24.2513 C   0  0  0  0  0  0  0  0  0  0  0  0
    7.8424  -17.0869   24.0550 O   0  0  0  0  0  0  0  0  0  0  0  0
    6.5004  -14.3591   20.1409 C   0  0  0  0  0  0  0  0  0  0  0  0
    7.4937  -13.4451   20.8294 C   0  0  2  0  0  0  0  0  0  0  0  0
    7.5495  -12.1436   20.1314 C   0  0  0  0  0  0  0  0  0  0  0  0
    8.7562  -14.0898   21.2214 C   0  0  0  0  0  0  0  0  0  0  0  0
    8.7704  -15.2657   22.1089 C   0  0  2  0  0  0  0  0  0  0  0  0
    8.0967  -14.8629   23.3653 N   0  0  0  0  0  0  0  0  0  0  0  0
   10.0112  -15.9282   22.4335 C   0  0  0  0  0  0  0  0  0  0  0  0
   10.6319  -16.5610   21.4937 O   0  0  0  0  0  0  0  0  0  0  0  0
   10.6697  -15.9760   23.6824 N   0  0  0  0  0  0  0  0  0  0  0  0
   11.9302  -16.6787   23.8675 C   0  0  1  0  0  0  0  0  0  0  0  0
   12.7127  -15.8726   24.9110 C   0  0  0  0  0  0  0  0  0  0  0  0
   13.2457  -14.3009   24.1799 S   0  0  0  0  0  0  0  0  0  0  0  0
   11.7880  -18.0340   24.4251 C   0  0  0  0  0  0  0  0  0  0  0  0
   10.5053  -18.4913   24.7343 O   0  0  0  0  0  0  0  0  0  0  0  0
   12.7211  -18.8283   24.6522 O   0  0  0  0  0  0  0  0  0  0  0  0
  2  1  1  6
  2  3  1  0
  4  5  1  0
  4  2  1  0
  5  7  1  0
  5  6  1  1
  7  8  2  0
 10  9  1  6
 11 10  1  0
 12 10  1  0
 13 12  1  6
 14 13  1  0
 14  7  1  0
 15 17  1  0
 15 13  1  0
 16 15  2  0
 18 21  1  0
 18 17  1  0
 18 19  1  1
 20 19  1  0
 21 22  1  0
 23 21  2  0
M  END
$$$$
