LLC.pdb
     RDKit          3D

 23 22  0  0  1  0  0  0  0  0999 V2000
    6.1360  -17.5136   19.9457 C   0  0  0  0  0  0  0  0  0  0  0  0
    7.5720  -17.9341   19.9974 C   0  0  2  0  0  0  0  0  0  0  0  0
    7.6557  -19.4441   19.9813 C   0  0  0  0  0  0  0  0  0  0  0  0
    8.2455  -17.3804   21.2338 C   0  0  0  0  0  0  0  0  0  0  0  0
    8.0564  -15.9030   21.3769 C   0  0  2  0  0  0  0  0  0  0  0  0
    8.8235  -15.2265   20.3753 N   0  0  0  0  0  0  0  0  0  0  0  0
    8.5755  -15.5188   22.7243 C   0  0  0  0  0  0  0  0  0  0  0  0
    9.8079  -15.3313   22.8593 O   0  0  0  0  0  0  0  0  0  0  0  0
    7.9182  -11.9950   25.6409 C   0  0  0  0  0  0  0  0  0  0  0  0
    6.7457  -12.9539   25.5980 C   0  0  2  0  0  0  0  0  0  0  0  0
    5.5841  -12.3620   26.2941 C   0  0  0  0  0  0  0  0  0  0  0  0
    7.0877  -14.3591   25.8663 C   0  0  0  0  0  0  0  0  0  0  0  0
    8.1841  -15.0296   25.1459 C   0  0  2  0  0  0  0  0  0  0  0  0
    7.6646  -15.3786   23.8031 N   0  0  0  0  0  0  0  0  0  0  0  0
    8.8376  -16.1860   25.7111 C   0  0  0  0  0  0  0  0  0  0  0  0
    8.1299  -17.2449   25.9277 O   0  0  0  0  0  0  0  0  0  0  0  0
   10.1974  -16.3281   26.0669 N   0  0  0  0  0  0  0  0  0  0  0  0
   10.7179  -17.5465   26.6681 C   0  0  1  0  0  0  0  0  0  0  0  0
   12.1945  -17.6193   26.2615 C   0  0  0  0  0  0  0  0  0  0  0  0
   12.3232  -17.5648   24.4534 S   0  0  0  0  0  0  0  0  0  0  0  0
   10.7021  -17.5461   28.1403 C   0  0  0  0  0  0  0  0  0  0  0  0
   11.1109  -18.7031   28.8070 O   0  0  0  0  0  0  0  0  0  0  0  0
   10.3520  -16.5933   28.8635 O   0  0  0  0  0  0  0  0  0  0  0  0
  2  1  1  1
  2  3  1  0
  4  5  1  0
  4  2  1  0
  5  7  1  0
  5  6  1  6
  7  8  2  0
 10  9  1  1
 11 10  1  0
 12 10  1  0
 13 12  1  1
 14 13  1  0
 14  7  1  0
 15 17  1  0
 15 13  1  0
 16 15  2  0
 18 21  1  0
 18 17  1  0
 18 19  1  1
 20 19  1  0
 21 22  1  0
 23 21  2  0
M  END
$$$$
