LLC.pdb
     RDKit          3D

 23 22  0  0  1  0  0  0  0  0999 V2000
    8.4567  -14.5421   18.4897 C   0  0  0  0  0  0  0  0  0  0  0  0
    7.6990  -13.6487   19.4221 C   0  0  2  0  0  0  0  0  0  0  0  0
    7.7124  -12.2343   18.8866 C   0  0  0  0  0  0  0  0  0  0  0  0
    8.2994  -13.6943   20.8100 C   0  0  0  0  0  0  0  0  0  0  0  0
    8.2515  -15.0639   21.4108 C   0  0  2  0  0  0  0  0  0  0  0  0
    6.9081  -15.5559   21.3656 N   0  0  0  0  0  0  0  0  0  0  0  0
    8.6712  -14.9355   22.8391 C   0  0  0  0  0  0  0  0  0  0  0  0
    9.8469  -14.5773   23.0871 O   0  0  0  0  0  0  0  0  0  0  0  0
    7.9121  -12.1841   26.3398 C   0  0  0  0  0  0  0  0  0  0  0  0
    6.7320  -13.0613   25.9739 C   0  0  2  0  0  0  0  0  0  0  0  0
    5.5062  -12.5562   26.6269 C   0  0  0  0  0  0  0  0  0  0  0  0
    7.0040  -14.5064   26.0064 C   0  0  0  0  0  0  0  0  0  0  0  0
    8.1480  -15.0852   25.2804 C   0  0  2  0  0  0  0  0  0  0  0  0
    7.7333  -15.2208   23.8647 N   0  0  0  0  0  0  0  0  0  0  0  0
    8.7447  -16.3256   25.7153 C   0  0  0  0  0  0  0  0  0  0  0  0
    7.9875  -17.3674   25.8163 O   0  0  0  0  0  0  0  0  0  0  0  0
   10.0950  -16.5692   26.0515 N   0  0  0  0  0  0  0  0  0  0  0  0
   10.5465  -17.8540   26.5634 C   0  0  1  0  0  0  0  0  0  0  0  0
   11.9903  -18.0187   26.0739 C   0  0  0  0  0  0  0  0  0  0  0  0
   12.0544  -17.7313   24.2845 S   0  0  0  0  0  0  0  0  0  0  0  0
   10.6052  -17.9303   28.0326 C   0  0  0  0  0  0  0  0  0  0  0  0
   10.2351  -16.8030   28.7691 O   0  0  0  0  0  0  0  0  0  0  0  0
   10.9604  -18.9240   28.6955 O   0  0  0  0  0  0  0  0  0  0  0  0
  2  1  1  6
  2  3  1  0
  4  5  1  0
  4  2  1  0
  5  7  1  0
  5  6  1  1
  7  8  2  0
 10  9  1  1
 11 10  1  0
 12 10  1  0
 13 12  1  1
 14 13  1  0
 14  7  1  0
 15 17  1  0
 15 13  1  0
 16 15  2  0
 18 21  1  0
 18 17  1  0
 18 19  1  6
 20 19  1  0
 21 22  1  0
 23 21  2  0
M  END
$$$$
