LLC.pdb
     RDKit          3D

 23 22  0  0  1  0  0  0  0  0999 V2000
    8.5995  -12.7572   18.0137 C   0  0  0  0  0  0  0  0  0  0  0  0
    7.9865  -13.7232   18.9794 C   0  0  2  0  0  0  0  0  0  0  0  0
    6.6506  -13.1894   19.4464 C   0  0  0  0  0  0  0  0  0  0  0  0
    8.9054  -13.9535   20.1590 C   0  0  0  0  0  0  0  0  0  0  0  0
    8.5758  -15.2073   20.9063 C   0  0  2  0  0  0  0  0  0  0  0  0
    7.1709  -15.4635   20.8084 N   0  0  0  0  0  0  0  0  0  0  0  0
    8.9254  -14.9729   22.3400 C   0  0  0  0  0  0  0  0  0  0  0  0
   10.1335  -14.8354   22.6462 O   0  0  0  0  0  0  0  0  0  0  0  0
    5.8439  -12.7135   27.1203 C   0  0  0  0  0  0  0  0  0  0  0  0
    7.1667  -13.2605   26.6233 C   0  0  2  0  0  0  0  0  0  0  0  0
    8.2713  -12.3778   27.0533 C   0  0  0  0  0  0  0  0  0  0  0  0
    7.1512  -13.7453   25.2347 C   0  0  0  0  0  0  0  0  0  0  0  0
    8.2275  -14.6061   24.7137 C   0  0  2  0  0  0  0  0  0  0  0  0
    7.8871  -14.9133   23.3051 N   0  0  0  0  0  0  0  0  0  0  0  0
    8.5817  -15.8319   25.3888 C   0  0  0  0  0  0  0  0  0  0  0  0
    7.6949  -16.7683   25.4638 O   0  0  0  0  0  0  0  0  0  0  0  0
    9.8133  -16.1649   25.9954 N   0  0  0  0  0  0  0  0  0  0  0  0
   10.0238  -17.4334   26.6762 C   0  0  1  0  0  0  0  0  0  0  0  0
   11.2003  -18.1063   25.9590 C   0  0  0  0  0  0  0  0  0  0  0  0
   10.9544  -19.9030   25.9570 S   0  0  0  0  0  0  0  0  0  0  0  0
   10.4300  -17.3008   28.0852 C   0  0  0  0  0  0  0  0  0  0  0  0
   10.4546  -18.4502   28.8780 O   0  0  0  0  0  0  0  0  0  0  0  0
   10.7607  -16.2401   28.6498 O   0  0  0  0  0  0  0  0  0  0  0  0
  2  1  1  6
  2  3  1  0
  4  5  1  0
  4  2  1  0
  5  7  1  0
  5  6  1  1
  7  8  2  0
 10  9  1  6
 11 10  1  0
 12 10  1  0
 13 12  1  1
 14 13  1  0
 14  7  1  0
 15 17  1  0
 15 13  1  0
 16 15  2  0
 18 21  1  0
 18 17  1  0
 18 19  1  6
 20 19  1  0
 21 22  1  0
 23 21  2  0
M  END
$$$$
