LLC.pdb
     RDKit          3D

 23 22  0  0  1  0  0  0  0  0999 V2000
    8.5103  -14.2987   18.5405 C   0  0  0  0  0  0  0  0  0  0  0  0
    7.7354  -13.4151   19.4680 C   0  0  2  0  0  0  0  0  0  0  0  0
    7.8082  -11.9854   18.9799 C   0  0  0  0  0  0  0  0  0  0  0  0
    8.2730  -13.5203   20.8782 C   0  0  0  0  0  0  0  0  0  0  0  0
    8.1802  -14.9101   21.4250 C   0  0  2  0  0  0  0  0  0  0  0  0
    6.8210  -15.3549   21.3642 N   0  0  0  0  0  0  0  0  0  0  0  0
    8.6058  -14.8519   22.8561 C   0  0  0  0  0  0  0  0  0  0  0  0
    9.8089  -14.6093   23.1129 O   0  0  0  0  0  0  0  0  0  0  0  0
    8.1275  -12.1907   26.4580 C   0  0  0  0  0  0  0  0  0  0  0  0
    6.8605  -12.9363   26.0909 C   0  0  2  0  0  0  0  0  0  0  0  0
    5.7051  -12.3472   26.7997 C   0  0  0  0  0  0  0  0  0  0  0  0
    6.9944  -14.4006   26.0560 C   0  0  0  0  0  0  0  0  0  0  0  0
    8.0730  -15.0512   25.2919 C   0  0  2  0  0  0  0  0  0  0  0  0
    7.6426  -15.0714   23.8745 N   0  0  0  0  0  0  0  0  0  0  0  0
    8.5450  -16.3655   25.6575 C   0  0  0  0  0  0  0  0  0  0  0  0
    7.6718  -17.2964   25.8573 O   0  0  0  0  0  0  0  0  0  0  0  0
    9.8809  -16.7930   25.8264 N   0  0  0  0  0  0  0  0  0  0  0  0
   10.2168  -18.1624   26.1851 C   0  0  1  0  0  0  0  0  0  0  0  0
   11.3998  -18.5538   25.2916 C   0  0  0  0  0  0  0  0  0  0  0  0
   12.4133  -17.0869   24.9601 S   0  0  0  0  0  0  0  0  0  0  0  0
   10.6846  -18.3245   27.5717 C   0  0  0  0  0  0  0  0  0  0  0  0
   10.7652  -17.1887   28.3801 O   0  0  0  0  0  0  0  0  0  0  0  0
   11.0224  -19.3995   28.1041 O   0  0  0  0  0  0  0  0  0  0  0  0
  2  1  1  6
  2  3  1  0
  4  5  1  0
  4  2  1  0
  5  7  1  0
  5  6  1  1
  7  8  2  0
 10  9  1  1
 11 10  1  0
 12 10  1  0
 13 12  1  1
 14 13  1  0
 14  7  1  0
 15 17  1  0
 15 13  1  0
 16 15  2  0
 18 21  1  0
 18 17  1  0
 18 19  1  6
 20 19  1  0
 21 22  1  0
 23 21  2  0
M  END
$$$$
