LLC.pdb
     RDKit          3D

 23 22  0  0  1  0  0  0  0  0999 V2000
    7.9417  -12.1223   20.1959 C   0  0  0  0  0  0  0  0  0  0  0  0
    8.4290  -13.5120   20.4649 C   0  0  2  0  0  0  0  0  0  0  0  0
    8.8749  -14.1495   19.1679 C   0  0  0  0  0  0  0  0  0  0  0  0
    7.3437  -14.3411   21.1157 C   0  0  0  0  0  0  0  0  0  0  0  0
    7.8816  -15.5677   21.7830 C   0  0  2  0  0  0  0  0  0  0  0  0
    6.8120  -16.4904   22.0148 N   0  0  0  0  0  0  0  0  0  0  0  0
    8.4473  -15.1434   23.0993 C   0  0  0  0  0  0  0  0  0  0  0  0
    9.6541  -14.8073   23.1513 O   0  0  0  0  0  0  0  0  0  0  0  0
    7.9857  -11.5932   25.8872 C   0  0  0  0  0  0  0  0  0  0  0  0
    6.8501  -12.5915   25.7875 C   0  0  2  0  0  0  0  0  0  0  0  0
    5.5904  -11.9702   26.2473 C   0  0  0  0  0  0  0  0  0  0  0  0
    7.1783  -13.9478   26.2526 C   0  0  0  0  0  0  0  0  0  0  0  0
    8.1840  -14.7710   25.5587 C   0  0  2  0  0  0  0  0  0  0  0  0
    7.6077  -15.1337   24.2430 N   0  0  0  0  0  0  0  0  0  0  0  0
    8.7188  -15.9591   26.1801 C   0  0  0  0  0  0  0  0  0  0  0  0
    9.2427  -15.8524   27.3562 O   0  0  0  0  0  0  0  0  0  0  0  0
    8.7429  -17.2739   25.6638 N   0  0  0  0  0  0  0  0  0  0  0  0
    9.3735  -18.3747   26.3761 C   0  0  1  0  0  0  0  0  0  0  0  0
    8.5000  -19.6058   26.1072 C   0  0  0  0  0  0  0  0  0  0  0  0
    6.8288  -19.3078   26.7453 S   0  0  0  0  0  0  0  0  0  0  0  0
   10.7190  -18.7171   25.8861 C   0  0  0  0  0  0  0  0  0  0  0  0
   11.3515  -19.8418   26.4201 O   0  0  0  0  0  0  0  0  0  0  0  0
   11.3608  -18.0871   25.0232 O   0  0  0  0  0  0  0  0  0  0  0  0
  2  1  1  6
  2  3  1  0
  4  5  1  0
  4  2  1  0
  5  7  1  0
  5  6  1  1
  7  8  2  0
 10  9  1  1
 11 10  1  0
 12 10  1  0
 13 12  1  1
 14 13  1  0
 14  7  1  0
 15 17  1  0
 15 13  1  0
 16 15  2  0
 18 21  1  0
 18 17  1  0
 18 19  1  6
 20 19  1  0
 21 22  1  0
 23 21  2  0
M  END
$$$$
