LLC.pdb
     RDKit          3D

 23 22  0  0  1  0  0  0  0  0999 V2000
    8.5766  -14.2517   18.8486 C   0  0  0  0  0  0  0  0  0  0  0  0
    7.6277  -13.4978   19.7277 C   0  0  2  0  0  0  0  0  0  0  0  0
    7.4638  -12.0895   19.2010 C   0  0  0  0  0  0  0  0  0  0  0  0
    8.1282  -13.4736   21.1552 C   0  0  0  0  0  0  0  0  0  0  0  0
    8.3137  -14.8463   21.7211 C   0  0  2  0  0  0  0  0  0  0  0  0
    7.0682  -15.5505   21.6780 N   0  0  0  0  0  0  0  0  0  0  0  0
    8.7281  -14.6846   23.1476 C   0  0  0  0  0  0  0  0  0  0  0  0
    9.8978  -14.3044   23.3912 O   0  0  0  0  0  0  0  0  0  0  0  0
    8.0179  -11.7043   26.2918 C   0  0  0  0  0  0  0  0  0  0  0  0
    6.8454  -12.6131   25.9830 C   0  0  2  0  0  0  0  0  0  0  0  0
    5.5917  -12.0038   26.4741 C   0  0  0  0  0  0  0  0  0  0  0  0
    7.0855  -14.0404   26.2446 C   0  0  0  0  0  0  0  0  0  0  0  0
    8.1900  -14.7622   25.5891 C   0  0  2  0  0  0  0  0  0  0  0  0
    7.7919  -14.9640   24.1765 N   0  0  0  0  0  0  0  0  0  0  0  0
    8.6720  -16.0134   26.1240 C   0  0  0  0  0  0  0  0  0  0  0  0
    8.9568  -16.0723   27.3827 O   0  0  0  0  0  0  0  0  0  0  0  0
    8.8760  -17.2309   25.4370 N   0  0  0  0  0  0  0  0  0  0  0  0
    9.3237  -18.4377   26.1152 C   0  0  1  0  0  0  0  0  0  0  0  0
    8.3138  -19.5296   25.7425 C   0  0  0  0  0  0  0  0  0  0  0  0
    6.6420  -18.9741   26.1730 S   0  0  0  0  0  0  0  0  0  0  0  0
   10.6368  -18.9292   25.6660 C   0  0  0  0  0  0  0  0  0  0  0  0
   11.1668  -20.0628   26.2860 O   0  0  0  0  0  0  0  0  0  0  0  0
   11.3350  -18.4209   24.7675 O   0  0  0  0  0  0  0  0  0  0  0  0
  2  1  1  6
  2  3  1  0
  4  5  1  0
  4  2  1  0
  5  7  1  0
  5  6  1  1
  7  8  2  0
 10  9  1  1
 11 10  1  0
 12 10  1  0
 13 12  1  1
 14 13  1  0
 14  7  1  0
 15 17  1  0
 15 13  1  0
 16 15  2  0
 18 21  1  0
 18 17  1  0
 18 19  1  6
 20 19  1  0
 21 22  1  0
 23 21  2  0
M  END
$$$$
