LLC.pdb
     RDKit          3D

 23 22  0  0  1  0  0  0  0  0999 V2000
    8.3855  -14.5128   17.8283 C   0  0  0  0  0  0  0  0  0  0  0  0
    7.8461  -13.4946   18.7841 C   0  0  2  0  0  0  0  0  0  0  0  0
    8.0246  -12.1110   18.1999 C   0  0  0  0  0  0  0  0  0  0  0  0
    8.5438  -13.5973   20.1226 C   0  0  0  0  0  0  0  0  0  0  0  0
    8.2781  -14.9001   20.8091 C   0  0  2  0  0  0  0  0  0  0  0  0
    6.8746  -15.1791   20.7723 N   0  0  0  0  0  0  0  0  0  0  0  0
    8.7024  -14.7444   22.2334 C   0  0  0  0  0  0  0  0  0  0  0  0
    9.9191  -14.5669   22.4789 O   0  0  0  0  0  0  0  0  0  0  0  0
    5.9945  -12.5873   27.2339 C   0  0  0  0  0  0  0  0  0  0  0  0
    7.2578  -13.1563   26.6205 C   0  0  2  0  0  0  0  0  0  0  0  0
    8.3942  -12.2446   26.8687 C   0  0  0  0  0  0  0  0  0  0  0  0
    7.0888  -13.7221   25.2734 C   0  0  0  0  0  0  0  0  0  0  0  0
    8.1316  -14.5644   24.6620 C   0  0  2  0  0  0  0  0  0  0  0  0
    7.7227  -14.8017   23.2580 N   0  0  0  0  0  0  0  0  0  0  0  0
    8.5061  -15.8234   25.2607 C   0  0  0  0  0  0  0  0  0  0  0  0
    7.6153  -16.7562   25.3333 O   0  0  0  0  0  0  0  0  0  0  0  0
    9.7618  -16.1934   25.7919 N   0  0  0  0  0  0  0  0  0  0  0  0
   10.0093  -17.5154   26.3468 C   0  0  1  0  0  0  0  0  0  0  0  0
   11.2181  -18.0723   25.5854 C   0  0  0  0  0  0  0  0  0  0  0  0
   11.7217  -19.6483   26.3279 S   0  0  0  0  0  0  0  0  0  0  0  0
   10.3927  -17.5099   27.7683 C   0  0  0  0  0  0  0  0  0  0  0  0
   10.7331  -16.2903   28.3573 O   0  0  0  0  0  0  0  0  0  0  0  0
   10.4437  -18.5090   28.5115 O   0  0  0  0  0  0  0  0  0  0  0  0
  2  1  1  6
  2  3  1  0
  4  5  1  0
  4  2  1  0
  5  7  1  0
  5  6  1  1
  7  8  2  0
 10  9  1  6
 11 10  1  0
 12 10  1  0
 13 12  1  1
 14 13  1  0
 14  7  1  0
 15 17  1  0
 15 13  1  0
 16 15  2  0
 18 21  1  0
 18 17  1  0
 18 19  1  6
 20 19  1  0
 21 22  1  0
 23 21  2  0
M  END
$$$$
