LLC.pdb
     RDKit          3D

 23 22  0  0  1  0  0  0  0  0999 V2000
    9.5836  -20.5933   21.7785 C   0  0  0  0  0  0  0  0  0  0  0  0
    9.0135  -19.3046   21.2729 C   0  0  2  0  0  0  0  0  0  0  0  0
    9.2524  -19.1980   19.7833 C   0  0  0  0  0  0  0  0  0  0  0  0
    9.6341  -18.1279   21.9934 C   0  0  0  0  0  0  0  0  0  0  0  0
    8.8631  -16.8612   21.7928 C   0  0  2  0  0  0  0  0  0  0  0  0
    9.2782  -16.2406   20.5715 N   0  0  0  0  0  0  0  0  0  0  0  0
    9.1967  -15.9548   22.9329 C   0  0  0  0  0  0  0  0  0  0  0  0
   10.2575  -15.2888   22.8769 O   0  0  0  0  0  0  0  0  0  0  0  0
    7.8513  -12.0734   25.3330 C   0  0  0  0  0  0  0  0  0  0  0  0
    6.8499  -13.2105   25.3485 C   0  0  2  0  0  0  0  0  0  0  0  0
    5.5816  -12.7576   25.9571 C   0  0  0  0  0  0  0  0  0  0  0  0
    7.4011  -14.5126   25.7536 C   0  0  0  0  0  0  0  0  0  0  0  0
    8.6657  -15.0160   25.1897 C   0  0  2  0  0  0  0  0  0  0  0  0
    8.3091  -15.8756   24.0371 N   0  0  0  0  0  0  0  0  0  0  0  0
    9.6155  -15.7162   26.0211 C   0  0  0  0  0  0  0  0  0  0  0  0
    9.5904  -17.0079   26.0256 O   0  0  0  0  0  0  0  0  0  0  0  0
   10.6117  -15.1638   26.8567 N   0  0  0  0  0  0  0  0  0  0  0  0
   11.4823  -15.9924   27.6767 C   0  0  1  0  0  0  0  0  0  0  0  0
   12.1305  -15.0450   28.6932 C   0  0  0  0  0  0  0  0  0  0  0  0
   10.8905  -13.8632   29.2887 S   0  0  0  0  0  0  0  0  0  0  0  0
   10.7735  -17.0123   28.4674 C   0  0  0  0  0  0  0  0  0  0  0  0
    9.3772  -16.9901   28.4769 O   0  0  0  0  0  0  0  0  0  0  0  0
   11.3105  -17.9117   29.1426 O   0  0  0  0  0  0  0  0  0  0  0  0
  2  1  1  1
  2  3  1  0
  4  5  1  0
  4  2  1  0
  5  7  1  0
  5  6  1  6
  7  8  2  0
 10  9  1  1
 11 10  1  0
 12 10  1  0
 13 12  1  1
 14 13  1  0
 14  7  1  0
 15 17  1  0
 15 13  1  0
 16 15  2  0
 18 21  1  0
 18 17  1  0
 18 19  1  1
 20 19  1  0
 21 22  1  0
 23 21  2  0
M  END
$$$$
