LLC.pdb
     RDKit          3D

 23 22  0  0  1  0  0  0  0  0999 V2000
   10.3868  -19.2610   20.1617 C   0  0  0  0  0  0  0  0  0  0  0  0
    9.3676  -18.2345   19.7755 C   0  0  2  0  0  0  0  0  0  0  0  0
    9.6041  -17.8030   18.3453 C   0  0  0  0  0  0  0  0  0  0  0  0
    9.4325  -17.0426   20.7049 C   0  0  0  0  0  0  0  0  0  0  0  0
    9.2488  -17.4240   22.1401 C   0  0  2  0  0  0  0  0  0  0  0  0
    7.9207  -17.9218   22.3333 N   0  0  0  0  0  0  0  0  0  0  0  0
    9.4224  -16.1827   22.9536 C   0  0  0  0  0  0  0  0  0  0  0  0
   10.5070  -15.5593   22.8695 O   0  0  0  0  0  0  0  0  0  0  0  0
    5.6193  -12.7881   26.4676 C   0  0  0  0  0  0  0  0  0  0  0  0
    7.0035  -12.9003   25.8614 C   0  0  2  0  0  0  0  0  0  0  0  0
    7.4672  -11.5705   25.4131 C   0  0  0  0  0  0  0  0  0  0  0  0
    7.1937  -14.0520   24.9666 C   0  0  0  0  0  0  0  0  0  0  0  0
    8.5415  -14.5282   24.6099 C   0  0  2  0  0  0  0  0  0  0  0  0
    8.3620  -15.7497   23.7911 N   0  0  0  0  0  0  0  0  0  0  0  0
    9.5247  -14.7901   25.6339 C   0  0  0  0  0  0  0  0  0  0  0  0
   10.3823  -13.8645   25.9108 O   0  0  0  0  0  0  0  0  0  0  0  0
    9.6803  -15.9603   26.4099 N   0  0  0  0  0  0  0  0  0  0  0  0
   10.5427  -16.0046   27.5809 C   0  0  1  0  0  0  0  0  0  0  0  0
    9.6588  -15.6110   28.7703 C   0  0  0  0  0  0  0  0  0  0  0  0
    9.7296  -13.8138   29.0026 S   0  0  0  0  0  0  0  0  0  0  0  0
   11.0680  -17.3444   27.8918 C   0  0  0  0  0  0  0  0  0  0  0  0
   10.7403  -18.3987   27.0366 O   0  0  0  0  0  0  0  0  0  0  0  0
   11.7916  -17.6341   28.8643 O   0  0  0  0  0  0  0  0  0  0  0  0
  2  1  1  1
  2  3  1  0
  4  5  1  0
  4  2  1  0
  5  7  1  0
  5  6  1  6
  7  8  2  0
 10  9  1  6
 11 10  1  0
 12 10  1  0
 13 12  1  1
 14 13  1  0
 14  7  1  0
 15 17  1  0
 15 13  1  0
 16 15  2  0
 18 21  1  0
 18 17  1  0
 18 19  1  1
 20 19  1  0
 21 22  1  0
 23 21  2  0
M  END
$$$$
