LLC.pdb
     RDKit          3D

 23 22  0  0  1  0  0  0  0  0999 V2000
    8.5580  -15.1645   18.0709 C   0  0  0  0  0  0  0  0  0  0  0  0
    7.6904  -14.2616   18.8915 C   0  0  2  0  0  0  0  0  0  0  0  0
    7.4173  -12.9889   18.1214 C   0  0  0  0  0  0  0  0  0  0  0  0
    8.3504  -13.9468   20.2159 C   0  0  0  0  0  0  0  0  0  0  0  0
    8.4909  -15.1547   21.0879 C   0  0  2  0  0  0  0  0  0  0  0  0
    7.2675  -15.8977   21.0713 N   0  0  0  0  0  0  0  0  0  0  0  0
    8.7426  -14.6697   22.4786 C   0  0  0  0  0  0  0  0  0  0  0  0
    9.8386  -14.1145   22.7292 O   0  0  0  0  0  0  0  0  0  0  0  0
    8.0850  -12.3719   26.9587 C   0  0  0  0  0  0  0  0  0  0  0  0
    6.7616  -12.5055   26.2330 C   0  0  2  0  0  0  0  0  0  0  0  0
    5.6505  -12.5160   27.2076 C   0  0  0  0  0  0  0  0  0  0  0  0
    6.7526  -13.4928   25.1428 C   0  0  0  0  0  0  0  0  0  0  0  0
    7.9516  -14.2859   24.8203 C   0  0  2  0  0  0  0  0  0  0  0  0
    7.7409  -14.8507   23.4670 N   0  0  0  0  0  0  0  0  0  0  0  0
    8.3984  -15.3371   25.7030 C   0  0  0  0  0  0  0  0  0  0  0  0
    8.7279  -15.0230   26.9120 O   0  0  0  0  0  0  0  0  0  0  0  0
    8.5229  -16.7154   25.4193 N   0  0  0  0  0  0  0  0  0  0  0  0
    8.9959  -17.6707   26.4095 C   0  0  1  0  0  0  0  0  0  0  0  0
    8.1285  -18.9229   26.2348 C   0  0  0  0  0  0  0  0  0  0  0  0
    6.4489  -18.5774   26.8253 S   0  0  0  0  0  0  0  0  0  0  0  0
   10.3868  -18.1093   26.2070 C   0  0  0  0  0  0  0  0  0  0  0  0
   10.9402  -19.0014   27.1279 O   0  0  0  0  0  0  0  0  0  0  0  0
   11.1327  -17.7540   25.2740 O   0  0  0  0  0  0  0  0  0  0  0  0
  2  1  1  6
  2  3  1  0
  4  5  1  0
  4  2  1  0
  5  7  1  0
  5  6  1  1
  7  8  2  0
 10  9  1  1
 11 10  1  0
 12 10  1  0
 13 12  1  1
 14 13  1  0
 14  7  1  0
 15 17  1  0
 15 13  1  0
 16 15  2  0
 18 21  1  0
 18 17  1  0
 18 19  1  6
 20 19  1  0
 21 22  1  0
 23 21  2  0
M  END
$$$$
