ELA.pdb
     RDKit          3D

 23 22  0  0  1  0  0  0  0  0999 V2000
   19.2901  -11.4650  -17.7344 N   0  0  0  0  0  0  0  0  0  0  0  0
   18.4246  -11.2945  -16.5417 C   0  0  1  0  0  0  0  0  0  0  0  0
   18.2362  -12.6539  -15.9480 C   0  0  0  0  0  0  0  0  0  0  0  0
   17.5734  -13.6120  -16.8724 C   0  0  0  0  0  0  0  0  0  0  0  0
   17.4407  -14.9461  -16.2638 C   0  0  0  0  0  0  0  0  0  0  0  0
   16.6469  -15.1931  -15.3474 O   0  0  0  0  0  0  0  0  0  0  0  0
   19.1628  -10.4191  -15.5836 C   0  0  0  0  0  0  0  0  0  0  0  0
   18.7108  -10.1610  -14.4602 O   0  0  0  0  0  0  0  0  0  0  0  0
   18.2342  -16.0015  -16.7211 O   0  0  0  0  0  0  0  0  0  0  0  0
   24.5748  -10.8738  -15.8605 C   0  0  0  0  0  0  0  0  0  0  0  0
   23.1283  -10.8113  -15.3651 C   0  0  1  0  0  0  0  0  0  0  0  0
   23.1173  -11.3042  -13.9562 C   0  0  0  0  0  0  0  0  0  0  0  0
   22.7033   -9.3696  -15.5056 C   0  0  0  0  0  0  0  0  0  0  0  0
   21.2824   -9.1366  -15.0275 C   0  0  2  0  0  0  0  0  0  0  0  0
   20.4202   -9.8523  -15.9423 N   0  0  0  0  0  0  0  0  0  0  0  0
   21.0330   -7.6680  -15.2021 C   0  0  0  0  0  0  0  0  0  0  0  0
   21.6128   -6.8282  -14.4748 O   0  0  0  0  0  0  0  0  0  0  0  0
   19.5696   -5.3896  -17.7819 C   0  0  0  0  0  0  0  0  0  0  0  0
   19.8357   -5.7777  -16.3493 C   0  0  2  0  0  0  0  0  0  0  0  0
   20.1438   -7.1667  -16.1821 N   0  0  0  0  0  0  0  0  0  0  0  0
   18.6306   -5.4321  -15.5621 C   0  0  0  0  0  0  0  0  0  0  0  0
   18.2556   -4.1253  -15.4275 O   0  0  0  0  0  0  0  0  0  0  0  0
   17.9874   -6.3554  -15.0399 O   0  0  0  0  0  0  0  0  0  0  0  0
  2  1  1  6
  2  7  1  0
  3  2  1  0
  4  3  1  0
  5  4  1  0
  5  6  2  0
  7 15  1  0
  8  7  2  0
  9  5  1  0
 11 10  1  1
 11 12  1  0
 13 11  1  0
 14 13  1  6
 15 14  1  0
 16 14  1  0
 17 16  2  0
 19 18  1  6
 19 20  1  0
 20 16  1  0
 21 19  1  0
 22 21  1  0
 23 21  2  0
M  END
$$$$
