ELA.pdb
     RDKit          3D

 23 22  0  0  1  0  0  0  0  0999 V2000
   17.3905  -10.5084  -17.1798 N   0  0  0  0  0  0  0  0  0  0  0  0
   16.6640   -9.6212  -16.2385 C   0  0  1  0  0  0  0  0  0  0  0  0
   15.6989  -10.4843  -15.4905 C   0  0  0  0  0  0  0  0  0  0  0  0
   14.7475  -11.2063  -16.3767 C   0  0  0  0  0  0  0  0  0  0  0  0
   13.7787  -11.9969  -15.5993 C   0  0  0  0  0  0  0  0  0  0  0  0
   12.6511  -11.5813  -15.3051 O   0  0  0  0  0  0  0  0  0  0  0  0
   17.6754   -9.0555  -15.2972 C   0  0  0  0  0  0  0  0  0  0  0  0
   17.3441   -8.3434  -14.3401 O   0  0  0  0  0  0  0  0  0  0  0  0
   14.1201  -13.2788  -15.1599 O   0  0  0  0  0  0  0  0  0  0  0  0
   22.1205   -9.5178  -12.5087 C   0  0  0  0  0  0  0  0  0  0  0  0
   22.4922   -9.3442  -13.9829 C   0  0  1  0  0  0  0  0  0  0  0  0
   23.7067  -10.1738  -14.2378 C   0  0  0  0  0  0  0  0  0  0  0  0
   21.2820   -9.7845  -14.7708 C   0  0  0  0  0  0  0  0  0  0  0  0
   20.1089   -8.8366  -14.6061 C   0  0  2  0  0  0  0  0  0  0  0  0
   19.0632   -9.3242  -15.4788 N   0  0  0  0  0  0  0  0  0  0  0  0
   20.5803   -7.5145  -15.1347 C   0  0  0  0  0  0  0  0  0  0  0  0
   21.1404   -7.4339  -16.2528 O   0  0  0  0  0  0  0  0  0  0  0  0
   19.8526   -3.9445  -14.7584 C   0  0  0  0  0  0  0  0  0  0  0  0
   20.8897   -5.0350  -14.8540 C   0  0  2  0  0  0  0  0  0  0  0  0
   20.4181   -6.3117  -14.4071 N   0  0  0  0  0  0  0  0  0  0  0  0
   22.0536   -4.6165  -14.0405 C   0  0  0  0  0  0  0  0  0  0  0  0
   22.3615   -5.2911  -12.8931 O   0  0  0  0  0  0  0  0  0  0  0  0
   22.7247   -3.6496  -14.4324 O   0  0  0  0  0  0  0  0  0  0  0  0
  2  1  1  6
  2  7  1  0
  3  2  1  0
  4  3  1  0
  5  4  1  0
  5  6  2  0
  7 15  1  0
  8  7  2  0
  9  5  1  0
 11 10  1  1
 11 12  1  0
 13 11  1  0
 14 13  1  6
 15 14  1  0
 16 14  1  0
 17 16  2  0
 19 18  1  1
 19 20  1  0
 20 16  1  0
 21 19  1  0
 22 21  1  0
 23 21  2  0
M  END
$$$$
