ELA.pdb
     RDKit          3D

 23 22  0  0  1  0  0  0  0  0999 V2000
   20.3147  -12.4591  -18.0855 N   0  0  0  0  0  0  0  0  0  0  0  0
   20.8721  -11.1646  -18.5483 C   0  0  1  0  0  0  0  0  0  0  0  0
   19.7663  -10.4470  -19.2542 C   0  0  0  0  0  0  0  0  0  0  0  0
   19.4820  -10.9927  -20.6081 C   0  0  0  0  0  0  0  0  0  0  0  0
   18.3937  -10.2547  -21.2705 C   0  0  0  0  0  0  0  0  0  0  0  0
   17.3234  -10.7821  -21.5981 O   0  0  0  0  0  0  0  0  0  0  0  0
   21.2791  -10.4004  -17.3320 C   0  0  0  0  0  0  0  0  0  0  0  0
   20.5584  -10.3493  -16.3265 O   0  0  0  0  0  0  0  0  0  0  0  0
   18.5475   -8.8953  -21.5551 O   0  0  0  0  0  0  0  0  0  0  0  0
   26.4354  -10.3410  -15.5623 C   0  0  0  0  0  0  0  0  0  0  0  0
   24.9065  -10.3781  -15.6142 C   0  0  1  0  0  0  0  0  0  0  0  0
   24.4200  -10.6739  -14.2344 C   0  0  0  0  0  0  0  0  0  0  0  0
   24.4758   -9.0268  -16.1314 C   0  0  0  0  0  0  0  0  0  0  0  0
   22.9664   -8.8847  -16.1905 C   0  0  2  0  0  0  0  0  0  0  0  0
   22.5215   -9.7029  -17.2974 N   0  0  0  0  0  0  0  0  0  0  0  0
   22.7090   -7.4485  -16.5377 C   0  0  0  0  0  0  0  0  0  0  0  0
   23.1201   -6.9667  -17.6189 O   0  0  0  0  0  0  0  0  0  0  0  0
   20.2504   -4.9317  -16.1905 C   0  0  0  0  0  0  0  0  0  0  0  0
   21.7165   -5.2085  -15.9723 C   0  0  2  0  0  0  0  0  0  0  0  0
   21.9999   -6.5806  -15.6738 N   0  0  0  0  0  0  0  0  0  0  0  0
   22.1721   -4.3474  -14.8576 C   0  0  0  0  0  0  0  0  0  0  0  0
   22.3893   -3.0154  -15.0698 O   0  0  0  0  0  0  0  0  0  0  0  0
   22.3456   -4.8707  -13.7464 O   0  0  0  0  0  0  0  0  0  0  0  0
  2  1  1  1
  2  7  1  0
  3  2  1  0
  4  3  1  0
  5  4  1  0
  5  6  2  0
  7 15  1  0
  8  7  2  0
  9  5  1  0
 11 10  1  1
 11 12  1  0
 13 11  1  0
 14 13  1  6
 15 14  1  0
 16 14  1  0
 17 16  2  0
 19 18  1  1
 19 20  1  0
 20 16  1  0
 21 19  1  0
 22 21  1  0
 23 21  2  0
M  END
$$$$
