ELA.pdb
     RDKit          3D

 23 22  0  0  1  0  0  0  0  0999 V2000
   20.7462  -13.1958  -16.7271 N   0  0  0  0  0  0  0  0  0  0  0  0
   20.7837  -11.8128  -17.2625 C   0  0  1  0  0  0  0  0  0  0  0  0
   19.3638  -11.3626  -17.3932 C   0  0  0  0  0  0  0  0  0  0  0  0
   18.6376  -12.0255  -18.5090 C   0  0  0  0  0  0  0  0  0  0  0  0
   17.2756  -11.4876  -18.6623 C   0  0  0  0  0  0  0  0  0  0  0  0
   16.2631  -12.1062  -18.3114 O   0  0  0  0  0  0  0  0  0  0  0  0
   21.4937  -10.9699  -16.2553 C   0  0  0  0  0  0  0  0  0  0  0  0
   21.2202  -11.0313  -15.0494 O   0  0  0  0  0  0  0  0  0  0  0  0
   17.0862  -10.2233  -19.2264 O   0  0  0  0  0  0  0  0  0  0  0  0
   26.8057  -10.2320  -16.4274 C   0  0  0  0  0  0  0  0  0  0  0  0
   25.3766  -10.4191  -15.9132 C   0  0  1  0  0  0  0  0  0  0  0  0
   25.4635  -10.7253  -14.4548 C   0  0  0  0  0  0  0  0  0  0  0  0
   24.6532   -9.1299  -16.2192 C   0  0  0  0  0  0  0  0  0  0  0  0
   23.2050   -9.1585  -15.7678 C   0  0  2  0  0  0  0  0  0  0  0  0
   22.5156  -10.0633  -16.6615 N   0  0  0  0  0  0  0  0  0  0  0  0
   22.6797   -7.7743  -16.0073 C   0  0  0  0  0  0  0  0  0  0  0  0
   22.8195   -7.2194  -17.1221 O   0  0  0  0  0  0  0  0  0  0  0  0
   20.0042   -5.6175  -14.9520 C   0  0  0  0  0  0  0  0  0  0  0  0
   21.4905   -5.7166  -15.1862 C   0  0  2  0  0  0  0  0  0  0  0  0
   22.0106   -7.0384  -15.0007 N   0  0  0  0  0  0  0  0  0  0  0  0
   22.1531   -4.7801  -14.2504 C   0  0  0  0  0  0  0  0  0  0  0  0
   22.0518   -3.4322  -14.4489 O   0  0  0  0  0  0  0  0  0  0  0  0
   22.7907   -5.2562  -13.2989 O   0  0  0  0  0  0  0  0  0  0  0  0
  2  1  1  1
  2  7  1  0
  3  2  1  0
  4  3  1  0
  5  4  1  0
  5  6  2  0
  7 15  1  0
  8  7  2  0
  9  5  1  0
 11 10  1  1
 11 12  1  0
 13 11  1  0
 14 13  1  6
 15 14  1  0
 16 14  1  0
 17 16  2  0
 19 18  1  1
 19 20  1  0
 20 16  1  0
 21 19  1  0
 22 21  1  0
 23 21  2  0
M  END
$$$$
