ELA.pdb
     RDKit          3D

 23 22  0  0  1  0  0  0  0  0999 V2000
   27.6563  -21.2078  -15.6868 N   0  0  0  0  0  0  0  0  0  0  0  0
   26.8812  -20.2525  -14.8577 C   0  0  1  0  0  0  0  0  0  0  0  0
   25.6329  -19.9364  -15.6177 C   0  0  0  0  0  0  0  0  0  0  0  0
   25.8830  -19.1620  -16.8624 C   0  0  0  0  0  0  0  0  0  0  0  0
   26.1065  -20.0500  -18.0155 C   0  0  0  0  0  0  0  0  0  0  0  0
   25.2051  -20.7191  -18.5358 O   0  0  0  0  0  0  0  0  0  0  0  0
   26.5379  -20.9525  -13.5844 C   0  0  0  0  0  0  0  0  0  0  0  0
   26.3047  -22.1681  -13.5548 O   0  0  0  0  0  0  0  0  0  0  0  0
   27.3845  -20.1628  -18.5693 O   0  0  0  0  0  0  0  0  0  0  0  0
   27.4494  -21.3061   -8.2910 C   0  0  0  0  0  0  0  0  0  0  0  0
   26.3591  -20.2833   -8.6180 C   0  0  1  0  0  0  0  0  0  0  0  0
   26.4457  -19.1970   -7.5979 C   0  0  0  0  0  0  0  0  0  0  0  0
   26.6377  -19.8154  -10.0260 C   0  0  0  0  0  0  0  0  0  0  0  0
   26.2223  -20.8373  -11.0676 C   0  0  2  0  0  0  0  0  0  0  0  0
   26.4694  -20.2307  -12.3574 N   0  0  0  0  0  0  0  0  0  0  0  0
   24.7404  -21.0014  -10.9043 C   0  0  0  0  0  0  0  0  0  0  0  0
   24.2624  -21.5083   -9.8627 O   0  0  0  0  0  0  0  0  0  0  0  0
   21.7403  -19.4447  -11.2899 C   0  0  0  0  0  0  0  0  0  0  0  0
   22.4010  -20.7091  -11.7784 C   0  0  2  0  0  0  0  0  0  0  0  0
   23.8237  -20.5979  -11.9038 N   0  0  0  0  0  0  0  0  0  0  0  0
   21.8056  -21.0451  -13.0914 C   0  0  0  0  0  0  0  0  0  0  0  0
   20.4795  -21.3621  -13.1778 O   0  0  0  0  0  0  0  0  0  0  0  0
   22.5416  -21.0282  -14.0898 O   0  0  0  0  0  0  0  0  0  0  0  0
  2  1  1  6
  2  7  1  0
  3  2  1  0
  4  3  1  0
  5  4  1  0
  5  6  2  0
  7 15  1  0
  8  7  2  0
  9  5  1  0
 11 10  1  1
 11 12  1  0
 13 11  1  0
 14 13  1  1
 15 14  1  0
 16 14  1  0
 17 16  2  0
 19 18  1  6
 19 20  1  0
 20 16  1  0
 21 19  1  0
 22 21  1  0
 23 21  2  0
M  END
$$$$
