ELA.pdb
     RDKit          3D

 23 22  0  0  1  0  0  0  0  0999 V2000
   19.9341  -12.8761  -17.0104 N   0  0  0  0  0  0  0  0  0  0  0  0
   20.9134  -11.9210  -17.5844 C   0  0  1  0  0  0  0  0  0  0  0  0
   20.1506  -11.0222  -18.5043 C   0  0  0  0  0  0  0  0  0  0  0  0
   19.9562  -11.5988  -19.8613 C   0  0  0  0  0  0  0  0  0  0  0  0
   21.2223  -11.6555  -20.6108 C   0  0  0  0  0  0  0  0  0  0  0  0
   21.8652  -10.6463  -20.9254 O   0  0  0  0  0  0  0  0  0  0  0  0
   21.4737  -11.1295  -16.4492 C   0  0  0  0  0  0  0  0  0  0  0  0
   20.8927  -11.0592  -15.3581 O   0  0  0  0  0  0  0  0  0  0  0  0
   21.7467  -12.8915  -20.9981 O   0  0  0  0  0  0  0  0  0  0  0  0
   26.8929  -10.8084  -16.2252 C   0  0  0  0  0  0  0  0  0  0  0  0
   25.4511  -10.9776  -15.7410 C   0  0  1  0  0  0  0  0  0  0  0  0
   25.5079  -11.4939  -14.3417 C   0  0  0  0  0  0  0  0  0  0  0  0
   24.8112   -9.6153  -15.8583 C   0  0  0  0  0  0  0  0  0  0  0  0
   23.3265   -9.6455  -15.5480 C   0  0  2  0  0  0  0  0  0  0  0  0
   22.7054  -10.4274  -16.5946 N   0  0  0  0  0  0  0  0  0  0  0  0
   22.8567   -8.2275  -15.6824 C   0  0  0  0  0  0  0  0  0  0  0  0
   23.2062   -7.3549  -14.8537 O   0  0  0  0  0  0  0  0  0  0  0  0
   21.3302   -6.0341  -18.2935 C   0  0  0  0  0  0  0  0  0  0  0  0
   21.4776   -6.4876  -16.8630 C   0  0  2  0  0  0  0  0  0  0  0  0
   22.0083   -7.8122  -16.7361 N   0  0  0  0  0  0  0  0  0  0  0  0
   20.1395   -6.4200  -16.2333 C   0  0  0  0  0  0  0  0  0  0  0  0
   19.5358   -7.5626  -15.7902 O   0  0  0  0  0  0  0  0  0  0  0  0
   19.5985   -5.3089  -16.1256 O   0  0  0  0  0  0  0  0  0  0  0  0
  2  1  1  1
  2  7  1  0
  3  2  1  0
  4  3  1  0
  5  4  1  0
  5  6  2  0
  7 15  1  0
  8  7  2  0
  9  5  1  0
 11 10  1  1
 11 12  1  0
 13 11  1  0
 14 13  1  6
 15 14  1  0
 16 14  1  0
 17 16  2  0
 19 18  1  6
 19 20  1  0
 20 16  1  0
 21 19  1  0
 22 21  1  0
 23 21  2  0
M  END
$$$$
