ELA.pdb
     RDKit          3D

 23 22  0  0  1  0  0  0  0  0999 V2000
   26.8288  -22.8357  -16.8841 N   0  0  0  0  0  0  0  0  0  0  0  0
   25.8229  -23.8998  -16.6464 C   0  0  1  0  0  0  0  0  0  0  0  0
   26.5801  -25.1303  -16.2612 C   0  0  0  0  0  0  0  0  0  0  0  0
   27.4475  -25.6517  -17.3509 C   0  0  0  0  0  0  0  0  0  0  0  0
   27.6870  -27.0972  -17.2061 C   0  0  0  0  0  0  0  0  0  0  0  0
   27.1027  -27.9489  -17.8873 O   0  0  0  0  0  0  0  0  0  0  0  0
   24.9682  -23.4513  -15.5074 C   0  0  0  0  0  0  0  0  0  0  0  0
   24.0205  -24.1352  -15.0988 O   0  0  0  0  0  0  0  0  0  0  0  0
   28.6109  -27.5584  -16.2646 O   0  0  0  0  0  0  0  0  0  0  0  0
   27.4972  -20.2518  -11.8729 C   0  0  0  0  0  0  0  0  0  0  0  0
   26.5903  -21.3912  -12.3432 C   0  0  1  0  0  0  0  0  0  0  0  0
   26.2304  -22.2002  -11.1415 C   0  0  0  0  0  0  0  0  0  0  0  0
   25.4052  -20.7317  -13.0063 C   0  0  0  0  0  0  0  0  0  0  0  0
   24.4990  -21.7326  -13.6982 C   0  0  2  0  0  0  0  0  0  0  0  0
   25.2248  -22.2106  -14.8546 N   0  0  0  0  0  0  0  0  0  0  0  0
   23.3186  -20.9430  -14.1806 C   0  0  0  0  0  0  0  0  0  0  0  0
   23.4345  -19.7297  -14.4715 O   0  0  0  0  0  0  0  0  0  0  0  0
   19.8617  -21.7341  -15.4577 C   0  0  0  0  0  0  0  0  0  0  0  0
   20.8970  -20.8236  -14.8470 C   0  0  2  0  0  0  0  0  0  0  0  0
   22.0356  -21.5213  -14.3283 N   0  0  0  0  0  0  0  0  0  0  0  0
   20.2374  -20.0620  -13.7624 C   0  0  0  0  0  0  0  0  0  0  0  0
   20.2593  -20.5400  -12.4828 O   0  0  0  0  0  0  0  0  0  0  0  0
   19.6756  -18.9952  -14.0539 O   0  0  0  0  0  0  0  0  0  0  0  0
  2  1  1  1
  2  7  1  0
  3  2  1  0
  4  3  1  0
  5  4  1  0
  5  6  2  0
  7 15  1  0
  8  7  2  0
  9  5  1  0
 11 10  1  1
 11 12  1  0
 13 11  1  0
 14 13  1  1
 15 14  1  0
 16 14  1  0
 17 16  2  0
 19 18  1  1
 19 20  1  0
 20 16  1  0
 21 19  1  0
 22 21  1  0
 23 21  2  0
M  END
$$$$
