ELA.pdb
     RDKit          3D

 23 22  0  0  1  0  0  0  0  0999 V2000
   18.7514  -11.2670  -17.5023 N   0  0  0  0  0  0  0  0  0  0  0  0
   18.1181  -10.8689  -16.2212 C   0  0  1  0  0  0  0  0  0  0  0  0
   17.6763  -12.1293  -15.5487 C   0  0  0  0  0  0  0  0  0  0  0  0
   16.5868  -12.8327  -16.2766 C   0  0  0  0  0  0  0  0  0  0  0  0
   16.3833  -14.1959  -15.7587 C   0  0  0  0  0  0  0  0  0  0  0  0
   16.9873  -15.1817  -16.1994 O   0  0  0  0  0  0  0  0  0  0  0  0
   19.1688  -10.1963  -15.4009 C   0  0  0  0  0  0  0  0  0  0  0  0
   18.9630   -9.8691  -14.2247 O   0  0  0  0  0  0  0  0  0  0  0  0
   15.4728  -14.4175  -14.7220 O   0  0  0  0  0  0  0  0  0  0  0  0
   24.3917  -11.5847  -16.2794 C   0  0  0  0  0  0  0  0  0  0  0  0
   23.1377  -11.2082  -15.4873 C   0  0  1  0  0  0  0  0  0  0  0  0
   23.4549  -11.3839  -14.0393 C   0  0  0  0  0  0  0  0  0  0  0  0
   22.8182   -9.7828  -15.8685 C   0  0  0  0  0  0  0  0  0  0  0  0
   21.5337   -9.2879  -15.2308 C   0  0  2  0  0  0  0  0  0  0  0  0
   20.4493   -9.9110  -15.9577 N   0  0  0  0  0  0  0  0  0  0  0  0
   21.4907   -7.8132  -15.5005 C   0  0  0  0  0  0  0  0  0  0  0  0
   21.6917   -7.3662  -16.6538 O   0  0  0  0  0  0  0  0  0  0  0  0
   19.9526   -4.7996  -14.8628 C   0  0  0  0  0  0  0  0  0  0  0  0
   21.2984   -5.4498  -14.6637 C   0  0  2  0  0  0  0  0  0  0  0  0
   21.2252   -6.8687  -14.4807 N   0  0  0  0  0  0  0  0  0  0  0  0
   21.9264   -4.8222  -13.4791 C   0  0  0  0  0  0  0  0  0  0  0  0
   22.0854   -5.5429  -12.3294 O   0  0  0  0  0  0  0  0  0  0  0  0
   22.2949   -3.6411  -13.5684 O   0  0  0  0  0  0  0  0  0  0  0  0
  2  1  1  6
  2  7  1  0
  3  2  1  0
  4  3  1  0
  5  4  1  0
  5  6  2  0
  7 15  1  0
  8  7  2  0
  9  5  1  0
 11 10  1  6
 11 12  1  0
 13 11  1  0
 14 13  1  6
 15 14  1  0
 16 14  1  0
 17 16  2  0
 19 18  1  1
 19 20  1  0
 20 16  1  0
 21 19  1  0
 22 21  1  0
 23 21  2  0
M  END
$$$$
