HIP.pdb
     RDKit          3D

 26 27  0  0  1  0  0  0  0  0999 V2000
   20.4901  -20.1651  -13.2568 N   0  0  0  0  0  0  0  0  0  0  0  0
   21.4754  -21.0053  -13.8990 C   0  0  1  0  0  0  0  0  0  0  0  0
   21.3073  -21.0430  -15.3963 C   0  0  0  0  0  0  0  0  0  0  0  0
   20.8107  -22.3409  -15.8894 C   0  0  0  0  0  0  0  0  0  0  0  0
   19.7099  -23.0767  -15.5547 C   0  0  0  0  0  0  0  0  0  0  0  0
   19.6718  -24.2071  -16.2799 N   0  0  0  0  0  0  0  0  0  0  0  0
   20.7637  -24.1643  -17.0699 C   0  0  0  0  0  0  0  0  0  0  0  0
   21.4566  -23.0403  -16.8398 N   0  0  0  0  0  0  0  0  0  0  0  0
   22.8111  -20.4183  -13.6415 C   0  0  0  0  0  0  0  0  0  0  0  0
   22.9207  -19.1707  -13.6644 O   0  0  0  0  0  0  0  0  0  0  0  0
   25.5755  -21.1162   -9.4218 C   0  0  0  0  0  0  0  0  0  0  0  0
   24.9952  -20.5891  -10.7178 C   0  0  0  0  0  0  0  0  0  0  0  0
   25.8442  -20.9317  -11.8938 C   0  0  2  0  0  0  0  0  0  0  0  0
   27.2596  -20.5452  -11.6512 C   0  0  0  0  0  0  0  0  0  0  0  0
   25.2425  -20.4840  -13.2118 C   0  0  2  0  0  0  0  0  0  0  0  0
   23.9631  -21.1920  -13.3725 N   0  0  0  0  0  0  0  0  0  0  0  0
   26.1730  -20.8375  -14.3334 C   0  0  0  0  0  0  0  0  0  0  0  0
   26.4886  -22.0529  -14.3436 O   0  0  0  0  0  0  0  0  0  0  0  0
   26.6476  -19.9158  -15.2876 N   0  0  0  0  0  0  0  0  0  0  0  0
   26.1308  -18.5352  -15.4755 C   0  0  0  0  0  0  0  0  0  0  0  0
   27.3750  -17.7180  -15.5417 C   0  0  0  0  0  0  0  0  0  0  0  0
   28.4561  -18.7050  -15.9219 C   0  0  0  0  0  0  0  0  0  0  0  0
   27.6494  -19.9809  -16.2931 C   0  0  1  0  0  0  0  0  0  0  0  0
   28.5209  -21.1103  -16.4204 C   0  0  0  0  0  0  0  0  0  0  0  0
   28.6011  -21.7636  -17.6697 O   0  0  0  0  0  0  0  0  0  0  0  0
   29.2232  -21.5822  -15.5354 O   0  0  0  0  0  0  0  0  0  0  0  0
  2  1  1  1
  3  2  1  0
  4  5  2  0
  4  3  1  0
  6  5  1  0
  7  8  2  0
  7  6  1  0
  8  4  1  0
  9 16  1  0
  9  2  1  0
 10  9  2  0
 12 11  1  0
 13 15  1  0
 13 12  1  0
 13 14  1  1
 15 16  1  6
 17 15  1  0
 18 17  2  0
 19 17  1  0
 19 20  1  0
 21 20  1  0
 22 23  1  0
 22 21  1  0
 23 24  1  1
 23 19  1  0
 24 25  1  0
 26 24  2  0
M  END
$$$$
