HIP.pdb
     RDKit          3D

 26 27  0  0  1  0  0  0  0  0999 V2000
   15.1778  -21.2946    1.4766 N   0  0  0  0  0  0  0  0  0  0  0  0
   14.9859  -20.3686    2.5697 C   0  0  1  0  0  0  0  0  0  0  0  0
   14.3586  -21.0250    3.7728 C   0  0  0  0  0  0  0  0  0  0  0  0
   12.9127  -21.2650    3.6118 C   0  0  0  0  0  0  0  0  0  0  0  0
   11.8274  -20.4863    3.8965 C   0  0  0  0  0  0  0  0  0  0  0  0
   10.6958  -21.1356    3.5752 N   0  0  0  0  0  0  0  0  0  0  0  0
   11.0922  -22.3283    3.0869 C   0  0  0  0  0  0  0  0  0  0  0  0
   12.4296  -22.4139    3.1057 N   0  0  0  0  0  0  0  0  0  0  0  0
   16.3204  -19.8908    3.0007 C   0  0  0  0  0  0  0  0  0  0  0  0
   17.2983  -20.6587    2.8492 O   0  0  0  0  0  0  0  0  0  0  0  0
   18.0250  -15.1943    1.6139 C   0  0  0  0  0  0  0  0  0  0  0  0
   17.9448  -16.6511    2.0204 C   0  0  0  0  0  0  0  0  0  0  0  0
   18.1640  -16.8392    3.4826 C   0  0  2  0  0  0  0  0  0  0  0  0
   19.4474  -16.2185    3.9062 C   0  0  0  0  0  0  0  0  0  0  0  0
   17.9242  -18.2646    3.9410 C   0  0  2  0  0  0  0  0  0  0  0  0
   16.5446  -18.6175    3.5720 N   0  0  0  0  0  0  0  0  0  0  0  0
   18.0990  -18.3491    5.4279 C   0  0  0  0  0  0  0  0  0  0  0  0
   17.2932  -17.6206    6.0581 O   0  0  0  0  0  0  0  0  0  0  0  0
   19.0574  -19.1605    6.0668 N   0  0  0  0  0  0  0  0  0  0  0  0
   19.8064  -20.2704    5.4221 C   0  0  0  0  0  0  0  0  0  0  0  0
   21.2129  -20.0128    5.8409 C   0  0  0  0  0  0  0  0  0  0  0  0
   21.0879  -19.1472    7.0749 C   0  0  0  0  0  0  0  0  0  0  0  0
   19.5673  -19.2090    7.3922 C   0  0  1  0  0  0  0  0  0  0  0  0
   19.2159  -18.2274    8.3741 C   0  0  0  0  0  0  0  0  0  0  0  0
   19.1833  -16.8692    7.9891 O   0  0  0  0  0  0  0  0  0  0  0  0
   18.9330  -18.4478    9.5447 O   0  0  0  0  0  0  0  0  0  0  0  0
  2  1  1  6
  3  2  1  0
  4  5  2  0
  4  3  1  0
  6  5  1  0
  7  8  2  0
  7  6  1  0
  8  4  1  0
  9 16  1  0
  9  2  1  0
 10  9  2  0
 12 11  1  0
 13 15  1  0
 13 12  1  0
 13 14  1  6
 15 16  1  1
 17 15  1  0
 18 17  2  0
 19 17  1  0
 19 20  1  0
 21 20  1  0
 22 23  1  0
 22 21  1  0
 23 24  1  1
 23 19  1  0
 24 25  1  0
 26 24  2  0
M  END
$$$$
