HIP.pdb
     RDKit          3D

 26 27  0  0  1  0  0  0  0  0999 V2000
   15.3185  -24.5666   -4.5197 N   0  0  0  0  0  0  0  0  0  0  0  0
   14.2017  -24.5036   -3.6042 C   0  0  1  0  0  0  0  0  0  0  0  0
   13.4784  -25.8212   -3.4918 C   0  0  0  0  0  0  0  0  0  0  0  0
   12.7957  -26.2137   -4.7385 C   0  0  0  0  0  0  0  0  0  0  0  0
   12.8932  -27.3359   -5.5107 C   0  0  0  0  0  0  0  0  0  0  0  0
   12.0652  -27.2446   -6.5649 N   0  0  0  0  0  0  0  0  0  0  0  0
   11.4517  -26.0507   -6.4377 C   0  0  0  0  0  0  0  0  0  0  0  0
   11.8875  -25.4222   -5.3371 N   0  0  0  0  0  0  0  0  0  0  0  0
   14.7354  -24.2017   -2.2556 C   0  0  0  0  0  0  0  0  0  0  0  0
   15.8821  -24.6162   -1.9694 O   0  0  0  0  0  0  0  0  0  0  0  0
   14.6671  -20.3209   -1.9468 C   0  0  0  0  0  0  0  0  0  0  0  0
   15.5016  -20.9301   -0.8392 C   0  0  0  0  0  0  0  0  0  0  0  0
   14.6662  -21.6553    0.1595 C   0  0  2  0  0  0  0  0  0  0  0  0
   14.9262  -21.1456    1.5322 C   0  0  0  0  0  0  0  0  0  0  0  0
   14.7036  -23.1611   -0.0157 C   0  0  2  0  0  0  0  0  0  0  0  0
   14.0185  -23.4725   -1.2797 N   0  0  0  0  0  0  0  0  0  0  0  0
   13.9948  -23.8171    1.1314 C   0  0  0  0  0  0  0  0  0  0  0  0
   12.7718  -23.5355    1.1771 O   0  0  0  0  0  0  0  0  0  0  0  0
   14.6194  -24.6676    2.0649 N   0  0  0  0  0  0  0  0  0  0  0  0
   15.9035  -25.3831    1.8463 C   0  0  0  0  0  0  0  0  0  0  0  0
   16.6590  -25.1058    3.1003 C   0  0  0  0  0  0  0  0  0  0  0  0
   15.5944  -24.7393    4.1103 C   0  0  0  0  0  0  0  0  0  0  0  0
   14.2744  -25.1014    3.3733 C   0  0  1  0  0  0  0  0  0  0  0  0
   13.1433  -24.5697    4.0727 C   0  0  0  0  0  0  0  0  0  0  0  0
   12.3671  -25.4442    4.8643 O   0  0  0  0  0  0  0  0  0  0  0  0
   12.7680  -23.4044    4.0560 O   0  0  0  0  0  0  0  0  0  0  0  0
  2  1  1  6
  3  2  1  0
  4  5  2  0
  4  3  1  0
  6  5  1  0
  7  8  2  0
  7  6  1  0
  8  4  1  0
  9 16  1  0
  9  2  1  0
 10  9  2  0
 12 11  1  0
 13 15  1  0
 13 12  1  0
 13 14  1  1
 15 16  1  6
 17 15  1  0
 18 17  2  0
 19 17  1  0
 19 20  1  0
 21 20  1  0
 22 23  1  0
 22 21  1  0
 23 24  1  1
 23 19  1  0
 24 25  1  0
 26 24  2  0
M  END
$$$$
