HIP.pdb
     RDKit          3D

 26 27  0  0  1  0  0  0  0  0999 V2000
   27.8282  -18.5463  -16.2410 N   0  0  0  0  0  0  0  0  0  0  0  0
   26.9394  -18.1453  -15.1741 C   0  0  1  0  0  0  0  0  0  0  0  0
   25.9022  -17.1536  -15.6353 C   0  0  0  0  0  0  0  0  0  0  0  0
   26.4797  -15.8568  -16.0340 C   0  0  0  0  0  0  0  0  0  0  0  0
   26.8043  -14.7472  -15.3069 C   0  0  0  0  0  0  0  0  0  0  0  0
   27.3087  -13.7979  -16.1130 N   0  0  0  0  0  0  0  0  0  0  0  0
   27.2934  -14.3323  -17.3508 C   0  0  0  0  0  0  0  0  0  0  0  0
   26.7941  -15.5755  -17.3113 N   0  0  0  0  0  0  0  0  0  0  0  0
   26.1995  -19.3467  -14.7225 C   0  0  0  0  0  0  0  0  0  0  0  0
   26.0347  -20.2796  -15.5418 O   0  0  0  0  0  0  0  0  0  0  0  0
   25.3272  -20.7513   -9.2545 C   0  0  0  0  0  0  0  0  0  0  0  0
   25.0504  -20.2128  -10.6429 C   0  0  0  0  0  0  0  0  0  0  0  0
   25.4565  -21.1721  -11.7088 C   0  0  2  0  0  0  0  0  0  0  0  0
   26.8943  -21.5283  -11.5759 C   0  0  0  0  0  0  0  0  0  0  0  0
   24.9932  -20.7555  -13.0912 C   0  0  2  0  0  0  0  0  0  0  0  0
   25.6723  -19.4925  -13.4191 N   0  0  0  0  0  0  0  0  0  0  0  0
   23.5070  -20.5559  -13.0829 C   0  0  0  0  0  0  0  0  0  0  0  0
   23.1366  -19.6674  -12.2763 O   0  0  0  0  0  0  0  0  0  0  0  0
   22.6075  -21.2767  -13.8931 N   0  0  0  0  0  0  0  0  0  0  0  0
   22.9775  -22.0415  -15.1124 C   0  0  0  0  0  0  0  0  0  0  0  0
   22.2796  -23.3433  -14.9158 C   0  0  0  0  0  0  0  0  0  0  0  0
   21.1788  -23.0366  -13.9249 C   0  0  0  0  0  0  0  0  0  0  0  0
   21.2027  -21.4842  -13.8459 C   0  0  1  0  0  0  0  0  0  0  0  0
   20.4064  -21.0221  -12.7487 C   0  0  0  0  0  0  0  0  0  0  0  0
   20.7797  -21.3962  -11.4392 O   0  0  0  0  0  0  0  0  0  0  0  0
   19.4085  -20.3174  -12.8287 O   0  0  0  0  0  0  0  0  0  0  0  0
  2  1  1  6
  3  2  1  0
  4  5  2  0
  4  3  1  0
  6  5  1  0
  7  8  2  0
  7  6  1  0
  8  4  1  0
  9 16  1  0
  9  2  1  0
 10  9  2  0
 12 11  1  0
 13 15  1  0
 13 12  1  0
 13 14  1  6
 15 16  1  1
 17 15  1  0
 18 17  2  0
 19 17  1  0
 19 20  1  0
 21 20  1  0
 22 23  1  0
 22 21  1  0
 23 24  1  1
 23 19  1  0
 24 25  1  0
 26 24  2  0
M  END
$$$$
