HIP.pdb
     RDKit          3D

 26 27  0  0  1  0  0  0  0  0999 V2000
   22.9588  -22.0383  -17.9928 N   0  0  0  0  0  0  0  0  0  0  0  0
   22.7246  -20.8984  -17.1355 C   0  0  1  0  0  0  0  0  0  0  0  0
   21.5148  -21.0828  -16.2555 C   0  0  0  0  0  0  0  0  0  0  0  0
   20.2781  -20.5472  -16.8539 C   0  0  0  0  0  0  0  0  0  0  0  0
   19.7237  -20.7138  -18.0909 C   0  0  0  0  0  0  0  0  0  0  0  0
   18.5760  -20.0209  -18.1799 N   0  0  0  0  0  0  0  0  0  0  0  0
   18.4244  -19.4214  -16.9817 C   0  0  0  0  0  0  0  0  0  0  0  0
   19.4483  -19.7344  -16.1755 N   0  0  0  0  0  0  0  0  0  0  0  0
   23.8875  -20.7657  -16.2273 C   0  0  0  0  0  0  0  0  0  0  0  0
   24.5056  -21.8065  -15.9056 O   0  0  0  0  0  0  0  0  0  0  0  0
   26.7703  -16.2781  -16.0662 C   0  0  0  0  0  0  0  0  0  0  0  0
   26.6070  -17.7794  -15.9501 C   0  0  0  0  0  0  0  0  0  0  0  0
   26.0176  -18.1808  -14.6414 C   0  0  2  0  0  0  0  0  0  0  0  0
   26.9755  -17.9260  -13.5327 C   0  0  0  0  0  0  0  0  0  0  0  0
   25.3789  -19.5558  -14.6740 C   0  0  2  0  0  0  0  0  0  0  0  0
   24.3328  -19.5288  -15.7079 N   0  0  0  0  0  0  0  0  0  0  0  0
   24.7747  -19.8597  -13.3356 C   0  0  0  0  0  0  0  0  0  0  0  0
   23.8299  -19.0878  -13.0379 O   0  0  0  0  0  0  0  0  0  0  0  0
   25.2060  -20.9021  -12.4914 N   0  0  0  0  0  0  0  0  0  0  0  0
   26.0306  -22.0629  -12.9169 C   0  0  0  0  0  0  0  0  0  0  0  0
   27.0869  -22.1258  -11.8678 C   0  0  0  0  0  0  0  0  0  0  0  0
   26.4948  -21.3844  -10.6899 C   0  0  0  0  0  0  0  0  0  0  0  0
   25.0122  -21.1845  -11.1124 C   0  0  1  0  0  0  0  0  0  0  0  0
   24.3574  -20.2603  -10.2359 C   0  0  0  0  0  0  0  0  0  0  0  0
   23.4840  -20.7685   -9.2496 O   0  0  0  0  0  0  0  0  0  0  0  0
   24.4785  -19.0421  -10.2521 O   0  0  0  0  0  0  0  0  0  0  0  0
  2  1  1  6
  3  2  1  0
  4  5  2  0
  4  3  1  0
  6  5  1  0
  7  8  2  0
  7  6  1  0
  8  4  1  0
  9 16  1  0
  9  2  1  0
 10  9  2  0
 12 11  1  0
 13 15  1  0
 13 12  1  0
 13 14  1  1
 15 16  1  6
 17 15  1  0
 18 17  2  0
 19 17  1  0
 19 20  1  0
 21 20  1  0
 22 23  1  0
 22 21  1  0
 23 24  1  1
 23 19  1  0
 24 25  1  0
 26 24  2  0
M  END
$$$$
