HIP.pdb
     RDKit          3D

 26 27  0  0  1  0  0  0  0  0999 V2000
   26.6745  -20.8384  -11.6523 N   0  0  0  0  0  0  0  0  0  0  0  0
   26.0329  -20.2885  -10.4796 C   0  0  1  0  0  0  0  0  0  0  0  0
   24.7070  -20.9448  -10.1916 C   0  0  0  0  0  0  0  0  0  0  0  0
   23.6480  -20.5473  -11.1376 C   0  0  0  0  0  0  0  0  0  0  0  0
   23.1261  -21.1776  -12.2311 C   0  0  0  0  0  0  0  0  0  0  0  0
   22.1660  -20.4195  -12.7868 N   0  0  0  0  0  0  0  0  0  0  0  0
   22.0981  -19.3096  -12.0242 C   0  0  0  0  0  0  0  0  0  0  0  0
   22.9900  -19.3793  -11.0262 N   0  0  0  0  0  0  0  0  0  0  0  0
   26.9016  -20.5682   -9.3125 C   0  0  0  0  0  0  0  0  0  0  0  0
   27.5014  -21.6671   -9.2744 O   0  0  0  0  0  0  0  0  0  0  0  0
   30.4182  -17.8045   -5.1750 C   0  0  0  0  0  0  0  0  0  0  0  0
   29.7773  -19.0802   -5.6807 C   0  0  0  0  0  0  0  0  0  0  0  0
   28.7940  -18.8211   -6.7704 C   0  0  2  0  0  0  0  0  0  0  0  0
   28.0036  -17.5941   -6.4849 C   0  0  0  0  0  0  0  0  0  0  0  0
   28.0023  -20.0537   -7.1620 C   0  0  2  0  0  0  0  0  0  0  0  0
   27.0868  -19.6610   -8.2444 N   0  0  0  0  0  0  0  0  0  0  0  0
   27.2229  -20.5456   -5.9791 C   0  0  0  0  0  0  0  0  0  0  0  0
   26.1183  -19.9638   -5.8439 O   0  0  0  0  0  0  0  0  0  0  0  0
   27.6665  -21.5579   -5.1052 N   0  0  0  0  0  0  0  0  0  0  0  0
   28.7250  -22.5537   -5.4153 C   0  0  0  0  0  0  0  0  0  0  0  0
   29.5861  -22.5167   -4.1998 C   0  0  0  0  0  0  0  0  0  0  0  0
   28.6939  -21.9432   -3.1215 C   0  0  0  0  0  0  0  0  0  0  0  0
   27.2909  -21.9460   -3.7909 C   0  0  1  0  0  0  0  0  0  0  0  0
   26.3593  -21.1841   -3.0145 C   0  0  0  0  0  0  0  0  0  0  0  0
   25.3300  -21.8690   -2.3322 O   0  0  0  0  0  0  0  0  0  0  0  0
   26.3613  -19.9676   -2.8761 O   0  0  0  0  0  0  0  0  0  0  0  0
  2  1  1  6
  3  2  1  0
  4  5  2  0
  4  3  1  0
  6  5  1  0
  7  8  2  0
  7  6  1  0
  8  4  1  0
  9 16  1  0
  9  2  1  0
 10  9  2  0
 12 11  1  0
 13 15  1  0
 13 12  1  0
 13 14  1  1
 15 16  1  6
 17 15  1  0
 18 17  2  0
 19 17  1  0
 19 20  1  0
 21 20  1  0
 22 23  1  0
 22 21  1  0
 23 24  1  1
 23 19  1  0
 24 25  1  0
 26 24  2  0
M  END
$$$$
