HIP.pdb
     RDKit          3D

 26 27  0  0  1  0  0  0  0  0999 V2000
   25.9516  -22.9560  -18.5510 N   0  0  0  0  0  0  0  0  0  0  0  0
   25.4701  -21.7877  -17.8491 C   0  0  1  0  0  0  0  0  0  0  0  0
   23.9657  -21.6951  -17.8563 C   0  0  0  0  0  0  0  0  0  0  0  0
   23.4475  -20.7905  -18.8991 C   0  0  0  0  0  0  0  0  0  0  0  0
   23.5190  -19.4339  -19.0396 C   0  0  0  0  0  0  0  0  0  0  0  0
   22.8918  -19.0523  -20.1649 N   0  0  0  0  0  0  0  0  0  0  0  0
   22.4294  -20.1898  -20.7219 C   0  0  0  0  0  0  0  0  0  0  0  0
   22.7609  -21.2438  -19.9634 N   0  0  0  0  0  0  0  0  0  0  0  0
   25.8760  -21.9103  -16.4296 C   0  0  0  0  0  0  0  0  0  0  0  0
   25.7597  -23.0288  -15.8781 O   0  0  0  0  0  0  0  0  0  0  0  0
   29.9311  -20.1300  -12.3796 C   0  0  0  0  0  0  0  0  0  0  0  0
   28.5246  -20.6540  -12.5830 C   0  0  0  0  0  0  0  0  0  0  0  0
   28.0187  -20.3857  -13.9590 C   0  0  2  0  0  0  0  0  0  0  0  0
   28.0779  -18.9319  -14.2670 C   0  0  0  0  0  0  0  0  0  0  0  0
   26.7044  -21.0817  -14.2552 C   0  0  2  0  0  0  0  0  0  0  0  0
   26.3859  -20.8329  -15.6697 N   0  0  0  0  0  0  0  0  0  0  0  0
   25.6288  -20.5168  -13.3763 C   0  0  0  0  0  0  0  0  0  0  0  0
   25.2400  -19.3814  -13.7460 O   0  0  0  0  0  0  0  0  0  0  0  0
   25.0951  -21.1801  -12.2537 N   0  0  0  0  0  0  0  0  0  0  0  0
   25.5331  -22.5105  -11.7569 C   0  0  0  0  0  0  0  0  0  0  0  0
   25.6955  -22.2845  -10.2931 C   0  0  0  0  0  0  0  0  0  0  0  0
   24.8515  -21.0634  -10.0028 C   0  0  0  0  0  0  0  0  0  0  0  0
   24.0657  -20.8588  -11.3284 C   0  0  1  0  0  0  0  0  0  0  0  0
   23.4122  -19.5844  -11.3367 C   0  0  0  0  0  0  0  0  0  0  0  0
   22.0717  -19.5104  -10.8991 O   0  0  0  0  0  0  0  0  0  0  0  0
   23.9071  -18.5228  -11.6932 O   0  0  0  0  0  0  0  0  0  0  0  0
  2  1  1  6
  3  2  1  0
  4  5  2  0
  4  3  1  0
  6  5  1  0
  7  8  2  0
  7  6  1  0
  8  4  1  0
  9 16  1  0
  9  2  1  0
 10  9  2  0
 12 11  1  0
 13 15  1  0
 13 12  1  0
 13 14  1  1
 15 16  1  6
 17 15  1  0
 18 17  2  0
 19 17  1  0
 19 20  1  0
 21 20  1  0
 22 23  1  0
 22 21  1  0
 23 24  1  6
 23 19  1  0
 24 25  1  0
 26 24  2  0
M  END
$$$$
