HIP.pdb
     RDKit          3D

 26 27  0  0  1  0  0  0  0  0999 V2000
   21.5680  -12.5814  -18.4069 N   0  0  0  0  0  0  0  0  0  0  0  0
   22.3148  -11.3887  -18.0766 C   0  0  1  0  0  0  0  0  0  0  0  0
   22.6813  -10.5859  -19.2984 C   0  0  0  0  0  0  0  0  0  0  0  0
   23.6117  -11.2937  -20.1971 C   0  0  0  0  0  0  0  0  0  0  0  0
   23.4042  -11.9760  -21.3618 C   0  0  0  0  0  0  0  0  0  0  0  0
   24.5684  -12.4572  -21.8291 N   0  0  0  0  0  0  0  0  0  0  0  0
   25.5024  -12.0648  -20.9393 C   0  0  0  0  0  0  0  0  0  0  0  0
   24.9325  -11.3617  -19.9508 N   0  0  0  0  0  0  0  0  0  0  0  0
   21.4437  -10.5208  -17.2502 C   0  0  0  0  0  0  0  0  0  0  0  0
   20.2228  -10.4773  -17.5267 O   0  0  0  0  0  0  0  0  0  0  0  0
   19.1713   -9.2559  -12.4230 C   0  0  0  0  0  0  0  0  0  0  0  0
   20.3109   -8.4595  -13.0242 C   0  0  0  0  0  0  0  0  0  0  0  0
   21.1543   -9.2850  -13.9343 C   0  0  2  0  0  0  0  0  0  0  0  0
   22.5664   -9.3060  -13.4682 C   0  0  0  0  0  0  0  0  0  0  0  0
   20.9360   -8.9648  -15.4004 C   0  0  2  0  0  0  0  0  0  0  0  0
   21.9190   -9.7428  -16.1701 N   0  0  0  0  0  0  0  0  0  0  0  0
   21.1447   -7.4976  -15.6294 C   0  0  0  0  0  0  0  0  0  0  0  0
   22.1470   -7.0448  -15.0233 O   0  0  0  0  0  0  0  0  0  0  0  0
   20.3162   -6.6982  -16.4416 N   0  0  0  0  0  0  0  0  0  0  0  0
   19.3402   -7.2122  -17.4374 C   0  0  0  0  0  0  0  0  0  0  0  0
   18.1114   -6.4237  -17.1398 C   0  0  0  0  0  0  0  0  0  0  0  0
   18.6152   -5.1999  -16.4076 C   0  0  0  0  0  0  0  0  0  0  0  0
   20.1563   -5.2940  -16.5892 C   0  0  1  0  0  0  0  0  0  0  0  0
   20.8239   -4.3624  -15.7304 C   0  0  0  0  0  0  0  0  0  0  0  0
   21.2842   -3.1465  -16.2815 O   0  0  0  0  0  0  0  0  0  0  0  0
   21.0437   -4.5133  -14.5354 O   0  0  0  0  0  0  0  0  0  0  0  0
  2  1  1  6
  3  2  1  0
  4  5  2  0
  4  3  1  0
  6  5  1  0
  7  8  2  0
  7  6  1  0
  8  4  1  0
  9 16  1  0
  9  2  1  0
 10  9  2  0
 12 11  1  0
 13 15  1  0
 13 12  1  0
 13 14  1  1
 15 16  1  6
 17 15  1  0
 18 17  2  0
 19 17  1  0
 19 20  1  0
 21 20  1  0
 22 23  1  0
 22 21  1  0
 23 24  1  1
 23 19  1  0
 24 25  1  0
 26 24  2  0
M  END
$$$$
