HIP.pdb
     RDKit          3D

 26 27  0  0  1  0  0  0  0  0999 V2000
   21.2440  -19.1279  -17.4729 N   0  0  0  0  0  0  0  0  0  0  0  0
   21.6531  -18.3435  -16.3298 C   0  0  1  0  0  0  0  0  0  0  0  0
   20.6751  -18.4433  -15.1873 C   0  0  0  0  0  0  0  0  0  0  0  0
   19.4183  -17.7136  -15.4371 C   0  0  0  0  0  0  0  0  0  0  0  0
   19.0048  -16.9566  -16.4959 C   0  0  0  0  0  0  0  0  0  0  0  0
   17.7662  -16.4864  -16.2720 N   0  0  0  0  0  0  0  0  0  0  0  0
   17.4153  -16.9613  -15.0598 C   0  0  0  0  0  0  0  0  0  0  0  0
   18.4078  -17.7034  -14.5492 N   0  0  0  0  0  0  0  0  0  0  0  0
   22.9351  -18.8962  -15.8341 C   0  0  0  0  0  0  0  0  0  0  0  0
   23.1544  -20.1178  -16.0026 O   0  0  0  0  0  0  0  0  0  0  0  0
   26.7836  -15.6498  -15.8892 C   0  0  0  0  0  0  0  0  0  0  0  0
   26.4853  -17.1294  -16.0154 C   0  0  0  0  0  0  0  0  0  0  0  0
   26.2491  -17.7698  -14.6905 C   0  0  2  0  0  0  0  0  0  0  0  0
   27.5336  -18.2045  -14.0799 C   0  0  0  0  0  0  0  0  0  0  0  0
   25.1365  -18.7997  -14.7181 C   0  0  2  0  0  0  0  0  0  0  0  0
   23.9191  -18.1175  -15.1833 N   0  0  0  0  0  0  0  0  0  0  0  0
   24.9263  -19.3477  -13.3382 C   0  0  0  0  0  0  0  0  0  0  0  0
   24.5390  -18.4779  -12.5194 O   0  0  0  0  0  0  0  0  0  0  0  0
   25.1312  -20.6956  -12.9827 N   0  0  0  0  0  0  0  0  0  0  0  0
   25.1991  -21.8323  -13.9377 C   0  0  0  0  0  0  0  0  0  0  0  0
   26.4117  -22.5736  -13.4904 C   0  0  0  0  0  0  0  0  0  0  0  0
   26.6126  -22.1396  -12.0555 C   0  0  0  0  0  0  0  0  0  0  0  0
   25.3044  -21.3615  -11.7395 C   0  0  1  0  0  0  0  0  0  0  0  0
   25.4296  -20.6422  -10.5073 C   0  0  0  0  0  0  0  0  0  0  0  0
   24.8556  -21.1952   -9.3417 O   0  0  0  0  0  0  0  0  0  0  0  0
   25.9977  -19.5686  -10.3539 O   0  0  0  0  0  0  0  0  0  0  0  0
  2  1  1  6
  3  2  1  0
  4  5  2  0
  4  3  1  0
  6  5  1  0
  7  8  2  0
  7  6  1  0
  8  4  1  0
  9 16  1  0
  9  2  1  0
 10  9  2  0
 12 11  1  0
 13 15  1  0
 13 12  1  0
 13 14  1  6
 15 16  1  1
 17 15  1  0
 18 17  2  0
 19 17  1  0
 19 20  1  0
 21 20  1  0
 22 23  1  0
 22 21  1  0
 23 24  1  1
 23 19  1  0
 24 25  1  0
 26 24  2  0
M  END
$$$$
