HIP.pdb
     RDKit          3D

 26 27  0  0  1  0  0  0  0  0999 V2000
   17.7231  -12.4269  -15.8679 N   0  0  0  0  0  0  0  0  0  0  0  0
   18.3950  -11.5235  -16.7744 C   0  0  1  0  0  0  0  0  0  0  0  0
   17.4592  -10.4949  -17.3558 C   0  0  0  0  0  0  0  0  0  0  0  0
   16.4896  -11.0683  -18.3074 C   0  0  0  0  0  0  0  0  0  0  0  0
   16.2812  -12.3513  -18.7266 C   0  0  0  0  0  0  0  0  0  0  0  0
   15.2725  -12.3895  -19.6132 N   0  0  0  0  0  0  0  0  0  0  0  0
   14.8565  -11.1131  -19.7396 C   0  0  0  0  0  0  0  0  0  0  0  0
   15.5867  -10.3093  -18.9541 N   0  0  0  0  0  0  0  0  0  0  0  0
   19.4121  -10.7749  -15.9998 C   0  0  0  0  0  0  0  0  0  0  0  0
   19.1507  -10.4852  -14.8097 O   0  0  0  0  0  0  0  0  0  0  0  0
   24.3449  -12.2582  -15.8583 C   0  0  0  0  0  0  0  0  0  0  0  0
   23.0150  -11.6402  -15.4793 C   0  0  0  0  0  0  0  0  0  0  0  0
   22.9501  -10.1917  -15.8242 C   0  0  2  0  0  0  0  0  0  0  0  0
   24.0594   -9.4456  -15.1726 C   0  0  0  0  0  0  0  0  0  0  0  0
   21.5612   -9.6044  -15.6643 C   0  0  2  0  0  0  0  0  0  0  0  0
   20.6575  -10.3730  -16.5343 N   0  0  0  0  0  0  0  0  0  0  0  0
   21.5755   -8.1634  -16.0787 C   0  0  0  0  0  0  0  0  0  0  0  0
   21.9913   -7.9950  -17.2517 O   0  0  0  0  0  0  0  0  0  0  0  0
   21.1631   -7.0988  -15.2530 N   0  0  0  0  0  0  0  0  0  0  0  0
   20.3017   -7.2327  -14.0494 C   0  0  0  0  0  0  0  0  0  0  0  0
   21.0245   -6.4231  -13.0285 C   0  0  0  0  0  0  0  0  0  0  0  0
   21.8993   -5.4899  -13.8357 C   0  0  0  0  0  0  0  0  0  0  0  0
   21.3828   -5.6954  -15.2875 C   0  0  1  0  0  0  0  0  0  0  0  0
   22.2757   -5.0927  -16.2313 C   0  0  0  0  0  0  0  0  0  0  0  0
   21.9456   -3.8248  -16.7581 O   0  0  0  0  0  0  0  0  0  0  0  0
   23.3242   -5.5743  -16.6408 O   0  0  0  0  0  0  0  0  0  0  0  0
  2  1  1  1
  3  2  1  0
  4  5  2  0
  4  3  1  0
  6  5  1  0
  7  8  2  0
  7  6  1  0
  8  4  1  0
  9 16  1  0
  9  2  1  0
 10  9  2  0
 12 11  1  0
 13 15  1  0
 13 12  1  0
 13 14  1  1
 15 16  1  6
 17 15  1  0
 18 17  2  0
 19 17  1  0
 19 20  1  0
 21 20  1  0
 22 23  1  0
 22 21  1  0
 23 24  1  6
 23 19  1  0
 24 25  1  0
 26 24  2  0
M  END
$$$$
