HIP.pdb
     RDKit          3D

 26 27  0  0  1  0  0  0  0  0999 V2000
   20.4064  -19.9790  -13.3803 N   0  0  0  0  0  0  0  0  0  0  0  0
   21.3850  -21.0287  -13.5531 C   0  0  1  0  0  0  0  0  0  0  0  0
   21.3807  -21.5908  -14.9516 C   0  0  0  0  0  0  0  0  0  0  0  0
   20.2545  -22.5092  -15.2017 C   0  0  0  0  0  0  0  0  0  0  0  0
   20.2193  -23.8462  -15.4781 C   0  0  0  0  0  0  0  0  0  0  0  0
   18.9479  -24.2530  -15.6312 N   0  0  0  0  0  0  0  0  0  0  0  0
   18.1933  -23.1509  -15.4463 C   0  0  0  0  0  0  0  0  0  0  0  0
   18.9751  -22.0938  -15.1865 N   0  0  0  0  0  0  0  0  0  0  0  0
   22.7273  -20.4384  -13.3424 C   0  0  0  0  0  0  0  0  0  0  0  0
   22.8980  -19.2370  -13.6531 O   0  0  0  0  0  0  0  0  0  0  0  0
   25.4369  -20.7755   -8.8737 C   0  0  0  0  0  0  0  0  0  0  0  0
   24.8877  -20.3194  -10.2095 C   0  0  0  0  0  0  0  0  0  0  0  0
   25.7045  -20.8176  -11.3523 C   0  0  2  0  0  0  0  0  0  0  0  0
   27.1410  -20.4867  -11.1559 C   0  0  0  0  0  0  0  0  0  0  0  0
   25.1131  -20.4656  -12.7035 C   0  0  2  0  0  0  0  0  0  0  0  0
   23.8205  -21.1596  -12.8106 N   0  0  0  0  0  0  0  0  0  0  0  0
   26.0380  -20.9253  -13.7907 C   0  0  0  0  0  0  0  0  0  0  0  0
   26.3763  -22.1286  -13.6697 O   0  0  0  0  0  0  0  0  0  0  0  0
   26.4848  -20.1075  -14.8474 N   0  0  0  0  0  0  0  0  0  0  0  0
   25.9692  -18.7481  -15.1551 C   0  0  0  0  0  0  0  0  0  0  0  0
   27.2147  -17.9523  -15.3438 C   0  0  0  0  0  0  0  0  0  0  0  0
   28.2771  -18.9816  -15.6592 C   0  0  0  0  0  0  0  0  0  0  0  0
   27.4516  -20.2811  -15.8741 C   0  0  1  0  0  0  0  0  0  0  0  0
   28.3124  -21.4251  -15.9167 C   0  0  0  0  0  0  0  0  0  0  0  0
   28.4956  -22.0863  -17.1509 O   0  0  0  0  0  0  0  0  0  0  0  0
   28.9230  -21.9033  -14.9694 O   0  0  0  0  0  0  0  0  0  0  0  0
  2  1  1  6
  3  2  1  0
  4  5  2  0
  4  3  1  0
  6  5  1  0
  7  8  2  0
  7  6  1  0
  8  4  1  0
  9 16  1  0
  9  2  1  0
 10  9  2  0
 12 11  1  0
 13 15  1  0
 13 12  1  0
 13 14  1  6
 15 16  1  6
 17 15  1  0
 18 17  2  0
 19 17  1  0
 19 20  1  0
 21 20  1  0
 22 23  1  0
 22 21  1  0
 23 24  1  1
 23 19  1  0
 24 25  1  0
 26 24  2  0
M  END
$$$$
