HIP.pdb
     RDKit          3D

 26 27  0  0  1  0  0  0  0  0999 V2000
   27.9065  -20.7232  -17.6953 N   0  0  0  0  0  0  0  0  0  0  0  0
   27.2532  -19.7785  -16.8178 C   0  0  1  0  0  0  0  0  0  0  0  0
   26.1887  -18.9805  -17.5262 C   0  0  0  0  0  0  0  0  0  0  0  0
   26.7393  -18.0151  -18.4953 C   0  0  0  0  0  0  0  0  0  0  0  0
   26.8260  -18.0478  -19.8579 C   0  0  0  0  0  0  0  0  0  0  0  0
   27.4141  -16.9277  -20.3105 N   0  0  0  0  0  0  0  0  0  0  0  0
   27.6918  -16.1983  -19.2110 C   0  0  0  0  0  0  0  0  0  0  0  0
   27.2874  -16.8483  -18.1109 N   0  0  0  0  0  0  0  0  0  0  0  0
   26.5639  -20.5464  -15.7548 C   0  0  0  0  0  0  0  0  0  0  0  0
   26.0226  -21.6315  -16.0686 O   0  0  0  0  0  0  0  0  0  0  0  0
   28.7902  -19.9169  -12.2773 C   0  0  0  0  0  0  0  0  0  0  0  0
   27.9199  -21.1476  -12.1285 C   0  0  0  0  0  0  0  0  0  0  0  0
   26.4685  -20.8097  -12.1047 C   0  0  2  0  0  0  0  0  0  0  0  0
   25.7986  -21.4485  -10.9407 C   0  0  0  0  0  0  0  0  0  0  0  0
   25.7938  -20.9917  -13.4505 C   0  0  2  0  0  0  0  0  0  0  0  0
   26.4868  -20.1180  -14.4099 N   0  0  0  0  0  0  0  0  0  0  0  0
   24.3502  -20.6002  -13.3446 C   0  0  0  0  0  0  0  0  0  0  0  0
   24.1781  -19.5294  -12.7115 O   0  0  0  0  0  0  0  0  0  0  0  0
   23.2870  -21.3416  -13.8971 N   0  0  0  0  0  0  0  0  0  0  0  0
   23.4268  -22.3956  -14.9353 C   0  0  0  0  0  0  0  0  0  0  0  0
   22.5997  -23.5106  -14.3940 C   0  0  0  0  0  0  0  0  0  0  0  0
   21.6581  -22.8431  -13.4165 C   0  0  0  0  0  0  0  0  0  0  0  0
   21.8806  -21.3300  -13.6949 C   0  0  1  0  0  0  0  0  0  0  0  0
   21.2700  -20.5333  -12.6733 C   0  0  0  0  0  0  0  0  0  0  0  0
   20.1518  -19.7409  -13.0134 O   0  0  0  0  0  0  0  0  0  0  0  0
   21.6252  -20.4651  -11.5036 O   0  0  0  0  0  0  0  0  0  0  0  0
  2  1  1  6
  3  2  1  0
  4  5  2  0
  4  3  1  0
  6  5  1  0
  7  8  2  0
  7  6  1  0
  8  4  1  0
  9 16  1  0
  9  2  1  0
 10  9  2  0
 12 11  1  0
 13 15  1  0
 13 12  1  0
 13 14  1  1
 15 16  1  6
 17 15  1  0
 18 17  2  0
 19 17  1  0
 19 20  1  0
 21 20  1  0
 22 23  1  0
 22 21  1  0
 23 24  1  1
 23 19  1  0
 24 25  1  0
 26 24  2  0
M  END
$$$$
