HIP.pdb
     RDKit          3D

 26 27  0  0  1  0  0  0  0  0999 V2000
   42.2382   -6.1426   -4.6419 N   0  0  0  0  0  0  0  0  0  0  0  0
   42.4336   -6.3884   -6.0528 C   0  0  1  0  0  0  0  0  0  0  0  0
   43.8690   -6.2017   -6.4731 C   0  0  0  0  0  0  0  0  0  0  0  0
   44.2284   -4.7880   -6.6894 C   0  0  0  0  0  0  0  0  0  0  0  0
   44.5951   -4.1080   -7.8157 C   0  0  0  0  0  0  0  0  0  0  0  0
   44.8297   -2.8184   -7.5209 N   0  0  0  0  0  0  0  0  0  0  0  0
   44.6040   -2.7057   -6.1963 C   0  0  0  0  0  0  0  0  0  0  0  0
   44.2405   -3.8910   -5.6871 N   0  0  0  0  0  0  0  0  0  0  0  0
   42.1001   -7.8073   -6.3179 C   0  0  0  0  0  0  0  0  0  0  0  0
   42.3004   -8.6402   -5.4041 O   0  0  0  0  0  0  0  0  0  0  0  0
   37.7178   -8.6909   -8.3577 C   0  0  0  0  0  0  0  0  0  0  0  0
   38.8480   -9.2092   -7.4928 C   0  0  0  0  0  0  0  0  0  0  0  0
   39.9236   -9.8520   -8.2998 C   0  0  2  0  0  0  0  0  0  0  0  0
   39.5266  -11.2266   -8.7056 C   0  0  0  0  0  0  0  0  0  0  0  0
   41.2996   -9.7063   -7.6795 C   0  0  2  0  0  0  0  0  0  0  0  0
   41.5695   -8.2665   -7.5449 N   0  0  0  0  0  0  0  0  0  0  0  0
   42.3222  -10.3423   -8.5730 C   0  0  0  0  0  0  0  0  0  0  0  0
   42.1357  -10.0892   -9.7888 O   0  0  0  0  0  0  0  0  0  0  0  0
   43.3898  -11.1379   -8.1122 N   0  0  0  0  0  0  0  0  0  0  0  0
   43.8625  -11.2049   -6.7048 C   0  0  0  0  0  0  0  0  0  0  0  0
   43.9834  -12.6700   -6.4615 C   0  0  0  0  0  0  0  0  0  0  0  0
   44.0974  -13.2748   -7.8432 C   0  0  0  0  0  0  0  0  0  0  0  0
   44.2900  -12.0302   -8.7545 C   0  0  1  0  0  0  0  0  0  0  0  0
   44.1456  -12.3871  -10.1340 C   0  0  0  0  0  0  0  0  0  0  0  0
   45.2814  -12.3220  -10.9704 O   0  0  0  0  0  0  0  0  0  0  0  0
   43.1124  -12.7529  -10.6796 O   0  0  0  0  0  0  0  0  0  0  0  0
  2  1  1  1
  3  2  1  0
  4  5  2  0
  4  3  1  0
  6  5  1  0
  7  8  2  0
  7  6  1  0
  8  4  1  0
  9 16  1  0
  9  2  1  0
 10  9  2  0
 12 11  1  0
 13 15  1  0
 13 12  1  0
 13 14  1  1
 15 16  1  6
 17 15  1  0
 18 17  2  0
 19 17  1  0
 19 20  1  0
 21 20  1  0
 22 23  1  0
 22 21  1  0
 23 24  1  6
 23 19  1  0
 24 25  1  0
 26 24  2  0
M  END
$$$$
