VNT.pdb
     RDKit          3D

 23 22  0  0  1  0  0  0  0  0999 V2000
   15.8543  -11.3399  -16.8956 C   0  0  0  0  0  0  0  0  0  0  0  0
   16.1252  -12.7734  -16.4726 C   0  0  1  0  0  0  0  0  0  0  0  0
   15.1561  -13.6909  -17.1403 C   0  0  0  0  0  0  0  0  0  0  0  0
   17.5740  -13.1417  -16.6917 C   0  0  2  0  0  0  0  0  0  0  0  0
   17.7127  -14.5157  -16.2894 N   0  0  0  0  0  0  0  0  0  0  0  0
   18.4981  -12.3020  -15.9111 C   0  0  0  0  0  0  0  0  0  0  0  0
   19.3119  -12.8087  -15.0841 O   0  0  0  0  0  0  0  0  0  0  0  0
   20.9744   -7.9823  -14.4188 N   0  0  0  0  0  0  0  0  0  0  0  0
   21.5782   -9.1837  -14.8638 C   0  0  0  0  0  0  0  0  0  0  0  0
   22.8137   -9.3266  -14.6810 O   0  0  0  0  0  0  0  0  0  0  0  0
   20.8342  -10.2756  -15.5296 C   0  0  0  0  0  0  0  0  0  0  0  0
   19.3685   -9.9089  -15.6311 C   0  0  2  0  0  0  0  0  0  0  0  0
   18.4804  -10.9119  -16.0852 N   0  0  0  0  0  0  0  0  0  0  0  0
   19.1167   -8.5469  -16.1165 C   0  0  0  0  0  0  0  0  0  0  0  0
   19.6064   -8.0832  -17.1788 O   0  0  0  0  0  0  0  0  0  0  0  0
   15.4116   -6.8433  -15.8044 C   0  0  0  0  0  0  0  0  0  0  0  0
   16.5508   -5.9735  -15.3090 C   0  0  1  0  0  0  0  0  0  0  0  0
   16.6853   -6.2396  -13.9447 O   0  0  0  0  0  0  0  0  0  0  0  0
   17.8668   -6.3627  -15.9517 C   0  0  2  0  0  0  0  0  0  0  0  0
   18.2696   -7.6448  -15.3807 N   0  0  0  0  0  0  0  0  0  0  0  0
   18.8921   -5.3573  -15.4929 C   0  0  0  0  0  0  0  0  0  0  0  0
   18.7606   -4.0539  -15.9438 O   0  0  0  0  0  0  0  0  0  0  0  0
   19.8433   -5.6801  -14.7245 O   0  0  0  0  0  0  0  0  0  0  0  0
  2  1  1  6
  2  3  1  0
  4  2  1  0
  4  5  1  1
  6  4  1  0
  6  7  2  0
  8  9  1  0
  9 11  1  0
 10  9  2  0
 12 11  1  6
 12 13  1  0
 13  6  1  0
 14 12  1  0
 15 14  2  0
 17 16  1  6
 17 18  1  0
 19 20  1  1
 19 17  1  0
 20 14  1  0
 21 19  1  0
 22 21  1  0
 23 21  2  0
M  END
$$$$
