VNT.pdb
     RDKit          3D

 23 22  0  0  1  0  0  0  0  0999 V2000
   17.0964  -15.1567  -18.8478 C   0  0  0  0  0  0  0  0  0  0  0  0
   16.9452  -13.6529  -18.6964 C   0  0  1  0  0  0  0  0  0  0  0  0
   15.6213  -13.3354  -18.0852 C   0  0  0  0  0  0  0  0  0  0  0  0
   18.1226  -13.0581  -17.9599 C   0  0  2  0  0  0  0  0  0  0  0  0
   18.1975  -13.7347  -16.6929 N   0  0  0  0  0  0  0  0  0  0  0  0
   17.9816  -11.6090  -17.7393 C   0  0  0  0  0  0  0  0  0  0  0  0
   18.1243  -10.7803  -18.6859 O   0  0  0  0  0  0  0  0  0  0  0  0
   17.2892   -7.0870  -15.4519 N   0  0  0  0  0  0  0  0  0  0  0  0
   16.1464   -7.9121  -15.3132 C   0  0  0  0  0  0  0  0  0  0  0  0
   15.0612   -7.3677  -14.9871 O   0  0  0  0  0  0  0  0  0  0  0  0
   16.1623   -9.3753  -15.5313 C   0  0  0  0  0  0  0  0  0  0  0  0
   17.5455   -9.8135  -15.9648 C   0  0  2  0  0  0  0  0  0  0  0  0
   17.6821  -11.1329  -16.4562 N   0  0  0  0  0  0  0  0  0  0  0  0
   18.6328   -9.3198  -15.1116 C   0  0  0  0  0  0  0  0  0  0  0  0
   18.7063   -9.5438  -13.8755 O   0  0  0  0  0  0  0  0  0  0  0  0
   22.2348  -10.1993  -15.5072 C   0  0  0  0  0  0  0  0  0  0  0  0
   22.0970   -8.6923  -15.6061 C   0  0  1  0  0  0  0  0  0  0  0  0
   21.8759   -8.4045  -16.9546 O   0  0  0  0  0  0  0  0  0  0  0  0
   20.8762   -8.1959  -14.8578 C   0  0  2  0  0  0  0  0  0  0  0  0
   19.7045   -8.5315  -15.6620 N   0  0  0  0  0  0  0  0  0  0  0  0
   20.9565   -6.6907  -14.8393 C   0  0  0  0  0  0  0  0  0  0  0  0
   20.0318   -5.9885  -15.5952 O   0  0  0  0  0  0  0  0  0  0  0  0
   21.8325   -6.0792  -14.1624 O   0  0  0  0  0  0  0  0  0  0  0  0
  2  1  1  1
  2  3  1  0
  4  2  1  0
  4  5  1  1
  6  4  1  0
  6  7  2  0
  8  9  1  0
  9 11  1  0
 10  9  2  0
 12 11  1  1
 12 13  1  0
 13  6  1  0
 14 12  1  0
 15 14  2  0
 17 16  1  6
 17 18  1  0
 19 20  1  6
 19 17  1  0
 20 14  1  0
 21 19  1  0
 22 21  1  0
 23 21  2  0
M  END
$$$$
