VNT.pdb
     RDKit          3D

 23 22  0  0  1  0  0  0  0  0999 V2000
   21.5374  -12.0424  -15.9308 C   0  0  0  0  0  0  0  0  0  0  0  0
   20.5365  -11.5148  -16.9444 C   0  0  1  0  0  0  0  0  0  0  0  0
   20.0318  -12.6363  -17.7896 C   0  0  0  0  0  0  0  0  0  0  0  0
   19.4479  -10.7137  -16.2693 C   0  0  2  0  0  0  0  0  0  0  0  0
   18.6608  -10.1255  -17.3196 N   0  0  0  0  0  0  0  0  0  0  0  0
   19.9805   -9.6535  -15.3972 C   0  0  0  0  0  0  0  0  0  0  0  0
   20.7629   -9.9189  -14.4377 O   0  0  0  0  0  0  0  0  0  0  0  0
   22.6703   -4.7862  -14.5058 N   0  0  0  0  0  0  0  0  0  0  0  0
   21.8532   -5.8090  -13.9651 C   0  0  0  0  0  0  0  0  0  0  0  0
   21.3504   -5.6237  -12.8279 O   0  0  0  0  0  0  0  0  0  0  0  0
   21.5611   -7.0790  -14.6655 C   0  0  0  0  0  0  0  0  0  0  0  0
   20.1034   -7.1151  -15.0739 C   0  0  2  0  0  0  0  0  0  0  0  0
   19.6171   -8.3208  -15.6313 N   0  0  0  0  0  0  0  0  0  0  0  0
   19.6130   -5.8720  -15.6807 C   0  0  0  0  0  0  0  0  0  0  0  0
   20.1535   -5.3199  -16.6739 O   0  0  0  0  0  0  0  0  0  0  0  0
   15.8608   -5.3085  -16.6288 C   0  0  0  0  0  0  0  0  0  0  0  0
   16.3715   -4.1736  -15.7623 C   0  0  1  0  0  0  0  0  0  0  0  0
   16.0769   -4.5221  -14.4425 O   0  0  0  0  0  0  0  0  0  0  0  0
   17.8795   -4.0475  -15.8441 C   0  0  2  0  0  0  0  0  0  0  0  0
   18.4524   -5.2010  -15.1559 N   0  0  0  0  0  0  0  0  0  0  0  0
   18.2624   -2.8386  -15.0290 C   0  0  0  0  0  0  0  0  0  0  0  0
   17.9503   -1.5910  -15.5442 O   0  0  0  0  0  0  0  0  0  0  0  0
   18.8486   -2.9466  -13.9136 O   0  0  0  0  0  0  0  0  0  0  0  0
  2  1  1  1
  2  3  1  0
  4  2  1  0
  4  5  1  6
  6  4  1  0
  6  7  2  0
  8  9  1  0
  9 11  1  0
 10  9  2  0
 12 11  1  6
 12 13  1  0
 13  6  1  0
 14 12  1  0
 15 14  2  0
 17 16  1  6
 17 18  1  0
 19 20  1  1
 19 17  1  0
 20 14  1  0
 21 19  1  0
 22 21  1  0
 23 21  2  0
M  END
$$$$
