VNT.pdb
     RDKit          3D

 23 22  0  0  1  0  0  0  0  0999 V2000
   15.5484  -11.4090  -10.8382 C   0  0  0  0  0  0  0  0  0  0  0  0
   14.0843  -11.5451  -10.4573 C   0  0  1  0  0  0  0  0  0  0  0  0
   13.7767  -12.9671  -10.1254 C   0  0  0  0  0  0  0  0  0  0  0  0
   13.7102  -10.5638   -9.3711 C   0  0  2  0  0  0  0  0  0  0  0  0
   12.2934  -10.7014   -9.1649 N   0  0  0  0  0  0  0  0  0  0  0  0
   14.0249   -9.1710   -9.7307 C   0  0  0  0  0  0  0  0  0  0  0  0
   13.3849   -8.5629  -10.6383 O   0  0  0  0  0  0  0  0  0  0  0  0
   13.2235   -6.0092   -8.3690 N   0  0  0  0  0  0  0  0  0  0  0  0
   14.3999   -5.8221   -7.6029 C   0  0  0  0  0  0  0  0  0  0  0  0
   14.3059   -5.1869   -6.5222 O   0  0  0  0  0  0  0  0  0  0  0  0
   15.7286   -6.3332   -8.0059 C   0  0  0  0  0  0  0  0  0  0  0  0
   15.5904   -7.2043   -9.2368 C   0  0  2  0  0  0  0  0  0  0  0  0
   15.0531   -8.5001   -9.0556 N   0  0  0  0  0  0  0  0  0  0  0  0
   16.6997   -7.0861  -10.1905 C   0  0  0  0  0  0  0  0  0  0  0  0
   17.9045   -7.2867   -9.8877 O   0  0  0  0  0  0  0  0  0  0  0  0
   17.0979   -9.0049  -13.4194 C   0  0  0  0  0  0  0  0  0  0  0  0
   17.1068   -7.5209  -13.7313 C   0  0  1  0  0  0  0  0  0  0  0  0
   15.7805   -7.1630  -13.9828 O   0  0  0  0  0  0  0  0  0  0  0  0
   17.5497   -6.7043  -12.5340 C   0  0  2  0  0  0  0  0  0  0  0  0
   16.4590   -6.7253  -11.5633 N   0  0  0  0  0  0  0  0  0  0  0  0
   17.6710   -5.2756  -12.9994 C   0  0  0  0  0  0  0  0  0  0  0  0
   18.7763   -4.9406  -13.7646 O   0  0  0  0  0  0  0  0  0  0  0  0
   16.8017   -4.4046  -12.7077 O   0  0  0  0  0  0  0  0  0  0  0  0
  2  1  1  1
  2  3  1  0
  4  2  1  0
  4  5  1  6
  6  4  1  0
  6  7  2  0
  8  9  1  0
  9 11  1  0
 10  9  2  0
 12 11  1  1
 12 13  1  0
 13  6  1  0
 14 12  1  0
 15 14  2  0
 17 16  1  1
 17 18  1  0
 19 20  1  1
 19 17  1  0
 20 14  1  0
 21 19  1  0
 22 21  1  0
 23 21  2  0
M  END
$$$$
