VNT.pdb
     RDKit          3D

 23 22  0  0  1  0  0  0  0  0999 V2000
   18.4884  -11.4955  -19.7634 C   0  0  0  0  0  0  0  0  0  0  0  0
   18.5637  -10.3415  -18.7785 C   0  0  1  0  0  0  0  0  0  0  0  0
   17.1974   -9.7933  -18.5344 C   0  0  0  0  0  0  0  0  0  0  0  0
   19.2997  -10.7443  -17.5220 C   0  0  2  0  0  0  0  0  0  0  0  0
   18.5821  -11.8604  -16.9669 N   0  0  0  0  0  0  0  0  0  0  0  0
   19.3683   -9.6577  -16.5307 C   0  0  0  0  0  0  0  0  0  0  0  0
   18.4717   -9.5112  -15.6487 O   0  0  0  0  0  0  0  0  0  0  0  0
   22.7333   -9.8137  -14.2838 N   0  0  0  0  0  0  0  0  0  0  0  0
   22.0354   -8.6017  -14.0607 C   0  0  0  0  0  0  0  0  0  0  0  0
   21.4319   -8.4605  -12.9671 O   0  0  0  0  0  0  0  0  0  0  0  0
   21.9797   -7.4969  -15.0433 C   0  0  0  0  0  0  0  0  0  0  0  0
   20.6889   -7.5769  -15.8311 C   0  0  2  0  0  0  0  0  0  0  0  0
   20.4480   -8.7653  -16.5596 N   0  0  0  0  0  0  0  0  0  0  0  0
   20.2985   -6.3217  -16.4838 C   0  0  0  0  0  0  0  0  0  0  0  0
   20.8601   -5.8669  -17.5138 O   0  0  0  0  0  0  0  0  0  0  0  0
   16.8388   -5.3389  -17.7303 C   0  0  0  0  0  0  0  0  0  0  0  0
   17.3117   -4.2927  -16.7396 C   0  0  1  0  0  0  0  0  0  0  0  0
   16.8232   -4.6831  -15.4909 O   0  0  0  0  0  0  0  0  0  0  0  0
   18.8226   -4.2814  -16.6225 C   0  0  2  0  0  0  0  0  0  0  0  0
   19.2191   -5.5231  -15.9643 N   0  0  0  0  0  0  0  0  0  0  0  0
   19.1794   -3.1683  -15.6706 C   0  0  0  0  0  0  0  0  0  0  0  0
   19.1376   -1.8708  -16.1545 O   0  0  0  0  0  0  0  0  0  0  0  0
   19.5075   -3.3981  -14.4710 O   0  0  0  0  0  0  0  0  0  0  0  0
  2  1  1  6
  2  3  1  0
  4  2  1  0
  4  5  1  1
  6  4  1  0
  6  7  2  0
  8  9  1  0
  9 11  1  0
 10  9  2  0
 12 11  1  6
 12 13  1  0
 13  6  1  0
 14 12  1  0
 15 14  2  0
 17 16  1  6
 17 18  1  0
 19 20  1  1
 19 17  1  0
 20 14  1  0
 21 19  1  0
 22 21  1  0
 23 21  2  0
M  END
$$$$
