VNT.pdb
     RDKit          3D

 23 22  0  0  1  0  0  0  0  0999 V2000
   17.1776   -8.8826  -16.1466 C   0  0  0  0  0  0  0  0  0  0  0  0
   15.9590   -9.7010  -15.7560 C   0  0  1  0  0  0  0  0  0  0  0  0
   15.8235  -10.8752  -16.6668 C   0  0  0  0  0  0  0  0  0  0  0  0
   15.9909  -10.0596  -14.2887 C   0  0  2  0  0  0  0  0  0  0  0  0
   14.7503  -10.7292  -14.0035 N   0  0  0  0  0  0  0  0  0  0  0  0
   16.1278   -8.8798  -13.4183 C   0  0  0  0  0  0  0  0  0  0  0  0
   15.1574   -8.0916  -13.2173 O   0  0  0  0  0  0  0  0  0  0  0  0
   18.8298   -5.5659  -10.3113 N   0  0  0  0  0  0  0  0  0  0  0  0
   17.6727   -6.2645   -9.8883 C   0  0  0  0  0  0  0  0  0  0  0  0
   17.1072   -5.8850   -8.8317 O   0  0  0  0  0  0  0  0  0  0  0  0
   17.0964   -7.4129  -10.6218 C   0  0  0  0  0  0  0  0  0  0  0  0
   17.7702   -7.5490  -11.9711 C   0  0  2  0  0  0  0  0  0  0  0  0
   17.3561   -8.6208  -12.7961 N   0  0  0  0  0  0  0  0  0  0  0  0
   19.2069   -7.2493  -11.9640 C   0  0  0  0  0  0  0  0  0  0  0  0
   20.0189   -7.7444  -11.1400 O   0  0  0  0  0  0  0  0  0  0  0  0
   21.4525   -8.0643  -14.7711 C   0  0  0  0  0  0  0  0  0  0  0  0
   21.5639   -6.5737  -14.5155 C   0  0  1  0  0  0  0  0  0  0  0  0
   20.5871   -5.9642  -15.3058 O   0  0  0  0  0  0  0  0  0  0  0  0
   21.2264   -6.2297  -13.0787 C   0  0  2  0  0  0  0  0  0  0  0  0
   19.7786   -6.3475  -12.9298 N   0  0  0  0  0  0  0  0  0  0  0  0
   21.5512   -4.7698  -12.8904 C   0  0  0  0  0  0  0  0  0  0  0  0
   22.8840   -4.4218  -12.7423 O   0  0  0  0  0  0  0  0  0  0  0  0
   20.6479   -3.8849  -12.8659 O   0  0  0  0  0  0  0  0  0  0  0  0
  2  1  1  6
  2  3  1  0
  4  2  1  0
  4  5  1  1
  6  4  1  0
  6  7  2  0
  8  9  1  0
  9 11  1  0
 10  9  2  0
 12 11  1  1
 12 13  1  0
 13  6  1  0
 14 12  1  0
 15 14  2  0
 17 16  1  1
 17 18  1  0
 19 20  1  6
 19 17  1  0
 20 14  1  0
 21 19  1  0
 22 21  1  0
 23 21  2  0
M  END
$$$$
