VNT.pdb
     RDKit          3D

 23 22  0  0  1  0  0  0  0  0999 V2000
   27.3254  -19.4654  -17.2674 C   0  0  0  0  0  0  0  0  0  0  0  0
   28.0440  -20.7781  -17.5276 C   0  0  1  0  0  0  0  0  0  0  0  0
   29.2306  -20.5421  -18.4012 C   0  0  0  0  0  0  0  0  0  0  0  0
   28.3630  -21.4906  -16.2341 C   0  0  2  0  0  0  0  0  0  0  0  0
   28.8689  -22.7878  -16.5948 N   0  0  0  0  0  0  0  0  0  0  0  0
   27.1847  -21.6435  -15.3642 C   0  0  0  0  0  0  0  0  0  0  0  0
   26.2311  -22.4165  -15.6744 O   0  0  0  0  0  0  0  0  0  0  0  0
   25.3211  -21.7252   -9.9284 N   0  0  0  0  0  0  0  0  0  0  0  0
   25.4551  -20.6254  -10.8107 C   0  0  0  0  0  0  0  0  0  0  0  0
   24.5723  -19.7311  -10.7778 O   0  0  0  0  0  0  0  0  0  0  0  0
   26.5753  -20.4740  -11.7652 C   0  0  0  0  0  0  0  0  0  0  0  0
   26.1332  -20.9085  -13.1468 C   0  0  2  0  0  0  0  0  0  0  0  0
   27.1139  -20.9208  -14.1660 N   0  0  0  0  0  0  0  0  0  0  0  0
   24.7982  -20.4363  -13.5323 C   0  0  0  0  0  0  0  0  0  0  0  0
   24.5470  -19.2487  -13.8639 O   0  0  0  0  0  0  0  0  0  0  0  0
   22.7686  -21.4361  -16.3877 C   0  0  0  0  0  0  0  0  0  0  0  0
   21.9346  -21.7330  -15.1565 C   0  0  1  0  0  0  0  0  0  0  0  0
   22.2146  -23.0539  -14.7999 O   0  0  0  0  0  0  0  0  0  0  0  0
   22.3554  -20.8749  -13.9804 C   0  0  2  0  0  0  0  0  0  0  0  0
   23.6738  -21.3351  -13.5533 N   0  0  0  0  0  0  0  0  0  0  0  0
   21.4121  -21.1916  -12.8479 C   0  0  0  0  0  0  0  0  0  0  0  0
   20.1048  -20.7462  -12.9568 O   0  0  0  0  0  0  0  0  0  0  0  0
   21.7891  -21.8395  -11.8293 O   0  0  0  0  0  0  0  0  0  0  0  0
  2  1  1  1
  2  3  1  0
  4  2  1  0
  4  5  1  6
  6  4  1  0
  6  7  2  0
  8  9  1  0
  9 11  1  0
 10  9  2  0
 12 11  1  1
 12 13  1  0
 13  6  1  0
 14 12  1  0
 15 14  2  0
 17 16  1  6
 17 18  1  0
 19 20  1  1
 19 17  1  0
 20 14  1  0
 21 19  1  0
 22 21  1  0
 23 21  2  0
M  END
$$$$
