VNT.pdb
     RDKit          3D

 23 22  0  0  1  0  0  0  0  0999 V2000
   27.1202  -20.0185  -12.9595 C   0  0  0  0  0  0  0  0  0  0  0  0
   26.2392  -21.1194  -12.3945 C   0  0  1  0  0  0  0  0  0  0  0  0
   26.6348  -21.4125  -10.9858 C   0  0  0  0  0  0  0  0  0  0  0  0
   24.7752  -20.7886  -12.5674 C   0  0  2  0  0  0  0  0  0  0  0  0
   24.0378  -21.8582  -11.9501 N   0  0  0  0  0  0  0  0  0  0  0  0
   24.3830  -20.6692  -13.9817 C   0  0  0  0  0  0  0  0  0  0  0  0
   23.6050  -21.5081  -14.5240 O   0  0  0  0  0  0  0  0  0  0  0  0
   22.2200  -18.9363  -18.2827 N   0  0  0  0  0  0  0  0  0  0  0  0
   22.4086  -18.1145  -17.1447 C   0  0  0  0  0  0  0  0  0  0  0  0
   22.1918  -16.8820  -17.2639 O   0  0  0  0  0  0  0  0  0  0  0  0
   22.8454  -18.6283  -15.8278 C   0  0  0  0  0  0  0  0  0  0  0  0
   24.3288  -18.9305  -15.8624 C   0  0  2  0  0  0  0  0  0  0  0  0
   24.8780  -19.6052  -14.7470 N   0  0  0  0  0  0  0  0  0  0  0  0
   25.1507  -17.8659  -16.4498 C   0  0  0  0  0  0  0  0  0  0  0  0
   25.1150  -16.6669  -16.0698 O   0  0  0  0  0  0  0  0  0  0  0  0
   28.9334  -18.5007  -16.9002 C   0  0  0  0  0  0  0  0  0  0  0  0
   28.3643  -17.9203  -18.1804 C   0  0  1  0  0  0  0  0  0  0  0  0
   28.0309  -19.0071  -18.9917 O   0  0  0  0  0  0  0  0  0  0  0  0
   27.0744  -17.1676  -17.9237 C   0  0  2  0  0  0  0  0  0  0  0  0
   26.0690  -18.1476  -17.5222 N   0  0  0  0  0  0  0  0  0  0  0  0
   26.6179  -16.6163  -19.2505 C   0  0  0  0  0  0  0  0  0  0  0  0
   27.3228  -15.5470  -19.7788 O   0  0  0  0  0  0  0  0  0  0  0  0
   25.6279  -17.1036  -19.8685 O   0  0  0  0  0  0  0  0  0  0  0  0
  2  1  1  1
  2  3  1  0
  4  2  1  0
  4  5  1  6
  6  4  1  0
  6  7  2  0
  8  9  1  0
  9 11  1  0
 10  9  2  0
 12 11  1  1
 12 13  1  0
 13  6  1  0
 14 12  1  0
 15 14  2  0
 17 16  1  1
 17 18  1  0
 19 20  1  6
 19 17  1  0
 20 14  1  0
 21 19  1  0
 22 21  1  0
 23 21  2  0
M  END
$$$$
