VNT.pdb
     RDKit          3D

 23 22  0  0  1  0  0  0  0  0999 V2000
   17.3293  -15.9273  -17.2321 C   0  0  0  0  0  0  0  0  0  0  0  0
   17.9977  -14.7750  -16.5020 C   0  0  1  0  0  0  0  0  0  0  0  0
   19.4809  -14.8993  -16.6088 C   0  0  0  0  0  0  0  0  0  0  0  0
   17.4553  -13.4450  -16.9706 C   0  0  2  0  0  0  0  0  0  0  0  0
   17.6514  -13.4014  -18.3948 N   0  0  0  0  0  0  0  0  0  0  0  0
   18.1361  -12.3006  -16.3421 C   0  0  0  0  0  0  0  0  0  0  0  0
   18.1252  -12.1340  -15.0870 O   0  0  0  0  0  0  0  0  0  0  0  0
   22.6230  -12.0340  -17.3794 N   0  0  0  0  0  0  0  0  0  0  0  0
   21.7230  -11.2268  -16.6417 C   0  0  0  0  0  0  0  0  0  0  0  0
   21.5635  -11.4838  -15.4215 O   0  0  0  0  0  0  0  0  0  0  0  0
   20.9636  -10.1011  -17.2291 C   0  0  0  0  0  0  0  0  0  0  0  0
   19.5107  -10.1904  -16.8118 C   0  0  2  0  0  0  0  0  0  0  0  0
   18.8128  -11.3743  -17.1465 N   0  0  0  0  0  0  0  0  0  0  0  0
   18.7638   -8.9339  -16.9440 C   0  0  0  0  0  0  0  0  0  0  0  0
   18.5918   -8.3364  -18.0380 O   0  0  0  0  0  0  0  0  0  0  0  0
   15.2120   -8.3384  -15.4534 C   0  0  0  0  0  0  0  0  0  0  0  0
   16.1672   -7.2542  -14.9932 C   0  0  1  0  0  0  0  0  0  0  0  0
   16.6959   -7.6859  -13.7748 O   0  0  0  0  0  0  0  0  0  0  0  0
   17.3411   -7.1093  -15.9405 C   0  0  2  0  0  0  0  0  0  0  0  0
   18.1704   -8.3023  -15.7944 N   0  0  0  0  0  0  0  0  0  0  0  0
   18.1707   -5.9561  -15.4362 C   0  0  0  0  0  0  0  0  0  0  0  0
   17.6535   -4.6793  -15.5840 O   0  0  0  0  0  0  0  0  0  0  0  0
   19.3003   -6.1349  -14.8963 O   0  0  0  0  0  0  0  0  0  0  0  0
  2  1  1  6
  2  3  1  0
  4  2  1  0
  4  5  1  6
  6  4  1  0
  6  7  2  0
  8  9  1  0
  9 11  1  0
 10  9  2  0
 12 11  1  6
 12 13  1  0
 13  6  1  0
 14 12  1  0
 15 14  2  0
 17 16  1  6
 17 18  1  0
 19 20  1  1
 19 17  1  0
 20 14  1  0
 21 19  1  0
 22 21  1  0
 23 21  2  0
M  END
$$$$
