VNT.pdb
     RDKit          3D

 23 22  0  0  1  0  0  0  0  0999 V2000
   16.8650  -14.9480  -16.3547 C   0  0  0  0  0  0  0  0  0  0  0  0
   17.1235  -13.5437  -16.8729 C   0  0  1  0  0  0  0  0  0  0  0  0
   15.8563  -12.9556  -17.3975 C   0  0  0  0  0  0  0  0  0  0  0  0
   17.8109  -12.6953  -15.8287 C   0  0  2  0  0  0  0  0  0  0  0  0
   16.9963  -12.7625  -14.6452 N   0  0  0  0  0  0  0  0  0  0  0  0
   17.9616  -11.2914  -16.2465 C   0  0  0  0  0  0  0  0  0  0  0  0
   18.6274  -10.9772  -17.2767 O   0  0  0  0  0  0  0  0  0  0  0  0
   13.9958   -9.1338  -16.5184 N   0  0  0  0  0  0  0  0  0  0  0  0
   14.9908   -9.0473  -15.5143 C   0  0  0  0  0  0  0  0  0  0  0  0
   14.9000   -9.8178  -14.5251 O   0  0  0  0  0  0  0  0  0  0  0  0
   16.1274   -8.1017  -15.5680 C   0  0  0  0  0  0  0  0  0  0  0  0
   17.4319   -8.8702  -15.5987 C   0  0  2  0  0  0  0  0  0  0  0  0
   17.3560  -10.2786  -15.4914 N   0  0  0  0  0  0  0  0  0  0  0  0
   18.5351   -8.2203  -14.8813 C   0  0  0  0  0  0  0  0  0  0  0  0
   18.6188   -8.1717  -13.6267 O   0  0  0  0  0  0  0  0  0  0  0  0
   22.2257   -9.0818  -15.2524 C   0  0  0  0  0  0  0  0  0  0  0  0
   22.0099   -7.6173  -15.5818 C   0  0  1  0  0  0  0  0  0  0  0  0
   21.7516   -7.5556  -16.9528 O   0  0  0  0  0  0  0  0  0  0  0  0
   20.7785   -7.0680  -14.8902 C   0  0  2  0  0  0  0  0  0  0  0  0
   19.6116   -7.5875  -15.5979 N   0  0  0  0  0  0  0  0  0  0  0  0
   20.7781   -5.5775  -15.1157 C   0  0  0  0  0  0  0  0  0  0  0  0
   21.7161   -4.8235  -14.4295 O   0  0  0  0  0  0  0  0  0  0  0  0
   19.9554   -5.0235  -15.9004 O   0  0  0  0  0  0  0  0  0  0  0  0
  2  1  1  1
  2  3  1  0
  4  2  1  0
  4  5  1  1
  6  4  1  0
  6  7  2  0
  8  9  1  0
  9 11  1  0
 10  9  2  0
 12 11  1  1
 12 13  1  0
 13  6  1  0
 14 12  1  0
 15 14  2  0
 17 16  1  1
 17 18  1  0
 19 20  1  6
 19 17  1  0
 20 14  1  0
 21 19  1  0
 22 21  1  0
 23 21  2  0
M  END
$$$$
