VNT.pdb
     RDKit          3D

 23 22  0  0  1  0  0  0  0  0999 V2000
   18.1876  -10.7795  -19.3188 C   0  0  0  0  0  0  0  0  0  0  0  0
   18.1130  -12.1601  -18.6895 C   0  0  1  0  0  0  0  0  0  0  0  0
   18.2205  -13.2063  -19.7481 C   0  0  0  0  0  0  0  0  0  0  0  0
   19.1216  -12.3058  -17.5741 C   0  0  2  0  0  0  0  0  0  0  0  0
   18.9234  -13.6144  -17.0109 N   0  0  0  0  0  0  0  0  0  0  0  0
   18.9594  -11.2858  -16.5246 C   0  0  0  0  0  0  0  0  0  0  0  0
   17.9503  -11.2802  -15.7598 O   0  0  0  0  0  0  0  0  0  0  0  0
   19.9124   -7.0324  -13.7185 N   0  0  0  0  0  0  0  0  0  0  0  0
   20.9701   -7.9681  -13.6120 C   0  0  0  0  0  0  0  0  0  0  0  0
   21.7730   -7.8450  -12.6525 O   0  0  0  0  0  0  0  0  0  0  0  0
   21.1792   -9.0789  -14.5667 C   0  0  0  0  0  0  0  0  0  0  0  0
   19.9959   -9.1757  -15.5068 C   0  0  2  0  0  0  0  0  0  0  0  0
   19.9411  -10.2991  -16.3645 N   0  0  0  0  0  0  0  0  0  0  0  0
   19.5737   -7.8939  -16.0835 C   0  0  0  0  0  0  0  0  0  0  0  0
   20.0965   -7.3840  -17.1083 O   0  0  0  0  0  0  0  0  0  0  0  0
   15.8729   -4.5818  -16.3145 C   0  0  0  0  0  0  0  0  0  0  0  0
   16.6030   -5.6738  -15.5570 C   0  0  1  0  0  0  0  0  0  0  0  0
   15.8519   -6.8392  -15.7241 O   0  0  0  0  0  0  0  0  0  0  0  0
   17.9647   -5.9533  -16.1604 C   0  0  2  0  0  0  0  0  0  0  0  0
   18.5065   -7.1318  -15.4895 N   0  0  0  0  0  0  0  0  0  0  0  0
   18.8586   -4.8021  -15.7755 C   0  0  0  0  0  0  0  0  0  0  0  0
   18.8473   -3.6801  -16.5881 O   0  0  0  0  0  0  0  0  0  0  0  0
   19.5976   -4.8473  -14.7501 O   0  0  0  0  0  0  0  0  0  0  0  0
  2  1  1  6
  2  3  1  0
  4  2  1  0
  4  5  1  1
  6  4  1  0
  6  7  2  0
  8  9  1  0
  9 11  1  0
 10  9  2  0
 12 11  1  6
 12 13  1  0
 13  6  1  0
 14 12  1  0
 15 14  2  0
 17 16  1  6
 17 18  1  0
 19 20  1  1
 19 17  1  0
 20 14  1  0
 21 19  1  0
 22 21  1  0
 23 21  2  0
M  END
$$$$
