VNT.pdb
     RDKit          3D

 23 22  0  0  1  0  0  0  0  0999 V2000
   18.5285  -13.8578  -18.1396 C   0  0  0  0  0  0  0  0  0  0  0  0
   18.3684  -12.6001  -17.3029 C   0  0  1  0  0  0  0  0  0  0  0  0
   19.1451  -12.7318  -16.0356 C   0  0  0  0  0  0  0  0  0  0  0  0
   18.7038  -11.3650  -18.1058 C   0  0  2  0  0  0  0  0  0  0  0  0
   20.0309  -11.5613  -18.6244 N   0  0  0  0  0  0  0  0  0  0  0  0
   18.6653  -10.1344  -17.2980 C   0  0  0  0  0  0  0  0  0  0  0  0
   17.5705   -9.6478  -16.8881 O   0  0  0  0  0  0  0  0  0  0  0  0
   19.5947   -6.5039  -14.1777 N   0  0  0  0  0  0  0  0  0  0  0  0
   20.7189   -7.3587  -14.0719 C   0  0  0  0  0  0  0  0  0  0  0  0
   21.4516   -7.2476  -13.0565 O   0  0  0  0  0  0  0  0  0  0  0  0
   21.0749   -8.3720  -15.0894 C   0  0  0  0  0  0  0  0  0  0  0  0
   20.1066   -8.2934  -16.2511 C   0  0  2  0  0  0  0  0  0  0  0  0
   19.8636   -9.4855  -16.9728 N   0  0  0  0  0  0  0  0  0  0  0  0
   20.2081   -7.0616  -17.0424 C   0  0  0  0  0  0  0  0  0  0  0  0
   21.1834   -6.7909  -17.7900 O   0  0  0  0  0  0  0  0  0  0  0  0
   17.1636   -4.0149  -16.7449 C   0  0  0  0  0  0  0  0  0  0  0  0
   17.7515   -4.4533  -18.0722 C   0  0  1  0  0  0  0  0  0  0  0  0
   17.8027   -3.3128  -18.8765 O   0  0  0  0  0  0  0  0  0  0  0  0
   19.1815   -4.9301  -17.9160 C   0  0  2  0  0  0  0  0  0  0  0  0
   19.1647   -6.0703  -17.0039 N   0  0  0  0  0  0  0  0  0  0  0  0
   19.9331   -3.8338  -17.2049 C   0  0  0  0  0  0  0  0  0  0  0  0
   20.3269   -2.7356  -17.9521 O   0  0  0  0  0  0  0  0  0  0  0  0
   20.2011   -3.9029  -15.9709 O   0  0  0  0  0  0  0  0  0  0  0  0
  2  1  1  6
  2  3  1  0
  4  2  1  0
  4  5  1  1
  6  4  1  0
  6  7  2  0
  8  9  1  0
  9 11  1  0
 10  9  2  0
 12 11  1  6
 12 13  1  0
 13  6  1  0
 14 12  1  0
 15 14  2  0
 17 16  1  1
 17 18  1  0
 19 20  1  1
 19 17  1  0
 20 14  1  0
 21 19  1  0
 22 21  1  0
 23 21  2  0
M  END
$$$$
