YRE.pdb
     RDKit          3D

 33 33  0  0  1  0  0  0  0  0999 V2000
    8.3564  -12.0567   17.7366 O   0  0  0  0  0  0  0  0  0  0  0  0
    8.0320  -12.7196   18.9115 C   0  0  0  0  0  0  0  0  0  0  0  0
    9.0517  -12.9658   19.8112 C   0  0  0  0  0  0  0  0  0  0  0  0
    8.7648  -13.6134   20.9705 C   0  0  0  0  0  0  0  0  0  0  0  0
    7.4838  -14.0459   21.3024 C   0  0  0  0  0  0  0  0  0  0  0  0
    7.2514  -14.7349   22.5685 C   0  0  0  0  0  0  0  0  0  0  0  0
    8.2954  -15.8085   22.7665 C   0  0  2  0  0  0  0  0  0  0  0  0
    8.2071  -16.6900   21.6164 N   0  0  0  0  0  0  0  0  0  0  0  0
    8.0044  -16.6435   23.9611 C   0  0  0  0  0  0  0  0  0  0  0  0
    7.7939  -16.0285   25.0386 O   0  0  0  0  0  0  0  0  0  0  0  0
    6.4817  -13.7913   20.3933 C   0  0  0  0  0  0  0  0  0  0  0  0
    6.7443  -13.1275   19.1917 C   0  0  0  0  0  0  0  0  0  0  0  0
    6.6335  -21.7987   20.7151 N   0  0  0  0  0  0  0  0  0  0  0  0
    5.4029  -22.1146   21.3354 C   0  0  0  0  0  0  0  0  0  0  0  0
    4.3587  -22.3027   20.5870 N   0  0  0  0  0  0  0  0  0  0  0  0
    5.2387  -22.2331   22.7328 N   0  0  0  0  0  0  0  0  0  0  0  0
    6.3092  -21.9690   23.6314 C   0  0  0  0  0  0  0  0  0  0  0  0
    6.5369  -20.5294   23.9737 C   0  0  0  0  0  0  0  0  0  0  0  0
    7.6294  -20.2787   24.9577 C   0  0  0  0  0  0  0  0  0  0  0  0
    7.8204  -18.7785   25.2262 C   0  0  2  0  0  0  0  0  0  0  0  0
    7.9459  -18.0485   23.9830 N   0  0  0  0  0  0  0  0  0  0  0  0
    8.9574  -18.5473   26.1456 C   0  0  0  0  0  0  0  0  0  0  0  0
   10.1246  -18.5869   25.6572 O   0  0  0  0  0  0  0  0  0  0  0  0
    3.4015  -22.3933   20.9757 N   0  0  0  0  0  0  0  0  0  0  0  0
    8.8479  -18.2852   27.5307 C   0  0  1  0  0  0  0  0  0  0  0  0
    9.9983  -17.9379   28.3775 C   0  0  0  0  0  0  0  0  0  0  0  0
    9.7904  -16.5988   29.0387 C   0  0  0  0  0  0  0  0  0  0  0  0
   10.8460  -16.2129   30.0135 C   0  0  0  0  0  0  0  0  0  0  0  0
   10.6457  -14.9304   30.6886 O   0  0  0  0  0  0  0  0  0  0  0  0
    9.6930  -14.1596   30.4186 C   0  0  0  0  0  0  0  0  0  0  0  0
   10.1161  -19.0020   29.3999 O   0  0  0  0  0  0  0  0  0  0  0  0
    9.1430  -19.7362   29.6896 O   0  0  0  0  0  0  0  0  0  0  0  0
   11.5146  -14.4798   31.6884 O   0  0  0  0  0  0  0  0  0  0  0  0
  2  1  1  0
  3  2  2  0
  4  3  1  0
  5 11  1  0
  5  4  2  0
  6  5  1  0
  7  9  1  0
  7  6  1  0
  7  8  1  6
  9 10  2  0
  9 21  1  0
 11 12  2  0
 12  2  1  0
 13 14  1  0
 14 15  2  0
 14 16  1  0
 16 17  1  0
 17 18  1  0
 19 18  1  0
 20 19  1  6
 21 20  1  0
 22 24  1  0
 22 20  1  0
 23 22  2  0
 25 30  1  0
 25 24  1  0
 25 26  1  6
 26 27  1  0
 27 28  1  0
 28 32  1  0
 29 28  2  0
 30 33  1  0
 31 30  2  0
M  END
$$$$
