YRE.pdb
     RDKit          3D

 33 33  0  0  1  0  0  0  0  0999 V2000
   11.9210  -14.9957   29.7361 O   0  0  0  0  0  0  0  0  0  0  0  0
   10.7695  -15.0719   28.9659 C   0  0  0  0  0  0  0  0  0  0  0  0
   10.3304  -13.9137   28.3529 C   0  0  0  0  0  0  0  0  0  0  0  0
    9.2055  -13.9570   27.5924 C   0  0  0  0  0  0  0  0  0  0  0  0
    8.4649  -15.1195   27.3965 C   0  0  0  0  0  0  0  0  0  0  0  0
    7.2661  -15.0894   26.5638 C   0  0  0  0  0  0  0  0  0  0  0  0
    6.9671  -16.4766   26.0460 C   0  0  2  0  0  0  0  0  0  0  0  0
    7.4676  -17.4075   27.0412 N   0  0  0  0  0  0  0  0  0  0  0  0
    7.7066  -16.7648   24.7895 C   0  0  0  0  0  0  0  0  0  0  0  0
    8.6194  -17.6281   24.8603 O   0  0  0  0  0  0  0  0  0  0  0  0
    8.9184  -16.2627   28.0154 C   0  0  0  0  0  0  0  0  0  0  0  0
   10.0720  -16.2511   28.8044 C   0  0  0  0  0  0  0  0  0  0  0  0
    8.6119  -11.6779   19.2149 N   0  0  0  0  0  0  0  0  0  0  0  0
    8.5881  -12.8185   18.3797 C   0  0  0  0  0  0  0  0  0  0  0  0
    9.3886  -12.8589   17.3582 N   0  0  0  0  0  0  0  0  0  0  0  0
    7.7343  -13.9235   18.5886 N   0  0  0  0  0  0  0  0  0  0  0  0
    6.8975  -14.0091   19.7355 C   0  0  0  0  0  0  0  0  0  0  0  0
    7.5431  -14.5355   20.9796 C   0  0  0  0  0  0  0  0  0  0  0  0
    7.5753  -16.0221   21.0947 C   0  0  0  0  0  0  0  0  0  0  0  0
    8.2751  -16.4782   22.3838 C   0  0  2  0  0  0  0  0  0  0  0  0
    7.4705  -16.1575   23.5431 N   0  0  0  0  0  0  0  0  0  0  0  0
    9.6457  -15.9249   22.4646 C   0  0  0  0  0  0  0  0  0  0  0  0
    9.8244  -14.9032   23.1902 O   0  0  0  0  0  0  0  0  0  0  0  0
    9.4237  -13.6655   16.7073 N   0  0  0  0  0  0  0  0  0  0  0  0
   10.7774  -16.4446   21.7950 C   0  0  2  0  0  0  0  0  0  0  0  0
   12.1429  -15.9476   22.0175 C   0  0  0  0  0  0  0  0  0  0  0  0
   12.9940  -17.0012   22.6801 C   0  0  0  0  0  0  0  0  0  0  0  0
   13.4260  -16.6747   24.0658 C   0  0  0  0  0  0  0  0  0  0  0  0
   14.3045  -17.6563   24.7027 O   0  0  0  0  0  0  0  0  0  0  0  0
   14.6664  -18.7159   24.1362 C   0  0  0  0  0  0  0  0  0  0  0  0
   12.6963  -15.6022   20.6887 O   0  0  0  0  0  0  0  0  0  0  0  0
   12.0576  -15.8381   19.6368 O   0  0  0  0  0  0  0  0  0  0  0  0
   14.8007  -17.4709   25.9977 O   0  0  0  0  0  0  0  0  0  0  0  0
  2  1  1  0
  3  2  2  0
  4  3  1  0
  5 11  1  0
  5  4  2  0
  6  5  1  0
  7  9  1  0
  7  6  1  0
  7  8  1  1
  9 10  2  0
  9 21  1  0
 11 12  2  0
 12  2  1  0
 13 14  1  0
 14 15  2  0
 14 16  1  0
 16 17  1  0
 17 18  1  0
 19 18  1  0
 20 19  1  6
 21 20  1  0
 22 24  1  0
 22 20  1  0
 23 22  2  0
 25 30  1  0
 25 24  1  0
 25 26  1  6
 26 27  1  0
 27 28  1  0
 28 32  1  0
 29 28  2  0
 30 33  1  0
 31 30  2  0
M  END
$$$$
