YRE.pdb
     RDKit          3D

 33 33  0  0  1  0  0  0  0  0999 V2000
    5.0252  -10.3002   27.1900 O   0  0  0  0  0  0  0  0  0  0  0  0
    5.8220  -11.4049   26.9260 C   0  0  0  0  0  0  0  0  0  0  0  0
    5.9637  -11.7926   25.6071 C   0  0  0  0  0  0  0  0  0  0  0  0
    6.7377  -12.8709   25.3174 C   0  0  0  0  0  0  0  0  0  0  0  0
    7.4021  -13.6129   26.2901 C   0  0  0  0  0  0  0  0  0  0  0  0
    8.2180  -14.7598   25.9023 C   0  0  0  0  0  0  0  0  0  0  0  0
    7.3332  -15.8589   25.3630 C   0  0  2  0  0  0  0  0  0  0  0  0
    7.2786  -16.8872   26.3865 N   0  0  0  0  0  0  0  0  0  0  0  0
    7.9226  -16.4959   24.1565 C   0  0  0  0  0  0  0  0  0  0  0  0
    8.5951  -17.5425   24.3456 O   0  0  0  0  0  0  0  0  0  0  0  0
    7.2484  -13.2110   27.5979 C   0  0  0  0  0  0  0  0  0  0  0  0
    6.4590  -12.1060   27.9288 C   0  0  0  0  0  0  0  0  0  0  0  0
    8.1173  -14.1484   15.5072 N   0  0  0  0  0  0  0  0  0  0  0  0
    8.2593  -13.8188   16.8748 C   0  0  0  0  0  0  0  0  0  0  0  0
    8.5720  -12.5992   17.1919 N   0  0  0  0  0  0  0  0  0  0  0  0
    8.0855  -14.7460   17.9253 N   0  0  0  0  0  0  0  0  0  0  0  0
    8.8992  -15.9077   18.0327 C   0  0  0  0  0  0  0  0  0  0  0  0
    8.6615  -16.7648   19.2371 C   0  0  0  0  0  0  0  0  0  0  0  0
    8.0295  -16.0678   20.3943 C   0  0  0  0  0  0  0  0  0  0  0  0
    8.4607  -16.6830   21.7341 C   0  0  2  0  0  0  0  0  0  0  0  0
    7.7900  -16.0284   22.8366 N   0  0  0  0  0  0  0  0  0  0  0  0
    9.9347  -16.6719   21.8700 C   0  0  0  0  0  0  0  0  0  0  0  0
   10.5014  -15.5509   22.0260 O   0  0  0  0  0  0  0  0  0  0  0  0
    8.7793  -12.3107   18.1663 N   0  0  0  0  0  0  0  0  0  0  0  0
   10.7666  -17.8148   21.8393 C   0  0  1  0  0  0  0  0  0  0  0  0
   12.2309  -17.7477   21.9516 C   0  0  0  0  0  0  0  0  0  0  0  0
   12.7682  -18.9599   22.6695 C   0  0  0  0  0  0  0  0  0  0  0  0
   12.8217  -18.8357   24.1511 C   0  0  0  0  0  0  0  0  0  0  0  0
   12.3427  -19.9971   24.9012 O   0  0  0  0  0  0  0  0  0  0  0  0
   11.8643  -21.0163   24.3471 C   0  0  0  0  0  0  0  0  0  0  0  0
   12.7654  -17.6896   20.5724 O   0  0  0  0  0  0  0  0  0  0  0  0
   12.0237  -17.8715   19.5791 O   0  0  0  0  0  0  0  0  0  0  0  0
   12.3895  -20.0425   26.2988 O   0  0  0  0  0  0  0  0  0  0  0  0
  2  1  1  0
  3  2  2  0
  4  3  1  0
  5 11  1  0
  5  4  2  0
  6  5  1  0
  7  9  1  0
  7  6  1  0
  7  8  1  1
  9 10  2  0
  9 21  1  0
 11 12  2  0
 12  2  1  0
 13 14  1  0
 14 15  2  0
 14 16  1  0
 16 17  1  0
 17 18  1  0
 19 18  1  0
 20 19  1  6
 21 20  1  0
 22 24  1  0
 22 20  1  0
 23 22  2  0
 25 30  1  0
 25 24  1  0
 25 26  1  1
 26 27  1  0
 27 28  1  0
 28 32  1  0
 29 28  2  0
 30 33  1  0
 31 30  2  0
M  END
$$$$
