YRE.pdb
     RDKit          3D

 33 33  0  0  1  0  0  0  0  0999 V2000
    4.6896  -10.2487   27.7346 O   0  0  0  0  0  0  0  0  0  0  0  0
    5.4951  -11.2157   27.1506 C   0  0  0  0  0  0  0  0  0  0  0  0
    5.7370  -12.3695   27.8717 C   0  0  0  0  0  0  0  0  0  0  0  0
    6.5223  -13.3345   27.3260 C   0  0  0  0  0  0  0  0  0  0  0  0
    7.1017  -13.2201   26.0653 C   0  0  0  0  0  0  0  0  0  0  0  0
    7.9338  -14.3004   25.5438 C   0  0  0  0  0  0  0  0  0  0  0  0
    7.0820  -15.2695   24.7583 C   0  0  2  0  0  0  0  0  0  0  0  0
    6.3924  -16.0980   25.7308 N   0  0  0  0  0  0  0  0  0  0  0  0
    7.9118  -16.1875   23.9352 C   0  0  0  0  0  0  0  0  0  0  0  0
    8.3798  -17.1985   24.5204 O   0  0  0  0  0  0  0  0  0  0  0  0
    6.8490  -12.0633   25.3627 C   0  0  0  0  0  0  0  0  0  0  0  0
    6.0455  -11.0518   25.8962 C   0  0  0  0  0  0  0  0  0  0  0  0
    7.4655  -13.5862   16.8877 N   0  0  0  0  0  0  0  0  0  0  0  0
    8.7379  -13.9031   17.4165 C   0  0  0  0  0  0  0  0  0  0  0  0
    9.6340  -12.9662   17.4862 N   0  0  0  0  0  0  0  0  0  0  0  0
    9.0974  -15.1903   17.8721 N   0  0  0  0  0  0  0  0  0  0  0  0
    8.1179  -16.1219   18.3146 C   0  0  0  0  0  0  0  0  0  0  0  0
    8.0905  -16.3939   19.7866 C   0  0  0  0  0  0  0  0  0  0  0  0
    9.4198  -16.3547   20.4617 C   0  0  0  0  0  0  0  0  0  0  0  0
    9.3137  -16.7210   21.9496 C   0  0  2  0  0  0  0  0  0  0  0  0
    8.2117  -16.0189   22.5715 N   0  0  0  0  0  0  0  0  0  0  0  0
   10.6026  -16.4958   22.6420 C   0  0  0  0  0  0  0  0  0  0  0  0
   10.9036  -15.3054   22.9494 O   0  0  0  0  0  0  0  0  0  0  0  0
   10.6110  -13.1481   17.7828 N   0  0  0  0  0  0  0  0  0  0  0  0
   11.5304  -17.5045   22.9896 C   0  0  2  0  0  0  0  0  0  0  0  0
   12.8111  -17.2253   23.6552 C   0  0  0  0  0  0  0  0  0  0  0  0
   13.0692  -18.2214   24.7573 C   0  0  0  0  0  0  0  0  0  0  0  0
   11.9699  -18.3520   25.7513 C   0  0  0  0  0  0  0  0  0  0  0  0
   12.2029  -19.3127   26.8300 O   0  0  0  0  0  0  0  0  0  0  0  0
   13.1934  -20.0827   26.8547 C   0  0  0  0  0  0  0  0  0  0  0  0
   13.8639  -17.3224   22.6191 O   0  0  0  0  0  0  0  0  0  0  0  0
   13.6048  -17.7362   21.4652 O   0  0  0  0  0  0  0  0  0  0  0  0
   11.3250  -19.4327   27.9128 O   0  0  0  0  0  0  0  0  0  0  0  0
  2  1  1  0
  3  2  2  0
  4  3  1  0
  5 11  1  0
  5  4  2  0
  6  5  1  0
  7  9  1  0
  7  6  1  0
  7  8  1  1
  9 10  2  0
  9 21  1  0
 11 12  2  0
 12  2  1  0
 13 14  1  0
 14 15  2  0
 14 16  1  0
 16 17  1  0
 17 18  1  0
 19 18  1  0
 20 19  1  6
 21 20  1  0
 22 24  1  0
 22 20  1  0
 23 22  2  0
 25 30  1  0
 25 24  1  0
 25 26  1  6
 26 27  1  0
 27 28  1  0
 28 32  1  0
 29 28  2  0
 30 33  1  0
 31 30  2  0
M  END
$$$$
