YRE.pdb
     RDKit          3D

 33 33  0  0  1  0  0  0  0  0999 V2000
   10.6710  -14.8230   31.8155 O   0  0  0  0  0  0  0  0  0  0  0  0
   10.6930  -15.0646   30.4495 C   0  0  0  0  0  0  0  0  0  0  0  0
   11.3135  -16.2195   30.0126 C   0  0  0  0  0  0  0  0  0  0  0  0
   11.3512  -16.4832   28.6804 C   0  0  0  0  0  0  0  0  0  0  0  0
   10.7912  -15.6418   27.7230 C   0  0  0  0  0  0  0  0  0  0  0  0
   10.8697  -15.9922   26.3079 C   0  0  0  0  0  0  0  0  0  0  0  0
    9.5774  -16.6389   25.8679 C   0  0  2  0  0  0  0  0  0  0  0  0
    9.5502  -17.9609   26.4673 N   0  0  0  0  0  0  0  0  0  0  0  0
    9.5386  -16.8424   24.3962 C   0  0  0  0  0  0  0  0  0  0  0  0
   10.2834  -17.7453   23.9341 O   0  0  0  0  0  0  0  0  0  0  0  0
   10.1776  -14.4963   28.1780 C   0  0  0  0  0  0  0  0  0  0  0  0
   10.1221  -14.1963   29.5420 C   0  0  0  0  0  0  0  0  0  0  0  0
    9.5120  -13.4482   17.3663 N   0  0  0  0  0  0  0  0  0  0  0  0
    8.6428  -12.5910   18.0795 C   0  0  0  0  0  0  0  0  0  0  0  0
    8.8257  -11.3084   17.9950 N   0  0  0  0  0  0  0  0  0  0  0  0
    7.5818  -13.0507   18.8899 N   0  0  0  0  0  0  0  0  0  0  0  0
    7.3064  -14.4384   19.0362 C   0  0  0  0  0  0  0  0  0  0  0  0
    8.2901  -15.2191   19.8513 C   0  0  0  0  0  0  0  0  0  0  0  0
    8.0519  -15.1947   21.3234 C   0  0  0  0  0  0  0  0  0  0  0  0
    9.0573  -16.0777   22.0775 C   0  0  2  0  0  0  0  0  0  0  0  0
    8.7455  -16.1157   23.4901 N   0  0  0  0  0  0  0  0  0  0  0  0
   10.4469  -15.6447   21.8072 C   0  0  0  0  0  0  0  0  0  0  0  0
   10.8980  -14.6687   22.4752 O   0  0  0  0  0  0  0  0  0  0  0  0
    8.2435  -10.6254   18.5147 N   0  0  0  0  0  0  0  0  0  0  0  0
   11.3163  -16.2328   20.8599 C   0  0  2  0  0  0  0  0  0  0  0  0
   12.7094  -15.8033   20.6704 C   0  0  0  0  0  0  0  0  0  0  0  0
   13.6338  -16.9935   20.6209 C   0  0  0  0  0  0  0  0  0  0  0  0
   13.7626  -17.7381   21.9024 C   0  0  0  0  0  0  0  0  0  0  0  0
   14.6179  -18.9246   21.8617 O   0  0  0  0  0  0  0  0  0  0  0  0
   14.9480  -19.4904   20.7914 C   0  0  0  0  0  0  0  0  0  0  0  0
   12.7599  -15.0609   19.3907 O   0  0  0  0  0  0  0  0  0  0  0  0
   11.7885  -15.0620   18.5993 O   0  0  0  0  0  0  0  0  0  0  0  0
   15.1259  -19.5075   23.0277 O   0  0  0  0  0  0  0  0  0  0  0  0
  2  1  1  0
  3  2  2  0
  4  3  1  0
  5 11  1  0
  5  4  2  0
  6  5  1  0
  7  9  1  0
  7  6  1  0
  7  8  1  1
  9 10  2  0
  9 21  1  0
 11 12  2  0
 12  2  1  0
 13 14  1  0
 14 15  2  0
 14 16  1  0
 16 17  1  0
 17 18  1  0
 19 18  1  0
 20 19  1  6
 21 20  1  0
 22 24  1  0
 22 20  1  0
 23 22  2  0
 25 30  1  0
 25 24  1  0
 25 26  1  6
 26 27  1  0
 27 28  1  0
 28 32  1  0
 29 28  2  0
 30 33  1  0
 31 30  2  0
M  END
$$$$
