YRE.pdb
     RDKit          3D

 33 33  0  0  1  0  0  0  0  0999 V2000
    4.7518  -10.3103   27.6506 O   0  0  0  0  0  0  0  0  0  0  0  0
    5.5995  -11.2703   27.1171 C   0  0  0  0  0  0  0  0  0  0  0  0
    5.1189  -12.0435   26.0774 C   0  0  0  0  0  0  0  0  0  0  0  0
    5.9259  -12.9921   25.5346 C   0  0  0  0  0  0  0  0  0  0  0  0
    7.2251  -13.2277   25.9758 C   0  0  0  0  0  0  0  0  0  0  0  0
    8.0342  -14.2646   25.3421 C   0  0  0  0  0  0  0  0  0  0  0  0
    7.1644  -15.4475   24.9869 C   0  0  2  0  0  0  0  0  0  0  0  0
    6.7886  -16.0770   26.2400 N   0  0  0  0  0  0  0  0  0  0  0  0
    7.9159  -16.4683   24.2110 C   0  0  0  0  0  0  0  0  0  0  0  0
    8.3592  -17.4519   24.8586 O   0  0  0  0  0  0  0  0  0  0  0  0
    7.6856  -12.4473   27.0124 C   0  0  0  0  0  0  0  0  0  0  0  0
    6.8802  -11.4632   27.5924 C   0  0  0  0  0  0  0  0  0  0  0  0
    8.1726  -13.3213   16.1739 N   0  0  0  0  0  0  0  0  0  0  0  0
    8.3416  -13.4372   17.5729 C   0  0  0  0  0  0  0  0  0  0  0  0
    8.7841  -12.4108   18.2336 N   0  0  0  0  0  0  0  0  0  0  0  0
    8.0611  -14.6145   18.3001 N   0  0  0  0  0  0  0  0  0  0  0  0
    9.1016  -15.4634   18.7691 C   0  0  0  0  0  0  0  0  0  0  0  0
    9.1672  -15.6613   20.2517 C   0  0  0  0  0  0  0  0  0  0  0  0
    9.1949  -17.0838   20.6991 C   0  0  0  0  0  0  0  0  0  0  0  0
    9.2336  -17.1984   22.2303 C   0  0  2  0  0  0  0  0  0  0  0  0
    8.1677  -16.4234   22.8280 N   0  0  0  0  0  0  0  0  0  0  0  0
   10.5703  -16.8361   22.7532 C   0  0  0  0  0  0  0  0  0  0  0  0
   10.6193  -16.0607   23.7525 O   0  0  0  0  0  0  0  0  0  0  0  0
    9.0434  -12.4611   19.2364 N   0  0  0  0  0  0  0  0  0  0  0  0
   11.8030  -17.2856   22.2263 C   0  0  1  0  0  0  0  0  0  0  0  0
   13.0495  -17.3121   23.0053 C   0  0  0  0  0  0  0  0  0  0  0  0
   13.0350  -18.4463   23.9988 C   0  0  0  0  0  0  0  0  0  0  0  0
   12.7282  -18.0465   25.3986 C   0  0  0  0  0  0  0  0  0  0  0  0
   12.7545  -19.1266   26.3854 O   0  0  0  0  0  0  0  0  0  0  0  0
   12.5791  -18.9329   27.6127 C   0  0  0  0  0  0  0  0  0  0  0  0
   14.1564  -17.4909   22.0388 O   0  0  0  0  0  0  0  0  0  0  0  0
   13.9534  -17.9681   20.8982 O   0  0  0  0  0  0  0  0  0  0  0  0
   12.9796  -20.4572   26.0160 O   0  0  0  0  0  0  0  0  0  0  0  0
  2  1  1  0
  3  2  2  0
  4  3  1  0
  5 11  1  0
  5  4  2  0
  6  5  1  0
  7  9  1  0
  7  6  1  0
  7  8  1  1
  9 10  2  0
  9 21  1  0
 11 12  2  0
 12  2  1  0
 13 14  1  0
 14 15  2  0
 14 16  1  0
 16 17  1  0
 17 18  1  0
 19 18  1  0
 20 19  1  6
 21 20  1  0
 22 24  1  0
 22 20  1  0
 23 22  2  0
 25 30  1  0
 25 24  1  0
 25 26  1  1
 26 27  1  0
 27 28  1  0
 28 32  1  0
 29 28  2  0
 30 33  1  0
 31 30  2  0
M  END
$$$$
