YRE.pdb
     RDKit          3D

 33 33  0  0  1  0  0  0  0  0999 V2000
   10.7496  -14.9009   31.1746 O   0  0  0  0  0  0  0  0  0  0  0  0
   10.1555  -14.8841   29.9209 C   0  0  0  0  0  0  0  0  0  0  0  0
    9.8415  -16.1000   29.3439 C   0  0  0  0  0  0  0  0  0  0  0  0
    9.2592  -16.1155   28.1165 C   0  0  0  0  0  0  0  0  0  0  0  0
    8.9592  -14.9583   27.4030 C   0  0  0  0  0  0  0  0  0  0  0  0
    8.3313  -15.0537   26.0884 C   0  0  0  0  0  0  0  0  0  0  0  0
    8.9240  -16.2117   25.3206 C   0  0  2  0  0  0  0  0  0  0  0  0
   10.3382  -15.9242   25.1628 N   0  0  0  0  0  0  0  0  0  0  0  0
    8.3579  -16.3086   23.9498 C   0  0  0  0  0  0  0  0  0  0  0  0
    7.1736  -16.7241   23.8592 O   0  0  0  0  0  0  0  0  0  0  0  0
    9.2796  -13.7571   27.9946 C   0  0  0  0  0  0  0  0  0  0  0  0
    9.8794  -13.7073   29.2560 C   0  0  0  0  0  0  0  0  0  0  0  0
    8.4339  -11.0864   18.9253 N   0  0  0  0  0  0  0  0  0  0  0  0
    8.2701  -12.3362   18.2849 C   0  0  0  0  0  0  0  0  0  0  0  0
    8.8020  -12.5098   17.1133 N   0  0  0  0  0  0  0  0  0  0  0  0
    7.5516  -13.4146   18.8457 N   0  0  0  0  0  0  0  0  0  0  0  0
    7.1319  -13.4007   20.2047 C   0  0  0  0  0  0  0  0  0  0  0  0
    7.8159  -14.3760   21.1115 C   0  0  0  0  0  0  0  0  0  0  0  0
    8.0343  -15.7326   20.5315 C   0  0  0  0  0  0  0  0  0  0  0  0
    8.7522  -16.6650   21.5187 C   0  0  2  0  0  0  0  0  0  0  0  0
    9.0317  -15.9769   22.7606 N   0  0  0  0  0  0  0  0  0  0  0  0
    9.9627  -17.2543   20.9033 C   0  0  0  0  0  0  0  0  0  0  0  0
    9.8079  -17.9647   19.8672 O   0  0  0  0  0  0  0  0  0  0  0  0
    8.6799  -13.3834   16.5678 N   0  0  0  0  0  0  0  0  0  0  0  0
   11.2839  -17.0896   21.3791 C   0  0  1  0  0  0  0  0  0  0  0  0
   12.4296  -17.8443   20.8509 C   0  0  0  0  0  0  0  0  0  0  0  0
   13.3745  -16.9325   20.1098 C   0  0  0  0  0  0  0  0  0  0  0  0
   12.8762  -15.5448   19.9109 C   0  0  0  0  0  0  0  0  0  0  0  0
   13.7786  -14.6455   19.1913 O   0  0  0  0  0  0  0  0  0  0  0  0
   14.9871  -14.9136   18.9859 C   0  0  0  0  0  0  0  0  0  0  0  0
   13.1131  -18.4566   22.0125 O   0  0  0  0  0  0  0  0  0  0  0  0
   14.1142  -19.1952   21.8631 O   0  0  0  0  0  0  0  0  0  0  0  0
   13.3436  -13.4169   18.6823 O   0  0  0  0  0  0  0  0  0  0  0  0
  2  1  1  0
  3  2  2  0
  4  3  1  0
  5 11  1  0
  5  4  2  0
  6  5  1  0
  7  9  1  0
  7  6  1  0
  7  8  1  6
  9 10  2  0
  9 21  1  0
 11 12  2  0
 12  2  1  0
 13 14  1  0
 14 15  2  0
 14 16  1  0
 16 17  1  0
 17 18  1  0
 19 18  1  0
 20 19  1  6
 21 20  1  0
 22 24  1  0
 22 20  1  0
 23 22  2  0
 25 30  1  0
 25 24  1  0
 25 26  1  6
 26 27  1  0
 27 28  1  0
 28 32  1  0
 29 28  2  0
 30 33  1  0
 31 30  2  0
M  END
$$$$
