YRE.pdb
     RDKit          3D

 33 33  0  0  1  0  0  0  0  0999 V2000
    4.6779  -10.8207   28.0474 O   0  0  0  0  0  0  0  0  0  0  0  0
    5.5176  -11.6296   27.2954 C   0  0  0  0  0  0  0  0  0  0  0  0
    6.2982  -12.5477   27.9717 C   0  0  0  0  0  0  0  0  0  0  0  0
    7.1307  -13.3536   27.2623 C   0  0  0  0  0  0  0  0  0  0  0  0
    7.2389  -13.3019   25.8753 C   0  0  0  0  0  0  0  0  0  0  0  0
    8.1554  -14.2015   25.1808 C   0  0  0  0  0  0  0  0  0  0  0  0
    7.3911  -15.0440   24.1869 C   0  0  2  0  0  0  0  0  0  0  0  0
    6.7336  -16.0903   24.9490 N   0  0  0  0  0  0  0  0  0  0  0  0
    8.3017  -15.7272   23.2314 C   0  0  0  0  0  0  0  0  0  0  0  0
    8.4910  -16.9573   23.4176 O   0  0  0  0  0  0  0  0  0  0  0  0
    6.4533  -12.3807   25.2197 C   0  0  0  0  0  0  0  0  0  0  0  0
    5.5868  -11.5372   25.9207 C   0  0  0  0  0  0  0  0  0  0  0  0
    8.7280  -14.4097   15.5664 N   0  0  0  0  0  0  0  0  0  0  0  0
    7.6784  -14.1406   16.4747 C   0  0  0  0  0  0  0  0  0  0  0  0
    6.8624  -13.1655   16.2119 N   0  0  0  0  0  0  0  0  0  0  0  0
    7.4660  -14.8717   17.6638 N   0  0  0  0  0  0  0  0  0  0  0  0
    8.5525  -15.3947   18.4182 C   0  0  0  0  0  0  0  0  0  0  0  0
    9.1863  -14.4523   19.3937 C   0  0  0  0  0  0  0  0  0  0  0  0
   10.3578  -15.0029   20.1347 C   0  0  0  0  0  0  0  0  0  0  0  0
    9.9225  -15.8404   21.3465 C   0  0  2  0  0  0  0  0  0  0  0  0
    8.9602  -15.1165   22.1491 N   0  0  0  0  0  0  0  0  0  0  0  0
   11.0973  -16.2916   22.1259 C   0  0  0  0  0  0  0  0  0  0  0  0
   11.6060  -15.4738   22.9473 O   0  0  0  0  0  0  0  0  0  0  0  0
    6.0836  -12.9026   16.8442 N   0  0  0  0  0  0  0  0  0  0  0  0
   11.7021  -17.5659   22.0284 C   0  0  1  0  0  0  0  0  0  0  0  0
   12.8871  -17.9561   22.8059 C   0  0  0  0  0  0  0  0  0  0  0  0
   12.7717  -19.3841   23.2760 C   0  0  0  0  0  0  0  0  0  0  0  0
   11.5541  -19.6814   24.0776 C   0  0  0  0  0  0  0  0  0  0  0  0
   11.4534  -21.0471   24.5928 O   0  0  0  0  0  0  0  0  0  0  0  0
   11.6850  -21.3427   25.7902 C   0  0  0  0  0  0  0  0  0  0  0  0
   14.0570  -17.8034   21.9119 O   0  0  0  0  0  0  0  0  0  0  0  0
   15.2267  -17.9208   22.3454 O   0  0  0  0  0  0  0  0  0  0  0  0
   11.0885  -22.1197   23.7718 O   0  0  0  0  0  0  0  0  0  0  0  0
  2  1  1  0
  3  2  2  0
  4  3  1  0
  5 11  1  0
  5  4  2  0
  6  5  1  0
  7  9  1  0
  7  6  1  0
  7  8  1  1
  9 10  2  0
  9 21  1  0
 11 12  2  0
 12  2  1  0
 13 14  1  0
 14 15  2  0
 14 16  1  0
 16 17  1  0
 17 18  1  0
 19 18  1  0
 20 19  1  6
 21 20  1  0
 22 24  1  0
 22 20  1  0
 23 22  2  0
 25 30  1  0
 25 24  1  0
 25 26  1  1
 26 27  1  0
 27 28  1  0
 28 32  1  0
 29 28  2  0
 30 33  1  0
 31 30  2  0
M  END
$$$$
