YRE.pdb
     RDKit          3D

 33 33  0  0  1  0  0  0  0  0999 V2000
    6.5438  -10.3404   26.6923 O   0  0  0  0  0  0  0  0  0  0  0  0
    6.4844  -11.7186   26.5435 C   0  0  0  0  0  0  0  0  0  0  0  0
    5.7647  -12.2176   25.4744 C   0  0  0  0  0  0  0  0  0  0  0  0
    5.6883  -13.5631   25.3027 C   0  0  0  0  0  0  0  0  0  0  0  0
    6.3039  -14.4743   26.1564 C   0  0  0  0  0  0  0  0  0  0  0  0
    6.1785  -15.9074   25.9072 C   0  0  0  0  0  0  0  0  0  0  0  0
    7.4110  -16.4132   25.1953 C   0  0  2  0  0  0  0  0  0  0  0  0
    8.5418  -15.7091   25.7726 N   0  0  0  0  0  0  0  0  0  0  0  0
    7.3915  -16.0662   23.7502 C   0  0  0  0  0  0  0  0  0  0  0  0
    6.6375  -16.7569   23.0169 O   0  0  0  0  0  0  0  0  0  0  0  0
    7.0161  -13.9577   27.2155 C   0  0  0  0  0  0  0  0  0  0  0  0
    7.1136  -12.5785   27.4197 C   0  0  0  0  0  0  0  0  0  0  0  0
    6.6369  -13.1300   16.0398 N   0  0  0  0  0  0  0  0  0  0  0  0
    7.5751  -14.1826   16.1433 C   0  0  0  0  0  0  0  0  0  0  0  0
    7.6615  -15.0376   15.1699 N   0  0  0  0  0  0  0  0  0  0  0  0
    8.4274  -14.3647   17.2542 N   0  0  0  0  0  0  0  0  0  0  0  0
    8.1876  -13.7034   18.4905 C   0  0  0  0  0  0  0  0  0  0  0  0
    9.0957  -14.0777   19.6204 C   0  0  0  0  0  0  0  0  0  0  0  0
    8.5017  -13.9389   20.9815 C   0  0  0  0  0  0  0  0  0  0  0  0
    8.7141  -15.2037   21.8269 C   0  0  2  0  0  0  0  0  0  0  0  0
    8.1389  -15.0402   23.1446 N   0  0  0  0  0  0  0  0  0  0  0  0
   10.1459  -15.5774   21.8673 C   0  0  0  0  0  0  0  0  0  0  0  0
   10.7404  -15.7441   20.7623 O   0  0  0  0  0  0  0  0  0  0  0  0
    8.3744  -15.7905   15.1489 N   0  0  0  0  0  0  0  0  0  0  0  0
   10.9084  -15.7653   23.0431 C   0  0  2  0  0  0  0  0  0  0  0  0
   12.2958  -16.2512   23.0337 C   0  0  0  0  0  0  0  0  0  0  0  0
   12.5786  -17.0852   24.2576 C   0  0  0  0  0  0  0  0  0  0  0  0
   13.9425  -17.6772   24.3086 C   0  0  0  0  0  0  0  0  0  0  0  0
   14.2426  -18.4735   25.4989 O   0  0  0  0  0  0  0  0  0  0  0  0
   13.3561  -19.0499   26.1746 C   0  0  0  0  0  0  0  0  0  0  0  0
   12.4571  -17.0668   21.8088 O   0  0  0  0  0  0  0  0  0  0  0  0
   11.6168  -17.9414   21.4944 O   0  0  0  0  0  0  0  0  0  0  0  0
   15.5521  -18.6428   25.9617 O   0  0  0  0  0  0  0  0  0  0  0  0
  2  1  1  0
  3  2  2  0
  4  3  1  0
  5 11  1  0
  5  4  2  0
  6  5  1  0
  7  9  1  0
  7  6  1  0
  7  8  1  1
  9 10  2  0
  9 21  1  0
 11 12  2  0
 12  2  1  0
 13 14  1  0
 14 15  2  0
 14 16  1  0
 16 17  1  0
 17 18  1  0
 19 18  1  0
 20 19  1  6
 21 20  1  0
 22 24  1  0
 22 20  1  0
 23 22  2  0
 25 30  1  0
 25 24  1  0
 25 26  1  1
 26 27  1  0
 27 28  1  0
 28 32  1  0
 29 28  2  0
 30 33  1  0
 31 30  2  0
M  END
$$$$
