YRE.pdb
     RDKit          3D

 33 33  0  0  1  0  0  0  0  0999 V2000
    5.3479  -10.4974   27.7604 O   0  0  0  0  0  0  0  0  0  0  0  0
    6.0951  -11.4870   27.1379 C   0  0  0  0  0  0  0  0  0  0  0  0
    6.1354  -12.7320   27.7365 C   0  0  0  0  0  0  0  0  0  0  0  0
    6.8591  -13.7212   27.1504 C   0  0  0  0  0  0  0  0  0  0  0  0
    7.5690  -13.5439   25.9661 C   0  0  0  0  0  0  0  0  0  0  0  0
    8.3238  -14.6552   25.3944 C   0  0  0  0  0  0  0  0  0  0  0  0
    7.5592  -15.2515   24.2361 C   0  0  2  0  0  0  0  0  0  0  0  0
    6.5432  -16.1150   24.8104 N   0  0  0  0  0  0  0  0  0  0  0  0
    8.4246  -16.1197   23.3958 C   0  0  0  0  0  0  0  0  0  0  0  0
    8.4755  -17.3366   23.7121 O   0  0  0  0  0  0  0  0  0  0  0  0
    7.5165  -12.2967   25.3852 C   0  0  0  0  0  0  0  0  0  0  0  0
    6.7812  -11.2581   25.9632 C   0  0  0  0  0  0  0  0  0  0  0  0
    6.9678  -13.9304   19.2471 N   0  0  0  0  0  0  0  0  0  0  0  0
    7.8054  -14.0158   18.1113 C   0  0  0  0  0  0  0  0  0  0  0  0
    7.9864  -12.9516   17.3898 N   0  0  0  0  0  0  0  0  0  0  0  0
    8.4580  -15.2011   17.7076 N   0  0  0  0  0  0  0  0  0  0  0  0
    9.3384  -15.8983   18.5805 C   0  0  0  0  0  0  0  0  0  0  0  0
    9.8871  -15.1067   19.7267 C   0  0  0  0  0  0  0  0  0  0  0  0
   10.9101  -15.8131   20.5507 C   0  0  0  0  0  0  0  0  0  0  0  0
   10.2846  -16.4835   21.7830 C   0  0  2  0  0  0  0  0  0  0  0  0
    9.1814  -15.6953   22.2889 N   0  0  0  0  0  0  0  0  0  0  0  0
   11.3121  -16.7605   22.8120 C   0  0  0  0  0  0  0  0  0  0  0  0
   12.0434  -15.7973   23.1855 O   0  0  0  0  0  0  0  0  0  0  0  0
    8.5868  -12.9451   16.5442 N   0  0  0  0  0  0  0  0  0  0  0  0
   11.5464  -18.0179   23.4148 C   0  0  1  0  0  0  0  0  0  0  0  0
   12.5691  -18.2372   24.4479 C   0  0  0  0  0  0  0  0  0  0  0  0
   12.1174  -19.2852   25.4333 C   0  0  0  0  0  0  0  0  0  0  0  0
   12.7201  -19.1693   26.7886 C   0  0  0  0  0  0  0  0  0  0  0  0
   12.3523  -20.2212   27.7368 O   0  0  0  0  0  0  0  0  0  0  0  0
   12.8065  -20.2746   28.9054 C   0  0  0  0  0  0  0  0  0  0  0  0
   13.7958  -18.6839   23.7501 O   0  0  0  0  0  0  0  0  0  0  0  0
   14.9304  -18.5073   24.2516 O   0  0  0  0  0  0  0  0  0  0  0  0
   11.4610  -21.2439   27.3942 O   0  0  0  0  0  0  0  0  0  0  0  0
  2  1  1  0
  3  2  2  0
  4  3  1  0
  5 11  1  0
  5  4  2  0
  6  5  1  0
  7  9  1  0
  7  6  1  0
  7  8  1  1
  9 10  2  0
  9 21  1  0
 11 12  2  0
 12  2  1  0
 13 14  1  0
 14 15  2  0
 14 16  1  0
 16 17  1  0
 17 18  1  0
 19 18  1  0
 20 19  1  6
 21 20  1  0
 22 24  1  0
 22 20  1  0
 23 22  2  0
 25 30  1  0
 25 24  1  0
 25 26  1  1
 26 27  1  0
 27 28  1  0
 28 32  1  0
 29 28  2  0
 30 33  1  0
 31 30  2  0
M  END
$$$$
