YRE.pdb
     RDKit          3D

 33 33  0  0  1  0  0  0  0  0999 V2000
    5.2487  -10.5209   27.5957 O   0  0  0  0  0  0  0  0  0  0  0  0
    6.0582  -11.6146   27.3248 C   0  0  0  0  0  0  0  0  0  0  0  0
    5.7074  -12.4242   26.2611 C   0  0  0  0  0  0  0  0  0  0  0  0
    6.4808  -13.5030   25.9717 C   0  0  0  0  0  0  0  0  0  0  0  0
    7.6200  -13.8383   26.6983 C   0  0  0  0  0  0  0  0  0  0  0  0
    8.4029  -15.0133   26.3267 C   0  0  0  0  0  0  0  0  0  0  0  0
    7.4792  -16.1697   26.0248 C   0  0  2  0  0  0  0  0  0  0  0  0
    7.6585  -17.1342   27.0949 N   0  0  0  0  0  0  0  0  0  0  0  0
    7.8592  -16.8616   24.7655 C   0  0  0  0  0  0  0  0  0  0  0  0
    8.7582  -17.7376   24.8553 O   0  0  0  0  0  0  0  0  0  0  0  0
    7.9528  -13.0197   27.7541 C   0  0  0  0  0  0  0  0  0  0  0  0
    7.1778  -11.9025   28.0777 C   0  0  0  0  0  0  0  0  0  0  0  0
    7.8165  -12.3132   17.6586 N   0  0  0  0  0  0  0  0  0  0  0  0
    8.3622  -13.6173   17.6375 C   0  0  0  0  0  0  0  0  0  0  0  0
    8.1181  -14.3779   16.6139 N   0  0  0  0  0  0  0  0  0  0  0  0
    9.1592  -14.1489   18.6748 N   0  0  0  0  0  0  0  0  0  0  0  0
    8.7806  -15.3298   19.3715 C   0  0  0  0  0  0  0  0  0  0  0  0
    7.7678  -15.1519   20.4597 C   0  0  0  0  0  0  0  0  0  0  0  0
    7.2474  -16.4179   21.0521 C   0  0  0  0  0  0  0  0  0  0  0  0
    8.0579  -16.8448   22.2850 C   0  0  2  0  0  0  0  0  0  0  0  0
    7.3011  -16.6189   23.4976 N   0  0  0  0  0  0  0  0  0  0  0  0
    9.3816  -16.1823   22.3019 C   0  0  0  0  0  0  0  0  0  0  0  0
    9.4439  -15.0072   22.7682 O   0  0  0  0  0  0  0  0  0  0  0  0
    8.4339  -15.3644   16.5626 N   0  0  0  0  0  0  0  0  0  0  0  0
   10.5880  -16.7552   21.8377 C   0  0  2  0  0  0  0  0  0  0  0  0
   11.8778  -16.0504   21.8681 C   0  0  0  0  0  0  0  0  0  0  0  0
   12.6535  -16.4083   23.1105 C   0  0  0  0  0  0  0  0  0  0  0  0
   13.5571  -17.5815   22.9663 C   0  0  0  0  0  0  0  0  0  0  0  0
   14.5004  -17.7924   24.0648 O   0  0  0  0  0  0  0  0  0  0  0  0
   14.6314  -16.9837   25.0154 C   0  0  0  0  0  0  0  0  0  0  0  0
   12.6239  -16.4676   20.6595 O   0  0  0  0  0  0  0  0  0  0  0  0
   13.6501  -15.8542   20.2846 O   0  0  0  0  0  0  0  0  0  0  0  0
   15.3236  -18.9222   24.1229 O   0  0  0  0  0  0  0  0  0  0  0  0
  2  1  1  0
  3  2  2  0
  4  3  1  0
  5 11  1  0
  5  4  2  0
  6  5  1  0
  7  9  1  0
  7  6  1  0
  7  8  1  1
  9 10  2  0
  9 21  1  0
 11 12  2  0
 12  2  1  0
 13 14  1  0
 14 15  2  0
 14 16  1  0
 16 17  1  0
 17 18  1  0
 19 18  1  0
 20 19  1  6
 21 20  1  0
 22 24  1  0
 22 20  1  0
 23 22  2  0
 25 30  1  0
 25 24  1  0
 25 26  1  6
 26 27  1  0
 27 28  1  0
 28 32  1  0
 29 28  2  0
 30 33  1  0
 31 30  2  0
M  END
$$$$
