YRE.pdb
     RDKit          3D

 33 33  0  0  1  0  0  0  0  0999 V2000
    5.4544  -10.8566   28.8418 O   0  0  0  0  0  0  0  0  0  0  0  0
    6.1110  -11.6889   27.9468 C   0  0  0  0  0  0  0  0  0  0  0  0
    5.5498  -11.8542   26.6948 C   0  0  0  0  0  0  0  0  0  0  0  0
    6.1699  -12.6634   25.7969 C   0  0  0  0  0  0  0  0  0  0  0  0
    7.3535  -13.3414   26.0754 C   0  0  0  0  0  0  0  0  0  0  0  0
    7.9631  -14.1934   25.0586 C   0  0  0  0  0  0  0  0  0  0  0  0
    7.0018  -15.2907   24.6664 C   0  0  2  0  0  0  0  0  0  0  0  0
    7.0984  -16.3131   25.6926 N   0  0  0  0  0  0  0  0  0  0  0  0
    7.3987  -15.9373   23.3884 C   0  0  0  0  0  0  0  0  0  0  0  0
    8.1507  -16.9424   23.4772 O   0  0  0  0  0  0  0  0  0  0  0  0
    7.8969  -13.1640   27.3279 C   0  0  0  0  0  0  0  0  0  0  0  0
    7.2833  -12.3384   28.2742 C   0  0  0  0  0  0  0  0  0  0  0  0
    9.9570  -15.0050   15.7954 N   0  0  0  0  0  0  0  0  0  0  0  0
    8.6005  -14.6639   15.5889 C   0  0  0  0  0  0  0  0  0  0  0  0
    8.0311  -15.0204   14.4778 N   0  0  0  0  0  0  0  0  0  0  0  0
    7.8227  -13.9473   16.5243 N   0  0  0  0  0  0  0  0  0  0  0  0
    8.3671  -13.5114   17.7640 C   0  0  0  0  0  0  0  0  0  0  0  0
    8.5693  -14.5730   18.8001 C   0  0  0  0  0  0  0  0  0  0  0  0
    7.7014  -14.4521   20.0070 C   0  0  0  0  0  0  0  0  0  0  0  0
    7.8967  -15.6333   20.9693 C   0  0  2  0  0  0  0  0  0  0  0  0
    7.0054  -15.5211   22.1038 N   0  0  0  0  0  0  0  0  0  0  0  0
    9.3173  -15.7625   21.3651 C   0  0  0  0  0  0  0  0  0  0  0  0
    9.8317  -14.8122   22.0242 O   0  0  0  0  0  0  0  0  0  0  0  0
    7.0477  -14.7811   14.2518 N   0  0  0  0  0  0  0  0  0  0  0  0
   10.1517  -16.8641   21.0662 C   0  0  2  0  0  0  0  0  0  0  0  0
   11.5948  -16.8800   21.3460 C   0  0  0  0  0  0  0  0  0  0  0  0
   11.9737  -18.1103   22.1310 C   0  0  0  0  0  0  0  0  0  0  0  0
   11.3542  -18.2057   23.4803 C   0  0  0  0  0  0  0  0  0  0  0  0
   11.7112  -19.3925   24.2581 O   0  0  0  0  0  0  0  0  0  0  0  0
   11.4741  -20.5608   23.8663 C   0  0  0  0  0  0  0  0  0  0  0  0
   12.2864  -16.8736   20.0372 O   0  0  0  0  0  0  0  0  0  0  0  0
   13.5294  -16.7368   19.9588 O   0  0  0  0  0  0  0  0  0  0  0  0
   12.3462  -19.2958   25.5011 O   0  0  0  0  0  0  0  0  0  0  0  0
  2  1  1  0
  3  2  2  0
  4  3  1  0
  5 11  1  0
  5  4  2  0
  6  5  1  0
  7  9  1  0
  7  6  1  0
  7  8  1  1
  9 10  2  0
  9 21  1  0
 11 12  2  0
 12  2  1  0
 13 14  1  0
 14 15  2  0
 14 16  1  0
 16 17  1  0
 17 18  1  0
 19 18  1  0
 20 19  1  6
 21 20  1  0
 22 24  1  0
 22 20  1  0
 23 22  2  0
 25 30  1  0
 25 24  1  0
 25 26  1  1
 26 27  1  0
 27 28  1  0
 28 32  1  0
 29 28  2  0
 30 33  1  0
 31 30  2  0
M  END
$$$$
