HGA.pdb
     RDKit          3D

 20 20  0  0  1  0  0  0  0  0999 V2000
    8.3410  -15.7850   21.6736 N   0  0  0  0  0  0  0  0  0  0  0  0
    7.6840  -14.6199   22.3091 C   0  0  1  0  0  0  0  0  0  0  0  0
    6.7146  -14.0490   21.3276 C   0  0  0  0  0  0  0  0  0  0  0  0
    7.3514  -13.6970   20.0519 C   0  0  0  0  0  0  0  0  0  0  0  0
    8.2917  -12.7029   19.8668 C   0  0  0  0  0  0  0  0  0  0  0  0
    8.6621  -12.6549   18.5637 N   0  0  0  0  0  0  0  0  0  0  0  0
    7.9538  -13.6183   17.9353 C   0  0  0  0  0  0  0  0  0  0  0  0
    7.1652  -14.2471   18.8241 N   0  0  0  0  0  0  0  0  0  0  0  0
    7.1295  -15.0695   23.5791 C   0  0  0  0  0  0  0  0  0  0  0  0
    6.5762  -14.2487   24.3498 O   0  0  0  0  0  0  0  0  0  0  0  0
    7.1729  -16.4190   24.0159 N   0  0  0  0  0  0  0  0  0  0  0  0
    6.6265  -16.7733   25.3302 C   0  0  0  0  0  0  0  0  0  0  0  0
    7.4964  -17.7331   26.0260 C   0  0  0  0  0  0  0  0  0  0  0  0
    7.2319  -18.2460   27.1448 O   0  0  0  0  0  0  0  0  0  0  0  0
   10.4713  -19.7135   24.9632 C   0  0  0  0  0  0  0  0  0  0  0  0
    9.5870  -19.0596   26.0151 C   0  0  2  0  0  0  0  0  0  0  0  0
    8.7179  -18.0936   25.3707 N   0  0  0  0  0  0  0  0  0  0  0  0
   10.4967  -18.3545   26.9513 C   0  0  0  0  0  0  0  0  0  0  0  0
   10.5181  -17.0936   27.0221 O   0  0  0  0  0  0  0  0  0  0  0  0
   11.3355  -19.0780   27.7606 O   0  0  0  0  0  0  0  0  0  0  0  0
  2  1  1  6
  3  2  1  0
  4  3  1  0
  5  4  2  0
  6  7  1  0
  6  5  1  0
  7  8  2  0
  8  4  1  0
  9  2  1  0
  9 10  2  0
 11  9  1  0
 12 11  1  0
 13 12  1  0
 14 13  2  0
 16 15  1  6
 16 17  1  0
 16 18  1  0
 17 13  1  0
 18 20  1  0
 19 18  2  0
M  END
$$$$
