HGA.pdb
     RDKit          3D

 20 20  0  0  1  0  0  0  0  0999 V2000
    9.6083  -15.1456   22.1611 N   0  0  0  0  0  0  0  0  0  0  0  0
    8.4003  -15.9884   22.0069 C   0  0  1  0  0  0  0  0  0  0  0  0
    8.1043  -16.1022   20.5480 C   0  0  0  0  0  0  0  0  0  0  0  0
    8.0485  -14.7933   19.8843 C   0  0  0  0  0  0  0  0  0  0  0  0
    8.2696  -13.5719   20.4893 C   0  0  0  0  0  0  0  0  0  0  0  0
    8.1368  -12.5757   19.5795 N   0  0  0  0  0  0  0  0  0  0  0  0
    7.8330  -13.1743   18.4073 C   0  0  0  0  0  0  0  0  0  0  0  0
    7.7787  -14.5058   18.5846 N   0  0  0  0  0  0  0  0  0  0  0  0
    8.6447  -17.2369   22.7168 C   0  0  0  0  0  0  0  0  0  0  0  0
    7.7091  -18.0538   22.8932 O   0  0  0  0  0  0  0  0  0  0  0  0
    9.9130  -17.6039   23.2371 N   0  0  0  0  0  0  0  0  0  0  0  0
   10.0743  -18.8984   23.9075 C   0  0  0  0  0  0  0  0  0  0  0  0
   10.0234  -18.7494   25.3696 C   0  0  0  0  0  0  0  0  0  0  0  0
    9.6507  -17.7030   25.9618 O   0  0  0  0  0  0  0  0  0  0  0  0
   10.6839  -21.1328   28.2070 C   0  0  0  0  0  0  0  0  0  0  0  0
   10.3775  -19.7731   27.5960 C   0  0  2  0  0  0  0  0  0  0  0  0
   10.4282  -19.8799   26.1504 N   0  0  0  0  0  0  0  0  0  0  0  0
   11.4455  -18.8529   28.0585 C   0  0  0  0  0  0  0  0  0  0  0  0
   12.3481  -18.4467   27.2739 O   0  0  0  0  0  0  0  0  0  0  0  0
   11.4616  -18.4291   29.3631 O   0  0  0  0  0  0  0  0  0  0  0  0
  2  1  1  6
  3  2  1  0
  4  3  1  0
  5  4  2  0
  6  7  1  0
  6  5  1  0
  7  8  2  0
  8  4  1  0
  9  2  1  0
  9 10  2  0
 11  9  1  0
 12 11  1  0
 13 12  1  0
 14 13  2  0
 16 15  1  1
 16 17  1  0
 16 18  1  0
 17 13  1  0
 18 20  1  0
 19 18  2  0
M  END
$$$$
