HGA.pdb
     RDKit          3D

 20 20  0  0  1  0  0  0  0  0999 V2000
    8.0633  -16.5118   20.6239 N   0  0  0  0  0  0  0  0  0  0  0  0
    8.0736  -15.3208   21.5040 C   0  0  1  0  0  0  0  0  0  0  0  0
    7.0670  -14.3526   20.9763 C   0  0  0  0  0  0  0  0  0  0  0  0
    7.3931  -13.8887   19.6216 C   0  0  0  0  0  0  0  0  0  0  0  0
    8.2459  -12.8489   19.3083 C   0  0  0  0  0  0  0  0  0  0  0  0
    8.3129  -12.6965   17.9629 N   0  0  0  0  0  0  0  0  0  0  0  0
    7.5026  -13.6402   17.4363 C   0  0  0  0  0  0  0  0  0  0  0  0
    6.9477  -14.3589   18.4278 N   0  0  0  0  0  0  0  0  0  0  0  0
    7.8706  -15.7848   22.8700 C   0  0  0  0  0  0  0  0  0  0  0  0
    6.8205  -16.3992   23.1763 O   0  0  0  0  0  0  0  0  0  0  0  0
    8.8137  -15.5837   23.9112 N   0  0  0  0  0  0  0  0  0  0  0  0
    8.5836  -16.1934   25.2251 C   0  0  0  0  0  0  0  0  0  0  0  0
    9.6319  -15.8068   26.1811 C   0  0  0  0  0  0  0  0  0  0  0  0
   10.8652  -15.9550   25.9773 O   0  0  0  0  0  0  0  0  0  0  0  0
    9.5790  -13.8857   29.3978 C   0  0  0  0  0  0  0  0  0  0  0  0
   10.2068  -14.8292   28.3821 C   0  0  2  0  0  0  0  0  0  0  0  0
    9.1994  -15.2264   27.4171 N   0  0  0  0  0  0  0  0  0  0  0  0
   10.6598  -16.0222   29.1388 C   0  0  0  0  0  0  0  0  0  0  0  0
   10.0154  -17.1079   29.1011 O   0  0  0  0  0  0  0  0  0  0  0  0
   11.8005  -15.9547   29.8978 O   0  0  0  0  0  0  0  0  0  0  0  0
  2  1  1  6
  3  2  1  0
  4  3  1  0
  5  4  2  0
  6  7  1  0
  6  5  1  0
  7  8  2  0
  8  4  1  0
  9  2  1  0
  9 10  2  0
 11  9  1  0
 12 11  1  0
 13 12  1  0
 14 13  2  0
 16 15  1  1
 16 17  1  0
 16 18  1  0
 17 13  1  0
 18 20  1  0
 19 18  2  0
M  END
$$$$
