HGA.pdb
     RDKit          3D

 20 20  0  0  1  0  0  0  0  0999 V2000
   10.2856  -16.6305   17.8647 N   0  0  0  0  0  0  0  0  0  0  0  0
   10.0178  -15.6448   18.9370 C   0  0  1  0  0  0  0  0  0  0  0  0
    8.5675  -15.2941   18.8850 C   0  0  0  0  0  0  0  0  0  0  0  0
    8.1796  -14.7065   17.5962 C   0  0  0  0  0  0  0  0  0  0  0  0
    8.4352  -13.4117   17.1901 C   0  0  0  0  0  0  0  0  0  0  0  0
    7.9358  -13.2112   15.9459 N   0  0  0  0  0  0  0  0  0  0  0  0
    7.3689  -14.3798   15.5750 C   0  0  0  0  0  0  0  0  0  0  0  0
    7.5123  -15.2811   16.5621 N   0  0  0  0  0  0  0  0  0  0  0  0
   10.5006  -16.2165   20.1870 C   0  0  0  0  0  0  0  0  0  0  0  0
   10.3177  -17.4326   20.4347 O   0  0  0  0  0  0  0  0  0  0  0  0
   11.1888  -15.4651   21.1748 N   0  0  0  0  0  0  0  0  0  0  0  0
   11.7440  -16.1477   22.3483 C   0  0  0  0  0  0  0  0  0  0  0  0
   10.9281  -15.8951   23.5453 C   0  0  0  0  0  0  0  0  0  0  0  0
   11.2304  -16.2855   24.7032 O   0  0  0  0  0  0  0  0  0  0  0  0
    7.7377  -13.9750   24.1059 C   0  0  0  0  0  0  0  0  0  0  0  0
    8.8964  -14.8701   24.5209 C   0  0  2  0  0  0  0  0  0  0  0  0
    9.7158  -15.1555   23.3586 N   0  0  0  0  0  0  0  0  0  0  0  0
    8.2963  -16.1315   25.0208 C   0  0  0  0  0  0  0  0  0  0  0  0
    8.3562  -17.1992   24.3487 O   0  0  0  0  0  0  0  0  0  0  0  0
    7.6613  -16.1487   26.2367 O   0  0  0  0  0  0  0  0  0  0  0  0
  2  1  1  6
  3  2  1  0
  4  3  1  0
  5  4  2  0
  6  7  1  0
  6  5  1  0
  7  8  2  0
  8  4  1  0
  9  2  1  0
  9 10  2  0
 11  9  1  0
 12 11  1  0
 13 12  1  0
 14 13  2  0
 16 15  1  6
 16 17  1  0
 16 18  1  0
 17 13  1  0
 18 20  1  0
 19 18  2  0
M  END
$$$$
