HGA.pdb
     RDKit          3D

 20 20  0  0  1  0  0  0  0  0999 V2000
    7.5566  -16.7082   20.7040 N   0  0  0  0  0  0  0  0  0  0  0  0
    7.7342  -15.4231   21.4183 C   0  0  1  0  0  0  0  0  0  0  0  0
    6.8353  -14.4162   20.7800 C   0  0  0  0  0  0  0  0  0  0  0  0
    7.3450  -13.9536   19.4827 C   0  0  0  0  0  0  0  0  0  0  0  0
    8.1328  -12.8386   19.2764 C   0  0  0  0  0  0  0  0  0  0  0  0
    8.4175  -12.7124   17.9571 N   0  0  0  0  0  0  0  0  0  0  0  0
    7.8080  -13.7477   17.3397 C   0  0  0  0  0  0  0  0  0  0  0  0
    7.1626  -14.4962   18.2509 N   0  0  0  0  0  0  0  0  0  0  0  0
    7.5170  -15.6773   22.8362 C   0  0  0  0  0  0  0  0  0  0  0  0
    6.4141  -16.1240   23.2336 O   0  0  0  0  0  0  0  0  0  0  0  0
    8.5031  -15.4480   23.8306 N   0  0  0  0  0  0  0  0  0  0  0  0
    8.1693  -15.6550   25.2437 C   0  0  0  0  0  0  0  0  0  0  0  0
    9.3385  -15.4246   26.1052 C   0  0  0  0  0  0  0  0  0  0  0  0
   10.5316  -15.4709   25.7063 O   0  0  0  0  0  0  0  0  0  0  0  0
    9.7732  -13.9129   29.4584 C   0  0  0  0  0  0  0  0  0  0  0  0
   10.2088  -14.8660   28.3548 C   0  0  2  0  0  0  0  0  0  0  0  0
    9.0802  -15.1302   27.4829 N   0  0  0  0  0  0  0  0  0  0  0  0
   10.6187  -16.1255   29.0232 C   0  0  0  0  0  0  0  0  0  0  0  0
    9.8840  -17.1526   28.9970 O   0  0  0  0  0  0  0  0  0  0  0  0
   11.8184  -16.1858   29.6859 O   0  0  0  0  0  0  0  0  0  0  0  0
  2  1  1  6
  3  2  1  0
  4  3  1  0
  5  4  2  0
  6  7  1  0
  6  5  1  0
  7  8  2  0
  8  4  1  0
  9  2  1  0
  9 10  2  0
 11  9  1  0
 12 11  1  0
 13 12  1  0
 14 13  2  0
 16 15  1  1
 16 17  1  0
 16 18  1  0
 17 13  1  0
 18 20  1  0
 19 18  2  0
M  END
$$$$
