HGA.pdb
     RDKit          3D

 20 20  0  0  1  0  0  0  0  0999 V2000
    9.5941  -19.2161   20.7526 N   0  0  0  0  0  0  0  0  0  0  0  0
    9.8889  -17.7888   20.4901 C   0  0  1  0  0  0  0  0  0  0  0  0
    9.6842  -17.5394   19.0323 C   0  0  0  0  0  0  0  0  0  0  0  0
   10.8082  -18.0206   18.2189 C   0  0  0  0  0  0  0  0  0  0  0  0
   12.1123  -17.5738   18.2999 C   0  0  0  0  0  0  0  0  0  0  0  0
   12.8835  -18.2361   17.4031 N   0  0  0  0  0  0  0  0  0  0  0  0
   12.0619  -19.0958   16.7624 C   0  0  0  0  0  0  0  0  0  0  0  0
   10.8147  -18.9706   17.2482 N   0  0  0  0  0  0  0  0  0  0  0  0
    9.0728  -16.9988   21.4023 C   0  0  0  0  0  0  0  0  0  0  0  0
    7.8412  -16.8746   21.1977 O   0  0  0  0  0  0  0  0  0  0  0  0
    9.5946  -16.3404   22.5460 N   0  0  0  0  0  0  0  0  0  0  0  0
    8.6859  -15.6256   23.4485 C   0  0  0  0  0  0  0  0  0  0  0  0
    9.3948  -15.1415   24.6424 C   0  0  0  0  0  0  0  0  0  0  0  0
   10.5904  -15.4227   24.9182 O   0  0  0  0  0  0  0  0  0  0  0  0
    8.4232  -12.7776   27.4059 C   0  0  0  0  0  0  0  0  0  0  0  0
    9.3382  -13.7700   26.7030 C   0  0  2  0  0  0  0  0  0  0  0  0
    8.6587  -14.2971   25.5350 N   0  0  0  0  0  0  0  0  0  0  0  0
    9.5852  -14.8710   27.6663 C   0  0  0  0  0  0  0  0  0  0  0  0
    8.9904  -15.9804   27.5629 O   0  0  0  0  0  0  0  0  0  0  0  0
   10.4759  -14.6899   28.6938 O   0  0  0  0  0  0  0  0  0  0  0  0
  2  1  1  6
  3  2  1  0
  4  3  1  0
  5  4  2  0
  6  7  1  0
  6  5  1  0
  7  8  2  0
  8  4  1  0
  9  2  1  0
  9 10  2  0
 11  9  1  0
 12 11  1  0
 13 12  1  0
 14 13  2  0
 16 15  1  1
 16 17  1  0
 16 18  1  0
 17 13  1  0
 18 20  1  0
 19 18  2  0
M  END
$$$$
