HGA.pdb
     RDKit          3D

 20 20  0  0  1  0  0  0  0  0999 V2000
  279.2392 -286.6553  731.7838 N   0  0  0  0  0  0  0  0  0  0  0  0
  278.5824 -287.2567  732.9673 C   0  0  1  0  0  0  0  0  0  0  0  0
  279.6384 -287.5328  733.9862 C   0  0  0  0  0  0  0  0  0  0  0  0
  279.0809 -288.0341  735.2488 C   0  0  0  0  0  0  0  0  0  0  0  0
  279.4858 -289.1745  735.9137 C   0  0  0  0  0  0  0  0  0  0  0  0
  278.7558 -289.3336  737.0446 N   0  0  0  0  0  0  0  0  0  0  0  0
  277.8951 -288.2930  737.0864 C   0  0  0  0  0  0  0  0  0  0  0  0
  278.0858 -287.5096  736.0109 N   0  0  0  0  0  0  0  0  0  0  0  0
  277.5091 -286.3597  733.3748 C   0  0  0  0  0  0  0  0  0  0  0  0
  277.2800 -286.1654  734.5930 O   0  0  0  0  0  0  0  0  0  0  0  0
  276.6801 -285.6661  732.4554 N   0  0  0  0  0  0  0  0  0  0  0  0
  276.0614 -286.3960  731.3439 C   0  0  0  0  0  0  0  0  0  0  0  0
  276.3488 -285.7466  730.0564 C   0  0  0  0  0  0  0  0  0  0  0  0
  276.7499 -284.5591  729.9366 O   0  0  0  0  0  0  0  0  0  0  0  0
  278.4347 -286.1305  728.1707 C   0  0  0  0  0  0  0  0  0  0  0  0
  276.9872 -286.2621  727.7201 C   0  0  2  0  0  0  0  0  0  0  0  0
  276.1534 -286.5331  728.8756 N   0  0  0  0  0  0  0  0  0  0  0  0
  276.9371 -287.4213  726.7956 C   0  0  0  0  0  0  0  0  0  0  0  0
  276.9633 -288.6079  727.2272 O   0  0  0  0  0  0  0  0  0  0  0  0
  276.8597 -287.2098  725.4422 O   0  0  0  0  0  0  0  0  0  0  0  0
  2  1  1  6
  3  2  1  0
  4  3  1  0
  5  4  2  0
  6  7  1  0
  6  5  1  0
  7  8  2  0
  8  4  1  0
  9  2  1  0
  9 10  2  0
 11  9  1  0
 12 11  1  0
 13 12  1  0
 14 13  2  0
 16 15  1  1
 16 17  1  0
 16 18  1  0
 17 13  1  0
 18 20  1  0
 19 18  2  0
M  END
$$$$
