HGA.pdb
     RDKit          3D

 20 20  0  0  1  0  0  0  0  0999 V2000
   10.8870  -14.4782   16.9549 N   0  0  0  0  0  0  0  0  0  0  0  0
   11.0103  -14.7168   18.4113 C   0  0  1  0  0  0  0  0  0  0  0  0
   12.2680  -14.0614   18.8780 C   0  0  0  0  0  0  0  0  0  0  0  0
   13.4635  -14.6245   18.2376 C   0  0  0  0  0  0  0  0  0  0  0  0
   14.5481  -13.9038   17.7783 C   0  0  0  0  0  0  0  0  0  0  0  0
   15.4684  -14.7443   17.2451 N   0  0  0  0  0  0  0  0  0  0  0  0
   14.9591  -15.9891   17.3713 C   0  0  0  0  0  0  0  0  0  0  0  0
   13.7555  -15.9230   17.9665 N   0  0  0  0  0  0  0  0  0  0  0  0
    9.7744  -14.2627   19.0349 C   0  0  0  0  0  0  0  0  0  0  0  0
    9.5069  -13.0380   19.0827 O   0  0  0  0  0  0  0  0  0  0  0  0
    8.8202  -15.1426   19.6087 N   0  0  0  0  0  0  0  0  0  0  0  0
    7.7157  -14.5953   20.4036 C   0  0  0  0  0  0  0  0  0  0  0  0
    7.7877  -15.0533   21.7991 C   0  0  0  0  0  0  0  0  0  0  0  0
    6.9968  -14.6849   22.7065 O   0  0  0  0  0  0  0  0  0  0  0  0
    9.5368  -17.9298   23.3725 C   0  0  0  0  0  0  0  0  0  0  0  0
    8.8312  -16.5832   23.4425 C   0  0  2  0  0  0  0  0  0  0  0  0
    8.8324  -15.9775   22.1246 N   0  0  0  0  0  0  0  0  0  0  0  0
    9.6236  -15.7401   24.3714 C   0  0  0  0  0  0  0  0  0  0  0  0
    9.5253  -15.8711   25.6237 O   0  0  0  0  0  0  0  0  0  0  0  0
   10.4832  -14.7962   23.8693 O   0  0  0  0  0  0  0  0  0  0  0  0
  2  1  1  6
  3  2  1  0
  4  3  1  0
  5  4  2  0
  6  7  1  0
  6  5  1  0
  7  8  2  0
  8  4  1  0
  9  2  1  0
  9 10  2  0
 11  9  1  0
 12 11  1  0
 13 12  1  0
 14 13  2  0
 16 15  1  6
 16 17  1  0
 16 18  1  0
 17 13  1  0
 18 20  1  0
 19 18  2  0
M  END
$$$$
