HGA.pdb
     RDKit          3D

 20 20  0  0  1  0  0  0  0  0999 V2000
   10.3862  -16.9341   19.1119 N   0  0  0  0  0  0  0  0  0  0  0  0
   10.4469  -16.2242   20.4102 C   0  0  1  0  0  0  0  0  0  0  0  0
    9.0579  -15.8151   20.7740 C   0  0  0  0  0  0  0  0  0  0  0  0
    8.5807  -14.6805   19.9729 C   0  0  0  0  0  0  0  0  0  0  0  0
    9.2809  -14.0575   18.9589 C   0  0  0  0  0  0  0  0  0  0  0  0
    8.5390  -13.0499   18.4373 N   0  0  0  0  0  0  0  0  0  0  0  0
    7.3764  -13.0434   19.1250 C   0  0  0  0  0  0  0  0  0  0  0  0
    7.3960  -14.0204   20.0483 N   0  0  0  0  0  0  0  0  0  0  0  0
   11.1324  -17.0969   21.3541 C   0  0  0  0  0  0  0  0  0  0  0  0
   11.0842  -18.3421   21.2089 O   0  0  0  0  0  0  0  0  0  0  0  0
   11.8775  -16.6166   22.4622 N   0  0  0  0  0  0  0  0  0  0  0  0
   12.5861  -17.5670   23.3258 C   0  0  0  0  0  0  0  0  0  0  0  0
   11.7236  -18.0346   24.4211 C   0  0  0  0  0  0  0  0  0  0  0  0
   10.5211  -17.6934   24.5700 O   0  0  0  0  0  0  0  0  0  0  0  0
   10.6900  -20.6540   25.9041 C   0  0  0  0  0  0  0  0  0  0  0  0
   11.4730  -19.4598   26.4303 C   0  0  2  0  0  0  0  0  0  0  0  0
   12.3098  -18.9355   25.3679 N   0  0  0  0  0  0  0  0  0  0  0  0
   12.3327  -19.9695   27.5267 C   0  0  0  0  0  0  0  0  0  0  0  0
   13.5884  -20.0293   27.4035 O   0  0  0  0  0  0  0  0  0  0  0  0
   11.7616  -20.3866   28.7022 O   0  0  0  0  0  0  0  0  0  0  0  0
  2  1  1  6
  3  2  1  0
  4  3  1  0
  5  4  2  0
  6  7  1  0
  6  5  1  0
  7  8  2  0
  8  4  1  0
  9  2  1  0
  9 10  2  0
 11  9  1  0
 12 11  1  0
 13 12  1  0
 14 13  2  0
 16 15  1  6
 16 17  1  0
 16 18  1  0
 17 13  1  0
 18 20  1  0
 19 18  2  0
M  END
$$$$
