HGA.pdb
     RDKit          3D

 20 20  0  0  1  0  0  0  0  0999 V2000
    8.8671  -15.7393   20.9735 N   0  0  0  0  0  0  0  0  0  0  0  0
    8.1826  -14.5436   21.5166 C   0  0  1  0  0  0  0  0  0  0  0  0
    6.9771  -14.2841   20.6749 C   0  0  0  0  0  0  0  0  0  0  0  0
    7.3234  -13.9724   19.2822 C   0  0  0  0  0  0  0  0  0  0  0  0
    8.3514  -13.1469   18.8718 C   0  0  0  0  0  0  0  0  0  0  0  0
    8.3821  -13.0863   17.5179 N   0  0  0  0  0  0  0  0  0  0  0  0
    7.3741  -13.8733   17.0829 C   0  0  0  0  0  0  0  0  0  0  0  0
    6.7351  -14.4078   18.1380 N   0  0  0  0  0  0  0  0  0  0  0  0
    7.9428  -14.7830   22.9335 C   0  0  0  0  0  0  0  0  0  0  0  0
    7.5036  -13.8607   23.6619 O   0  0  0  0  0  0  0  0  0  0  0  0
    8.1785  -16.0316   23.5653 N   0  0  0  0  0  0  0  0  0  0  0  0
    7.9247  -16.1759   25.0027 C   0  0  0  0  0  0  0  0  0  0  0  0
    9.0986  -15.7753   25.7924 C   0  0  0  0  0  0  0  0  0  0  0  0
   10.2857  -15.8399   25.3784 O   0  0  0  0  0  0  0  0  0  0  0  0
    9.5103  -13.5970   28.7240 C   0  0  0  0  0  0  0  0  0  0  0  0
    9.9746  -14.7764   27.8817 C   0  0  2  0  0  0  0  0  0  0  0  0
    8.8526  -15.2829   27.1147 N   0  0  0  0  0  0  0  0  0  0  0  0
   10.4307  -15.8199   28.8328 C   0  0  0  0  0  0  0  0  0  0  0  0
    9.7828  -16.8924   28.9918 O   0  0  0  0  0  0  0  0  0  0  0  0
   11.5782  -15.6250   29.5588 O   0  0  0  0  0  0  0  0  0  0  0  0
  2  1  1  6
  3  2  1  0
  4  3  1  0
  5  4  2  0
  6  7  1  0
  6  5  1  0
  7  8  2  0
  8  4  1  0
  9  2  1  0
  9 10  2  0
 11  9  1  0
 12 11  1  0
 13 12  1  0
 14 13  2  0
 16 15  1  1
 16 17  1  0
 16 18  1  0
 17 13  1  0
 18 20  1  0
 19 18  2  0
M  END
$$$$
