HGA.pdb
     RDKit          3D

 20 20  0  0  1  0  0  0  0  0999 V2000
    9.1608  -13.6638   20.2185 N   0  0  0  0  0  0  0  0  0  0  0  0
    8.5646  -15.0189   20.2581 C   0  0  1  0  0  0  0  0  0  0  0  0
    8.9333  -15.7187   18.9918 C   0  0  0  0  0  0  0  0  0  0  0  0
    8.4792  -14.9930   17.7985 C   0  0  0  0  0  0  0  0  0  0  0  0
    8.0485  -13.6815   17.7671 C   0  0  0  0  0  0  0  0  0  0  0  0
    7.7053  -13.3388   16.5012 N   0  0  0  0  0  0  0  0  0  0  0  0
    7.9214  -14.4353   15.7425 C   0  0  0  0  0  0  0  0  0  0  0  0
    8.3862  -15.4316   16.5164 N   0  0  0  0  0  0  0  0  0  0  0  0
    8.9983  -15.6514   21.4967 C   0  0  0  0  0  0  0  0  0  0  0  0
    8.6341  -16.8211   21.7669 O   0  0  0  0  0  0  0  0  0  0  0  0
    9.8349  -15.0125   22.4484 N   0  0  0  0  0  0  0  0  0  0  0  0
   10.1999  -15.7177   23.6816 C   0  0  0  0  0  0  0  0  0  0  0  0
    9.3506  -15.2965   24.8056 C   0  0  0  0  0  0  0  0  0  0  0  0
    9.4507  -15.7482   25.9764 O   0  0  0  0  0  0  0  0  0  0  0  0
    6.7944  -12.5794   25.1997 C   0  0  0  0  0  0  0  0  0  0  0  0
    7.5051  -13.8589   25.6167 C   0  0  2  0  0  0  0  0  0  0  0  0
    8.3519  -14.3080   24.5281 N   0  0  0  0  0  0  0  0  0  0  0  0
    6.4459  -14.8680   25.8638 C   0  0  0  0  0  0  0  0  0  0  0  0
    6.2466  -15.8217   25.0600 O   0  0  0  0  0  0  0  0  0  0  0  0
    5.6617  -14.7717   26.9853 O   0  0  0  0  0  0  0  0  0  0  0  0
  2  1  1  6
  3  2  1  0
  4  3  1  0
  5  4  2  0
  6  7  1  0
  6  5  1  0
  7  8  2  0
  8  4  1  0
  9  2  1  0
  9 10  2  0
 11  9  1  0
 12 11  1  0
 13 12  1  0
 14 13  2  0
 16 15  1  6
 16 17  1  0
 16 18  1  0
 17 13  1  0
 18 20  1  0
 19 18  2  0
M  END
$$$$
