HGA.pdb
     RDKit          3D

 20 20  0  0  1  0  0  0  0  0999 V2000
    8.2386  -16.1112   21.6930 N   0  0  0  0  0  0  0  0  0  0  0  0
    7.6227  -14.9466   22.3694 C   0  0  1  0  0  0  0  0  0  0  0  0
    6.7334  -14.2624   21.3843 C   0  0  0  0  0  0  0  0  0  0  0  0
    7.4477  -13.8726   20.1618 C   0  0  0  0  0  0  0  0  0  0  0  0
    8.1592  -12.7031   19.9812 C   0  0  0  0  0  0  0  0  0  0  0  0
    8.6881  -12.6728   18.7333 N   0  0  0  0  0  0  0  0  0  0  0  0
    8.3072  -13.8224   18.1350 C   0  0  0  0  0  0  0  0  0  0  0  0
    7.5622  -14.5466   18.9881 N   0  0  0  0  0  0  0  0  0  0  0  0
    6.9863  -15.4336   23.5860 C   0  0  0  0  0  0  0  0  0  0  0  0
    6.4481  -14.6262   24.3811 O   0  0  0  0  0  0  0  0  0  0  0  0
    6.9307  -16.8062   23.9424 N   0  0  0  0  0  0  0  0  0  0  0  0
    6.3629  -17.1963   25.2372 C   0  0  0  0  0  0  0  0  0  0  0  0
    7.3066  -18.0233   26.0037 C   0  0  0  0  0  0  0  0  0  0  0  0
    7.0274  -18.5922   27.0914 O   0  0  0  0  0  0  0  0  0  0  0  0
   10.8966  -19.0098   25.4273 C   0  0  0  0  0  0  0  0  0  0  0  0
    9.5872  -18.9670   26.2015 C   0  0  2  0  0  0  0  0  0  0  0  0
    8.6224  -18.1782   25.4594 N   0  0  0  0  0  0  0  0  0  0  0  0
    9.8820  -18.2962   27.4916 C   0  0  0  0  0  0  0  0  0  0  0  0
   10.1219  -18.9612   28.5382 O   0  0  0  0  0  0  0  0  0  0  0  0
    9.8967  -16.9261   27.5590 O   0  0  0  0  0  0  0  0  0  0  0  0
  2  1  1  6
  3  2  1  0
  4  3  1  0
  5  4  2  0
  6  7  1  0
  6  5  1  0
  7  8  2  0
  8  4  1  0
  9  2  1  0
  9 10  2  0
 11  9  1  0
 12 11  1  0
 13 12  1  0
 14 13  2  0
 16 15  1  6
 16 17  1  0
 16 18  1  0
 17 13  1  0
 18 20  1  0
 19 18  2  0
M  END
$$$$
