HGA.pdb
     RDKit          3D

 20 20  0  0  1  0  0  0  0  0999 V2000
    9.0913  -16.1907   21.0845 N   0  0  0  0  0  0  0  0  0  0  0  0
    8.5580  -15.0767   21.9016 C   0  0  1  0  0  0  0  0  0  0  0  0
    7.3833  -14.5018   21.1814 C   0  0  0  0  0  0  0  0  0  0  0  0
    7.7022  -14.1316   19.7965 C   0  0  0  0  0  0  0  0  0  0  0  0
    8.4145  -13.0160   19.4032 C   0  0  0  0  0  0  0  0  0  0  0  0
    8.5201  -12.9887   18.0519 N   0  0  0  0  0  0  0  0  0  0  0  0
    7.8743  -14.0864   17.6016 C   0  0  0  0  0  0  0  0  0  0  0  0
    7.3812  -14.7762   18.6448 N   0  0  0  0  0  0  0  0  0  0  0  0
    8.3057  -15.5969   23.2388 C   0  0  0  0  0  0  0  0  0  0  0  0
    8.2098  -16.8339   23.4249 O   0  0  0  0  0  0  0  0  0  0  0  0
    8.1587  -14.7707   24.3832 N   0  0  0  0  0  0  0  0  0  0  0  0
    7.3862  -15.2549   25.5322 C   0  0  0  0  0  0  0  0  0  0  0  0
    8.2008  -15.2586   26.7564 C   0  0  0  0  0  0  0  0  0  0  0  0
    7.7750  -15.6069   27.8887 O   0  0  0  0  0  0  0  0  0  0  0  0
    9.6286  -13.5160   28.6592 C   0  0  0  0  0  0  0  0  0  0  0  0
   10.3253  -14.5922   27.8393 C   0  0  2  0  0  0  0  0  0  0  0  0
    9.5632  -14.8351   26.6294 N   0  0  0  0  0  0  0  0  0  0  0  0
   10.3295  -15.8200   28.6722 C   0  0  0  0  0  0  0  0  0  0  0  0
    9.6359  -16.8283   28.3598 O   0  0  0  0  0  0  0  0  0  0  0  0
   11.0991  -15.8708   29.8067 O   0  0  0  0  0  0  0  0  0  0  0  0
  2  1  1  6
  3  2  1  0
  4  3  1  0
  5  4  2  0
  6  7  1  0
  6  5  1  0
  7  8  2  0
  8  4  1  0
  9  2  1  0
  9 10  2  0
 11  9  1  0
 12 11  1  0
 13 12  1  0
 14 13  2  0
 16 15  1  1
 16 17  1  0
 16 18  1  0
 17 13  1  0
 18 20  1  0
 19 18  2  0
M  END
$$$$
