LEN.pdb
     RDKit          3D

 26 25  0  0  1  0  0  0  0  0999 V2000
   35.8614  -27.1062  -16.1852 C   0  0  0  0  0  0  0  0  0  0  0  0
   34.8611  -26.1732  -15.5976 C   0  0  1  0  0  0  0  0  0  0  0  0
   35.6395  -25.1404  -14.7733 C   0  0  0  0  0  0  0  0  0  0  0  0
   34.0350  -25.4061  -16.5696 C   0  0  0  0  0  0  0  0  0  0  0  0
   33.0830  -24.4153  -15.9343 C   0  0  2  0  0  0  0  0  0  0  0  0
   32.7466  -24.9643  -14.6322 N   0  0  0  0  0  0  0  0  0  0  0  0
   31.8297  -24.4770  -16.7585 C   0  0  0  0  0  0  0  0  0  0  0  0
   31.7985  -24.1701  -17.9749 O   0  0  0  0  0  0  0  0  0  0  0  0
   30.5877  -24.9029  -16.1589 N   0  0  0  0  0  0  0  0  0  0  0  0
   29.3487  -24.9888  -16.8747 C   0  0  1  0  0  0  0  0  0  0  0  0
   28.6125  -26.2849  -16.6333 C   0  0  0  0  0  0  0  0  0  0  0  0
   27.3486  -26.4100  -17.4304 C   0  0  0  0  0  0  0  0  0  0  0  0
   26.6354  -27.6750  -17.1211 C   0  0  0  0  0  0  0  0  0  0  0  0
   27.0034  -28.4498  -16.2240 O   0  0  0  0  0  0  0  0  0  0  0  0
   28.4818  -23.7984  -16.6603 C   0  0  0  0  0  0  0  0  0  0  0  0
   28.4814  -23.1958  -15.5377 O   0  0  0  0  0  0  0  0  0  0  0  0
   25.5160  -27.9828  -17.8776 O   0  0  0  0  0  0  0  0  0  0  0  0
   26.8019  -19.1589  -18.0662 N   0  0  0  0  0  0  0  0  0  0  0  0
   28.1325  -19.5706  -17.9129 C   0  0  0  0  0  0  0  0  0  0  0  0
   29.0607  -18.6942  -17.8474 O   0  0  0  0  0  0  0  0  0  0  0  0
   28.5422  -20.9950  -17.8185 C   0  0  0  0  0  0  0  0  0  0  0  0
   27.3093  -21.8745  -17.8114 C   0  0  2  0  0  0  0  0  0  0  0  0
   27.6177  -23.2598  -17.6527 N   0  0  0  0  0  0  0  0  0  0  0  0
   26.4640  -21.5725  -18.9846 C   0  0  0  0  0  0  0  0  0  0  0  0
   26.7090  -22.0205  -20.2757 O   0  0  0  0  0  0  0  0  0  0  0  0
   25.4297  -20.8532  -18.8366 O   0  0  0  0  0  0  0  0  0  0  0  0
  2  1  1  6
  2  3  1  0
  4  5  1  0
  4  2  1  0
  5  6  1  1
  7  5  1  0
  7  8  2  0
  9  7  1  0
 10  9  1  0
 10 11  1  1
 12 11  1  0
 12 13  1  0
 13 14  2  0
 15 10  1  0
 16 15  2  0
 17 13  1  0
 18 19  1  0
 19 21  1  0
 20 19  2  0
 22 21  1  6
 22 24  1  0
 22 23  1  0
 23 15  1  0
 24 25  1  0
 26 24  2  0
M  END
$$$$
