LEN.pdb
     RDKit          3D

 26 25  0  0  1  0  0  0  0  0999 V2000
   28.4690  -12.2000  -18.5919 C   0  0  0  0  0  0  0  0  0  0  0  0
   27.7740  -11.9183  -17.3059 C   0  0  1  0  0  0  0  0  0  0  0  0
   28.8464  -11.4756  -16.3028 C   0  0  0  0  0  0  0  0  0  0  0  0
   26.7517  -10.8369  -17.3402 C   0  0  0  0  0  0  0  0  0  0  0  0
   26.1344  -10.5187  -15.9951 C   0  0  2  0  0  0  0  0  0  0  0  0
   25.4917  -11.7436  -15.5517 N   0  0  0  0  0  0  0  0  0  0  0  0
   25.0326   -9.5395  -16.2802 C   0  0  0  0  0  0  0  0  0  0  0  0
   25.2243   -8.4540  -16.8799 O   0  0  0  0  0  0  0  0  0  0  0  0
   23.6815   -9.8257  -15.8605 N   0  0  0  0  0  0  0  0  0  0  0  0
   22.5700   -8.9570  -16.1152 C   0  0  1  0  0  0  0  0  0  0  0  0
   21.2341   -9.6486  -15.9842 C   0  0  0  0  0  0  0  0  0  0  0  0
   20.9730  -10.6511  -17.0683 C   0  0  0  0  0  0  0  0  0  0  0  0
   19.6535  -11.3088  -16.8923 C   0  0  0  0  0  0  0  0  0  0  0  0
   19.2022  -12.1333  -17.7029 O   0  0  0  0  0  0  0  0  0  0  0  0
   22.6350   -7.6993  -15.3224 C   0  0  0  0  0  0  0  0  0  0  0  0
   22.8037   -7.7417  -14.0602 O   0  0  0  0  0  0  0  0  0  0  0  0
   18.9130  -10.9731  -15.7702 O   0  0  0  0  0  0  0  0  0  0  0  0
   24.8977   -3.8494  -17.7281 N   0  0  0  0  0  0  0  0  0  0  0  0
   24.4283   -4.2038  -16.4562 C   0  0  0  0  0  0  0  0  0  0  0  0
   25.2313   -4.7269  -15.6104 O   0  0  0  0  0  0  0  0  0  0  0  0
   23.0233   -4.0046  -16.0181 C   0  0  0  0  0  0  0  0  0  0  0  0
   22.5927   -5.1749  -15.1587 C   0  0  2  0  0  0  0  0  0  0  0  0
   22.5180   -6.4002  -15.8883 N   0  0  0  0  0  0  0  0  0  0  0  0
   21.3606   -4.8344  -14.4185 C   0  0  0  0  0  0  0  0  0  0  0  0
   20.1612   -5.5276  -14.5125 O   0  0  0  0  0  0  0  0  0  0  0  0
   21.3640   -3.8410  -13.6298 O   0  0  0  0  0  0  0  0  0  0  0  0
  2  1  1  6
  2  3  1  0
  4  5  1  0
  4  2  1  0
  5  6  1  6
  7  5  1  0
  7  8  2  0
  9  7  1  0
 10  9  1  0
 10 11  1  1
 12 11  1  0
 12 13  1  0
 13 14  2  0
 15 10  1  0
 16 15  2  0
 17 13  1  0
 18 19  1  0
 19 21  1  0
 20 19  2  0
 22 21  1  6
 22 24  1  0
 22 23  1  0
 23 15  1  0
 24 25  1  0
 26 24  2  0
M  END
$$$$
