LEN.pdb
     RDKit          3D

 26 25  0  0  1  0  0  0  0  0999 V2000
   25.1604  -13.4792  -20.6635 C   0  0  0  0  0  0  0  0  0  0  0  0
   25.4412  -13.5562  -19.2035 C   0  0  1  0  0  0  0  0  0  0  0  0
   26.0961  -14.9182  -18.9427 C   0  0  0  0  0  0  0  0  0  0  0  0
   26.3707  -12.5269  -18.6629 C   0  0  0  0  0  0  0  0  0  0  0  0
   26.0235  -12.0415  -17.2717 C   0  0  2  0  0  0  0  0  0  0  0  0
   25.7433  -13.2344  -16.4916 N   0  0  0  0  0  0  0  0  0  0  0  0
   24.7197  -11.3110  -17.4147 C   0  0  0  0  0  0  0  0  0  0  0  0
   24.5742  -10.3182  -18.1685 O   0  0  0  0  0  0  0  0  0  0  0  0
   23.5618  -11.7409  -16.6678 N   0  0  0  0  0  0  0  0  0  0  0  0
   22.2838  -11.0961  -16.7433 C   0  0  1  0  0  0  0  0  0  0  0  0
   21.1418  -11.9911  -16.3247 C   0  0  0  0  0  0  0  0  0  0  0  0
   19.7908  -11.3965  -16.5885 C   0  0  0  0  0  0  0  0  0  0  0  0
   18.7026  -12.3214  -16.1822 C   0  0  0  0  0  0  0  0  0  0  0  0
   18.8265  -13.5560  -16.2115 O   0  0  0  0  0  0  0  0  0  0  0  0
   22.2626   -9.7861  -16.0375 C   0  0  0  0  0  0  0  0  0  0  0  0
   22.8220   -9.6584  -14.8999 O   0  0  0  0  0  0  0  0  0  0  0  0
   17.5089  -11.7610  -15.7565 O   0  0  0  0  0  0  0  0  0  0  0  0
   21.9139   -5.9433  -19.3402 N   0  0  0  0  0  0  0  0  0  0  0  0
   22.2657   -6.1222  -17.9955 C   0  0  0  0  0  0  0  0  0  0  0  0
   23.4992   -6.2099  -17.6723 O   0  0  0  0  0  0  0  0  0  0  0  0
   21.2720   -6.2177  -16.8959 C   0  0  0  0  0  0  0  0  0  0  0  0
   21.6758   -7.3267  -15.9469 C   0  0  2  0  0  0  0  0  0  0  0  0
   21.6400   -8.6178  -16.5562 N   0  0  0  0  0  0  0  0  0  0  0  0
   20.9025   -7.2273  -14.6922 C   0  0  0  0  0  0  0  0  0  0  0  0
   21.2998   -6.5133  -13.5696 O   0  0  0  0  0  0  0  0  0  0  0  0
   19.7882   -7.8263  -14.5999 O   0  0  0  0  0  0  0  0  0  0  0  0
  2  1  1  6
  2  3  1  0
  4  5  1  0
  4  2  1  0
  5  6  1  1
  7  5  1  0
  7  8  2  0
  9  7  1  0
 10  9  1  0
 10 11  1  1
 12 11  1  0
 12 13  1  0
 13 14  2  0
 15 10  1  0
 16 15  2  0
 17 13  1  0
 18 19  1  0
 19 21  1  0
 20 19  2  0
 22 21  1  6
 22 24  1  0
 22 23  1  0
 23 15  1  0
 24 25  1  0
 26 24  2  0
M  END
$$$$
