LEN.pdb
     RDKit          3D

 26 25  0  0  1  0  0  0  0  0999 V2000
   42.8869  -16.6147   -9.2397 C   0  0  0  0  0  0  0  0  0  0  0  0
   43.7179  -15.4139   -8.9503 C   0  0  1  0  0  0  0  0  0  0  0  0
   44.5849  -15.1579  -10.1892 C   0  0  0  0  0  0  0  0  0  0  0  0
   42.9723  -14.1531   -8.6853 C   0  0  0  0  0  0  0  0  0  0  0  0
   43.8510  -12.9322   -8.5158 C   0  0  2  0  0  0  0  0  0  0  0  0
   44.5243  -13.0997   -7.2396 N   0  0  0  0  0  0  0  0  0  0  0  0
   42.9064  -11.7771   -8.3498 C   0  0  0  0  0  0  0  0  0  0  0  0
   42.0541  -11.7209   -7.4305 O   0  0  0  0  0  0  0  0  0  0  0  0
   42.9517  -10.6654   -9.2693 N   0  0  0  0  0  0  0  0  0  0  0  0
   42.0604   -9.5446   -9.2046 C   0  0  1  0  0  0  0  0  0  0  0  0
   42.7342   -8.2767   -8.7370 C   0  0  0  0  0  0  0  0  0  0  0  0
   41.7992   -7.1094   -8.6298 C   0  0  0  0  0  0  0  0  0  0  0  0
   42.5077   -5.8874   -8.1723 C   0  0  0  0  0  0  0  0  0  0  0  0
   43.1790   -5.8529   -7.1288 O   0  0  0  0  0  0  0  0  0  0  0  0
   41.2992   -9.3469  -10.4680 C   0  0  0  0  0  0  0  0  0  0  0  0
   41.8930   -9.4065  -11.5937 O   0  0  0  0  0  0  0  0  0  0  0  0
   42.4010   -4.7509   -8.9578 O   0  0  0  0  0  0  0  0  0  0  0  0
   35.8634   -8.4036  -13.1082 N   0  0  0  0  0  0  0  0  0  0  0  0
   37.0938   -9.0611  -12.9758 C   0  0  0  0  0  0  0  0  0  0  0  0
   37.7044   -9.4735  -14.0203 O   0  0  0  0  0  0  0  0  0  0  0  0
   37.7493   -9.3143  -11.6675 C   0  0  0  0  0  0  0  0  0  0  0  0
   39.1646   -8.7763  -11.7005 C   0  0  2  0  0  0  0  0  0  0  0  0
   39.9025   -9.0852  -10.5176 N   0  0  0  0  0  0  0  0  0  0  0  0
   39.1538   -7.3413  -12.0505 C   0  0  0  0  0  0  0  0  0  0  0  0
   39.3231   -6.3023  -11.1452 O   0  0  0  0  0  0  0  0  0  0  0  0
   38.9795   -6.9978  -13.2591 O   0  0  0  0  0  0  0  0  0  0  0  0
  2  1  1  6
  2  3  1  0
  4  5  1  0
  4  2  1  0
  5  6  1  1
  7  5  1  0
  7  8  2  0
  9  7  1  0
 10  9  1  0
 10 11  1  6
 12 11  1  0
 12 13  1  0
 13 14  2  0
 15 10  1  0
 16 15  2  0
 17 13  1  0
 18 19  1  0
 19 21  1  0
 20 19  2  0
 22 21  1  1
 22 24  1  0
 22 23  1  0
 23 15  1  0
 24 25  1  0
 26 24  2  0
M  END
$$$$
