LEN.pdb
     RDKit          3D

 26 25  0  0  1  0  0  0  0  0999 V2000
   20.0360  -15.6338  -17.5939 C   0  0  0  0  0  0  0  0  0  0  0  0
   19.3090  -14.4296  -17.1063 C   0  0  1  0  0  0  0  0  0  0  0  0
   18.7026  -14.7910  -15.7448 C   0  0  0  0  0  0  0  0  0  0  0  0
   20.1359  -13.2103  -16.8933 C   0  0  0  0  0  0  0  0  0  0  0  0
   19.3643  -12.0159  -16.3741 C   0  0  2  0  0  0  0  0  0  0  0  0
   18.1462  -11.9546  -17.1631 N   0  0  0  0  0  0  0  0  0  0  0  0
   20.1792  -10.8142  -16.7560 C   0  0  0  0  0  0  0  0  0  0  0  0
   21.3420  -10.6156  -16.3277 O   0  0  0  0  0  0  0  0  0  0  0  0
   19.6337   -9.8230  -17.6523 N   0  0  0  0  0  0  0  0  0  0  0  0
   20.3383   -8.6405  -18.0523 C   0  0  1  0  0  0  0  0  0  0  0  0
   19.8440   -8.0687  -19.3596 C   0  0  0  0  0  0  0  0  0  0  0  0
   20.6003   -6.8519  -19.8020 C   0  0  0  0  0  0  0  0  0  0  0  0
   20.0267   -6.2796  -21.0462 C   0  0  0  0  0  0  0  0  0  0  0  0
   19.8763   -5.0593  -21.2154 O   0  0  0  0  0  0  0  0  0  0  0  0
   20.3944   -7.6170  -16.9735 C   0  0  0  0  0  0  0  0  0  0  0  0
   19.3471   -7.3217  -16.3108 O   0  0  0  0  0  0  0  0  0  0  0  0
   19.6510   -7.1628  -22.0457 O   0  0  0  0  0  0  0  0  0  0  0  0
   21.8130   -4.0074  -13.5876 N   0  0  0  0  0  0  0  0  0  0  0  0
   22.3900   -5.2642  -13.3605 C   0  0  0  0  0  0  0  0  0  0  0  0
   22.9744   -5.4984  -12.2482 O   0  0  0  0  0  0  0  0  0  0  0  0
   22.3639   -6.3677  -14.3541 C   0  0  0  0  0  0  0  0  0  0  0  0
   21.6548   -5.9000  -15.6079 C   0  0  2  0  0  0  0  0  0  0  0  0
   21.5757   -6.9137  -16.6106 N   0  0  0  0  0  0  0  0  0  0  0  0
   22.2407   -4.6278  -16.0774 C   0  0  0  0  0  0  0  0  0  0  0  0
   22.7861   -4.4226  -17.3376 O   0  0  0  0  0  0  0  0  0  0  0  0
   22.2629   -3.6284  -15.2966 O   0  0  0  0  0  0  0  0  0  0  0  0
  2  1  1  1
  2  3  1  0
  4  5  1  0
  4  2  1  0
  5  6  1  6
  7  5  1  0
  7  8  2  0
  9  7  1  0
 10  9  1  0
 10 11  1  6
 12 11  1  0
 12 13  1  0
 13 14  2  0
 15 10  1  0
 16 15  2  0
 17 13  1  0
 18 19  1  0
 19 21  1  0
 20 19  2  0
 22 21  1  1
 22 24  1  0
 22 23  1  0
 23 15  1  0
 24 25  1  0
 26 24  2  0
M  END
$$$$
