LEN.pdb
     RDKit          3D

 26 25  0  0  1  0  0  0  0  0999 V2000
   14.3924  -10.2375  -19.1938 C   0  0  0  0  0  0  0  0  0  0  0  0
   15.3032  -10.5837  -18.0683 C   0  0  1  0  0  0  0  0  0  0  0  0
   16.6318  -11.0349  -18.6874 C   0  0  0  0  0  0  0  0  0  0  0  0
   15.6269   -9.4768  -17.1271 C   0  0  0  0  0  0  0  0  0  0  0  0
   16.6021   -9.8536  -16.0323 C   0  0  2  0  0  0  0  0  0  0  0  0
   15.8567  -10.6853  -15.1035 N   0  0  0  0  0  0  0  0  0  0  0  0
   16.9066   -8.5745  -15.3076 C   0  0  0  0  0  0  0  0  0  0  0  0
   16.1836   -8.1254  -14.3854 O   0  0  0  0  0  0  0  0  0  0  0  0
   18.0731   -7.8011  -15.6604 N   0  0  0  0  0  0  0  0  0  0  0  0
   18.4966   -6.6324  -14.9467 C   0  0  1  0  0  0  0  0  0  0  0  0
   19.9972   -6.5310  -14.8113 C   0  0  0  0  0  0  0  0  0  0  0  0
   20.4513   -5.2700  -14.1389 C   0  0  0  0  0  0  0  0  0  0  0  0
   21.9323   -5.2014  -14.0584 C   0  0  0  0  0  0  0  0  0  0  0  0
   22.6621   -6.1776  -14.2929 O   0  0  0  0  0  0  0  0  0  0  0  0
   17.8925   -5.3838  -15.4859 C   0  0  0  0  0  0  0  0  0  0  0  0
   18.0216   -5.0859  -16.7180 O   0  0  0  0  0  0  0  0  0  0  0  0
   22.5009   -3.9882  -13.7051 O   0  0  0  0  0  0  0  0  0  0  0  0
   14.1405   -1.4340  -15.9519 N   0  0  0  0  0  0  0  0  0  0  0  0
   15.0076   -1.4079  -14.8514 C   0  0  0  0  0  0  0  0  0  0  0  0
   15.3321   -0.2867  -14.3302 O   0  0  0  0  0  0  0  0  0  0  0  0
   15.5867   -2.6297  -14.2371 C   0  0  0  0  0  0  0  0  0  0  0  0
   16.6297   -3.2149  -15.1663 C   0  0  2  0  0  0  0  0  0  0  0  0
   17.1521   -4.4593  -14.6994 N   0  0  0  0  0  0  0  0  0  0  0  0
   17.6603   -2.2023  -15.4738 C   0  0  0  0  0  0  0  0  0  0  0  0
   19.0109   -2.3292  -15.1777 O   0  0  0  0  0  0  0  0  0  0  0  0
   17.3204   -1.1253  -16.0513 O   0  0  0  0  0  0  0  0  0  0  0  0
  2  1  1  6
  2  3  1  0
  4  5  1  0
  4  2  1  0
  5  6  1  1
  7  5  1  0
  7  8  2  0
  9  7  1  0
 10  9  1  0
 10 11  1  6
 12 11  1  0
 12 13  1  0
 13 14  2  0
 15 10  1  0
 16 15  2  0
 17 13  1  0
 18 19  1  0
 19 21  1  0
 20 19  2  0
 22 21  1  1
 22 24  1  0
 22 23  1  0
 23 15  1  0
 24 25  1  0
 26 24  2  0
M  END
$$$$
