LEN.pdb
     RDKit          3D

 26 25  0  0  1  0  0  0  0  0999 V2000
   28.6292  -11.2889  -16.1254 C   0  0  0  0  0  0  0  0  0  0  0  0
   27.4024  -12.0213  -16.5435 C   0  0  1  0  0  0  0  0  0  0  0  0
   27.1572  -13.1195  -15.5014 C   0  0  0  0  0  0  0  0  0  0  0  0
   26.1532  -11.2149  -16.6132 C   0  0  0  0  0  0  0  0  0  0  0  0
   24.9382  -11.9856  -17.0839 C   0  0  2  0  0  0  0  0  0  0  0  0
   25.2347  -12.4063  -18.4422 N   0  0  0  0  0  0  0  0  0  0  0  0
   23.8340  -10.9733  -17.1837 C   0  0  0  0  0  0  0  0  0  0  0  0
   23.9801   -9.8588  -17.7417 O   0  0  0  0  0  0  0  0  0  0  0  0
   22.5346  -11.2600  -16.6245 N   0  0  0  0  0  0  0  0  0  0  0  0
   21.4162  -10.3681  -16.7164 C   0  0  1  0  0  0  0  0  0  0  0  0
   20.0867  -11.0641  -16.5476 C   0  0  0  0  0  0  0  0  0  0  0  0
   19.8943  -12.2177  -17.4860 C   0  0  0  0  0  0  0  0  0  0  0  0
   19.2169  -13.3557  -16.8145 C   0  0  0  0  0  0  0  0  0  0  0  0
   18.1196  -13.2415  -16.2459 O   0  0  0  0  0  0  0  0  0  0  0  0
   21.5529   -9.1868  -15.8219 C   0  0  0  0  0  0  0  0  0  0  0  0
   22.0174   -9.3219  -14.6432 O   0  0  0  0  0  0  0  0  0  0  0  0
   19.8544  -14.5858  -16.8360 O   0  0  0  0  0  0  0  0  0  0  0  0
   21.5378   -4.3428  -13.9257 N   0  0  0  0  0  0  0  0  0  0  0  0
   22.6374   -4.7737  -14.6801 C   0  0  0  0  0  0  0  0  0  0  0  0
   23.7395   -4.1297  -14.6135 O   0  0  0  0  0  0  0  0  0  0  0  0
   22.6025   -5.9600  -15.5728 C   0  0  0  0  0  0  0  0  0  0  0  0
   21.3045   -6.7113  -15.3617 C   0  0  2  0  0  0  0  0  0  0  0  0
   21.1895   -7.8642  -16.1966 N   0  0  0  0  0  0  0  0  0  0  0  0
   20.1600   -5.7818  -15.4513 C   0  0  0  0  0  0  0  0  0  0  0  0
   19.5247   -5.1980  -14.3635 O   0  0  0  0  0  0  0  0  0  0  0  0
   19.6986   -5.4724  -16.5917 O   0  0  0  0  0  0  0  0  0  0  0  0
  2  1  1  1
  2  3  1  0
  4  5  1  0
  4  2  1  0
  5  6  1  6
  7  5  1  0
  7  8  2  0
  9  7  1  0
 10  9  1  0
 10 11  1  1
 12 11  1  0
 12 13  1  0
 13 14  2  0
 15 10  1  0
 16 15  2  0
 17 13  1  0
 18 19  1  0
 19 21  1  0
 20 19  2  0
 22 21  1  6
 22 24  1  0
 22 23  1  0
 23 15  1  0
 24 25  1  0
 26 24  2  0
M  END
$$$$
