LEN.pdb
     RDKit          3D

 26 25  0  0  1  0  0  0  0  0999 V2000
   24.1200  -15.8594  -15.2809 C   0  0  0  0  0  0  0  0  0  0  0  0
   22.9239  -15.0717  -15.6871 C   0  0  1  0  0  0  0  0  0  0  0  0
   21.8058  -15.4067  -14.6922 C   0  0  0  0  0  0  0  0  0  0  0  0
   23.0805  -13.5916  -15.6682 C   0  0  0  0  0  0  0  0  0  0  0  0
   21.8078  -12.8255  -15.9600 C   0  0  2  0  0  0  0  0  0  0  0  0
   21.2454  -13.4279  -17.1562 N   0  0  0  0  0  0  0  0  0  0  0  0
   22.2501  -11.4441  -16.3472 C   0  0  0  0  0  0  0  0  0  0  0  0
   22.9086  -10.6998  -15.5809 O   0  0  0  0  0  0  0  0  0  0  0  0
   21.9212  -10.9157  -17.6495 N   0  0  0  0  0  0  0  0  0  0  0  0
   22.2298   -9.5790  -18.0652 C   0  0  1  0  0  0  0  0  0  0  0  0
   21.9372   -9.3292  -19.5254 C   0  0  0  0  0  0  0  0  0  0  0  0
   22.3497   -7.9649  -19.9912 C   0  0  0  0  0  0  0  0  0  0  0  0
   22.0749   -7.7800  -21.4386 C   0  0  0  0  0  0  0  0  0  0  0  0
   21.0772   -7.1731  -21.8591 O   0  0  0  0  0  0  0  0  0  0  0  0
   21.6160   -8.5504  -17.1822 C   0  0  0  0  0  0  0  0  0  0  0  0
   20.5428   -8.8062  -16.5449 O   0  0  0  0  0  0  0  0  0  0  0  0
   22.9826   -8.3154  -22.3383 O   0  0  0  0  0  0  0  0  0  0  0  0
   20.2598   -5.5464  -13.1618 N   0  0  0  0  0  0  0  0  0  0  0  0
   21.5663   -5.6858  -13.6491 C   0  0  0  0  0  0  0  0  0  0  0  0
   22.4697   -4.8616  -13.2772 O   0  0  0  0  0  0  0  0  0  0  0  0
   21.9776   -6.7567  -14.5923 C   0  0  0  0  0  0  0  0  0  0  0  0
   21.7058   -6.3084  -16.0131 C   0  0  2  0  0  0  0  0  0  0  0  0
   22.1572   -7.2501  -16.9872 N   0  0  0  0  0  0  0  0  0  0  0  0
   22.2119   -4.9357  -16.2174 C   0  0  0  0  0  0  0  0  0  0  0  0
   23.3474   -4.6088  -16.9463 O   0  0  0  0  0  0  0  0  0  0  0  0
   21.5861   -3.9598  -15.7027 O   0  0  0  0  0  0  0  0  0  0  0  0
  2  1  1  1
  2  3  1  0
  4  5  1  0
  4  2  1  0
  5  6  1  6
  7  5  1  0
  7  8  2  0
  9  7  1  0
 10  9  1  0
 10 11  1  6
 12 11  1  0
 12 13  1  0
 13 14  2  0
 15 10  1  0
 16 15  2  0
 17 13  1  0
 18 19  1  0
 19 21  1  0
 20 19  2  0
 22 21  1  1
 22 24  1  0
 22 23  1  0
 23 15  1  0
 24 25  1  0
 26 24  2  0
M  END
$$$$
