LEN.pdb
     RDKit          3D

 26 25  0  0  1  0  0  0  0  0999 V2000
   28.3661  -19.1720   -6.7115 C   0  0  0  0  0  0  0  0  0  0  0  0
   27.2964  -20.0726   -7.2223 C   0  0  1  0  0  0  0  0  0  0  0  0
   26.1318  -19.9972   -6.2272 C   0  0  0  0  0  0  0  0  0  0  0  0
   26.7371  -19.7287   -8.5582 C   0  0  0  0  0  0  0  0  0  0  0  0
   25.6522  -20.6675   -9.0411 C   0  0  2  0  0  0  0  0  0  0  0  0
   26.2248  -22.0013   -8.9839 N   0  0  0  0  0  0  0  0  0  0  0  0
   25.4627  -20.3482  -10.4958 C   0  0  0  0  0  0  0  0  0  0  0  0
   25.0220  -19.2446  -10.8992 O   0  0  0  0  0  0  0  0  0  0  0  0
   25.7907  -21.3294  -11.5024 N   0  0  0  0  0  0  0  0  0  0  0  0
   25.5702  -21.1324  -12.9050 C   0  0  1  0  0  0  0  0  0  0  0  0
   26.4393  -22.0121  -13.7716 C   0  0  0  0  0  0  0  0  0  0  0  0
   26.1715  -21.8547  -15.2386 C   0  0  0  0  0  0  0  0  0  0  0  0
   27.2755  -21.1292  -15.9165 C   0  0  0  0  0  0  0  0  0  0  0  0
   28.3281  -21.6860  -16.2663 O   0  0  0  0  0  0  0  0  0  0  0  0
   24.1314  -21.2201  -13.2746 C   0  0  0  0  0  0  0  0  0  0  0  0
   23.3691  -22.0637  -12.6997 O   0  0  0  0  0  0  0  0  0  0  0  0
   27.1016  -19.7758  -16.1581 O   0  0  0  0  0  0  0  0  0  0  0  0
   19.2090  -19.6396  -13.2740 N   0  0  0  0  0  0  0  0  0  0  0  0
   20.1346  -18.8453  -13.9638 C   0  0  0  0  0  0  0  0  0  0  0  0
   19.7184  -17.9795  -14.8071 O   0  0  0  0  0  0  0  0  0  0  0  0
   21.6037  -18.9477  -13.7720 C   0  0  0  0  0  0  0  0  0  0  0  0
   22.1089  -20.2201  -14.4196 C   0  0  2  0  0  0  0  0  0  0  0  0
   23.5165  -20.4014  -14.2612 N   0  0  0  0  0  0  0  0  0  0  0  0
   21.6418  -20.2971  -15.8188 C   0  0  0  0  0  0  0  0  0  0  0  0
   22.2046  -19.6049  -16.8827 O   0  0  0  0  0  0  0  0  0  0  0  0
   20.6555  -21.0418  -16.1045 O   0  0  0  0  0  0  0  0  0  0  0  0
  2  1  1  1
  2  3  1  0
  4  5  1  0
  4  2  1  0
  5  6  1  6
  7  5  1  0
  7  8  2  0
  9  7  1  0
 10  9  1  0
 10 11  1  6
 12 11  1  0
 12 13  1  0
 13 14  2  0
 15 10  1  0
 16 15  2  0
 17 13  1  0
 18 19  1  0
 19 21  1  0
 20 19  2  0
 22 21  1  6
 22 24  1  0
 22 23  1  0
 23 15  1  0
 24 25  1  0
 26 24  2  0
M  END
$$$$
