LEN.pdb
     RDKit          3D

 26 25  0  0  1  0  0  0  0  0999 V2000
   27.6244  -17.1968  -17.9993 C   0  0  0  0  0  0  0  0  0  0  0  0
   28.1732  -18.3485  -17.2320 C   0  0  1  0  0  0  0  0  0  0  0  0
   29.1948  -17.7812  -16.2387 C   0  0  0  0  0  0  0  0  0  0  0  0
   27.1891  -19.1272  -16.4316 C   0  0  0  0  0  0  0  0  0  0  0  0
   27.8067  -20.1781  -15.5339 C   0  0  2  0  0  0  0  0  0  0  0  0
   28.2426  -21.2481  -16.4144 N   0  0  0  0  0  0  0  0  0  0  0  0
   26.6712  -20.7312  -14.7224 C   0  0  0  0  0  0  0  0  0  0  0  0
   25.7880  -21.4792  -15.2076 O   0  0  0  0  0  0  0  0  0  0  0  0
   26.5581  -20.4096  -13.3198 N   0  0  0  0  0  0  0  0  0  0  0  0
   25.4525  -20.8099  -12.4999 C   0  0  1  0  0  0  0  0  0  0  0  0
   25.7014  -20.6018  -11.0251 C   0  0  0  0  0  0  0  0  0  0  0  0
   24.5345  -20.9828  -10.1640 C   0  0  0  0  0  0  0  0  0  0  0  0
   24.8741  -20.8957   -8.7212 C   0  0  0  0  0  0  0  0  0  0  0  0
   25.8993  -20.3323   -8.3067 O   0  0  0  0  0  0  0  0  0  0  0  0
   24.1651  -20.2113  -12.9454 C   0  0  0  0  0  0  0  0  0  0  0  0
   24.0948  -18.9704  -13.2261 O   0  0  0  0  0  0  0  0  0  0  0  0
   23.9961  -21.4744   -7.8187 O   0  0  0  0  0  0  0  0  0  0  0  0
   20.0943  -18.6569  -16.0903 N   0  0  0  0  0  0  0  0  0  0  0  0
   20.2728  -19.8963  -15.4611 C   0  0  0  0  0  0  0  0  0  0  0  0
   19.2554  -20.6269  -15.2064 O   0  0  0  0  0  0  0  0  0  0  0  0
   21.6012  -20.4275  -15.0628 C   0  0  0  0  0  0  0  0  0  0  0  0
   21.7173  -20.4134  -13.5528 C   0  0  2  0  0  0  0  0  0  0  0  0
   22.9571  -20.9477  -13.0873 N   0  0  0  0  0  0  0  0  0  0  0  0
   20.5232  -21.0365  -12.9464 C   0  0  0  0  0  0  0  0  0  0  0  0
   20.5258  -22.2262  -12.2306 O   0  0  0  0  0  0  0  0  0  0  0  0
   19.3956  -20.4687  -13.0696 O   0  0  0  0  0  0  0  0  0  0  0  0
  2  1  1  1
  2  3  1  0
  4  5  1  0
  4  2  1  0
  5  6  1  6
  7  5  1  0
  7  8  2  0
  9  7  1  0
 10  9  1  0
 10 11  1  1
 12 11  1  0
 12 13  1  0
 13 14  2  0
 15 10  1  0
 16 15  2  0
 17 13  1  0
 18 19  1  0
 19 21  1  0
 20 19  2  0
 22 21  1  6
 22 24  1  0
 22 23  1  0
 23 15  1  0
 24 25  1  0
 26 24  2  0
M  END
$$$$
