LEN.pdb
     RDKit          3D

 26 25  0  0  1  0  0  0  0  0999 V2000
   16.2838  -18.7627  -14.9296 C   0  0  0  0  0  0  0  0  0  0  0  0
   17.3033  -17.9197  -14.2468 C   0  0  1  0  0  0  0  0  0  0  0  0
   16.5452  -16.9490  -13.3330 C   0  0  0  0  0  0  0  0  0  0  0  0
   18.2765  -18.6436  -13.3840 C   0  0  0  0  0  0  0  0  0  0  0  0
   19.6734  -18.0603  -13.3935 C   0  0  2  0  0  0  0  0  0  0  0  0
   19.8447  -17.4574  -14.7039 N   0  0  0  0  0  0  0  0  0  0  0  0
   20.6015  -19.2393  -13.3432 C   0  0  0  0  0  0  0  0  0  0  0  0
   20.6180  -20.0530  -12.3881 O   0  0  0  0  0  0  0  0  0  0  0  0
   21.5293  -19.4783  -14.4228 N   0  0  0  0  0  0  0  0  0  0  0  0
   22.4643  -20.5647  -14.4403 C   0  0  1  0  0  0  0  0  0  0  0  0
   22.6336  -21.1799  -15.8089 C   0  0  0  0  0  0  0  0  0  0  0  0
   23.2183  -20.2375  -16.8180 C   0  0  0  0  0  0  0  0  0  0  0  0
   24.2815  -20.8934  -17.6204 C   0  0  0  0  0  0  0  0  0  0  0  0
   25.1365  -20.2524  -18.2518 O   0  0  0  0  0  0  0  0  0  0  0  0
   23.7673  -20.2068  -13.8169 C   0  0  0  0  0  0  0  0  0  0  0  0
   24.1960  -19.0079  -13.8640 O   0  0  0  0  0  0  0  0  0  0  0  0
   24.3005  -22.2787  -17.6514 O   0  0  0  0  0  0  0  0  0  0  0  0
   24.8672  -19.8943  -10.4188 N   0  0  0  0  0  0  0  0  0  0  0  0
   25.6899  -21.0253  -10.3309 C   0  0  0  0  0  0  0  0  0  0  0  0
   25.8936  -21.5704   -9.1929 O   0  0  0  0  0  0  0  0  0  0  0  0
   26.3555  -21.6458  -11.5046 C   0  0  0  0  0  0  0  0  0  0  0  0
   25.9600  -20.8988  -12.7613 C   0  0  2  0  0  0  0  0  0  0  0  0
   24.6056  -21.1384  -13.1453 N   0  0  0  0  0  0  0  0  0  0  0  0
   26.9466  -21.1490  -13.8318 C   0  0  0  0  0  0  0  0  0  0  0  0
   28.0689  -20.3686  -14.0750 O   0  0  0  0  0  0  0  0  0  0  0  0
   26.7869  -22.1425  -14.6042 O   0  0  0  0  0  0  0  0  0  0  0  0
  2  1  1  1
  2  3  1  0
  4  5  1  0
  4  2  1  0
  5  6  1  6
  7  5  1  0
  7  8  2  0
  9  7  1  0
 10  9  1  0
 10 11  1  6
 12 11  1  0
 12 13  1  0
 13 14  2  0
 15 10  1  0
 16 15  2  0
 17 13  1  0
 18 19  1  0
 19 21  1  0
 20 19  2  0
 22 21  1  1
 22 24  1  0
 22 23  1  0
 23 15  1  0
 24 25  1  0
 26 24  2  0
M  END
$$$$
