LEN.pdb
     RDKit          3D

 26 25  0  0  1  0  0  0  0  0999 V2000
   29.2745  -19.8932   -6.1482 C   0  0  0  0  0  0  0  0  0  0  0  0
   27.8676  -20.2266   -6.5030 C   0  0  1  0  0  0  0  0  0  0  0  0
   26.9669  -19.5196   -5.4827 C   0  0  0  0  0  0  0  0  0  0  0  0
   27.4125  -19.7852   -7.8497 C   0  0  0  0  0  0  0  0  0  0  0  0
   25.9833  -20.1599   -8.1794 C   0  0  2  0  0  0  0  0  0  0  0  0
   25.9067  -21.6034   -8.0364 N   0  0  0  0  0  0  0  0  0  0  0  0
   25.8188  -19.8682   -9.6429 C   0  0  0  0  0  0  0  0  0  0  0  0
   25.8969  -18.7100  -10.1197 O   0  0  0  0  0  0  0  0  0  0  0  0
   25.5579  -20.9420  -10.5715 N   0  0  0  0  0  0  0  0  0  0  0  0
   25.3482  -20.7442  -11.9757 C   0  0  1  0  0  0  0  0  0  0  0  0
   26.3456  -21.4842  -12.8347 C   0  0  0  0  0  0  0  0  0  0  0  0
   26.1847  -21.2154  -14.3011 C   0  0  0  0  0  0  0  0  0  0  0  0
   27.2281  -21.9097  -15.0973 C   0  0  0  0  0  0  0  0  0  0  0  0
   27.0202  -22.3429  -16.2417 O   0  0  0  0  0  0  0  0  0  0  0  0
   23.9427  -21.0096  -12.3861 C   0  0  0  0  0  0  0  0  0  0  0  0
   23.2764  -21.9450  -11.8343 O   0  0  0  0  0  0  0  0  0  0  0  0
   28.4772  -22.0694  -14.5191 O   0  0  0  0  0  0  0  0  0  0  0  0
   21.8934  -16.9364  -14.2970 N   0  0  0  0  0  0  0  0  0  0  0  0
   21.2773  -18.1341  -13.9101 C   0  0  0  0  0  0  0  0  0  0  0  0
   20.5897  -18.1707  -12.8333 O   0  0  0  0  0  0  0  0  0  0  0  0
   21.3745  -19.3934  -14.6913 C   0  0  0  0  0  0  0  0  0  0  0  0
   21.9104  -20.4970  -13.8033 C   0  0  2  0  0  0  0  0  0  0  0  0
   23.2578  -20.2694  -13.3885 N   0  0  0  0  0  0  0  0  0  0  0  0
   21.6856  -21.8123  -14.4372 C   0  0  0  0  0  0  0  0  0  0  0  0
   20.5938  -22.6346  -14.1931 O   0  0  0  0  0  0  0  0  0  0  0  0
   22.5334  -22.2530  -15.2714 O   0  0  0  0  0  0  0  0  0  0  0  0
  2  1  1  1
  2  3  1  0
  4  5  1  0
  4  2  1  0
  5  6  1  6
  7  5  1  0
  7  8  2  0
  9  7  1  0
 10  9  1  0
 10 11  1  6
 12 11  1  0
 12 13  1  0
 13 14  2  0
 15 10  1  0
 16 15  2  0
 17 13  1  0
 18 19  1  0
 19 21  1  0
 20 19  2  0
 22 21  1  6
 22 24  1  0
 22 23  1  0
 23 15  1  0
 24 25  1  0
 26 24  2  0
M  END
$$$$
