LEN.pdb
     RDKit          3D

 26 25  0  0  1  0  0  0  0  0999 V2000
   20.0501  -26.2970    4.3896 C   0  0  0  0  0  0  0  0  0  0  0  0
   20.1081  -27.7665    4.6209 C   0  0  1  0  0  0  0  0  0  0  0  0
   18.7382  -28.3370    4.2339 C   0  0  0  0  0  0  0  0  0  0  0  0
   21.1200  -28.5126    3.8240 C   0  0  0  0  0  0  0  0  0  0  0  0
   21.1283  -30.0067    4.0677 C   0  0  2  0  0  0  0  0  0  0  0  0
   21.1199  -30.1752    5.5105 N   0  0  0  0  0  0  0  0  0  0  0  0
   22.4697  -30.4841    3.5917 C   0  0  0  0  0  0  0  0  0  0  0  0
   22.8356  -30.4037    2.3940 O   0  0  0  0  0  0  0  0  0  0  0  0
   23.4049  -31.0666    4.5241 N   0  0  0  0  0  0  0  0  0  0  0  0
   24.6783  -31.6024    4.1415 C   0  0  1  0  0  0  0  0  0  0  0  0
   25.7404  -31.4216    5.1995 C   0  0  0  0  0  0  0  0  0  0  0  0
   27.0993  -31.8829    4.7650 C   0  0  0  0  0  0  0  0  0  0  0  0
   28.1259  -31.5945    5.7983 C   0  0  0  0  0  0  0  0  0  0  0  0
   29.3350  -31.8111    5.6206 O   0  0  0  0  0  0  0  0  0  0  0  0
   24.5864  -33.0103    3.6682 C   0  0  0  0  0  0  0  0  0  0  0  0
   23.6706  -33.7791    4.1081 O   0  0  0  0  0  0  0  0  0  0  0  0
   27.6934  -31.0623    7.0024 O   0  0  0  0  0  0  0  0  0  0  0  0
   22.2916  -36.5361    0.3508 N   0  0  0  0  0  0  0  0  0  0  0  0
   23.4873  -36.1905    0.9947 C   0  0  0  0  0  0  0  0  0  0  0  0
   24.3179  -37.1070    1.3173 O   0  0  0  0  0  0  0  0  0  0  0  0
   23.8598  -34.7933    1.3332 C   0  0  0  0  0  0  0  0  0  0  0  0
   25.2302  -34.7792    1.9777 C   0  0  2  0  0  0  0  0  0  0  0  0
   25.4793  -33.5875    2.7241 N   0  0  0  0  0  0  0  0  0  0  0  0
   26.2666  -35.0926    0.9729 C   0  0  0  0  0  0  0  0  0  0  0  0
   27.2976  -34.2391    0.6036 O   0  0  0  0  0  0  0  0  0  0  0  0
   26.2424  -36.2162    0.3848 O   0  0  0  0  0  0  0  0  0  0  0  0
  2  1  1  6
  2  3  1  0
  4  5  1  0
  4  2  1  0
  5  6  1  1
  7  5  1  0
  7  8  2  0
  9  7  1  0
 10  9  1  0
 10 11  1  1
 12 11  1  0
 12 13  1  0
 13 14  2  0
 15 10  1  0
 16 15  2  0
 17 13  1  0
 18 19  1  0
 19 21  1  0
 20 19  2  0
 22 21  1  6
 22 24  1  0
 22 23  1  0
 23 15  1  0
 24 25  1  0
 26 24  2  0
M  END
$$$$
