LEN.pdb
     RDKit          3D

 26 25  0  0  1  0  0  0  0  0999 V2000
   30.1161  -21.0834  -10.7959 C   0  0  0  0  0  0  0  0  0  0  0  0
   28.6717  -21.4309  -10.6991 C   0  0  1  0  0  0  0  0  0  0  0  0
   28.4038  -21.8392   -9.2453 C   0  0  0  0  0  0  0  0  0  0  0  0
   27.7147  -20.3358  -11.0165 C   0  0  0  0  0  0  0  0  0  0  0  0
   26.2588  -20.7486  -10.9780 C   0  0  2  0  0  0  0  0  0  0  0  0
   26.2475  -22.1883  -11.1710 N   0  0  0  0  0  0  0  0  0  0  0  0
   25.6387  -20.1499  -12.2072 C   0  0  0  0  0  0  0  0  0  0  0  0
   25.3733  -18.9277  -12.3100 O   0  0  0  0  0  0  0  0  0  0  0  0
   25.3199  -20.9864  -13.3395 N   0  0  0  0  0  0  0  0  0  0  0  0
   24.6928  -20.5011  -14.5337 C   0  0  1  0  0  0  0  0  0  0  0  0
   25.5831  -20.5910  -15.7501 C   0  0  0  0  0  0  0  0  0  0  0  0
   24.9238  -20.1108  -17.0082 C   0  0  0  0  0  0  0  0  0  0  0  0
   25.8411  -20.2069  -18.1718 C   0  0  0  0  0  0  0  0  0  0  0  0
   25.4634  -20.0240  -19.3399 O   0  0  0  0  0  0  0  0  0  0  0  0
   23.3561  -21.1126  -14.7657 C   0  0  0  0  0  0  0  0  0  0  0  0
   23.1764  -22.3594  -14.5745 O   0  0  0  0  0  0  0  0  0  0  0  0
   27.1684  -20.5145  -17.9196 O   0  0  0  0  0  0  0  0  0  0  0  0
   20.2287  -22.9346  -13.4488 N   0  0  0  0  0  0  0  0  0  0  0  0
   20.5109  -21.8225  -12.6442 C   0  0  0  0  0  0  0  0  0  0  0  0
   20.5079  -21.9470  -11.3721 O   0  0  0  0  0  0  0  0  0  0  0  0
   20.8214  -20.4763  -13.1892 C   0  0  0  0  0  0  0  0  0  0  0  0
   20.8907  -20.5483  -14.7004 C   0  0  2  0  0  0  0  0  0  0  0  0
   22.2171  -20.3825  -15.2029 N   0  0  0  0  0  0  0  0  0  0  0  0
   19.8975  -19.6324  -15.2979 C   0  0  0  0  0  0  0  0  0  0  0  0
   18.5538  -19.9296  -15.4821 O   0  0  0  0  0  0  0  0  0  0  0  0
   20.2661  -18.4810  -15.6817 O   0  0  0  0  0  0  0  0  0  0  0  0
  2  1  1  1
  2  3  1  0
  4  5  1  0
  4  2  1  0
  5  6  1  6
  7  5  1  0
  7  8  2  0
  9  7  1  0
 10  9  1  0
 10 11  1  6
 12 11  1  0
 12 13  1  0
 13 14  2  0
 15 10  1  0
 16 15  2  0
 17 13  1  0
 18 19  1  0
 19 21  1  0
 20 19  2  0
 22 21  1  1
 22 24  1  0
 22 23  1  0
 23 15  1  0
 24 25  1  0
 26 24  2  0
M  END
$$$$
