LEN.pdb
     RDKit          3D

 26 25  0  0  1  0  0  0  0  0999 V2000
   29.6919  -19.0241  -12.2625 C   0  0  0  0  0  0  0  0  0  0  0  0
   28.8971  -20.2825  -12.2958 C   0  0  1  0  0  0  0  0  0  0  0  0
   28.5982  -20.6642  -10.8408 C   0  0  0  0  0  0  0  0  0  0  0  0
   27.5846  -20.2067  -12.9937 C   0  0  0  0  0  0  0  0  0  0  0  0
   26.7991  -21.5008  -12.9882 C   0  0  2  0  0  0  0  0  0  0  0  0
   27.6104  -22.4625  -13.7142 N   0  0  0  0  0  0  0  0  0  0  0  0
   25.5883  -21.2396  -13.8365 C   0  0  0  0  0  0  0  0  0  0  0  0
   25.5658  -21.4469  -15.0739 O   0  0  0  0  0  0  0  0  0  0  0  0
   24.3795  -20.7272  -13.2367 N   0  0  0  0  0  0  0  0  0  0  0  0
   23.1675  -20.4954  -13.9662 C   0  0  1  0  0  0  0  0  0  0  0  0
   21.9262  -20.6597  -13.1223 C   0  0  0  0  0  0  0  0  0  0  0  0
   22.0043  -19.9517  -11.8028 C   0  0  0  0  0  0  0  0  0  0  0  0
   20.7992  -20.2122  -10.9755 C   0  0  0  0  0  0  0  0  0  0  0  0
   20.7685  -21.0830  -10.0915 O   0  0  0  0  0  0  0  0  0  0  0  0
   23.1828  -19.2022  -14.7025 C   0  0  0  0  0  0  0  0  0  0  0  0
   23.4590  -18.1177  -14.0936 O   0  0  0  0  0  0  0  0  0  0  0  0
   19.6745  -19.4398  -11.2178 O   0  0  0  0  0  0  0  0  0  0  0  0
   27.1181  -17.2336  -17.6104 N   0  0  0  0  0  0  0  0  0  0  0  0
   25.9673  -17.9736  -17.9136 C   0  0  0  0  0  0  0  0  0  0  0  0
   25.5451  -18.0180  -19.1192 O   0  0  0  0  0  0  0  0  0  0  0  0
   25.1890  -18.7281  -16.8984 C   0  0  0  0  0  0  0  0  0  0  0  0
   23.7189  -18.3923  -17.0387 C   0  0  2  0  0  0  0  0  0  0  0  0
   22.9008  -19.0787  -16.0906 N   0  0  0  0  0  0  0  0  0  0  0  0
   23.2917  -18.5618  -18.4426 C   0  0  0  0  0  0  0  0  0  0  0  0
   23.1580  -17.5296  -19.3615 O   0  0  0  0  0  0  0  0  0  0  0  0
   23.0193  -19.7233  -18.8734 O   0  0  0  0  0  0  0  0  0  0  0  0
  2  1  1  1
  2  3  1  0
  4  5  1  0
  4  2  1  0
  5  6  1  6
  7  5  1  0
  7  8  2  0
  9  7  1  0
 10  9  1  0
 10 11  1  1
 12 11  1  0
 12 13  1  0
 13 14  2  0
 15 10  1  0
 16 15  2  0
 17 13  1  0
 18 19  1  0
 19 21  1  0
 20 19  2  0
 22 21  1  6
 22 24  1  0
 22 23  1  0
 23 15  1  0
 24 25  1  0
 26 24  2  0
M  END
$$$$
