WNT.pdb
     RDKit          3D

 30 31  0  0  1  0  0  0  0  0999 V2000
    6.3907  -17.3920   24.6582 N   0  0  0  0  0  0  0  0  0  0  0  0
    7.5933  -16.6418   24.4692 C   0  0  1  0  0  0  0  0  0  0  0  0
    7.6618  -15.3860   25.2663 C   0  0  0  0  0  0  0  0  0  0  0  0
    7.0159  -14.2118   24.7009 C   0  0  0  0  0  0  0  0  0  0  0  0
    5.9951  -13.5002   25.2876 C   0  0  0  0  0  0  0  0  0  0  0  0
    5.6303  -12.4758   24.4697 N   0  0  0  0  0  0  0  0  0  0  0  0
    6.4001  -12.5163   23.3639 C   0  0  0  0  0  0  0  0  0  0  0  0
    6.4031  -11.6887   22.2618 C   0  0  0  0  0  0  0  0  0  0  0  0
    7.2944  -11.9251   21.2451 C   0  0  0  0  0  0  0  0  0  0  0  0
    8.1640  -12.9806   21.3479 C   0  0  0  0  0  0  0  0  0  0  0  0
    8.1549  -13.8048   22.4544 C   0  0  0  0  0  0  0  0  0  0  0  0
    7.2742  -13.6011   23.4969 C   0  0  0  0  0  0  0  0  0  0  0  0
    8.8077  -17.4998   24.6777 C   0  0  0  0  0  0  0  0  0  0  0  0
    8.8317  -18.3734   25.5955 O   0  0  0  0  0  0  0  0  0  0  0  0
   11.8565  -17.4328   20.7818 N   0  0  0  0  0  0  0  0  0  0  0  0
   11.8939  -18.1429   22.0032 C   0  0  0  0  0  0  0  0  0  0  0  0
   11.5191  -19.3407   21.9745 O   0  0  0  0  0  0  0  0  0  0  0  0
   12.3425  -17.5546   23.2805 C   0  0  0  0  0  0  0  0  0  0  0  0
   11.3177  -17.4655   24.3341 C   0  0  2  0  0  0  0  0  0  0  0  0
    9.9462  -17.3648   23.8704 N   0  0  0  0  0  0  0  0  0  0  0  0
   11.5706  -16.7325   25.5582 C   0  0  0  0  0  0  0  0  0  0  0  0
   12.5481  -15.8819   25.4817 O   0  0  0  0  0  0  0  0  0  0  0  0
   10.6385  -13.7782   27.3622 C   0  0  0  0  0  0  0  0  0  0  0  0
   10.4722  -14.9683   28.2622 C   0  0  1  0  0  0  0  0  0  0  0  0
    9.2069  -15.5512   28.1880 O   0  0  0  0  0  0  0  0  0  0  0  0
   11.4731  -16.0688   27.9818 C   0  0  2  0  0  0  0  0  0  0  0  0
   10.9408  -16.7925   26.8083 N   0  0  0  0  0  0  0  0  0  0  0  0
   11.4815  -16.9737   29.1559 C   0  0  0  0  0  0  0  0  0  0  0  0
   11.9795  -16.5971   30.3707 O   0  0  0  0  0  0  0  0  0  0  0  0
   11.0145  -18.1397   29.0470 O   0  0  0  0  0  0  0  0  0  0  0  0
  2 13  1  0
  2  1  1  1
  2  3  1  0
  4  3  1  0
  4 12  1  0
  5  6  1  0
  5  4  2  0
  6  7  1  0
  7  8  1  0
  7 12  2  0
  8  9  2  0
  9 10  1  0
 11 10  2  0
 12 11  1  0
 13 14  2  0
 15 16  1  0
 16 18  1  0
 17 16  2  0
 19 18  1  6
 19 21  1  0
 20 19  1  0
 20 13  1  0
 21 22  2  0
 21 27  1  0
 24 23  1  6
 24 26  1  0
 24 25  1  0
 26 28  1  0
 26 27  1  6
 28 30  2  0
 28 29  1  0
M  END
$$$$
