WNT.pdb
     RDKit          3D

 30 31  0  0  1  0  0  0  0  0999 V2000
    6.5991  -17.6609   23.9891 N   0  0  0  0  0  0  0  0  0  0  0  0
    7.2363  -16.4311   23.6336 C   0  0  1  0  0  0  0  0  0  0  0  0
    7.9411  -15.7600   24.7606 C   0  0  0  0  0  0  0  0  0  0  0  0
    7.1548  -14.8520   25.5809 C   0  0  0  0  0  0  0  0  0  0  0  0
    5.9794  -15.1681   26.2220 C   0  0  0  0  0  0  0  0  0  0  0  0
    5.5168  -14.0726   26.8833 N   0  0  0  0  0  0  0  0  0  0  0  0
    6.3760  -13.0545   26.6780 C   0  0  0  0  0  0  0  0  0  0  0  0
    6.3330  -11.7579   27.1436 C   0  0  0  0  0  0  0  0  0  0  0  0
    7.3374  -10.8868   26.8026 C   0  0  0  0  0  0  0  0  0  0  0  0
    8.3633  -11.3255   26.0052 C   0  0  0  0  0  0  0  0  0  0  0  0
    8.3992  -12.6250   25.5427 C   0  0  0  0  0  0  0  0  0  0  0  0
    7.4087  -13.5308   25.8624 C   0  0  0  0  0  0  0  0  0  0  0  0
    8.1339  -16.6083   22.4430 C   0  0  0  0  0  0  0  0  0  0  0  0
    8.7286  -17.7089   22.2403 O   0  0  0  0  0  0  0  0  0  0  0  0
    7.1419  -13.0795   18.9652 N   0  0  0  0  0  0  0  0  0  0  0  0
    7.8285  -14.3139   18.9170 C   0  0  0  0  0  0  0  0  0  0  0  0
    7.2251  -15.2780   18.3855 O   0  0  0  0  0  0  0  0  0  0  0  0
    9.1898  -14.5165   19.4504 C   0  0  0  0  0  0  0  0  0  0  0  0
    9.3263  -15.5829   20.4566 C   0  0  2  0  0  0  0  0  0  0  0  0
    8.3420  -15.5709   21.5229 N   0  0  0  0  0  0  0  0  0  0  0  0
   10.6332  -16.0439   20.8798 C   0  0  0  0  0  0  0  0  0  0  0  0
   11.4505  -15.0962   21.2246 O   0  0  0  0  0  0  0  0  0  0  0  0
   12.1176  -18.5147   23.7029 C   0  0  0  0  0  0  0  0  0  0  0  0
   12.4922  -18.8155   22.2806 C   0  0  1  0  0  0  0  0  0  0  0  0
   11.6217  -19.7054   21.6508 O   0  0  0  0  0  0  0  0  0  0  0  0
   12.5532  -17.5793   21.4089 C   0  0  2  0  0  0  0  0  0  0  0  0
   11.1616  -17.3381   20.9737 N   0  0  0  0  0  0  0  0  0  0  0  0
   13.3882  -17.9067   20.2286 C   0  0  0  0  0  0  0  0  0  0  0  0
   14.7427  -18.0641   20.3074 O   0  0  0  0  0  0  0  0  0  0  0  0
   12.8436  -18.0494   19.1005 O   0  0  0  0  0  0  0  0  0  0  0  0
  2 13  1  0
  2  1  1  1
  2  3  1  0
  4  3  1  0
  4 12  1  0
  5  6  1  0
  5  4  2  0
  6  7  1  0
  7  8  1  0
  7 12  2  0
  8  9  2  0
  9 10  1  0
 11 10  2  0
 12 11  1  0
 13 14  2  0
 15 16  1  0
 16 18  1  0
 17 16  2  0
 19 18  1  1
 19 21  1  0
 20 19  1  0
 20 13  1  0
 21 22  2  0
 21 27  1  0
 24 23  1  1
 24 26  1  0
 24 25  1  0
 26 28  1  0
 26 27  1  6
 28 30  2  0
 28 29  1  0
M  END
$$$$
