WNT.pdb
     RDKit          3D

 30 31  0  0  1  0  0  0  0  0999 V2000
    8.0030  -16.0947   22.9636 N   0  0  0  0  0  0  0  0  0  0  0  0
    8.8177  -15.6241   24.0404 C   0  0  1  0  0  0  0  0  0  0  0  0
    8.1335  -15.6089   25.3629 C   0  0  0  0  0  0  0  0  0  0  0  0
    6.9593  -14.7595   25.4864 C   0  0  0  0  0  0  0  0  0  0  0  0
    5.6624  -15.2012   25.6111 C   0  0  0  0  0  0  0  0  0  0  0  0
    4.8261  -14.1306   25.6888 N   0  0  0  0  0  0  0  0  0  0  0  0
    5.5641  -13.0050   25.6156 C   0  0  0  0  0  0  0  0  0  0  0  0
    5.1655  -11.6862   25.6540 C   0  0  0  0  0  0  0  0  0  0  0  0
    6.1106  -10.6947   25.5660 C   0  0  0  0  0  0  0  0  0  0  0  0
    7.4326  -11.0378   25.4418 C   0  0  0  0  0  0  0  0  0  0  0  0
    7.8239  -12.3605   25.4039 C   0  0  0  0  0  0  0  0  0  0  0  0
    6.9048  -13.3861   25.4888 C   0  0  0  0  0  0  0  0  0  0  0  0
   10.1231  -16.3639   24.0980 C   0  0  0  0  0  0  0  0  0  0  0  0
   10.5749  -16.7920   25.2019 O   0  0  0  0  0  0  0  0  0  0  0  0
   13.4159  -14.7243   20.6629 N   0  0  0  0  0  0  0  0  0  0  0  0
   12.5958  -15.8703   20.7707 C   0  0  0  0  0  0  0  0  0  0  0  0
   11.5338  -15.8726   20.1013 O   0  0  0  0  0  0  0  0  0  0  0  0
   12.9230  -17.0365   21.6143 C   0  0  0  0  0  0  0  0  0  0  0  0
   12.2489  -17.0840   22.9226 C   0  0  2  0  0  0  0  0  0  0  0  0
   10.8794  -16.6042   22.9420 N   0  0  0  0  0  0  0  0  0  0  0  0
   12.9764  -16.8088   24.1451 C   0  0  0  0  0  0  0  0  0  0  0  0
   14.0925  -16.1689   23.9725 O   0  0  0  0  0  0  0  0  0  0  0  0
   11.9969  -15.2927   27.7967 C   0  0  0  0  0  0  0  0  0  0  0  0
   12.7322  -16.6016   27.7991 C   0  0  1  0  0  0  0  0  0  0  0  0
   11.8919  -17.7132   27.8649 O   0  0  0  0  0  0  0  0  0  0  0  0
   13.6081  -16.7923   26.5792 C   0  0  2  0  0  0  0  0  0  0  0  0
   12.6792  -17.1220   25.4780 N   0  0  0  0  0  0  0  0  0  0  0  0
   14.4918  -17.9532   26.8418 C   0  0  0  0  0  0  0  0  0  0  0  0
   15.4595  -17.9370   27.8056 O   0  0  0  0  0  0  0  0  0  0  0  0
   14.3587  -19.0045   26.1587 O   0  0  0  0  0  0  0  0  0  0  0  0
  2 13  1  0
  2  1  1  6
  2  3  1  0
  4  3  1  0
  4 12  1  0
  5  6  1  0
  5  4  2  0
  6  7  1  0
  7  8  1  0
  7 12  2  0
  8  9  2  0
  9 10  1  0
 11 10  2  0
 12 11  1  0
 13 14  2  0
 15 16  1  0
 16 18  1  0
 17 16  2  0
 19 18  1  6
 19 21  1  0
 20 19  1  0
 20 13  1  0
 21 22  2  0
 21 27  1  0
 24 23  1  6
 24 26  1  0
 24 25  1  0
 26 28  1  0
 26 27  1  6
 28 30  2  0
 28 29  1  0
M  END
$$$$
