WNT.pdb
     RDKit          3D

 30 31  0  0  1  0  0  0  0  0999 V2000
    6.5808  -17.3470   23.6063 N   0  0  0  0  0  0  0  0  0  0  0  0
    7.6546  -16.4044   23.5510 C   0  0  1  0  0  0  0  0  0  0  0  0
    8.0487  -15.8487   24.8750 C   0  0  0  0  0  0  0  0  0  0  0  0
    7.1300  -14.9048   25.4922 C   0  0  0  0  0  0  0  0  0  0  0  0
    5.9500  -15.2313   26.1194 C   0  0  0  0  0  0  0  0  0  0  0  0
    5.3458  -14.0961   26.5643 N   0  0  0  0  0  0  0  0  0  0  0  0
    6.1183  -13.0423   26.2330 C   0  0  0  0  0  0  0  0  0  0  0  0
    5.9251  -11.6987   26.4719 C   0  0  0  0  0  0  0  0  0  0  0  0
    6.8643  -10.7963   26.0387 C   0  0  0  0  0  0  0  0  0  0  0  0
    7.9760  -11.2514   25.3769 C   0  0  0  0  0  0  0  0  0  0  0  0
    8.1622  -12.5981   25.1414 C   0  0  0  0  0  0  0  0  0  0  0  0
    7.2415  -13.5366   25.5600 C   0  0  0  0  0  0  0  0  0  0  0  0
    8.8337  -16.9663   22.8104 C   0  0  0  0  0  0  0  0  0  0  0  0
    9.0712  -18.2112   22.8232 O   0  0  0  0  0  0  0  0  0  0  0  0
   12.9341  -17.1326   18.7921 N   0  0  0  0  0  0  0  0  0  0  0  0
   12.8084  -16.2561   19.8936 C   0  0  0  0  0  0  0  0  0  0  0  0
   13.8733  -15.8601   20.4277 O   0  0  0  0  0  0  0  0  0  0  0  0
   11.5133  -15.7960   20.4319 C   0  0  0  0  0  0  0  0  0  0  0  0
   11.0235  -16.5207   21.6165 C   0  0  2  0  0  0  0  0  0  0  0  0
    9.7041  -16.1397   22.0856 N   0  0  0  0  0  0  0  0  0  0  0  0
   11.9285  -16.9041   22.6811 C   0  0  0  0  0  0  0  0  0  0  0  0
   12.3208  -15.9205   23.4319 O   0  0  0  0  0  0  0  0  0  0  0  0
   11.9470  -19.7322   25.6937 C   0  0  0  0  0  0  0  0  0  0  0  0
   13.0905  -19.7037   24.7214 C   0  0  1  0  0  0  0  0  0  0  0  0
   12.9052  -20.5367   23.6177 O   0  0  0  0  0  0  0  0  0  0  0  0
   13.3720  -18.3195   24.1768 C   0  0  2  0  0  0  0  0  0  0  0  0
   12.4532  -18.1553   23.0310 N   0  0  0  0  0  0  0  0  0  0  0  0
   14.7723  -18.3080   23.6904 C   0  0  0  0  0  0  0  0  0  0  0  0
   15.8442  -18.3736   24.5344 O   0  0  0  0  0  0  0  0  0  0  0  0
   15.0011  -18.2354   22.4527 O   0  0  0  0  0  0  0  0  0  0  0  0
  2 13  1  0
  2  1  1  1
  2  3  1  0
  4  3  1  0
  4 12  1  0
  5  6  1  0
  5  4  2  0
  6  7  1  0
  7  8  1  0
  7 12  2  0
  8  9  2  0
  9 10  1  0
 11 10  2  0
 12 11  1  0
 13 14  2  0
 15 16  1  0
 16 18  1  0
 17 16  2  0
 19 18  1  1
 19 21  1  0
 20 19  1  0
 20 13  1  0
 21 22  2  0
 21 27  1  0
 24 23  1  1
 24 26  1  0
 24 25  1  0
 26 28  1  0
 26 27  1  6
 28 30  2  0
 28 29  1  0
M  END
$$$$
