WNT.pdb
     RDKit          3D

 30 31  0  0  1  0  0  0  0  0999 V2000
    6.1329  -17.2698   25.2298 N   0  0  0  0  0  0  0  0  0  0  0  0
    7.2814  -16.5526   24.7701 C   0  0  1  0  0  0  0  0  0  0  0  0
    7.4390  -15.2002   25.3729 C   0  0  0  0  0  0  0  0  0  0  0  0
    6.8693  -14.0818   24.6379 C   0  0  0  0  0  0  0  0  0  0  0  0
    5.9029  -13.2240   25.1097 C   0  0  0  0  0  0  0  0  0  0  0  0
    5.6018  -12.3098   24.1480 N   0  0  0  0  0  0  0  0  0  0  0  0
    6.3592  -12.5653   23.0627 C   0  0  0  0  0  0  0  0  0  0  0  0
    6.4098  -11.9122   21.8500 C   0  0  0  0  0  0  0  0  0  0  0  0
    7.2760  -12.3560   20.8822 C   0  0  0  0  0  0  0  0  0  0  0  0
    8.0735  -13.4409   21.1427 C   0  0  0  0  0  0  0  0  0  0  0  0
    8.0170  -14.0897   22.3592 C   0  0  0  0  0  0  0  0  0  0  0  0
    7.1595  -13.6750   23.3575 C   0  0  0  0  0  0  0  0  0  0  0  0
    8.5295  -17.3748   24.9145 C   0  0  0  0  0  0  0  0  0  0  0  0
    8.6701  -18.1696   25.8916 O   0  0  0  0  0  0  0  0  0  0  0  0
   13.5856  -19.3545   23.4252 N   0  0  0  0  0  0  0  0  0  0  0  0
   13.2489  -17.9828   23.3738 C   0  0  0  0  0  0  0  0  0  0  0  0
   14.1811  -17.1628   23.5600 O   0  0  0  0  0  0  0  0  0  0  0  0
   11.8841  -17.4824   23.1176 C   0  0  0  0  0  0  0  0  0  0  0  0
   10.9802  -17.4770   24.2800 C   0  0  2  0  0  0  0  0  0  0  0  0
    9.5723  -17.2918   23.9808 N   0  0  0  0  0  0  0  0  0  0  0  0
   11.3882  -16.8831   25.5372 C   0  0  0  0  0  0  0  0  0  0  0  0
   12.1842  -15.8649   25.4160 O   0  0  0  0  0  0  0  0  0  0  0  0
   10.2988  -14.3821   27.5776 C   0  0  0  0  0  0  0  0  0  0  0  0
   10.4978  -15.5733   28.4694 C   0  0  1  0  0  0  0  0  0  0  0  0
    9.3625  -16.3749   28.5909 O   0  0  0  0  0  0  0  0  0  0  0  0
   11.6200  -16.4788   28.0084 C   0  0  2  0  0  0  0  0  0  0  0  0
   11.0716  -17.2271   26.8580 N   0  0  0  0  0  0  0  0  0  0  0  0
   11.9146  -17.4217   29.1136 C   0  0  0  0  0  0  0  0  0  0  0  0
   11.5837  -18.7458   29.0580 O   0  0  0  0  0  0  0  0  0  0  0  0
   12.4929  -17.0025   30.1525 O   0  0  0  0  0  0  0  0  0  0  0  0
  2 13  1  0
  2  1  1  1
  2  3  1  0
  4  3  1  0
  4 12  1  0
  5  6  1  0
  5  4  2  0
  6  7  1  0
  7  8  1  0
  7 12  2  0
  8  9  2  0
  9 10  1  0
 11 10  2  0
 12 11  1  0
 13 14  2  0
 15 16  1  0
 16 18  1  0
 17 16  2  0
 19 18  1  6
 19 21  1  0
 20 19  1  0
 20 13  1  0
 21 22  2  0
 21 27  1  0
 24 23  1  6
 24 26  1  0
 24 25  1  0
 26 28  1  0
 26 27  1  6
 28 30  2  0
 28 29  1  0
M  END
$$$$
