WNT.pdb
     RDKit          3D

 30 31  0  0  1  0  0  0  0  0999 V2000
    7.0169  -17.2409   23.5493 N   0  0  0  0  0  0  0  0  0  0  0  0
    8.1139  -16.3876   23.8854 C   0  0  1  0  0  0  0  0  0  0  0  0
    8.0857  -15.8784   25.2844 C   0  0  0  0  0  0  0  0  0  0  0  0
    7.0386  -14.9250   25.6165 C   0  0  0  0  0  0  0  0  0  0  0  0
    5.7576  -15.2461   26.0016 C   0  0  0  0  0  0  0  0  0  0  0  0
    5.0511  -14.1035   26.2180 N   0  0  0  0  0  0  0  0  0  0  0  0
    5.8572  -13.0501   25.9778 C   0  0  0  0  0  0  0  0  0  0  0  0
    5.5925  -11.7003   26.0649 C   0  0  0  0  0  0  0  0  0  0  0  0
    6.5861  -10.7995   25.7727 C   0  0  0  0  0  0  0  0  0  0  0  0
    7.8222  -11.2622   25.4002 C   0  0  0  0  0  0  0  0  0  0  0  0
    8.0795  -12.6151   25.3152 C   0  0  0  0  0  0  0  0  0  0  0  0
    7.1077  -13.5524   25.5999 C   0  0  0  0  0  0  0  0  0  0  0  0
    9.4276  -17.0358   23.5559 C   0  0  0  0  0  0  0  0  0  0  0  0
    9.5984  -18.2784   23.7371 O   0  0  0  0  0  0  0  0  0  0  0  0
   12.1156  -14.9791   20.2223 N   0  0  0  0  0  0  0  0  0  0  0  0
   12.5592  -16.0418   21.0415 C   0  0  0  0  0  0  0  0  0  0  0  0
   12.6824  -17.1655   20.4954 O   0  0  0  0  0  0  0  0  0  0  0  0
   12.8767  -15.8945   22.4755 C   0  0  0  0  0  0  0  0  0  0  0  0
   11.8932  -16.4721   23.4070 C   0  0  2  0  0  0  0  0  0  0  0  0
   10.5003  -16.2943   23.0405 N   0  0  0  0  0  0  0  0  0  0  0  0
   12.1228  -16.4531   24.8375 C   0  0  0  0  0  0  0  0  0  0  0  0
   13.3639  -16.6112   25.1837 O   0  0  0  0  0  0  0  0  0  0  0  0
   10.9090  -13.8289   27.5316 C   0  0  0  0  0  0  0  0  0  0  0  0
   10.7452  -15.2502   27.9866 C   0  0  1  0  0  0  0  0  0  0  0  0
    9.4613  -15.7565   27.7830 O   0  0  0  0  0  0  0  0  0  0  0  0
   11.7008  -16.2056   27.3042 C   0  0  2  0  0  0  0  0  0  0  0  0
   11.2302  -16.2982   25.9063 N   0  0  0  0  0  0  0  0  0  0  0  0
   11.5554  -17.5266   27.9610 C   0  0  0  0  0  0  0  0  0  0  0  0
   11.9736  -17.7617   29.2398 O   0  0  0  0  0  0  0  0  0  0  0  0
   11.0272  -18.4814   27.3294 O   0  0  0  0  0  0  0  0  0  0  0  0
  2 13  1  0
  2  1  1  1
  2  3  1  0
  4  3  1  0
  4 12  1  0
  5  6  1  0
  5  4  2  0
  6  7  1  0
  7  8  1  0
  7 12  2  0
  8  9  2  0
  9 10  1  0
 11 10  2  0
 12 11  1  0
 13 14  2  0
 15 16  1  0
 16 18  1  0
 17 16  2  0
 19 18  1  6
 19 21  1  0
 20 19  1  0
 20 13  1  0
 21 22  2  0
 21 27  1  0
 24 23  1  6
 24 26  1  0
 24 25  1  0
 26 28  1  0
 26 27  1  6
 28 30  2  0
 28 29  1  0
M  END
$$$$
