WNT.pdb
     RDKit          3D

 30 31  0  0  1  0  0  0  0  0999 V2000
    6.1010  -17.8473   24.5559 N   0  0  0  0  0  0  0  0  0  0  0  0
    6.9377  -16.7011   24.3805 C   0  0  1  0  0  0  0  0  0  0  0  0
    7.3860  -16.0713   25.6532 C   0  0  0  0  0  0  0  0  0  0  0  0
    6.5932  -14.9583   26.1514 C   0  0  0  0  0  0  0  0  0  0  0  0
    5.4132  -15.0665   26.8501 C   0  0  0  0  0  0  0  0  0  0  0  0
    4.9452  -13.8227   27.1420 N   0  0  0  0  0  0  0  0  0  0  0  0
    5.8056  -12.9136   26.6416 C   0  0  0  0  0  0  0  0  0  0  0  0
    5.7587  -11.5369   26.6888 C   0  0  0  0  0  0  0  0  0  0  0  0
    6.7652  -10.8089   26.1051 C   0  0  0  0  0  0  0  0  0  0  0  0
    7.7973  -11.4674   25.4870 C   0  0  0  0  0  0  0  0  0  0  0  0
    7.8371  -12.8460   25.4437 C   0  0  0  0  0  0  0  0  0  0  0  0
    6.8446  -13.6136   26.0178 C   0  0  0  0  0  0  0  0  0  0  0  0
    8.0945  -17.0062   23.4732 C   0  0  0  0  0  0  0  0  0  0  0  0
    8.6521  -18.1440   23.4976 O   0  0  0  0  0  0  0  0  0  0  0  0
    8.6525  -13.0008   20.6944 N   0  0  0  0  0  0  0  0  0  0  0  0
    9.0904  -14.3310   20.5033 C   0  0  0  0  0  0  0  0  0  0  0  0
    8.4158  -15.0430   19.7197 O   0  0  0  0  0  0  0  0  0  0  0  0
   10.2760  -14.9074   21.1673 C   0  0  0  0  0  0  0  0  0  0  0  0
    9.9956  -15.8346   22.2763 C   0  0  2  0  0  0  0  0  0  0  0  0
    8.5921  -16.0507   22.5757 N   0  0  0  0  0  0  0  0  0  0  0  0
   10.8504  -15.8764   23.4456 C   0  0  0  0  0  0  0  0  0  0  0  0
   12.1154  -15.7368   23.1903 O   0  0  0  0  0  0  0  0  0  0  0  0
   10.8387  -13.9833   26.9767 C   0  0  0  0  0  0  0  0  0  0  0  0
   10.9687  -15.4760   27.0709 C   0  0  1  0  0  0  0  0  0  0  0  0
    9.7536  -16.1299   27.2760 O   0  0  0  0  0  0  0  0  0  0  0  0
   11.5917  -16.0963   25.8385 C   0  0  2  0  0  0  0  0  0  0  0  0
   10.5402  -16.0470   24.8012 N   0  0  0  0  0  0  0  0  0  0  0  0
   11.9010  -17.5102   26.1588 C   0  0  0  0  0  0  0  0  0  0  0  0
   12.8544  -17.8659   27.0700 O   0  0  0  0  0  0  0  0  0  0  0  0
   11.2691  -18.4333   25.5772 O   0  0  0  0  0  0  0  0  0  0  0  0
  2 13  1  0
  2  1  1  1
  2  3  1  0
  4  3  1  0
  4 12  1  0
  5  6  1  0
  5  4  2  0
  6  7  1  0
  7  8  1  0
  7 12  2  0
  8  9  2  0
  9 10  1  0
 11 10  2  0
 12 11  1  0
 13 14  2  0
 15 16  1  0
 16 18  1  0
 17 16  2  0
 19 18  1  1
 19 21  1  0
 20 19  1  0
 20 13  1  0
 21 22  2  0
 21 27  1  0
 24 23  1  6
 24 26  1  0
 24 25  1  0
 26 28  1  0
 26 27  1  6
 28 30  2  0
 28 29  1  0
M  END
$$$$
