WNT.pdb
     RDKit          3D

 30 31  0  0  1  0  0  0  0  0999 V2000
    6.2298  -17.5980   23.7920 N   0  0  0  0  0  0  0  0  0  0  0  0
    7.2351  -16.6673   23.3822 C   0  0  1  0  0  0  0  0  0  0  0  0
    7.9938  -16.0531   24.5066 C   0  0  0  0  0  0  0  0  0  0  0  0
    7.2544  -15.1690   25.3940 C   0  0  0  0  0  0  0  0  0  0  0  0
    6.2651  -15.5575   26.2674 C   0  0  0  0  0  0  0  0  0  0  0  0
    5.7880  -14.4655   26.9241 N   0  0  0  0  0  0  0  0  0  0  0  0
    6.4545  -13.3784   26.4871 C   0  0  0  0  0  0  0  0  0  0  0  0
    6.3249  -12.0574   26.8583 C   0  0  0  0  0  0  0  0  0  0  0  0
    7.1280  -11.1115   26.2714 C   0  0  0  0  0  0  0  0  0  0  0  0
    8.0431  -11.5016   25.3273 C   0  0  0  0  0  0  0  0  0  0  0  0
    8.1668  -12.8260   24.9608 C   0  0  0  0  0  0  0  0  0  0  0  0
    7.3780  -13.8066   25.5267 C   0  0  0  0  0  0  0  0  0  0  0  0
    8.1512  -17.2726   22.3581 C   0  0  0  0  0  0  0  0  0  0  0  0
    8.3791  -18.5192   22.3515 O   0  0  0  0  0  0  0  0  0  0  0  0
    9.5347  -17.6610   17.6763 N   0  0  0  0  0  0  0  0  0  0  0  0
    9.4262  -16.4887   18.4584 C   0  0  0  0  0  0  0  0  0  0  0  0
    8.4573  -15.7298   18.2112 O   0  0  0  0  0  0  0  0  0  0  0  0
   10.3773  -16.1248   19.5269 C   0  0  0  0  0  0  0  0  0  0  0  0
   10.1082  -16.7189   20.8471 C   0  0  2  0  0  0  0  0  0  0  0  0
    8.7796  -16.4855   21.3826 N   0  0  0  0  0  0  0  0  0  0  0  0
   11.1404  -16.7747   21.8625 C   0  0  0  0  0  0  0  0  0  0  0  0
   12.1027  -15.9196   21.6965 O   0  0  0  0  0  0  0  0  0  0  0  0
   11.6095  -16.5368   25.9297 C   0  0  0  0  0  0  0  0  0  0  0  0
   12.0154  -17.8065   25.2390 C   0  0  1  0  0  0  0  0  0  0  0  0
   10.9947  -18.7550   25.1704 O   0  0  0  0  0  0  0  0  0  0  0  0
   12.4953  -17.5832   23.8207 C   0  0  2  0  0  0  0  0  0  0  0  0
   11.2748  -17.5990   22.9874 N   0  0  0  0  0  0  0  0  0  0  0  0
   13.3559  -18.7334   23.4548 C   0  0  0  0  0  0  0  0  0  0  0  0
   14.5882  -18.9347   24.0085 O   0  0  0  0  0  0  0  0  0  0  0  0
   12.9504  -19.5681   22.6014 O   0  0  0  0  0  0  0  0  0  0  0  0
  2 13  1  0
  2  1  1  1
  2  3  1  0
  4  3  1  0
  4 12  1  0
  5  6  1  0
  5  4  2  0
  6  7  1  0
  7  8  1  0
  7 12  2  0
  8  9  2  0
  9 10  1  0
 11 10  2  0
 12 11  1  0
 13 14  2  0
 15 16  1  0
 16 18  1  0
 17 16  2  0
 19 18  1  6
 19 21  1  0
 20 19  1  0
 20 13  1  0
 21 22  2  0
 21 27  1  0
 24 23  1  6
 24 26  1  0
 24 25  1  0
 26 28  1  0
 26 27  1  6
 28 30  2  0
 28 29  1  0
M  END
$$$$
