WNT.pdb
     RDKit          3D

 30 31  0  0  1  0  0  0  0  0999 V2000
    6.6365  -17.6081   24.2507 N   0  0  0  0  0  0  0  0  0  0  0  0
    7.7125  -16.6672   24.2905 C   0  0  1  0  0  0  0  0  0  0  0  0
    7.7978  -15.8898   25.5576 C   0  0  0  0  0  0  0  0  0  0  0  0
    6.8099  -14.8404   25.7535 C   0  0  0  0  0  0  0  0  0  0  0  0
    5.4975  -15.0353   26.1165 C   0  0  0  0  0  0  0  0  0  0  0  0
    4.8663  -13.8323   26.1925 N   0  0  0  0  0  0  0  0  0  0  0  0
    5.7519  -12.8643   25.8834 C   0  0  0  0  0  0  0  0  0  0  0  0
    5.5800  -11.4979   25.8281 C   0  0  0  0  0  0  0  0  0  0  0  0
    6.6435  -10.6989   25.4896 C   0  0  0  0  0  0  0  0  0  0  0  0
    7.8557  -11.2778   25.2134 C   0  0  0  0  0  0  0  0  0  0  0  0
    8.0199  -12.6466   25.2706 C   0  0  0  0  0  0  0  0  0  0  0  0
    6.9758  -13.4839   25.6062 C   0  0  0  0  0  0  0  0  0  0  0  0
    9.0202  -17.3221   23.9506 C   0  0  0  0  0  0  0  0  0  0  0  0
    9.2301  -18.5368   24.2447 O   0  0  0  0  0  0  0  0  0  0  0  0
   11.6672  -16.0396   19.9896 N   0  0  0  0  0  0  0  0  0  0  0  0
   11.9624  -16.8879   21.0808 C   0  0  0  0  0  0  0  0  0  0  0  0
   11.8867  -18.1240   20.8749 O   0  0  0  0  0  0  0  0  0  0  0  0
   12.3464  -16.3987   22.4195 C   0  0  0  0  0  0  0  0  0  0  0  0
   11.4650  -16.8119   23.5243 C   0  0  2  0  0  0  0  0  0  0  0  0
   10.0442  -16.6177   23.3014 N   0  0  0  0  0  0  0  0  0  0  0  0
   11.8654  -16.6272   24.9046 C   0  0  0  0  0  0  0  0  0  0  0  0
   13.1366  -16.7788   25.1192 O   0  0  0  0  0  0  0  0  0  0  0  0
   11.1022  -13.7939   27.6927 C   0  0  0  0  0  0  0  0  0  0  0  0
   10.8807  -15.2107   28.1370 C   0  0  1  0  0  0  0  0  0  0  0  0
    9.5578  -15.6348   28.0096 O   0  0  0  0  0  0  0  0  0  0  0  0
   11.7305  -16.2095   27.3808 C   0  0  2  0  0  0  0  0  0  0  0  0
   11.1103  -16.3181   26.0437 N   0  0  0  0  0  0  0  0  0  0  0  0
   11.6193  -17.5109   28.0819 C   0  0  0  0  0  0  0  0  0  0  0  0
   12.1323  -17.7193   29.3305 O   0  0  0  0  0  0  0  0  0  0  0  0
   11.0313  -18.4736   27.5189 O   0  0  0  0  0  0  0  0  0  0  0  0
  2 13  1  0
  2  1  1  1
  2  3  1  0
  4  3  1  0
  4 12  1  0
  5  6  1  0
  5  4  2  0
  6  7  1  0
  7  8  1  0
  7 12  2  0
  8  9  2  0
  9 10  1  0
 11 10  2  0
 12 11  1  0
 13 14  2  0
 15 16  1  0
 16 18  1  0
 17 16  2  0
 19 18  1  6
 19 21  1  0
 20 19  1  0
 20 13  1  0
 21 22  2  0
 21 27  1  0
 24 23  1  6
 24 26  1  0
 24 25  1  0
 26 28  1  0
 26 27  1  6
 28 30  2  0
 28 29  1  0
M  END
$$$$
