WNT.pdb
     RDKit          3D

 30 31  0  0  1  0  0  0  0  0999 V2000
    7.0495  -17.2395   24.0584 N   0  0  0  0  0  0  0  0  0  0  0  0
    8.1034  -16.2747   24.0046 C   0  0  1  0  0  0  0  0  0  0  0  0
    8.2071  -15.4148   25.2159 C   0  0  0  0  0  0  0  0  0  0  0  0
    7.0814  -14.5382   25.4988 C   0  0  0  0  0  0  0  0  0  0  0  0
    5.8427  -14.9440   25.9388 C   0  0  0  0  0  0  0  0  0  0  0  0
    5.0365  -13.8575   26.0834 N   0  0  0  0  0  0  0  0  0  0  0  0
    5.7364  -12.7570   25.7428 C   0  0  0  0  0  0  0  0  0  0  0  0
    5.3482  -11.4345   25.7316 C   0  0  0  0  0  0  0  0  0  0  0  0
    6.2480  -10.4724   25.3463 C   0  0  0  0  0  0  0  0  0  0  0  0
    7.5154  -10.8477   24.9805 C   0  0  0  0  0  0  0  0  0  0  0  0
    7.8965  -12.1738   24.9942 C   0  0  0  0  0  0  0  0  0  0  0  0
    7.0216  -13.1707   25.3743 C   0  0  0  0  0  0  0  0  0  0  0  0
    9.4159  -16.9214   23.6677 C   0  0  0  0  0  0  0  0  0  0  0  0
    9.5979  -18.1587   23.8729 O   0  0  0  0  0  0  0  0  0  0  0  0
   15.2466  -15.2265   22.8263 N   0  0  0  0  0  0  0  0  0  0  0  0
   14.2403  -16.1908   22.5915 C   0  0  0  0  0  0  0  0  0  0  0  0
   14.6028  -17.3923   22.5592 O   0  0  0  0  0  0  0  0  0  0  0  0
   12.8169  -15.8577   22.3874 C   0  0  0  0  0  0  0  0  0  0  0  0
   11.8832  -16.4260   23.3741 C   0  0  2  0  0  0  0  0  0  0  0  0
   10.4751  -16.1845   23.1189 N   0  0  0  0  0  0  0  0  0  0  0  0
   12.2191  -16.4596   24.7832 C   0  0  0  0  0  0  0  0  0  0  0  0
   13.4505  -16.7853   25.0334 O   0  0  0  0  0  0  0  0  0  0  0  0
   10.9240  -14.1650   28.0152 C   0  0  0  0  0  0  0  0  0  0  0  0
   10.9718  -15.6559   28.1854 C   0  0  1  0  0  0  0  0  0  0  0  0
    9.7499  -16.2843   27.9438 O   0  0  0  0  0  0  0  0  0  0  0  0
   11.9880  -16.3237   27.2836 C   0  0  2  0  0  0  0  0  0  0  0  0
   11.4370  -16.2049   25.9175 N   0  0  0  0  0  0  0  0  0  0  0  0
   12.0512  -17.7546   27.6660 C   0  0  0  0  0  0  0  0  0  0  0  0
   12.5560  -18.1736   28.8641 O   0  0  0  0  0  0  0  0  0  0  0  0
   11.6268  -18.6323   26.8667 O   0  0  0  0  0  0  0  0  0  0  0  0
  2 13  1  0
  2  1  1  1
  2  3  1  0
  4  3  1  0
  4 12  1  0
  5  6  1  0
  5  4  2  0
  6  7  1  0
  7  8  1  0
  7 12  2  0
  8  9  2  0
  9 10  1  0
 11 10  2  0
 12 11  1  0
 13 14  2  0
 15 16  1  0
 16 18  1  0
 17 16  2  0
 19 18  1  6
 19 21  1  0
 20 19  1  0
 20 13  1  0
 21 22  2  0
 21 27  1  0
 24 23  1  6
 24 26  1  0
 24 25  1  0
 26 28  1  0
 26 27  1  6
 28 30  2  0
 28 29  1  0
M  END
$$$$
