WNT.pdb
     RDKit          3D

 30 31  0  0  1  0  0  0  0  0999 V2000
    7.1213  -17.3281   23.8973 N   0  0  0  0  0  0  0  0  0  0  0  0
    8.1420  -16.3267   23.8841 C   0  0  1  0  0  0  0  0  0  0  0  0
    8.2260  -15.5232   25.1349 C   0  0  0  0  0  0  0  0  0  0  0  0
    7.1128  -14.6314   25.4199 C   0  0  0  0  0  0  0  0  0  0  0  0
    5.8606  -15.0225   25.8340 C   0  0  0  0  0  0  0  0  0  0  0  0
    5.0727  -13.9241   25.9895 N   0  0  0  0  0  0  0  0  0  0  0  0
    5.7978  -12.8303   25.6815 C   0  0  0  0  0  0  0  0  0  0  0  0
    5.4346  -11.5008   25.6920 C   0  0  0  0  0  0  0  0  0  0  0  0
    6.3576  -10.5482   25.3393 C   0  0  0  0  0  0  0  0  0  0  0  0
    7.6229  -10.9399   24.9837 C   0  0  0  0  0  0  0  0  0  0  0  0
    7.9790  -12.2730   24.9754 C   0  0  0  0  0  0  0  0  0  0  0  0
    7.0803  -13.2607   25.3227 C   0  0  0  0  0  0  0  0  0  0  0  0
    9.4729  -16.9119   23.5086 C   0  0  0  0  0  0  0  0  0  0  0  0
    9.7097  -18.1443   23.6852 O   0  0  0  0  0  0  0  0  0  0  0  0
   12.3420  -14.7157   20.0098 N   0  0  0  0  0  0  0  0  0  0  0  0
   12.6198  -15.7362   20.9473 C   0  0  0  0  0  0  0  0  0  0  0  0
   12.6992  -16.9078   20.5035 O   0  0  0  0  0  0  0  0  0  0  0  0
   12.8161  -15.4931   22.3899 C   0  0  0  0  0  0  0  0  0  0  0  0
   11.8989  -16.2157   23.2871 C   0  0  2  0  0  0  0  0  0  0  0  0
   10.4895  -16.1212   22.9542 N   0  0  0  0  0  0  0  0  0  0  0  0
   12.1540  -16.2876   24.7116 C   0  0  0  0  0  0  0  0  0  0  0  0
   13.4119  -16.3250   25.0299 O   0  0  0  0  0  0  0  0  0  0  0  0
   10.8286  -14.1061   27.7374 C   0  0  0  0  0  0  0  0  0  0  0  0
   10.7543  -15.5827   27.9985 C   0  0  1  0  0  0  0  0  0  0  0  0
    9.5011  -16.1341   27.7305 O   0  0  0  0  0  0  0  0  0  0  0  0
   11.7590  -16.3790   27.1935 C   0  0  2  0  0  0  0  0  0  0  0  0
   11.2716  -16.3285   25.7991 N   0  0  0  0  0  0  0  0  0  0  0  0
   11.7123  -17.7782   27.6807 C   0  0  0  0  0  0  0  0  0  0  0  0
   11.2100  -18.8020   26.9289 O   0  0  0  0  0  0  0  0  0  0  0  0
   12.1492  -18.0520   28.8312 O   0  0  0  0  0  0  0  0  0  0  0  0
  2 13  1  0
  2  1  1  1
  2  3  1  0
  4  3  1  0
  4 12  1  0
  5  6  1  0
  5  4  2  0
  6  7  1  0
  7  8  1  0
  7 12  2  0
  8  9  2  0
  9 10  1  0
 11 10  2  0
 12 11  1  0
 13 14  2  0
 15 16  1  0
 16 18  1  0
 17 16  2  0
 19 18  1  1
 19 21  1  0
 20 19  1  0
 20 13  1  0
 21 22  2  0
 21 27  1  0
 24 23  1  6
 24 26  1  0
 24 25  1  0
 26 28  1  0
 26 27  1  6
 28 30  2  0
 28 29  1  0
M  END
$$$$
