WNT.pdb
     RDKit          3D

 30 31  0  0  1  0  0  0  0  0999 V2000
    7.8787  -17.4136   24.0084 N   0  0  0  0  0  0  0  0  0  0  0  0
    8.1492  -16.0627   23.6255 C   0  0  1  0  0  0  0  0  0  0  0  0
    8.7207  -15.2220   24.7136 C   0  0  0  0  0  0  0  0  0  0  0  0
    7.7899  -14.7097   25.7070 C   0  0  0  0  0  0  0  0  0  0  0  0
    6.9868  -15.4753   26.5202 C   0  0  0  0  0  0  0  0  0  0  0  0
    6.2387  -14.6606   27.3126 N   0  0  0  0  0  0  0  0  0  0  0  0
    6.5469  -13.3808   27.0225 C   0  0  0  0  0  0  0  0  0  0  0  0
    6.0549  -12.2120   27.5624 C   0  0  0  0  0  0  0  0  0  0  0  0
    6.5292  -11.0078   27.1054 C   0  0  0  0  0  0  0  0  0  0  0  0
    7.4835  -10.9932   26.1206 C   0  0  0  0  0  0  0  0  0  0  0  0
    7.9710  -12.1676   25.5849 C   0  0  0  0  0  0  0  0  0  0  0  0
    7.5196  -13.3980   26.0164 C   0  0  0  0  0  0  0  0  0  0  0  0
    8.9881  -16.0079   22.3815 C   0  0  0  0  0  0  0  0  0  0  0  0
    9.4160  -14.9000   21.9391 O   0  0  0  0  0  0  0  0  0  0  0  0
   12.9248  -17.6170   18.7680 N   0  0  0  0  0  0  0  0  0  0  0  0
   11.7392  -18.3551   18.9850 C   0  0  0  0  0  0  0  0  0  0  0  0
   11.3274  -19.0600   18.0313 O   0  0  0  0  0  0  0  0  0  0  0  0
   10.9812  -18.3355   20.2514 C   0  0  0  0  0  0  0  0  0  0  0  0
   10.0515  -17.2059   20.4185 C   0  0  2  0  0  0  0  0  0  0  0  0
    9.3238  -17.1708   21.6736 N   0  0  0  0  0  0  0  0  0  0  0  0
    9.2935  -16.6935   19.2949 C   0  0  0  0  0  0  0  0  0  0  0  0
    8.3716  -17.4966   18.8590 O   0  0  0  0  0  0  0  0  0  0  0  0
    7.4954  -13.3296   18.9791 C   0  0  0  0  0  0  0  0  0  0  0  0
    8.1778  -13.6532   17.6816 C   0  0  1  0  0  0  0  0  0  0  0  0
    9.3960  -12.9946   17.5127 O   0  0  0  0  0  0  0  0  0  0  0  0
    8.4572  -15.1312   17.5106 C   0  0  2  0  0  0  0  0  0  0  0  0
    9.3931  -15.4813   18.5995 N   0  0  0  0  0  0  0  0  0  0  0  0
    9.1340  -15.3087   16.2038 C   0  0  0  0  0  0  0  0  0  0  0  0
    8.4732  -15.2015   15.0132 O   0  0  0  0  0  0  0  0  0  0  0  0
   10.3672  -15.5691   16.1713 O   0  0  0  0  0  0  0  0  0  0  0  0
  2 13  1  0
  2  1  1  1
  2  3  1  0
  4  3  1  0
  4 12  1  0
  5  6  1  0
  5  4  2  0
  6  7  1  0
  7  8  1  0
  7 12  2  0
  8  9  2  0
  9 10  1  0
 11 10  2  0
 12 11  1  0
 13 14  2  0
 15 16  1  0
 16 18  1  0
 17 16  2  0
 19 18  1  6
 19 21  1  0
 20 19  1  0
 20 13  1  0
 21 22  2  0
 21 27  1  0
 24 23  1  1
 24 26  1  0
 24 25  1  0
 26 28  1  0
 26 27  1  1
 28 30  2  0
 28 29  1  0
M  END
$$$$
