WNT.pdb
     RDKit          3D

 30 31  0  0  1  0  0  0  0  0999 V2000
    6.6396  -17.4664   24.6854 N   0  0  0  0  0  0  0  0  0  0  0  0
    7.7078  -16.5526   24.4234 C   0  0  1  0  0  0  0  0  0  0  0  0
    7.9636  -15.5804   25.5219 C   0  0  0  0  0  0  0  0  0  0  0  0
    6.9088  -14.6215   25.8107 C   0  0  0  0  0  0  0  0  0  0  0  0
    5.7276  -14.9027   26.4574 C   0  0  0  0  0  0  0  0  0  0  0  0
    4.9770  -13.7708   26.5395 N   0  0  0  0  0  0  0  0  0  0  0  0
    5.6561  -12.7637   25.9549 C   0  0  0  0  0  0  0  0  0  0  0  0
    5.3059  -11.4401   25.7969 C   0  0  0  0  0  0  0  0  0  0  0  0
    6.1736  -10.5854   25.1639 C   0  0  0  0  0  0  0  0  0  0  0  0
    7.3716  -11.0671   24.7020 C   0  0  0  0  0  0  0  0  0  0  0  0
    7.7150  -12.3937   24.8638 C   0  0  0  0  0  0  0  0  0  0  0  0
    6.8704  -13.2846   25.4937 C   0  0  0  0  0  0  0  0  0  0  0  0
    8.9587  -17.2794   24.0214 C   0  0  0  0  0  0  0  0  0  0  0  0
    9.2024  -18.4408   24.4664 O   0  0  0  0  0  0  0  0  0  0  0  0
   14.1500  -17.6526   21.7434 N   0  0  0  0  0  0  0  0  0  0  0  0
   13.5670  -16.4617   22.2328 C   0  0  0  0  0  0  0  0  0  0  0  0
   14.3470  -15.6068   22.7194 O   0  0  0  0  0  0  0  0  0  0  0  0
   12.1177  -16.1841   22.1990 C   0  0  0  0  0  0  0  0  0  0  0  0
   11.3328  -16.7669   23.3002 C   0  0  2  0  0  0  0  0  0  0  0  0
    9.8910  -16.7027   23.1472 N   0  0  0  0  0  0  0  0  0  0  0  0
   11.7754  -16.6463   24.6746 C   0  0  0  0  0  0  0  0  0  0  0  0
   12.9787  -16.1790   24.8115 O   0  0  0  0  0  0  0  0  0  0  0  0
   11.1409  -14.3592   27.4492 C   0  0  0  0  0  0  0  0  0  0  0  0
   10.9384  -15.7668   27.9302 C   0  0  1  0  0  0  0  0  0  0  0  0
    9.6178  -16.2054   27.8316 O   0  0  0  0  0  0  0  0  0  0  0  0
   11.7866  -16.7760   27.1860 C   0  0  2  0  0  0  0  0  0  0  0  0
   11.1247  -16.9540   25.8767 N   0  0  0  0  0  0  0  0  0  0  0  0
   11.7312  -18.0495   27.9427 C   0  0  0  0  0  0  0  0  0  0  0  0
   12.3022  -18.1980   29.1745 O   0  0  0  0  0  0  0  0  0  0  0  0
   11.1378  -19.0444   27.4450 O   0  0  0  0  0  0  0  0  0  0  0  0
  2 13  1  0
  2  1  1  1
  2  3  1  0
  4  3  1  0
  4 12  1  0
  5  6  1  0
  5  4  2  0
  6  7  1  0
  7  8  1  0
  7 12  2  0
  8  9  2  0
  9 10  1  0
 11 10  2  0
 12 11  1  0
 13 14  2  0
 15 16  1  0
 16 18  1  0
 17 16  2  0
 19 18  1  6
 19 21  1  0
 20 19  1  0
 20 13  1  0
 21 22  2  0
 21 27  1  0
 24 23  1  6
 24 26  1  0
 24 25  1  0
 26 28  1  0
 26 27  1  6
 28 30  2  0
 28 29  1  0
M  END
$$$$
