WNT.pdb
     RDKit          3D

 30 31  0  0  1  0  0  0  0  0999 V2000
    6.7762  -17.8804   24.5378 N   0  0  0  0  0  0  0  0  0  0  0  0
    7.5666  -17.1643   23.5854 C   0  0  1  0  0  0  0  0  0  0  0  0
    7.1512  -15.7480   23.3881 C   0  0  0  0  0  0  0  0  0  0  0  0
    6.6745  -15.0326   24.5614 C   0  0  0  0  0  0  0  0  0  0  0  0
    5.8911  -15.5650   25.5590 C   0  0  0  0  0  0  0  0  0  0  0  0
    5.6274  -14.6055   26.4869 N   0  0  0  0  0  0  0  0  0  0  0  0
    6.2286  -13.4619   26.1025 C   0  0  0  0  0  0  0  0  0  0  0  0
    6.2493  -12.2280   26.7163 C   0  0  0  0  0  0  0  0  0  0  0  0
    6.9428  -11.1974   26.1324 C   0  0  0  0  0  0  0  0  0  0  0  0
    7.6010  -11.4177   24.9496 C   0  0  0  0  0  0  0  0  0  0  0  0
    7.5755  -12.6558   24.3411 C   0  0  0  0  0  0  0  0  0  0  0  0
    6.8895  -13.7169   24.8955 C   0  0  0  0  0  0  0  0  0  0  0  0
    9.0305  -17.2758   23.9003 C   0  0  0  0  0  0  0  0  0  0  0  0
    9.4415  -18.0870   24.7830 O   0  0  0  0  0  0  0  0  0  0  0  0
   14.6391  -15.0481   22.8820 N   0  0  0  0  0  0  0  0  0  0  0  0
   13.7107  -16.0870   22.6446 C   0  0  0  0  0  0  0  0  0  0  0  0
   14.1711  -17.2525   22.5686 O   0  0  0  0  0  0  0  0  0  0  0  0
   12.2594  -15.8696   22.4858 C   0  0  0  0  0  0  0  0  0  0  0  0
   11.4075  -16.4876   23.5156 C   0  0  2  0  0  0  0  0  0  0  0  0
    9.9839  -16.4930   23.2336 N   0  0  0  0  0  0  0  0  0  0  0  0
   11.7186  -16.3438   24.9234 C   0  0  0  0  0  0  0  0  0  0  0  0
   12.9809  -16.4486   25.2072 O   0  0  0  0  0  0  0  0  0  0  0  0
   10.6416  -13.5977   27.6585 C   0  0  0  0  0  0  0  0  0  0  0  0
   10.4856  -15.0234   28.1022 C   0  0  1  0  0  0  0  0  0  0  0  0
    9.1983  -15.5277   27.9161 O   0  0  0  0  0  0  0  0  0  0  0  0
   11.4290  -15.9719   27.3936 C   0  0  2  0  0  0  0  0  0  0  0  0
   10.8857  -16.1161   26.0268 N   0  0  0  0  0  0  0  0  0  0  0  0
   11.3566  -17.2774   28.0922 C   0  0  0  0  0  0  0  0  0  0  0  0
   11.8089  -17.4539   29.3689 O   0  0  0  0  0  0  0  0  0  0  0  0
   10.8611  -18.2741   27.5000 O   0  0  0  0  0  0  0  0  0  0  0  0
  2 13  1  0
  2  1  1  1
  2  3  1  0
  4  3  1  0
  4 12  1  0
  5  6  1  0
  5  4  2  0
  6  7  1  0
  7  8  1  0
  7 12  2  0
  8  9  2  0
  9 10  1  0
 11 10  2  0
 12 11  1  0
 13 14  2  0
 15 16  1  0
 16 18  1  0
 17 16  2  0
 19 18  1  6
 19 21  1  0
 20 19  1  0
 20 13  1  0
 21 22  2  0
 21 27  1  0
 24 23  1  6
 24 26  1  0
 24 25  1  0
 26 28  1  0
 26 27  1  6
 28 30  2  0
 28 29  1  0
M  END
$$$$
