WNT.pdb
     RDKit          3D

 30 31  0  0  1  0  0  0  0  0999 V2000
    6.2647  -17.7023   23.8763 N   0  0  0  0  0  0  0  0  0  0  0  0
    6.9765  -16.4859   23.6346 C   0  0  1  0  0  0  0  0  0  0  0  0
    7.6908  -15.9488   24.8257 C   0  0  0  0  0  0  0  0  0  0  0  0
    6.9891  -14.9524   25.6197 C   0  0  0  0  0  0  0  0  0  0  0  0
    5.9032  -15.1945   26.4288 C   0  0  0  0  0  0  0  0  0  0  0  0
    5.5007  -14.0296   27.0053 N   0  0  0  0  0  0  0  0  0  0  0  0
    6.3105  -13.0396   26.5798 C   0  0  0  0  0  0  0  0  0  0  0  0
    6.2980  -11.6966   26.8898 C   0  0  0  0  0  0  0  0  0  0  0  0
    7.2388  -10.8682   26.3308 C   0  0  0  0  0  0  0  0  0  0  0  0
    8.1722  -11.3948   25.4750 C   0  0  0  0  0  0  0  0  0  0  0  0
    8.1781  -12.7403   25.1694 C   0  0  0  0  0  0  0  0  0  0  0  0
    7.2493  -13.6058   25.7099 C   0  0  0  0  0  0  0  0  0  0  0  0
    7.8902  -16.6168   22.4503 C   0  0  0  0  0  0  0  0  0  0  0  0
    8.4489  -17.7229   22.1845 O   0  0  0  0  0  0  0  0  0  0  0  0
    6.8954  -13.1549   19.1054 N   0  0  0  0  0  0  0  0  0  0  0  0
    7.7288  -14.2866   18.9561 C   0  0  0  0  0  0  0  0  0  0  0  0
    7.2927  -15.2216   18.2408 O   0  0  0  0  0  0  0  0  0  0  0  0
    9.0566  -14.4163   19.5876 C   0  0  0  0  0  0  0  0  0  0  0  0
    9.1841  -15.4925   20.5845 C   0  0  2  0  0  0  0  0  0  0  0  0
    8.1535  -15.5290   21.6057 N   0  0  0  0  0  0  0  0  0  0  0  0
   10.4857  -15.9164   21.0597 C   0  0  0  0  0  0  0  0  0  0  0  0
   11.2720  -14.9443   21.4085 O   0  0  0  0  0  0  0  0  0  0  0  0
   11.9970  -18.0823   24.0359 C   0  0  0  0  0  0  0  0  0  0  0  0
   12.3651  -18.5342   22.6524 C   0  0  1  0  0  0  0  0  0  0  0  0
   11.4881  -19.4813   22.1232 O   0  0  0  0  0  0  0  0  0  0  0  0
   12.4289  -17.3977   21.6543 C   0  0  2  0  0  0  0  0  0  0  0  0
   11.0369  -17.1968   21.2003 N   0  0  0  0  0  0  0  0  0  0  0  0
   13.2581  -17.8528   20.5129 C   0  0  0  0  0  0  0  0  0  0  0  0
   14.6182  -17.9536   20.5865 O   0  0  0  0  0  0  0  0  0  0  0  0
   12.7028  -18.1631   19.4243 O   0  0  0  0  0  0  0  0  0  0  0  0
  2 13  1  0
  2  1  1  1
  2  3  1  0
  4  3  1  0
  4 12  1  0
  5  6  1  0
  5  4  2  0
  6  7  1  0
  7  8  1  0
  7 12  2  0
  8  9  2  0
  9 10  1  0
 11 10  2  0
 12 11  1  0
 13 14  2  0
 15 16  1  0
 16 18  1  0
 17 16  2  0
 19 18  1  1
 19 21  1  0
 20 19  1  0
 20 13  1  0
 21 22  2  0
 21 27  1  0
 24 23  1  1
 24 26  1  0
 24 25  1  0
 26 28  1  0
 26 27  1  6
 28 30  2  0
 28 29  1  0
M  END
$$$$
