EDH.pdb
     RDKit          3D

 28 28  0  0  1  0  0  0  0  0999 V2000
   12.0968  -18.8633   16.0375 N   0  0  0  0  0  0  0  0  0  0  0  0
   11.0230  -17.9651   16.4877 C   0  0  1  0  0  0  0  0  0  0  0  0
    9.8595  -18.2948   15.5828 C   0  0  0  0  0  0  0  0  0  0  0  0
    9.3911  -17.1471   14.7588 C   0  0  0  0  0  0  0  0  0  0  0  0
    9.2223  -17.5932   13.3516 C   0  0  0  0  0  0  0  0  0  0  0  0
    8.5867  -18.6300   13.0665 O   0  0  0  0  0  0  0  0  0  0  0  0
   10.6368  -18.3209   17.8801 C   0  0  0  0  0  0  0  0  0  0  0  0
    9.4924  -18.7322   18.1454 O   0  0  0  0  0  0  0  0  0  0  0  0
    9.7900  -16.8286   12.3439 O   0  0  0  0  0  0  0  0  0  0  0  0
   11.5564  -18.2098   18.9838 N   0  0  0  0  0  0  0  0  0  0  0  0
   11.1589  -18.5833   20.3265 C   0  0  1  0  0  0  0  0  0  0  0  0
   12.2267  -19.4367   20.9561 C   0  0  0  0  0  0  0  0  0  0  0  0
   11.7554  -19.9110   22.2772 C   0  0  0  0  0  0  0  0  0  0  0  0
   12.5850  -20.1321   23.2290 O   0  0  0  0  0  0  0  0  0  0  0  0
   11.0551  -17.3211   21.1394 C   0  0  0  0  0  0  0  0  0  0  0  0
   12.0180  -16.5352   21.3006 O   0  0  0  0  0  0  0  0  0  0  0  0
   10.4342  -20.1561   22.6115 O   0  0  0  0  0  0  0  0  0  0  0  0
    9.8277  -16.9599   21.7740 N   0  0  0  0  0  0  0  0  0  0  0  0
    9.6887  -15.7815   22.6085 C   0  0  1  0  0  0  0  0  0  0  0  0
    8.2936  -15.1866   22.4849 C   0  0  0  0  0  0  0  0  0  0  0  0
    8.2501  -14.4497   21.2071 C   0  0  0  0  0  0  0  0  0  0  0  0
    9.3206  -14.2560   20.3657 C   0  0  0  0  0  0  0  0  0  0  0  0
    8.8192  -13.5347   19.3298 N   0  0  0  0  0  0  0  0  0  0  0  0
    7.5218  -13.3140   19.5475 C   0  0  0  0  0  0  0  0  0  0  0  0
    7.1551  -13.8683   20.6950 N   0  0  0  0  0  0  0  0  0  0  0  0
    9.9287  -16.2164   24.0206 C   0  0  0  0  0  0  0  0  0  0  0  0
   10.1690  -17.5535   24.3152 O   0  0  0  0  0  0  0  0  0  0  0  0
    9.9239  -15.4089   24.9853 O   0  0  0  0  0  0  0  0  0  0  0  0
  2  1  1  6
  2  3  1  0
  4  5  1  0
  4  3  1  0
  5  6  2  0
  7  2  1  0
  8  7  2  0
  9  5  1  0
 10  7  1  0
 11 10  1  0
 11 12  1  1
 12 13  1  0
 13 17  1  0
 14 13  2  0
 15 16  2  0
 15 11  1  0
 18 15  1  0
 19 18  1  0
 19 20  1  1
 20 21  1  0
 21 22  2  0
 21 25  1  0
 22 23  1  0
 24 23  1  0
 25 24  2  0
 26 19  1  0
 27 26  1  0
 28 26  2  0
M  END
$$$$
