EDH.pdb
     RDKit          3D

 28 28  0  0  1  0  0  0  0  0999 V2000
   10.0262  -18.8117   15.7633 N   0  0  0  0  0  0  0  0  0  0  0  0
   11.1016  -18.5701   16.7367 C   0  0  1  0  0  0  0  0  0  0  0  0
   11.5435  -17.1531   16.4574 C   0  0  0  0  0  0  0  0  0  0  0  0
   12.2775  -16.9915   15.1725 C   0  0  0  0  0  0  0  0  0  0  0  0
   13.7113  -17.3185   15.3849 C   0  0  0  0  0  0  0  0  0  0  0  0
   14.3064  -16.9965   16.4347 O   0  0  0  0  0  0  0  0  0  0  0  0
   10.5369  -18.6120   18.1128 C   0  0  0  0  0  0  0  0  0  0  0  0
    9.3773  -18.2236   18.3447 O   0  0  0  0  0  0  0  0  0  0  0  0
   14.3889  -17.9974   14.3838 O   0  0  0  0  0  0  0  0  0  0  0  0
   11.2933  -19.0990   19.2385 N   0  0  0  0  0  0  0  0  0  0  0  0
   10.7025  -19.1695   20.5599 C   0  0  1  0  0  0  0  0  0  0  0  0
   11.4217  -20.2014   21.3861 C   0  0  0  0  0  0  0  0  0  0  0  0
   10.6012  -20.5336   22.5730 C   0  0  0  0  0  0  0  0  0  0  0  0
    9.4779  -19.9511   22.7779 O   0  0  0  0  0  0  0  0  0  0  0  0
   10.9118  -17.8358   21.2250 C   0  0  0  0  0  0  0  0  0  0  0  0
   12.0429  -17.3127   21.3583 O   0  0  0  0  0  0  0  0  0  0  0  0
   10.9408  -21.4620   23.5427 O   0  0  0  0  0  0  0  0  0  0  0  0
    9.8052  -17.0960   21.7426 N   0  0  0  0  0  0  0  0  0  0  0  0
    9.9623  -15.8673   22.4974 C   0  0  1  0  0  0  0  0  0  0  0  0
    8.6917  -15.0313   22.4499 C   0  0  0  0  0  0  0  0  0  0  0  0
    8.6287  -14.4172   21.1095 C   0  0  0  0  0  0  0  0  0  0  0  0
    9.6018  -14.5196   20.1430 C   0  0  0  0  0  0  0  0  0  0  0  0
    9.1205  -13.8066   19.0920 N   0  0  0  0  0  0  0  0  0  0  0  0
    7.9269  -13.3095   19.4199 C   0  0  0  0  0  0  0  0  0  0  0  0
    7.6088  -13.6741   20.6546 N   0  0  0  0  0  0  0  0  0  0  0  0
   10.2562  -16.2589   23.9119 C   0  0  0  0  0  0  0  0  0  0  0  0
   10.6466  -15.3019   24.8416 O   0  0  0  0  0  0  0  0  0  0  0  0
   10.1655  -17.4468   24.3159 O   0  0  0  0  0  0  0  0  0  0  0  0
  2  1  1  6
  2  3  1  0
  4  5  1  0
  4  3  1  0
  5  6  2  0
  7  2  1  0
  8  7  2  0
  9  5  1  0
 10  7  1  0
 11 10  1  0
 11 12  1  1
 12 13  1  0
 13 17  1  0
 14 13  2  0
 15 16  2  0
 15 11  1  0
 18 15  1  0
 19 18  1  0
 19 20  1  1
 20 21  1  0
 21 22  2  0
 21 25  1  0
 22 23  1  0
 24 23  1  0
 25 24  2  0
 26 19  1  0
 27 26  1  0
 28 26  2  0
M  END
$$$$
