EDH.pdb
     RDKit          3D

 28 28  0  0  1  0  0  0  0  0999 V2000
    9.7695  -15.4632   15.9808 N   0  0  0  0  0  0  0  0  0  0  0  0
   10.1575  -14.4990   17.0211 C   0  0  1  0  0  0  0  0  0  0  0  0
    8.8550  -14.1332   17.6925 C   0  0  0  0  0  0  0  0  0  0  0  0
    7.9371  -13.3345   16.8351 C   0  0  0  0  0  0  0  0  0  0  0  0
    7.5834  -14.1262   15.6285 C   0  0  0  0  0  0  0  0  0  0  0  0
    8.1122  -13.8993   14.5199 O   0  0  0  0  0  0  0  0  0  0  0  0
   11.0166  -15.1809   18.0267 C   0  0  0  0  0  0  0  0  0  0  0  0
   10.8975  -16.3987   18.2551 O   0  0  0  0  0  0  0  0  0  0  0  0
    6.6426  -15.1368   15.7544 O   0  0  0  0  0  0  0  0  0  0  0  0
   12.0216  -14.4764   18.7817 N   0  0  0  0  0  0  0  0  0  0  0  0
   12.8690  -15.1737   19.7282 C   0  0  1  0  0  0  0  0  0  0  0  0
   14.2275  -14.5275   19.7693 C   0  0  0  0  0  0  0  0  0  0  0  0
   15.1185  -15.3216   20.6457 C   0  0  0  0  0  0  0  0  0  0  0  0
   14.9840  -16.5931   20.7387 O   0  0  0  0  0  0  0  0  0  0  0  0
   12.2548  -15.0159   21.0930 C   0  0  0  0  0  0  0  0  0  0  0  0
   12.4404  -14.0042   21.8092 O   0  0  0  0  0  0  0  0  0  0  0  0
   16.1417  -14.8039   21.4218 O   0  0  0  0  0  0  0  0  0  0  0  0
   11.4171  -16.0354   21.6393 N   0  0  0  0  0  0  0  0  0  0  0  0
   10.8074  -15.9354   22.9517 C   0  0  1  0  0  0  0  0  0  0  0  0
    9.3527  -16.3804   22.9131 C   0  0  0  0  0  0  0  0  0  0  0  0
    8.6324  -15.4271   22.0470 C   0  0  0  0  0  0  0  0  0  0  0  0
    8.7535  -14.0582   22.1006 C   0  0  0  0  0  0  0  0  0  0  0  0
    7.9168  -13.5997   21.1340 N   0  0  0  0  0  0  0  0  0  0  0  0
    7.3326  -14.6420   20.5409 C   0  0  0  0  0  0  0  0  0  0  0  0
    7.7599  -15.7718   21.0883 N   0  0  0  0  0  0  0  0  0  0  0  0
   11.5854  -16.8320   23.8636 C   0  0  0  0  0  0  0  0  0  0  0  0
   11.2757  -16.9011   25.2170 O   0  0  0  0  0  0  0  0  0  0  0  0
   12.5353  -17.5489   23.4557 O   0  0  0  0  0  0  0  0  0  0  0  0
  2  1  1  6
  2  3  1  0
  4  5  1  0
  4  3  1  0
  5  6  2  0
  7  2  1  0
  8  7  2  0
  9  5  1  0
 10  7  1  0
 11 10  1  0
 11 12  1  1
 12 13  1  0
 13 17  1  0
 14 13  2  0
 15 16  2  0
 15 11  1  0
 18 15  1  0
 19 18  1  0
 19 20  1  6
 20 21  1  0
 21 22  2  0
 21 25  1  0
 22 23  1  0
 24 23  1  0
 25 24  2  0
 26 19  1  0
 27 26  1  0
 28 26  2  0
M  END
$$$$
