EDH.pdb
     RDKit          3D

 28 28  0  0  1  0  0  0  0  0999 V2000
   11.8549  -18.1491   17.3413 N   0  0  0  0  0  0  0  0  0  0  0  0
   11.1296  -17.1857   18.1829 C   0  0  1  0  0  0  0  0  0  0  0  0
    9.6758  -17.4207   17.8474 C   0  0  0  0  0  0  0  0  0  0  0  0
    9.3958  -17.4848   16.3869 C   0  0  0  0  0  0  0  0  0  0  0  0
    7.9308  -17.6155   16.1759 C   0  0  0  0  0  0  0  0  0  0  0  0
    7.1114  -16.9711   16.8640 O   0  0  0  0  0  0  0  0  0  0  0  0
   11.3324  -17.5348   19.6151 C   0  0  0  0  0  0  0  0  0  0  0  0
   10.7597  -18.5147   20.1261 O   0  0  0  0  0  0  0  0  0  0  0  0
    7.4803  -18.4774   15.1878 O   0  0  0  0  0  0  0  0  0  0  0  0
   12.1930  -16.7660   20.4781 N   0  0  0  0  0  0  0  0  0  0  0  0
   12.3609  -17.1216   21.8729 C   0  0  1  0  0  0  0  0  0  0  0  0
   13.7490  -16.7598   22.3283 C   0  0  0  0  0  0  0  0  0  0  0  0
   14.7378  -17.5069   21.5181 C   0  0  0  0  0  0  0  0  0  0  0  0
   14.5672  -18.7504   21.2577 O   0  0  0  0  0  0  0  0  0  0  0  0
   11.3945  -16.2921   22.6747 C   0  0  0  0  0  0  0  0  0  0  0  0
   11.5734  -15.0733   22.9055 O   0  0  0  0  0  0  0  0  0  0  0  0
   15.8966  -16.9715   20.9815 O   0  0  0  0  0  0  0  0  0  0  0  0
   10.2081  -16.8735   23.2171 N   0  0  0  0  0  0  0  0  0  0  0  0
    9.3208  -16.1604   24.1162 C   0  0  1  0  0  0  0  0  0  0  0  0
    7.9023  -16.1221   23.5667 C   0  0  0  0  0  0  0  0  0  0  0  0
    7.8914  -15.1367   22.4681 C   0  0  0  0  0  0  0  0  0  0  0  0
    7.7188  -15.4343   21.1366 C   0  0  0  0  0  0  0  0  0  0  0  0
    7.7803  -14.2341   20.5040 N   0  0  0  0  0  0  0  0  0  0  0  0
    7.9787  -13.2783   21.4131 C   0  0  0  0  0  0  0  0  0  0  0  0
    8.0494  -13.8138   22.6243 N   0  0  0  0  0  0  0  0  0  0  0  0
    9.3373  -16.8962   25.4197 C   0  0  0  0  0  0  0  0  0  0  0  0
    8.6294  -16.4098   26.5127 O   0  0  0  0  0  0  0  0  0  0  0  0
    9.9790  -17.9659   25.5826 O   0  0  0  0  0  0  0  0  0  0  0  0
  2  1  1  6
  2  3  1  0
  4  5  1  0
  4  3  1  0
  5  6  2  0
  7  2  1  0
  8  7  2  0
  9  5  1  0
 10  7  1  0
 11 10  1  0
 11 12  1  1
 12 13  1  0
 13 17  1  0
 14 13  2  0
 15 16  2  0
 15 11  1  0
 18 15  1  0
 19 18  1  0
 19 20  1  6
 20 21  1  0
 21 22  2  0
 21 25  1  0
 22 23  1  0
 24 23  1  0
 25 24  2  0
 26 19  1  0
 27 26  1  0
 28 26  2  0
M  END
$$$$
