EDH.pdb
     RDKit          3D

 28 28  0  0  1  0  0  0  0  0999 V2000
   12.4269  -18.1882   18.4448 N   0  0  0  0  0  0  0  0  0  0  0  0
   12.0998  -17.1700   19.4542 C   0  0  1  0  0  0  0  0  0  0  0  0
   10.5963  -17.2413   19.5794 C   0  0  0  0  0  0  0  0  0  0  0  0
    9.9921  -18.4365   18.9296 C   0  0  0  0  0  0  0  0  0  0  0  0
    8.5216  -18.4167   19.1419 C   0  0  0  0  0  0  0  0  0  0  0  0
    8.0178  -18.6911   20.2514 O   0  0  0  0  0  0  0  0  0  0  0  0
   12.6886  -17.5678   20.7616 C   0  0  0  0  0  0  0  0  0  0  0  0
   12.7650  -18.7644   21.0956 O   0  0  0  0  0  0  0  0  0  0  0  0
    7.7046  -18.0834   18.0725 O   0  0  0  0  0  0  0  0  0  0  0  0
   13.1965  -16.6002   21.7008 N   0  0  0  0  0  0  0  0  0  0  0  0
   13.8491  -17.0200   22.9248 C   0  0  1  0  0  0  0  0  0  0  0  0
   14.6748  -15.8893   23.4766 C   0  0  0  0  0  0  0  0  0  0  0  0
   15.8956  -15.7308   22.6539 C   0  0  0  0  0  0  0  0  0  0  0  0
   16.6364  -14.6913   22.7726 O   0  0  0  0  0  0  0  0  0  0  0  0
   12.7745  -17.3254   23.9332 C   0  0  0  0  0  0  0  0  0  0  0  0
   11.8836  -16.5019   24.2479 O   0  0  0  0  0  0  0  0  0  0  0  0
   16.3471  -16.6413   21.7134 O   0  0  0  0  0  0  0  0  0  0  0  0
   12.7255  -18.5943   24.5868 N   0  0  0  0  0  0  0  0  0  0  0  0
   11.6926  -18.9501   25.5410 C   0  0  1  0  0  0  0  0  0  0  0  0
   11.1663  -20.3534   25.2777 C   0  0  0  0  0  0  0  0  0  0  0  0
   10.4489  -20.3107   23.9887 C   0  0  0  0  0  0  0  0  0  0  0  0
   10.8964  -20.8654   22.8125 C   0  0  0  0  0  0  0  0  0  0  0  0
    9.9248  -20.5833   21.9064 N   0  0  0  0  0  0  0  0  0  0  0  0
    8.9550  -19.8985   22.5147 C   0  0  0  0  0  0  0  0  0  0  0  0
    9.2596  -19.7219   23.7933 N   0  0  0  0  0  0  0  0  0  0  0  0
   12.3160  -18.8919   26.9007 C   0  0  0  0  0  0  0  0  0  0  0  0
   11.5385  -19.0616   28.0405 O   0  0  0  0  0  0  0  0  0  0  0  0
   13.5462  -18.6908   27.0708 O   0  0  0  0  0  0  0  0  0  0  0  0
  2  1  1  6
  2  3  1  0
  4  5  1  0
  4  3  1  0
  5  6  2  0
  7  2  1  0
  8  7  2  0
  9  5  1  0
 10  7  1  0
 11 10  1  0
 11 12  1  1
 12 13  1  0
 13 17  1  0
 14 13  2  0
 15 16  2  0
 15 11  1  0
 18 15  1  0
 19 18  1  0
 19 20  1  6
 20 21  1  0
 21 22  2  0
 21 25  1  0
 22 23  1  0
 24 23  1  0
 25 24  2  0
 26 19  1  0
 27 26  1  0
 28 26  2  0
M  END
$$$$
