EDH.pdb
     RDKit          3D

 28 28  0  0  1  0  0  0  0  0999 V2000
    8.5886  -13.0657   17.8367 N   0  0  0  0  0  0  0  0  0  0  0  0
    8.5469  -14.4182   18.4125 C   0  0  1  0  0  0  0  0  0  0  0  0
    9.0772  -15.3065   17.3121 C   0  0  0  0  0  0  0  0  0  0  0  0
   10.4198  -14.9075   16.8081 C   0  0  0  0  0  0  0  0  0  0  0  0
   10.8945  -15.9198   15.8294 C   0  0  0  0  0  0  0  0  0  0  0  0
   12.0397  -15.8628   15.3339 O   0  0  0  0  0  0  0  0  0  0  0  0
    9.4928  -14.4931   19.5589 C   0  0  0  0  0  0  0  0  0  0  0  0
   10.3985  -13.6515   19.7020 O   0  0  0  0  0  0  0  0  0  0  0  0
   10.0331  -16.9446   15.4692 O   0  0  0  0  0  0  0  0  0  0  0  0
    9.4120  -15.5322   20.5539 N   0  0  0  0  0  0  0  0  0  0  0  0
   10.3606  -15.5928   21.6479 C   0  0  1  0  0  0  0  0  0  0  0  0
    9.9714  -16.6907   22.6007 C   0  0  0  0  0  0  0  0  0  0  0  0
   10.2832  -16.2679   23.9850 C   0  0  0  0  0  0  0  0  0  0  0  0
   10.9762  -15.2128   24.2083 O   0  0  0  0  0  0  0  0  0  0  0  0
   11.7019  -15.9546   21.0692 C   0  0  0  0  0  0  0  0  0  0  0  0
   11.8836  -16.1503   19.8446 O   0  0  0  0  0  0  0  0  0  0  0  0
    9.8816  -16.9326   25.1314 O   0  0  0  0  0  0  0  0  0  0  0  0
   12.8474  -16.0926   21.9109 N   0  0  0  0  0  0  0  0  0  0  0  0
   14.2006  -15.8548   21.4459 C   0  0  1  0  0  0  0  0  0  0  0  0
   14.3985  -14.3947   21.0657 C   0  0  0  0  0  0  0  0  0  0  0  0
   14.2413  -14.3049   19.6011 C   0  0  0  0  0  0  0  0  0  0  0  0
   13.8965  -15.3483   18.7743 C   0  0  0  0  0  0  0  0  0  0  0  0
   13.8717  -14.8078   17.5285 N   0  0  0  0  0  0  0  0  0  0  0  0
   14.1852  -13.5141   17.6147 C   0  0  0  0  0  0  0  0  0  0  0  0
   14.4153  -13.1877   18.8792 N   0  0  0  0  0  0  0  0  0  0  0  0
   15.1183  -16.2115   22.5734 C   0  0  0  0  0  0  0  0  0  0  0  0
   14.6038  -16.6080   23.8025 O   0  0  0  0  0  0  0  0  0  0  0  0
   16.3708  -16.1697   22.4630 O   0  0  0  0  0  0  0  0  0  0  0  0
  2  1  1  6
  2  3  1  0
  4  5  1  0
  4  3  1  0
  5  6  2  0
  7  2  1  0
  8  7  2  0
  9  5  1  0
 10  7  1  0
 11 10  1  0
 11 12  1  1
 12 13  1  0
 13 17  1  0
 14 13  2  0
 15 16  2  0
 15 11  1  0
 18 15  1  0
 19 18  1  0
 19 20  1  1
 20 21  1  0
 21 22  2  0
 21 25  1  0
 22 23  1  0
 24 23  1  0
 25 24  2  0
 26 19  1  0
 27 26  1  0
 28 26  2  0
M  END
$$$$
