EDH.pdb
     RDKit          3D

 28 28  0  0  1  0  0  0  0  0999 V2000
   11.8023  -17.9793   16.2949 N   0  0  0  0  0  0  0  0  0  0  0  0
   11.4180  -18.8193   17.4391 C   0  0  1  0  0  0  0  0  0  0  0  0
   12.6240  -19.6969   17.6768 C   0  0  0  0  0  0  0  0  0  0  0  0
   13.9227  -18.9741   17.5939 C   0  0  0  0  0  0  0  0  0  0  0  0
   15.0329  -19.9394   17.8024 C   0  0  0  0  0  0  0  0  0  0  0  0
   15.5522  -20.5543   16.8473 O   0  0  0  0  0  0  0  0  0  0  0  0
   11.2324  -17.9592   18.6392 C   0  0  0  0  0  0  0  0  0  0  0  0
   11.8719  -16.9003   18.7773 O   0  0  0  0  0  0  0  0  0  0  0  0
   15.4907  -20.1501   19.0940 O   0  0  0  0  0  0  0  0  0  0  0  0
   10.3127  -18.3019   19.6943 N   0  0  0  0  0  0  0  0  0  0  0  0
   10.0820  -17.3999   20.8048 C   0  0  1  0  0  0  0  0  0  0  0  0
    8.7926  -17.7578   21.4936 C   0  0  0  0  0  0  0  0  0  0  0  0
    7.6774  -17.6520   20.5254 C   0  0  0  0  0  0  0  0  0  0  0  0
    7.6211  -16.6786   19.6932 O   0  0  0  0  0  0  0  0  0  0  0  0
   11.1939  -17.6051   21.7980 C   0  0  0  0  0  0  0  0  0  0  0  0
   11.8625  -18.6634   21.8609 O   0  0  0  0  0  0  0  0  0  0  0  0
    6.6260  -18.5469   20.4192 O   0  0  0  0  0  0  0  0  0  0  0  0
   11.5398  -16.5793   22.7296 N   0  0  0  0  0  0  0  0  0  0  0  0
   12.5754  -16.7416   23.7322 C   0  0  1  0  0  0  0  0  0  0  0  0
   13.5388  -15.5638   23.7175 C   0  0  0  0  0  0  0  0  0  0  0  0
   14.2632  -15.6146   22.4328 C   0  0  0  0  0  0  0  0  0  0  0  0
   14.0477  -16.5373   21.4360 C   0  0  0  0  0  0  0  0  0  0  0  0
   14.9289  -16.2015   20.4586 N   0  0  0  0  0  0  0  0  0  0  0  0
   15.6277  -15.1372   20.8565 C   0  0  0  0  0  0  0  0  0  0  0  0
   15.2326  -14.7632   22.0660 N   0  0  0  0  0  0  0  0  0  0  0  0
   11.8888  -16.8155   25.0604 C   0  0  0  0  0  0  0  0  0  0  0  0
   11.2697  -15.6925   25.5972 O   0  0  0  0  0  0  0  0  0  0  0  0
   11.8416  -17.8747   25.7375 O   0  0  0  0  0  0  0  0  0  0  0  0
  2  1  1  6
  2  3  1  0
  4  5  1  0
  4  3  1  0
  5  6  2  0
  7  2  1  0
  8  7  2  0
  9  5  1  0
 10  7  1  0
 11 10  1  0
 11 12  1  1
 12 13  1  0
 13 17  1  0
 14 13  2  0
 15 16  2  0
 15 11  1  0
 18 15  1  0
 19 18  1  0
 19 20  1  1
 20 21  1  0
 21 22  2  0
 21 25  1  0
 22 23  1  0
 24 23  1  0
 25 24  2  0
 26 19  1  0
 27 26  1  0
 28 26  2  0
M  END
$$$$
