EDH.pdb
     RDKit          3D

 28 28  0  0  1  0  0  0  0  0999 V2000
    8.6344  -15.3936   19.6273 N   0  0  0  0  0  0  0  0  0  0  0  0
    7.7474  -16.0390   20.6067 C   0  0  1  0  0  0  0  0  0  0  0  0
    7.0658  -17.1360   19.8237 C   0  0  0  0  0  0  0  0  0  0  0  0
    7.3818  -17.1256   18.3691 C   0  0  0  0  0  0  0  0  0  0  0  0
    6.5609  -18.1572   17.6837 C   0  0  0  0  0  0  0  0  0  0  0  0
    5.8212  -18.9345   18.3231 O   0  0  0  0  0  0  0  0  0  0  0  0
    8.5709  -16.6771   21.6692 C   0  0  0  0  0  0  0  0  0  0  0  0
    8.0807  -17.5170   22.4461 O   0  0  0  0  0  0  0  0  0  0  0  0
    6.6299  -18.2450   16.3018 O   0  0  0  0  0  0  0  0  0  0  0  0
    9.9646  -16.3609   21.8540 N   0  0  0  0  0  0  0  0  0  0  0  0
   10.7266  -16.9522   22.9355 C   0  0  1  0  0  0  0  0  0  0  0  0
   12.1961  -16.7154   22.7134 C   0  0  0  0  0  0  0  0  0  0  0  0
   12.6698  -17.5881   21.6150 C   0  0  0  0  0  0  0  0  0  0  0  0
   12.2977  -18.8127   21.5432 O   0  0  0  0  0  0  0  0  0  0  0  0
   10.3438  -16.2412   24.2054 C   0  0  0  0  0  0  0  0  0  0  0  0
   10.1306  -15.0072   24.2559 O   0  0  0  0  0  0  0  0  0  0  0  0
   13.5239  -17.1970   20.5977 O   0  0  0  0  0  0  0  0  0  0  0  0
   10.2051  -16.9601   25.4317 N   0  0  0  0  0  0  0  0  0  0  0  0
    9.4055  -16.4781   26.5419 C   0  0  1  0  0  0  0  0  0  0  0  0
    7.9328  -16.4099   26.1648 C   0  0  0  0  0  0  0  0  0  0  0  0
    7.6179  -14.9910   25.9087 C   0  0  0  0  0  0  0  0  0  0  0  0
    8.3481  -13.9203   26.3689 C   0  0  0  0  0  0  0  0  0  0  0  0
    7.6950  -12.8280   25.8947 N   0  0  0  0  0  0  0  0  0  0  0  0
    6.6356  -13.2316   25.1918 C   0  0  0  0  0  0  0  0  0  0  0  0
    6.5724  -14.5563   25.1895 N   0  0  0  0  0  0  0  0  0  0  0  0
    9.5938  -17.4463   27.6678 C   0  0  0  0  0  0  0  0  0  0  0  0
    9.7480  -16.9897   28.9717 O   0  0  0  0  0  0  0  0  0  0  0  0
    9.6208  -18.6913   27.4897 O   0  0  0  0  0  0  0  0  0  0  0  0
  2  1  1  6
  2  3  1  0
  4  5  1  0
  4  3  1  0
  5  6  2  0
  7  2  1  0
  8  7  2  0
  9  5  1  0
 10  7  1  0
 11 10  1  0
 11 12  1  6
 12 13  1  0
 13 17  1  0
 14 13  2  0
 15 16  2  0
 15 11  1  0
 18 15  1  0
 19 18  1  0
 19 20  1  6
 20 21  1  0
 21 22  2  0
 21 25  1  0
 22 23  1  0
 24 23  1  0
 25 24  2  0
 26 19  1  0
 27 26  1  0
 28 26  2  0
M  END
$$$$
