EDH.pdb
     RDKit          3D

 28 28  0  0  1  0  0  0  0  0999 V2000
   10.2144  -15.1776   18.2755 N   0  0  0  0  0  0  0  0  0  0  0  0
   11.0002  -15.3537   19.5060 C   0  0  1  0  0  0  0  0  0  0  0  0
   11.4494  -13.9565   19.8626 C   0  0  0  0  0  0  0  0  0  0  0  0
   12.4620  -13.3910   18.9296 C   0  0  0  0  0  0  0  0  0  0  0  0
   13.8005  -13.9379   19.2720 C   0  0  0  0  0  0  0  0  0  0  0  0
   14.7496  -13.8982   18.4609 O   0  0  0  0  0  0  0  0  0  0  0  0
   10.1080  -15.8405   20.5929 C   0  0  0  0  0  0  0  0  0  0  0  0
    8.8801  -15.6399   20.5559 O   0  0  0  0  0  0  0  0  0  0  0  0
   13.9825  -14.5016   20.5255 O   0  0  0  0  0  0  0  0  0  0  0  0
   10.6115  -16.5622   21.7339 N   0  0  0  0  0  0  0  0  0  0  0  0
    9.7082  -17.1832   22.6818 C   0  0  1  0  0  0  0  0  0  0  0  0
    9.9595  -18.6662   22.7300 C   0  0  0  0  0  0  0  0  0  0  0  0
   11.4167  -18.9163   22.6508 C   0  0  0  0  0  0  0  0  0  0  0  0
   12.2169  -18.0059   22.2337 O   0  0  0  0  0  0  0  0  0  0  0  0
   10.0255  -16.6292   24.0446 C   0  0  0  0  0  0  0  0  0  0  0  0
   11.1771  -16.2646   24.3790 O   0  0  0  0  0  0  0  0  0  0  0  0
   12.0425  -20.1012   23.0000 O   0  0  0  0  0  0  0  0  0  0  0  0
    9.0044  -16.4936   25.0339 N   0  0  0  0  0  0  0  0  0  0  0  0
    9.2633  -15.9936   26.3707 C   0  0  1  0  0  0  0  0  0  0  0  0
    7.9802  -15.5105   27.0308 C   0  0  0  0  0  0  0  0  0  0  0  0
    7.6019  -14.2480   26.3669 C   0  0  0  0  0  0  0  0  0  0  0  0
    7.8344  -12.9879   26.8664 C   0  0  0  0  0  0  0  0  0  0  0  0
    7.3232  -12.1462   25.9310 N   0  0  0  0  0  0  0  0  0  0  0  0
    6.8159  -12.8703   24.9322 C   0  0  0  0  0  0  0  0  0  0  0  0
    6.9780  -14.1625   25.1826 N   0  0  0  0  0  0  0  0  0  0  0  0
    9.8389  -17.1296   27.1574 C   0  0  0  0  0  0  0  0  0  0  0  0
   10.5144  -16.8911   28.3487 O   0  0  0  0  0  0  0  0  0  0  0  0
    9.7400  -18.3269   26.7845 O   0  0  0  0  0  0  0  0  0  0  0  0
  2  1  1  6
  2  3  1  0
  4  5  1  0
  4  3  1  0
  5  6  2  0
  7  2  1  0
  8  7  2  0
  9  5  1  0
 10  7  1  0
 11 10  1  0
 11 12  1  1
 12 13  1  0
 13 17  1  0
 14 13  2  0
 15 16  2  0
 15 11  1  0
 18 15  1  0
 19 18  1  0
 19 20  1  1
 20 21  1  0
 21 22  2  0
 21 25  1  0
 22 23  1  0
 24 23  1  0
 25 24  2  0
 26 19  1  0
 27 26  1  0
 28 26  2  0
M  END
$$$$
