EDH.pdb
     RDKit          3D

 28 28  0  0  1  0  0  0  0  0999 V2000
   11.7988  -16.1800   15.0091 N   0  0  0  0  0  0  0  0  0  0  0  0
   11.5927  -15.0380   15.9124 C   0  0  1  0  0  0  0  0  0  0  0  0
   10.1417  -14.6674   15.7168 C   0  0  0  0  0  0  0  0  0  0  0  0
    9.3358  -15.7192   15.0385 C   0  0  0  0  0  0  0  0  0  0  0  0
    7.9671  -15.1988   14.7863 C   0  0  0  0  0  0  0  0  0  0  0  0
    7.0977  -15.1852   15.6830 O   0  0  0  0  0  0  0  0  0  0  0  0
   11.7658  -15.4880   17.3202 C   0  0  0  0  0  0  0  0  0  0  0  0
   11.4591  -16.6428   17.6691 O   0  0  0  0  0  0  0  0  0  0  0  0
    7.6653  -14.7210   13.5203 O   0  0  0  0  0  0  0  0  0  0  0  0
   12.2919  -14.6211   18.3440 N   0  0  0  0  0  0  0  0  0  0  0  0
   13.0741  -15.1527   19.4420 C   0  0  1  0  0  0  0  0  0  0  0  0
   14.3786  -14.4095   19.5461 C   0  0  0  0  0  0  0  0  0  0  0  0
   15.1668  -14.9638   20.6703 C   0  0  0  0  0  0  0  0  0  0  0  0
   15.0066  -16.1782   21.0480 O   0  0  0  0  0  0  0  0  0  0  0  0
   12.3091  -14.8976   20.7126 C   0  0  0  0  0  0  0  0  0  0  0  0
   12.6966  -15.3046   21.8329 O   0  0  0  0  0  0  0  0  0  0  0  0
   16.1143  -14.2659   21.4002 O   0  0  0  0  0  0  0  0  0  0  0  0
   11.0832  -14.1651   20.6926 N   0  0  0  0  0  0  0  0  0  0  0  0
    9.9155  -14.5614   21.4566 C   0  0  1  0  0  0  0  0  0  0  0  0
    8.9083  -15.2873   20.5768 C   0  0  0  0  0  0  0  0  0  0  0  0
    8.3849  -14.2990   19.6138 C   0  0  0  0  0  0  0  0  0  0  0  0
    8.7668  -12.9797   19.5438 C   0  0  0  0  0  0  0  0  0  0  0  0
    8.0342  -12.4621   18.5240 N   0  0  0  0  0  0  0  0  0  0  0  0
    7.2608  -13.4242   18.0184 C   0  0  0  0  0  0  0  0  0  0  0  0
    7.4627  -14.5586   18.6750 N   0  0  0  0  0  0  0  0  0  0  0  0
   10.3932  -15.4782   22.5392 C   0  0  0  0  0  0  0  0  0  0  0  0
    9.5035  -15.9775   23.4834 O   0  0  0  0  0  0  0  0  0  0  0  0
   11.5961  -15.8315   22.6421 O   0  0  0  0  0  0  0  0  0  0  0  0
  2  1  1  6
  2  3  1  0
  4  5  1  0
  4  3  1  0
  5  6  2  0
  7  2  1  0
  8  7  2  0
  9  5  1  0
 10  7  1  0
 11 10  1  0
 11 12  1  1
 12 13  1  0
 13 17  1  0
 14 13  2  0
 15 16  2  0
 15 11  1  0
 18 15  1  0
 19 18  1  0
 19 20  1  6
 20 21  1  0
 21 22  2  0
 21 25  1  0
 22 23  1  0
 24 23  1  0
 25 24  2  0
 26 19  1  0
 27 26  1  0
 28 26  2  0
M  END
$$$$
