EDH.pdb
     RDKit          3D

 28 28  0  0  1  0  0  0  0  0999 V2000
    9.2013  -18.2214   18.2802 N   0  0  0  0  0  0  0  0  0  0  0  0
    9.6610  -18.7568   19.5704 C   0  0  1  0  0  0  0  0  0  0  0  0
   11.1326  -18.4192   19.6092 C   0  0  0  0  0  0  0  0  0  0  0  0
   11.8672  -18.7765   18.3648 C   0  0  0  0  0  0  0  0  0  0  0  0
   13.2864  -18.3570   18.4982 C   0  0  0  0  0  0  0  0  0  0  0  0
   14.0320  -18.8432   19.3744 O   0  0  0  0  0  0  0  0  0  0  0  0
    8.9913  -18.0184   20.6751 C   0  0  0  0  0  0  0  0  0  0  0  0
    8.6246  -16.8377   20.5305 O   0  0  0  0  0  0  0  0  0  0  0  0
   13.7779  -17.4024   17.6210 O   0  0  0  0  0  0  0  0  0  0  0  0
    8.7340  -18.6233   21.9574 N   0  0  0  0  0  0  0  0  0  0  0  0
    8.0639  -17.8853   23.0093 C   0  0  1  0  0  0  0  0  0  0  0  0
    7.1199  -18.7946   23.7490 C   0  0  0  0  0  0  0  0  0  0  0  0
    6.0346  -19.2179   22.8350 C   0  0  0  0  0  0  0  0  0  0  0  0
    6.2003  -19.1933   21.5641 O   0  0  0  0  0  0  0  0  0  0  0  0
    9.1129  -17.4335   23.9892 C   0  0  0  0  0  0  0  0  0  0  0  0
   10.0084  -18.1942   24.4254 O   0  0  0  0  0  0  0  0  0  0  0  0
    4.7852  -19.6629   23.2330 O   0  0  0  0  0  0  0  0  0  0  0  0
    9.1306  -16.0897   24.4725 N   0  0  0  0  0  0  0  0  0  0  0  0
    8.9162  -15.7504   25.8664 C   0  0  1  0  0  0  0  0  0  0  0  0
    7.4374  -15.5374   26.1551 C   0  0  0  0  0  0  0  0  0  0  0  0
    7.2029  -14.0803   26.1544 C   0  0  0  0  0  0  0  0  0  0  0  0
    6.6008  -13.3738   25.1397 C   0  0  0  0  0  0  0  0  0  0  0  0
    6.6007  -12.0854   25.5693 N   0  0  0  0  0  0  0  0  0  0  0  0
    7.1722  -12.0334   26.7734 C   0  0  0  0  0  0  0  0  0  0  0  0
    7.5480  -13.2486   27.1486 N   0  0  0  0  0  0  0  0  0  0  0  0
    9.4287  -16.8986   26.6786 C   0  0  0  0  0  0  0  0  0  0  0  0
   10.2120  -16.6716   27.8043 O   0  0  0  0  0  0  0  0  0  0  0  0
    9.1794  -18.0964   26.3860 O   0  0  0  0  0  0  0  0  0  0  0  0
  2  1  1  6
  2  3  1  0
  4  5  1  0
  4  3  1  0
  5  6  2  0
  7  2  1  0
  8  7  2  0
  9  5  1  0
 10  7  1  0
 11 10  1  0
 11 12  1  1
 12 13  1  0
 13 17  1  0
 14 13  2  0
 15 16  2  0
 15 11  1  0
 18 15  1  0
 19 18  1  0
 19 20  1  6
 20 21  1  0
 21 22  2  0
 21 25  1  0
 22 23  1  0
 24 23  1  0
 25 24  2  0
 26 19  1  0
 27 26  1  0
 28 26  2  0
M  END
$$$$
