EDH.pdb
     RDKit          3D

 28 28  0  0  1  0  0  0  0  0999 V2000
   16.3023  -19.4711   16.7961 N   0  0  0  0  0  0  0  0  0  0  0  0
   15.7916  -18.1364   17.1427 C   0  0  1  0  0  0  0  0  0  0  0  0
   14.3241  -18.3611   17.4203 C   0  0  0  0  0  0  0  0  0  0  0  0
   13.5194  -18.6658   16.2057 C   0  0  0  0  0  0  0  0  0  0  0  0
   12.0949  -18.8341   16.5933 C   0  0  0  0  0  0  0  0  0  0  0  0
   11.3644  -17.8515   16.8400 O   0  0  0  0  0  0  0  0  0  0  0  0
   16.4327  -17.6780   18.4050 C   0  0  0  0  0  0  0  0  0  0  0  0
   16.6546  -18.4704   19.3388 O   0  0  0  0  0  0  0  0  0  0  0  0
   11.5812  -20.1190   16.6782 O   0  0  0  0  0  0  0  0  0  0  0  0
   16.8267  -16.3075   18.6120 N   0  0  0  0  0  0  0  0  0  0  0  0
   17.3883  -15.8757   19.8763 C   0  0  1  0  0  0  0  0  0  0  0  0
   18.1212  -14.5743   19.6912 C   0  0  0  0  0  0  0  0  0  0  0  0
   19.4248  -14.8375   19.0401 C   0  0  0  0  0  0  0  0  0  0  0  0
   19.7474  -14.2404   17.9527 O   0  0  0  0  0  0  0  0  0  0  0  0
   16.2443  -15.6169   20.8192 C   0  0  0  0  0  0  0  0  0  0  0  0
   15.5455  -14.5775   20.7712 O   0  0  0  0  0  0  0  0  0  0  0  0
   20.3884  -15.7138   19.5103 O   0  0  0  0  0  0  0  0  0  0  0  0
   15.9011  -16.5665   21.8292 N   0  0  0  0  0  0  0  0  0  0  0  0
   14.8840  -16.3169   22.8329 C   0  0  1  0  0  0  0  0  0  0  0  0
   13.8433  -17.4270   22.8431 C   0  0  0  0  0  0  0  0  0  0  0  0
   12.8834  -17.1091   23.9180 C   0  0  0  0  0  0  0  0  0  0  0  0
   11.9288  -16.1207   23.8630 C   0  0  0  0  0  0  0  0  0  0  0  0
   11.2876  -16.1933   25.0581 N   0  0  0  0  0  0  0  0  0  0  0  0
   11.8342  -17.1724   25.7806 C   0  0  0  0  0  0  0  0  0  0  0  0
   12.8152  -17.7456   25.0968 N   0  0  0  0  0  0  0  0  0  0  0  0
   15.5807  -16.2662   24.1568 C   0  0  0  0  0  0  0  0  0  0  0  0
   16.9066  -16.6677   24.2713 O   0  0  0  0  0  0  0  0  0  0  0  0
   15.0105  -15.8663   25.2044 O   0  0  0  0  0  0  0  0  0  0  0  0
  2  1  1  1
  2  3  1  0
  4  5  1  0
  4  3  1  0
  5  6  2  0
  7  2  1  0
  8  7  2  0
  9  5  1  0
 10  7  1  0
 11 10  1  0
 11 12  1  6
 12 13  1  0
 13 17  1  0
 14 13  2  0
 15 16  2  0
 15 11  1  0
 18 15  1  0
 19 18  1  0
 19 20  1  1
 20 21  1  0
 21 22  2  0
 21 25  1  0
 22 23  1  0
 24 23  1  0
 25 24  2  0
 26 19  1  0
 27 26  1  0
 28 26  2  0
M  END
$$$$
