EDH.pdb
     RDKit          3D

 28 28  0  0  1  0  0  0  0  0999 V2000
    9.0232  -22.0396   17.9338 N   0  0  0  0  0  0  0  0  0  0  0  0
    9.6244  -22.8579   18.9975 C   0  0  1  0  0  0  0  0  0  0  0  0
   11.0759  -22.9779   18.5976 C   0  0  0  0  0  0  0  0  0  0  0  0
   11.7917  -21.6749   18.5233 C   0  0  0  0  0  0  0  0  0  0  0  0
   13.2135  -21.9185   18.1673 C   0  0  0  0  0  0  0  0  0  0  0  0
   14.0296  -22.3618   19.0025 O   0  0  0  0  0  0  0  0  0  0  0  0
    9.5629  -22.1129   20.2842 C   0  0  0  0  0  0  0  0  0  0  0  0
    9.9416  -20.9298   20.3617 O   0  0  0  0  0  0  0  0  0  0  0  0
   13.6268  -21.6418   16.8731 O   0  0  0  0  0  0  0  0  0  0  0  0
    9.0670  -22.7142   21.4962 N   0  0  0  0  0  0  0  0  0  0  0  0
    8.9801  -21.9518   22.7256 C   0  0  1  0  0  0  0  0  0  0  0  0
    7.6388  -22.1749   23.3707 C   0  0  0  0  0  0  0  0  0  0  0  0
    6.5733  -21.7161   22.4505 C   0  0  0  0  0  0  0  0  0  0  0  0
    6.6881  -20.6095   21.8136 O   0  0  0  0  0  0  0  0  0  0  0  0
   10.0259  -22.4845   23.6677 C   0  0  0  0  0  0  0  0  0  0  0  0
   10.2366  -23.7097   23.8271 O   0  0  0  0  0  0  0  0  0  0  0  0
    5.3958  -22.3971   22.1914 O   0  0  0  0  0  0  0  0  0  0  0  0
   10.8383  -21.5955   24.4353 N   0  0  0  0  0  0  0  0  0  0  0  0
   11.8695  -22.0571   25.3451 C   0  0  1  0  0  0  0  0  0  0  0  0
   13.1302  -21.2151   25.2137 C   0  0  0  0  0  0  0  0  0  0  0  0
   13.6160  -21.3782   23.8297 C   0  0  0  0  0  0  0  0  0  0  0  0
   13.3102  -20.5466   22.7779 C   0  0  0  0  0  0  0  0  0  0  0  0
   13.9693  -21.0773   21.7156 N   0  0  0  0  0  0  0  0  0  0  0  0
   14.6293  -22.1644   22.1181 C   0  0  0  0  0  0  0  0  0  0  0  0
   14.4241  -22.3644   23.4130 N   0  0  0  0  0  0  0  0  0  0  0  0
   11.3184  -21.9277   26.7308 C   0  0  0  0  0  0  0  0  0  0  0  0
   12.0505  -22.3740   27.8251 O   0  0  0  0  0  0  0  0  0  0  0  0
   10.1913  -21.4199   26.9640 O   0  0  0  0  0  0  0  0  0  0  0  0
  2  1  1  6
  2  3  1  0
  4  5  1  0
  4  3  1  0
  5  6  2  0
  7  2  1  0
  8  7  2  0
  9  5  1  0
 10  7  1  0
 11 10  1  0
 11 12  1  1
 12 13  1  0
 13 17  1  0
 14 13  2  0
 15 16  2  0
 15 11  1  0
 18 15  1  0
 19 18  1  0
 19 20  1  1
 20 21  1  0
 21 22  2  0
 21 25  1  0
 22 23  1  0
 24 23  1  0
 25 24  2  0
 26 19  1  0
 27 26  1  0
 28 26  2  0
M  END
$$$$
