EDH.pdb
     RDKit          3D

 28 28  0  0  1  0  0  0  0  0999 V2000
   15.8470  -15.2606   19.4115 N   0  0  0  0  0  0  0  0  0  0  0  0
   14.8305  -14.6291   18.5568 C   0  0  1  0  0  0  0  0  0  0  0  0
   15.1602  -15.1168   17.1659 C   0  0  0  0  0  0  0  0  0  0  0  0
   14.2063  -14.6533   16.1215 C   0  0  0  0  0  0  0  0  0  0  0  0
   14.5895  -15.2445   14.8132 C   0  0  0  0  0  0  0  0  0  0  0  0
   15.6488  -14.9216   14.2355 O   0  0  0  0  0  0  0  0  0  0  0  0
   13.4870  -15.1550   18.9212 C   0  0  0  0  0  0  0  0  0  0  0  0
   12.4587  -14.7417   18.3546 O   0  0  0  0  0  0  0  0  0  0  0  0
   13.7398  -16.1748   14.2348 O   0  0  0  0  0  0  0  0  0  0  0  0
   13.3060  -16.1597   19.9382 N   0  0  0  0  0  0  0  0  0  0  0  0
   11.9797  -16.5580   20.3655 C   0  0  1  0  0  0  0  0  0  0  0  0
   11.9915  -18.0030   20.7860 C   0  0  0  0  0  0  0  0  0  0  0  0
   12.8528  -18.7730   19.8599 C   0  0  0  0  0  0  0  0  0  0  0  0
   12.6651  -18.7205   18.5929 O   0  0  0  0  0  0  0  0  0  0  0  0
   11.6261  -15.7400   21.5781 C   0  0  0  0  0  0  0  0  0  0  0  0
   12.1151  -15.9579   22.7114 O   0  0  0  0  0  0  0  0  0  0  0  0
   13.9011  -19.5931   20.2418 O   0  0  0  0  0  0  0  0  0  0  0  0
   10.6985  -14.6581   21.4843 N   0  0  0  0  0  0  0  0  0  0  0  0
    9.4672  -14.6070   22.2495 C   0  0  1  0  0  0  0  0  0  0  0  0
    8.2846  -15.0720   21.4123 C   0  0  0  0  0  0  0  0  0  0  0  0
    8.1949  -14.1659   20.2509 C   0  0  0  0  0  0  0  0  0  0  0  0
    9.0772  -13.1499   19.9668 C   0  0  0  0  0  0  0  0  0  0  0  0
    8.6050  -12.5931   18.8216 N   0  0  0  0  0  0  0  0  0  0  0  0
    7.5027  -13.2452   18.4488 C   0  0  0  0  0  0  0  0  0  0  0  0
    7.2358  -14.2139   19.3143 N   0  0  0  0  0  0  0  0  0  0  0  0
    9.6446  -15.5193   23.4229 C   0  0  0  0  0  0  0  0  0  0  0  0
    8.7890  -15.4370   24.5154 O   0  0  0  0  0  0  0  0  0  0  0  0
   10.5569  -16.3841   23.4733 O   0  0  0  0  0  0  0  0  0  0  0  0
  2  1  1  1
  2  3  1  0
  4  5  1  0
  4  3  1  0
  5  6  2  0
  7  2  1  0
  8  7  2  0
  9  5  1  0
 10  7  1  0
 11 10  1  0
 11 12  1  1
 12 13  1  0
 13 17  1  0
 14 13  2  0
 15 16  2  0
 15 11  1  0
 18 15  1  0
 19 18  1  0
 19 20  1  6
 20 21  1  0
 21 22  2  0
 21 25  1  0
 22 23  1  0
 24 23  1  0
 25 24  2  0
 26 19  1  0
 27 26  1  0
 28 26  2  0
M  END
$$$$
