EDH.pdb
     RDKit          3D

 28 28  0  0  1  0  0  0  0  0999 V2000
    7.4562  -17.5663   14.6103 N   0  0  0  0  0  0  0  0  0  0  0  0
    8.8425  -17.3097   15.0283 C   0  0  1  0  0  0  0  0  0  0  0  0
    9.0698  -15.8559   14.6876 C   0  0  0  0  0  0  0  0  0  0  0  0
    9.0414  -15.5662   13.2278 C   0  0  0  0  0  0  0  0  0  0  0  0
   10.3393  -15.9663   12.6253 C   0  0  0  0  0  0  0  0  0  0  0  0
   11.4256  -15.7207   13.1908 O   0  0  0  0  0  0  0  0  0  0  0  0
    8.9450  -17.4564   16.5056 C   0  0  0  0  0  0  0  0  0  0  0  0
    7.9828  -17.1862   17.2475 O   0  0  0  0  0  0  0  0  0  0  0  0
   10.3256  -16.6270   11.4065 O   0  0  0  0  0  0  0  0  0  0  0  0
   10.1499  -17.9142   17.1497 N   0  0  0  0  0  0  0  0  0  0  0  0
   10.2393  -17.9949   18.5939 C   0  0  1  0  0  0  0  0  0  0  0  0
   11.0952  -19.1686   18.9874 C   0  0  0  0  0  0  0  0  0  0  0  0
   10.3841  -20.4238   18.6538 C   0  0  0  0  0  0  0  0  0  0  0  0
    9.1980  -20.6413   19.0888 O   0  0  0  0  0  0  0  0  0  0  0  0
   10.9331  -16.7504   19.0784 C   0  0  0  0  0  0  0  0  0  0  0  0
   11.1985  -15.7835   18.3264 O   0  0  0  0  0  0  0  0  0  0  0  0
   10.8968  -21.4482   17.8760 O   0  0  0  0  0  0  0  0  0  0  0  0
   11.3259  -16.6182   20.4451 N   0  0  0  0  0  0  0  0  0  0  0  0
   10.9508  -15.4832   21.2668 C   0  0  1  0  0  0  0  0  0  0  0  0
    9.4375  -15.3541   21.3613 C   0  0  0  0  0  0  0  0  0  0  0  0
    9.0222  -14.3806   20.3329 C   0  0  0  0  0  0  0  0  0  0  0  0
    9.8684  -13.7408   19.4577 C   0  0  0  0  0  0  0  0  0  0  0  0
    9.0568  -12.9509   18.7081 N   0  0  0  0  0  0  0  0  0  0  0  0
    7.7982  -13.1152   19.1184 C   0  0  0  0  0  0  0  0  0  0  0  0
    7.7578  -13.9891   20.1150 N   0  0  0  0  0  0  0  0  0  0  0  0
   11.5228  -15.7230   22.6291 C   0  0  0  0  0  0  0  0  0  0  0  0
   12.1039  -14.6813   23.3430 O   0  0  0  0  0  0  0  0  0  0  0  0
   11.5045  -16.8543   23.1790 O   0  0  0  0  0  0  0  0  0  0  0  0
  2  1  1  1
  2  3  1  0
  4  5  1  0
  4  3  1  0
  5  6  2  0
  7  2  1  0
  8  7  2  0
  9  5  1  0
 10  7  1  0
 11 10  1  0
 11 12  1  6
 12 13  1  0
 13 17  1  0
 14 13  2  0
 15 16  2  0
 15 11  1  0
 18 15  1  0
 19 18  1  0
 19 20  1  1
 20 21  1  0
 21 22  2  0
 21 25  1  0
 22 23  1  0
 24 23  1  0
 25 24  2  0
 26 19  1  0
 27 26  1  0
 28 26  2  0
M  END
$$$$
