IST.pdb
     RDKit          3D

 22 21  0  0  1  0  0  0  0  0999 V2000
    7.4048  -12.0506   19.5558 C   0  0  0  0  0  0  0  0  0  0  0  0
    7.3011  -13.5718   19.6936 C   0  0  0  0  0  0  0  0  0  0  0  0
    7.8291  -14.0256   21.0061 C   0  0  2  0  0  0  0  0  0  0  0  0
    9.2123  -13.4657   21.2872 C   0  0  0  0  0  0  0  0  0  0  0  0
    7.7177  -15.4760   21.2566 C   0  0  2  0  0  0  0  0  0  0  0  0
    6.2906  -15.8509   21.0295 N   0  0  0  0  0  0  0  0  0  0  0  0
    8.0793  -16.0277   22.5410 C   0  0  0  0  0  0  0  0  0  0  0  0
    7.2476  -15.9035   23.5227 O   0  0  0  0  0  0  0  0  0  0  0  0
   11.5151  -18.3100   23.4755 O   0  0  0  0  0  0  0  0  0  0  0  0
   10.2675  -18.5589   24.0666 C   0  0  0  0  0  0  0  0  0  0  0  0
    9.4848  -17.2709   24.2310 C   0  0  2  0  0  0  0  0  0  0  0  0
    9.2590  -16.7239   22.9114 N   0  0  0  0  0  0  0  0  0  0  0  0
   10.1251  -16.3475   25.1808 C   0  0  0  0  0  0  0  0  0  0  0  0
   11.0443  -15.5532   24.7627 O   0  0  0  0  0  0  0  0  0  0  0  0
    9.5924  -13.0893   26.9973 C   0  0  0  0  0  0  0  0  0  0  0  0
    9.8030  -14.2082   27.9951 C   0  0  1  0  0  0  0  0  0  0  0  0
    8.5566  -14.6234   28.5144 O   0  0  0  0  0  0  0  0  0  0  0  0
   10.5793  -15.3574   27.4548 C   0  0  2  0  0  0  0  0  0  0  0  0
    9.8420  -16.2242   26.5612 N   0  0  0  0  0  0  0  0  0  0  0  0
   11.0913  -16.1252   28.6357 C   0  0  0  0  0  0  0  0  0  0  0  0
   10.7976  -17.3275   28.7944 O   0  0  0  0  0  0  0  0  0  0  0  0
   11.8997  -15.5122   29.5748 O   0  0  0  0  0  0  0  0  0  0  0  0
  2  1  1  0
  3  2  1  0
  3  5  1  0
  3  4  1  6
  5  7  1  0
  5  6  1  1
  7 12  1  0
  7  8  2  0
 11 10  1  6
 10  9  1  0
 11 13  1  0
 12 11  1  0
 13 14  2  0
 16 15  1  6
 16 18  1  0
 17 16  1  0
 18 20  1  0
 19 13  1  0
 18 19  1  6
 20 22  1  0
 21 20  2  0
M  END
$$$$
