IST.pdb
     RDKit          3D

 22 21  0  0  1  0  0  0  0  0999 V2000
    6.9850  -11.6492   18.4133 C   0  0  0  0  0  0  0  0  0  0  0  0
    7.3430  -13.0428   17.8900 C   0  0  0  0  0  0  0  0  0  0  0  0
    8.0188  -13.8489   18.9391 C   0  0  2  0  0  0  0  0  0  0  0  0
    9.2001  -13.1144   19.5481 C   0  0  0  0  0  0  0  0  0  0  0  0
    8.3237  -15.2418   18.5571 C   0  0  2  0  0  0  0  0  0  0  0  0
    7.0645  -15.8322   18.0145 N   0  0  0  0  0  0  0  0  0  0  0  0
    8.8179  -16.1792   19.5379 C   0  0  0  0  0  0  0  0  0  0  0  0
    7.9887  -16.6604   20.4048 O   0  0  0  0  0  0  0  0  0  0  0  0
   12.1414  -19.2517   21.3228 O   0  0  0  0  0  0  0  0  0  0  0  0
   11.6971  -18.3893   20.3095 C   0  0  0  0  0  0  0  0  0  0  0  0
   10.5256  -17.5553   20.7897 C   0  0  2  0  0  0  0  0  0  0  0  0
   10.1335  -16.6843   19.7038 N   0  0  0  0  0  0  0  0  0  0  0  0
   10.8138  -16.8686   22.0587 C   0  0  0  0  0  0  0  0  0  0  0  0
   11.6869  -15.9264   22.0793 O   0  0  0  0  0  0  0  0  0  0  0  0
    8.3615  -15.0628   24.7997 C   0  0  0  0  0  0  0  0  0  0  0  0
    9.3122  -16.0943   25.3688 C   0  0  1  0  0  0  0  0  0  0  0  0
    8.6063  -17.2830   25.6592 O   0  0  0  0  0  0  0  0  0  0  0  0
   10.4969  -16.3597   24.5078 C   0  0  2  0  0  0  0  0  0  0  0  0
   10.2230  -17.1334   23.3163 N   0  0  0  0  0  0  0  0  0  0  0  0
   11.5092  -17.0524   25.3688 C   0  0  0  0  0  0  0  0  0  0  0  0
   11.8760  -18.2178   25.1152 O   0  0  0  0  0  0  0  0  0  0  0  0
   12.0555  -16.4109   26.4648 O   0  0  0  0  0  0  0  0  0  0  0  0
  2  1  1  0
  3  2  1  0
  3  5  1  0
  3  4  1  6
  5  7  1  0
  5  6  1  1
  7 12  1  0
  7  8  2  0
 11 10  1  6
 10  9  1  0
 11 13  1  0
 12 11  1  0
 13 14  2  0
 16 15  1  6
 16 18  1  0
 17 16  1  0
 18 20  1  0
 19 13  1  0
 18 19  1  6
 20 22  1  0
 21 20  2  0
M  END
$$$$
