IST.pdb
     RDKit          3D

 22 21  0  0  1  0  0  0  0  0999 V2000
    6.6107  -19.2493   17.7672 C   0  0  0  0  0  0  0  0  0  0  0  0
    6.8820  -17.7532   17.9458 C   0  0  0  0  0  0  0  0  0  0  0  0
    7.4572  -17.4718   19.2863 C   0  0  2  0  0  0  0  0  0  0  0  0
    6.6752  -18.1534   20.3953 C   0  0  0  0  0  0  0  0  0  0  0  0
    7.7459  -16.0497   19.5564 C   0  0  2  0  0  0  0  0  0  0  0  0
    8.7626  -15.6118   18.5547 N   0  0  0  0  0  0  0  0  0  0  0  0
    8.2467  -15.6355   20.8457 C   0  0  0  0  0  0  0  0  0  0  0  0
    9.4708  -15.9160   21.1518 O   0  0  0  0  0  0  0  0  0  0  0  0
    7.7317  -13.4345   25.1917 O   0  0  0  0  0  0  0  0  0  0  0  0
    7.2348  -13.7181   23.9109 C   0  0  0  0  0  0  0  0  0  0  0  0
    8.1457  -14.6881   23.1844 C   0  0  2  0  0  0  0  0  0  0  0  0
    7.5755  -14.9294   21.8773 N   0  0  0  0  0  0  0  0  0  0  0  0
    8.4127  -15.9000   23.9748 C   0  0  0  0  0  0  0  0  0  0  0  0
    7.4658  -16.7471   24.1659 O   0  0  0  0  0  0  0  0  0  0  0  0
   10.4295  -19.0016   23.3385 C   0  0  0  0  0  0  0  0  0  0  0  0
   10.8617  -18.4105   24.6634 C   0  0  1  0  0  0  0  0  0  0  0  0
   12.1070  -17.7612   24.5111 O   0  0  0  0  0  0  0  0  0  0  0  0
    9.8487  -17.5105   25.2792 C   0  0  2  0  0  0  0  0  0  0  0  0
    9.6389  -16.2611   24.5804 N   0  0  0  0  0  0  0  0  0  0  0  0
   10.2932  -17.2616   26.6887 C   0  0  0  0  0  0  0  0  0  0  0  0
   10.5235  -16.1037   27.0928 O   0  0  0  0  0  0  0  0  0  0  0  0
   10.4583  -18.3145   27.5691 O   0  0  0  0  0  0  0  0  0  0  0  0
  2  1  1  0
  3  2  1  0
  3  5  1  0
  3  4  1  1
  5  7  1  0
  5  6  1  6
  7 12  1  0
  7  8  2  0
 11 10  1  1
 10  9  1  0
 11 13  1  0
 12 11  1  0
 13 14  2  0
 16 15  1  6
 16 18  1  0
 17 16  1  0
 18 20  1  0
 19 13  1  0
 18 19  1  6
 20 22  1  0
 21 20  2  0
M  END
$$$$
