IST.pdb
     RDKit          3D

 22 21  0  0  1  0  0  0  0  0999 V2000
    5.5847  -11.1482   26.7052 C   0  0  0  0  0  0  0  0  0  0  0  0
    5.2941  -12.4446   25.9445 C   0  0  0  0  0  0  0  0  0  0  0  0
    6.5454  -13.2021   25.6842 C   0  0  2  0  0  0  0  0  0  0  0  0
    7.6210  -12.3278   25.0642 C   0  0  0  0  0  0  0  0  0  0  0  0
    6.3620  -14.4924   24.9911 C   0  0  2  0  0  0  0  0  0  0  0  0
    5.4053  -15.2958   25.8084 N   0  0  0  0  0  0  0  0  0  0  0  0
    7.4924  -15.3528   24.7331 C   0  0  0  0  0  0  0  0  0  0  0  0
    7.9495  -16.0784   25.7002 O   0  0  0  0  0  0  0  0  0  0  0  0
   10.9524  -17.1751   21.7753 O   0  0  0  0  0  0  0  0  0  0  0  0
    9.8332  -16.3509   21.9648 C   0  0  0  0  0  0  0  0  0  0  0  0
    9.3844  -16.3793   23.4126 C   0  0  2  0  0  0  0  0  0  0  0  0
    8.2114  -15.5407   23.5243 N   0  0  0  0  0  0  0  0  0  0  0  0
   10.4752  -16.0417   24.3405 C   0  0  0  0  0  0  0  0  0  0  0  0
   11.2699  -15.0745   24.0512 O   0  0  0  0  0  0  0  0  0  0  0  0
   10.9296  -14.6926   28.0400 C   0  0  0  0  0  0  0  0  0  0  0  0
   11.5663  -16.0485   27.8214 C   0  0  1  0  0  0  0  0  0  0  0  0
   10.7420  -17.0555   28.3711 O   0  0  0  0  0  0  0  0  0  0  0  0
   11.9012  -16.3333   26.3994 C   0  0  2  0  0  0  0  0  0  0  0  0
   10.7716  -16.6832   25.5659 N   0  0  0  0  0  0  0  0  0  0  0  0
   12.9158  -17.4363   26.4079 C   0  0  0  0  0  0  0  0  0  0  0  0
   12.6555  -18.5500   25.9089 O   0  0  0  0  0  0  0  0  0  0  0  0
   14.1622  -17.2394   26.9725 O   0  0  0  0  0  0  0  0  0  0  0  0
  2  1  1  0
  3  2  1  0
  3  5  1  0
  3  4  1  6
  5  7  1  0
  5  6  1  1
  7 12  1  0
  7  8  2  0
 11 10  1  6
 10  9  1  0
 11 13  1  0
 12 11  1  0
 13 14  2  0
 16 15  1  6
 16 18  1  0
 17 16  1  0
 18 20  1  0
 19 13  1  0
 18 19  1  6
 20 22  1  0
 21 20  2  0
M  END
$$$$
