IST.pdb
     RDKit          3D

 22 21  0  0  1  0  0  0  0  0999 V2000
    5.6579  -10.7239   26.1775 C   0  0  0  0  0  0  0  0  0  0  0  0
    5.3325  -12.1444   25.7082 C   0  0  0  0  0  0  0  0  0  0  0  0
    6.5672  -12.9617   25.5864 C   0  0  2  0  0  0  0  0  0  0  0  0
    7.6627  -12.2284   24.8328 C   0  0  0  0  0  0  0  0  0  0  0  0
    6.3563  -14.3465   25.1208 C   0  0  2  0  0  0  0  0  0  0  0  0
    5.3038  -14.9459   25.9934 N   0  0  0  0  0  0  0  0  0  0  0  0
    7.4503  -15.2887   25.1044 C   0  0  0  0  0  0  0  0  0  0  0  0
    7.7785  -15.8730   26.2097 O   0  0  0  0  0  0  0  0  0  0  0  0
   10.5118  -15.6672   22.2963 O   0  0  0  0  0  0  0  0  0  0  0  0
    9.9184  -16.8580   22.7411 C   0  0  0  0  0  0  0  0  0  0  0  0
    9.3175  -16.6756   24.1209 C   0  0  2  0  0  0  0  0  0  0  0  0
    8.2570  -15.6983   24.0113 N   0  0  0  0  0  0  0  0  0  0  0  0
   10.3371  -16.3688   25.1363 C   0  0  0  0  0  0  0  0  0  0  0  0
   11.0349  -15.2960   25.0224 O   0  0  0  0  0  0  0  0  0  0  0  0
   10.5092  -14.7041   28.2330 C   0  0  0  0  0  0  0  0  0  0  0  0
   11.0427  -16.0990   28.4803 C   0  0  1  0  0  0  0  0  0  0  0  0
   10.0320  -16.8996   29.0576 O   0  0  0  0  0  0  0  0  0  0  0  0
   11.6251  -16.7430   27.2714 C   0  0  2  0  0  0  0  0  0  0  0  0
   10.6602  -17.1476   26.2721 N   0  0  0  0  0  0  0  0  0  0  0  0
   12.4182  -17.9211   27.7503 C   0  0  0  0  0  0  0  0  0  0  0  0
   12.1223  -19.0800   27.3946 O   0  0  0  0  0  0  0  0  0  0  0  0
   13.4948  -17.7445   28.5992 O   0  0  0  0  0  0  0  0  0  0  0  0
  2  1  1  0
  3  2  1  0
  3  5  1  0
  3  4  1  6
  5  7  1  0
  5  6  1  1
  7 12  1  0
  7  8  2  0
 11 10  1  6
 10  9  1  0
 11 13  1  0
 12 11  1  0
 13 14  2  0
 16 15  1  6
 16 18  1  0
 17 16  1  0
 18 20  1  0
 19 13  1  0
 18 19  1  6
 20 22  1  0
 21 20  2  0
M  END
$$$$
