IST.pdb
     RDKit          3D

 22 21  0  0  1  0  0  0  0  0999 V2000
    7.0223  -11.9197   27.6052 C   0  0  0  0  0  0  0  0  0  0  0  0
    6.2831  -12.9219   26.7146 C   0  0  0  0  0  0  0  0  0  0  0  0
    7.2360  -13.6948   25.8769 C   0  0  2  0  0  0  0  0  0  0  0  0
    8.2039  -12.7904   25.1347 C   0  0  0  0  0  0  0  0  0  0  0  0
    6.6199  -14.7279   25.0212 C   0  0  2  0  0  0  0  0  0  0  0  0
    5.7746  -15.5822   25.9068 N   0  0  0  0  0  0  0  0  0  0  0  0
    7.4445  -15.6331   24.2563 C   0  0  0  0  0  0  0  0  0  0  0  0
    7.8954  -16.6969   24.8358 O   0  0  0  0  0  0  0  0  0  0  0  0
    9.4763  -14.8475   20.6344 O   0  0  0  0  0  0  0  0  0  0  0  0
    8.8604  -16.0962   20.8054 C   0  0  0  0  0  0  0  0  0  0  0  0
    8.7770  -16.4569   22.2756 C   0  0  2  0  0  0  0  0  0  0  0  0
    7.8525  -15.5369   22.9006 N   0  0  0  0  0  0  0  0  0  0  0  0
   10.1034  -16.5245   22.9086 C   0  0  0  0  0  0  0  0  0  0  0  0
   10.6890  -15.4359   23.2590 O   0  0  0  0  0  0  0  0  0  0  0  0
   11.6808  -18.4887   26.2079 C   0  0  0  0  0  0  0  0  0  0  0  0
   12.3136  -18.7753   24.8629 C   0  0  1  0  0  0  0  0  0  0  0  0
   11.8451  -20.0139   24.3710 O   0  0  0  0  0  0  0  0  0  0  0  0
   12.1262  -17.6861   23.8660 C   0  0  2  0  0  0  0  0  0  0  0  0
   10.8481  -17.6942   23.1879 N   0  0  0  0  0  0  0  0  0  0  0  0
   13.2497  -17.8050   22.8812 C   0  0  0  0  0  0  0  0  0  0  0  0
   13.0233  -18.0301   21.6749 O   0  0  0  0  0  0  0  0  0  0  0  0
   14.5621  -17.6687   23.2936 O   0  0  0  0  0  0  0  0  0  0  0  0
  2  1  1  0
  3  2  1  0
  3  5  1  0
  3  4  1  6
  5  7  1  0
  5  6  1  1
  7 12  1  0
  7  8  2  0
 11 10  1  6
 10  9  1  0
 11 13  1  0
 12 11  1  0
 13 14  2  0
 16 15  1  1
 16 18  1  0
 17 16  1  0
 18 20  1  0
 19 13  1  0
 18 19  1  6
 20 22  1  0
 21 20  2  0
M  END
$$$$
