IST.pdb
     RDKit          3D

 22 21  0  0  1  0  0  0  0  0999 V2000
    7.1518  -12.0102   19.6716 C   0  0  0  0  0  0  0  0  0  0  0  0
    7.5793  -13.4762   19.5625 C   0  0  0  0  0  0  0  0  0  0  0  0
    7.9367  -14.0280   20.8948 C   0  0  2  0  0  0  0  0  0  0  0  0
    9.0004  -13.1956   21.5885 C   0  0  0  0  0  0  0  0  0  0  0  0
    8.2150  -15.4775   20.9165 C   0  0  2  0  0  0  0  0  0  0  0  0
    7.0352  -16.1586   20.3057 N   0  0  0  0  0  0  0  0  0  0  0  0
    8.4697  -16.1562   22.1652 C   0  0  0  0  0  0  0  0  0  0  0  0
    7.4676  -16.4324   22.9334 O   0  0  0  0  0  0  0  0  0  0  0  0
   12.0212  -18.0648   23.5380 O   0  0  0  0  0  0  0  0  0  0  0  0
   10.7095  -18.4079   23.8981 C   0  0  0  0  0  0  0  0  0  0  0  0
    9.8459  -17.1684   24.0250 C   0  0  2  0  0  0  0  0  0  0  0  0
    9.7068  -16.5943   22.7048 N   0  0  0  0  0  0  0  0  0  0  0  0
   10.3489  -16.2418   25.0513 C   0  0  0  0  0  0  0  0  0  0  0  0
   11.2346  -15.3684   24.7298 O   0  0  0  0  0  0  0  0  0  0  0  0
    9.3573  -13.0820   26.9256 C   0  0  0  0  0  0  0  0  0  0  0  0
    9.5689  -14.2408   27.8764 C   0  0  1  0  0  0  0  0  0  0  0  0
    8.3220  -14.8120   28.2151 O   0  0  0  0  0  0  0  0  0  0  0  0
   10.5202  -15.2677   27.3706 C   0  0  2  0  0  0  0  0  0  0  0  0
    9.9616  -16.1953   26.4109 N   0  0  0  0  0  0  0  0  0  0  0  0
   11.0449  -15.9973   28.5699 C   0  0  0  0  0  0  0  0  0  0  0  0
   10.9210  -17.2348   28.6719 O   0  0  0  0  0  0  0  0  0  0  0  0
   11.6765  -15.3096   29.5893 O   0  0  0  0  0  0  0  0  0  0  0  0
  2  1  1  0
  3  2  1  0
  3  5  1  0
  3  4  1  6
  5  7  1  0
  5  6  1  1
  7 12  1  0
  7  8  2  0
 11 10  1  6
 10  9  1  0
 11 13  1  0
 12 11  1  0
 13 14  2  0
 16 15  1  6
 16 18  1  0
 17 16  1  0
 18 20  1  0
 19 13  1  0
 18 19  1  6
 20 22  1  0
 21 20  2  0
M  END
$$$$
