IST.pdb
     RDKit          3D

 22 21  0  0  1  0  0  0  0  0999 V2000
    5.8634  -10.8658   26.1749 C   0  0  0  0  0  0  0  0  0  0  0  0
    5.5408  -12.2670   25.6491 C   0  0  0  0  0  0  0  0  0  0  0  0
    6.7763  -13.0787   25.5014 C   0  0  2  0  0  0  0  0  0  0  0  0
    7.8395  -12.3546   24.6945 C   0  0  0  0  0  0  0  0  0  0  0  0
    6.5593  -14.4745   25.0728 C   0  0  2  0  0  0  0  0  0  0  0  0
    5.5147  -15.0503   25.9705 N   0  0  0  0  0  0  0  0  0  0  0  0
    7.6520  -15.4183   25.0694 C   0  0  0  0  0  0  0  0  0  0  0  0
    7.9625  -16.0074   26.1773 O   0  0  0  0  0  0  0  0  0  0  0  0
   10.4610  -15.6641   22.1908 O   0  0  0  0  0  0  0  0  0  0  0  0
   10.2052  -16.9228   22.7548 C   0  0  0  0  0  0  0  0  0  0  0  0
    9.5542  -16.7787   24.1164 C   0  0  2  0  0  0  0  0  0  0  0  0
    8.4746  -15.8250   23.9871 N   0  0  0  0  0  0  0  0  0  0  0  0
   10.5315  -16.4657   25.1708 C   0  0  0  0  0  0  0  0  0  0  0  0
   11.2896  -15.4367   25.0398 O   0  0  0  0  0  0  0  0  0  0  0  0
   10.2634  -14.6949   28.1232 C   0  0  0  0  0  0  0  0  0  0  0  0
   10.8612  -16.0219   28.5394 C   0  0  1  0  0  0  0  0  0  0  0  0
    9.8570  -16.8404   29.1026 O   0  0  0  0  0  0  0  0  0  0  0  0
   11.5874  -16.7236   27.4459 C   0  0  2  0  0  0  0  0  0  0  0  0
   10.7509  -17.1942   26.3632 N   0  0  0  0  0  0  0  0  0  0  0  0
   12.3249  -17.8636   28.0803 C   0  0  0  0  0  0  0  0  0  0  0  0
   12.0524  -19.0454   27.7868 O   0  0  0  0  0  0  0  0  0  0  0  0
   13.3229  -17.6254   29.0067 O   0  0  0  0  0  0  0  0  0  0  0  0
  2  1  1  0
  3  2  1  0
  3  5  1  0
  3  4  1  6
  5  7  1  0
  5  6  1  1
  7 12  1  0
  7  8  2  0
 11 10  1  6
 10  9  1  0
 11 13  1  0
 12 11  1  0
 13 14  2  0
 16 15  1  6
 16 18  1  0
 17 16  1  0
 18 20  1  0
 19 13  1  0
 18 19  1  6
 20 22  1  0
 21 20  2  0
M  END
$$$$
