IST.pdb
     RDKit          3D

 22 21  0  0  1  0  0  0  0  0999 V2000
    6.7626  -11.2747   27.8621 C   0  0  0  0  0  0  0  0  0  0  0  0
    5.9626  -12.2030   26.9443 C   0  0  0  0  0  0  0  0  0  0  0  0
    6.8663  -13.0294   26.1030 C   0  0  2  0  0  0  0  0  0  0  0  0
    7.8468  -12.1782   25.3156 C   0  0  0  0  0  0  0  0  0  0  0  0
    6.1927  -14.0595   25.2881 C   0  0  2  0  0  0  0  0  0  0  0  0
    5.4846  -14.9717   26.2341 N   0  0  0  0  0  0  0  0  0  0  0  0
    6.9555  -14.9092   24.4044 C   0  0  0  0  0  0  0  0  0  0  0  0
    7.4363  -16.0139   24.8728 O   0  0  0  0  0  0  0  0  0  0  0  0
    8.8776  -15.9757   20.0238 O   0  0  0  0  0  0  0  0  0  0  0  0
    8.1582  -15.0965   20.8468 C   0  0  0  0  0  0  0  0  0  0  0  0
    8.1091  -15.6134   22.2712 C   0  0  2  0  0  0  0  0  0  0  0  0
    7.2703  -14.7158   23.0344 N   0  0  0  0  0  0  0  0  0  0  0  0
    9.4521  -15.8297   22.8318 C   0  0  0  0  0  0  0  0  0  0  0  0
   10.1344  -14.8193   23.2371 O   0  0  0  0  0  0  0  0  0  0  0  0
   11.2074  -17.8850   25.9155 C   0  0  0  0  0  0  0  0  0  0  0  0
   11.6324  -18.2804   24.5174 C   0  0  1  0  0  0  0  0  0  0  0  0
   10.9620  -19.4629   24.1329 O   0  0  0  0  0  0  0  0  0  0  0  0
   11.4573  -17.2009   23.5078 C   0  0  2  0  0  0  0  0  0  0  0  0
   10.1155  -17.0699   22.9826 N   0  0  0  0  0  0  0  0  0  0  0  0
   12.4335  -17.4791   22.4053 C   0  0  0  0  0  0  0  0  0  0  0  0
   12.0417  -17.6741   21.2367 O   0  0  0  0  0  0  0  0  0  0  0  0
   13.7906  -17.5266   22.6644 O   0  0  0  0  0  0  0  0  0  0  0  0
  2  1  1  0
  3  2  1  0
  3  5  1  0
  3  4  1  6
  5  7  1  0
  5  6  1  1
  7 12  1  0
  7  8  2  0
 11 10  1  6
 10  9  1  0
 11 13  1  0
 12 11  1  0
 13 14  2  0
 16 15  1  1
 16 18  1  0
 17 16  1  0
 18 20  1  0
 19 13  1  0
 18 19  1  6
 20 22  1  0
 21 20  2  0
M  END
$$$$
