IST.pdb
     RDKit          3D

 22 21  0  0  1  0  0  0  0  0999 V2000
    7.5985  -11.9136   19.8451 C   0  0  0  0  0  0  0  0  0  0  0  0
    7.3701  -13.4263   19.9030 C   0  0  0  0  0  0  0  0  0  0  0  0
    7.8575  -13.9904   21.1881 C   0  0  2  0  0  0  0  0  0  0  0  0
    9.2627  -13.5198   21.5192 C   0  0  0  0  0  0  0  0  0  0  0  0
    7.6716  -15.4466   21.3417 C   0  0  2  0  0  0  0  0  0  0  0  0
    6.2159  -15.7234   21.1596 N   0  0  0  0  0  0  0  0  0  0  0  0
    8.0575  -16.1097   22.5649 C   0  0  0  0  0  0  0  0  0  0  0  0
    7.2288  -16.1065   23.5569 O   0  0  0  0  0  0  0  0  0  0  0  0
    9.8074  -19.5930   23.4383 O   0  0  0  0  0  0  0  0  0  0  0  0
   10.5052  -18.5065   23.9863 C   0  0  0  0  0  0  0  0  0  0  0  0
    9.5845  -17.3167   24.1738 C   0  0  2  0  0  0  0  0  0  0  0  0
    9.2595  -16.8031   22.8615 N   0  0  0  0  0  0  0  0  0  0  0  0
   10.1412  -16.3230   25.1052 C   0  0  0  0  0  0  0  0  0  0  0  0
   11.0701  -15.5331   24.7003 O   0  0  0  0  0  0  0  0  0  0  0  0
    9.2130  -13.0138   26.6082 C   0  0  0  0  0  0  0  0  0  0  0  0
    9.4699  -14.0154   27.7139 C   0  0  1  0  0  0  0  0  0  0  0  0
    8.2399  -14.4947   28.2168 O   0  0  0  0  0  0  0  0  0  0  0  0
   10.3694  -15.1325   27.3161 C   0  0  2  0  0  0  0  0  0  0  0  0
    9.7642  -16.1244   26.4540 N   0  0  0  0  0  0  0  0  0  0  0  0
   10.8622  -15.7616   28.5840 C   0  0  0  0  0  0  0  0  0  0  0  0
   10.5957  -16.9502   28.8551 O   0  0  0  0  0  0  0  0  0  0  0  0
   11.6222  -15.0333   29.4800 O   0  0  0  0  0  0  0  0  0  0  0  0
  2  1  1  0
  3  2  1  0
  3  5  1  0
  3  4  1  6
  5  7  1  0
  5  6  1  1
  7 12  1  0
  7  8  2  0
 11 10  1  6
 10  9  1  0
 11 13  1  0
 12 11  1  0
 13 14  2  0
 16 15  1  6
 16 18  1  0
 17 16  1  0
 18 20  1  0
 19 13  1  0
 18 19  1  6
 20 22  1  0
 21 20  2  0
M  END
$$$$
