IST.pdb
     RDKit          3D

 22 21  0  0  1  0  0  0  0  0999 V2000
    7.1293  -12.0510   19.4996 C   0  0  0  0  0  0  0  0  0  0  0  0
    7.3120  -13.5697   19.5644 C   0  0  0  0  0  0  0  0  0  0  0  0
    7.8389  -13.9874   20.8892 C   0  0  2  0  0  0  0  0  0  0  0  0
    9.0778  -13.2021   21.2819 C   0  0  0  0  0  0  0  0  0  0  0  0
    7.9814  -15.4450   21.0737 C   0  0  2  0  0  0  0  0  0  0  0  0
    6.6801  -16.0645   20.6842 N   0  0  0  0  0  0  0  0  0  0  0  0
    8.3156  -15.9906   22.3680 C   0  0  0  0  0  0  0  0  0  0  0  0
    7.4106  -15.9894   23.2910 O   0  0  0  0  0  0  0  0  0  0  0  0
   11.9677  -17.8256   23.5944 O   0  0  0  0  0  0  0  0  0  0  0  0
   10.7036  -18.2619   24.0179 C   0  0  0  0  0  0  0  0  0  0  0  0
    9.7438  -17.0942   24.1343 C   0  0  2  0  0  0  0  0  0  0  0  0
    9.5389  -16.5613   22.8054 N   0  0  0  0  0  0  0  0  0  0  0  0
   10.1845  -16.1083   25.1335 C   0  0  0  0  0  0  0  0  0  0  0  0
   10.9977  -15.1778   24.7823 O   0  0  0  0  0  0  0  0  0  0  0  0
    9.0407  -12.9908   26.8625 C   0  0  0  0  0  0  0  0  0  0  0  0
    9.3240  -14.0703   27.8853 C   0  0  1  0  0  0  0  0  0  0  0  0
    8.1124  -14.6774   28.2843 O   0  0  0  0  0  0  0  0  0  0  0  0
   10.3179  -15.0815   27.4325 C   0  0  2  0  0  0  0  0  0  0  0  0
    9.8083  -16.0598   26.4962 N   0  0  0  0  0  0  0  0  0  0  0  0
   10.8437  -15.7515   28.6657 C   0  0  0  0  0  0  0  0  0  0  0  0
   10.7083  -16.9804   28.8344 O   0  0  0  0  0  0  0  0  0  0  0  0
   11.4890  -15.0169   29.6430 O   0  0  0  0  0  0  0  0  0  0  0  0
  2  1  1  0
  3  2  1  0
  3  5  1  0
  3  4  1  6
  5  7  1  0
  5  6  1  1
  7 12  1  0
  7  8  2  0
 11 10  1  6
 10  9  1  0
 11 13  1  0
 12 11  1  0
 13 14  2  0
 16 15  1  6
 16 18  1  0
 17 16  1  0
 18 20  1  0
 19 13  1  0
 18 19  1  6
 20 22  1  0
 21 20  2  0
M  END
$$$$
