IST.pdb
     RDKit          3D

 22 21  0  0  1  0  0  0  0  0999 V2000
    7.0164  -11.9604   19.7166 C   0  0  0  0  0  0  0  0  0  0  0  0
    7.3491  -13.4533   19.6488 C   0  0  0  0  0  0  0  0  0  0  0  0
    7.7953  -13.9609   20.9718 C   0  0  2  0  0  0  0  0  0  0  0  0
    8.8787  -13.0878   21.5800 C   0  0  0  0  0  0  0  0  0  0  0  0
    8.1065  -15.4031   21.0151 C   0  0  2  0  0  0  0  0  0  0  0  0
    6.9203  -16.1233   20.4649 N   0  0  0  0  0  0  0  0  0  0  0  0
    8.4231  -16.0472   22.2680 C   0  0  0  0  0  0  0  0  0  0  0  0
    7.4737  -16.2288   23.1261 O   0  0  0  0  0  0  0  0  0  0  0  0
   12.1800  -17.6092   23.5879 O   0  0  0  0  0  0  0  0  0  0  0  0
   10.9399  -18.1430   23.9688 C   0  0  0  0  0  0  0  0  0  0  0  0
    9.8911  -17.0521   24.0603 C   0  0  2  0  0  0  0  0  0  0  0  0
    9.6722  -16.5417   22.7249 N   0  0  0  0  0  0  0  0  0  0  0  0
   10.2350  -16.0314   25.0627 C   0  0  0  0  0  0  0  0  0  0  0  0
   10.9628  -15.0308   24.7167 O   0  0  0  0  0  0  0  0  0  0  0  0
    9.2859  -12.9064   26.6071 C   0  0  0  0  0  0  0  0  0  0  0  0
    9.3931  -13.9485   27.7000 C   0  0  1  0  0  0  0  0  0  0  0  0
    8.1069  -14.4395   28.0169 O   0  0  0  0  0  0  0  0  0  0  0  0
   10.3374  -15.0550   27.3851 C   0  0  2  0  0  0  0  0  0  0  0  0
    9.8478  -16.0184   26.4231 N   0  0  0  0  0  0  0  0  0  0  0  0
   10.6664  -15.7241   28.6851 C   0  0  0  0  0  0  0  0  0  0  0  0
   10.4130  -16.9325   28.8660 O   0  0  0  0  0  0  0  0  0  0  0  0
   11.2572  -15.0114   29.7118 O   0  0  0  0  0  0  0  0  0  0  0  0
  2  1  1  0
  3  2  1  0
  3  5  1  0
  3  4  1  6
  5  7  1  0
  5  6  1  1
  7 12  1  0
  7  8  2  0
 11 10  1  6
 10  9  1  0
 11 13  1  0
 12 11  1  0
 13 14  2  0
 16 15  1  6
 16 18  1  0
 17 16  1  0
 18 20  1  0
 19 13  1  0
 18 19  1  6
 20 22  1  0
 21 20  2  0
M  END
$$$$
