IST.pdb
     RDKit          3D

 22 21  0  0  1  0  0  0  0  0999 V2000
    5.7142  -11.1926   26.7698 C   0  0  0  0  0  0  0  0  0  0  0  0
    5.4499  -12.5321   26.0770 C   0  0  0  0  0  0  0  0  0  0  0  0
    6.7236  -13.2167   25.7362 C   0  0  2  0  0  0  0  0  0  0  0  0
    7.6633  -12.3145   24.9561 C   0  0  0  0  0  0  0  0  0  0  0  0
    6.5718  -14.5613   25.1463 C   0  0  2  0  0  0  0  0  0  0  0  0
    5.6540  -15.3294   26.0386 N   0  0  0  0  0  0  0  0  0  0  0  0
    7.7255  -15.4032   24.9347 C   0  0  0  0  0  0  0  0  0  0  0  0
    8.1243  -16.1593   25.9043 O   0  0  0  0  0  0  0  0  0  0  0  0
   11.3348  -17.1564   22.1213 O   0  0  0  0  0  0  0  0  0  0  0  0
   10.2788  -16.2520   22.3078 C   0  0  0  0  0  0  0  0  0  0  0  0
    9.7030  -16.3795   23.7044 C   0  0  2  0  0  0  0  0  0  0  0  0
    8.5256  -15.5423   23.7711 N   0  0  0  0  0  0  0  0  0  0  0  0
   10.7073  -16.1166   24.7470 C   0  0  0  0  0  0  0  0  0  0  0  0
   11.5870  -15.2000   24.5556 O   0  0  0  0  0  0  0  0  0  0  0  0
   10.5530  -14.4078   28.0294 C   0  0  0  0  0  0  0  0  0  0  0  0
   11.1190  -15.7960   28.2399 C   0  0  1  0  0  0  0  0  0  0  0  0
   10.1154  -16.6458   28.7558 O   0  0  0  0  0  0  0  0  0  0  0  0
   11.7547  -16.3766   27.0258 C   0  0  2  0  0  0  0  0  0  0  0  0
   10.8305  -16.7821   25.9891 N   0  0  0  0  0  0  0  0  0  0  0  0
   12.5796  -17.5403   27.4856 C   0  0  0  0  0  0  0  0  0  0  0  0
   13.5529  -17.3740   28.2486 O   0  0  0  0  0  0  0  0  0  0  0  0
   12.2768  -18.8235   27.0698 O   0  0  0  0  0  0  0  0  0  0  0  0
  2  1  1  0
  3  2  1  0
  3  5  1  0
  3  4  1  6
  5  7  1  0
  5  6  1  1
  7 12  1  0
  7  8  2  0
 11 10  1  6
 10  9  1  0
 11 13  1  0
 12 11  1  0
 13 14  2  0
 16 15  1  6
 16 18  1  0
 17 16  1  0
 18 20  1  0
 19 13  1  0
 18 19  1  6
 20 22  1  0
 21 20  2  0
M  END
$$$$
