IST.pdb
     RDKit          3D

 22 21  0  0  1  0  0  0  0  0999 V2000
    7.3371  -12.0766   18.9284 C   0  0  0  0  0  0  0  0  0  0  0  0
    7.6772  -13.5673   19.0066 C   0  0  0  0  0  0  0  0  0  0  0  0
    7.8552  -14.0005   20.4165 C   0  0  2  0  0  0  0  0  0  0  0  0
    8.7669  -13.0633   21.1886 C   0  0  0  0  0  0  0  0  0  0  0  0
    8.1888  -15.4273   20.5944 C   0  0  2  0  0  0  0  0  0  0  0  0
    7.1217  -16.2148   19.9089 N   0  0  0  0  0  0  0  0  0  0  0  0
    8.3174  -15.9904   21.9177 C   0  0  0  0  0  0  0  0  0  0  0  0
    7.2422  -16.2280   22.5948 O   0  0  0  0  0  0  0  0  0  0  0  0
   11.6111  -17.8936   23.5809 O   0  0  0  0  0  0  0  0  0  0  0  0
   10.2975  -18.1141   24.0209 C   0  0  0  0  0  0  0  0  0  0  0  0
    9.4971  -16.8269   23.9879 C   0  0  2  0  0  0  0  0  0  0  0  0
    9.4956  -16.3468   22.6236 N   0  0  0  0  0  0  0  0  0  0  0  0
    9.9679  -15.8525   24.9847 C   0  0  0  0  0  0  0  0  0  0  0  0
   10.9096  -15.0369   24.6705 O   0  0  0  0  0  0  0  0  0  0  0  0
    8.8275  -12.6125   26.6896 C   0  0  0  0  0  0  0  0  0  0  0  0
    9.0808  -13.7023   27.7094 C   0  0  1  0  0  0  0  0  0  0  0  0
    7.8520  -14.2687   28.1155 O   0  0  0  0  0  0  0  0  0  0  0  0
   10.0371  -14.7458   27.2492 C   0  0  2  0  0  0  0  0  0  0  0  0
    9.4916  -15.6994   26.3077 N   0  0  0  0  0  0  0  0  0  0  0  0
   10.5400  -15.4416   28.4776 C   0  0  0  0  0  0  0  0  0  0  0  0
   10.3547  -16.6646   28.6423 O   0  0  0  0  0  0  0  0  0  0  0  0
   11.2191  -14.7380   29.4547 O   0  0  0  0  0  0  0  0  0  0  0  0
  2  1  1  0
  3  2  1  0
  3  5  1  0
  3  4  1  6
  5  7  1  0
  5  6  1  6
  7 12  1  0
  7  8  2  0
 11 10  1  6
 10  9  1  0
 11 13  1  0
 12 11  1  0
 13 14  2  0
 16 15  1  6
 16 18  1  0
 17 16  1  0
 18 20  1  0
 19 13  1  0
 18 19  1  6
 20 22  1  0
 21 20  2  0
M  END
$$$$
