QYP.pdb
     RDKit          3D

 29 30  0  0  1  0  0  0  0  0999 V2000
   21.2399  -23.9355  -14.2161 N   0  0  0  0  0  0  0  0  0  0  0  0
   19.8985  -23.4164  -14.1756 C   0  0  0  0  0  0  0  0  0  0  0  0
   18.9917  -24.2678  -14.2980 O   0  0  0  0  0  0  0  0  0  0  0  0
   19.7212  -21.9704  -13.9961 C   0  0  0  0  0  0  0  0  0  0  0  0
   20.9662  -21.1699  -13.8253 C   0  0  0  0  0  0  0  0  0  0  0  0
   21.4897  -21.0373  -12.4428 C   0  0  2  0  0  0  0  0  0  0  0  0
   20.6909  -20.2481  -11.5454 N   0  0  0  0  0  0  0  0  0  0  0  0
   22.9168  -20.5424  -12.4390 C   0  0  0  0  0  0  0  0  0  0  0  0
   23.1577  -19.3157  -12.3096 O   0  0  0  0  0  0  0  0  0  0  0  0
   27.1710  -19.4869   -6.5863 O   0  0  0  0  0  0  0  0  0  0  0  0
   26.9397  -20.0734   -7.8268 C   0  0  0  0  0  0  0  0  0  0  0  0
   25.6482  -20.3396   -8.2335 C   0  0  0  0  0  0  0  0  0  0  0  0
   25.3965  -20.9210   -9.4605 C   0  0  0  0  0  0  0  0  0  0  0  0
   26.4333  -21.2587  -10.3291 C   0  0  0  0  0  0  0  0  0  0  0  0
   26.1580  -21.8837  -11.6476 C   0  0  0  0  0  0  0  0  0  0  0  0
   25.3975  -20.9549  -12.5610 C   0  0  2  0  0  0  0  0  0  0  0  0
   24.0035  -21.4224  -12.5778 N   0  0  0  0  0  0  0  0  0  0  0  0
   25.9185  -20.9185  -13.9233 C   0  0  0  0  0  0  0  0  0  0  0  0
   25.4188  -21.7252  -14.7702 O   0  0  0  0  0  0  0  0  0  0  0  0
   27.7068  -20.9746   -9.8814 C   0  0  0  0  0  0  0  0  0  0  0  0
   27.9801  -20.3970   -8.6655 C   0  0  0  0  0  0  0  0  0  0  0  0
   26.9417  -20.0529  -14.3835 N   0  0  0  0  0  0  0  0  0  0  0  0
   27.7345  -19.0936  -13.6349 C   0  0  0  0  0  0  0  0  0  0  0  0
   27.7356  -17.9286  -14.6362 C   0  0  0  0  0  0  0  0  0  0  0  0
   28.1866  -18.6789  -15.8723 C   0  0  0  0  0  0  0  0  0  0  0  0
   27.4172  -19.9622  -15.7516 C   0  0  1  0  0  0  0  0  0  0  0  0
   28.3027  -21.0918  -16.1038 C   0  0  0  0  0  0  0  0  0  0  0  0
   28.7018  -21.3135  -17.4044 O   0  0  0  0  0  0  0  0  0  0  0  0
   28.6972  -21.8611  -15.2037 O   0  0  0  0  0  0  0  0  0  0  0  0
  1  2  1  0
  2  3  2  0
  2  4  1  0
  4  5  1  0
  6  5  1  0
  6  7  1  1
  8  9  2  0
  8  6  1  0
 10 11  1  0
 11 21  2  0
 11 12  1  0
 12 13  2  0
 13 14  1  0
 14 15  1  0
 16 15  1  1
 16 17  1  0
 17  8  1  0
 18 16  1  0
 18 19  2  0
 20 14  2  0
 21 20  1  0
 22 18  1  0
 23 22  1  0
 24 25  1  0
 24 23  1  0
 25 26  1  0
 26 22  1  0
 26 27  1  1
 27 29  2  0
 27 28  1  0
M  END
$$$$
