QYP.pdb
     RDKit          3D

 29 30  0  0  1  0  0  0  0  0999 V2000
   14.4247  -20.4936    3.3925 N   0  0  0  0  0  0  0  0  0  0  0  0
   14.7802  -19.7701    2.2005 C   0  0  0  0  0  0  0  0  0  0  0  0
   14.6542  -20.4056    1.1317 O   0  0  0  0  0  0  0  0  0  0  0  0
   15.2445  -18.3850    2.3443 C   0  0  0  0  0  0  0  0  0  0  0  0
   15.3620  -17.8706    3.7378 C   0  0  0  0  0  0  0  0  0  0  0  0
   15.7636  -16.4501    3.8928 C   0  0  2  0  0  0  0  0  0  0  0  0
   15.8188  -15.6807    2.6799 N   0  0  0  0  0  0  0  0  0  0  0  0
   17.0667  -16.3251    4.6464 C   0  0  0  0  0  0  0  0  0  0  0  0
   18.1566  -16.3047    4.0209 O   0  0  0  0  0  0  0  0  0  0  0  0
   21.3339  -10.5124    6.1906 O   0  0  0  0  0  0  0  0  0  0  0  0
   20.5629  -11.6078    6.5679 C   0  0  0  0  0  0  0  0  0  0  0  0
   21.0870  -12.5597    7.4184 C   0  0  0  0  0  0  0  0  0  0  0  0
   20.3391  -13.6542    7.8051 C   0  0  0  0  0  0  0  0  0  0  0  0
   19.0332  -13.8366    7.3524 C   0  0  0  0  0  0  0  0  0  0  0  0
   18.2327  -15.0150    7.7709 C   0  0  0  0  0  0  0  0  0  0  0  0
   18.3662  -16.1587    6.7964 C   0  0  2  0  0  0  0  0  0  0  0  0
   17.1026  -16.2290    6.0479 N   0  0  0  0  0  0  0  0  0  0  0  0
   18.6292  -17.4436    7.4355 C   0  0  0  0  0  0  0  0  0  0  0  0
   17.6288  -18.1471    7.7850 O   0  0  0  0  0  0  0  0  0  0  0  0
   18.5510  -12.8609    6.5047 C   0  0  0  0  0  0  0  0  0  0  0  0
   19.2768  -11.7647    6.1072 C   0  0  0  0  0  0  0  0  0  0  0  0
   19.9155  -17.9758    7.7004 N   0  0  0  0  0  0  0  0  0  0  0  0
   21.2192  -17.4170    7.3888 C   0  0  0  0  0  0  0  0  0  0  0  0
   21.9338  -18.6904    6.9114 C   0  0  0  0  0  0  0  0  0  0  0  0
   21.6142  -19.5951    8.0835 C   0  0  0  0  0  0  0  0  0  0  0  0
   20.1855  -19.2347    8.3702 C   0  0  1  0  0  0  0  0  0  0  0  0
   19.9966  -19.1330    9.8324 C   0  0  0  0  0  0  0  0  0  0  0  0
   19.8568  -20.2565   10.6187 O   0  0  0  0  0  0  0  0  0  0  0  0
   19.9630  -18.0053   10.3661 O   0  0  0  0  0  0  0  0  0  0  0  0
  1  2  1  0
  2  3  2  0
  2  4  1  0
  4  5  1  0
  6  5  1  0
  6  7  1  6
  8  9  2  0
  8  6  1  0
 10 11  1  0
 11 21  2  0
 11 12  1  0
 12 13  2  0
 13 14  1  0
 14 15  1  0
 16 15  1  1
 16 17  1  0
 17  8  1  0
 18 16  1  0
 18 19  2  0
 20 14  2  0
 21 20  1  0
 22 18  1  0
 23 22  1  0
 24 25  1  0
 24 23  1  0
 25 26  1  0
 26 22  1  0
 26 27  1  1
 27 29  2  0
 27 28  1  0
M  END
$$$$
