QYP.pdb
     RDKit          3D

 29 30  0  0  1  0  0  0  0  0999 V2000
   11.8004  -17.3813    1.0188 N   0  0  0  0  0  0  0  0  0  0  0  0
   10.5618  -17.4733    0.2923 C   0  0  0  0  0  0  0  0  0  0  0  0
   10.1838  -16.4158   -0.2562 O   0  0  0  0  0  0  0  0  0  0  0  0
    9.8730  -18.7692    0.2600 C   0  0  0  0  0  0  0  0  0  0  0  0
   10.5533  -19.8948    0.9601 C   0  0  0  0  0  0  0  0  0  0  0  0
   11.3049  -20.8520    0.1105 C   0  0  2  0  0  0  0  0  0  0  0  0
   10.5107  -21.8311   -0.5800 N   0  0  0  0  0  0  0  0  0  0  0  0
   12.4063  -21.5324    0.8887 C   0  0  0  0  0  0  0  0  0  0  0  0
   12.1734  -22.6023    1.5055 O   0  0  0  0  0  0  0  0  0  0  0  0
   15.9291  -25.9424   -2.8060 O   0  0  0  0  0  0  0  0  0  0  0  0
   15.9522  -24.9011   -1.8832 C   0  0  0  0  0  0  0  0  0  0  0  0
   15.7184  -23.6062   -2.2987 C   0  0  0  0  0  0  0  0  0  0  0  0
   15.7367  -22.5584   -1.3994 C   0  0  0  0  0  0  0  0  0  0  0  0
   15.9911  -22.7696   -0.0452 C   0  0  0  0  0  0  0  0  0  0  0  0
   16.0099  -21.6399    0.9182 C   0  0  0  0  0  0  0  0  0  0  0  0
   14.7642  -21.6067    1.7683 C   0  0  2  0  0  0  0  0  0  0  0  0
   13.7056  -21.0003    0.9476 N   0  0  0  0  0  0  0  0  0  0  0  0
   14.9204  -20.8483    3.0049 C   0  0  0  0  0  0  0  0  0  0  0  0
   14.7091  -19.5948    2.9616 O   0  0  0  0  0  0  0  0  0  0  0  0
   16.2191  -24.0789    0.3247 C   0  0  0  0  0  0  0  0  0  0  0  0
   16.2056  -25.1360   -0.5522 C   0  0  0  0  0  0  0  0  0  0  0  0
   15.2902  -21.3968    4.2581 N   0  0  0  0  0  0  0  0  0  0  0  0
   15.5712  -22.7787    4.6053 C   0  0  0  0  0  0  0  0  0  0  0  0
   14.8495  -22.8521    5.9595 C   0  0  0  0  0  0  0  0  0  0  0  0
   15.4573  -21.6311    6.6185 C   0  0  0  0  0  0  0  0  0  0  0  0
   15.4728  -20.6456    5.4863 C   0  0  1  0  0  0  0  0  0  0  0  0
   16.7570  -19.9142    5.4995 C   0  0  0  0  0  0  0  0  0  0  0  0
   17.0139  -18.9303    6.4302 O   0  0  0  0  0  0  0  0  0  0  0  0
   17.6270  -20.1938    4.6496 O   0  0  0  0  0  0  0  0  0  0  0  0
  1  2  1  0
  2  3  2  0
  2  4  1  0
  4  5  1  0
  6  5  1  0
  6  7  1  1
  8  9  2  0
  8  6  1  0
 10 11  1  0
 11 21  2  0
 11 12  1  0
 12 13  2  0
 13 14  1  0
 14 15  1  0
 16 15  1  6
 16 17  1  0
 17  8  1  0
 18 16  1  0
 18 19  2  0
 20 14  2  0
 21 20  1  0
 22 18  1  0
 23 22  1  0
 24 25  1  0
 24 23  1  0
 25 26  1  0
 26 22  1  0
 26 27  1  6
 27 29  2  0
 27 28  1  0
M  END
$$$$
