QYP.pdb
     RDKit          3D

 29 30  0  0  1  0  0  0  0  0999 V2000
   25.2009  -15.7861  -20.0805 N   0  0  0  0  0  0  0  0  0  0  0  0
   25.6963  -17.0112  -20.6498 C   0  0  0  0  0  0  0  0  0  0  0  0
   24.9597  -17.5363  -21.5123 O   0  0  0  0  0  0  0  0  0  0  0  0
   26.9908  -17.5190  -20.1797 C   0  0  0  0  0  0  0  0  0  0  0  0
   27.1544  -17.6405  -18.7037 C   0  0  0  0  0  0  0  0  0  0  0  0
   28.0812  -18.6941  -18.2198 C   0  0  2  0  0  0  0  0  0  0  0  0
   28.5948  -19.5839  -19.2250 N   0  0  0  0  0  0  0  0  0  0  0  0
   27.4715  -19.4866  -17.0876 C   0  0  0  0  0  0  0  0  0  0  0  0
   26.8524  -20.5536  -17.3276 O   0  0  0  0  0  0  0  0  0  0  0  0
   24.9825  -21.4408   -8.7730 O   0  0  0  0  0  0  0  0  0  0  0  0
   25.6042  -20.9021   -9.8953 C   0  0  0  0  0  0  0  0  0  0  0  0
   26.5265  -21.6500  -10.5983 C   0  0  0  0  0  0  0  0  0  0  0  0
   27.1549  -21.1345  -11.7147 C   0  0  0  0  0  0  0  0  0  0  0  0
   26.8817  -19.8456  -12.1702 C   0  0  0  0  0  0  0  0  0  0  0  0
   27.5598  -19.2954  -13.3711 C   0  0  0  0  0  0  0  0  0  0  0  0
   26.9259  -19.7878  -14.6483 C   0  0  2  0  0  0  0  0  0  0  0  0
   27.5749  -19.0641  -15.7514 N   0  0  0  0  0  0  0  0  0  0  0  0
   25.4836  -19.5757  -14.7047 C   0  0  0  0  0  0  0  0  0  0  0  0
   25.0669  -18.3953  -14.9303 O   0  0  0  0  0  0  0  0  0  0  0  0
   25.9539  -19.1350  -11.4371 C   0  0  0  0  0  0  0  0  0  0  0  0
   25.3171  -19.6275  -10.3243 C   0  0  0  0  0  0  0  0  0  0  0  0
   24.5025  -20.5828  -14.5279 N   0  0  0  0  0  0  0  0  0  0  0  0
   24.6820  -21.9962  -14.2466 C   0  0  0  0  0  0  0  0  0  0  0  0
   23.6132  -22.5794  -15.1833 C   0  0  0  0  0  0  0  0  0  0  0  0
   22.4332  -21.7326  -14.7529 C   0  0  0  0  0  0  0  0  0  0  0  0
   23.0666  -20.3814  -14.5909 C   0  0  1  0  0  0  0  0  0  0  0  0
   22.5444  -19.7467  -13.3626 C   0  0  0  0  0  0  0  0  0  0  0  0
   23.2926  -19.6964  -12.2060 O   0  0  0  0  0  0  0  0  0  0  0  0
   21.4014  -19.2458  -13.3736 O   0  0  0  0  0  0  0  0  0  0  0  0
  1  2  1  0
  2  3  2  0
  2  4  1  0
  4  5  1  0
  6  5  1  0
  6  7  1  6
  8  9  2  0
  8  6  1  0
 10 11  1  0
 11 21  2  0
 11 12  1  0
 12 13  2  0
 13 14  1  0
 14 15  1  0
 16 15  1  1
 16 17  1  0
 17  8  1  0
 18 16  1  0
 18 19  2  0
 20 14  2  0
 21 20  1  0
 22 18  1  0
 23 22  1  0
 24 25  1  0
 24 23  1  0
 25 26  1  0
 26 22  1  0
 26 27  1  1
 27 29  2  0
 27 28  1  0
M  END
$$$$
