QYP.pdb
     RDKit          3D

 29 30  0  0  1  0  0  0  0  0999 V2000
   18.2719  -22.5281  -14.5665 N   0  0  0  0  0  0  0  0  0  0  0  0
   18.7704  -21.3851  -15.2846 C   0  0  0  0  0  0  0  0  0  0  0  0
   18.0079  -20.3952  -15.3100 O   0  0  0  0  0  0  0  0  0  0  0  0
   20.0975  -21.4823  -15.9045 C   0  0  0  0  0  0  0  0  0  0  0  0
   21.1694  -20.6405  -15.3024 C   0  0  0  0  0  0  0  0  0  0  0  0
   21.2137  -20.5764  -13.8202 C   0  0  2  0  0  0  0  0  0  0  0  0
   20.2616  -19.6930  -13.2044 N   0  0  0  0  0  0  0  0  0  0  0  0
   22.6061  -20.2663  -13.3235 C   0  0  0  0  0  0  0  0  0  0  0  0
   23.1083  -19.1318  -13.5239 O   0  0  0  0  0  0  0  0  0  0  0  0
   28.6844  -19.5685   -7.2926 O   0  0  0  0  0  0  0  0  0  0  0  0
   27.7637  -20.1147   -8.1817 C   0  0  0  0  0  0  0  0  0  0  0  0
   28.1948  -20.9381   -9.2016 C   0  0  0  0  0  0  0  0  0  0  0  0
   27.2979  -21.4904  -10.0946 C   0  0  0  0  0  0  0  0  0  0  0  0
   25.9304  -21.2374   -9.9987 C   0  0  0  0  0  0  0  0  0  0  0  0
   24.9696  -21.8334  -10.9612 C   0  0  0  0  0  0  0  0  0  0  0  0
   24.7300  -20.9313  -12.1462 C   0  0  2  0  0  0  0  0  0  0  0  0
   23.3728  -21.2201  -12.6327 N   0  0  0  0  0  0  0  0  0  0  0  0
   25.6893  -21.1212  -13.2289 C   0  0  0  0  0  0  0  0  0  0  0  0
   25.5572  -22.1512  -13.9634 O   0  0  0  0  0  0  0  0  0  0  0  0
   25.5452  -20.4094   -8.9648 C   0  0  0  0  0  0  0  0  0  0  0  0
   26.4194  -19.8494   -8.0656 C   0  0  0  0  0  0  0  0  0  0  0  0
   26.7627  -20.2470  -13.5317 N   0  0  0  0  0  0  0  0  0  0  0  0
   27.2333  -19.0865  -12.7962 C   0  0  0  0  0  0  0  0  0  0  0  0
   27.4932  -18.1302  -13.9701 C   0  0  0  0  0  0  0  0  0  0  0  0
   28.3451  -19.0390  -14.8320 C   0  0  0  0  0  0  0  0  0  0  0  0
   27.6390  -20.3553  -14.6834 C   0  0  1  0  0  0  0  0  0  0  0  0
   28.6432  -21.4262  -14.5135 C   0  0  0  0  0  0  0  0  0  0  0  0
   28.8315  -22.0484  -13.2980 O   0  0  0  0  0  0  0  0  0  0  0  0
   29.3353  -21.7742  -15.4921 O   0  0  0  0  0  0  0  0  0  0  0  0
  1  2  1  0
  2  3  2  0
  2  4  1  0
  4  5  1  0
  6  5  1  0
  6  7  1  6
  8  9  2  0
  8  6  1  0
 10 11  1  0
 11 21  2  0
 11 12  1  0
 12 13  2  0
 13 14  1  0
 14 15  1  0
 16 15  1  1
 16 17  1  0
 17  8  1  0
 18 16  1  0
 18 19  2  0
 20 14  2  0
 21 20  1  0
 22 18  1  0
 23 22  1  0
 24 25  1  0
 24 23  1  0
 25 26  1  0
 26 22  1  0
 26 27  1  1
 27 29  2  0
 27 28  1  0
M  END
$$$$
