QYP.pdb
     RDKit          3D

 29 30  0  0  1  0  0  0  0  0999 V2000
   21.6491  -18.4570  -20.4640 N   0  0  0  0  0  0  0  0  0  0  0  0
   22.6119  -18.0358  -21.4469 C   0  0  0  0  0  0  0  0  0  0  0  0
   23.3934  -18.9259  -21.8457 O   0  0  0  0  0  0  0  0  0  0  0  0
   22.5877  -16.6344  -21.8833 C   0  0  0  0  0  0  0  0  0  0  0  0
   21.5207  -15.7785  -21.2924 C   0  0  0  0  0  0  0  0  0  0  0  0
   21.9642  -14.5437  -20.5984 C   0  0  2  0  0  0  0  0  0  0  0  0
   22.3610  -14.7064  -19.2265 N   0  0  0  0  0  0  0  0  0  0  0  0
   20.9326  -13.4462  -20.7136 C   0  0  0  0  0  0  0  0  0  0  0  0
   20.4889  -13.1148  -21.8418 O   0  0  0  0  0  0  0  0  0  0  0  0
   14.9370  -15.8964  -21.6184 O   0  0  0  0  0  0  0  0  0  0  0  0
   15.7418  -14.9799  -20.9485 C   0  0  0  0  0  0  0  0  0  0  0  0
   16.4523  -15.3725  -19.8326 C   0  0  0  0  0  0  0  0  0  0  0  0
   17.2567  -14.4790  -19.1532 C   0  0  0  0  0  0  0  0  0  0  0  0
   17.3797  -13.1538  -19.5681 C   0  0  0  0  0  0  0  0  0  0  0  0
   18.2458  -12.1965  -18.8345 C   0  0  0  0  0  0  0  0  0  0  0  0
   19.4078  -11.7320  -19.6768 C   0  0  2  0  0  0  0  0  0  0  0  0
   20.4436  -12.7713  -19.5823 N   0  0  0  0  0  0  0  0  0  0  0  0
   19.9604  -10.4496  -19.2541 C   0  0  0  0  0  0  0  0  0  0  0  0
   20.9190  -10.4644  -18.4182 O   0  0  0  0  0  0  0  0  0  0  0  0
   16.6519  -12.8061  -20.6872 C   0  0  0  0  0  0  0  0  0  0  0  0
   15.8461  -13.6778  -21.3781 C   0  0  0  0  0  0  0  0  0  0  0  0
   19.5146   -9.1810  -19.7012 N   0  0  0  0  0  0  0  0  0  0  0  0
   18.4637   -8.8629  -20.6518 C   0  0  0  0  0  0  0  0  0  0  0  0
   19.1575   -7.7340  -21.4291 C   0  0  0  0  0  0  0  0  0  0  0  0
   19.5870   -6.8710  -20.2607 C   0  0  0  0  0  0  0  0  0  0  0  0
   20.0438   -7.9008  -19.2686 C   0  0  1  0  0  0  0  0  0  0  0  0
   19.5551   -7.5278  -17.9247 C   0  0  0  0  0  0  0  0  0  0  0  0
   19.9903   -6.3817  -17.2944 O   0  0  0  0  0  0  0  0  0  0  0  0
   18.7306   -8.2667  -17.3487 O   0  0  0  0  0  0  0  0  0  0  0  0
  1  2  1  0
  2  3  2  0
  2  4  1  0
  4  5  1  0
  6  5  1  0
  6  7  1  1
  8  9  2  0
  8  6  1  0
 10 11  1  0
 11 21  2  0
 11 12  1  0
 12 13  2  0
 13 14  1  0
 14 15  1  0
 16 15  1  1
 16 17  1  0
 17  8  1  0
 18 16  1  0
 18 19  2  0
 20 14  2  0
 21 20  1  0
 22 18  1  0
 23 22  1  0
 24 25  1  0
 24 23  1  0
 25 26  1  0
 26 22  1  0
 26 27  1  1
 27 29  2  0
 27 28  1  0
M  END
$$$$
