QYP.pdb
     RDKit          3D

 29 30  0  0  1  0  0  0  0  0999 V2000
   28.0743  -29.2156  -16.2629 N   0  0  0  0  0  0  0  0  0  0  0  0
   27.9933  -29.0364  -17.6883 C   0  0  0  0  0  0  0  0  0  0  0  0
   27.4824  -29.9871  -18.3186 O   0  0  0  0  0  0  0  0  0  0  0  0
   28.5029  -27.7834  -18.2584 C   0  0  0  0  0  0  0  0  0  0  0  0
   29.1595  -26.8448  -17.3055 C   0  0  0  0  0  0  0  0  0  0  0  0
   28.6707  -25.4434  -17.3058 C   0  0  2  0  0  0  0  0  0  0  0  0
   29.3634  -24.5400  -16.4282 N   0  0  0  0  0  0  0  0  0  0  0  0
   27.1836  -25.3785  -17.0487 C   0  0  0  0  0  0  0  0  0  0  0  0
   26.3947  -26.0754  -17.7354 O   0  0  0  0  0  0  0  0  0  0  0  0
   19.5263  -23.6529  -12.9357 O   0  0  0  0  0  0  0  0  0  0  0  0
   20.8628  -23.8400  -13.2748 C   0  0  0  0  0  0  0  0  0  0  0  0
   21.6918  -22.7492  -13.4388 C   0  0  0  0  0  0  0  0  0  0  0  0
   23.0211  -22.9126  -13.7752 C   0  0  0  0  0  0  0  0  0  0  0  0
   23.5716  -24.1799  -13.9605 C   0  0  0  0  0  0  0  0  0  0  0  0
   25.0015  -24.3509  -14.3222 C   0  0  0  0  0  0  0  0  0  0  0  0
   25.1947  -24.4509  -15.8149 C   0  0  2  0  0  0  0  0  0  0  0  0
   26.6426  -24.5507  -16.0504 N   0  0  0  0  0  0  0  0  0  0  0  0
   24.6558  -23.3127  -16.5516 C   0  0  0  0  0  0  0  0  0  0  0  0
   25.3018  -22.2181  -16.5058 O   0  0  0  0  0  0  0  0  0  0  0  0
   22.7066  -25.2403  -13.7864 C   0  0  0  0  0  0  0  0  0  0  0  0
   21.3817  -25.1011  -13.4521 C   0  0  0  0  0  0  0  0  0  0  0  0
   23.4645  -23.3266  -17.3189 N   0  0  0  0  0  0  0  0  0  0  0  0
   22.5710  -24.4359  -17.6020 C   0  0  0  0  0  0  0  0  0  0  0  0
   22.2903  -24.1632  -19.0876 C   0  0  0  0  0  0  0  0  0  0  0  0
   21.8905  -22.7054  -18.9895 C   0  0  0  0  0  0  0  0  0  0  0  0
   22.8820  -22.1805  -17.9921 C   0  0  1  0  0  0  0  0  0  0  0  0
   22.1874  -21.2805  -17.0478 C   0  0  0  0  0  0  0  0  0  0  0  0
   22.0490  -21.6054  -15.7153 O   0  0  0  0  0  0  0  0  0  0  0  0
   21.7163  -20.2032  -17.4664 O   0  0  0  0  0  0  0  0  0  0  0  0
  1  2  1  0
  2  3  2  0
  2  4  1  0
  4  5  1  0
  6  5  1  0
  6  7  1  1
  8  9  2  0
  8  6  1  0
 10 11  1  0
 11 21  2  0
 11 12  1  0
 12 13  2  0
 13 14  1  0
 14 15  1  0
 16 15  1  1
 16 17  1  0
 17  8  1  0
 18 16  1  0
 18 19  2  0
 20 14  2  0
 21 20  1  0
 22 18  1  0
 23 22  1  0
 24 25  1  0
 24 23  1  0
 25 26  1  0
 26 22  1  0
 26 27  1  1
 27 29  2  0
 27 28  1  0
M  END
$$$$
