QYP.pdb
     RDKit          3D

 29 30  0  0  1  0  0  0  0  0999 V2000
   27.8286  -17.9162  -21.7168 N   0  0  0  0  0  0  0  0  0  0  0  0
   26.7901  -18.8392  -21.3424 C   0  0  0  0  0  0  0  0  0  0  0  0
   26.1340  -19.3196  -22.2915 O   0  0  0  0  0  0  0  0  0  0  0  0
   26.6021  -19.1277  -19.9155 C   0  0  0  0  0  0  0  0  0  0  0  0
   27.6131  -18.5480  -18.9871 C   0  0  0  0  0  0  0  0  0  0  0  0
   28.5262  -19.5049  -18.3134 C   0  0  2  0  0  0  0  0  0  0  0  0
   29.1094  -20.5115  -19.1576 N   0  0  0  0  0  0  0  0  0  0  0  0
   27.8647  -20.1494  -17.1182 C   0  0  0  0  0  0  0  0  0  0  0  0
   27.4024  -21.3148  -17.2065 O   0  0  0  0  0  0  0  0  0  0  0  0
   25.2930  -21.2741   -8.6845 O   0  0  0  0  0  0  0  0  0  0  0  0
   25.8810  -20.8205   -9.8613 C   0  0  0  0  0  0  0  0  0  0  0  0
   25.3426  -19.7395  -10.5290 C   0  0  0  0  0  0  0  0  0  0  0  0
   25.9104  -19.2734  -11.6983 C   0  0  0  0  0  0  0  0  0  0  0  0
   27.0431  -19.8752  -12.2444 C   0  0  0  0  0  0  0  0  0  0  0  0
   27.6503  -19.3706  -13.5019 C   0  0  0  0  0  0  0  0  0  0  0  0
   27.1266  -20.1040  -14.7116 C   0  0  2  0  0  0  0  0  0  0  0  0
   27.7464  -19.4786  -15.8891 N   0  0  0  0  0  0  0  0  0  0  0  0
   25.6740  -20.0575  -14.8397 C   0  0  0  0  0  0  0  0  0  0  0  0
   25.1564  -19.0064  -15.3347 O   0  0  0  0  0  0  0  0  0  0  0  0
   27.5466  -20.9516  -11.5437 C   0  0  0  0  0  0  0  0  0  0  0  0
   26.9984  -21.4318  -10.3795 C   0  0  0  0  0  0  0  0  0  0  0  0
   24.7867  -21.0937  -14.4561 N   0  0  0  0  0  0  0  0  0  0  0  0
   25.0898  -22.3899  -13.8753 C   0  0  0  0  0  0  0  0  0  0  0  0
   24.1058  -23.2610  -14.6708 C   0  0  0  0  0  0  0  0  0  0  0  0
   22.8407  -22.4602  -14.4406 C   0  0  0  0  0  0  0  0  0  0  0  0
   23.3406  -21.0507  -14.5700 C   0  0  1  0  0  0  0  0  0  0  0  0
   22.7284  -20.2214  -13.5109 C   0  0  0  0  0  0  0  0  0  0  0  0
   21.4117  -19.8201  -13.5836 O   0  0  0  0  0  0  0  0  0  0  0  0
   23.4190  -19.8775  -12.5299 O   0  0  0  0  0  0  0  0  0  0  0  0
  1  2  1  0
  2  3  2  0
  2  4  1  0
  4  5  1  0
  6  5  1  0
  6  7  1  6
  8  9  2  0
  8  6  1  0
 10 11  1  0
 11 21  2  0
 11 12  1  0
 12 13  2  0
 13 14  1  0
 14 15  1  0
 16 15  1  1
 16 17  1  0
 17  8  1  0
 18 16  1  0
 18 19  2  0
 20 14  2  0
 21 20  1  0
 22 18  1  0
 23 22  1  0
 24 25  1  0
 24 23  1  0
 25 26  1  0
 26 22  1  0
 26 27  1  1
 27 29  2  0
 27 28  1  0
M  END
$$$$
