QYP.pdb
     RDKit          3D

 29 30  0  0  1  0  0  0  0  0999 V2000
   23.3074  -20.2378  -19.7384 N   0  0  0  0  0  0  0  0  0  0  0  0
   22.2348  -19.5985  -20.4535 C   0  0  0  0  0  0  0  0  0  0  0  0
   22.4429  -19.4076  -21.6711 O   0  0  0  0  0  0  0  0  0  0  0  0
   21.0227  -19.2399  -19.7073 C   0  0  0  0  0  0  0  0  0  0  0  0
   21.0230  -19.5663  -18.2536 C   0  0  0  0  0  0  0  0  0  0  0  0
   21.2656  -18.4406  -17.3171 C   0  0  2  0  0  0  0  0  0  0  0  0
   20.6083  -17.2044  -17.6429 N   0  0  0  0  0  0  0  0  0  0  0  0
   22.7431  -18.2041  -17.1109 C   0  0  0  0  0  0  0  0  0  0  0  0
   23.3899  -17.5061  -17.9319 O   0  0  0  0  0  0  0  0  0  0  0  0
   22.7428  -22.4142  -11.1783 O   0  0  0  0  0  0  0  0  0  0  0  0
   23.3182  -21.4032  -11.9421 C   0  0  0  0  0  0  0  0  0  0  0  0
   22.5305  -20.3925  -12.4539 C   0  0  0  0  0  0  0  0  0  0  0  0
   23.0813  -19.3799  -13.2143 C   0  0  0  0  0  0  0  0  0  0  0  0
   24.4470  -19.3420  -13.4913 C   0  0  0  0  0  0  0  0  0  0  0  0
   25.0349  -18.2512  -14.3093 C   0  0  0  0  0  0  0  0  0  0  0  0
   24.8635  -18.5029  -15.7867 C   0  0  2  0  0  0  0  0  0  0  0  0
   23.4314  -18.7475  -16.0129 N   0  0  0  0  0  0  0  0  0  0  0  0
   25.6380  -19.6366  -16.2802 C   0  0  0  0  0  0  0  0  0  0  0  0
   25.0284  -20.7391  -16.4554 O   0  0  0  0  0  0  0  0  0  0  0  0
   25.1951  -20.3719  -12.9597 C   0  0  0  0  0  0  0  0  0  0  0  0
   24.6686  -21.3887  -12.2011 C   0  0  0  0  0  0  0  0  0  0  0  0
   27.0222  -19.6102  -16.5827 N   0  0  0  0  0  0  0  0  0  0  0  0
   27.9653  -18.5127  -16.4595 C   0  0  0  0  0  0  0  0  0  0  0  0
   28.7448  -18.6995  -17.7700 C   0  0  0  0  0  0  0  0  0  0  0  0
   29.0762  -20.1719  -17.6409 C   0  0  0  0  0  0  0  0  0  0  0  0
   27.7958  -20.7286  -17.0895 C   0  0  1  0  0  0  0  0  0  0  0  0
   28.1117  -21.7070  -16.0278 C   0  0  0  0  0  0  0  0  0  0  0  0
   28.6262  -22.9504  -16.3265 O   0  0  0  0  0  0  0  0  0  0  0  0
   27.9079  -21.4001  -14.8353 O   0  0  0  0  0  0  0  0  0  0  0  0
  1  2  1  0
  2  3  2  0
  2  4  1  0
  4  5  1  0
  6  5  1  0
  6  7  1  6
  8  9  2  0
  8  6  1  0
 10 11  1  0
 11 21  2  0
 11 12  1  0
 12 13  2  0
 13 14  1  0
 14 15  1  0
 16 15  1  1
 16 17  1  0
 17  8  1  0
 18 16  1  0
 18 19  2  0
 20 14  2  0
 21 20  1  0
 22 18  1  0
 23 22  1  0
 24 25  1  0
 24 23  1  0
 25 26  1  0
 26 22  1  0
 26 27  1  1
 27 29  2  0
 27 28  1  0
M  END
$$$$
