QYP.pdb
     RDKit          3D

 29 30  0  0  1  0  0  0  0  0999 V2000
   29.9786  -18.8056  -19.6034 N   0  0  0  0  0  0  0  0  0  0  0  0
   29.5951  -19.6840  -20.6765 C   0  0  0  0  0  0  0  0  0  0  0  0
   30.1728  -19.4811  -21.7661 O   0  0  0  0  0  0  0  0  0  0  0  0
   28.5871  -20.7148  -20.4004 C   0  0  0  0  0  0  0  0  0  0  0  0
   28.0327  -20.7408  -19.0177 C   0  0  0  0  0  0  0  0  0  0  0  0
   28.8510  -21.4220  -17.9836 C   0  0  2  0  0  0  0  0  0  0  0  0
   29.5069  -22.6306  -18.4023 N   0  0  0  0  0  0  0  0  0  0  0  0
   28.0523  -21.6738  -16.7265 C   0  0  0  0  0  0  0  0  0  0  0  0
   27.4416  -22.7618  -16.5756 O   0  0  0  0  0  0  0  0  0  0  0  0
   24.7109  -20.3481   -8.6017 O   0  0  0  0  0  0  0  0  0  0  0  0
   25.4628  -20.2982   -9.7715 C   0  0  0  0  0  0  0  0  0  0  0  0
   25.2633  -19.2756  -10.6763 C   0  0  0  0  0  0  0  0  0  0  0  0
   25.9986  -19.2074  -11.8432 C   0  0  0  0  0  0  0  0  0  0  0  0
   26.9648  -20.1648  -12.1483 C   0  0  0  0  0  0  0  0  0  0  0  0
   27.7531  -20.0875  -13.4042 C   0  0  0  0  0  0  0  0  0  0  0  0
   27.1431  -20.9232  -14.5019 C   0  0  2  0  0  0  0  0  0  0  0  0
   27.9673  -20.7160  -15.7018 N   0  0  0  0  0  0  0  0  0  0  0  0
   25.7557  -20.5803  -14.7953 C   0  0  0  0  0  0  0  0  0  0  0  0
   25.5366  -19.5263  -15.4726 O   0  0  0  0  0  0  0  0  0  0  0  0
   27.1300  -21.1679  -11.2158 C   0  0  0  0  0  0  0  0  0  0  0  0
   26.4102  -21.2553  -10.0493 C   0  0  0  0  0  0  0  0  0  0  0  0
   24.6250  -21.3297  -14.3853 N   0  0  0  0  0  0  0  0  0  0  0  0
   24.5727  -22.5636  -13.6211 C   0  0  0  0  0  0  0  0  0  0  0  0
   23.4772  -23.3017  -14.4053 C   0  0  0  0  0  0  0  0  0  0  0  0
   22.4193  -22.2176  -14.4122 C   0  0  0  0  0  0  0  0  0  0  0  0
   23.2417  -20.9863  -14.6586 C   0  0  1  0  0  0  0  0  0  0  0  0
   22.7596  -19.8993  -13.7810 C   0  0  0  0  0  0  0  0  0  0  0  0
   21.5463  -19.2831  -14.0007 O   0  0  0  0  0  0  0  0  0  0  0  0
   23.4668  -19.5319  -12.8204 O   0  0  0  0  0  0  0  0  0  0  0  0
  1  2  1  0
  2  3  2  0
  2  4  1  0
  4  5  1  0
  6  5  1  0
  6  7  1  6
  8  9  2  0
  8  6  1  0
 10 11  1  0
 11 21  2  0
 11 12  1  0
 12 13  2  0
 13 14  1  0
 14 15  1  0
 16 15  1  1
 16 17  1  0
 17  8  1  0
 18 16  1  0
 18 19  2  0
 20 14  2  0
 21 20  1  0
 22 18  1  0
 23 22  1  0
 24 25  1  0
 24 23  1  0
 25 26  1  0
 26 22  1  0
 26 27  1  1
 27 29  2  0
 27 28  1  0
M  END
$$$$
