QYP.pdb
     RDKit          3D

 29 30  0  0  1  0  0  0  0  0999 V2000
   45.7066   -8.1420  -11.0006 N   0  0  0  0  0  0  0  0  0  0  0  0
   44.8859   -7.3599  -10.1144 C   0  0  0  0  0  0  0  0  0  0  0  0
   44.7556   -6.1572  -10.4282 O   0  0  0  0  0  0  0  0  0  0  0  0
   44.2888   -8.0297   -8.9527 C   0  0  0  0  0  0  0  0  0  0  0  0
   44.5870   -9.4819   -8.8039 C   0  0  0  0  0  0  0  0  0  0  0  0
   43.9216  -10.1879   -7.6805 C   0  0  2  0  0  0  0  0  0  0  0  0
   44.1679   -9.6492   -6.3708 N   0  0  0  0  0  0  0  0  0  0  0  0
   44.2292  -11.6666   -7.6996 C   0  0  0  0  0  0  0  0  0  0  0  0
   45.0974  -12.1395   -6.9236 O   0  0  0  0  0  0  0  0  0  0  0  0
   43.6798  -20.1296  -10.4262 O   0  0  0  0  0  0  0  0  0  0  0  0
   43.4276  -18.8018  -10.0946 C   0  0  0  0  0  0  0  0  0  0  0  0
   43.3351  -17.8486  -11.0880 C   0  0  0  0  0  0  0  0  0  0  0  0
   43.0855  -16.5257  -10.7807 C   0  0  0  0  0  0  0  0  0  0  0  0
   42.9185  -16.1068   -9.4616 C   0  0  0  0  0  0  0  0  0  0  0  0
   42.6503  -14.6832   -9.1358 C   0  0  0  0  0  0  0  0  0  0  0  0
   43.8853  -13.9814   -8.6283 C   0  0  2  0  0  0  0  0  0  0  0  0
   43.5659  -12.5473   -8.5709 N   0  0  0  0  0  0  0  0  0  0  0  0
   45.0613  -14.1882   -9.4666 C   0  0  0  0  0  0  0  0  0  0  0  0
   45.2203  -13.4162  -10.4649 O   0  0  0  0  0  0  0  0  0  0  0  0
   43.0191  -17.0931   -8.5024 C   0  0  0  0  0  0  0  0  0  0  0  0
   43.2667  -18.4142   -8.7851 C   0  0  0  0  0  0  0  0  0  0  0  0
   46.0473  -15.1846   -9.2588 N   0  0  0  0  0  0  0  0  0  0  0  0
   46.1530  -16.1583   -8.1865 C   0  0  0  0  0  0  0  0  0  0  0  0
   47.6646  -16.0832   -7.9233 C   0  0  0  0  0  0  0  0  0  0  0  0
   48.1618  -16.2694   -9.3420 C   0  0  0  0  0  0  0  0  0  0  0  0
   47.1867  -15.4361  -10.1219 C   0  0  1  0  0  0  0  0  0  0  0  0
   46.7996  -16.1655  -11.3476 C   0  0  0  0  0  0  0  0  0  0  0  0
   45.5644  -15.9838  -11.9320 O   0  0  0  0  0  0  0  0  0  0  0  0
   47.6089  -16.9628  -11.8642 O   0  0  0  0  0  0  0  0  0  0  0  0
  1  2  1  0
  2  3  2  0
  2  4  1  0
  4  5  1  0
  6  5  1  0
  6  7  1  1
  8  9  2  0
  8  6  1  0
 10 11  1  0
 11 21  2  0
 11 12  1  0
 12 13  2  0
 13 14  1  0
 14 15  1  0
 16 15  1  6
 16 17  1  0
 17  8  1  0
 18 16  1  0
 18 19  2  0
 20 14  2  0
 21 20  1  0
 22 18  1  0
 23 22  1  0
 24 25  1  0
 24 23  1  0
 25 26  1  0
 26 22  1  0
 26 27  1  6
 27 29  2  0
 27 28  1  0
M  END
$$$$
