QYP.pdb
     RDKit          3D

 29 30  0  0  1  0  0  0  0  0999 V2000
   18.5700  -19.8594  -14.0567 N   0  0  0  0  0  0  0  0  0  0  0  0
   17.7112  -19.0782  -14.9067 C   0  0  0  0  0  0  0  0  0  0  0  0
   16.5114  -19.4280  -14.9213 O   0  0  0  0  0  0  0  0  0  0  0  0
   18.3068  -17.9673  -15.6590 C   0  0  0  0  0  0  0  0  0  0  0  0
   19.7549  -17.7106  -15.4195 C   0  0  0  0  0  0  0  0  0  0  0  0
   20.7062  -18.7293  -15.9298 C   0  0  2  0  0  0  0  0  0  0  0  0
   20.1727  -20.0535  -16.0976 N   0  0  0  0  0  0  0  0  0  0  0  0
   21.9625  -18.7782  -15.0926 C   0  0  0  0  0  0  0  0  0  0  0  0
   22.6317  -17.7321  -14.8993 O   0  0  0  0  0  0  0  0  0  0  0  0
   27.3724  -20.6003   -8.5613 O   0  0  0  0  0  0  0  0  0  0  0  0
   26.4374  -20.7310   -9.5836 C   0  0  0  0  0  0  0  0  0  0  0  0
   25.1672  -20.2153   -9.4264 C   0  0  0  0  0  0  0  0  0  0  0  0
   24.2243  -20.3341  -10.4283 C   0  0  0  0  0  0  0  0  0  0  0  0
   24.5200  -20.9765  -11.6296 C   0  0  0  0  0  0  0  0  0  0  0  0
   23.5030  -21.1019  -12.7042 C   0  0  0  0  0  0  0  0  0  0  0  0
   23.6864  -20.0556  -13.7752 C   0  0  2  0  0  0  0  0  0  0  0  0
   22.4167  -19.9747  -14.5124 N   0  0  0  0  0  0  0  0  0  0  0  0
   24.7731  -20.3523  -14.7023 C   0  0  0  0  0  0  0  0  0  0  0  0
   24.5482  -21.1945  -15.6285 O   0  0  0  0  0  0  0  0  0  0  0  0
   25.8008  -21.4761  -11.7427 C   0  0  0  0  0  0  0  0  0  0  0  0
   26.7541  -21.3693  -10.7597 C   0  0  0  0  0  0  0  0  0  0  0  0
   26.0667  -19.7756  -14.6557 N   0  0  0  0  0  0  0  0  0  0  0  0
   26.6116  -18.8258  -13.7017 C   0  0  0  0  0  0  0  0  0  0  0  0
   27.3721  -17.9041  -14.6671 C   0  0  0  0  0  0  0  0  0  0  0  0
   28.1613  -18.9526  -15.4236 C   0  0  0  0  0  0  0  0  0  0  0  0
   27.1430  -20.0426  -15.5919 C   0  0  1  0  0  0  0  0  0  0  0  0
   27.7858  -21.3484  -15.3353 C   0  0  0  0  0  0  0  0  0  0  0  0
   27.5444  -22.0525  -14.1750 O   0  0  0  0  0  0  0  0  0  0  0  0
   28.5637  -21.8233  -16.1878 O   0  0  0  0  0  0  0  0  0  0  0  0
  1  2  1  0
  2  3  2  0
  2  4  1  0
  4  5  1  0
  6  5  1  0
  6  7  1  1
  8  9  2  0
  8  6  1  0
 10 11  1  0
 11 21  2  0
 11 12  1  0
 12 13  2  0
 13 14  1  0
 14 15  1  0
 16 15  1  1
 16 17  1  0
 17  8  1  0
 18 16  1  0
 18 19  2  0
 20 14  2  0
 21 20  1  0
 22 18  1  0
 23 22  1  0
 24 25  1  0
 24 23  1  0
 25 26  1  0
 26 22  1  0
 26 27  1  1
 27 29  2  0
 27 28  1  0
M  END
$$$$
