WCK.pdb
     RDKit          3D

 30 31  0  0  1  0  0  0  0  0999 V2000
    7.1769  -18.1931   24.3547 N   0  0  0  0  0  0  0  0  0  0  0  0
    7.4881  -16.8197   24.1065 C   0  0  1  0  0  0  0  0  0  0  0  0
    6.5149  -15.8568   24.6992 C   0  0  0  0  0  0  0  0  0  0  0  0
    6.8491  -14.4488   24.4028 C   0  0  0  0  0  0  0  0  0  0  0  0
    7.2752  -13.9781   23.1836 C   0  0  0  0  0  0  0  0  0  0  0  0
    7.4832  -12.6473   23.2892 N   0  0  0  0  0  0  0  0  0  0  0  0
    7.2010  -12.2500   24.5482 C   0  0  0  0  0  0  0  0  0  0  0  0
    7.2574  -11.0060   25.1391 C   0  0  0  0  0  0  0  0  0  0  0  0
    6.9112  -10.8659   26.4621 C   0  0  0  0  0  0  0  0  0  0  0  0
    6.5114  -11.9620   27.1894 C   0  0  0  0  0  0  0  0  0  0  0  0
    6.4644  -13.1983   26.5699 C   0  0  0  0  0  0  0  0  0  0  0  0
    6.8046  -13.3682   25.2494 C   0  0  0  0  0  0  0  0  0  0  0  0
    8.8479  -16.4716   24.6543 C   0  0  0  0  0  0  0  0  0  0  0  0
    9.5539  -15.5775   24.1489 O   0  0  0  0  0  0  0  0  0  0  0  0
    9.3886  -17.1505   25.7769 N   0  0  0  0  0  0  0  0  0  0  0  0
   10.6827  -16.9602   26.3275 C   0  0  1  0  0  0  0  0  0  0  0  0
   10.8880  -15.6519   27.0271 C   0  0  0  0  0  0  0  0  0  0  0  0
    9.8363  -15.4619   28.4763 S   0  0  0  0  0  0  0  0  0  0  0  0
   11.0428  -18.0800   27.2134 C   0  0  0  0  0  0  0  0  0  0  0  0
   10.2034  -18.4733   28.0623 O   0  0  0  0  0  0  0  0  0  0  0  0
   12.3055  -18.7564   27.1662 N   0  0  0  0  0  0  0  0  0  0  0  0
   12.5749  -19.9256   27.9842 C   0  0  1  0  0  0  0  0  0  0  0  0
   13.8690  -20.5115   27.4983 C   0  0  0  0  0  0  0  0  0  0  0  0
   14.3515  -21.6807   28.2844 C   0  0  0  0  0  0  0  0  0  0  0  0
   15.6765  -22.2121   27.8740 C   0  0  0  0  0  0  0  0  0  0  0  0
   16.0804  -23.4508   28.6516 C   0  0  0  0  0  0  0  0  0  0  0  0
   17.3059  -24.0245   28.1291 N   0  0  0  0  0  0  0  0  0  0  0  0
   12.5950  -19.5507   29.4096 C   0  0  0  0  0  0  0  0  0  0  0  0
   12.8768  -18.2553   29.8263 O   0  0  0  0  0  0  0  0  0  0  0  0
   12.3501  -20.4302   30.2662 O   0  0  0  0  0  0  0  0  0  0  0  0
  2  1  1  1
  2  3  1  0
  2 13  1  0
  3  4  1  0
  4 12  1  0
  4  5  2  0
  5  6  1  0
  7  6  1  0
  7  8  2  0
  9  8  1  0
 10  9  2  0
 11 12  2  0
 11 10  1  0
 12  7  1  0
 13 14  2  0
 15 13  1  0
 15 16  1  0
 16 17  1  1
 18 17  1  0
 19 21  1  0
 19 16  1  0
 20 19  2  0
 22 21  1  0
 23 24  1  0
 22 23  1  6
 24 25  1  0
 26 25  1  0
 27 26  1  0
 28 22  1  0
 28 29  1  0
 30 28  2  0
M  END
$$$$
