WCK.pdb
     RDKit          3D

 30 31  0  0  1  0  0  0  0  0999 V2000
    7.5782  -17.5736   24.0651 N   0  0  0  0  0  0  0  0  0  0  0  0
    8.3033  -16.6069   23.3006 C   0  0  1  0  0  0  0  0  0  0  0  0
    7.5617  -15.3340   23.0655 C   0  0  0  0  0  0  0  0  0  0  0  0
    6.9219  -14.8092   24.2890 C   0  0  0  0  0  0  0  0  0  0  0  0
    6.1620  -15.5500   25.1627 C   0  0  0  0  0  0  0  0  0  0  0  0
    5.7449  -14.7386   26.1592 N   0  0  0  0  0  0  0  0  0  0  0  0
    6.2187  -13.4922   25.9475 C   0  0  0  0  0  0  0  0  0  0  0  0
    6.0689  -12.3310   26.6749 C   0  0  0  0  0  0  0  0  0  0  0  0
    6.6645  -11.1725   26.2358 C   0  0  0  0  0  0  0  0  0  0  0  0
    7.4048  -11.1749   25.0773 C   0  0  0  0  0  0  0  0  0  0  0  0
    7.5381  -12.3552   24.3677 C   0  0  0  0  0  0  0  0  0  0  0  0
    6.9541  -13.5280   24.7826 C   0  0  0  0  0  0  0  0  0  0  0  0
    9.5983  -16.2479   23.9819 C   0  0  0  0  0  0  0  0  0  0  0  0
   10.4006  -15.4326   23.4868 O   0  0  0  0  0  0  0  0  0  0  0  0
    9.9646  -16.8255   25.2251 N   0  0  0  0  0  0  0  0  0  0  0  0
   11.1874  -16.6214   25.9158 C   0  0  1  0  0  0  0  0  0  0  0  0
   11.3129  -15.2976   26.6050 C   0  0  0  0  0  0  0  0  0  0  0  0
   10.0533  -15.0445   27.8667 S   0  0  0  0  0  0  0  0  0  0  0  0
   11.4424  -17.7207   26.8617 C   0  0  0  0  0  0  0  0  0  0  0  0
   10.4633  -18.3552   27.3293 O   0  0  0  0  0  0  0  0  0  0  0  0
   12.7531  -18.1159   27.2863 N   0  0  0  0  0  0  0  0  0  0  0  0
   13.1307  -19.5141   27.3918 C   0  0  1  0  0  0  0  0  0  0  0  0
   12.9141  -20.1297   26.0397 C   0  0  0  0  0  0  0  0  0  0  0  0
   13.2715  -21.5729   25.9535 C   0  0  0  0  0  0  0  0  0  0  0  0
   13.0349  -22.2023   24.6290 C   0  0  0  0  0  0  0  0  0  0  0  0
   13.4871  -23.6497   24.5760 C   0  0  0  0  0  0  0  0  0  0  0  0
   13.0860  -24.2817   23.3335 N   0  0  0  0  0  0  0  0  0  0  0  0
   14.5182  -19.6271   27.8765 C   0  0  0  0  0  0  0  0  0  0  0  0
   14.9420  -20.6988   28.6530 O   0  0  0  0  0  0  0  0  0  0  0  0
   15.3351  -18.7271   27.5764 O   0  0  0  0  0  0  0  0  0  0  0  0
  2  1  1  1
  2  3  1  0
  2 13  1  0
  3  4  1  0
  4 12  1  0
  4  5  2  0
  5  6  1  0
  7  6  1  0
  7  8  2  0
  9  8  1  0
 10  9  2  0
 11 12  2  0
 11 10  1  0
 12  7  1  0
 13 14  2  0
 15 13  1  0
 15 16  1  0
 16 17  1  1
 18 17  1  0
 19 21  1  0
 19 16  1  0
 20 19  2  0
 22 21  1  0
 23 24  1  0
 22 23  1  6
 24 25  1  0
 26 25  1  0
 27 26  1  0
 28 22  1  0
 28 29  1  0
 30 28  2  0
M  END
$$$$
