WCK.pdb
     RDKit          3D

 30 31  0  0  1  0  0  0  0  0999 V2000
    6.1549  -18.2041   25.0541 N   0  0  0  0  0  0  0  0  0  0  0  0
    6.6205  -16.9181   24.6367 C   0  0  1  0  0  0  0  0  0  0  0  0
    7.4289  -16.1989   25.6639 C   0  0  0  0  0  0  0  0  0  0  0  0
    6.7869  -14.9525   26.1286 C   0  0  0  0  0  0  0  0  0  0  0  0
    5.5215  -14.8660   26.6585 C   0  0  0  0  0  0  0  0  0  0  0  0
    5.2763  -13.5740   26.9686 N   0  0  0  0  0  0  0  0  0  0  0  0
    6.3546  -12.8264   26.6506 C   0  0  0  0  0  0  0  0  0  0  0  0
    6.5871  -11.4736   26.7759 C   0  0  0  0  0  0  0  0  0  0  0  0
    7.7919  -10.9508   26.3699 C   0  0  0  0  0  0  0  0  0  0  0  0
    8.7576  -11.7749   25.8422 C   0  0  0  0  0  0  0  0  0  0  0  0
    8.4964  -13.1288   25.7285 C   0  0  0  0  0  0  0  0  0  0  0  0
    7.3015  -13.6791   26.1259 C   0  0  0  0  0  0  0  0  0  0  0  0
    7.4734  -17.0332   23.4000 C   0  0  0  0  0  0  0  0  0  0  0  0
    8.2642  -17.9812   23.2296 O   0  0  0  0  0  0  0  0  0  0  0  0
    7.4139  -16.0613   22.3679 N   0  0  0  0  0  0  0  0  0  0  0  0
    8.3438  -15.9080   21.3068 C   0  0  1  0  0  0  0  0  0  0  0  0
    8.0788  -14.7508   20.3937 C   0  0  0  0  0  0  0  0  0  0  0  0
    9.1881  -14.7112   18.9759 S   0  0  0  0  0  0  0  0  0  0  0  0
    9.7212  -15.8509   21.8243 C   0  0  0  0  0  0  0  0  0  0  0  0
   10.0452  -14.8978   22.5770 O   0  0  0  0  0  0  0  0  0  0  0  0
   10.7261  -16.8263   21.5189 N   0  0  0  0  0  0  0  0  0  0  0  0
   12.0687  -16.7338   22.0642 C   0  0  1  0  0  0  0  0  0  0  0  0
   12.5311  -18.1371   22.3306 C   0  0  0  0  0  0  0  0  0  0  0  0
   11.9777  -18.7446   23.5726 C   0  0  0  0  0  0  0  0  0  0  0  0
   12.3292  -20.1720   23.7863 C   0  0  0  0  0  0  0  0  0  0  0  0
   11.8025  -20.7174   25.1006 C   0  0  0  0  0  0  0  0  0  0  0  0
   10.8381  -21.7785   24.8817 N   0  0  0  0  0  0  0  0  0  0  0  0
   12.9404  -15.9912   21.1361 C   0  0  0  0  0  0  0  0  0  0  0  0
   12.7006  -15.9584   19.7677 O   0  0  0  0  0  0  0  0  0  0  0  0
   13.9253  -15.3734   21.6005 O   0  0  0  0  0  0  0  0  0  0  0  0
  2  1  1  1
  2  3  1  0
  2 13  1  0
  3  4  1  0
  4 12  1  0
  4  5  2  0
  5  6  1  0
  7  6  1  0
  7  8  2  0
  9  8  1  0
 10  9  2  0
 11 12  2  0
 11 10  1  0
 12  7  1  0
 13 14  2  0
 15 13  1  0
 15 16  1  0
 16 17  1  1
 18 17  1  0
 19 21  1  0
 19 16  1  0
 20 19  2  0
 22 21  1  0
 23 24  1  0
 22 23  1  6
 24 25  1  0
 26 25  1  0
 27 26  1  0
 28 22  1  0
 28 29  1  0
 30 28  2  0
M  END
$$$$
