WCK.pdb
     RDKit          3D

 30 31  0  0  1  0  0  0  0  0999 V2000
    6.0002  -16.5670   23.4213 N   0  0  0  0  0  0  0  0  0  0  0  0
    7.2782  -16.2172   23.9589 C   0  0  1  0  0  0  0  0  0  0  0  0
    7.5086  -16.7033   25.3504 C   0  0  0  0  0  0  0  0  0  0  0  0
    7.4891  -15.6144   26.3483 C   0  0  0  0  0  0  0  0  0  0  0  0
    7.7579  -15.7660   27.6878 C   0  0  0  0  0  0  0  0  0  0  0  0
    7.6445  -14.5592   28.2849 N   0  0  0  0  0  0  0  0  0  0  0  0
    7.3087  -13.6340   27.3608 C   0  0  0  0  0  0  0  0  0  0  0  0
    7.0816  -12.2795   27.4768 C   0  0  0  0  0  0  0  0  0  0  0  0
    6.7472  -11.5486   26.3616 C   0  0  0  0  0  0  0  0  0  0  0  0
    6.6404  -12.1678   25.1387 C   0  0  0  0  0  0  0  0  0  0  0  0
    6.8740  -13.5287   25.0523 C   0  0  0  0  0  0  0  0  0  0  0  0
    7.2098  -14.2844   26.1499 C   0  0  0  0  0  0  0  0  0  0  0  0
    8.3883  -16.7721   23.1044 C   0  0  0  0  0  0  0  0  0  0  0  0
    8.8005  -17.9409   23.2353 O   0  0  0  0  0  0  0  0  0  0  0  0
    9.0177  -15.9837   22.1066 N   0  0  0  0  0  0  0  0  0  0  0  0
   10.0004  -16.4281   21.1841 C   0  0  1  0  0  0  0  0  0  0  0  0
   10.1099  -15.6126   19.9326 C   0  0  0  0  0  0  0  0  0  0  0  0
    8.6167  -15.6704   18.9280 S   0  0  0  0  0  0  0  0  0  0  0  0
   11.3143  -16.5469   21.8381 C   0  0  0  0  0  0  0  0  0  0  0  0
   11.7157  -15.6028   22.5642 O   0  0  0  0  0  0  0  0  0  0  0  0
   12.1728  -17.6859   21.6959 N   0  0  0  0  0  0  0  0  0  0  0  0
   13.4379  -17.7797   22.4026 C   0  0  1  0  0  0  0  0  0  0  0  0
   13.9756  -19.1596   22.1568 C   0  0  0  0  0  0  0  0  0  0  0  0
   15.3335  -19.4026   22.7183 C   0  0  0  0  0  0  0  0  0  0  0  0
   15.4446  -20.5872   23.6077 C   0  0  0  0  0  0  0  0  0  0  0  0
   16.8015  -20.6945   24.2781 C   0  0  0  0  0  0  0  0  0  0  0  0
   16.8485  -21.8173   25.1953 N   0  0  0  0  0  0  0  0  0  0  0  0
   14.3445  -16.7052   21.9594 C   0  0  0  0  0  0  0  0  0  0  0  0
   14.3675  -16.2569   20.6443 O   0  0  0  0  0  0  0  0  0  0  0  0
   15.1150  -16.1847   22.7978 O   0  0  0  0  0  0  0  0  0  0  0  0
  2  1  1  6
  2  3  1  0
  2 13  1  0
  3  4  1  0
  4 12  1  0
  4  5  2  0
  5  6  1  0
  7  6  1  0
  7  8  2  0
  9  8  1  0
 10  9  2  0
 11 12  2  0
 11 10  1  0
 12  7  1  0
 13 14  2  0
 15 13  1  0
 15 16  1  0
 16 17  1  6
 18 17  1  0
 19 21  1  0
 19 16  1  0
 20 19  2  0
 22 21  1  0
 23 24  1  0
 22 23  1  6
 24 25  1  0
 26 25  1  0
 27 26  1  0
 28 22  1  0
 28 29  1  0
 30 28  2  0
M  END
$$$$
