WCK.pdb
     RDKit          3D

 30 31  0  0  1  0  0  0  0  0999 V2000
   10.8998  -16.5877   21.7174 N   0  0  0  0  0  0  0  0  0  0  0  0
   10.2081  -16.0510   22.8479 C   0  0  1  0  0  0  0  0  0  0  0  0
    8.7303  -16.2517   22.8108 C   0  0  0  0  0  0  0  0  0  0  0  0
    8.0508  -15.3342   21.8736 C   0  0  0  0  0  0  0  0  0  0  0  0
    7.5242  -15.6961   20.6566 C   0  0  0  0  0  0  0  0  0  0  0  0
    6.9852  -14.5986   20.0816 N   0  0  0  0  0  0  0  0  0  0  0  0
    7.1526  -13.5382   20.9003 C   0  0  0  0  0  0  0  0  0  0  0  0
    6.7804  -12.2185   20.7600 C   0  0  0  0  0  0  0  0  0  0  0  0
    7.0743  -11.3199   21.7579 C   0  0  0  0  0  0  0  0  0  0  0  0
    7.7359  -11.7378   22.8883 C   0  0  0  0  0  0  0  0  0  0  0  0
    8.0972  -13.0686   23.0018 C   0  0  0  0  0  0  0  0  0  0  0  0
    7.8166  -13.9889   22.0206 C   0  0  0  0  0  0  0  0  0  0  0  0
   10.7093  -16.6717   24.1261 C   0  0  0  0  0  0  0  0  0  0  0  0
   11.4708  -17.6584   24.1263 O   0  0  0  0  0  0  0  0  0  0  0  0
   10.3345  -16.1575   25.3944 N   0  0  0  0  0  0  0  0  0  0  0  0
   11.1729  -16.0451   26.5339 C   0  0  1  0  0  0  0  0  0  0  0  0
   11.0634  -14.7489   27.2762 C   0  0  0  0  0  0  0  0  0  0  0  0
    9.4191  -14.4689   27.9545 S   0  0  0  0  0  0  0  0  0  0  0  0
   10.9665  -17.1811   27.4478 C   0  0  0  0  0  0  0  0  0  0  0  0
    9.8349  -17.7266   27.4881 O   0  0  0  0  0  0  0  0  0  0  0  0
   11.9883  -17.7086   28.3033 N   0  0  0  0  0  0  0  0  0  0  0  0
   11.7239  -18.8018   29.2219 C   0  0  1  0  0  0  0  0  0  0  0  0
   13.0225  -19.1267   29.9016 C   0  0  0  0  0  0  0  0  0  0  0  0
   12.9522  -20.2691   30.8544 C   0  0  0  0  0  0  0  0  0  0  0  0
   14.2427  -20.6395   31.4900 C   0  0  0  0  0  0  0  0  0  0  0  0
   14.1158  -21.8195   32.4355 C   0  0  0  0  0  0  0  0  0  0  0  0
   15.4040  -22.1924   32.9882 N   0  0  0  0  0  0  0  0  0  0  0  0
   10.6464  -18.4274   30.1554 C   0  0  0  0  0  0  0  0  0  0  0  0
    9.7654  -19.3666   30.6778 O   0  0  0  0  0  0  0  0  0  0  0  0
   10.5260  -17.2253   30.4838 O   0  0  0  0  0  0  0  0  0  0  0  0
  2  1  1  6
  2  3  1  0
  2 13  1  0
  3  4  1  0
  4 12  1  0
  4  5  2  0
  5  6  1  0
  7  6  1  0
  7  8  2  0
  9  8  1  0
 10  9  2  0
 11 12  2  0
 11 10  1  0
 12  7  1  0
 13 14  2  0
 15 13  1  0
 15 16  1  0
 16 17  1  1
 18 17  1  0
 19 21  1  0
 19 16  1  0
 20 19  2  0
 22 21  1  0
 23 24  1  0
 22 23  1  1
 24 25  1  0
 26 25  1  0
 27 26  1  0
 28 22  1  0
 28 29  1  0
 30 28  2  0
M  END
$$$$
