WCK.pdb
     RDKit          3D

 30 31  0  0  1  0  0  0  0  0999 V2000
    6.1845  -17.7454   23.8889 N   0  0  0  0  0  0  0  0  0  0  0  0
    7.0621  -16.6240   23.7584 C   0  0  1  0  0  0  0  0  0  0  0  0
    7.6822  -16.1818   25.0411 C   0  0  0  0  0  0  0  0  0  0  0  0
    6.8625  -15.1856   25.7604 C   0  0  0  0  0  0  0  0  0  0  0  0
    5.7343  -15.4712   26.4918 C   0  0  0  0  0  0  0  0  0  0  0  0
    5.2533  -14.3165   27.0025 N   0  0  0  0  0  0  0  0  0  0  0  0
    6.0457  -13.2937   26.6168 C   0  0  0  0  0  0  0  0  0  0  0  0
    5.9715  -11.9425   26.8784 C   0  0  0  0  0  0  0  0  0  0  0  0
    6.9213  -11.0963   26.3572 C   0  0  0  0  0  0  0  0  0  0  0  0
    7.9383  -11.5977   25.5797 C   0  0  0  0  0  0  0  0  0  0  0  0
    7.9875  -12.9584   25.3338 C   0  0  0  0  0  0  0  0  0  0  0  0
    7.0521  -13.8277   25.8415 C   0  0  0  0  0  0  0  0  0  0  0  0
    8.1863  -16.9325   22.8039 C   0  0  0  0  0  0  0  0  0  0  0  0
    8.6420  -18.0849   22.6713 O   0  0  0  0  0  0  0  0  0  0  0  0
    8.7801  -15.9185   22.0085 N   0  0  0  0  0  0  0  0  0  0  0  0
    9.7733  -16.1088   21.0127 C   0  0  1  0  0  0  0  0  0  0  0  0
    9.8673  -15.0151   19.9939 C   0  0  0  0  0  0  0  0  0  0  0  0
    8.3118  -14.7254   19.1342 S   0  0  0  0  0  0  0  0  0  0  0  0
   11.0885  -16.3544   21.6276 C   0  0  0  0  0  0  0  0  0  0  0  0
   11.4716  -15.5999   22.5570 O   0  0  0  0  0  0  0  0  0  0  0  0
   11.9681  -17.4127   21.2268 N   0  0  0  0  0  0  0  0  0  0  0  0
   13.1940  -17.7001   21.9502 C   0  0  1  0  0  0  0  0  0  0  0  0
   13.3882  -19.1882   21.9092 C   0  0  0  0  0  0  0  0  0  0  0  0
   14.6866  -19.6574   22.4680 C   0  0  0  0  0  0  0  0  0  0  0  0
   14.8787  -21.1304   22.4636 C   0  0  0  0  0  0  0  0  0  0  0  0
   16.2108  -21.5519   23.0552 C   0  0  0  0  0  0  0  0  0  0  0  0
   16.3622  -22.9944   23.0376 N   0  0  0  0  0  0  0  0  0  0  0  0
   14.3148  -16.9421   21.3654 C   0  0  0  0  0  0  0  0  0  0  0  0
   14.2666  -16.4373   20.0716 O   0  0  0  0  0  0  0  0  0  0  0  0
   15.3386  -16.7507   22.0600 O   0  0  0  0  0  0  0  0  0  0  0  0
  2  1  1  1
  2  3  1  0
  2 13  1  0
  3  4  1  0
  4 12  1  0
  4  5  2  0
  5  6  1  0
  7  6  1  0
  7  8  2  0
  9  8  1  0
 10  9  2  0
 11 12  2  0
 11 10  1  0
 12  7  1  0
 13 14  2  0
 15 13  1  0
 15 16  1  0
 16 17  1  6
 18 17  1  0
 19 21  1  0
 19 16  1  0
 20 19  2  0
 22 21  1  0
 23 24  1  0
 22 23  1  6
 24 25  1  0
 26 25  1  0
 27 26  1  0
 28 22  1  0
 28 29  1  0
 30 28  2  0
M  END
$$$$
