WCK.pdb
     RDKit          3D

 30 31  0  0  1  0  0  0  0  0999 V2000
    6.4252  -18.0824   24.4369 N   0  0  0  0  0  0  0  0  0  0  0  0
    7.1865  -16.9678   23.9650 C   0  0  1  0  0  0  0  0  0  0  0  0
    7.9573  -16.2610   25.0290 C   0  0  0  0  0  0  0  0  0  0  0  0
    7.1728  -15.2032   25.6979 C   0  0  0  0  0  0  0  0  0  0  0  0
    6.1416  -15.4230   26.5798 C   0  0  0  0  0  0  0  0  0  0  0  0
    5.6646  -14.2257   26.9854 N   0  0  0  0  0  0  0  0  0  0  0  0
    6.3648  -13.2398   26.3850 C   0  0  0  0  0  0  0  0  0  0  0  0
    6.2569  -11.8686   26.4748 C   0  0  0  0  0  0  0  0  0  0  0  0
    7.1072  -11.0709   25.7467 C   0  0  0  0  0  0  0  0  0  0  0  0
    8.0590  -11.6403   24.9341 C   0  0  0  0  0  0  0  0  0  0  0  0
    8.1442  -13.0194   24.8638 C   0  0  0  0  0  0  0  0  0  0  0  0
    7.3078  -13.8415   25.5801 C   0  0  0  0  0  0  0  0  0  0  0  0
    8.1747  -17.4014   22.9135 C   0  0  0  0  0  0  0  0  0  0  0  0
    8.7864  -18.4846   22.9894 O   0  0  0  0  0  0  0  0  0  0  0  0
    8.4547  -16.5908   21.7830 N   0  0  0  0  0  0  0  0  0  0  0  0
    9.3254  -16.9194   20.7116 C   0  0  1  0  0  0  0  0  0  0  0  0
    9.1499  -16.0920   19.4755 C   0  0  0  0  0  0  0  0  0  0  0  0
    7.4793  -16.1770   18.8091 S   0  0  0  0  0  0  0  0  0  0  0  0
   10.7298  -16.8934   21.1537 C   0  0  0  0  0  0  0  0  0  0  0  0
   11.1808  -15.8414   21.6728 O   0  0  0  0  0  0  0  0  0  0  0  0
   11.6235  -18.0068   21.0269 N   0  0  0  0  0  0  0  0  0  0  0  0
   13.0023  -17.9324   21.4767 C   0  0  1  0  0  0  0  0  0  0  0  0
   13.2807  -19.1912   22.2458 C   0  0  0  0  0  0  0  0  0  0  0  0
   12.6941  -19.2215   23.6144 C   0  0  0  0  0  0  0  0  0  0  0  0
   12.4308  -20.5791   24.1570 C   0  0  0  0  0  0  0  0  0  0  0  0
   11.7428  -20.5492   25.5090 C   0  0  0  0  0  0  0  0  0  0  0  0
   11.4113  -21.8871   25.9609 N   0  0  0  0  0  0  0  0  0  0  0  0
   13.8993  -17.7342   20.3240 C   0  0  0  0  0  0  0  0  0  0  0  0
   15.2104  -17.2997   20.4774 O   0  0  0  0  0  0  0  0  0  0  0  0
   13.4612  -17.9658   19.1743 O   0  0  0  0  0  0  0  0  0  0  0  0
  2  1  1  1
  2  3  1  0
  2 13  1  0
  3  4  1  0
  4 12  1  0
  4  5  2  0
  5  6  1  0
  7  6  1  0
  7  8  2  0
  9  8  1  0
 10  9  2  0
 11 12  2  0
 11 10  1  0
 12  7  1  0
 13 14  2  0
 15 13  1  0
 15 16  1  0
 16 17  1  6
 18 17  1  0
 19 21  1  0
 19 16  1  0
 20 19  2  0
 22 21  1  0
 23 24  1  0
 22 23  1  6
 24 25  1  0
 26 25  1  0
 27 26  1  0
 28 22  1  0
 28 29  1  0
 30 28  2  0
M  END
$$$$
