WCK.pdb
     RDKit          3D

 30 31  0  0  1  0  0  0  0  0999 V2000
   10.1364  -16.3874   22.1601 N   0  0  0  0  0  0  0  0  0  0  0  0
    9.6565  -15.6773   23.3047 C   0  0  1  0  0  0  0  0  0  0  0  0
    8.1855  -15.7957   23.5237 C   0  0  0  0  0  0  0  0  0  0  0  0
    7.5153  -14.4840   23.6341 C   0  0  0  0  0  0  0  0  0  0  0  0
    7.2505  -13.6413   22.5809 C   0  0  0  0  0  0  0  0  0  0  0  0
    6.6312  -12.5405   23.0606 N   0  0  0  0  0  0  0  0  0  0  0  0
    6.4911  -12.6547   24.3986 C   0  0  0  0  0  0  0  0  0  0  0  0
    5.9301  -11.8033   25.3261 C   0  0  0  0  0  0  0  0  0  0  0  0
    5.9126  -12.1607   26.6533 C   0  0  0  0  0  0  0  0  0  0  0  0
    6.4523  -13.3612   27.0506 C   0  0  0  0  0  0  0  0  0  0  0  0
    7.0086  -14.1958   26.0975 C   0  0  0  0  0  0  0  0  0  0  0  0
    7.0402  -13.8646   24.7642 C   0  0  0  0  0  0  0  0  0  0  0  0
   10.3336  -16.1646   24.5594 C   0  0  0  0  0  0  0  0  0  0  0  0
   11.0317  -17.1969   24.5743 O   0  0  0  0  0  0  0  0  0  0  0  0
   10.2058  -15.4656   25.7876 N   0  0  0  0  0  0  0  0  0  0  0  0
   10.8539  -15.7903   27.0077 C   0  0  1  0  0  0  0  0  0  0  0  0
   10.5335  -14.8843   28.1565 C   0  0  0  0  0  0  0  0  0  0  0  0
   10.4776  -13.1480   27.6825 S   0  0  0  0  0  0  0  0  0  0  0  0
   10.6038  -17.1945   27.3739 C   0  0  0  0  0  0  0  0  0  0  0  0
    9.4181  -17.6106   27.3993 O   0  0  0  0  0  0  0  0  0  0  0  0
   11.6412  -18.1259   27.7066 N   0  0  0  0  0  0  0  0  0  0  0  0
   11.3415  -19.4883   28.1100 C   0  0  1  0  0  0  0  0  0  0  0  0
   12.2898  -20.3839   27.3666 C   0  0  0  0  0  0  0  0  0  0  0  0
   12.1577  -21.8308   27.6936 C   0  0  0  0  0  0  0  0  0  0  0  0
   13.1733  -22.7139   27.0648 C   0  0  0  0  0  0  0  0  0  0  0  0
   12.9428  -24.1832   27.3657 C   0  0  0  0  0  0  0  0  0  0  0  0
   14.0708  -24.9908   26.9423 N   0  0  0  0  0  0  0  0  0  0  0  0
   11.4375  -19.6136   29.5755 C   0  0  0  0  0  0  0  0  0  0  0  0
   11.9538  -18.5964   30.3692 O   0  0  0  0  0  0  0  0  0  0  0  0
   11.0404  -20.6707   30.1160 O   0  0  0  0  0  0  0  0  0  0  0  0
  2  1  1  6
  2  3  1  0
  2 13  1  0
  3  4  1  0
  4 12  1  0
  4  5  2  0
  5  6  1  0
  7  6  1  0
  7  8  2  0
  9  8  1  0
 10  9  2  0
 11 12  2  0
 11 10  1  0
 12  7  1  0
 13 14  2  0
 15 13  1  0
 15 16  1  0
 16 17  1  1
 18 17  1  0
 19 21  1  0
 19 16  1  0
 20 19  2  0
 22 21  1  0
 23 24  1  0
 22 23  1  6
 24 25  1  0
 26 25  1  0
 27 26  1  0
 28 22  1  0
 28 29  1  0
 30 28  2  0
M  END
$$$$
