WCK.pdb
     RDKit          3D

 30 31  0  0  1  0  0  0  0  0999 V2000
    6.1571  -18.2938   24.7281 N   0  0  0  0  0  0  0  0  0  0  0  0
    6.7138  -17.0185   24.3990 C   0  0  1  0  0  0  0  0  0  0  0  0
    7.4467  -16.3645   25.5219 C   0  0  0  0  0  0  0  0  0  0  0  0
    6.7316  -15.1930   26.0676 C   0  0  0  0  0  0  0  0  0  0  0  0
    5.5701  -15.2479   26.8006 C   0  0  0  0  0  0  0  0  0  0  0  0
    5.2115  -13.9866   27.1268 N   0  0  0  0  0  0  0  0  0  0  0  0
    6.1152  -13.1208   26.6206 C   0  0  0  0  0  0  0  0  0  0  0  0
    6.1854  -11.7456   26.6835 C   0  0  0  0  0  0  0  0  0  0  0  0
    7.2280  -11.0899   26.0730 C   0  0  0  0  0  0  0  0  0  0  0  0
    8.1938  -11.8041   25.4042 C   0  0  0  0  0  0  0  0  0  0  0  0
    8.0976  -13.1835   25.3575 C   0  0  0  0  0  0  0  0  0  0  0  0
    7.0669  -13.8656   25.9584 C   0  0  0  0  0  0  0  0  0  0  0  0
    7.6781  -17.1365   23.2474 C   0  0  0  0  0  0  0  0  0  0  0  0
    8.3532  -18.1663   23.0548 O   0  0  0  0  0  0  0  0  0  0  0  0
    7.8618  -16.0740   22.3250 N   0  0  0  0  0  0  0  0  0  0  0  0
    8.8938  -15.9749   21.3559 C   0  0  1  0  0  0  0  0  0  0  0  0
    8.7856  -14.8009   20.4322 C   0  0  0  0  0  0  0  0  0  0  0  0
   10.0884  -14.7668   19.1898 S   0  0  0  0  0  0  0  0  0  0  0  0
   10.2182  -16.0039   21.9990 C   0  0  0  0  0  0  0  0  0  0  0  0
   10.4888  -15.1343   22.8652 O   0  0  0  0  0  0  0  0  0  0  0  0
   11.2285  -16.9739   21.6943 N   0  0  0  0  0  0  0  0  0  0  0  0
   12.5047  -16.9884   22.3871 C   0  0  1  0  0  0  0  0  0  0  0  0
   12.6911  -18.3744   22.9329 C   0  0  0  0  0  0  0  0  0  0  0  0
   12.3534  -18.5206   24.3761 C   0  0  0  0  0  0  0  0  0  0  0  0
   12.5313  -19.8877   24.9292 C   0  0  0  0  0  0  0  0  0  0  0  0
   12.1378  -19.9869   26.3913 C   0  0  0  0  0  0  0  0  0  0  0  0
   12.3323  -21.3316   26.8990 N   0  0  0  0  0  0  0  0  0  0  0  0
   13.5803  -16.5644   21.4727 C   0  0  0  0  0  0  0  0  0  0  0  0
   14.7224  -15.9175   21.9291 O   0  0  0  0  0  0  0  0  0  0  0  0
   13.4555  -16.7967   20.2488 O   0  0  0  0  0  0  0  0  0  0  0  0
  2  1  1  1
  2  3  1  0
  2 13  1  0
  3  4  1  0
  4 12  1  0
  4  5  2  0
  5  6  1  0
  7  6  1  0
  7  8  2  0
  9  8  1  0
 10  9  2  0
 11 12  2  0
 11 10  1  0
 12  7  1  0
 13 14  2  0
 15 13  1  0
 15 16  1  0
 16 17  1  1
 18 17  1  0
 19 21  1  0
 19 16  1  0
 20 19  2  0
 22 21  1  0
 23 24  1  0
 22 23  1  6
 24 25  1  0
 26 25  1  0
 27 26  1  0
 28 22  1  0
 28 29  1  0
 30 28  2  0
M  END
$$$$
