WCK.pdb
     RDKit          3D

 30 31  0  0  1  0  0  0  0  0999 V2000
    6.9638  -17.9694   23.4257 N   0  0  0  0  0  0  0  0  0  0  0  0
    8.1307  -17.1509   23.3108 C   0  0  1  0  0  0  0  0  0  0  0  0
    8.4824  -16.4112   24.5577 C   0  0  0  0  0  0  0  0  0  0  0  0
    7.6297  -15.2259   24.7806 C   0  0  0  0  0  0  0  0  0  0  0  0
    6.7365  -15.0789   25.8151 C   0  0  0  0  0  0  0  0  0  0  0  0
    6.1395  -13.8727   25.6952 N   0  0  0  0  0  0  0  0  0  0  0  0
    6.6277  -13.2395   24.6073 C   0  0  0  0  0  0  0  0  0  0  0  0
    6.3370  -12.0025   24.0734 C   0  0  0  0  0  0  0  0  0  0  0  0
    6.9863  -11.5834   22.9365 C   0  0  0  0  0  0  0  0  0  0  0  0
    7.9200  -12.3957   22.3375 C   0  0  0  0  0  0  0  0  0  0  0  0
    8.1915  -13.6322   22.8957 C   0  0  0  0  0  0  0  0  0  0  0  0
    7.5580  -14.0772   24.0311 C   0  0  0  0  0  0  0  0  0  0  0  0
    9.3305  -17.9797   22.9318 C   0  0  0  0  0  0  0  0  0  0  0  0
    9.4723  -19.1539   23.3248 O   0  0  0  0  0  0  0  0  0  0  0  0
   10.3590  -17.4571   22.1056 N   0  0  0  0  0  0  0  0  0  0  0  0
   11.6508  -18.0153   21.9218 C   0  0  1  0  0  0  0  0  0  0  0  0
   12.5020  -17.3217   20.9032 C   0  0  0  0  0  0  0  0  0  0  0  0
   11.7734  -17.3371   19.2565 S   0  0  0  0  0  0  0  0  0  0  0  0
   12.3636  -18.1156   23.2064 C   0  0  0  0  0  0  0  0  0  0  0  0
   11.9265  -17.4700   24.1923 O   0  0  0  0  0  0  0  0  0  0  0  0
   13.5381  -18.9132   23.4034 N   0  0  0  0  0  0  0  0  0  0  0  0
   14.0721  -19.1689   24.7294 C   0  0  1  0  0  0  0  0  0  0  0  0
   13.0633  -20.0135   25.4525 C   0  0  0  0  0  0  0  0  0  0  0  0
   13.4912  -20.4638   26.8061 C   0  0  0  0  0  0  0  0  0  0  0  0
   12.4713  -21.2307   27.5664 C   0  0  0  0  0  0  0  0  0  0  0  0
   13.0084  -21.7934   28.8692 C   0  0  0  0  0  0  0  0  0  0  0  0
   12.1473  -21.4516   29.9853 N   0  0  0  0  0  0  0  0  0  0  0  0
   15.4018  -19.7964   24.6257 C   0  0  0  0  0  0  0  0  0  0  0  0
   15.6595  -20.8331   23.7368 O   0  0  0  0  0  0  0  0  0  0  0  0
   16.3230  -19.3788   25.3635 O   0  0  0  0  0  0  0  0  0  0  0  0
  2  1  1  1
  2  3  1  0
  2 13  1  0
  3  4  1  0
  4 12  1  0
  4  5  2  0
  5  6  1  0
  7  6  1  0
  7  8  2  0
  9  8  1  0
 10  9  2  0
 11 12  2  0
 11 10  1  0
 12  7  1  0
 13 14  2  0
 15 13  1  0
 15 16  1  0
 16 17  1  6
 18 17  1  0
 19 21  1  0
 19 16  1  0
 20 19  2  0
 22 21  1  0
 23 24  1  0
 22 23  1  6
 24 25  1  0
 26 25  1  0
 27 26  1  0
 28 22  1  0
 28 29  1  0
 30 28  2  0
M  END
$$$$
