WCK.pdb
     RDKit          3D

 30 31  0  0  1  0  0  0  0  0999 V2000
    6.4813  -17.6200   24.1055 N   0  0  0  0  0  0  0  0  0  0  0  0
    7.1322  -16.4092   23.7119 C   0  0  1  0  0  0  0  0  0  0  0  0
    7.9293  -15.7647   24.7958 C   0  0  0  0  0  0  0  0  0  0  0  0
    7.1073  -14.9218   25.6878 C   0  0  0  0  0  0  0  0  0  0  0  0
    6.1026  -15.3825   26.5049 C   0  0  0  0  0  0  0  0  0  0  0  0
    5.5766  -14.3301   27.1692 N   0  0  0  0  0  0  0  0  0  0  0  0
    6.2195  -13.2022   26.7988 C   0  0  0  0  0  0  0  0  0  0  0  0
    6.0487  -11.8921   27.1917 C   0  0  0  0  0  0  0  0  0  0  0  0
    6.8482  -10.9117   26.6540 C   0  0  0  0  0  0  0  0  0  0  0  0
    7.8120  -11.2388   25.7296 C   0  0  0  0  0  0  0  0  0  0  0  0
    7.9608  -12.5621   25.3540 C   0  0  0  0  0  0  0  0  0  0  0  0
    7.1761  -13.5629   25.8747 C   0  0  0  0  0  0  0  0  0  0  0  0
    8.0687  -16.6558   22.5576 C   0  0  0  0  0  0  0  0  0  0  0  0
    8.7294  -17.7077   22.4570 O   0  0  0  0  0  0  0  0  0  0  0  0
    8.2411  -15.6954   21.5273 N   0  0  0  0  0  0  0  0  0  0  0  0
    9.1550  -15.7829   20.4451 C   0  0  1  0  0  0  0  0  0  0  0  0
    9.1582  -14.6040   19.5212 C   0  0  0  0  0  0  0  0  0  0  0  0
    7.5204  -14.2110   18.8844 S   0  0  0  0  0  0  0  0  0  0  0  0
   10.5168  -16.0585   20.9329 C   0  0  0  0  0  0  0  0  0  0  0  0
   10.9662  -15.3768   21.8884 O   0  0  0  0  0  0  0  0  0  0  0  0
   11.3703  -17.0679   20.3788 N   0  0  0  0  0  0  0  0  0  0  0  0
   12.6206  -17.4425   21.0154 C   0  0  1  0  0  0  0  0  0  0  0  0
   12.5003  -18.8887   21.4000 C   0  0  0  0  0  0  0  0  0  0  0  0
   13.7551  -19.4947   21.9253 C   0  0  0  0  0  0  0  0  0  0  0  0
   13.6627  -20.9372   22.2676 C   0  0  0  0  0  0  0  0  0  0  0  0
   14.9733  -21.5059   22.7788 C   0  0  0  0  0  0  0  0  0  0  0  0
   14.8714  -22.9334   23.0153 N   0  0  0  0  0  0  0  0  0  0  0  0
   13.7508  -17.1641   20.1111 C   0  0  0  0  0  0  0  0  0  0  0  0
   13.5819  -17.0433   18.7370 O   0  0  0  0  0  0  0  0  0  0  0  0
   14.8953  -17.0338   20.6015 O   0  0  0  0  0  0  0  0  0  0  0  0
  2  1  1  1
  2  3  1  0
  2 13  1  0
  3  4  1  0
  4 12  1  0
  4  5  2  0
  5  6  1  0
  7  6  1  0
  7  8  2  0
  9  8  1  0
 10  9  2  0
 11 12  2  0
 11 10  1  0
 12  7  1  0
 13 14  2  0
 15 13  1  0
 15 16  1  0
 16 17  1  1
 18 17  1  0
 19 21  1  0
 19 16  1  0
 20 19  2  0
 22 21  1  0
 23 24  1  0
 22 23  1  6
 24 25  1  0
 26 25  1  0
 27 26  1  0
 28 22  1  0
 28 29  1  0
 30 28  2  0
M  END
$$$$
