WCK.pdb
     RDKit          3D

 30 31  0  0  1  0  0  0  0  0999 V2000
    6.3041  -18.0691   25.0001 N   0  0  0  0  0  0  0  0  0  0  0  0
    6.7626  -16.8557   24.3983 C   0  0  1  0  0  0  0  0  0  0  0  0
    7.7725  -16.1158   25.2096 C   0  0  0  0  0  0  0  0  0  0  0  0
    7.1672  -15.0816   26.0733 C   0  0  0  0  0  0  0  0  0  0  0  0
    6.4222  -15.3315   27.2011 C   0  0  0  0  0  0  0  0  0  0  0  0
    6.0367  -14.1488   27.7285 N   0  0  0  0  0  0  0  0  0  0  0  0
    6.5162  -13.1429   26.9663 C   0  0  0  0  0  0  0  0  0  0  0  0
    6.3943  -11.7756   27.0905 C   0  0  0  0  0  0  0  0  0  0  0  0
    6.9892  -10.9533   26.1634 C   0  0  0  0  0  0  0  0  0  0  0  0
    7.7012  -11.4944   25.1191 C   0  0  0  0  0  0  0  0  0  0  0  0
    7.8068  -12.8704   25.0197 C   0  0  0  0  0  0  0  0  0  0  0  0
    7.2227  -13.7166   25.9315 C   0  0  0  0  0  0  0  0  0  0  0  0
    7.3851  -17.1274   23.0533 C   0  0  0  0  0  0  0  0  0  0  0  0
    8.0931  -18.1316   22.8446 O   0  0  0  0  0  0  0  0  0  0  0  0
    7.1918  -16.2466   21.9578 N   0  0  0  0  0  0  0  0  0  0  0  0
    8.0578  -16.0924   20.8440 C   0  0  1  0  0  0  0  0  0  0  0  0
    7.7066  -14.9681   19.9189 C   0  0  0  0  0  0  0  0  0  0  0  0
    8.7083  -14.9556   18.4226 S   0  0  0  0  0  0  0  0  0  0  0  0
    9.4585  -15.9793   21.2837 C   0  0  0  0  0  0  0  0  0  0  0  0
    9.7045  -15.4143   22.3792 O   0  0  0  0  0  0  0  0  0  0  0  0
   10.5707  -16.4796   20.5307 N   0  0  0  0  0  0  0  0  0  0  0  0
   11.8006  -16.9020   21.1772 C   0  0  1  0  0  0  0  0  0  0  0  0
   11.4427  -18.0228   22.1097 C   0  0  0  0  0  0  0  0  0  0  0  0
   12.6070  -18.6595   22.7858 C   0  0  0  0  0  0  0  0  0  0  0  0
   12.2690  -19.7816   23.6985 C   0  0  0  0  0  0  0  0  0  0  0  0
   13.4961  -20.4423   24.2985 C   0  0  0  0  0  0  0  0  0  0  0  0
   13.1285  -21.4261   25.2990 N   0  0  0  0  0  0  0  0  0  0  0  0
   12.8019  -17.2755   20.1621 C   0  0  0  0  0  0  0  0  0  0  0  0
   12.4503  -17.5431   18.8445 O   0  0  0  0  0  0  0  0  0  0  0  0
   14.0040  -17.3527   20.5032 O   0  0  0  0  0  0  0  0  0  0  0  0
  2  1  1  1
  2  3  1  0
  2 13  1  0
  3  4  1  0
  4 12  1  0
  4  5  2  0
  5  6  1  0
  7  6  1  0
  7  8  2  0
  9  8  1  0
 10  9  2  0
 11 12  2  0
 11 10  1  0
 12  7  1  0
 13 14  2  0
 15 13  1  0
 15 16  1  0
 16 17  1  1
 18 17  1  0
 19 21  1  0
 19 16  1  0
 20 19  2  0
 22 21  1  0
 23 24  1  0
 22 23  1  1
 24 25  1  0
 26 25  1  0
 27 26  1  0
 28 22  1  0
 28 29  1  0
 30 28  2  0
M  END
$$$$
