WCK.pdb
     RDKit          3D

 30 31  0  0  1  0  0  0  0  0999 V2000
    6.6253  -17.5264   24.1550 N   0  0  0  0  0  0  0  0  0  0  0  0
    7.1025  -16.3025   23.5900 C   0  0  1  0  0  0  0  0  0  0  0  0
    7.9403  -15.4881   24.5177 C   0  0  0  0  0  0  0  0  0  0  0  0
    7.1357  -14.6831   25.4591 C   0  0  0  0  0  0  0  0  0  0  0  0
    6.0700  -15.1531   26.1892 C   0  0  0  0  0  0  0  0  0  0  0  0
    5.5835  -14.1377   26.9360 N   0  0  0  0  0  0  0  0  0  0  0  0
    6.3111  -13.0245   26.7036 C   0  0  0  0  0  0  0  0  0  0  0  0
    6.2064  -11.7504   27.2192 C   0  0  0  0  0  0  0  0  0  0  0  0
    7.0881  -10.7778   26.8114 C   0  0  0  0  0  0  0  0  0  0  0  0
    8.0678  -11.0769   25.8944 C   0  0  0  0  0  0  0  0  0  0  0  0
    8.1491  -12.3643   25.3940 C   0  0  0  0  0  0  0  0  0  0  0  0
    7.2816  -13.3565   25.7833 C   0  0  0  0  0  0  0  0  0  0  0  0
    7.9308  -16.5681   22.3598 C   0  0  0  0  0  0  0  0  0  0  0  0
    8.4440  -17.6819   22.1375 O   0  0  0  0  0  0  0  0  0  0  0  0
    8.1650  -15.5558   21.3934 N   0  0  0  0  0  0  0  0  0  0  0  0
    8.9769  -15.6746   20.2356 C   0  0  1  0  0  0  0  0  0  0  0  0
    8.9453  -14.4935   19.3151 C   0  0  0  0  0  0  0  0  0  0  0  0
    7.2728  -14.0127   18.8526 S   0  0  0  0  0  0  0  0  0  0  0  0
   10.3642  -16.0046   20.6026 C   0  0  0  0  0  0  0  0  0  0  0  0
   10.9256  -15.3361   21.5068 O   0  0  0  0  0  0  0  0  0  0  0  0
   11.1217  -17.0531   19.9851 N   0  0  0  0  0  0  0  0  0  0  0  0
   12.3925  -17.4975   20.5295 C   0  0  1  0  0  0  0  0  0  0  0  0
   12.1517  -18.8346   21.1684 C   0  0  0  0  0  0  0  0  0  0  0  0
   11.9958  -18.7928   22.6489 C   0  0  0  0  0  0  0  0  0  0  0  0
   11.8879  -20.1194   23.3086 C   0  0  0  0  0  0  0  0  0  0  0  0
   11.7179  -20.0165   24.8128 C   0  0  0  0  0  0  0  0  0  0  0  0
   11.6090  -21.3286   25.4215 N   0  0  0  0  0  0  0  0  0  0  0  0
   13.4143  -17.5261   19.4675 C   0  0  0  0  0  0  0  0  0  0  0  0
   14.7689  -17.6487   19.7523 O   0  0  0  0  0  0  0  0  0  0  0  0
   13.0446  -17.4365   18.2748 O   0  0  0  0  0  0  0  0  0  0  0  0
  2  1  1  1
  2  3  1  0
  2 13  1  0
  3  4  1  0
  4 12  1  0
  4  5  2  0
  5  6  1  0
  7  6  1  0
  7  8  2  0
  9  8  1  0
 10  9  2  0
 11 12  2  0
 11 10  1  0
 12  7  1  0
 13 14  2  0
 15 13  1  0
 15 16  1  0
 16 17  1  1
 18 17  1  0
 19 21  1  0
 19 16  1  0
 20 19  2  0
 22 21  1  0
 23 24  1  0
 22 23  1  6
 24 25  1  0
 26 25  1  0
 27 26  1  0
 28 22  1  0
 28 29  1  0
 30 28  2  0
M  END
$$$$
