VRD.pdb
     RDKit          3D

 27 26  0  0  1  0  0  0  0  0999 V2000
   25.0548  -15.9445  -18.8323 C   0  0  0  0  0  0  0  0  0  0  0  0
   25.6714  -16.8506  -19.9060 C   0  0  1  0  0  0  0  0  0  0  0  0
   26.2010  -16.0469  -21.0524 C   0  0  0  0  0  0  0  0  0  0  0  0
   26.7287  -17.6709  -19.2161 C   0  0  2  0  0  0  0  0  0  0  0  0
   27.3193  -18.5978  -20.1591 N   0  0  0  0  0  0  0  0  0  0  0  0
   26.2341  -18.4156  -18.0584 C   0  0  0  0  0  0  0  0  0  0  0  0
   25.3928  -19.3408  -18.2328 O   0  0  0  0  0  0  0  0  0  0  0  0
   25.4401  -22.0159  -12.0025 N   0  0  0  0  0  0  0  0  0  0  0  0
   25.9629  -21.2351  -10.9378 C   0  0  0  0  0  0  0  0  0  0  0  0
   25.4265  -21.3183   -9.7871 N   0  0  0  0  0  0  0  0  0  0  0  0
   27.0786  -20.3765  -11.1883 N   0  0  0  0  0  0  0  0  0  0  0  0
   27.4863  -20.0769  -12.5401 C   0  0  0  0  0  0  0  0  0  0  0  0
   26.6573  -18.9092  -13.0957 C   0  0  0  0  0  0  0  0  0  0  0  0
   27.1182  -18.6658  -14.4804 C   0  0  0  0  0  0  0  0  0  0  0  0
   26.1355  -18.9905  -15.5797 C   0  0  2  0  0  0  0  0  0  0  0  0
   26.6216  -18.1893  -16.7238 N   0  0  0  0  0  0  0  0  0  0  0  0
   24.7375  -18.6741  -15.2853 C   0  0  0  0  0  0  0  0  0  0  0  0
   24.4278  -17.4451  -15.1684 O   0  0  0  0  0  0  0  0  0  0  0  0
   25.7824  -20.7320   -9.0042 N   0  0  0  0  0  0  0  0  0  0  0  0
   23.6945  -19.6150  -15.1224 C   0  0  2  0  0  0  0  0  0  0  0  0
   22.3263  -19.1613  -14.7972 C   0  0  0  0  0  0  0  0  0  0  0  0
   21.4703  -19.5983  -15.9593 C   0  0  0  0  0  0  0  0  0  0  0  0
   20.0325  -19.3777  -15.7313 O   0  0  0  0  0  0  0  0  0  0  0  0
   19.5105  -18.4443  -15.0982 C   0  0  0  0  0  0  0  0  0  0  0  0
   21.9072  -19.9181  -13.5975 O   0  0  0  0  0  0  0  0  0  0  0  0
   20.7896  -19.6090  -12.8306 O   0  0  0  0  0  0  0  0  0  0  0  0
   19.1799  -20.3478  -16.3061 O   0  0  0  0  0  0  0  0  0  0  0  0
  2  1  1  1
  3  2  1  0
  4  2  1  0
  4  5  1  6
  6  4  1  0
  6  7  2  0
  9  8  1  0
 10  9  2  0
 11  9  1  0
 12 13  1  0
 12 11  1  0
 13 14  1  0
 15 14  1  1
 15 16  1  0
 16  6  1  0
 17 15  1  0
 18 17  2  0
 19 17  1  0
 20 24  1  0
 20 19  1  0
 20 21  1  6
 22 21  1  0
 23 22  2  0
 24 25  1  0
 26 22  1  0
 27 24  2  0
M  END
$$$$
