VRD.pdb
     RDKit          3D

 27 26  0  0  1  0  0  0  0  0999 V2000
   31.6136  -22.1611   -9.6249 C   0  0  0  0  0  0  0  0  0  0  0  0
   32.3365  -22.1117  -10.9774 C   0  0  1  0  0  0  0  0  0  0  0  0
   33.5115  -23.0388  -10.9965 C   0  0  0  0  0  0  0  0  0  0  0  0
   31.3049  -22.4373  -12.0245 C   0  0  2  0  0  0  0  0  0  0  0  0
   31.9312  -22.4796  -13.3296 N   0  0  0  0  0  0  0  0  0  0  0  0
   30.1854  -21.4965  -12.0610 C   0  0  0  0  0  0  0  0  0  0  0  0
   30.3854  -20.3138  -12.4551 O   0  0  0  0  0  0  0  0  0  0  0  0
   24.2248  -20.3605  -17.2072 N   0  0  0  0  0  0  0  0  0  0  0  0
   23.7430  -19.4441  -16.2352 C   0  0  0  0  0  0  0  0  0  0  0  0
   22.8164  -18.6328  -16.5543 N   0  0  0  0  0  0  0  0  0  0  0  0
   24.3128  -19.4586  -14.9238 N   0  0  0  0  0  0  0  0  0  0  0  0
   25.4397  -20.3082  -14.6215 C   0  0  0  0  0  0  0  0  0  0  0  0
   25.9230  -20.0542  -13.1857 C   0  0  0  0  0  0  0  0  0  0  0  0
   27.1355  -20.8770  -12.9806 C   0  0  0  0  0  0  0  0  0  0  0  0
   27.7788  -20.7927  -11.6173 C   0  0  2  0  0  0  0  0  0  0  0  0
   28.8622  -21.7971  -11.6851 N   0  0  0  0  0  0  0  0  0  0  0  0
   26.8913  -21.0667  -10.4866 C   0  0  0  0  0  0  0  0  0  0  0  0
   26.4477  -22.2535  -10.3652 O   0  0  0  0  0  0  0  0  0  0  0  0
   22.4994  -17.9122  -15.8735 N   0  0  0  0  0  0  0  0  0  0  0  0
   26.4839  -20.1284   -9.5102 C   0  0  2  0  0  0  0  0  0  0  0  0
   25.6939  -20.5661   -8.3406 C   0  0  0  0  0  0  0  0  0  0  0  0
   25.9105  -19.5069   -7.2893 C   0  0  0  0  0  0  0  0  0  0  0  0
   27.1792  -19.6693   -6.5600 O   0  0  0  0  0  0  0  0  0  0  0  0
   27.9121  -20.6729   -6.5493 C   0  0  0  0  0  0  0  0  0  0  0  0
   24.2746  -20.5295   -8.7554 O   0  0  0  0  0  0  0  0  0  0  0  0
   23.8285  -20.0145   -9.9672 O   0  0  0  0  0  0  0  0  0  0  0  0
   27.5802  -18.5469   -5.7999 O   0  0  0  0  0  0  0  0  0  0  0  0
  2  1  1  1
  3  2  1  0
  4  2  1  0
  4  5  1  6
  6  4  1  0
  6  7  2  0
  9  8  1  0
 10  9  2  0
 11  9  1  0
 12 13  1  0
 12 11  1  0
 13 14  1  0
 15 14  1  6
 15 16  1  0
 16  6  1  0
 17 15  1  0
 18 17  2  0
 19 17  1  0
 20 24  1  0
 20 19  1  0
 20 21  1  6
 22 21  1  0
 23 22  2  0
 24 25  1  0
 26 22  1  0
 27 24  2  0
M  END
$$$$
