VRD.pdb
     RDKit          3D

 27 26  0  0  1  0  0  0  0  0999 V2000
   19.3149  -23.5627   -9.4680 C   0  0  0  0  0  0  0  0  0  0  0  0
   18.3410  -23.8088   -8.3083 C   0  0  1  0  0  0  0  0  0  0  0  0
   16.9302  -23.5201   -8.7167 C   0  0  0  0  0  0  0  0  0  0  0  0
   18.5531  -25.2328   -7.8680 C   0  0  2  0  0  0  0  0  0  0  0  0
   18.2943  -26.1294   -8.9754 N   0  0  0  0  0  0  0  0  0  0  0  0
   17.7242  -25.6268   -6.7290 C   0  0  0  0  0  0  0  0  0  0  0  0
   16.5103  -25.9169   -6.9198 O   0  0  0  0  0  0  0  0  0  0  0  0
   20.4566  -29.9437   -3.1007 N   0  0  0  0  0  0  0  0  0  0  0  0
   19.6258  -30.4209   -2.0525 C   0  0  0  0  0  0  0  0  0  0  0  0
   19.4702  -31.6753   -1.9076 N   0  0  0  0  0  0  0  0  0  0  0  0
   18.9868  -29.4779   -1.1881 N   0  0  0  0  0  0  0  0  0  0  0  0
   18.9462  -28.0765   -1.5312 C   0  0  0  0  0  0  0  0  0  0  0  0
   18.2649  -27.8856   -2.8946 C   0  0  0  0  0  0  0  0  0  0  0  0
   18.2213  -26.4310   -3.1617 C   0  0  0  0  0  0  0  0  0  0  0  0
   17.2748  -25.9780   -4.2473 C   0  0  2  0  0  0  0  0  0  0  0  0
   18.1687  -25.7155   -5.3959 N   0  0  0  0  0  0  0  0  0  0  0  0
   16.4792  -24.7914   -3.9311 C   0  0  0  0  0  0  0  0  0  0  0  0
   17.0063  -23.6556   -4.1593 O   0  0  0  0  0  0  0  0  0  0  0  0
   18.8382  -32.0381   -1.1644 N   0  0  0  0  0  0  0  0  0  0  0  0
   15.1700  -24.7933   -3.3965 C   0  0  2  0  0  0  0  0  0  0  0  0
   14.4770  -23.5180   -3.1190 C   0  0  0  0  0  0  0  0  0  0  0  0
   13.2522  -23.5256   -3.9986 C   0  0  0  0  0  0  0  0  0  0  0  0
   12.3475  -22.3938   -3.7369 O   0  0  0  0  0  0  0  0  0  0  0  0
   12.5623  -21.4213   -2.9936 C   0  0  0  0  0  0  0  0  0  0  0  0
   14.0389  -23.5770   -1.7074 O   0  0  0  0  0  0  0  0  0  0  0  0
   13.7679  -22.4589   -0.9269 O   0  0  0  0  0  0  0  0  0  0  0  0
   11.1099  -22.4473   -4.4181 O   0  0  0  0  0  0  0  0  0  0  0  0
  2  1  1  6
  3  2  1  0
  4  2  1  0
  4  5  1  6
  6  4  1  0
  6  7  2  0
  9  8  1  0
 10  9  2  0
 11  9  1  0
 12 13  1  0
 12 11  1  0
 13 14  1  0
 15 14  1  1
 15 16  1  0
 16  6  1  0
 17 15  1  0
 18 17  2  0
 19 17  1  0
 20 24  1  0
 20 19  1  0
 20 21  1  6
 22 21  1  0
 23 22  2  0
 24 25  1  0
 26 22  1  0
 27 24  2  0
M  END
$$$$
