VRD.pdb
     RDKit          3D

 27 26  0  0  1  0  0  0  0  0999 V2000
   39.2830   -6.2583  -14.5502 C   0  0  0  0  0  0  0  0  0  0  0  0
   37.7962   -6.4771  -14.8597 C   0  0  1  0  0  0  0  0  0  0  0  0
   37.5661   -6.6214  -16.3317 C   0  0  0  0  0  0  0  0  0  0  0  0
   37.3695   -7.6856  -14.0698 C   0  0  2  0  0  0  0  0  0  0  0  0
   35.9689   -7.9595  -14.3160 N   0  0  0  0  0  0  0  0  0  0  0  0
   37.5856   -7.5540  -12.6291 C   0  0  0  0  0  0  0  0  0  0  0  0
   36.8323   -6.7941  -11.9586 O   0  0  0  0  0  0  0  0  0  0  0  0
   42.9532   -9.6896   -7.3586 N   0  0  0  0  0  0  0  0  0  0  0  0
   42.0291  -10.3146   -6.4799 C   0  0  0  0  0  0  0  0  0  0  0  0
   42.2383  -10.2686   -5.2258 N   0  0  0  0  0  0  0  0  0  0  0  0
   40.8881  -10.9788   -7.0292 N   0  0  0  0  0  0  0  0  0  0  0  0
   40.5263  -10.7939   -8.4142 C   0  0  0  0  0  0  0  0  0  0  0  0
   39.9284   -9.3943   -8.6220 C   0  0  0  0  0  0  0  0  0  0  0  0
   39.4159   -9.3393  -10.0089 C   0  0  0  0  0  0  0  0  0  0  0  0
   38.8078   -8.0284  -10.4461 C   0  0  2  0  0  0  0  0  0  0  0  0
   38.5883   -8.2175  -11.8965 N   0  0  0  0  0  0  0  0  0  0  0  0
   39.6285   -6.8425  -10.1989 C   0  0  0  0  0  0  0  0  0  0  0  0
   40.6587   -6.6813  -10.9288 O   0  0  0  0  0  0  0  0  0  0  0  0
   41.5603  -10.7077   -4.5695 N   0  0  0  0  0  0  0  0  0  0  0  0
   39.3764   -5.8530   -9.2205 C   0  0  1  0  0  0  0  0  0  0  0  0
   40.2365   -4.6545   -9.1345 C   0  0  0  0  0  0  0  0  0  0  0  0
   39.3111   -3.4800   -9.3296 C   0  0  0  0  0  0  0  0  0  0  0  0
   39.8487   -2.4703  -10.2567 O   0  0  0  0  0  0  0  0  0  0  0  0
   40.9484   -2.4968  -10.8352 C   0  0  0  0  0  0  0  0  0  0  0  0
   40.7602   -4.6122   -7.7518 O   0  0  0  0  0  0  0  0  0  0  0  0
   41.9540   -4.0000   -7.3877 O   0  0  0  0  0  0  0  0  0  0  0  0
   39.0007   -1.3646  -10.4944 O   0  0  0  0  0  0  0  0  0  0  0  0
  2  1  1  6
  3  2  1  0
  4  2  1  0
  4  5  1  1
  6  4  1  0
  6  7  2  0
  9  8  1  0
 10  9  2  0
 11  9  1  0
 12 13  1  0
 12 11  1  0
 13 14  1  0
 15 14  1  6
 15 16  1  0
 16  6  1  0
 17 15  1  0
 18 17  2  0
 19 17  1  0
 20 24  1  0
 20 19  1  0
 20 21  1  1
 22 21  1  0
 23 22  2  0
 24 25  1  0
 26 22  1  0
 27 24  2  0
M  END
$$$$
