VRD.pdb
     RDKit          3D

 27 26  0  0  1  0  0  0  0  0999 V2000
   26.0476  -21.1703  -17.2673 C   0  0  0  0  0  0  0  0  0  0  0  0
   26.6269  -22.5909  -17.2859 C   0  0  1  0  0  0  0  0  0  0  0  0
   27.8029  -22.6830  -18.2073 C   0  0  0  0  0  0  0  0  0  0  0  0
   26.9613  -22.9339  -15.8586 C   0  0  2  0  0  0  0  0  0  0  0  0
   27.4079  -24.3092  -15.7794 N   0  0  0  0  0  0  0  0  0  0  0  0
   25.8488  -22.7374  -14.9295 C   0  0  0  0  0  0  0  0  0  0  0  0
   24.8727  -23.5380  -14.9568 O   0  0  0  0  0  0  0  0  0  0  0  0
   23.5713  -21.8040   -7.2450 N   0  0  0  0  0  0  0  0  0  0  0  0
   22.6552  -20.8565   -7.7737 C   0  0  0  0  0  0  0  0  0  0  0  0
   21.6123  -20.5639   -7.1062 N   0  0  0  0  0  0  0  0  0  0  0  0
   22.9303  -20.2569   -9.0423 N   0  0  0  0  0  0  0  0  0  0  0  0
   23.9877  -20.7663   -9.8822 C   0  0  0  0  0  0  0  0  0  0  0  0
   24.0957  -19.9269  -11.1640 C   0  0  0  0  0  0  0  0  0  0  0  0
   25.1085  -20.5743  -12.0266 C   0  0  0  0  0  0  0  0  0  0  0  0
   24.5813  -21.4779  -13.1153 C   0  0  2  0  0  0  0  0  0  0  0  0
   25.7622  -21.7048  -13.9762 N   0  0  0  0  0  0  0  0  0  0  0  0
   23.4695  -20.9359  -13.8970 C   0  0  0  0  0  0  0  0  0  0  0  0
   23.6723  -19.8487  -14.5270 O   0  0  0  0  0  0  0  0  0  0  0  0
   20.9086  -19.9076   -7.5029 N   0  0  0  0  0  0  0  0  0  0  0  0
   22.1857  -21.5162  -14.0192 C   0  0  2  0  0  0  0  0  0  0  0  0
   21.1292  -20.8308  -14.7923 C   0  0  0  0  0  0  0  0  0  0  0  0
   20.2418  -21.9288  -15.3226 C   0  0  0  0  0  0  0  0  0  0  0  0
   19.0908  -21.4209  -16.0876 O   0  0  0  0  0  0  0  0  0  0  0  0
   18.8529  -20.2374  -16.3829 C   0  0  0  0  0  0  0  0  0  0  0  0
   20.3519  -20.0295  -13.8219 O   0  0  0  0  0  0  0  0  0  0  0  0
   19.7253  -18.8267  -14.1273 O   0  0  0  0  0  0  0  0  0  0  0  0
   18.1761  -22.4088  -16.5186 O   0  0  0  0  0  0  0  0  0  0  0  0
  2  1  1  1
  3  2  1  0
  4  2  1  0
  4  5  1  6
  6  4  1  0
  6  7  2  0
  9  8  1  0
 10  9  2  0
 11  9  1  0
 12 13  1  0
 12 11  1  0
 13 14  1  0
 15 14  1  1
 15 16  1  0
 16  6  1  0
 17 15  1  0
 18 17  2  0
 19 17  1  0
 20 24  1  0
 20 19  1  0
 20 21  1  1
 22 21  1  0
 23 22  2  0
 24 25  1  0
 26 22  1  0
 27 24  2  0
M  END
$$$$
