VRD.pdb
     RDKit          3D

 27 26  0  0  1  0  0  0  0  0999 V2000
   24.5726  -16.2048  -18.2140 C   0  0  0  0  0  0  0  0  0  0  0  0
   25.3160  -16.9657  -19.3197 C   0  0  1  0  0  0  0  0  0  0  0  0
   25.9422  -16.0219  -20.2982 C   0  0  0  0  0  0  0  0  0  0  0  0
   26.3149  -17.8548  -18.6281 C   0  0  2  0  0  0  0  0  0  0  0  0
   27.0390  -18.6324  -19.6121 N   0  0  0  0  0  0  0  0  0  0  0  0
   25.7174  -18.7606  -17.6473 C   0  0  0  0  0  0  0  0  0  0  0  0
   24.9312  -19.6664  -18.0419 O   0  0  0  0  0  0  0  0  0  0  0  0
   26.2538  -19.5565   -9.3996 N   0  0  0  0  0  0  0  0  0  0  0  0
   25.9583  -20.8535   -9.8965 C   0  0  0  0  0  0  0  0  0  0  0  0
   24.9556  -21.4823   -9.4295 N   0  0  0  0  0  0  0  0  0  0  0  0
   26.7961  -21.4175  -10.9088 N   0  0  0  0  0  0  0  0  0  0  0  0
   27.1354  -20.6587  -12.0887 C   0  0  0  0  0  0  0  0  0  0  0  0
   25.8922  -20.4689  -12.9707 C   0  0  0  0  0  0  0  0  0  0  0  0
   26.3328  -19.7832  -14.2056 C   0  0  0  0  0  0  0  0  0  0  0  0
   25.2935  -19.6219  -15.2887 C   0  0  2  0  0  0  0  0  0  0  0  0
   25.9448  -18.7149  -16.2585 N   0  0  0  0  0  0  0  0  0  0  0  0
   24.0101  -19.0725  -14.8502 C   0  0  0  0  0  0  0  0  0  0  0  0
   24.0195  -17.9157  -14.3195 O   0  0  0  0  0  0  0  0  0  0  0  0
   24.7437  -22.4446   -9.7645 N   0  0  0  0  0  0  0  0  0  0  0  0
   22.7545  -19.7125  -14.9673 C   0  0  2  0  0  0  0  0  0  0  0  0
   21.5279  -19.0384  -14.4933 C   0  0  0  0  0  0  0  0  0  0  0  0
   20.5914  -19.0288  -15.6752 C   0  0  0  0  0  0  0  0  0  0  0  0
   19.2645  -18.4768  -15.3548 O   0  0  0  0  0  0  0  0  0  0  0  0
   18.9141  -17.9442  -14.2880 C   0  0  0  0  0  0  0  0  0  0  0  0
   20.9494  -19.9078  -13.4457 O   0  0  0  0  0  0  0  0  0  0  0  0
   19.9767  -19.4983  -12.5409 O   0  0  0  0  0  0  0  0  0  0  0  0
   18.3084  -18.5780  -16.3911 O   0  0  0  0  0  0  0  0  0  0  0  0
  2  1  1  1
  3  2  1  0
  4  2  1  0
  4  5  1  6
  6  4  1  0
  6  7  2  0
  9  8  1  0
 10  9  2  0
 11  9  1  0
 12 13  1  0
 12 11  1  0
 13 14  1  0
 15 14  1  1
 15 16  1  0
 16  6  1  0
 17 15  1  0
 18 17  2  0
 19 17  1  0
 20 24  1  0
 20 19  1  0
 20 21  1  6
 22 21  1  0
 23 22  2  0
 24 25  1  0
 26 22  1  0
 27 24  2  0
M  END
$$$$
