VRD.pdb
     RDKit          3D

 27 26  0  0  1  0  0  0  0  0999 V2000
   23.0078  -22.2040  -18.2211 C   0  0  0  0  0  0  0  0  0  0  0  0
   24.2399  -22.9211  -17.6539 C   0  0  1  0  0  0  0  0  0  0  0  0
   25.3249  -23.0247  -18.6799 C   0  0  0  0  0  0  0  0  0  0  0  0
   24.6532  -22.1531  -16.4268 C   0  0  2  0  0  0  0  0  0  0  0  0
   25.8485  -22.7437  -15.8614 N   0  0  0  0  0  0  0  0  0  0  0  0
   23.6175  -22.0883  -15.3959 C   0  0  0  0  0  0  0  0  0  0  0  0
   23.4782  -23.0576  -14.5988 O   0  0  0  0  0  0  0  0  0  0  0  0
   25.6733  -21.4382  -11.7025 N   0  0  0  0  0  0  0  0  0  0  0  0
   25.0863  -20.9847  -10.4917 C   0  0  0  0  0  0  0  0  0  0  0  0
   25.8322  -20.7714   -9.4833 N   0  0  0  0  0  0  0  0  0  0  0  0
   23.6720  -20.7800  -10.4390 N   0  0  0  0  0  0  0  0  0  0  0  0
   22.8765  -20.8327  -11.6421 C   0  0  0  0  0  0  0  0  0  0  0  0
   22.9367  -19.4842  -12.3752 C   0  0  0  0  0  0  0  0  0  0  0  0
   21.9928  -19.5620  -13.5119 C   0  0  0  0  0  0  0  0  0  0  0  0
   21.7576  -20.9352  -14.0937 C   0  0  2  0  0  0  0  0  0  0  0  0
   22.7323  -21.0103  -15.2036 N   0  0  0  0  0  0  0  0  0  0  0  0
   20.4009  -21.1865  -14.5808 C   0  0  0  0  0  0  0  0  0  0  0  0
   20.0260  -20.5548  -15.6203 O   0  0  0  0  0  0  0  0  0  0  0  0
   25.4103  -20.4838   -8.5764 N   0  0  0  0  0  0  0  0  0  0  0  0
   19.4663  -22.0749  -14.0003 C   0  0  2  0  0  0  0  0  0  0  0  0
   18.1300  -22.2505  -14.6061 C   0  0  0  0  0  0  0  0  0  0  0  0
   17.4545  -23.3219  -13.7877 C   0  0  0  0  0  0  0  0  0  0  0  0
   16.1121  -23.6665  -14.2847 O   0  0  0  0  0  0  0  0  0  0  0  0
   15.0863  -23.8441  -13.6058 C   0  0  0  0  0  0  0  0  0  0  0  0
   17.4051  -20.9778  -14.3993 O   0  0  0  0  0  0  0  0  0  0  0  0
   17.6715  -20.0867  -13.3661 O   0  0  0  0  0  0  0  0  0  0  0  0
   16.0106  -23.8033  -15.6881 O   0  0  0  0  0  0  0  0  0  0  0  0
  2  1  1  6
  3  2  1  0
  4  2  1  0
  4  5  1  1
  6  4  1  0
  6  7  2  0
  9  8  1  0
 10  9  2  0
 11  9  1  0
 12 13  1  0
 12 11  1  0
 13 14  1  0
 15 14  1  6
 15 16  1  0
 16  6  1  0
 17 15  1  0
 18 17  2  0
 19 17  1  0
 20 24  1  0
 20 19  1  0
 20 21  1  6
 22 21  1  0
 23 22  2  0
 24 25  1  0
 26 22  1  0
 27 24  2  0
M  END
$$$$
