VRD.pdb
     RDKit          3D

 27 26  0  0  1  0  0  0  0  0999 V2000
   21.8898  -19.3171  -19.6236 C   0  0  0  0  0  0  0  0  0  0  0  0
   23.1243  -19.9619  -20.2672 C   0  0  1  0  0  0  0  0  0  0  0  0
   23.5414  -19.2204  -21.4987 C   0  0  0  0  0  0  0  0  0  0  0  0
   24.1902  -19.9970  -19.2045 C   0  0  2  0  0  0  0  0  0  0  0  0
   25.3597  -20.6860  -19.7092 N   0  0  0  0  0  0  0  0  0  0  0  0
   23.7599  -20.6329  -17.9594 C   0  0  0  0  0  0  0  0  0  0  0  0
   23.4953  -21.8675  -17.9561 O   0  0  0  0  0  0  0  0  0  0  0  0
   26.3431  -21.8660  -11.1831 N   0  0  0  0  0  0  0  0  0  0  0  0
   25.5275  -21.1416  -10.2739 C   0  0  0  0  0  0  0  0  0  0  0  0
   25.5460  -21.4541   -9.0407 N   0  0  0  0  0  0  0  0  0  0  0  0
   24.7077  -20.0801  -10.7696 N   0  0  0  0  0  0  0  0  0  0  0  0
   24.8170  -19.6466  -12.1420 C   0  0  0  0  0  0  0  0  0  0  0  0
   23.8608  -20.4569  -13.0300 C   0  0  0  0  0  0  0  0  0  0  0  0
   24.0278  -19.9646  -14.4152 C   0  0  0  0  0  0  0  0  0  0  0  0
   23.2029  -20.6549  -15.4748 C   0  0  2  0  0  0  0  0  0  0  0  0
   23.6083  -19.9748  -16.7240 N   0  0  0  0  0  0  0  0  0  0  0  0
   21.7533  -20.5762  -15.2916 C   0  0  0  0  0  0  0  0  0  0  0  0
   21.2068  -19.4353  -15.4319 O   0  0  0  0  0  0  0  0  0  0  0  0
   24.9266  -20.9557   -8.3690 N   0  0  0  0  0  0  0  0  0  0  0  0
   20.9008  -21.6593  -14.9755 C   0  0  2  0  0  0  0  0  0  0  0  0
   19.4509  -21.4380  -14.7955 C   0  0  0  0  0  0  0  0  0  0  0  0
   18.7917  -22.7284  -15.2131 C   0  0  0  0  0  0  0  0  0  0  0  0
   18.4894  -22.7818  -16.6531 O   0  0  0  0  0  0  0  0  0  0  0  0
   18.7011  -21.8923  -17.4949 C   0  0  0  0  0  0  0  0  0  0  0  0
   19.2321  -21.2495  -13.3448 O   0  0  0  0  0  0  0  0  0  0  0  0
   19.9650  -21.8938  -12.3547 O   0  0  0  0  0  0  0  0  0  0  0  0
   17.8956  -23.9859  -17.0955 O   0  0  0  0  0  0  0  0  0  0  0  0
  2  1  1  1
  3  2  1  0
  4  2  1  0
  4  5  1  6
  6  4  1  0
  6  7  2  0
  9  8  1  0
 10  9  2  0
 11  9  1  0
 12 13  1  0
 12 11  1  0
 13 14  1  0
 15 14  1  1
 15 16  1  0
 16  6  1  0
 17 15  1  0
 18 17  2  0
 19 17  1  0
 20 24  1  0
 20 19  1  0
 20 21  1  1
 22 21  1  0
 23 22  2  0
 24 25  1  0
 26 22  1  0
 27 24  2  0
M  END
$$$$
