VRD.pdb
     RDKit          3D

 27 26  0  0  1  0  0  0  0  0999 V2000
   18.7848   -9.6299  -20.3087 C   0  0  0  0  0  0  0  0  0  0  0  0
   18.2225  -10.9905  -19.8769 C   0  0  1  0  0  0  0  0  0  0  0  0
   17.2783  -11.5354  -20.9026 C   0  0  0  0  0  0  0  0  0  0  0  0
   19.4092  -11.8827  -19.6274 C   0  0  2  0  0  0  0  0  0  0  0  0
   18.9554  -13.1898  -19.1999 N   0  0  0  0  0  0  0  0  0  0  0  0
   20.3461  -11.3534  -18.6366 C   0  0  0  0  0  0  0  0  0  0  0  0
   20.1050  -11.5193  -17.4084 O   0  0  0  0  0  0  0  0  0  0  0  0
   28.8547  -11.5109  -18.9017 N   0  0  0  0  0  0  0  0  0  0  0  0
   28.7106  -10.4336  -17.9877 C   0  0  0  0  0  0  0  0  0  0  0  0
   29.7516   -9.8383  -17.5627 N   0  0  0  0  0  0  0  0  0  0  0  0
   27.3987  -10.0474  -17.5700 N   0  0  0  0  0  0  0  0  0  0  0  0
   26.2346  -10.4952  -18.2963 C   0  0  0  0  0  0  0  0  0  0  0  0
   24.9576   -9.9678  -17.6250 C   0  0  0  0  0  0  0  0  0  0  0  0
   23.8096  -10.4865  -18.4011 C   0  0  0  0  0  0  0  0  0  0  0  0
   22.4371  -10.0963  -17.9076 C   0  0  2  0  0  0  0  0  0  0  0  0
   21.5307  -10.6532  -18.9350 N   0  0  0  0  0  0  0  0  0  0  0  0
   22.2133   -8.6593  -17.7464 C   0  0  0  0  0  0  0  0  0  0  0  0
   22.2506   -7.9400  -18.7957 O   0  0  0  0  0  0  0  0  0  0  0  0
   29.6655   -9.0899  -16.8446 N   0  0  0  0  0  0  0  0  0  0  0  0
   21.9540   -7.9958  -16.5248 C   0  0  2  0  0  0  0  0  0  0  0  0
   21.6964   -6.5409  -16.5076 C   0  0  0  0  0  0  0  0  0  0  0  0
   20.7901   -6.3063  -15.3253 C   0  0  0  0  0  0  0  0  0  0  0  0
   20.4513   -4.8866  -15.1314 O   0  0  0  0  0  0  0  0  0  0  0  0
   20.8597   -3.9223  -15.8006 C   0  0  0  0  0  0  0  0  0  0  0  0
   22.9958   -5.8878  -16.2372 O   0  0  0  0  0  0  0  0  0  0  0  0
   24.1894   -6.5743  -16.0455 O   0  0  0  0  0  0  0  0  0  0  0  0
   19.5647   -4.6239  -14.0621 O   0  0  0  0  0  0  0  0  0  0  0  0
  2  1  1  6
  3  2  1  0
  4  2  1  0
  4  5  1  1
  6  4  1  0
  6  7  2  0
  9  8  1  0
 10  9  2  0
 11  9  1  0
 12 13  1  0
 12 11  1  0
 13 14  1  0
 15 14  1  6
 15 16  1  0
 16  6  1  0
 17 15  1  0
 18 17  2  0
 19 17  1  0
 20 24  1  0
 20 19  1  0
 20 21  1  1
 22 21  1  0
 23 22  2  0
 24 25  1  0
 26 22  1  0
 27 24  2  0
M  END
$$$$
