VRD.pdb
     RDKit          3D

 27 26  0  0  1  0  0  0  0  0999 V2000
   28.2284   -9.2724  -17.0449 C   0  0  0  0  0  0  0  0  0  0  0  0
   28.3667  -10.3421  -18.1361 C   0  0  1  0  0  0  0  0  0  0  0  0
   29.7784  -10.8286  -18.2402 C   0  0  0  0  0  0  0  0  0  0  0  0
   27.3861  -11.4315  -17.7922 C   0  0  2  0  0  0  0  0  0  0  0  0
   27.4787  -12.4970  -18.7686 N   0  0  0  0  0  0  0  0  0  0  0  0
   25.9994  -10.9726  -17.7142 C   0  0  0  0  0  0  0  0  0  0  0  0
   25.4333  -10.5380  -18.7559 O   0  0  0  0  0  0  0  0  0  0  0  0
   18.9920  -13.3184  -16.7337 N   0  0  0  0  0  0  0  0  0  0  0  0
   19.9453  -14.2863  -17.1471 C   0  0  0  0  0  0  0  0  0  0  0  0
   19.7618  -14.9086  -18.2415 N   0  0  0  0  0  0  0  0  0  0  0  0
   21.0860  -14.5350  -16.3215 N   0  0  0  0  0  0  0  0  0  0  0  0
   21.7017  -13.4630  -15.5765 C   0  0  0  0  0  0  0  0  0  0  0  0
   22.2936  -12.4224  -16.5389 C   0  0  0  0  0  0  0  0  0  0  0  0
   23.0707  -11.4640  -15.7224 C   0  0  0  0  0  0  0  0  0  0  0  0
   23.8436  -10.4116  -16.4806 C   0  0  2  0  0  0  0  0  0  0  0  0
   25.2113  -10.9704  -16.5474 N   0  0  0  0  0  0  0  0  0  0  0  0
   23.8587   -9.0822  -15.8695 C   0  0  0  0  0  0  0  0  0  0  0  0
   24.5964   -8.9173  -14.8454 O   0  0  0  0  0  0  0  0  0  0  0  0
   20.4513  -15.6223  -18.5554 N   0  0  0  0  0  0  0  0  0  0  0  0
   23.1275   -7.9583  -16.3189 C   0  0  2  0  0  0  0  0  0  0  0  0
   23.3050   -6.6446  -15.6660 C   0  0  0  0  0  0  0  0  0  0  0  0
   23.0903   -5.6222  -16.7534 C   0  0  0  0  0  0  0  0  0  0  0  0
   23.1828   -4.2355  -16.2672 O   0  0  0  0  0  0  0  0  0  0  0  0
   23.5676   -3.8602  -15.1466 C   0  0  0  0  0  0  0  0  0  0  0  0
   22.2102   -6.5149  -14.6798 O   0  0  0  0  0  0  0  0  0  0  0  0
   22.2217   -5.6229  -13.6135 O   0  0  0  0  0  0  0  0  0  0  0  0
   22.7845   -3.2478  -17.1968 O   0  0  0  0  0  0  0  0  0  0  0  0
  2  1  1  1
  3  2  1  0
  4  2  1  0
  4  5  1  6
  6  4  1  0
  6  7  2  0
  9  8  1  0
 10  9  2  0
 11  9  1  0
 12 13  1  0
 12 11  1  0
 13 14  1  0
 15 14  1  1
 15 16  1  0
 16  6  1  0
 17 15  1  0
 18 17  2  0
 19 17  1  0
 20 24  1  0
 20 19  1  0
 20 21  1  6
 22 21  1  0
 23 22  2  0
 24 25  1  0
 26 22  1  0
 27 24  2  0
M  END
$$$$
