VRD.pdb
     RDKit          3D

 27 26  0  0  1  0  0  0  0  0999 V2000
   21.9459  -14.5900  -17.9364 C   0  0  0  0  0  0  0  0  0  0  0  0
   21.5171  -15.9388  -17.3441 C   0  0  1  0  0  0  0  0  0  0  0  0
   20.5296  -16.6295  -18.2319 C   0  0  0  0  0  0  0  0  0  0  0  0
   22.7792  -16.7309  -17.1291 C   0  0  2  0  0  0  0  0  0  0  0  0
   23.4659  -16.9066  -18.3920 N   0  0  0  0  0  0  0  0  0  0  0  0
   22.5555  -18.0415  -16.5193 C   0  0  0  0  0  0  0  0  0  0  0  0
   22.2554  -19.0221  -17.2559 O   0  0  0  0  0  0  0  0  0  0  0  0
   27.6630  -21.5653  -11.3705 N   0  0  0  0  0  0  0  0  0  0  0  0
   27.3376  -21.6386  -12.7508 C   0  0  0  0  0  0  0  0  0  0  0  0
   28.2588  -21.8888  -13.5920 N   0  0  0  0  0  0  0  0  0  0  0  0
   25.9828  -21.4293  -13.1575 N   0  0  0  0  0  0  0  0  0  0  0  0
   24.9423  -21.2367  -12.1760 C   0  0  0  0  0  0  0  0  0  0  0  0
   23.5755  -21.1293  -12.8688 C   0  0  0  0  0  0  0  0  0  0  0  0
   23.6051  -19.9109  -13.7077 C   0  0  0  0  0  0  0  0  0  0  0  0
   22.3820  -19.6512  -14.5539 C   0  0  2  0  0  0  0  0  0  0  0  0
   22.6467  -18.3203  -15.1422 N   0  0  0  0  0  0  0  0  0  0  0  0
   21.1085  -19.6526  -13.8333 C   0  0  0  0  0  0  0  0  0  0  0  0
   20.9369  -18.7557  -12.9466 O   0  0  0  0  0  0  0  0  0  0  0  0
   28.0316  -21.9610  -14.6051 N   0  0  0  0  0  0  0  0  0  0  0  0
   20.0452  -20.5623  -14.0372 C   0  0  2  0  0  0  0  0  0  0  0  0
   18.7779  -20.4055  -13.2936 C   0  0  0  0  0  0  0  0  0  0  0  0
   17.6866  -20.7085  -14.2892 C   0  0  0  0  0  0  0  0  0  0  0  0
   16.3391  -20.6704  -13.6970 O   0  0  0  0  0  0  0  0  0  0  0  0
   16.0410  -20.3350  -12.5381 C   0  0  0  0  0  0  0  0  0  0  0  0
   18.7680  -21.4583  -12.2546 O   0  0  0  0  0  0  0  0  0  0  0  0
   18.0863  -21.3571  -11.0473 O   0  0  0  0  0  0  0  0  0  0  0  0
   15.2935  -21.0628  -14.5637 O   0  0  0  0  0  0  0  0  0  0  0  0
  2  1  1  6
  3  2  1  0
  4  2  1  0
  4  5  1  6
  6  4  1  0
  6  7  2  0
  9  8  1  0
 10  9  2  0
 11  9  1  0
 12 13  1  0
 12 11  1  0
 13 14  1  0
 15 14  1  1
 15 16  1  0
 16  6  1  0
 17 15  1  0
 18 17  2  0
 19 17  1  0
 20 24  1  0
 20 19  1  0
 20 21  1  6
 22 21  1  0
 23 22  2  0
 24 25  1  0
 26 22  1  0
 27 24  2  0
M  END
$$$$
