DVL.pdb
     RDKit          3D

 24 23  0  0  1  0  0  0  0  0999 V2000
   15.9459  -20.0425    1.1887 N   0  0  0  0  0  0  0  0  0  0  0  0
   15.5519  -19.4957    2.4419 C   0  0  1  0  0  0  0  0  0  0  0  0
   15.0371  -20.5224    3.4137 C   0  0  0  0  0  0  0  0  0  0  0  0
   13.8812  -21.2545    2.8353 C   0  0  0  0  0  0  0  0  0  0  0  0
   13.1760  -20.7016    1.9479 O   0  0  0  0  0  0  0  0  0  0  0  0
   16.6513  -18.6611    3.0150 C   0  0  0  0  0  0  0  0  0  0  0  0
   17.8477  -19.0158    2.7539 O   0  0  0  0  0  0  0  0  0  0  0  0
   13.5355  -22.5299    3.2272 O   0  0  0  0  0  0  0  0  0  0  0  0
   18.2438  -14.3183    4.6458 C   0  0  0  0  0  0  0  0  0  0  0  0
   17.2027  -15.2040    3.9683 C   0  0  1  0  0  0  0  0  0  0  0  0
   17.3202  -14.9704    2.4806 C   0  0  0  0  0  0  0  0  0  0  0  0
   17.3747  -16.6239    4.3634 C   0  0  2  0  0  0  0  0  0  0  0  0
   16.4058  -17.5182    3.8191 N   0  0  0  0  0  0  0  0  0  0  0  0
   17.7049  -16.8511    5.7990 C   0  0  0  0  0  0  0  0  0  0  0  0
   16.7941  -16.9125    6.6522 O   0  0  0  0  0  0  0  0  0  0  0  0
   22.0240  -19.9266    7.8718 C   0  0  0  0  0  0  0  0  0  0  0  0
   20.5461  -19.4831    7.5972 C   0  0  1  0  0  0  0  0  0  0  0  0
   19.7398  -20.3501    8.5048 C   0  0  0  0  0  0  0  0  0  0  0  0
   20.5503  -18.0361    7.8414 C   0  0  0  0  0  0  0  0  0  0  0  0
   19.3457  -17.2098    7.7055 C   0  0  2  0  0  0  0  0  0  0  0  0
   19.0332  -17.0058    6.2625 N   0  0  0  0  0  0  0  0  0  0  0  0
   19.3186  -15.9258    8.3964 C   0  0  0  0  0  0  0  0  0  0  0  0
   19.0424  -15.9066    9.7779 O   0  0  0  0  0  0  0  0  0  0  0  0
   19.5179  -14.8184    7.8852 O   0  0  0  0  0  0  0  0  0  0  0  0
  2  1  1  6
  2  6  1  0
  2  3  1  0
  3  4  1  0
  4  8  1  0
  4  5  2  0
  6 13  1  0
  6  7  2  0
 10  9  1  1
 10 11  1  0
 12 10  1  0
 12 13  1  1
 14 15  2  0
 14 12  1  0
 17 16  1  1
 17 19  1  0
 18 17  1  0
 20 19  1  6
 20 21  1  0
 21 14  1  0
 22 20  1  0
 23 22  1  0
 24 22  2  0
M  END
$$$$
