DVL.pdb
     RDKit          3D

 24 23  0  0  1  0  0  0  0  0999 V2000
   22.2950  -20.7036  -18.0691 N   0  0  0  0  0  0  0  0  0  0  0  0
   22.4966  -19.7774  -17.0079 C   0  0  1  0  0  0  0  0  0  0  0  0
   21.2786  -19.5677  -16.1498 C   0  0  0  0  0  0  0  0  0  0  0  0
   20.3507  -18.5998  -16.7890 C   0  0  0  0  0  0  0  0  0  0  0  0
   20.6292  -18.1288  -17.9253 O   0  0  0  0  0  0  0  0  0  0  0  0
   23.7042  -20.1524  -16.2113 C   0  0  0  0  0  0  0  0  0  0  0  0
   23.8851  -21.3926  -15.9778 O   0  0  0  0  0  0  0  0  0  0  0  0
   19.1804  -18.1838  -16.1914 O   0  0  0  0  0  0  0  0  0  0  0  0
   28.1536  -19.2275  -14.3643 C   0  0  0  0  0  0  0  0  0  0  0  0
   27.0022  -18.7887  -15.2637 C   0  0  1  0  0  0  0  0  0  0  0  0
   27.4015  -19.1079  -16.6852 C   0  0  0  0  0  0  0  0  0  0  0  0
   25.7288  -19.4256  -14.8458 C   0  0  2  0  0  0  0  0  0  0  0  0
   24.6274  -19.1926  -15.7218 N   0  0  0  0  0  0  0  0  0  0  0  0
   25.4108  -19.3228  -13.3932 C   0  0  0  0  0  0  0  0  0  0  0  0
   24.6101  -18.4552  -12.9841 O   0  0  0  0  0  0  0  0  0  0  0  0
   21.8324  -21.2039  -10.2224 C   0  0  0  0  0  0  0  0  0  0  0  0
   22.7996  -20.0927  -10.7575 C   0  0  1  0  0  0  0  0  0  0  0  0
   23.0458  -19.2307   -9.5651 C   0  0  0  0  0  0  0  0  0  0  0  0
   23.9311  -20.8377  -11.3217 C   0  0  0  0  0  0  0  0  0  0  0  0
   25.3255  -20.4338  -11.1099 C   0  0  2  0  0  0  0  0  0  0  0  0
   25.9830  -20.1800  -12.4232 N   0  0  0  0  0  0  0  0  0  0  0  0
   26.1715  -21.3038  -10.3011 C   0  0  0  0  0  0  0  0  0  0  0  0
   26.7688  -22.4244  -10.9115 O   0  0  0  0  0  0  0  0  0  0  0  0
   26.4289  -21.1598   -9.1010 O   0  0  0  0  0  0  0  0  0  0  0  0
  2  1  1  6
  2  6  1  0
  2  3  1  0
  3  4  1  0
  4  8  1  0
  4  5  2  0
  6 13  1  0
  6  7  2  0
 10  9  1  1
 10 11  1  0
 12 10  1  0
 12 13  1  6
 14 15  2  0
 14 12  1  0
 17 16  1  1
 17 19  1  0
 18 17  1  0
 20 19  1  6
 20 21  1  0
 21 14  1  0
 22 20  1  0
 23 22  1  0
 24 22  2  0
M  END
$$$$
