DVL.pdb
     RDKit          3D

 24 23  0  0  1  0  0  0  0  0999 V2000
   17.0494  -11.1951  -16.6738 N   0  0  0  0  0  0  0  0  0  0  0  0
   18.0533  -10.3747  -17.2601 C   0  0  1  0  0  0  0  0  0  0  0  0
   17.5104   -9.1424  -17.9312 C   0  0  0  0  0  0  0  0  0  0  0  0
   16.5752   -9.5129  -19.0242 C   0  0  0  0  0  0  0  0  0  0  0  0
   16.7977  -10.5486  -19.7086 O   0  0  0  0  0  0  0  0  0  0  0  0
   19.1207  -10.0633  -16.2614 C   0  0  0  0  0  0  0  0  0  0  0  0
   18.7422   -9.7132  -15.0954 O   0  0  0  0  0  0  0  0  0  0  0  0
   15.4573   -8.7681  -19.3326 O   0  0  0  0  0  0  0  0  0  0  0  0
   23.8238  -10.1638  -14.7602 C   0  0  0  0  0  0  0  0  0  0  0  0
   22.7616  -10.6360  -15.7482 C   0  0  1  0  0  0  0  0  0  0  0  0
   22.4160  -12.0604  -15.3828 C   0  0  0  0  0  0  0  0  0  0  0  0
   21.5931   -9.7215  -15.7498 C   0  0  2  0  0  0  0  0  0  0  0  0
   20.5036  -10.1440  -16.5679 N   0  0  0  0  0  0  0  0  0  0  0  0
   21.9194   -8.2697  -15.8360 C   0  0  0  0  0  0  0  0  0  0  0  0
   22.1609   -7.7436  -16.9434 O   0  0  0  0  0  0  0  0  0  0  0  0
   22.0521   -3.7629  -17.1247 C   0  0  0  0  0  0  0  0  0  0  0  0
   20.9843   -3.9757  -15.9974 C   0  0  1  0  0  0  0  0  0  0  0  0
   19.7194   -3.4693  -16.6050 C   0  0  0  0  0  0  0  0  0  0  0  0
   21.0768   -5.4043  -15.6751 C   0  0  0  0  0  0  0  0  0  0  0  0
   22.1327   -5.9523  -14.8165 C   0  0  2  0  0  0  0  0  0  0  0  0
   21.9720   -7.4294  -14.6983 N   0  0  0  0  0  0  0  0  0  0  0  0
   22.3009   -5.3724  -13.4889 C   0  0  0  0  0  0  0  0  0  0  0  0
   22.9220   -4.1130  -13.3745 O   0  0  0  0  0  0  0  0  0  0  0  0
   21.9464   -5.8824  -12.4204 O   0  0  0  0  0  0  0  0  0  0  0  0
  2  1  1  1
  2  6  1  0
  2  3  1  0
  3  4  1  0
  4  8  1  0
  4  5  2  0
  6 13  1  0
  6  7  2  0
 10  9  1  1
 10 11  1  0
 12 10  1  0
 12 13  1  6
 14 15  2  0
 14 12  1  0
 17 16  1  6
 17 19  1  0
 18 17  1  0
 20 19  1  1
 20 21  1  0
 21 14  1  0
 22 20  1  0
 23 22  1  0
 24 22  2  0
M  END
$$$$
