DVL.pdb
     RDKit          3D

 24 23  0  0  1  0  0  0  0  0999 V2000
   21.4237  -19.7141  -17.1319 N   0  0  0  0  0  0  0  0  0  0  0  0
   22.0109  -18.9962  -16.0528 C   0  0  1  0  0  0  0  0  0  0  0  0
   21.1604  -18.9684  -14.8120 C   0  0  0  0  0  0  0  0  0  0  0  0
   19.8909  -18.2401  -15.0662 C   0  0  0  0  0  0  0  0  0  0  0  0
   19.6470  -17.8006  -16.2228 O   0  0  0  0  0  0  0  0  0  0  0  0
   23.3962  -19.4917  -15.7900 C   0  0  0  0  0  0  0  0  0  0  0  0
   23.5562  -20.7535  -15.7035 O   0  0  0  0  0  0  0  0  0  0  0  0
   18.9504  -18.0171  -14.0836 O   0  0  0  0  0  0  0  0  0  0  0  0
   28.2812  -18.7081  -15.4860 C   0  0  0  0  0  0  0  0  0  0  0  0
   26.9052  -18.1726  -15.8697 C   0  0  1  0  0  0  0  0  0  0  0  0
   26.8391  -18.1565  -17.3788 C   0  0  0  0  0  0  0  0  0  0  0  0
   25.8280  -18.9717  -15.2350 C   0  0  2  0  0  0  0  0  0  0  0  0
   24.5055  -18.6202  -15.6380 N   0  0  0  0  0  0  0  0  0  0  0  0
   25.9957  -19.2232  -13.7755 C   0  0  0  0  0  0  0  0  0  0  0  0
   26.0429  -18.2663  -12.9733 O   0  0  0  0  0  0  0  0  0  0  0  0
   23.3389  -20.6173   -9.4723 C   0  0  0  0  0  0  0  0  0  0  0  0
   24.8306  -20.1702   -9.6498 C   0  0  1  0  0  0  0  0  0  0  0  0
   25.5999  -21.1760   -8.8611 C   0  0  0  0  0  0  0  0  0  0  0  0
   25.0266  -20.1300  -11.1036 C   0  0  0  0  0  0  0  0  0  0  0  0
   26.1745  -20.7629  -11.7624 C   0  0  2  0  0  0  0  0  0  0  0  0
   26.1075  -20.5253  -13.2323 N   0  0  0  0  0  0  0  0  0  0  0  0
   26.4106  -22.1794  -11.5077 C   0  0  0  0  0  0  0  0  0  0  0  0
   25.7385  -23.1305  -12.3006 O   0  0  0  0  0  0  0  0  0  0  0  0
   27.1596  -22.6499  -10.6447 O   0  0  0  0  0  0  0  0  0  0  0  0
  2  1  1  6
  2  6  1  0
  2  3  1  0
  3  4  1  0
  4  8  1  0
  4  5  2  0
  6 13  1  0
  6  7  2  0
 10  9  1  6
 10 11  1  0
 12 10  1  0
 12 13  1  1
 14 15  2  0
 14 12  1  0
 17 16  1  6
 17 19  1  0
 18 17  1  0
 20 19  1  1
 20 21  1  0
 21 14  1  0
 22 20  1  0
 23 22  1  0
 24 22  2  0
M  END
$$$$
