DVL.pdb
     RDKit          3D

 24 23  0  0  1  0  0  0  0  0999 V2000
   18.4635  -11.7498  -17.3208 N   0  0  0  0  0  0  0  0  0  0  0  0
   18.0253  -11.3684  -16.0218 C   0  0  1  0  0  0  0  0  0  0  0  0
   17.4482  -12.5042  -15.2214 C   0  0  0  0  0  0  0  0  0  0  0  0
   16.2269  -13.0371  -15.8780 C   0  0  0  0  0  0  0  0  0  0  0  0
   15.8455  -12.5450  -16.9748 O   0  0  0  0  0  0  0  0  0  0  0  0
   19.1144  -10.6474  -15.2953 C   0  0  0  0  0  0  0  0  0  0  0  0
   18.8681  -10.2714  -14.1023 O   0  0  0  0  0  0  0  0  0  0  0  0
   15.4771  -14.0601  -15.3386 O   0  0  0  0  0  0  0  0  0  0  0  0
   23.8949   -9.5685  -14.7502 C   0  0  0  0  0  0  0  0  0  0  0  0
   22.7902  -10.3615  -15.4415 C   0  0  1  0  0  0  0  0  0  0  0  0
   22.8280  -11.7621  -14.8770 C   0  0  0  0  0  0  0  0  0  0  0  0
   21.4759   -9.6911  -15.2831 C   0  0  2  0  0  0  0  0  0  0  0  0
   20.3779  -10.3775  -15.8815 N   0  0  0  0  0  0  0  0  0  0  0  0
   21.4838   -8.2149  -15.4898 C   0  0  0  0  0  0  0  0  0  0  0  0
   21.4121   -7.7406  -16.6436 O   0  0  0  0  0  0  0  0  0  0  0  0
   20.1347   -3.8586  -16.7957 C   0  0  0  0  0  0  0  0  0  0  0  0
   19.8081   -4.0137  -15.2707 C   0  0  1  0  0  0  0  0  0  0  0  0
   18.3760   -3.6080  -15.1703 C   0  0  0  0  0  0  0  0  0  0  0  0
   20.1589   -5.4054  -14.9644 C   0  0  0  0  0  0  0  0  0  0  0  0
   21.5283   -5.8206  -14.6410 C   0  0  2  0  0  0  0  0  0  0  0  0
   21.5703   -7.2938  -14.4187 N   0  0  0  0  0  0  0  0  0  0  0  0
   22.2044   -5.1421  -13.5413 C   0  0  0  0  0  0  0  0  0  0  0  0
   22.7194   -3.8488  -13.7587 O   0  0  0  0  0  0  0  0  0  0  0  0
   22.3797   -5.5931  -12.4041 O   0  0  0  0  0  0  0  0  0  0  0  0
  2  1  1  6
  2  6  1  0
  2  3  1  0
  3  4  1  0
  4  8  1  0
  4  5  2  0
  6 13  1  0
  6  7  2  0
 10  9  1  1
 10 11  1  0
 12 10  1  0
 12 13  1  6
 14 15  2  0
 14 12  1  0
 17 16  1  6
 17 19  1  0
 18 17  1  0
 20 19  1  1
 20 21  1  0
 21 14  1  0
 22 20  1  0
 23 22  1  0
 24 22  2  0
M  END
$$$$
