DVL.pdb
     RDKit          3D

 24 23  0  0  1  0  0  0  0  0999 V2000
   15.7488  -13.7272  -17.0748 N   0  0  0  0  0  0  0  0  0  0  0  0
   15.7735  -12.4976  -16.3592 C   0  0  1  0  0  0  0  0  0  0  0  0
   15.7202  -12.6671  -14.8652 C   0  0  0  0  0  0  0  0  0  0  0  0
   14.4973  -13.4109  -14.4679 C   0  0  0  0  0  0  0  0  0  0  0  0
   13.3642  -12.9662  -14.7982 O   0  0  0  0  0  0  0  0  0  0  0  0
   16.9289  -11.6597  -16.8026 C   0  0  0  0  0  0  0  0  0  0  0  0
   17.9194  -12.2662  -17.3283 O   0  0  0  0  0  0  0  0  0  0  0  0
   14.5403  -14.5829  -13.7440 O   0  0  0  0  0  0  0  0  0  0  0  0
   17.2801   -9.4488  -19.4549 C   0  0  0  0  0  0  0  0  0  0  0  0
   17.6556   -8.5505  -18.2805 C   0  0  1  0  0  0  0  0  0  0  0  0
   16.5099   -7.5884  -18.0721 C   0  0  0  0  0  0  0  0  0  0  0  0
   17.9825   -9.3563  -17.0782 C   0  0  2  0  0  0  0  0  0  0  0  0
   16.9521  -10.2486  -16.6574 N   0  0  0  0  0  0  0  0  0  0  0  0
   18.6610   -8.6142  -15.9780 C   0  0  0  0  0  0  0  0  0  0  0  0
   17.9864   -8.0344  -15.1005 O   0  0  0  0  0  0  0  0  0  0  0  0
   23.2627  -10.1828  -13.2121 C   0  0  0  0  0  0  0  0  0  0  0  0
   21.7840   -9.7053  -13.4166 C   0  0  1  0  0  0  0  0  0  0  0  0
   21.2780   -9.5091  -12.0269 C   0  0  0  0  0  0  0  0  0  0  0  0
   21.8998   -8.5290  -14.2863 C   0  0  0  0  0  0  0  0  0  0  0  0
   20.7303   -7.7814  -14.7615 C   0  0  2  0  0  0  0  0  0  0  0  0
   20.0695   -8.5280  -15.8694 N   0  0  0  0  0  0  0  0  0  0  0  0
   20.9251   -6.3916  -15.1583 C   0  0  0  0  0  0  0  0  0  0  0  0
   21.0051   -6.0849  -16.5311 O   0  0  0  0  0  0  0  0  0  0  0  0
   21.0310   -5.4241  -14.3968 O   0  0  0  0  0  0  0  0  0  0  0  0
  2  1  1  6
  2  6  1  0
  2  3  1  0
  3  4  1  0
  4  8  1  0
  4  5  2  0
  6 13  1  0
  6  7  2  0
 10  9  1  6
 10 11  1  0
 12 10  1  0
 12 13  1  1
 14 15  2  0
 14 12  1  0
 17 16  1  1
 17 19  1  0
 18 17  1  0
 20 19  1  6
 20 21  1  0
 21 14  1  0
 22 20  1  0
 23 22  1  0
 24 22  2  0
M  END
$$$$
