DVL.pdb
     RDKit          3D

 24 23  0  0  1  0  0  0  0  0999 V2000
   15.5159  -13.7844  -17.8711 N   0  0  0  0  0  0  0  0  0  0  0  0
   15.7012  -12.7716  -16.8889 C   0  0  1  0  0  0  0  0  0  0  0  0
   16.0092  -13.3091  -15.5178 C   0  0  0  0  0  0  0  0  0  0  0  0
   14.9303  -14.2225  -15.0613 C   0  0  0  0  0  0  0  0  0  0  0  0
   15.2143  -15.1921  -14.3065 O   0  0  0  0  0  0  0  0  0  0  0  0
   16.7096  -11.7719  -17.3551 C   0  0  0  0  0  0  0  0  0  0  0  0
   17.6683  -12.2050  -18.0754 O   0  0  0  0  0  0  0  0  0  0  0  0
   13.6117  -14.0599  -15.4281 O   0  0  0  0  0  0  0  0  0  0  0  0
   18.0597   -7.1165  -18.2541 C   0  0  0  0  0  0  0  0  0  0  0  0
   17.0041   -8.1998  -18.0552 C   0  0  1  0  0  0  0  0  0  0  0  0
   16.4375   -8.5242  -19.4174 C   0  0  0  0  0  0  0  0  0  0  0  0
   17.5748   -9.3754  -17.3524 C   0  0  2  0  0  0  0  0  0  0  0  0
   16.6310  -10.3940  -17.0262 N   0  0  0  0  0  0  0  0  0  0  0  0
   18.5583   -9.0607  -16.2776 C   0  0  0  0  0  0  0  0  0  0  0  0
   18.1847   -8.4917  -15.2297 O   0  0  0  0  0  0  0  0  0  0  0  0
   22.7161  -10.2980  -13.1197 C   0  0  0  0  0  0  0  0  0  0  0  0
   23.2318   -9.7369  -14.4892 C   0  0  1  0  0  0  0  0  0  0  0  0
   24.4549  -10.5447  -14.7670 C   0  0  0  0  0  0  0  0  0  0  0  0
   22.0853   -9.8787  -15.3941 C   0  0  0  0  0  0  0  0  0  0  0  0
   20.9134   -8.9987  -15.3262 C   0  0  2  0  0  0  0  0  0  0  0  0
   19.9330   -9.3807  -16.3819 N   0  0  0  0  0  0  0  0  0  0  0  0
   21.1393   -7.5586  -15.3687 C   0  0  0  0  0  0  0  0  0  0  0  0
   21.0958   -6.8311  -14.1629 O   0  0  0  0  0  0  0  0  0  0  0  0
   21.3720   -6.8866  -16.3795 O   0  0  0  0  0  0  0  0  0  0  0  0
  2  1  1  6
  2  6  1  0
  2  3  1  0
  3  4  1  0
  4  8  1  0
  4  5  2  0
  6 13  1  0
  6  7  2  0
 10  9  1  6
 10 11  1  0
 12 10  1  0
 12 13  1  1
 14 15  2  0
 14 12  1  0
 17 16  1  1
 17 19  1  0
 18 17  1  0
 20 19  1  6
 20 21  1  0
 21 14  1  0
 22 20  1  0
 23 22  1  0
 24 22  2  0
M  END
$$$$
