DVL.pdb
     RDKit          3D

 24 23  0  0  1  0  0  0  0  0999 V2000
   15.9462  -14.1208  -17.8208 N   0  0  0  0  0  0  0  0  0  0  0  0
   15.9535  -13.1427  -16.7873 C   0  0  1  0  0  0  0  0  0  0  0  0
   16.2862  -13.7005  -15.4302 C   0  0  0  0  0  0  0  0  0  0  0  0
   15.2795  -14.7135  -15.0216 C   0  0  0  0  0  0  0  0  0  0  0  0
   14.1851  -14.7887  -15.6438 O   0  0  0  0  0  0  0  0  0  0  0  0
   16.8272  -11.9909  -17.1662 C   0  0  0  0  0  0  0  0  0  0  0  0
   17.9136  -12.2607  -17.7763 O   0  0  0  0  0  0  0  0  0  0  0  0
   15.4859  -15.5903  -13.9783 O   0  0  0  0  0  0  0  0  0  0  0  0
   17.3987   -7.1347  -17.9471 C   0  0  0  0  0  0  0  0  0  0  0  0
   16.5058   -8.3566  -17.7551 C   0  0  1  0  0  0  0  0  0  0  0  0
   15.9027   -8.6830  -19.1011 C   0  0  0  0  0  0  0  0  0  0  0  0
   17.2654   -9.4810  -17.1547 C   0  0  2  0  0  0  0  0  0  0  0  0
   16.4897  -10.6444  -16.8728 N   0  0  0  0  0  0  0  0  0  0  0  0
   18.2366   -9.0986  -16.0906 C   0  0  0  0  0  0  0  0  0  0  0  0
   17.8279   -8.7238  -14.9708 O   0  0  0  0  0  0  0  0  0  0  0  0
   22.2611   -9.8683  -12.8216 C   0  0  0  0  0  0  0  0  0  0  0  0
   22.8372   -9.4820  -14.2270 C   0  0  1  0  0  0  0  0  0  0  0  0
   24.0237  -10.3729  -14.3825 C   0  0  0  0  0  0  0  0  0  0  0  0
   21.7068   -9.6639  -15.1449 C   0  0  0  0  0  0  0  0  0  0  0  0
   20.5931   -8.7121  -15.2229 C   0  0  2  0  0  0  0  0  0  0  0  0
   19.6379   -9.1381  -16.2849 N   0  0  0  0  0  0  0  0  0  0  0  0
   20.9144   -7.2999  -15.3940 C   0  0  0  0  0  0  0  0  0  0  0  0
   21.0522   -6.4937  -14.2468 O   0  0  0  0  0  0  0  0  0  0  0  0
   21.0840   -6.7160  -16.4699 O   0  0  0  0  0  0  0  0  0  0  0  0
  2  1  1  6
  2  6  1  0
  2  3  1  0
  3  4  1  0
  4  8  1  0
  4  5  2  0
  6 13  1  0
  6  7  2  0
 10  9  1  6
 10 11  1  0
 12 10  1  0
 12 13  1  1
 14 15  2  0
 14 12  1  0
 17 16  1  1
 17 19  1  0
 18 17  1  0
 20 19  1  6
 20 21  1  0
 21 14  1  0
 22 20  1  0
 23 22  1  0
 24 22  2  0
M  END
$$$$
