DVL.pdb
     RDKit          3D

 24 23  0  0  1  0  0  0  0  0999 V2000
   23.1101  -15.4787  -17.7061 N   0  0  0  0  0  0  0  0  0  0  0  0
   23.6375  -14.3039  -18.3116 C   0  0  1  0  0  0  0  0  0  0  0  0
   22.8580  -13.8414  -19.5125 C   0  0  0  0  0  0  0  0  0  0  0  0
   22.8643  -14.8833  -20.5712 C   0  0  0  0  0  0  0  0  0  0  0  0
   23.4134  -15.9960  -20.3454 O   0  0  0  0  0  0  0  0  0  0  0  0
   23.8155  -13.2267  -17.2910 C   0  0  0  0  0  0  0  0  0  0  0  0
   22.9987  -13.2118  -16.3122 O   0  0  0  0  0  0  0  0  0  0  0  0
   22.2901  -14.6908  -21.8093 O   0  0  0  0  0  0  0  0  0  0  0  0
   26.5194   -9.6332  -15.2311 C   0  0  0  0  0  0  0  0  0  0  0  0
   26.4307  -10.7622  -16.2532 C   0  0  1  0  0  0  0  0  0  0  0  0
   27.2396  -11.9173  -15.7116 C   0  0  0  0  0  0  0  0  0  0  0  0
   25.0169  -11.1087  -16.5411 C   0  0  2  0  0  0  0  0  0  0  0  0
   24.8389  -12.2482  -17.3806 N   0  0  0  0  0  0  0  0  0  0  0  0
   24.1272   -9.9535  -16.8505 C   0  0  0  0  0  0  0  0  0  0  0  0
   23.9806   -9.5706  -18.0308 O   0  0  0  0  0  0  0  0  0  0  0  0
   19.1334   -8.1301  -16.3910 C   0  0  0  0  0  0  0  0  0  0  0  0
   20.1706   -8.1976  -17.5640 C   0  0  1  0  0  0  0  0  0  0  0  0
   20.3656   -6.7696  -17.9494 C   0  0  0  0  0  0  0  0  0  0  0  0
   21.3116   -8.9264  -16.9979 C   0  0  0  0  0  0  0  0  0  0  0  0
   22.3438   -8.2695  -16.1883 C   0  0  2  0  0  0  0  0  0  0  0  0
   23.4183   -9.2457  -15.8507 N   0  0  0  0  0  0  0  0  0  0  0  0
   21.9204   -7.5729  -14.9790 C   0  0  0  0  0  0  0  0  0  0  0  0
   21.3937   -6.2715  -15.0972 O   0  0  0  0  0  0  0  0  0  0  0  0
   21.9755   -8.0146  -13.8261 O   0  0  0  0  0  0  0  0  0  0  0  0
  2  1  1  1
  2  6  1  0
  2  3  1  0
  3  4  1  0
  4  8  1  0
  4  5  2  0
  6 13  1  0
  6  7  2  0
 10  9  1  1
 10 11  1  0
 12 10  1  0
 12 13  1  6
 14 15  2  0
 14 12  1  0
 17 16  1  1
 17 19  1  0
 18 17  1  0
 20 19  1  1
 20 21  1  0
 21 14  1  0
 22 20  1  0
 23 22  1  0
 24 22  2  0
M  END
$$$$
