DVL.pdb
     RDKit          3D

 24 23  0  0  1  0  0  0  0  0999 V2000
   16.4965  -14.2956  -18.2169 N   0  0  0  0  0  0  0  0  0  0  0  0
   16.7381  -13.4157  -17.1251 C   0  0  1  0  0  0  0  0  0  0  0  0
   17.1768  -14.1182  -15.8690 C   0  0  0  0  0  0  0  0  0  0  0  0
   16.0864  -14.9808  -15.3460 C   0  0  0  0  0  0  0  0  0  0  0  0
   14.9558  -14.9611  -15.9045 O   0  0  0  0  0  0  0  0  0  0  0  0
   17.6757  -12.3254  -17.5322 C   0  0  0  0  0  0  0  0  0  0  0  0
   18.5647  -12.6159  -18.3987 O   0  0  0  0  0  0  0  0  0  0  0  0
   16.2520  -15.8159  -14.2620 O   0  0  0  0  0  0  0  0  0  0  0  0
   17.2528   -9.5886  -19.5264 C   0  0  0  0  0  0  0  0  0  0  0  0
   17.7474   -8.9132  -18.2511 C   0  0  1  0  0  0  0  0  0  0  0  0
   16.5593   -8.2227  -17.6238 C   0  0  0  0  0  0  0  0  0  0  0  0
   18.4095   -9.8920  -17.3537 C   0  0  2  0  0  0  0  0  0  0  0  0
   17.6053  -11.0142  -16.9949 N   0  0  0  0  0  0  0  0  0  0  0  0
   19.1996   -9.3006  -16.2368 C   0  0  0  0  0  0  0  0  0  0  0  0
   18.6645   -9.0972  -15.1261 O   0  0  0  0  0  0  0  0  0  0  0  0
   24.5978  -10.3871  -15.3406 C   0  0  0  0  0  0  0  0  0  0  0  0
   23.0584  -10.3036  -15.0585 C   0  0  1  0  0  0  0  0  0  0  0  0
   22.9192  -10.8521  -13.6781 C   0  0  0  0  0  0  0  0  0  0  0  0
   22.7247   -8.8922  -15.2820 C   0  0  0  0  0  0  0  0  0  0  0  0
   21.3473   -8.3897  -15.2304 C   0  0  2  0  0  0  0  0  0  0  0  0
   20.5635   -8.9465  -16.3693 N   0  0  0  0  0  0  0  0  0  0  0  0
   21.1507   -6.9462  -15.1627 C   0  0  0  0  0  0  0  0  0  0  0  0
   21.2542   -6.3073  -13.9113 O   0  0  0  0  0  0  0  0  0  0  0  0
   20.8952   -6.1999  -16.1141 O   0  0  0  0  0  0  0  0  0  0  0  0
  2  1  1  6
  2  6  1  0
  2  3  1  0
  3  4  1  0
  4  8  1  0
  4  5  2  0
  6 13  1  0
  6  7  2  0
 10  9  1  6
 10 11  1  0
 12 10  1  0
 12 13  1  1
 14 15  2  0
 14 12  1  0
 17 16  1  1
 17 19  1  0
 18 17  1  0
 20 19  1  6
 20 21  1  0
 21 14  1  0
 22 20  1  0
 23 22  1  0
 24 22  2  0
M  END
$$$$
