DVL.pdb
     RDKit          3D

 24 23  0  0  1  0  0  0  0  0999 V2000
   19.6923  -13.4739  -18.3820 N   0  0  0  0  0  0  0  0  0  0  0  0
   20.5400  -12.3507  -18.5930 C   0  0  1  0  0  0  0  0  0  0  0  0
   20.2773  -11.6305  -19.8877 C   0  0  0  0  0  0  0  0  0  0  0  0
   20.4963  -12.5382  -21.0430 C   0  0  0  0  0  0  0  0  0  0  0  0
   20.7815  -13.7493  -20.8370 O   0  0  0  0  0  0  0  0  0  0  0  0
   20.5015  -11.4391  -17.4093 C   0  0  0  0  0  0  0  0  0  0  0  0
   19.3820  -11.3052  -16.8142 O   0  0  0  0  0  0  0  0  0  0  0  0
   20.4016  -12.1150  -22.3513 O   0  0  0  0  0  0  0  0  0  0  0  0
   22.7114   -9.0123  -13.7555 C   0  0  0  0  0  0  0  0  0  0  0  0
   22.8119   -9.9899  -14.9222 C   0  0  1  0  0  0  0  0  0  0  0  0
   22.8604  -11.3806  -14.3345 C   0  0  0  0  0  0  0  0  0  0  0  0
   21.6988   -9.7878  -15.8824 C   0  0  2  0  0  0  0  0  0  0  0  0
   21.6444  -10.7387  -16.9443 N   0  0  0  0  0  0  0  0  0  0  0  0
   21.4561   -8.3746  -16.2895 C   0  0  0  0  0  0  0  0  0  0  0  0
   22.2891   -7.7724  -16.9999 O   0  0  0  0  0  0  0  0  0  0  0  0
   17.9508   -5.4781  -19.4200 C   0  0  0  0  0  0  0  0  0  0  0  0
   18.8410   -4.9979  -18.2228 C   0  0  1  0  0  0  0  0  0  0  0  0
   18.0023   -3.9654  -17.5473 C   0  0  0  0  0  0  0  0  0  0  0  0
   19.1543   -6.2284  -17.4872 C   0  0  0  0  0  0  0  0  0  0  0  0
   20.0645   -6.2495  -16.3367 C   0  0  2  0  0  0  0  0  0  0  0  0
   20.2992   -7.6563  -15.9040 N   0  0  0  0  0  0  0  0  0  0  0  0
   19.7173   -5.4344  -15.1783 C   0  0  0  0  0  0  0  0  0  0  0  0
   20.1214   -4.0850  -15.1550 O   0  0  0  0  0  0  0  0  0  0  0  0
   19.0874   -5.8115  -14.1841 O   0  0  0  0  0  0  0  0  0  0  0  0
  2  1  1  1
  2  6  1  0
  2  3  1  0
  3  4  1  0
  4  8  1  0
  4  5  2  0
  6 13  1  0
  6  7  2  0
 10  9  1  1
 10 11  1  0
 12 10  1  0
 12 13  1  6
 14 15  2  0
 14 12  1  0
 17 16  1  6
 17 19  1  0
 18 17  1  0
 20 19  1  6
 20 21  1  0
 21 14  1  0
 22 20  1  0
 23 22  1  0
 24 22  2  0
M  END
$$$$
