DVL.pdb
     RDKit          3D

 24 23  0  0  1  0  0  0  0  0999 V2000
   26.0404  -20.3456  -16.5630 N   0  0  0  0  0  0  0  0  0  0  0  0
   26.1881  -19.0590  -15.9735 C   0  0  1  0  0  0  0  0  0  0  0  0
   25.7843  -17.9289  -16.8811 C   0  0  0  0  0  0  0  0  0  0  0  0
   26.5196  -18.0064  -18.1694 C   0  0  0  0  0  0  0  0  0  0  0  0
   26.1833  -18.8683  -19.0265 O   0  0  0  0  0  0  0  0  0  0  0  0
   25.4959  -19.0097  -14.6499 C   0  0  0  0  0  0  0  0  0  0  0  0
   25.4961  -17.8932  -14.0344 O   0  0  0  0  0  0  0  0  0  0  0  0
   27.5692  -17.1687  -18.4797 O   0  0  0  0  0  0  0  0  0  0  0  0
   21.9942  -20.6100  -11.6518 C   0  0  0  0  0  0  0  0  0  0  0  0
   22.7166  -20.6475  -12.9949 C   0  0  1  0  0  0  0  0  0  0  0  0
   21.8999  -19.8238  -13.9626 C   0  0  0  0  0  0  0  0  0  0  0  0
   24.1199  -20.1856  -12.8567 C   0  0  2  0  0  0  0  0  0  0  0  0
   24.8579  -20.1398  -14.0766 N   0  0  0  0  0  0  0  0  0  0  0  0
   24.8634  -20.7435  -11.6915 C   0  0  0  0  0  0  0  0  0  0  0  0
   25.2782  -21.9220  -11.7154 O   0  0  0  0  0  0  0  0  0  0  0  0
   28.4361  -18.8010   -7.3054 C   0  0  0  0  0  0  0  0  0  0  0  0
   27.4563  -20.0097   -7.4936 C   0  0  1  0  0  0  0  0  0  0  0  0
   26.6745  -20.0354   -6.2233 C   0  0  0  0  0  0  0  0  0  0  0  0
   26.7448  -19.7090   -8.7413 C   0  0  0  0  0  0  0  0  0  0  0  0
   25.7323  -20.6069   -9.3079 C   0  0  2  0  0  0  0  0  0  0  0  0
   25.1334  -19.9891  -10.5249 N   0  0  0  0  0  0  0  0  0  0  0  0
   24.6697  -21.0779   -8.4270 C   0  0  0  0  0  0  0  0  0  0  0  0
   24.9074  -22.2134   -7.6275 O   0  0  0  0  0  0  0  0  0  0  0  0
   23.5487  -20.5729   -8.3023 O   0  0  0  0  0  0  0  0  0  0  0  0
  2  1  1  6
  2  6  1  0
  2  3  1  0
  3  4  1  0
  4  8  1  0
  4  5  2  0
  6 13  1  0
  6  7  2  0
 10  9  1  1
 10 11  1  0
 12 10  1  0
 12 13  1  6
 14 15  2  0
 14 12  1  0
 17 16  1  1
 17 19  1  0
 18 17  1  0
 20 19  1  1
 20 21  1  0
 21 14  1  0
 22 20  1  0
 23 22  1  0
 24 22  2  0
M  END
$$$$
