DVL.pdb
     RDKit          3D

 24 23  0  0  1  0  0  0  0  0999 V2000
   17.8033  -14.4579  -17.2878 N   0  0  0  0  0  0  0  0  0  0  0  0
   18.8404  -13.6770  -16.7053 C   0  0  1  0  0  0  0  0  0  0  0  0
   20.1888  -13.8970  -17.3355 C   0  0  0  0  0  0  0  0  0  0  0  0
   20.5369  -15.3411  -17.3316 C   0  0  0  0  0  0  0  0  0  0  0  0
   20.5655  -15.9709  -16.2393 O   0  0  0  0  0  0  0  0  0  0  0  0
   18.4498  -12.2348  -16.6704 C   0  0  0  0  0  0  0  0  0  0  0  0
   17.3326  -11.9217  -17.1988 O   0  0  0  0  0  0  0  0  0  0  0  0
   20.8352  -16.0387  -18.4823 O   0  0  0  0  0  0  0  0  0  0  0  0
   16.5337  -10.5409  -15.8537 C   0  0  0  0  0  0  0  0  0  0  0  0
   17.5998   -9.6637  -15.2048 C   0  0  1  0  0  0  0  0  0  0  0  0
   17.5902   -9.9722  -13.7260 C   0  0  0  0  0  0  0  0  0  0  0  0
   18.9212   -9.8701  -15.8474 C   0  0  2  0  0  0  0  0  0  0  0  0
   19.2659  -11.2341  -16.0825 N   0  0  0  0  0  0  0  0  0  0  0  0
   20.0276   -9.0234  -15.3174 C   0  0  0  0  0  0  0  0  0  0  0  0
   20.8124   -9.4788  -14.4583 O   0  0  0  0  0  0  0  0  0  0  0  0
   24.3525   -6.2691  -16.4547 C   0  0  0  0  0  0  0  0  0  0  0  0
   23.1345   -5.2839  -16.4082 C   0  0  1  0  0  0  0  0  0  0  0  0
   23.3979   -4.3388  -17.5321 C   0  0  0  0  0  0  0  0  0  0  0  0
   21.9582   -6.1569  -16.4959 C   0  0  0  0  0  0  0  0  0  0  0  0
   21.4580   -6.9239  -15.3496 C   0  0  2  0  0  0  0  0  0  0  0  0
   20.2443   -7.6924  -15.7469 N   0  0  0  0  0  0  0  0  0  0  0  0
   21.1943   -6.2024  -14.1100 C   0  0  0  0  0  0  0  0  0  0  0  0
   22.2511   -6.0177  -13.1968 O   0  0  0  0  0  0  0  0  0  0  0  0
   20.1102   -5.7208  -13.7633 O   0  0  0  0  0  0  0  0  0  0  0  0
  2  1  1  6
  2  6  1  0
  2  3  1  0
  3  4  1  0
  4  8  1  0
  4  5  2  0
  6 13  1  0
  6  7  2  0
 10  9  1  6
 10 11  1  0
 12 10  1  0
 12 13  1  1
 14 15  2  0
 14 12  1  0
 17 16  1  6
 17 19  1  0
 18 17  1  0
 20 19  1  6
 20 21  1  0
 21 14  1  0
 22 20  1  0
 23 22  1  0
 24 22  2  0
M  END
$$$$
