INF.pdb
     RDKit          3D

 28 28  0  0  1  0  0  0  0  0999 V2000
    8.0205  -12.0441   18.9045 C   0  0  0  0  0  0  0  0  0  0  0  0
    8.7703  -13.0972   19.6757 C   0  0  0  0  0  0  0  0  0  0  0  0
    8.4256  -14.4436   19.1285 C   0  0  2  0  0  0  0  0  0  0  0  0
    6.9427  -14.6257   19.2018 C   0  0  0  0  0  0  0  0  0  0  0  0
    9.1995  -15.5572   19.7964 C   0  0  2  0  0  0  0  0  0  0  0  0
    9.0276  -16.7435   19.0072 N   0  0  0  0  0  0  0  0  0  0  0  0
    8.6389  -15.7366   21.1813 C   0  0  0  0  0  0  0  0  0  0  0  0
    8.7165  -14.7709   21.9857 O   0  0  0  0  0  0  0  0  0  0  0  0
    6.5731  -17.7257   25.4355 N   0  0  0  0  0  0  0  0  0  0  0  0
    6.3512  -18.7054   24.4066 C   0  0  0  0  0  0  0  0  0  0  0  0
    5.6760  -19.6989   24.7329 O   0  0  0  0  0  0  0  0  0  0  0  0
    6.9176  -18.4899   23.0570 C   0  0  0  0  0  0  0  0  0  0  0  0
    7.6078  -17.1619   22.9254 C   0  0  2  0  0  0  0  0  0  0  0  0
    8.0424  -16.9586   21.5626 N   0  0  0  0  0  0  0  0  0  0  0  0
    8.6927  -16.9219   23.8983 C   0  0  0  0  0  0  0  0  0  0  0  0
    9.8345  -17.3981   23.6906 O   0  0  0  0  0  0  0  0  0  0  0  0
    8.5219  -16.1643   25.0889 N   0  0  0  0  0  0  0  0  0  0  0  0
    9.5983  -15.8283   25.9907 C   0  0  1  0  0  0  0  0  0  0  0  0
    9.6745  -14.3372   26.2487 C   0  0  0  0  0  0  0  0  0  0  0  0
    8.3987  -13.7540   26.6449 C   0  0  0  0  0  0  0  0  0  0  0  0
    7.3731  -13.6063   25.7430 C   0  0  0  0  0  0  0  0  0  0  0  0
    6.1607  -13.0567   26.1022 C   0  0  0  0  0  0  0  0  0  0  0  0
    5.9360  -12.6353   27.3833 C   0  0  0  0  0  0  0  0  0  0  0  0
    6.9489  -12.7720   28.3089 C   0  0  0  0  0  0  0  0  0  0  0  0
    8.1766  -13.3316   27.9334 C   0  0  0  0  0  0  0  0  0  0  0  0
    9.5350  -16.6048   27.2491 C   0  0  0  0  0  0  0  0  0  0  0  0
   10.4897  -16.4509   28.2429 O   0  0  0  0  0  0  0  0  0  0  0  0
    8.6132  -17.4323   27.4630 O   0  0  0  0  0  0  0  0  0  0  0  0
  2  1  1  0
  3  4  1  1
  3  5  1  0
  3  2  1  0
  5  6  1  6
  7  5  1  0
  7  8  2  0
  9 10  1  0
 10 12  1  0
 11 10  2  0
 13 12  1  6
 13 14  1  0
 14  7  1  0
 15 13  1  0
 16 15  2  0
 17 15  1  0
 18 17  1  0
 18 26  1  0
 18 19  1  1
 20 25  2  0
 20 19  1  0
 21 20  1  0
 22 23  1  0
 22 21  2  0
 23 24  2  0
 24 25  1  0
 26 27  1  0
 28 26  2  0
M  END
$$$$
