INF.pdb
     RDKit          3D

 28 28  0  0  1  0  0  0  0  0999 V2000
    8.2261  -11.8746   19.2437 C   0  0  0  0  0  0  0  0  0  0  0  0
    7.8770  -13.3207   19.0139 C   0  0  0  0  0  0  0  0  0  0  0  0
    8.1501  -14.0949   20.2618 C   0  0  2  0  0  0  0  0  0  0  0  0
    9.5653  -13.8486   20.6789 C   0  0  0  0  0  0  0  0  0  0  0  0
    7.8143  -15.5620   20.1199 C   0  0  2  0  0  0  0  0  0  0  0  0
    6.4260  -15.6608   19.7698 N   0  0  0  0  0  0  0  0  0  0  0  0
    8.0925  -16.2244   21.4422 C   0  0  0  0  0  0  0  0  0  0  0  0
    7.2412  -16.1009   22.3618 O   0  0  0  0  0  0  0  0  0  0  0  0
   10.1262  -19.9919   20.3649 N   0  0  0  0  0  0  0  0  0  0  0  0
    9.5570  -19.8065   21.6723 C   0  0  0  0  0  0  0  0  0  0  0  0
    8.4921  -20.4106   21.8968 O   0  0  0  0  0  0  0  0  0  0  0  0
   10.2434  -18.9360   22.6521 C   0  0  0  0  0  0  0  0  0  0  0  0
    9.5108  -17.6465   22.8922 C   0  0  2  0  0  0  0  0  0  0  0  0
    9.2794  -16.9638   21.6401 N   0  0  0  0  0  0  0  0  0  0  0  0
   10.1189  -16.7612   23.9059 C   0  0  0  0  0  0  0  0  0  0  0  0
   11.1364  -16.0871   23.6167 O   0  0  0  0  0  0  0  0  0  0  0  0
    9.6111  -16.6195   25.2260 N   0  0  0  0  0  0  0  0  0  0  0  0
   10.2682  -15.8614   26.2643 C   0  0  1  0  0  0  0  0  0  0  0  0
   10.0568  -14.3706   26.0954 C   0  0  0  0  0  0  0  0  0  0  0  0
    8.6733  -13.9575   26.2959 C   0  0  0  0  0  0  0  0  0  0  0  0
    7.6617  -14.4520   25.5090 C   0  0  0  0  0  0  0  0  0  0  0  0
    6.3485  -14.0712   25.6861 C   0  0  0  0  0  0  0  0  0  0  0  0
    6.0051  -13.1779   26.6626 C   0  0  0  0  0  0  0  0  0  0  0  0
    7.0013  -12.6659   27.4669 C   0  0  0  0  0  0  0  0  0  0  0  0
    8.3320  -13.0595   27.2784 C   0  0  0  0  0  0  0  0  0  0  0  0
    9.8888  -16.3239   27.6181 C   0  0  0  0  0  0  0  0  0  0  0  0
   10.4595  -15.7750   28.7565 O   0  0  0  0  0  0  0  0  0  0  0  0
    9.0351  -17.2313   27.7855 O   0  0  0  0  0  0  0  0  0  0  0  0
  2  1  1  0
  3  4  1  6
  3  5  1  0
  3  2  1  0
  5  6  1  1
  7  5  1  0
  7  8  2  0
  9 10  1  0
 10 12  1  0
 11 10  2  0
 13 12  1  6
 13 14  1  0
 14  7  1  0
 15 13  1  0
 16 15  2  0
 17 15  1  0
 18 17  1  0
 18 26  1  0
 18 19  1  1
 20 25  2  0
 20 19  1  0
 21 20  1  0
 22 23  1  0
 22 21  2  0
 23 24  2  0
 24 25  1  0
 26 27  1  0
 28 26  2  0
M  END
$$$$
