INF.pdb
     RDKit          3D

 28 28  0  0  1  0  0  0  0  0999 V2000
    7.5060  -11.9448   19.1255 C   0  0  0  0  0  0  0  0  0  0  0  0
    7.8377  -13.3102   18.5857 C   0  0  0  0  0  0  0  0  0  0  0  0
    8.1742  -14.2182   19.7230 C   0  0  2  0  0  0  0  0  0  0  0  0
    9.2727  -13.5956   20.5248 C   0  0  0  0  0  0  0  0  0  0  0  0
    8.4876  -15.6256   19.2690 C   0  0  2  0  0  0  0  0  0  0  0  0
    7.3277  -16.1363   18.5956 N   0  0  0  0  0  0  0  0  0  0  0  0
    8.8110  -16.4392   20.4930 C   0  0  0  0  0  0  0  0  0  0  0  0
    7.8572  -16.8469   21.2071 O   0  0  0  0  0  0  0  0  0  0  0  0
   11.8337  -20.2556   23.4191 N   0  0  0  0  0  0  0  0  0  0  0  0
   12.1282  -18.8687   23.1797 C   0  0  0  0  0  0  0  0  0  0  0  0
   12.7415  -18.2747   24.0855 O   0  0  0  0  0  0  0  0  0  0  0  0
   11.7016  -18.2388   21.9107 C   0  0  0  0  0  0  0  0  0  0  0  0
   10.4609  -17.4063   22.0674 C   0  0  2  0  0  0  0  0  0  0  0  0
   10.1512  -16.7343   20.8265 N   0  0  0  0  0  0  0  0  0  0  0  0
   10.4713  -16.4784   23.2164 C   0  0  0  0  0  0  0  0  0  0  0  0
   10.9796  -15.3382   23.0937 O   0  0  0  0  0  0  0  0  0  0  0  0
    9.9271  -16.8032   24.4887 N   0  0  0  0  0  0  0  0  0  0  0  0
    9.4201  -15.8243   25.4211 C   0  0  1  0  0  0  0  0  0  0  0  0
    8.3528  -14.9488   24.7965 C   0  0  0  0  0  0  0  0  0  0  0  0
    7.7808  -13.9834   25.7270 C   0  0  0  0  0  0  0  0  0  0  0  0
    8.5687  -13.0552   26.3632 C   0  0  0  0  0  0  0  0  0  0  0  0
    8.0429  -12.1357   27.2458 C   0  0  0  0  0  0  0  0  0  0  0  0
    6.7037  -12.1167   27.5205 C   0  0  0  0  0  0  0  0  0  0  0  0
    5.8899  -13.0378   26.8954 C   0  0  0  0  0  0  0  0  0  0  0  0
    6.4344  -13.9675   26.0006 C   0  0  0  0  0  0  0  0  0  0  0  0
    8.9585  -16.4431   26.6839 C   0  0  0  0  0  0  0  0  0  0  0  0
    9.1195  -15.8039   27.9039 O   0  0  0  0  0  0  0  0  0  0  0  0
    8.4035  -17.5710   26.6967 O   0  0  0  0  0  0  0  0  0  0  0  0
  2  1  1  0
  3  4  1  6
  3  5  1  0
  3  2  1  0
  5  6  1  1
  7  5  1  0
  7  8  2  0
  9 10  1  0
 10 12  1  0
 11 10  2  0
 13 12  1  6
 13 14  1  0
 14  7  1  0
 15 13  1  0
 16 15  2  0
 17 15  1  0
 18 17  1  0
 18 26  1  0
 18 19  1  6
 20 25  2  0
 20 19  1  0
 21 20  1  0
 22 23  1  0
 22 21  2  0
 23 24  2  0
 24 25  1  0
 26 27  1  0
 28 26  2  0
M  END
$$$$
