INF.pdb
     RDKit          3D

 28 28  0  0  1  0  0  0  0  0999 V2000
    6.5459  -12.2935   18.9864 C   0  0  0  0  0  0  0  0  0  0  0  0
    7.6186  -13.1666   18.3926 C   0  0  0  0  0  0  0  0  0  0  0  0
    8.2541  -13.9699   19.4798 C   0  0  2  0  0  0  0  0  0  0  0  0
    8.7854  -13.0346   20.5192 C   0  0  0  0  0  0  0  0  0  0  0  0
    9.2923  -14.9362   18.9567 C   0  0  2  0  0  0  0  0  0  0  0  0
    8.6769  -15.7236   17.9266 N   0  0  0  0  0  0  0  0  0  0  0  0
    9.7379  -15.7959   20.1086 C   0  0  0  0  0  0  0  0  0  0  0  0
    9.0896  -16.8473   20.3537 O   0  0  0  0  0  0  0  0  0  0  0  0
   14.1989  -14.4176   21.1647 N   0  0  0  0  0  0  0  0  0  0  0  0
   13.6008  -15.6911   21.4617 C   0  0  0  0  0  0  0  0  0  0  0  0
   13.9890  -16.6524   20.7727 O   0  0  0  0  0  0  0  0  0  0  0  0
   12.5881  -15.7910   22.5356 C   0  0  0  0  0  0  0  0  0  0  0  0
   11.2459  -16.2322   22.0248 C   0  0  2  0  0  0  0  0  0  0  0  0
   10.8549  -15.4275   20.8904 N   0  0  0  0  0  0  0  0  0  0  0  0
   10.1824  -16.3094   23.0467 C   0  0  0  0  0  0  0  0  0  0  0  0
    8.9979  -16.5328   22.6996 O   0  0  0  0  0  0  0  0  0  0  0  0
   10.4212  -16.1422   24.4379 N   0  0  0  0  0  0  0  0  0  0  0  0
    9.4846  -15.5248   25.3470 C   0  0  1  0  0  0  0  0  0  0  0  0
    9.0242  -14.1696   24.8498 C   0  0  0  0  0  0  0  0  0  0  0  0
    8.0384  -13.5401   25.7197 C   0  0  0  0  0  0  0  0  0  0  0  0
    6.6974  -13.5846   25.4249 C   0  0  0  0  0  0  0  0  0  0  0  0
    5.7529  -12.9942   26.2373 C   0  0  0  0  0  0  0  0  0  0  0  0
    6.1237  -12.3368   27.3773 C   0  0  0  0  0  0  0  0  0  0  0  0
    7.4638  -12.2770   27.6970 C   0  0  0  0  0  0  0  0  0  0  0  0
    8.4149  -12.8802   26.8646 C   0  0  0  0  0  0  0  0  0  0  0  0
    8.3447  -16.4144   25.6630 C   0  0  0  0  0  0  0  0  0  0  0  0
    7.5910  -17.0080   24.6617 O   0  0  0  0  0  0  0  0  0  0  0  0
    8.0180  -16.6645   26.8508 O   0  0  0  0  0  0  0  0  0  0  0  0
  2  1  1  0
  3  4  1  1
  3  5  1  0
  3  2  1  0
  5  6  1  6
  7  5  1  0
  7  8  2  0
  9 10  1  0
 10 12  1  0
 11 10  2  0
 13 12  1  1
 13 14  1  0
 14  7  1  0
 15 13  1  0
 16 15  2  0
 17 15  1  0
 18 17  1  0
 18 26  1  0
 18 19  1  6
 20 25  2  0
 20 19  1  0
 21 20  1  0
 22 23  1  0
 22 21  2  0
 23 24  2  0
 24 25  1  0
 26 27  1  0
 28 26  2  0
M  END
$$$$
