INF.pdb
     RDKit          3D

 28 28  0  0  1  0  0  0  0  0999 V2000
    7.7250  -11.8834   22.0834 C   0  0  0  0  0  0  0  0  0  0  0  0
    7.2632  -13.2615   21.6916 C   0  0  0  0  0  0  0  0  0  0  0  0
    8.1337  -13.7756   20.5919 C   0  0  2  0  0  0  0  0  0  0  0  0
    8.0132  -12.8587   19.4164 C   0  0  0  0  0  0  0  0  0  0  0  0
    7.8502  -15.2218   20.2551 C   0  0  2  0  0  0  0  0  0  0  0  0
    6.4700  -15.3194   19.8741 N   0  0  0  0  0  0  0  0  0  0  0  0
    8.1369  -16.0419   21.4839 C   0  0  0  0  0  0  0  0  0  0  0  0
    7.1795  -16.3160   22.2546 O   0  0  0  0  0  0  0  0  0  0  0  0
    9.0093  -19.4386   21.1955 N   0  0  0  0  0  0  0  0  0  0  0  0
   10.3870  -19.3541   21.5986 C   0  0  0  0  0  0  0  0  0  0  0  0
   11.1598  -20.1837   21.0850 O   0  0  0  0  0  0  0  0  0  0  0  0
   10.8023  -18.3194   22.5712 C   0  0  0  0  0  0  0  0  0  0  0  0
    9.6990  -17.3513   22.8915 C   0  0  2  0  0  0  0  0  0  0  0  0
    9.4477  -16.4892   21.7597 N   0  0  0  0  0  0  0  0  0  0  0  0
    9.8796  -16.5893   24.1436 C   0  0  0  0  0  0  0  0  0  0  0  0
   10.7399  -15.6782   24.2016 O   0  0  0  0  0  0  0  0  0  0  0  0
    9.1200  -16.8284   25.3211 N   0  0  0  0  0  0  0  0  0  0  0  0
    9.3868  -16.1992   26.5929 C   0  0  1  0  0  0  0  0  0  0  0  0
    8.1220  -15.6708   27.2384 C   0  0  0  0  0  0  0  0  0  0  0  0
    7.6915  -14.3869   26.6987 C   0  0  0  0  0  0  0  0  0  0  0  0
    8.4626  -13.2593   26.8438 C   0  0  0  0  0  0  0  0  0  0  0  0
    8.0694  -12.0380   26.3392 C   0  0  0  0  0  0  0  0  0  0  0  0
    6.8846  -11.9068   25.6695 C   0  0  0  0  0  0  0  0  0  0  0  0
    6.0911  -13.0231   25.5096 C   0  0  0  0  0  0  0  0  0  0  0  0
    6.5001  -14.2589   26.0262 C   0  0  0  0  0  0  0  0  0  0  0  0
   10.1451  -17.0843   27.5052 C   0  0  0  0  0  0  0  0  0  0  0  0
   10.4327  -18.3976   27.1655 O   0  0  0  0  0  0  0  0  0  0  0  0
   10.5562  -16.6778   28.6214 O   0  0  0  0  0  0  0  0  0  0  0  0
  2  1  1  0
  3  4  1  6
  3  5  1  0
  3  2  1  0
  5  6  1  1
  7  5  1  0
  7  8  2  0
  9 10  1  0
 10 12  1  0
 11 10  2  0
 13 12  1  6
 13 14  1  0
 14  7  1  0
 15 13  1  0
 16 15  2  0
 17 15  1  0
 18 17  1  0
 18 26  1  0
 18 19  1  1
 20 25  2  0
 20 19  1  0
 21 20  1  0
 22 23  1  0
 22 21  2  0
 23 24  2  0
 24 25  1  0
 26 27  1  0
 28 26  2  0
M  END
$$$$
