INF.pdb
     RDKit          3D

 28 28  0  0  1  0  0  0  0  0999 V2000
    8.1152  -12.0244   18.9998 C   0  0  0  0  0  0  0  0  0  0  0  0
    7.9391  -13.5028   18.7781 C   0  0  0  0  0  0  0  0  0  0  0  0
    7.6672  -14.1657   20.0887 C   0  0  2  0  0  0  0  0  0  0  0  0
    8.7552  -13.7980   21.0470 C   0  0  0  0  0  0  0  0  0  0  0  0
    7.4668  -15.6580   19.9539 C   0  0  2  0  0  0  0  0  0  0  0  0
    6.3544  -15.8719   19.0727 N   0  0  0  0  0  0  0  0  0  0  0  0
    7.1895  -16.2077   21.3270 C   0  0  0  0  0  0  0  0  0  0  0  0
    6.1531  -15.8184   21.9270 O   0  0  0  0  0  0  0  0  0  0  0  0
    7.1787  -18.4980   25.7967 N   0  0  0  0  0  0  0  0  0  0  0  0
    7.3865  -19.4714   24.7590 C   0  0  0  0  0  0  0  0  0  0  0  0
    7.2326  -20.6624   25.0864 O   0  0  0  0  0  0  0  0  0  0  0  0
    7.7603  -19.0229   23.3996 C   0  0  0  0  0  0  0  0  0  0  0  0
    7.8936  -17.5297   23.3000 C   0  0  2  0  0  0  0  0  0  0  0  0
    8.0725  -17.1358   21.9216 N   0  0  0  0  0  0  0  0  0  0  0  0
    8.9119  -16.9323   24.1874 C   0  0  0  0  0  0  0  0  0  0  0  0
    9.9762  -16.4803   23.7011 O   0  0  0  0  0  0  0  0  0  0  0  0
    8.7595  -16.8335   25.5972 N   0  0  0  0  0  0  0  0  0  0  0  0
    9.7033  -16.1686   26.4643 C   0  0  1  0  0  0  0  0  0  0  0  0
    9.7651  -14.6788   26.1955 C   0  0  0  0  0  0  0  0  0  0  0  0
    8.5501  -13.9718   26.5814 C   0  0  0  0  0  0  0  0  0  0  0  0
    7.4670  -13.9058   25.7389 C   0  0  0  0  0  0  0  0  0  0  0  0
    6.3110  -13.2412   26.0892 C   0  0  0  0  0  0  0  0  0  0  0  0
    6.2026  -12.6180   27.3014 C   0  0  0  0  0  0  0  0  0  0  0  0
    7.2753  -12.6687   28.1664 C   0  0  0  0  0  0  0  0  0  0  0  0
    8.4449  -13.3467   27.8005 C   0  0  0  0  0  0  0  0  0  0  0  0
    9.4519  -16.4629   27.8929 C   0  0  0  0  0  0  0  0  0  0  0  0
    8.4325  -17.3164   28.2871 O   0  0  0  0  0  0  0  0  0  0  0  0
   10.1533  -15.9499   28.8011 O   0  0  0  0  0  0  0  0  0  0  0  0
  2  1  1  0
  3  4  1  1
  3  5  1  0
  3  2  1  0
  5  6  1  6
  7  5  1  0
  7  8  2  0
  9 10  1  0
 10 12  1  0
 11 10  2  0
 13 12  1  6
 13 14  1  0
 14  7  1  0
 15 13  1  0
 16 15  2  0
 17 15  1  0
 18 17  1  0
 18 26  1  0
 18 19  1  1
 20 25  2  0
 20 19  1  0
 21 20  1  0
 22 23  1  0
 22 21  2  0
 23 24  2  0
 24 25  1  0
 26 27  1  0
 28 26  2  0
M  END
$$$$
