INF.pdb
     RDKit          3D

 28 28  0  0  1  0  0  0  0  0999 V2000
    9.2140  -19.7823   16.3038 C   0  0  0  0  0  0  0  0  0  0  0  0
    9.5873  -19.9742   17.7493 C   0  0  0  0  0  0  0  0  0  0  0  0
    9.2659  -18.7282   18.5079 C   0  0  2  0  0  0  0  0  0  0  0  0
   10.0225  -17.5892   17.9017 C   0  0  0  0  0  0  0  0  0  0  0  0
    9.4975  -18.8775   19.9943 C   0  0  2  0  0  0  0  0  0  0  0  0
    8.7313  -20.0042   20.4451 N   0  0  0  0  0  0  0  0  0  0  0  0
    9.0414  -17.6061   20.6577 C   0  0  0  0  0  0  0  0  0  0  0  0
    9.5484  -16.5188   20.2751 O   0  0  0  0  0  0  0  0  0  0  0  0
    5.9892  -18.9991   23.2071 N   0  0  0  0  0  0  0  0  0  0  0  0
    6.0502  -17.6678   23.7472 C   0  0  0  0  0  0  0  0  0  0  0  0
    5.9123  -17.5701   24.9804 O   0  0  0  0  0  0  0  0  0  0  0  0
    6.2667  -16.5196   22.8396 C   0  0  0  0  0  0  0  0  0  0  0  0
    7.6872  -16.4216   22.3605 C   0  0  2  0  0  0  0  0  0  0  0  0
    8.0698  -17.6385   21.6822 N   0  0  0  0  0  0  0  0  0  0  0  0
    8.6687  -16.0251   23.3904 C   0  0  0  0  0  0  0  0  0  0  0  0
    9.6516  -15.3124   23.0749 O   0  0  0  0  0  0  0  0  0  0  0  0
    8.5687  -16.4100   24.7551 N   0  0  0  0  0  0  0  0  0  0  0  0
    9.5808  -16.1310   25.7464 C   0  0  1  0  0  0  0  0  0  0  0  0
    9.7772  -14.6425   25.9500 C   0  0  0  0  0  0  0  0  0  0  0  0
    8.5387  -13.9316   26.2430 C   0  0  0  0  0  0  0  0  0  0  0  0
    7.3149  -14.4880   25.9605 C   0  0  0  0  0  0  0  0  0  0  0  0
    6.1348  -13.8285   26.2316 C   0  0  0  0  0  0  0  0  0  0  0  0
    6.1434  -12.5839   26.7973 C   0  0  0  0  0  0  0  0  0  0  0  0
    7.3585  -12.0021   27.0911 C   0  0  0  0  0  0  0  0  0  0  0  0
    8.5513  -12.6808   26.8116 C   0  0  0  0  0  0  0  0  0  0  0  0
    9.3207  -16.8342   27.0226 C   0  0  0  0  0  0  0  0  0  0  0  0
    8.2243  -17.6688   27.1783 O   0  0  0  0  0  0  0  0  0  0  0  0
   10.0844  -16.7006   28.0120 O   0  0  0  0  0  0  0  0  0  0  0  0
  2  1  1  0
  3  4  1  6
  3  5  1  0
  3  2  1  0
  5  6  1  1
  7  5  1  0
  7  8  2  0
  9 10  1  0
 10 12  1  0
 11 10  2  0
 13 12  1  1
 13 14  1  0
 14  7  1  0
 15 13  1  0
 16 15  2  0
 17 15  1  0
 18 17  1  0
 18 26  1  0
 18 19  1  1
 20 25  2  0
 20 19  1  0
 21 20  1  0
 22 23  1  0
 22 21  2  0
 23 24  2  0
 24 25  1  0
 26 27  1  0
 28 26  2  0
M  END
$$$$
