INF.pdb
     RDKit          3D

 28 28  0  0  1  0  0  0  0  0999 V2000
    7.5495  -11.4804   20.3823 C   0  0  0  0  0  0  0  0  0  0  0  0
    7.6112  -12.9075   19.9077 C   0  0  0  0  0  0  0  0  0  0  0  0
    7.9828  -13.7895   21.0546 C   0  0  2  0  0  0  0  0  0  0  0  0
    9.2768  -13.3082   21.6301 C   0  0  0  0  0  0  0  0  0  0  0  0
    8.0022  -15.2536   20.6784 C   0  0  2  0  0  0  0  0  0  0  0  0
    6.6914  -15.6019   20.2092 N   0  0  0  0  0  0  0  0  0  0  0  0
    8.3676  -16.0370   21.9102 C   0  0  0  0  0  0  0  0  0  0  0  0
    7.4415  -16.3996   22.6827 O   0  0  0  0  0  0  0  0  0  0  0  0
   11.4998  -19.1429   20.6566 N   0  0  0  0  0  0  0  0  0  0  0  0
   10.8034  -19.1177   21.9145 C   0  0  0  0  0  0  0  0  0  0  0  0
    9.9010  -19.9629   22.0580 O   0  0  0  0  0  0  0  0  0  0  0  0
   11.1825  -18.1214   22.9405 C   0  0  0  0  0  0  0  0  0  0  0  0
   10.0477  -17.2068   23.3048 C   0  0  2  0  0  0  0  0  0  0  0  0
    9.7157  -16.3541   22.1868 N   0  0  0  0  0  0  0  0  0  0  0  0
   10.2380  -16.4407   24.5531 C   0  0  0  0  0  0  0  0  0  0  0  0
   11.1781  -15.6149   24.6419 O   0  0  0  0  0  0  0  0  0  0  0  0
    9.4008  -16.5828   25.6931 N   0  0  0  0  0  0  0  0  0  0  0  0
    9.6739  -15.9737   26.9733 C   0  0  1  0  0  0  0  0  0  0  0  0
    8.4272  -15.3743   27.5914 C   0  0  0  0  0  0  0  0  0  0  0  0
    7.8667  -14.2773   26.8121 C   0  0  0  0  0  0  0  0  0  0  0  0
    8.4871  -13.0529   26.7584 C   0  0  0  0  0  0  0  0  0  0  0  0
    7.9698  -12.0056   26.0260 C   0  0  0  0  0  0  0  0  0  0  0  0
    6.8080  -12.1525   25.3201 C   0  0  0  0  0  0  0  0  0  0  0  0
    6.1647  -13.3716   25.3568 C   0  0  0  0  0  0  0  0  0  0  0  0
    6.6989  -14.4288   26.1040 C   0  0  0  0  0  0  0  0  0  0  0  0
   10.3579  -16.9039   27.8993 C   0  0  0  0  0  0  0  0  0  0  0  0
   10.5902  -18.2269   27.5550 O   0  0  0  0  0  0  0  0  0  0  0  0
   10.7534  -16.5286   29.0320 O   0  0  0  0  0  0  0  0  0  0  0  0
  2  1  1  0
  3  4  1  6
  3  5  1  0
  3  2  1  0
  5  6  1  1
  7  5  1  0
  7  8  2  0
  9 10  1  0
 10 12  1  0
 11 10  2  0
 13 12  1  6
 13 14  1  0
 14  7  1  0
 15 13  1  0
 16 15  2  0
 17 15  1  0
 18 17  1  0
 18 26  1  0
 18 19  1  1
 20 25  2  0
 20 19  1  0
 21 20  1  0
 22 23  1  0
 22 21  2  0
 23 24  2  0
 24 25  1  0
 26 27  1  0
 28 26  2  0
M  END
$$$$
