INF.pdb
     RDKit          3D

 28 28  0  0  1  0  0  0  0  0999 V2000
    7.9348  -11.6892   18.9566 C   0  0  0  0  0  0  0  0  0  0  0  0
    8.3664  -13.0044   18.3651 C   0  0  0  0  0  0  0  0  0  0  0  0
    8.4465  -14.0271   19.4508 C   0  0  2  0  0  0  0  0  0  0  0  0
    9.3100  -13.4937   20.5494 C   0  0  0  0  0  0  0  0  0  0  0  0
    8.8911  -15.3797   18.9425 C   0  0  2  0  0  0  0  0  0  0  0  0
    7.9814  -15.7780   17.9065 N   0  0  0  0  0  0  0  0  0  0  0  0
    8.8527  -16.3386   20.1017 C   0  0  0  0  0  0  0  0  0  0  0  0
    8.0954  -17.3414   20.0210 O   0  0  0  0  0  0  0  0  0  0  0  0
   11.6350  -20.4058   22.4062 N   0  0  0  0  0  0  0  0  0  0  0  0
   10.4881  -19.5424   22.4895 C   0  0  0  0  0  0  0  0  0  0  0  0
    9.6549  -19.8221   23.3709 O   0  0  0  0  0  0  0  0  0  0  0  0
   10.3610  -18.4029   21.5546 C   0  0  0  0  0  0  0  0  0  0  0  0
    9.8330  -17.1645   22.2214 C   0  0  2  0  0  0  0  0  0  0  0  0
    9.6476  -16.1139   21.2471 N   0  0  0  0  0  0  0  0  0  0  0  0
   10.6061  -16.7076   23.3939 C   0  0  0  0  0  0  0  0  0  0  0  0
   11.6918  -16.1015   23.2284 O   0  0  0  0  0  0  0  0  0  0  0  0
   10.1874  -16.9162   24.7362 N   0  0  0  0  0  0  0  0  0  0  0  0
    9.5815  -15.8955   25.5583 C   0  0  1  0  0  0  0  0  0  0  0  0
    8.4780  -15.1606   24.8250 C   0  0  0  0  0  0  0  0  0  0  0  0
    7.8007  -14.1663   25.6482 C   0  0  0  0  0  0  0  0  0  0  0  0
    6.4392  -14.1988   25.8276 C   0  0  0  0  0  0  0  0  0  0  0  0
    5.7840  -13.2658   26.6029 C   0  0  0  0  0  0  0  0  0  0  0  0
    6.4759  -12.2650   27.2267 C   0  0  0  0  0  0  0  0  0  0  0  0
    7.8440  -12.2090   27.0633 C   0  0  0  0  0  0  0  0  0  0  0  0
    8.4995  -13.1619   26.2734 C   0  0  0  0  0  0  0  0  0  0  0  0
    9.1210  -16.4282   26.8602 C   0  0  0  0  0  0  0  0  0  0  0  0
    8.2110  -17.4720   26.9336 O   0  0  0  0  0  0  0  0  0  0  0  0
    9.5380  -15.9539   27.9470 O   0  0  0  0  0  0  0  0  0  0  0  0
  2  1  1  0
  3  4  1  1
  3  5  1  0
  3  2  1  0
  5  6  1  6
  7  5  1  0
  7  8  2  0
  9 10  1  0
 10 12  1  0
 11 10  2  0
 13 12  1  6
 13 14  1  0
 14  7  1  0
 15 13  1  0
 16 15  2  0
 17 15  1  0
 18 17  1  0
 18 26  1  0
 18 19  1  6
 20 25  2  0
 20 19  1  0
 21 20  1  0
 22 23  1  0
 22 21  2  0
 23 24  2  0
 24 25  1  0
 26 27  1  0
 28 26  2  0
M  END
$$$$
