INF.pdb
     RDKit          3D

 28 28  0  0  1  0  0  0  0  0999 V2000
    7.1287  -12.8040   17.2718 C   0  0  0  0  0  0  0  0  0  0  0  0
    8.4744  -13.0808   17.8868 C   0  0  0  0  0  0  0  0  0  0  0  0
    8.2883  -13.8877   19.1300 C   0  0  2  0  0  0  0  0  0  0  0  0
    7.3365  -13.1673   20.0312 C   0  0  0  0  0  0  0  0  0  0  0  0
    9.5990  -14.2355   19.7980 C   0  0  2  0  0  0  0  0  0  0  0  0
   10.4687  -14.7827   18.7961 N   0  0  0  0  0  0  0  0  0  0  0  0
    9.3085  -15.2422   20.8781 C   0  0  0  0  0  0  0  0  0  0  0  0
    8.5107  -14.9177   21.7968 O   0  0  0  0  0  0  0  0  0  0  0  0
    9.2233  -19.7644   19.7802 N   0  0  0  0  0  0  0  0  0  0  0  0
   10.4047  -19.1141   20.2795 C   0  0  0  0  0  0  0  0  0  0  0  0
   11.3179  -18.9284   19.4543 O   0  0  0  0  0  0  0  0  0  0  0  0
   10.4725  -18.7117   21.7015 C   0  0  0  0  0  0  0  0  0  0  0  0
    9.7545  -17.4199   21.9714 C   0  0  2  0  0  0  0  0  0  0  0  0
    9.9178  -16.5161   20.8561 N   0  0  0  0  0  0  0  0  0  0  0  0
   10.0830  -16.7793   23.2609 C   0  0  0  0  0  0  0  0  0  0  0  0
   10.9732  -15.8970   23.3111 O   0  0  0  0  0  0  0  0  0  0  0  0
    9.4372  -17.1074   24.4840 N   0  0  0  0  0  0  0  0  0  0  0  0
    9.0149  -16.1298   25.4590 C   0  0  1  0  0  0  0  0  0  0  0  0
    8.0953  -15.0888   24.8537 C   0  0  0  0  0  0  0  0  0  0  0  0
    7.6253  -14.1027   25.8188 C   0  0  0  0  0  0  0  0  0  0  0  0
    8.4430  -13.6434   26.8226 C   0  0  0  0  0  0  0  0  0  0  0  0
    8.0134  -12.7110   27.7429 C   0  0  0  0  0  0  0  0  0  0  0  0
    6.7440  -12.2064   27.6867 C   0  0  0  0  0  0  0  0  0  0  0  0
    5.9022  -12.6504   26.6889 C   0  0  0  0  0  0  0  0  0  0  0  0
    6.3488  -13.5978   25.7591 C   0  0  0  0  0  0  0  0  0  0  0  0
    8.4225  -16.7595   26.6603 C   0  0  0  0  0  0  0  0  0  0  0  0
    8.9173  -16.5029   27.9300 O   0  0  0  0  0  0  0  0  0  0  0  0
    7.4491  -17.5501   26.5734 O   0  0  0  0  0  0  0  0  0  0  0  0
  2  1  1  0
  3  4  1  1
  3  5  1  0
  3  2  1  0
  5  6  1  6
  7  5  1  0
  7  8  2  0
  9 10  1  0
 10 12  1  0
 11 10  2  0
 13 12  1  6
 13 14  1  0
 14  7  1  0
 15 13  1  0
 16 15  2  0
 17 15  1  0
 18 17  1  0
 18 26  1  0
 18 19  1  6
 20 25  2  0
 20 19  1  0
 21 20  1  0
 22 23  1  0
 22 21  2  0
 23 24  2  0
 24 25  1  0
 26 27  1  0
 28 26  2  0
M  END
$$$$
