INF.pdb
     RDKit          3D

 28 28  0  0  1  0  0  0  0  0999 V2000
    6.9520  -11.8919   20.3956 C   0  0  0  0  0  0  0  0  0  0  0  0
    7.4430  -13.1257   19.6867 C   0  0  0  0  0  0  0  0  0  0  0  0
    8.0818  -14.0400   20.6803 C   0  0  2  0  0  0  0  0  0  0  0  0
    9.1381  -13.2819   21.4197 C   0  0  0  0  0  0  0  0  0  0  0  0
    8.5906  -15.3168   20.0509 C   0  0  2  0  0  0  0  0  0  0  0  0
    7.4801  -15.9605   19.4090 N   0  0  0  0  0  0  0  0  0  0  0  0
    9.1577  -16.1737   21.1503 C   0  0  0  0  0  0  0  0  0  0  0  0
    8.4092  -17.0369   21.6797 O   0  0  0  0  0  0  0  0  0  0  0  0
   12.7111  -19.5422   22.5543 N   0  0  0  0  0  0  0  0  0  0  0  0
   13.3418  -18.2509   22.5058 C   0  0  0  0  0  0  0  0  0  0  0  0
   14.4855  -18.1813   22.9921 O   0  0  0  0  0  0  0  0  0  0  0  0
   12.6231  -17.1082   21.9003 C   0  0  0  0  0  0  0  0  0  0  0  0
   11.1703  -17.0718   22.2813 C   0  0  2  0  0  0  0  0  0  0  0  0
   10.4953  -16.0091   21.5726 N   0  0  0  0  0  0  0  0  0  0  0  0
   10.9055  -17.0296   23.7336 C   0  0  0  0  0  0  0  0  0  0  0  0
   11.3753  -17.9214   24.4803 O   0  0  0  0  0  0  0  0  0  0  0  0
   10.1306  -16.0146   24.3580 N   0  0  0  0  0  0  0  0  0  0  0  0
    9.9262  -15.9205   25.7842 C   0  0  1  0  0  0  0  0  0  0  0  0
    9.6587  -14.4955   26.2239 C   0  0  0  0  0  0  0  0  0  0  0  0
    8.3910  -13.9685   25.7338 C   0  0  0  0  0  0  0  0  0  0  0  0
    7.3307  -13.7616   26.5823 C   0  0  0  0  0  0  0  0  0  0  0  0
    6.1255  -13.2639   26.1343 C   0  0  0  0  0  0  0  0  0  0  0  0
    5.9432  -12.9561   24.8147 C   0  0  0  0  0  0  0  0  0  0  0  0
    6.9915  -13.1544   23.9411 C   0  0  0  0  0  0  0  0  0  0  0  0
    8.2115  -13.6604   24.4069 C   0  0  0  0  0  0  0  0  0  0  0  0
    8.8793  -16.8520   26.2605 C   0  0  0  0  0  0  0  0  0  0  0  0
    8.6351  -17.0353   27.6132 O   0  0  0  0  0  0  0  0  0  0  0  0
    8.1731  -17.5111   25.4562 O   0  0  0  0  0  0  0  0  0  0  0  0
  2  1  1  0
  3  4  1  6
  3  5  1  0
  3  2  1  0
  5  6  1  1
  7  5  1  0
  7  8  2  0
  9 10  1  0
 10 12  1  0
 11 10  2  0
 13 12  1  1
 13 14  1  0
 14  7  1  0
 15 13  1  0
 16 15  2  0
 17 15  1  0
 18 17  1  0
 18 26  1  0
 18 19  1  6
 20 25  2  0
 20 19  1  0
 21 20  1  0
 22 23  1  0
 22 21  2  0
 23 24  2  0
 24 25  1  0
 26 27  1  0
 28 26  2  0
M  END
$$$$
