INF.pdb
     RDKit          3D

 28 28  0  0  1  0  0  0  0  0999 V2000
    7.0971  -12.4602   17.5913 C   0  0  0  0  0  0  0  0  0  0  0  0
    7.8906  -13.5269   16.8855 C   0  0  0  0  0  0  0  0  0  0  0  0
    8.3206  -14.5559   17.8792 C   0  0  2  0  0  0  0  0  0  0  0  0
    9.1514  -13.8903   18.9299 C   0  0  0  0  0  0  0  0  0  0  0  0
    9.0072  -15.7369   17.2317 C   0  0  2  0  0  0  0  0  0  0  0  0
    8.1413  -16.2349   16.2012 N   0  0  0  0  0  0  0  0  0  0  0  0
    9.2381  -16.7725   18.2988 C   0  0  0  0  0  0  0  0  0  0  0  0
    8.2621  -17.4787   18.6655 O   0  0  0  0  0  0  0  0  0  0  0  0
   10.8921  -20.0282   21.6849 N   0  0  0  0  0  0  0  0  0  0  0  0
   11.8600  -19.9528   20.6242 C   0  0  0  0  0  0  0  0  0  0  0  0
   12.7060  -20.8652   20.5889 O   0  0  0  0  0  0  0  0  0  0  0  0
   11.8031  -18.8318   19.6604 C   0  0  0  0  0  0  0  0  0  0  0  0
   10.7065  -17.8544   19.9751 C   0  0  2  0  0  0  0  0  0  0  0  0
   10.5184  -16.9429   18.8700 N   0  0  0  0  0  0  0  0  0  0  0  0
   10.8502  -17.1466   21.2633 C   0  0  0  0  0  0  0  0  0  0  0  0
   11.7835  -16.3238   21.4231 O   0  0  0  0  0  0  0  0  0  0  0  0
    9.9743  -17.3431   22.3655 N   0  0  0  0  0  0  0  0  0  0  0  0
   10.0578  -16.6025   23.6021 C   0  0  1  0  0  0  0  0  0  0  0  0
    8.7339  -15.9632   23.9684 C   0  0  0  0  0  0  0  0  0  0  0  0
    8.2542  -15.0164   22.9692 C   0  0  0  0  0  0  0  0  0  0  0  0
    7.3276  -15.3865   22.0250 C   0  0  0  0  0  0  0  0  0  0  0  0
    6.8640  -14.5029   21.0736 C   0  0  0  0  0  0  0  0  0  0  0  0
    7.3165  -13.2132   21.0377 C   0  0  0  0  0  0  0  0  0  0  0  0
    8.2471  -12.8152   21.9742 C   0  0  0  0  0  0  0  0  0  0  0  0
    8.7113  -13.7210   22.9362 C   0  0  0  0  0  0  0  0  0  0  0  0
   10.6006  -17.4227   24.7082 C   0  0  0  0  0  0  0  0  0  0  0  0
   10.8120  -18.7854   24.5620 O   0  0  0  0  0  0  0  0  0  0  0  0
   10.8901  -16.9138   25.8206 O   0  0  0  0  0  0  0  0  0  0  0  0
  2  1  1  0
  3  4  1  1
  3  5  1  0
  3  2  1  0
  5  6  1  6
  7  5  1  0
  7  8  2  0
  9 10  1  0
 10 12  1  0
 11 10  2  0
 13 12  1  6
 13 14  1  0
 14  7  1  0
 15 13  1  0
 16 15  2  0
 17 15  1  0
 18 17  1  0
 18 26  1  0
 18 19  1  1
 20 25  2  0
 20 19  1  0
 21 20  1  0
 22 23  1  0
 22 21  2  0
 23 24  2  0
 24 25  1  0
 26 27  1  0
 28 26  2  0
M  END
$$$$
