DEA.pdb
     RDKit          3D

 23 22  0  0  1  0  0  0  0  0999 V2000
   17.4167  -12.0255  -17.0995 N   0  0  0  0  0  0  0  0  0  0  0  0
   17.0471  -11.0109  -16.1324 C   0  0  1  0  0  0  0  0  0  0  0  0
   17.0138  -11.5806  -14.7325 C   0  0  0  0  0  0  0  0  0  0  0  0
   15.8548  -12.4863  -14.5447 C   0  0  0  0  0  0  0  0  0  0  0  0
   15.8117  -13.5389  -15.2112 O   0  0  0  0  0  0  0  0  0  0  0  0
   17.9868   -9.8908  -16.2703 C   0  0  0  0  0  0  0  0  0  0  0  0
   19.2072  -10.0835  -16.5098 O   0  0  0  0  0  0  0  0  0  0  0  0
   14.8297  -12.2024  -13.6615 O   0  0  0  0  0  0  0  0  0  0  0  0
   17.6022   -8.5121  -16.1463 N   0  0  0  0  0  0  0  0  0  0  0  0
   18.4836   -7.4023  -16.2417 C   0  0  1  0  0  0  0  0  0  0  0  0
   17.6666   -6.1156  -16.3752 C   0  0  0  0  0  0  0  0  0  0  0  0
   18.5962   -4.9369  -16.5741 C   0  0  0  0  0  0  0  0  0  0  0  0
   17.8180   -3.6861  -16.6951 C   0  0  0  0  0  0  0  0  0  0  0  0
   18.2686   -2.6126  -16.2089 O   0  0  0  0  0  0  0  0  0  0  0  0
   19.3824   -7.2259  -15.0830 C   0  0  0  0  0  0  0  0  0  0  0  0
   18.9492   -7.1576  -13.9022 O   0  0  0  0  0  0  0  0  0  0  0  0
   16.6069   -3.7067  -17.3387 O   0  0  0  0  0  0  0  0  0  0  0  0
   22.9920   -7.8332  -14.7016 C   0  0  0  0  0  0  0  0  0  0  0  0
   21.7237   -7.1051  -14.3041 C   0  0  2  0  0  0  0  0  0  0  0  0
   20.7745   -7.1364  -15.3722 N   0  0  0  0  0  0  0  0  0  0  0  0
   21.9931   -5.7081  -13.9294 C   0  0  0  0  0  0  0  0  0  0  0  0
   22.5442   -5.4316  -12.6933 O   0  0  0  0  0  0  0  0  0  0  0  0
   21.7308   -4.7671  -14.7131 O   0  0  0  0  0  0  0  0  0  0  0  0
  2  1  1  6
  2  6  1  0
  3  2  1  0
  3  4  1  0
  4  8  1  0
  5  4  2  0
  6  7  2  0
  9 10  1  0
  9  6  1  0
 10 15  1  0
 11 12  1  0
 10 11  1  1
 12 13  1  0
 13 14  2  0
 15 16  2  0
 17 13  1  0
 19 18  1  6
 19 21  1  0
 20 15  1  0
 20 19  1  0
 21 23  2  0
 21 22  1  0
M  END
$$$$
