DEA.pdb
     RDKit          3D

 23 22  0  0  1  0  0  0  0  0999 V2000
   19.4754  -12.4175  -16.5985 N   0  0  0  0  0  0  0  0  0  0  0  0
   18.5854  -11.2865  -16.4248 C   0  0  1  0  0  0  0  0  0  0  0  0
   17.9279  -11.3161  -15.0638 C   0  0  0  0  0  0  0  0  0  0  0  0
   16.4983  -11.6976  -15.1622 C   0  0  0  0  0  0  0  0  0  0  0  0
   16.0781  -12.1451  -16.2472 O   0  0  0  0  0  0  0  0  0  0  0  0
   19.3605  -10.0610  -16.6573 C   0  0  0  0  0  0  0  0  0  0  0  0
   20.6124  -10.0899  -16.7828 O   0  0  0  0  0  0  0  0  0  0  0  0
   15.6247  -11.5736  -14.0978 O   0  0  0  0  0  0  0  0  0  0  0  0
   18.7696   -8.7553  -16.7589 N   0  0  0  0  0  0  0  0  0  0  0  0
   19.4645   -7.5642  -17.0992 C   0  0  1  0  0  0  0  0  0  0  0  0
   18.5351   -6.6436  -17.8927 C   0  0  0  0  0  0  0  0  0  0  0  0
   19.3112   -5.4470  -18.4014 C   0  0  0  0  0  0  0  0  0  0  0  0
   18.4329   -4.5716  -19.2057 C   0  0  0  0  0  0  0  0  0  0  0  0
   18.6622   -4.4051  -20.4351 O   0  0  0  0  0  0  0  0  0  0  0  0
   19.9609   -6.7874  -15.9451 C   0  0  0  0  0  0  0  0  0  0  0  0
   19.2382   -6.5370  -14.9442 O   0  0  0  0  0  0  0  0  0  0  0  0
   17.3716   -3.9460  -18.6025 O   0  0  0  0  0  0  0  0  0  0  0  0
   23.3932   -5.5193  -15.1035 C   0  0  0  0  0  0  0  0  0  0  0  0
   21.8949   -5.6468  -14.9149 C   0  0  2  0  0  0  0  0  0  0  0  0
   21.3088   -6.3330  -16.0232 N   0  0  0  0  0  0  0  0  0  0  0  0
   21.2526   -4.3326  -14.7574 C   0  0  0  0  0  0  0  0  0  0  0  0
   21.1749   -3.7615  -13.5020 O   0  0  0  0  0  0  0  0  0  0  0  0
   20.7758   -3.7245  -15.7430 O   0  0  0  0  0  0  0  0  0  0  0  0
  2  1  1  1
  2  6  1  0
  3  2  1  0
  3  4  1  0
  4  8  1  0
  5  4  2  0
  6  7  2  0
  9 10  1  0
  9  6  1  0
 10 15  1  0
 11 12  1  0
 10 11  1  1
 12 13  1  0
 13 14  2  0
 15 16  2  0
 17 13  1  0
 19 18  1  6
 19 21  1  0
 20 15  1  0
 20 19  1  0
 21 23  2  0
 21 22  1  0
M  END
$$$$
