DEA.pdb
     RDKit          3D

 23 22  0  0  1  0  0  0  0  0999 V2000
   16.8208  -10.4160  -16.4755 N   0  0  0  0  0  0  0  0  0  0  0  0
   17.2599  -10.7762  -15.1418 C   0  0  1  0  0  0  0  0  0  0  0  0
   17.3772  -12.2762  -14.9946 C   0  0  0  0  0  0  0  0  0  0  0  0
   16.0426  -12.9174  -14.9126 C   0  0  0  0  0  0  0  0  0  0  0  0
   15.0331  -12.1860  -14.9142 O   0  0  0  0  0  0  0  0  0  0  0  0
   18.5237  -10.0765  -14.8772 C   0  0  0  0  0  0  0  0  0  0  0  0
   19.1313  -10.2099  -13.7833 O   0  0  0  0  0  0  0  0  0  0  0  0
   15.8844  -14.2887  -14.8351 O   0  0  0  0  0  0  0  0  0  0  0  0
   19.1591   -9.2006  -15.8223 N   0  0  0  0  0  0  0  0  0  0  0  0
   20.3792   -8.5062  -15.6062 C   0  0  1  0  0  0  0  0  0  0  0  0
   21.2343   -8.5765  -16.8730 C   0  0  0  0  0  0  0  0  0  0  0  0
   21.7468   -9.9880  -17.0675 C   0  0  0  0  0  0  0  0  0  0  0  0
   22.6136  -10.0577  -18.2628 C   0  0  0  0  0  0  0  0  0  0  0  0
   22.8695   -9.0110  -18.9190 O   0  0  0  0  0  0  0  0  0  0  0  0
   20.2248   -7.0769  -15.2671 C   0  0  0  0  0  0  0  0  0  0  0  0
   19.3026   -6.3684  -15.7511 O   0  0  0  0  0  0  0  0  0  0  0  0
   23.1331  -11.2674  -18.6475 O   0  0  0  0  0  0  0  0  0  0  0  0
   21.8715   -4.8982  -12.7187 C   0  0  0  0  0  0  0  0  0  0  0  0
   21.1375   -5.1492  -14.0206 C   0  0  2  0  0  0  0  0  0  0  0  0
   21.1797   -6.5374  -14.3580 N   0  0  0  0  0  0  0  0  0  0  0  0
   21.7035   -4.3594  -15.1253 C   0  0  0  0  0  0  0  0  0  0  0  0
   21.4093   -3.0129  -15.2169 O   0  0  0  0  0  0  0  0  0  0  0  0
   22.4471   -4.8887  -15.9828 O   0  0  0  0  0  0  0  0  0  0  0  0
  2  1  1  6
  2  6  1  0
  3  2  1  0
  3  4  1  0
  4  8  1  0
  5  4  2  0
  6  7  2  0
  9 10  1  0
  9  6  1  0
 10 15  1  0
 11 12  1  0
 10 11  1  6
 12 13  1  0
 13 14  2  0
 15 16  2  0
 17 13  1  0
 19 18  1  1
 19 21  1  0
 20 15  1  0
 20 19  1  0
 21 23  2  0
 21 22  1  0
M  END
$$$$
