DEA.pdb
     RDKit          3D

 23 22  0  0  1  0  0  0  0  0999 V2000
   24.9471  -25.2326  -15.0198 N   0  0  0  0  0  0  0  0  0  0  0  0
   24.7886  -24.7509  -16.3778 C   0  0  1  0  0  0  0  0  0  0  0  0
   25.5462  -25.6207  -17.3550 C   0  0  0  0  0  0  0  0  0  0  0  0
   26.9831  -25.7085  -16.9994 C   0  0  0  0  0  0  0  0  0  0  0  0
   27.3809  -25.0995  -15.9870 O   0  0  0  0  0  0  0  0  0  0  0  0
   23.3508  -24.6842  -16.6693 C   0  0  0  0  0  0  0  0  0  0  0  0
   22.9230  -24.2306  -17.7624 O   0  0  0  0  0  0  0  0  0  0  0  0
   27.8874  -26.4380  -17.7489 O   0  0  0  0  0  0  0  0  0  0  0  0
   22.3340  -25.1209  -15.7530 N   0  0  0  0  0  0  0  0  0  0  0  0
   20.9381  -25.1221  -16.0157 C   0  0  1  0  0  0  0  0  0  0  0  0
   20.3182  -26.4053  -15.4590 C   0  0  0  0  0  0  0  0  0  0  0  0
   18.8717  -26.5066  -15.8952 C   0  0  0  0  0  0  0  0  0  0  0  0
   18.2461  -27.7146  -15.3171 C   0  0  0  0  0  0  0  0  0  0  0  0
   18.9490  -28.5461  -14.6797 O   0  0  0  0  0  0  0  0  0  0  0  0
   20.1968  -23.9907  -15.4224 C   0  0  0  0  0  0  0  0  0  0  0  0
   20.3340  -23.6580  -14.2152 O   0  0  0  0  0  0  0  0  0  0  0  0
   16.8997  -27.9192  -15.4812 O   0  0  0  0  0  0  0  0  0  0  0  0
   18.1105  -21.3234  -17.0266 C   0  0  0  0  0  0  0  0  0  0  0  0
   18.6806  -22.0874  -15.8486 C   0  0  2  0  0  0  0  0  0  0  0  0
   19.3125  -23.2902  -16.2923 N   0  0  0  0  0  0  0  0  0  0  0  0
   17.6423  -22.4160  -14.8594 C   0  0  0  0  0  0  0  0  0  0  0  0
   17.2363  -21.4524  -13.9566 O   0  0  0  0  0  0  0  0  0  0  0  0
   17.1218  -23.5544  -14.8233 O   0  0  0  0  0  0  0  0  0  0  0  0
  2  1  1  1
  2  6  1  0
  3  2  1  0
  3  4  1  0
  4  8  1  0
  5  4  2  0
  6  7  2  0
  9 10  1  0
  9  6  1  0
 10 15  1  0
 11 12  1  0
 10 11  1  1
 12 13  1  0
 13 14  2  0
 15 16  2  0
 17 13  1  0
 19 18  1  6
 19 21  1  0
 20 15  1  0
 20 19  1  0
 21 23  2  0
 21 22  1  0
M  END
$$$$
