DEA.pdb
     RDKit          3D

 23 22  0  0  1  0  0  0  0  0999 V2000
   16.3610  -10.8954  -16.9722 N   0  0  0  0  0  0  0  0  0  0  0  0
   16.2955   -9.9844  -15.8466 C   0  0  1  0  0  0  0  0  0  0  0  0
   16.3889  -10.7322  -14.5360 C   0  0  0  0  0  0  0  0  0  0  0  0
   15.1541  -11.5077  -14.2668 C   0  0  0  0  0  0  0  0  0  0  0  0
   14.1404  -11.2632  -14.9499 O   0  0  0  0  0  0  0  0  0  0  0  0
   17.3595   -8.9855  -16.0105 C   0  0  0  0  0  0  0  0  0  0  0  0
   18.4469   -9.2714  -16.5758 O   0  0  0  0  0  0  0  0  0  0  0  0
   15.0923  -12.4848  -13.2905 O   0  0  0  0  0  0  0  0  0  0  0  0
   17.2522   -7.6287  -15.5503 N   0  0  0  0  0  0  0  0  0  0  0  0
   18.2588   -6.6353  -15.6821 C   0  0  1  0  0  0  0  0  0  0  0  0
   17.6005   -5.2608  -15.8177 C   0  0  0  0  0  0  0  0  0  0  0  0
   18.6639   -4.2002  -16.0105 C   0  0  0  0  0  0  0  0  0  0  0  0
   18.0384   -2.8691  -16.1574 C   0  0  0  0  0  0  0  0  0  0  0  0
   18.2645   -1.9677  -15.3041 O   0  0  0  0  0  0  0  0  0  0  0  0
   19.1995   -6.5544  -14.5463 C   0  0  0  0  0  0  0  0  0  0  0  0
   18.8058   -6.4173  -13.3576 O   0  0  0  0  0  0  0  0  0  0  0  0
   17.2140   -2.6273  -17.2266 O   0  0  0  0  0  0  0  0  0  0  0  0
   22.8129   -7.3644  -14.2639 C   0  0  0  0  0  0  0  0  0  0  0  0
   21.5600   -6.6351  -13.8221 C   0  0  2  0  0  0  0  0  0  0  0  0
   20.5848   -6.6400  -14.8671 N   0  0  0  0  0  0  0  0  0  0  0  0
   21.8486   -5.2473  -13.4283 C   0  0  0  0  0  0  0  0  0  0  0  0
   22.4242   -4.9971  -12.1977 O   0  0  0  0  0  0  0  0  0  0  0  0
   21.5808   -4.2906  -14.1908 O   0  0  0  0  0  0  0  0  0  0  0  0
  2  1  1  6
  2  6  1  0
  3  2  1  0
  3  4  1  0
  4  8  1  0
  5  4  2  0
  6  7  2  0
  9 10  1  0
  9  6  1  0
 10 15  1  0
 11 12  1  0
 10 11  1  1
 12 13  1  0
 13 14  2  0
 15 16  2  0
 17 13  1  0
 19 18  1  6
 19 21  1  0
 20 15  1  0
 20 19  1  0
 21 23  2  0
 21 22  1  0
M  END
$$$$
