DEA.pdb
     RDKit          3D

 23 22  0  0  1  0  0  0  0  0999 V2000
   20.0597   -8.7052  -18.3122 N   0  0  0  0  0  0  0  0  0  0  0  0
   18.9386   -9.0188  -17.4485 C   0  0  1  0  0  0  0  0  0  0  0  0
   19.2022  -10.2753  -16.6503 C   0  0  0  0  0  0  0  0  0  0  0  0
   19.2614  -11.4701  -17.5265 C   0  0  0  0  0  0  0  0  0  0  0  0
   19.7411  -12.5225  -17.0612 O   0  0  0  0  0  0  0  0  0  0  0  0
   18.6794   -7.8481  -16.6006 C   0  0  0  0  0  0  0  0  0  0  0  0
   17.7163   -7.8245  -15.7908 O   0  0  0  0  0  0  0  0  0  0  0  0
   18.8053  -11.4536  -18.8316 O   0  0  0  0  0  0  0  0  0  0  0  0
   19.4840   -6.6581  -16.6227 N   0  0  0  0  0  0  0  0  0  0  0  0
   19.2955   -5.5242  -15.7883 C   0  0  1  0  0  0  0  0  0  0  0  0
   20.6441   -5.0884  -15.2120 C   0  0  0  0  0  0  0  0  0  0  0  0
   20.8403   -5.7064  -13.8437 C   0  0  0  0  0  0  0  0  0  0  0  0
   22.1274   -5.2684  -13.2639 C   0  0  0  0  0  0  0  0  0  0  0  0
   22.8813   -4.4931  -13.9138 O   0  0  0  0  0  0  0  0  0  0  0  0
   18.7143   -4.3479  -16.4667 C   0  0  0  0  0  0  0  0  0  0  0  0
   19.0815   -3.9871  -17.6164 O   0  0  0  0  0  0  0  0  0  0  0  0
   22.4901   -5.7127  -12.0179 O   0  0  0  0  0  0  0  0  0  0  0  0
   15.6516   -2.3686  -15.8226 C   0  0  0  0  0  0  0  0  0  0  0  0
   17.0655   -2.5120  -16.3490 C   0  0  2  0  0  0  0  0  0  0  0  0
   17.7100   -3.6375  -15.7483 N   0  0  0  0  0  0  0  0  0  0  0  0
   17.8635   -1.3011  -16.1014 C   0  0  0  0  0  0  0  0  0  0  0  0
   17.6774   -0.1906  -16.9016 O   0  0  0  0  0  0  0  0  0  0  0  0
   18.7081   -1.2619  -15.1775 O   0  0  0  0  0  0  0  0  0  0  0  0
  2  1  1  1
  2  6  1  0
  3  2  1  0
  3  4  1  0
  4  8  1  0
  5  4  2  0
  6  7  2  0
  9 10  1  0
  9  6  1  0
 10 15  1  0
 11 12  1  0
 10 11  1  6
 12 13  1  0
 13 14  2  0
 15 16  2  0
 17 13  1  0
 19 18  1  1
 19 21  1  0
 20 15  1  0
 20 19  1  0
 21 23  2  0
 21 22  1  0
M  END
$$$$
