DEA.pdb
     RDKit          3D

 23 22  0  0  1  0  0  0  0  0999 V2000
   17.3384  -12.0447  -16.9122 N   0  0  0  0  0  0  0  0  0  0  0  0
   17.1138  -11.0870  -15.8475 C   0  0  1  0  0  0  0  0  0  0  0  0
   17.2888  -11.7311  -14.4910 C   0  0  0  0  0  0  0  0  0  0  0  0
   16.2600  -12.7714  -14.2496 C   0  0  0  0  0  0  0  0  0  0  0  0
   16.6390  -13.9230  -13.9592 O   0  0  0  0  0  0  0  0  0  0  0  0
   18.0207   -9.9518  -16.0612 C   0  0  0  0  0  0  0  0  0  0  0  0
   19.1733  -10.1136  -16.5399 O   0  0  0  0  0  0  0  0  0  0  0  0
   14.9058  -12.5065  -14.3357 O   0  0  0  0  0  0  0  0  0  0  0  0
   17.6775   -8.5920  -15.7494 N   0  0  0  0  0  0  0  0  0  0  0  0
   18.5172   -7.4653  -15.9568 C   0  0  1  0  0  0  0  0  0  0  0  0
   17.6545   -6.2117  -16.1147 C   0  0  0  0  0  0  0  0  0  0  0  0
   18.5378   -5.0134  -16.3918 C   0  0  0  0  0  0  0  0  0  0  0  0
   17.7111   -3.8076  -16.6098 C   0  0  0  0  0  0  0  0  0  0  0  0
   16.4544   -3.8803  -16.5264 O   0  0  0  0  0  0  0  0  0  0  0  0
   19.4733   -7.1978  -14.8633 C   0  0  0  0  0  0  0  0  0  0  0  0
   19.1047   -7.0743  -13.6651 O   0  0  0  0  0  0  0  0  0  0  0  0
   18.3237   -2.6157  -16.9021 O   0  0  0  0  0  0  0  0  0  0  0  0
   23.2075   -7.3033  -14.7703 C   0  0  0  0  0  0  0  0  0  0  0  0
   21.8448   -6.9182  -14.2303 C   0  0  2  0  0  0  0  0  0  0  0  0
   20.8435   -7.0857  -15.2364 N   0  0  0  0  0  0  0  0  0  0  0  0
   21.8244   -5.5292  -13.7458 C   0  0  0  0  0  0  0  0  0  0  0  0
   21.2410   -4.5479  -14.5234 O   0  0  0  0  0  0  0  0  0  0  0  0
   22.3275   -5.2233  -12.6404 O   0  0  0  0  0  0  0  0  0  0  0  0
  2  1  1  6
  2  6  1  0
  3  2  1  0
  3  4  1  0
  4  8  1  0
  5  4  2  0
  6  7  2  0
  9 10  1  0
  9  6  1  0
 10 15  1  0
 11 12  1  0
 10 11  1  1
 12 13  1  0
 13 14  2  0
 15 16  2  0
 17 13  1  0
 19 18  1  6
 19 21  1  0
 20 15  1  0
 20 19  1  0
 21 23  2  0
 21 22  1  0
M  END
$$$$
