DEA.pdb
     RDKit          3D

 23 22  0  0  1  0  0  0  0  0999 V2000
   17.3163  -10.7774  -16.9076 N   0  0  0  0  0  0  0  0  0  0  0  0
   18.0526  -10.8252  -15.6599 C   0  0  1  0  0  0  0  0  0  0  0  0
   18.7057  -12.1747  -15.4654 C   0  0  0  0  0  0  0  0  0  0  0  0
   17.6999  -13.2259  -15.1788 C   0  0  0  0  0  0  0  0  0  0  0  0
   16.5198  -12.8776  -14.9788 O   0  0  0  0  0  0  0  0  0  0  0  0
   19.0185   -9.7190  -15.6619 C   0  0  0  0  0  0  0  0  0  0  0  0
   19.8309   -9.5552  -14.7148 O   0  0  0  0  0  0  0  0  0  0  0  0
   18.0271  -14.5683  -15.1270 O   0  0  0  0  0  0  0  0  0  0  0  0
   19.1160   -8.7522  -16.7202 N   0  0  0  0  0  0  0  0  0  0  0  0
   20.1054   -7.7377  -16.8166 C   0  0  1  0  0  0  0  0  0  0  0  0
   20.0768   -7.1329  -18.2216 C   0  0  0  0  0  0  0  0  0  0  0  0
   21.2381   -6.1761  -18.3913 C   0  0  0  0  0  0  0  0  0  0  0  0
   21.2134   -5.5755  -19.7416 C   0  0  0  0  0  0  0  0  0  0  0  0
   20.6133   -4.4828  -19.9357 O   0  0  0  0  0  0  0  0  0  0  0  0
   19.9418   -6.6225  -15.8620 C   0  0  0  0  0  0  0  0  0  0  0  0
   18.8293   -6.0652  -15.6658 O   0  0  0  0  0  0  0  0  0  0  0  0
   21.8472   -6.2170  -20.7751 O   0  0  0  0  0  0  0  0  0  0  0  0
   22.1407   -5.3372  -13.1587 C   0  0  0  0  0  0  0  0  0  0  0  0
   21.0333   -5.1784  -14.1810 C   0  0  2  0  0  0  0  0  0  0  0  0
   21.1155   -6.2070  -15.1700 N   0  0  0  0  0  0  0  0  0  0  0  0
   21.0836   -3.8628  -14.8375 C   0  0  0  0  0  0  0  0  0  0  0  0
   20.7117   -2.7365  -14.1294 O   0  0  0  0  0  0  0  0  0  0  0  0
   21.4580   -3.7485  -16.0272 O   0  0  0  0  0  0  0  0  0  0  0  0
  2  1  1  6
  2  6  1  0
  3  2  1  0
  3  4  1  0
  4  8  1  0
  5  4  2  0
  6  7  2  0
  9 10  1  0
  9  6  1  0
 10 15  1  0
 11 12  1  0
 10 11  1  6
 12 13  1  0
 13 14  2  0
 15 16  2  0
 17 13  1  0
 19 18  1  1
 19 21  1  0
 20 15  1  0
 20 19  1  0
 21 23  2  0
 21 22  1  0
M  END
$$$$
