DEA.pdb
     RDKit          3D

 23 22  0  0  1  0  0  0  0  0999 V2000
   22.6897  -12.4786  -18.7723 N   0  0  0  0  0  0  0  0  0  0  0  0
   23.2826  -11.5472  -17.8329 C   0  0  1  0  0  0  0  0  0  0  0  0
   24.6700  -11.1396  -18.2738 C   0  0  0  0  0  0  0  0  0  0  0  0
   25.5851  -12.3053  -18.3257 C   0  0  0  0  0  0  0  0  0  0  0  0
   25.4863  -13.1757  -17.4388 O   0  0  0  0  0  0  0  0  0  0  0  0
   22.3704  -10.4051  -17.6915 C   0  0  0  0  0  0  0  0  0  0  0  0
   21.7458   -9.9376  -18.6790 O   0  0  0  0  0  0  0  0  0  0  0  0
   26.5361  -12.4555  -19.3181 O   0  0  0  0  0  0  0  0  0  0  0  0
   22.1192   -9.7395  -16.4432 N   0  0  0  0  0  0  0  0  0  0  0  0
   21.2587   -8.6234  -16.2668 C   0  0  1  0  0  0  0  0  0  0  0  0
   20.0638   -9.0352  -15.4045 C   0  0  0  0  0  0  0  0  0  0  0  0
   19.0453   -7.9152  -15.3718 C   0  0  0  0  0  0  0  0  0  0  0  0
   17.8938   -8.2950  -14.5266 C   0  0  0  0  0  0  0  0  0  0  0  0
   16.9419   -7.4848  -14.3552 O   0  0  0  0  0  0  0  0  0  0  0  0
   21.8851   -7.4581  -15.6100 C   0  0  0  0  0  0  0  0  0  0  0  0
   22.6471   -7.5787  -14.6143 O   0  0  0  0  0  0  0  0  0  0  0  0
   17.8729   -9.5319  -13.9342 O   0  0  0  0  0  0  0  0  0  0  0  0
   21.8224   -3.7908  -16.4420 C   0  0  0  0  0  0  0  0  0  0  0  0
   22.1450   -5.0015  -15.5895 C   0  0  2  0  0  0  0  0  0  0  0  0
   21.5806   -6.1819  -16.1649 N   0  0  0  0  0  0  0  0  0  0  0  0
   21.6519   -4.8442  -14.2124 C   0  0  0  0  0  0  0  0  0  0  0  0
   20.4092   -5.3446  -13.8754 O   0  0  0  0  0  0  0  0  0  0  0  0
   22.3408   -4.2642  -13.3420 O   0  0  0  0  0  0  0  0  0  0  0  0
  2  1  1  6
  2  6  1  0
  3  2  1  0
  3  4  1  0
  4  8  1  0
  5  4  2  0
  6  7  2  0
  9 10  1  0
  9  6  1  0
 10 15  1  0
 11 12  1  0
 10 11  1  1
 12 13  1  0
 13 14  2  0
 15 16  2  0
 17 13  1  0
 19 18  1  6
 19 21  1  0
 20 15  1  0
 20 19  1  0
 21 23  2  0
 21 22  1  0
M  END
$$$$
