DEA.pdb
     RDKit          3D

 23 22  0  0  1  0  0  0  0  0999 V2000
   17.1952  -11.0587  -15.6410 N   0  0  0  0  0  0  0  0  0  0  0  0
   16.7626   -9.8037  -16.2235 C   0  0  1  0  0  0  0  0  0  0  0  0
   15.6364   -9.1919  -15.4217 C   0  0  0  0  0  0  0  0  0  0  0  0
   14.4523  -10.0838  -15.3847 C   0  0  0  0  0  0  0  0  0  0  0  0
   13.8964  -10.3751  -16.4618 O   0  0  0  0  0  0  0  0  0  0  0  0
   17.9342   -8.9241  -16.3245 C   0  0  0  0  0  0  0  0  0  0  0  0
   19.0753   -9.3794  -16.5975 O   0  0  0  0  0  0  0  0  0  0  0  0
   13.9502  -10.5979  -14.2035 O   0  0  0  0  0  0  0  0  0  0  0  0
   17.8790   -7.5024  -16.1251 N   0  0  0  0  0  0  0  0  0  0  0  0
   18.9722   -6.6088  -16.2798 C   0  0  1  0  0  0  0  0  0  0  0  0
   18.4938   -5.3394  -16.9872 C   0  0  0  0  0  0  0  0  0  0  0  0
   18.1944   -5.6443  -18.4399 C   0  0  0  0  0  0  0  0  0  0  0  0
   17.5921   -4.4651  -19.0968 C   0  0  0  0  0  0  0  0  0  0  0  0
   17.4172   -3.3995  -18.4443 O   0  0  0  0  0  0  0  0  0  0  0  0
   19.6082   -6.1861  -15.0155 C   0  0  0  0  0  0  0  0  0  0  0  0
   18.9387   -5.7583  -14.0380 O   0  0  0  0  0  0  0  0  0  0  0  0
   17.2277   -4.5432  -20.4169 O   0  0  0  0  0  0  0  0  0  0  0  0
   22.9489   -6.8582  -13.6030 C   0  0  0  0  0  0  0  0  0  0  0  0
   21.7157   -5.9884  -13.7419 C   0  0  2  0  0  0  0  0  0  0  0  0
   21.0280   -6.2879  -14.9585 N   0  0  0  0  0  0  0  0  0  0  0  0
   22.0534   -4.5568  -13.7100 C   0  0  0  0  0  0  0  0  0  0  0  0
   21.8281   -3.7815  -14.8309 O   0  0  0  0  0  0  0  0  0  0  0  0
   22.5415   -4.0311  -12.6835 O   0  0  0  0  0  0  0  0  0  0  0  0
  2  1  1  1
  2  6  1  0
  3  2  1  0
  3  4  1  0
  4  8  1  0
  5  4  2  0
  6  7  2  0
  9 10  1  0
  9  6  1  0
 10 15  1  0
 11 12  1  0
 10 11  1  1
 12 13  1  0
 13 14  2  0
 15 16  2  0
 17 13  1  0
 19 18  1  6
 19 21  1  0
 20 15  1  0
 20 19  1  0
 21 23  2  0
 21 22  1  0
M  END
$$$$
