DEA.pdb
     RDKit          3D

 23 22  0  0  1  0  0  0  0  0999 V2000
   20.7195  -10.2862  -16.5369 N   0  0  0  0  0  0  0  0  0  0  0  0
   19.2838  -10.0882  -16.5070 C   0  0  1  0  0  0  0  0  0  0  0  0
   18.6093  -11.1294  -15.6430 C   0  0  0  0  0  0  0  0  0  0  0  0
   18.8263  -12.4965  -16.1749 C   0  0  0  0  0  0  0  0  0  0  0  0
   18.1421  -12.8689  -17.1481 O   0  0  0  0  0  0  0  0  0  0  0  0
   19.0257   -8.7157  -16.0527 C   0  0  0  0  0  0  0  0  0  0  0  0
   18.1168   -8.4596  -15.2208 O   0  0  0  0  0  0  0  0  0  0  0  0
   19.7556  -13.3632  -15.6300 O   0  0  0  0  0  0  0  0  0  0  0  0
   19.7712   -7.5753  -16.5085 N   0  0  0  0  0  0  0  0  0  0  0  0
   19.5862   -6.2407  -16.0591 C   0  0  1  0  0  0  0  0  0  0  0  0
   20.8352   -5.7818  -15.3039 C   0  0  0  0  0  0  0  0  0  0  0  0
   20.8268   -6.3563  -13.9029 C   0  0  0  0  0  0  0  0  0  0  0  0
   22.0424   -5.9406  -13.1720 C   0  0  0  0  0  0  0  0  0  0  0  0
   22.2658   -6.3868  -12.0132 O   0  0  0  0  0  0  0  0  0  0  0  0
   19.3430   -5.2555  -17.1323 C   0  0  0  0  0  0  0  0  0  0  0  0
   19.9261   -5.3202  -18.2470 O   0  0  0  0  0  0  0  0  0  0  0  0
   22.9194   -5.0689  -13.7656 O   0  0  0  0  0  0  0  0  0  0  0  0
   16.8037   -2.5213  -17.4628 C   0  0  0  0  0  0  0  0  0  0  0  0
   18.0714   -3.2600  -17.8422 C   0  0  2  0  0  0  0  0  0  0  0  0
   18.4084   -4.2211  -16.8394 N   0  0  0  0  0  0  0  0  0  0  0  0
   19.2011   -2.3378  -18.0359 C   0  0  0  0  0  0  0  0  0  0  0  0
   19.2972   -1.6204  -19.2125 O   0  0  0  0  0  0  0  0  0  0  0  0
   20.0760   -2.1934  -17.1515 O   0  0  0  0  0  0  0  0  0  0  0  0
  2  1  1  1
  2  6  1  0
  3  2  1  0
  3  4  1  0
  4  8  1  0
  5  4  2  0
  6  7  2  0
  9 10  1  0
  9  6  1  0
 10 15  1  0
 11 12  1  0
 10 11  1  6
 12 13  1  0
 13 14  2  0
 15 16  2  0
 17 13  1  0
 19 18  1  1
 19 21  1  0
 20 15  1  0
 20 19  1  0
 21 23  2  0
 21 22  1  0
M  END
$$$$
