DEA.pdb
     RDKit          3D

 23 22  0  0  1  0  0  0  0  0999 V2000
   32.2793  -36.5307   -2.5606 N   0  0  0  0  0  0  0  0  0  0  0  0
   31.3798  -36.9633   -1.5093 C   0  0  1  0  0  0  0  0  0  0  0  0
   32.1353  -37.6576   -0.3991 C   0  0  0  0  0  0  0  0  0  0  0  0
   32.5779  -39.0117   -0.8107 C   0  0  0  0  0  0  0  0  0  0  0  0
   33.7099  -39.3972   -0.4587 O   0  0  0  0  0  0  0  0  0  0  0  0
   30.6314  -35.7891   -1.0426 C   0  0  0  0  0  0  0  0  0  0  0  0
   31.2205  -34.7651   -0.6088 O   0  0  0  0  0  0  0  0  0  0  0  0
   31.7814  -39.8525   -1.5659 O   0  0  0  0  0  0  0  0  0  0  0  0
   29.1968  -35.7112   -1.0413 N   0  0  0  0  0  0  0  0  0  0  0  0
   28.4382  -34.5499   -0.7358 C   0  0  1  0  0  0  0  0  0  0  0  0
   27.3910  -34.3260   -1.8285 C   0  0  0  0  0  0  0  0  0  0  0  0
   26.7089  -32.9905   -1.6186 C   0  0  0  0  0  0  0  0  0  0  0  0
   25.6807  -32.7719   -2.6577 C   0  0  0  0  0  0  0  0  0  0  0  0
   26.0158  -32.3505   -3.7987 O   0  0  0  0  0  0  0  0  0  0  0  0
   27.7157  -34.6049    0.5513 C   0  0  0  0  0  0  0  0  0  0  0  0
   26.9949  -35.5860    0.8746 O   0  0  0  0  0  0  0  0  0  0  0  0
   24.3653  -33.0311   -2.3678 O   0  0  0  0  0  0  0  0  0  0  0  0
   27.8924  -32.4174    3.5859 C   0  0  0  0  0  0  0  0  0  0  0  0
   27.2724  -33.4866    2.7089 C   0  0  2  0  0  0  0  0  0  0  0  0
   27.8773  -33.4829    1.4140 N   0  0  0  0  0  0  0  0  0  0  0  0
   25.8193  -33.3019    2.5711 C   0  0  0  0  0  0  0  0  0  0  0  0
   25.2804  -33.0719    1.3201 O   0  0  0  0  0  0  0  0  0  0  0  0
   25.0646  -33.3499    3.5693 O   0  0  0  0  0  0  0  0  0  0  0  0
  2  1  1  6
  2  6  1  0
  3  2  1  0
  3  4  1  0
  4  8  1  0
  5  4  2  0
  6  7  2  0
  9 10  1  0
  9  6  1  0
 10 15  1  0
 11 12  1  0
 10 11  1  6
 12 13  1  0
 13 14  2  0
 15 16  2  0
 17 13  1  0
 19 18  1  1
 19 21  1  0
 20 15  1  0
 20 19  1  0
 21 23  2  0
 21 22  1  0
M  END
$$$$
