DEA.pdb
     RDKit          3D

 23 22  0  0  1  0  0  0  0  0999 V2000
   17.7349   -8.0982  -17.6273 N   0  0  0  0  0  0  0  0  0  0  0  0
   17.9129   -8.6700  -16.3072 C   0  0  1  0  0  0  0  0  0  0  0  0
   18.2886  -10.1317  -16.3940 C   0  0  0  0  0  0  0  0  0  0  0  0
   18.3542  -10.7539  -15.0496 C   0  0  0  0  0  0  0  0  0  0  0  0
   19.3613  -10.5402  -14.3467 O   0  0  0  0  0  0  0  0  0  0  0  0
   18.9146   -7.8647  -15.5967 C   0  0  0  0  0  0  0  0  0  0  0  0
   19.2537   -8.1324  -14.4147 O   0  0  0  0  0  0  0  0  0  0  0  0
   17.3424  -11.5564  -14.5557 O   0  0  0  0  0  0  0  0  0  0  0  0
   19.5772   -6.7295  -16.1767 N   0  0  0  0  0  0  0  0  0  0  0  0
   20.4957   -5.8820  -15.5017 C   0  0  1  0  0  0  0  0  0  0  0  0
   21.9142   -6.1775  -15.9930 C   0  0  0  0  0  0  0  0  0  0  0  0
   22.6097   -7.1071  -15.0209 C   0  0  0  0  0  0  0  0  0  0  0  0
   23.9922   -7.3756  -15.4696 C   0  0  0  0  0  0  0  0  0  0  0  0
   24.3707   -8.5618  -15.6736 O   0  0  0  0  0  0  0  0  0  0  0  0
   20.2619   -4.4369  -15.6983 C   0  0  0  0  0  0  0  0  0  0  0  0
   20.0454   -3.9410  -16.8358 O   0  0  0  0  0  0  0  0  0  0  0  0
   24.8537   -6.3254  -15.6602 O   0  0  0  0  0  0  0  0  0  0  0  0
   18.8590   -1.9125  -13.6038 C   0  0  0  0  0  0  0  0  0  0  0  0
   19.9460   -2.2435  -14.6065 C   0  0  2  0  0  0  0  0  0  0  0  0
   20.2944   -3.6273  -14.5266 N   0  0  0  0  0  0  0  0  0  0  0  0
   21.1487   -1.4228  -14.3957 C   0  0  0  0  0  0  0  0  0  0  0  0
   21.1000   -0.0676  -14.6588 O   0  0  0  0  0  0  0  0  0  0  0  0
   22.2148   -1.9336  -13.9820 O   0  0  0  0  0  0  0  0  0  0  0  0
  2  1  1  6
  2  6  1  0
  3  2  1  0
  3  4  1  0
  4  8  1  0
  5  4  2  0
  6  7  2  0
  9 10  1  0
  9  6  1  0
 10 15  1  0
 11 12  1  0
 10 11  1  6
 12 13  1  0
 13 14  2  0
 15 16  2  0
 17 13  1  0
 19 18  1  1
 19 21  1  0
 20 15  1  0
 20 19  1  0
 21 23  2  0
 21 22  1  0
M  END
$$$$
