VAY.pdb
     RDKit          3D

 25 25  0  0  1  0  0  0  0  0999 V2000
   23.7418   -4.4189  -22.3536 C   0  0  0  0  0  0  0  0  0  0  0  0
   22.9516   -5.2178  -21.3175 C   0  0  2  0  0  0  0  0  0  0  0  0
   21.9669   -6.0771  -22.0550 C   0  0  0  0  0  0  0  0  0  0  0  0
   22.2915   -4.1813  -20.4098 C   0  0  2  0  0  0  0  0  0  0  0  0
   21.4159   -3.3852  -21.3070 N   0  0  0  0  0  0  0  0  0  0  0  0
   23.2721   -3.2413  -19.8211 C   0  0  0  0  0  0  0  0  0  0  0  0
   24.1047   -3.6395  -18.9360 O   0  0  0  0  0  0  0  0  0  0  0  0
   24.9507   -0.0025  -20.3589 C   0  0  0  0  0  0  0  0  0  0  0  0
   24.2407   -0.9882  -19.4221 C   0  0  2  0  0  0  0  0  0  0  0  0
   23.3695   -1.8588  -20.1816 N   0  0  0  0  0  0  0  0  0  0  0  0
   23.5433   -0.2034  -18.3873 C   0  0  0  0  0  0  0  0  0  0  0  0
   24.2341    0.5212  -17.6361 O   0  0  0  0  0  0  0  0  0  0  0  0
   17.6074    4.9246  -14.4284 O   0  0  0  0  0  0  0  0  0  0  0  0
   18.4519    4.1562  -15.2539 C   0  0  0  0  0  0  0  0  0  0  0  0
   17.9368    3.5477  -16.3693 C   0  0  0  0  0  0  0  0  0  0  0  0
   18.7267    2.7914  -17.1976 C   0  0  0  0  0  0  0  0  0  0  0  0
   20.0746    2.6055  -16.9524 C   0  0  0  0  0  0  0  0  0  0  0  0
   20.9648    1.8072  -17.7796 C   0  0  0  0  0  0  0  0  0  0  0  0
   21.4816    0.5330  -17.1841 C   0  0  2  0  0  0  0  0  0  0  0  0
   22.1411   -0.2416  -18.2199 N   0  0  0  0  0  0  0  0  0  0  0  0
   20.3392   -0.2675  -16.6854 C   0  0  0  0  0  0  0  0  0  0  0  0
   19.7783   -1.1061  -17.4426 O   0  0  0  0  0  0  0  0  0  0  0  0
   20.5877    3.2183  -15.8310 C   0  0  0  0  0  0  0  0  0  0  0  0
   19.7925    3.9853  -14.9879 C   0  0  0  0  0  0  0  0  0  0  0  0
   19.8265   -0.1553  -15.3994 O   0  0  0  0  0  0  0  0  0  0  0  0
  2  1  1  6
  3  2  1  0
  4  2  1  0
  4  5  1  6
  6  7  2  0
  6  4  1  0
  9  8  1  6
  9 10  1  0
 10  6  1  0
 11 20  1  0
 11  9  1  0
 12 11  2  0
 13 14  1  0
 14 24  2  0
 14 15  1  0
 15 16  2  0
 16 17  1  0
 17 18  1  0
 19 18  1  6
 19 20  1  0
 19 21  1  0
 21 25  1  0
 22 21  2  0
 23 17  2  0
 24 23  1  0
M  END
$$$$
