VAY.pdb
     RDKit          3D

 25 25  0  0  1  0  0  0  0  0999 V2000
   26.6349   -5.8124  -23.9206 C   0  0  0  0  0  0  0  0  0  0  0  0
   25.9146   -7.1601  -23.9560 C   0  0  2  0  0  0  0  0  0  0  0  0
   24.4738   -6.9189  -23.6125 C   0  0  0  0  0  0  0  0  0  0  0  0
   26.6397   -8.0447  -22.9432 C   0  0  2  0  0  0  0  0  0  0  0  0
   25.9619   -9.3632  -23.0284 N   0  0  0  0  0  0  0  0  0  0  0  0
   26.4721   -7.5640  -21.5530 C   0  0  0  0  0  0  0  0  0  0  0  0
   25.3614   -7.7220  -20.9394 O   0  0  0  0  0  0  0  0  0  0  0  0
   28.5393   -6.2558  -18.6890 C   0  0  0  0  0  0  0  0  0  0  0  0
   27.2266   -6.4701  -19.4535 C   0  0  2  0  0  0  0  0  0  0  0  0
   27.5022   -6.9085  -20.8047 N   0  0  0  0  0  0  0  0  0  0  0  0
   26.4529   -5.2175  -19.3800 C   0  0  0  0  0  0  0  0  0  0  0  0
   26.6903   -4.3310  -20.2310 O   0  0  0  0  0  0  0  0  0  0  0  0
   22.0664   -7.4867  -13.7205 O   0  0  0  0  0  0  0  0  0  0  0  0
   22.3578   -6.6680  -14.8295 C   0  0  0  0  0  0  0  0  0  0  0  0
   22.5452   -5.3223  -14.6464 C   0  0  0  0  0  0  0  0  0  0  0  0
   22.8304   -4.4924  -15.7010 C   0  0  0  0  0  0  0  0  0  0  0  0
   22.9434   -4.9673  -16.9945 C   0  0  0  0  0  0  0  0  0  0  0  0
   23.2296   -4.1431  -18.1576 C   0  0  0  0  0  0  0  0  0  0  0  0
   24.6639   -3.7797  -18.3938 C   0  0  2  0  0  0  0  0  0  0  0  0
   25.4660   -4.9899  -18.3953 N   0  0  0  0  0  0  0  0  0  0  0  0
   25.1389   -2.9292  -17.2777 C   0  0  0  0  0  0  0  0  0  0  0  0
   24.6851   -1.7606  -17.1379 O   0  0  0  0  0  0  0  0  0  0  0  0
   22.7544   -6.3195  -17.1738 C   0  0  0  0  0  0  0  0  0  0  0  0
   22.4649   -7.1651  -16.1096 C   0  0  0  0  0  0  0  0  0  0  0  0
   26.0798   -3.3432  -16.3436 O   0  0  0  0  0  0  0  0  0  0  0  0
  2  1  1  1
  3  2  1  0
  4  2  1  0
  4  5  1  1
  6  7  2  0
  6  4  1  0
  9  8  1  1
  9 10  1  0
 10  6  1  0
 11 20  1  0
 11  9  1  0
 12 11  2  0
 13 14  1  0
 14 24  2  0
 14 15  1  0
 15 16  2  0
 16 17  1  0
 17 18  1  0
 19 18  1  1
 19 20  1  0
 19 21  1  0
 21 25  1  0
 22 21  2  0
 23 17  2  0
 24 23  1  0
M  END
$$$$
