VAY.pdb
     RDKit          3D

 25 25  0  0  1  0  0  0  0  0999 V2000
   19.2842  -11.2858  -19.2308 C   0  0  0  0  0  0  0  0  0  0  0  0
   19.6185  -11.6885  -17.7947 C   0  0  2  0  0  0  0  0  0  0  0  0
   18.7938  -12.8949  -17.4533 C   0  0  0  0  0  0  0  0  0  0  0  0
   19.2928  -10.4682  -16.9352 C   0  0  2  0  0  0  0  0  0  0  0  0
   17.8345  -10.2505  -17.1120 N   0  0  0  0  0  0  0  0  0  0  0  0
   19.9717   -9.2432  -17.4150 C   0  0  0  0  0  0  0  0  0  0  0  0
   21.2371   -9.1089  -17.2891 O   0  0  0  0  0  0  0  0  0  0  0  0
   19.3623   -6.1822  -19.4933 C   0  0  0  0  0  0  0  0  0  0  0  0
   20.0291   -6.9360  -18.3355 C   0  0  2  0  0  0  0  0  0  0  0  0
   19.2944   -8.1471  -18.0399 N   0  0  0  0  0  0  0  0  0  0  0  0
   20.1321   -6.0086  -17.1942 C   0  0  0  0  0  0  0  0  0  0  0  0
   19.0781   -5.6955  -16.5962 O   0  0  0  0  0  0  0  0  0  0  0  0
   18.7488   -8.7576  -11.5202 O   0  0  0  0  0  0  0  0  0  0  0  0
   19.5620   -7.8708  -12.2533 C   0  0  0  0  0  0  0  0  0  0  0  0
   20.6893   -8.3431  -12.8744 C   0  0  0  0  0  0  0  0  0  0  0  0
   21.5065   -7.5112  -13.5971 C   0  0  0  0  0  0  0  0  0  0  0  0
   21.2368   -6.1623  -13.7361 C   0  0  0  0  0  0  0  0  0  0  0  0
   22.0657   -5.2235  -14.4748 C   0  0  0  0  0  0  0  0  0  0  0  0
   21.4331   -4.5396  -15.6483 C   0  0  2  0  0  0  0  0  0  0  0  0
   21.3641   -5.4710  -16.7599 N   0  0  0  0  0  0  0  0  0  0  0  0
   22.2886   -3.4051  -16.0674 C   0  0  0  0  0  0  0  0  0  0  0  0
   22.8138   -3.4012  -17.2143 O   0  0  0  0  0  0  0  0  0  0  0  0
   20.1036   -5.6922  -13.1105 C   0  0  0  0  0  0  0  0  0  0  0  0
   19.2722   -6.5300  -12.3768 C   0  0  0  0  0  0  0  0  0  0  0  0
   22.5611   -2.3093  -15.2586 O   0  0  0  0  0  0  0  0  0  0  0  0
  2  1  1  6
  3  2  1  0
  4  2  1  0
  4  5  1  6
  6  7  2  0
  6  4  1  0
  9  8  1  6
  9 10  1  0
 10  6  1  0
 11 20  1  0
 11  9  1  0
 12 11  2  0
 13 14  1  0
 14 24  2  0
 14 15  1  0
 15 16  2  0
 16 17  1  0
 17 18  1  0
 19 18  1  1
 19 20  1  0
 19 21  1  0
 21 25  1  0
 22 21  2  0
 23 17  2  0
 24 23  1  0
M  END
$$$$
