VAY.pdb
     RDKit          3D

 25 25  0  0  1  0  0  0  0  0999 V2000
   26.3173  -18.8100  -16.0512 C   0  0  0  0  0  0  0  0  0  0  0  0
   27.7658  -18.3248  -16.1030 C   0  0  2  0  0  0  0  0  0  0  0  0
   27.9513  -17.5719  -17.3878 C   0  0  0  0  0  0  0  0  0  0  0  0
   28.6282  -19.5822  -16.0069 C   0  0  2  0  0  0  0  0  0  0  0  0
   28.1754  -20.4464  -17.1266 N   0  0  0  0  0  0  0  0  0  0  0  0
   28.3870  -20.3372  -14.7565 C   0  0  0  0  0  0  0  0  0  0  0  0
   27.3894  -21.1311  -14.6579 O   0  0  0  0  0  0  0  0  0  0  0  0
   29.8193  -20.6194  -11.2545 C   0  0  0  0  0  0  0  0  0  0  0  0
   28.7619  -20.8187  -12.3479 C   0  0  2  0  0  0  0  0  0  0  0  0
   29.2208  -20.2476  -13.5957 N   0  0  0  0  0  0  0  0  0  0  0  0
   27.4954  -20.2435  -11.8599 C   0  0  0  0  0  0  0  0  0  0  0  0
   27.3350  -19.0065  -11.9634 O   0  0  0  0  0  0  0  0  0  0  0  0
   18.9484  -19.1548   -9.9120 O   0  0  0  0  0  0  0  0  0  0  0  0
   20.2200  -19.6029  -10.3215 C   0  0  0  0  0  0  0  0  0  0  0  0
   20.8989  -20.5095   -9.5491 C   0  0  0  0  0  0  0  0  0  0  0  0
   22.1389  -20.9695   -9.9139 C   0  0  0  0  0  0  0  0  0  0  0  0
   22.7635  -20.5459  -11.0723 C   0  0  0  0  0  0  0  0  0  0  0  0
   24.0795  -20.9815  -11.5108 C   0  0  0  0  0  0  0  0  0  0  0  0
   25.2578  -20.4325  -10.7655 C   0  0  2  0  0  0  0  0  0  0  0  0
   26.4719  -21.0321  -11.2890 N   0  0  0  0  0  0  0  0  0  0  0  0
   25.1494  -20.8141   -9.3382 C   0  0  0  0  0  0  0  0  0  0  0  0
   25.6114  -21.9198   -8.9440 O   0  0  0  0  0  0  0  0  0  0  0  0
   22.0780  -19.6352  -11.8450 C   0  0  0  0  0  0  0  0  0  0  0  0
   20.8218  -19.1653  -11.4805 C   0  0  0  0  0  0  0  0  0  0  0  0
   24.5553  -20.0123   -8.3721 O   0  0  0  0  0  0  0  0  0  0  0  0
  2  1  1  6
  3  2  1  0
  4  2  1  0
  4  5  1  6
  6  7  2  0
  6  4  1  0
  9  8  1  1
  9 10  1  0
 10  6  1  0
 11 20  1  0
 11  9  1  0
 12 11  2  0
 13 14  1  0
 14 24  2  0
 14 15  1  0
 15 16  2  0
 16 17  1  0
 17 18  1  0
 19 18  1  6
 19 20  1  0
 19 21  1  0
 21 25  1  0
 22 21  2  0
 23 17  2  0
 24 23  1  0
M  END
$$$$
