VAY.pdb
     RDKit          3D

 25 25  0  0  1  0  0  0  0  0999 V2000
   17.6780  -11.7625  -17.9677 C   0  0  0  0  0  0  0  0  0  0  0  0
   18.4317  -12.4951  -16.8579 C   0  0  2  0  0  0  0  0  0  0  0  0
   17.6969  -13.7716  -16.5704 C   0  0  0  0  0  0  0  0  0  0  0  0
   18.4622  -11.5326  -15.6719 C   0  0  2  0  0  0  0  0  0  0  0  0
   17.0412  -11.3660  -15.2742 N   0  0  0  0  0  0  0  0  0  0  0  0
   18.9638  -10.1912  -16.0472 C   0  0  0  0  0  0  0  0  0  0  0  0
   20.2063  -10.0042  -16.2848 O   0  0  0  0  0  0  0  0  0  0  0  0
   17.6823   -6.7396  -16.8920 C   0  0  0  0  0  0  0  0  0  0  0  0
   18.7411   -7.7448  -16.4208 C   0  0  2  0  0  0  0  0  0  0  0  0
   18.1306   -9.0333  -16.1739 N   0  0  0  0  0  0  0  0  0  0  0  0
   19.4153   -7.1698  -15.2427 C   0  0  0  0  0  0  0  0  0  0  0  0
   18.8231   -7.2285  -14.1416 O   0  0  0  0  0  0  0  0  0  0  0  0
   25.5814  -10.0820  -16.8611 O   0  0  0  0  0  0  0  0  0  0  0  0
   24.7228   -9.3415  -16.0246 C   0  0  0  0  0  0  0  0  0  0  0  0
   24.2220   -9.9199  -14.8870 C   0  0  0  0  0  0  0  0  0  0  0  0
   23.3833   -9.2316  -14.0474 C   0  0  0  0  0  0  0  0  0  0  0  0
   23.0027   -7.9273  -14.3031 C   0  0  0  0  0  0  0  0  0  0  0  0
   22.1082   -7.1457  -13.4646 C   0  0  0  0  0  0  0  0  0  0  0  0
   21.3472   -6.0409  -14.1320 C   0  0  2  0  0  0  0  0  0  0  0  0
   20.6898   -6.5650  -15.3156 N   0  0  0  0  0  0  0  0  0  0  0  0
   22.2986   -4.9951  -14.5745 C   0  0  0  0  0  0  0  0  0  0  0  0
   22.9601   -4.3425  -13.7214 O   0  0  0  0  0  0  0  0  0  0  0  0
   23.5079   -7.3503  -15.4469 C   0  0  0  0  0  0  0  0  0  0  0  0
   24.3577   -8.0426  -16.3014 C   0  0  0  0  0  0  0  0  0  0  0  0
   22.5204   -4.6732  -15.9073 O   0  0  0  0  0  0  0  0  0  0  0  0
  2  1  1  6
  3  2  1  0
  4  2  1  0
  4  5  1  6
  6  7  2  0
  6  4  1  0
  9  8  1  1
  9 10  1  0
 10  6  1  0
 11 20  1  0
 11  9  1  0
 12 11  2  0
 13 14  1  0
 14 24  2  0
 14 15  1  0
 15 16  2  0
 16 17  1  0
 17 18  1  0
 19 18  1  6
 19 20  1  0
 19 21  1  0
 21 25  1  0
 22 21  2  0
 23 17  2  0
 24 23  1  0
M  END
$$$$
