VAY.pdb
     RDKit          3D

 25 25  0  0  1  0  0  0  0  0999 V2000
   25.2665  -19.2862  -19.6960 C   0  0  0  0  0  0  0  0  0  0  0  0
   25.9890  -18.0538  -20.2396 C   0  0  2  0  0  0  0  0  0  0  0  0
   26.5633  -18.4128  -21.5787 C   0  0  0  0  0  0  0  0  0  0  0  0
   27.0506  -17.7026  -19.1987 C   0  0  2  0  0  0  0  0  0  0  0  0
   27.9703  -18.8684  -19.1779 N   0  0  0  0  0  0  0  0  0  0  0  0
   26.4848  -17.5770  -17.8365 C   0  0  0  0  0  0  0  0  0  0  0  0
   26.4316  -18.5901  -17.0580 O   0  0  0  0  0  0  0  0  0  0  0  0
   25.0572  -14.9318  -15.5289 C   0  0  0  0  0  0  0  0  0  0  0  0
   25.3475  -16.3664  -15.9885 C   0  0  2  0  0  0  0  0  0  0  0  0
   25.9708  -16.3552  -17.2944 N   0  0  0  0  0  0  0  0  0  0  0  0
   24.0815  -17.1200  -15.9395 C   0  0  0  0  0  0  0  0  0  0  0  0
   23.4069  -17.2019  -16.9906 O   0  0  0  0  0  0  0  0  0  0  0  0
   17.3045  -21.9006  -12.5691 O   0  0  0  0  0  0  0  0  0  0  0  0
   18.5146  -21.2087  -12.7743 C   0  0  0  0  0  0  0  0  0  0  0  0
   18.6357  -19.9139  -12.3399 C   0  0  0  0  0  0  0  0  0  0  0  0
   19.7975  -19.2071  -12.5212 C   0  0  0  0  0  0  0  0  0  0  0  0
   20.8993  -19.7605  -13.1467 C   0  0  0  0  0  0  0  0  0  0  0  0
   22.1540  -19.0650  -13.3830 C   0  0  0  0  0  0  0  0  0  0  0  0
   22.3264  -18.4155  -14.7222 C   0  0  2  0  0  0  0  0  0  0  0  0
   23.6131  -17.7442  -14.7620 N   0  0  0  0  0  0  0  0  0  0  0  0
   21.2778  -17.3842  -14.8995 C   0  0  0  0  0  0  0  0  0  0  0  0
   21.4827  -16.2024  -14.5087 O   0  0  0  0  0  0  0  0  0  0  0  0
   20.7732  -21.0611  -13.5814 C   0  0  0  0  0  0  0  0  0  0  0  0
   19.5988  -21.7821  -13.4010 C   0  0  0  0  0  0  0  0  0  0  0  0
   20.0442  -17.6365  -15.4860 O   0  0  0  0  0  0  0  0  0  0  0  0
  2  1  1  1
  3  2  1  0
  4  2  1  0
  4  5  1  1
  6  7  2  0
  6  4  1  0
  9  8  1  6
  9 10  1  0
 10  6  1  0
 11 20  1  0
 11  9  1  0
 12 11  2  0
 13 14  1  0
 14 24  2  0
 14 15  1  0
 15 16  2  0
 16 17  1  0
 17 18  1  0
 19 18  1  1
 19 20  1  0
 19 21  1  0
 21 25  1  0
 22 21  2  0
 23 17  2  0
 24 23  1  0
M  END
$$$$
