VAY.pdb
     RDKit          3D

 25 25  0  0  1  0  0  0  0  0999 V2000
   26.0870  -20.8599  -19.0871 C   0  0  0  0  0  0  0  0  0  0  0  0
   26.1875  -19.3923  -19.5024 C   0  0  2  0  0  0  0  0  0  0  0  0
   26.3262  -19.3471  -20.9960 C   0  0  0  0  0  0  0  0  0  0  0  0
   27.4025  -18.8343  -18.7632 C   0  0  2  0  0  0  0  0  0  0  0  0
   28.5296  -19.7202  -19.1508 N   0  0  0  0  0  0  0  0  0  0  0  0
   27.2629  -18.9345  -17.2928 C   0  0  0  0  0  0  0  0  0  0  0  0
   27.7183  -19.9504  -16.6637 O   0  0  0  0  0  0  0  0  0  0  0  0
   26.0184  -16.8737  -14.3667 C   0  0  0  0  0  0  0  0  0  0  0  0
   26.5386  -18.1441  -15.0512 C   0  0  2  0  0  0  0  0  0  0  0  0
   26.6322  -17.9380  -16.4804 N   0  0  0  0  0  0  0  0  0  0  0  0
   25.6526  -19.2579  -14.6670 C   0  0  0  0  0  0  0  0  0  0  0  0
   24.7519  -19.5938  -15.4686 O   0  0  0  0  0  0  0  0  0  0  0  0
   27.1549  -19.2945   -7.2302 O   0  0  0  0  0  0  0  0  0  0  0  0
   26.7619  -19.9294   -8.4251 C   0  0  0  0  0  0  0  0  0  0  0  0
   25.4548  -20.3080   -8.5918 C   0  0  0  0  0  0  0  0  0  0  0  0
   25.0336  -20.9286   -9.7405 C   0  0  0  0  0  0  0  0  0  0  0  0
   25.8996  -21.2020  -10.7829 C   0  0  0  0  0  0  0  0  0  0  0  0
   25.5235  -21.8675  -12.0197 C   0  0  0  0  0  0  0  0  0  0  0  0
   24.8797  -21.0213  -13.0754 C   0  0  2  0  0  0  0  0  0  0  0  0
   25.7865  -19.9484  -13.4420 N   0  0  0  0  0  0  0  0  0  0  0  0
   23.6543  -20.4014  -12.5195 C   0  0  0  0  0  0  0  0  0  0  0  0
   23.6873  -19.2171  -12.0865 O   0  0  0  0  0  0  0  0  0  0  0  0
   27.2115  -20.8202  -10.6111 C   0  0  0  0  0  0  0  0  0  0  0  0
   27.6443  -20.1915   -9.4497 C   0  0  0  0  0  0  0  0  0  0  0  0
   22.4315  -21.0553  -12.4400 O   0  0  0  0  0  0  0  0  0  0  0  0
  2  1  1  1
  3  2  1  0
  4  2  1  0
  4  5  1  6
  6  7  2  0
  6  4  1  0
  9  8  1  1
  9 10  1  0
 10  6  1  0
 11 20  1  0
 11  9  1  0
 12 11  2  0
 13 14  1  0
 14 24  2  0
 14 15  1  0
 15 16  2  0
 16 17  1  0
 17 18  1  0
 19 18  1  1
 19 20  1  0
 19 21  1  0
 21 25  1  0
 22 21  2  0
 23 17  2  0
 24 23  1  0
M  END
$$$$
