VAY.pdb
     RDKit          3D

 25 25  0  0  1  0  0  0  0  0999 V2000
   23.4558  -16.8614  -18.1781 C   0  0  0  0  0  0  0  0  0  0  0  0
   24.4729  -17.3785  -17.1611 C   0  0  2  0  0  0  0  0  0  0  0  0
   25.8229  -17.3662  -17.8164 C   0  0  0  0  0  0  0  0  0  0  0  0
   23.9987  -18.7786  -16.7753 C   0  0  2  0  0  0  0  0  0  0  0  0
   23.9897  -19.5463  -18.0464 N   0  0  0  0  0  0  0  0  0  0  0  0
   22.6104  -18.7818  -16.2611 C   0  0  0  0  0  0  0  0  0  0  0  0
   22.3354  -18.2588  -15.1270 O   0  0  0  0  0  0  0  0  0  0  0  0
   19.1482  -18.7823  -17.3287 C   0  0  0  0  0  0  0  0  0  0  0  0
   20.1900  -19.3367  -16.3485 C   0  0  2  0  0  0  0  0  0  0  0  0
   21.4990  -19.3474  -16.9652 N   0  0  0  0  0  0  0  0  0  0  0  0
   19.7296  -20.6652  -15.9056 C   0  0  0  0  0  0  0  0  0  0  0  0
   19.9481  -21.6419  -16.6571 O   0  0  0  0  0  0  0  0  0  0  0  0
   21.8871  -20.3547   -8.9077 O   0  0  0  0  0  0  0  0  0  0  0  0
   21.3798  -20.9677  -10.0705 C   0  0  0  0  0  0  0  0  0  0  0  0
   20.2828  -21.7851   -9.9807 C   0  0  0  0  0  0  0  0  0  0  0  0
   19.7595  -22.3999  -11.0899 C   0  0  0  0  0  0  0  0  0  0  0  0
   20.3074  -22.2277  -12.3475 C   0  0  0  0  0  0  0  0  0  0  0  0
   19.8124  -22.8585  -13.5604 C   0  0  0  0  0  0  0  0  0  0  0  0
   18.6576  -22.1943  -14.2464 C   0  0  2  0  0  0  0  0  0  0  0  0
   19.0610  -20.8681  -14.6779 N   0  0  0  0  0  0  0  0  0  0  0  0
   17.5473  -22.0320  -13.2792 C   0  0  0  0  0  0  0  0  0  0  0  0
   17.2588  -20.8866  -12.8365 O   0  0  0  0  0  0  0  0  0  0  0  0
   21.4092  -21.4060  -12.4330 C   0  0  0  0  0  0  0  0  0  0  0  0
   21.9440  -20.7806  -11.3129 C   0  0  0  0  0  0  0  0  0  0  0  0
   16.7763  -23.0882  -12.8112 O   0  0  0  0  0  0  0  0  0  0  0  0
  2  1  1  6
  3  2  1  0
  4  2  1  0
  4  5  1  6
  6  7  2  0
  6  4  1  0
  9  8  1  6
  9 10  1  0
 10  6  1  0
 11 20  1  0
 11  9  1  0
 12 11  2  0
 13 14  1  0
 14 24  2  0
 14 15  1  0
 15 16  2  0
 16 17  1  0
 17 18  1  0
 19 18  1  1
 19 20  1  0
 19 21  1  0
 21 25  1  0
 22 21  2  0
 23 17  2  0
 24 23  1  0
M  END
$$$$
