VAY.pdb
     RDKit          3D

 25 25  0  0  1  0  0  0  0  0999 V2000
   24.1259  -11.5416  -15.1432 C   0  0  0  0  0  0  0  0  0  0  0  0
   23.0152  -12.5888  -15.2210 C   0  0  2  0  0  0  0  0  0  0  0  0
   23.6550  -13.9432  -15.1291 C   0  0  0  0  0  0  0  0  0  0  0  0
   22.3052  -12.3425  -16.5512 C   0  0  2  0  0  0  0  0  0  0  0  0
   23.3486  -12.5454  -17.5882 N   0  0  0  0  0  0  0  0  0  0  0  0
   21.8300  -10.9469  -16.6866 C   0  0  0  0  0  0  0  0  0  0  0  0
   22.6065  -10.0360  -17.1366 O   0  0  0  0  0  0  0  0  0  0  0  0
   18.6561   -8.9779  -16.7644 C   0  0  0  0  0  0  0  0  0  0  0  0
   20.1583   -9.1195  -16.4874 C   0  0  2  0  0  0  0  0  0  0  0  0
   20.5090  -10.5157  -16.3405 N   0  0  0  0  0  0  0  0  0  0  0  0
   20.4778   -8.2979  -15.3059 C   0  0  0  0  0  0  0  0  0  0  0  0
   20.3289   -8.8139  -14.1753 O   0  0  0  0  0  0  0  0  0  0  0  0
   26.2692   -5.1424  -18.2543 O   0  0  0  0  0  0  0  0  0  0  0  0
   25.4015   -5.4356  -17.1835 C   0  0  0  0  0  0  0  0  0  0  0  0
   25.0476   -6.7369  -16.9363 C   0  0  0  0  0  0  0  0  0  0  0  0
   24.2052   -7.0625  -15.9036 C   0  0  0  0  0  0  0  0  0  0  0  0
   23.6737   -6.1015  -15.0637 C   0  0  0  0  0  0  0  0  0  0  0  0
   22.7663   -6.3751  -13.9610 C   0  0  0  0  0  0  0  0  0  0  0  0
   21.3026   -6.2001  -14.2292 C   0  0  2  0  0  0  0  0  0  0  0  0
   20.9409   -6.9672  -15.4075 N   0  0  0  0  0  0  0  0  0  0  0  0
   21.0305   -4.7737  -14.5228 C   0  0  0  0  0  0  0  0  0  0  0  0
   20.6515   -4.4281  -15.6752 O   0  0  0  0  0  0  0  0  0  0  0  0
   24.0318   -4.7958  -15.3156 C   0  0  0  0  0  0  0  0  0  0  0  0
   24.8844   -4.4598  -16.3605 C   0  0  0  0  0  0  0  0  0  0  0  0
   21.1680   -3.7573  -13.5861 O   0  0  0  0  0  0  0  0  0  0  0  0
  2  1  1  6
  3  2  1  0
  4  2  1  0
  4  5  1  6
  6  7  2  0
  6  4  1  0
  9  8  1  1
  9 10  1  0
 10  6  1  0
 11 20  1  0
 11  9  1  0
 12 11  2  0
 13 14  1  0
 14 24  2  0
 14 15  1  0
 15 16  2  0
 16 17  1  0
 17 18  1  0
 19 18  1  6
 19 20  1  0
 19 21  1  0
 21 25  1  0
 22 21  2  0
 23 17  2  0
 24 23  1  0
M  END
$$$$
