VAY.pdb
     RDKit          3D

 25 25  0  0  1  0  0  0  0  0999 V2000
   20.2675  -10.6191  -21.7400 C   0  0  0  0  0  0  0  0  0  0  0  0
   21.6274  -11.2925  -21.5568 C   0  0  2  0  0  0  0  0  0  0  0  0
   21.5979  -12.5949  -22.3018 C   0  0  0  0  0  0  0  0  0  0  0  0
   21.8074  -11.4602  -20.0490 C   0  0  2  0  0  0  0  0  0  0  0  0
   20.8221  -12.4997  -19.6565 N   0  0  0  0  0  0  0  0  0  0  0  0
   21.4585  -10.2321  -19.2995 C   0  0  0  0  0  0  0  0  0  0  0  0
   22.2297   -9.2124  -19.3261 O   0  0  0  0  0  0  0  0  0  0  0  0
   18.5547   -8.3795  -18.1687 C   0  0  0  0  0  0  0  0  0  0  0  0
   19.9950   -8.8178  -17.8741 C   0  0  2  0  0  0  0  0  0  0  0  0
   20.2707  -10.0866  -18.5128 N   0  0  0  0  0  0  0  0  0  0  0  0
   20.1693   -8.8377  -16.4104 C   0  0  0  0  0  0  0  0  0  0  0  0
   19.8723   -9.8886  -15.7989 O   0  0  0  0  0  0  0  0  0  0  0  0
   23.4708   -2.0091  -15.7171 O   0  0  0  0  0  0  0  0  0  0  0  0
   23.1712   -3.3184  -15.2913 C   0  0  0  0  0  0  0  0  0  0  0  0
   22.4884   -3.5086  -14.1178 C   0  0  0  0  0  0  0  0  0  0  0  0
   22.1782   -4.7676  -13.6697 C   0  0  0  0  0  0  0  0  0  0  0  0
   22.5353   -5.9023  -14.3741 C   0  0  0  0  0  0  0  0  0  0  0  0
   22.2509   -7.2640  -13.9510 C   0  0  0  0  0  0  0  0  0  0  0  0
   20.8836   -7.7960  -14.2552 C   0  0  2  0  0  0  0  0  0  0  0  0
   20.6547   -7.7257  -15.6871 N   0  0  0  0  0  0  0  0  0  0  0  0
   19.8716   -6.9371  -13.5974 C   0  0  0  0  0  0  0  0  0  0  0  0
   19.2037   -6.1131  -14.2802 O   0  0  0  0  0  0  0  0  0  0  0  0
   23.2212   -5.7066  -15.5521 C   0  0  0  0  0  0  0  0  0  0  0  0
   23.5386   -4.4338  -16.0110 C   0  0  0  0  0  0  0  0  0  0  0  0
   19.5979   -6.9778  -12.2362 O   0  0  0  0  0  0  0  0  0  0  0  0
  2  1  1  1
  3  2  1  0
  4  2  1  0
  4  5  1  1
  6  7  2  0
  6  4  1  0
  9  8  1  1
  9 10  1  0
 10  6  1  0
 11 20  1  0
 11  9  1  0
 12 11  2  0
 13 14  1  0
 14 24  2  0
 14 15  1  0
 15 16  2  0
 16 17  1  0
 17 18  1  0
 19 18  1  6
 19 20  1  0
 19 21  1  0
 21 25  1  0
 22 21  2  0
 23 17  2  0
 24 23  1  0
M  END
$$$$
