VAY.pdb
     RDKit          3D

 25 25  0  0  1  0  0  0  0  0999 V2000
   19.6766  -11.4202  -14.7838 C   0  0  0  0  0  0  0  0  0  0  0  0
   18.3407  -11.8429  -15.3946 C   0  0  2  0  0  0  0  0  0  0  0  0
   18.1634  -13.3107  -15.1376 C   0  0  0  0  0  0  0  0  0  0  0  0
   18.4345  -11.4940  -16.8790 C   0  0  2  0  0  0  0  0  0  0  0  0
   19.4939  -12.3842  -17.4179 N   0  0  0  0  0  0  0  0  0  0  0  0
   18.8869  -10.1024  -17.1037 C   0  0  0  0  0  0  0  0  0  0  0  0
   20.1163   -9.8493  -17.3478 O   0  0  0  0  0  0  0  0  0  0  0  0
   17.5141   -6.7314  -17.9287 C   0  0  0  0  0  0  0  0  0  0  0  0
   18.5692   -7.6453  -17.2923 C   0  0  2  0  0  0  0  0  0  0  0  0
   18.0178   -8.9646  -17.0705 N   0  0  0  0  0  0  0  0  0  0  0  0
   19.0530   -6.9880  -16.0647 C   0  0  0  0  0  0  0  0  0  0  0  0
   18.4492   -7.2272  -14.9948 O   0  0  0  0  0  0  0  0  0  0  0  0
   24.0499  -11.1118  -15.0454 O   0  0  0  0  0  0  0  0  0  0  0  0
   23.5757   -9.7869  -14.9746 C   0  0  0  0  0  0  0  0  0  0  0  0
   23.9357   -8.8867  -15.9438 C   0  0  0  0  0  0  0  0  0  0  0  0
   23.4947   -7.5880  -15.9096 C   0  0  0  0  0  0  0  0  0  0  0  0
   22.6691   -7.1232  -14.9028 C   0  0  0  0  0  0  0  0  0  0  0  0
   22.1769   -5.7590  -14.7985 C   0  0  0  0  0  0  0  0  0  0  0  0
   20.6903   -5.5721  -14.8178 C   0  0  2  0  0  0  0  0  0  0  0  0
   20.1604   -6.1110  -16.0574 N   0  0  0  0  0  0  0  0  0  0  0  0
   20.3834   -4.1231  -14.7922 C   0  0  0  0  0  0  0  0  0  0  0  0
   19.8628   -3.5707  -15.7997 O   0  0  0  0  0  0  0  0  0  0  0  0
   22.3101   -8.0308  -13.9312 C   0  0  0  0  0  0  0  0  0  0  0  0
   22.7539   -9.3474  -13.9603 C   0  0  0  0  0  0  0  0  0  0  0  0
   20.6371   -3.3038  -13.6997 O   0  0  0  0  0  0  0  0  0  0  0  0
  2  1  1  1
  3  2  1  0
  4  2  1  0
  4  5  1  6
  6  7  2  0
  6  4  1  0
  9  8  1  1
  9 10  1  0
 10  6  1  0
 11 20  1  0
 11  9  1  0
 12 11  2  0
 13 14  1  0
 14 24  2  0
 14 15  1  0
 15 16  2  0
 16 17  1  0
 17 18  1  0
 19 18  1  6
 19 20  1  0
 19 21  1  0
 21 25  1  0
 22 21  2  0
 23 17  2  0
 24 23  1  0
M  END
$$$$
