VAY.pdb
     RDKit          3D

 25 25  0  0  1  0  0  0  0  0999 V2000
   21.5505  -18.4354  -21.5486 C   0  0  0  0  0  0  0  0  0  0  0  0
   23.0498  -18.2204  -21.3429 C   0  0  2  0  0  0  0  0  0  0  0  0
   23.7444  -18.5823  -22.6230 C   0  0  0  0  0  0  0  0  0  0  0  0
   23.4396  -19.1149  -20.1674 C   0  0  2  0  0  0  0  0  0  0  0  0
   23.2436  -20.5029  -20.6577 N   0  0  0  0  0  0  0  0  0  0  0  0
   22.5419  -18.9393  -19.0033 C   0  0  0  0  0  0  0  0  0  0  0  0
   22.5336  -17.8413  -18.3479 O   0  0  0  0  0  0  0  0  0  0  0  0
   19.4356  -20.1532  -17.4923 C   0  0  0  0  0  0  0  0  0  0  0  0
   20.8947  -19.7150  -17.3125 C   0  0  2  0  0  0  0  0  0  0  0  0
   21.6386  -19.9457  -18.5320 N   0  0  0  0  0  0  0  0  0  0  0  0
   21.4373  -20.4257  -16.1405 C   0  0  0  0  0  0  0  0  0  0  0  0
   21.7916  -21.6168  -16.2896 O   0  0  0  0  0  0  0  0  0  0  0  0
   25.7190  -21.4981   -8.4016 O   0  0  0  0  0  0  0  0  0  0  0  0
   25.0822  -21.0124   -9.5609 C   0  0  0  0  0  0  0  0  0  0  0  0
   23.7968  -20.5426   -9.4802 C   0  0  0  0  0  0  0  0  0  0  0  0
   23.1429  -20.0619  -10.5864 C   0  0  0  0  0  0  0  0  0  0  0  0
   23.7429  -20.0258  -11.8315 C   0  0  0  0  0  0  0  0  0  0  0  0
   23.1044  -19.5430  -13.0452 C   0  0  0  0  0  0  0  0  0  0  0  0
   22.2050  -20.5015  -13.7646 C   0  0  2  0  0  0  0  0  0  0  0  0
   21.5692  -19.8141  -14.8741 N   0  0  0  0  0  0  0  0  0  0  0  0
   21.1351  -20.9479  -12.8423 C   0  0  0  0  0  0  0  0  0  0  0  0
   21.2359  -22.0563  -12.2486 O   0  0  0  0  0  0  0  0  0  0  0  0
   25.0340  -20.4988  -11.9078 C   0  0  0  0  0  0  0  0  0  0  0  0
   25.7014  -20.9873  -10.7909 C   0  0  0  0  0  0  0  0  0  0  0  0
   19.9913  -20.2059  -12.5768 O   0  0  0  0  0  0  0  0  0  0  0  0
  2  1  1  6
  3  2  1  0
  4  2  1  0
  4  5  1  6
  6  7  2  0
  6  4  1  0
  9  8  1  6
  9 10  1  0
 10  6  1  0
 11 20  1  0
 11  9  1  0
 12 11  2  0
 13 14  1  0
 14 24  2  0
 14 15  1  0
 15 16  2  0
 16 17  1  0
 17 18  1  0
 19 18  1  1
 19 20  1  0
 19 21  1  0
 21 25  1  0
 22 21  2  0
 23 17  2  0
 24 23  1  0
M  END
$$$$
