IME.pdb
     RDKit          3D

 26 25  0  0  1  0  0  0  0  0999 V2000
   18.5065  -16.4925  -16.4243 C   0  0  0  0  0  0  0  0  0  0  0  0
   18.9927  -15.2999  -17.1961 C   0  0  0  0  0  0  0  0  0  0  0  0
   19.3502  -14.1355  -16.2662 C   0  0  2  0  0  0  0  0  0  0  0  0
   18.1770  -13.8488  -15.3941 C   0  0  0  0  0  0  0  0  0  0  0  0
   19.7583  -12.9853  -17.1520 C   0  0  2  0  0  0  0  0  0  0  0  0
   20.8316  -13.5017  -18.0159 N   0  0  0  0  0  0  0  0  0  0  0  0
   20.3098  -11.8344  -16.3863 C   0  0  0  0  0  0  0  0  0  0  0  0
   19.6027  -11.2108  -15.5575 O   0  0  0  0  0  0  0  0  0  0  0  0
   26.5052   -9.7014  -15.6437 C   0  0  0  0  0  0  0  0  0  0  0  0
   26.0307  -11.3298  -14.9895 S   0  0  0  0  0  0  0  0  0  0  0  0
   24.2071  -11.4133  -14.7901 C   0  0  0  0  0  0  0  0  0  0  0  0
   23.6381  -10.4263  -15.7432 C   0  0  0  0  0  0  0  0  0  0  0  0
   22.1376  -10.2935  -15.7376 C   0  0  2  0  0  0  0  0  0  0  0  0
   21.6511  -11.4028  -16.5666 N   0  0  0  0  0  0  0  0  0  0  0  0
   21.7618   -8.9943  -16.3307 C   0  0  0  0  0  0  0  0  0  0  0  0
   21.9174   -8.8037  -17.5648 O   0  0  0  0  0  0  0  0  0  0  0  0
   21.2309   -7.9663  -15.5290 N   0  0  0  0  0  0  0  0  0  0  0  0
   20.7670   -6.6998  -16.1119 C   0  0  1  0  0  0  0  0  0  0  0  0
   19.2994   -6.6697  -15.8585 C   0  0  0  0  0  0  0  0  0  0  0  0
   18.5603   -5.4601  -16.3042 C   0  0  0  0  0  0  0  0  0  0  0  0
   17.1365   -5.4862  -15.9599 C   0  0  0  0  0  0  0  0  0  0  0  0
   16.6247   -6.4503  -15.2917 O   0  0  0  0  0  0  0  0  0  0  0  0
   21.5721   -5.5577  -15.7675 C   0  0  0  0  0  0  0  0  0  0  0  0
   22.2442   -5.4424  -14.6879 O   0  0  0  0  0  0  0  0  0  0  0  0
   16.2931   -4.4567  -16.3514 O   0  0  0  0  0  0  0  0  0  0  0  0
   21.6857   -4.4610  -16.6254 O   0  0  0  0  0  0  0  0  0  0  0  0
  2  1  1  0
  3  4  1  6
  3  2  1  0
  5  3  1  0
  5  6  1  6
  7  8  2  0
  7  5  1  0
  9 10  1  0
 10 11  1  0
 11 12  1  0
 13 12  1  6
 13 14  1  0
 14  7  1  0
 15 13  1  0
 16 15  2  0
 17 15  1  0
 18 17  1  0
 18 19  1  1
 19 20  1  0
 20 21  1  0
 21 22  2  0
 23 26  1  0
 23 18  1  0
 24 23  2  0
 25 21  1  0
M  END
$$$$
