IME.pdb
     RDKit          3D

 26 25  0  0  1  0  0  0  0  0999 V2000
   27.4295  -10.5361  -15.8351 C   0  0  0  0  0  0  0  0  0  0  0  0
   26.1006  -11.0124  -15.3236 C   0  0  0  0  0  0  0  0  0  0  0  0
   24.9464  -10.1860  -15.9008 C   0  0  2  0  0  0  0  0  0  0  0  0
   25.1564   -8.7578  -15.5328 C   0  0  0  0  0  0  0  0  0  0  0  0
   23.6732  -10.7841  -15.3574 C   0  0  2  0  0  0  0  0  0  0  0  0
   23.6855  -12.1981  -15.7638 N   0  0  0  0  0  0  0  0  0  0  0  0
   22.4507  -10.1598  -15.9326 C   0  0  0  0  0  0  0  0  0  0  0  0
   21.9100  -10.6278  -16.9643 O   0  0  0  0  0  0  0  0  0  0  0  0
   17.8382  -11.9398  -17.3235 C   0  0  0  0  0  0  0  0  0  0  0  0
   17.2138  -10.5709  -16.3031 S   0  0  0  0  0  0  0  0  0  0  0  0
   18.2976   -9.1018  -16.5017 C   0  0  0  0  0  0  0  0  0  0  0  0
   19.6186   -9.4793  -15.9373 C   0  0  0  0  0  0  0  0  0  0  0  0
   20.6883   -8.4204  -15.9971 C   0  0  2  0  0  0  0  0  0  0  0  0
   21.8557   -9.0162  -15.3362 N   0  0  0  0  0  0  0  0  0  0  0  0
   20.2288   -7.2225  -15.2656 C   0  0  0  0  0  0  0  0  0  0  0  0
   20.1484   -7.2511  -14.0102 O   0  0  0  0  0  0  0  0  0  0  0  0
   19.8794   -6.0484  -15.9590 N   0  0  0  0  0  0  0  0  0  0  0  0
   19.3750   -4.8618  -15.2545 C   0  0  1  0  0  0  0  0  0  0  0  0
   20.1850   -3.7260  -15.7768 C   0  0  0  0  0  0  0  0  0  0  0  0
   19.8618   -2.3705  -15.2609 C   0  0  0  0  0  0  0  0  0  0  0  0
   20.7350   -1.3205  -15.7913 C   0  0  0  0  0  0  0  0  0  0  0  0
   21.1297   -0.3442  -15.0640 O   0  0  0  0  0  0  0  0  0  0  0  0
   17.9401   -4.7563  -15.2214 C   0  0  0  0  0  0  0  0  0  0  0  0
   17.1609   -5.1608  -16.1486 O   0  0  0  0  0  0  0  0  0  0  0  0
   21.1641   -1.3539  -17.1101 O   0  0  0  0  0  0  0  0  0  0  0  0
   17.2761   -4.1927  -14.1291 O   0  0  0  0  0  0  0  0  0  0  0  0
  2  1  1  0
  3  4  1  1
  3  2  1  0
  5  3  1  0
  5  6  1  6
  7  8  2  0
  7  5  1  0
  9 10  1  0
 10 11  1  0
 11 12  1  0
 13 12  1  1
 13 14  1  0
 14  7  1  0
 15 13  1  0
 16 15  2  0
 17 15  1  0
 18 17  1  0
 18 19  1  6
 19 20  1  0
 20 21  1  0
 21 22  2  0
 23 26  1  0
 23 18  1  0
 24 23  2  0
 25 21  1  0
M  END
$$$$
