IME.pdb
     RDKit          3D

 26 25  0  0  1  0  0  0  0  0999 V2000
   18.8743  -22.0452  -13.4801 C   0  0  0  0  0  0  0  0  0  0  0  0
   19.7505  -21.9020  -12.2693 C   0  0  0  0  0  0  0  0  0  0  0  0
   21.1293  -21.3425  -12.6354 C   0  0  2  0  0  0  0  0  0  0  0  0
   21.7384  -22.2241  -13.6703 C   0  0  0  0  0  0  0  0  0  0  0  0
   21.9165  -21.2602  -11.3518 C   0  0  2  0  0  0  0  0  0  0  0  0
   21.1539  -20.3657  -10.4668 N   0  0  0  0  0  0  0  0  0  0  0  0
   23.2673  -20.6643  -11.5402 C   0  0  0  0  0  0  0  0  0  0  0  0
   23.4051  -19.4446  -11.8027 O   0  0  0  0  0  0  0  0  0  0  0  0
   27.7397  -19.8892   -6.7426 C   0  0  0  0  0  0  0  0  0  0  0  0
   27.7768  -20.9177   -8.2411 S   0  0  0  0  0  0  0  0  0  0  0  0
   26.4717  -20.3642   -9.4085 C   0  0  0  0  0  0  0  0  0  0  0  0
   26.6532  -21.1646  -10.6464 C   0  0  0  0  0  0  0  0  0  0  0  0
   25.7262  -20.8346  -11.7870 C   0  0  2  0  0  0  0  0  0  0  0  0
   24.4436  -21.4530  -11.4303 N   0  0  0  0  0  0  0  0  0  0  0  0
   26.2598  -21.4205  -13.0331 C   0  0  0  0  0  0  0  0  0  0  0  0
   26.0700  -22.6396  -13.2804 O   0  0  0  0  0  0  0  0  0  0  0  0
   26.9793  -20.6285  -13.9477 N   0  0  0  0  0  0  0  0  0  0  0  0
   27.2580  -21.0937  -15.3133 C   0  0  1  0  0  0  0  0  0  0  0  0
   27.1259  -19.8831  -16.1710 C   0  0  0  0  0  0  0  0  0  0  0  0
   26.1033  -19.9250  -17.2483 C   0  0  0  0  0  0  0  0  0  0  0  0
   26.0668  -18.7101  -18.0661 C   0  0  0  0  0  0  0  0  0  0  0  0
   26.6935  -18.6306  -19.1792 O   0  0  0  0  0  0  0  0  0  0  0  0
   28.4272  -21.9246  -15.4304 C   0  0  0  0  0  0  0  0  0  0  0  0
   28.6462  -22.7385  -16.3897 O   0  0  0  0  0  0  0  0  0  0  0  0
   25.3448  -17.5993  -17.6544 O   0  0  0  0  0  0  0  0  0  0  0  0
   29.4445  -21.8899  -14.4736 O   0  0  0  0  0  0  0  0  0  0  0  0
  2  1  1  0
  3  4  1  6
  3  2  1  0
  5  3  1  0
  5  6  1  1
  7  8  2  0
  7  5  1  0
  9 10  1  0
 10 11  1  0
 11 12  1  0
 13 12  1  1
 13 14  1  0
 14  7  1  0
 15 13  1  0
 16 15  2  0
 17 15  1  0
 18 17  1  0
 18 19  1  6
 19 20  1  0
 20 21  1  0
 21 22  2  0
 23 26  1  0
 23 18  1  0
 24 23  2  0
 25 21  1  0
M  END
$$$$
