IME.pdb
     RDKit          3D

 26 25  0  0  1  0  0  0  0  0999 V2000
   13.3927  -21.6649    3.6209 C   0  0  0  0  0  0  0  0  0  0  0  0
   14.1504  -20.5196    3.0137 C   0  0  0  0  0  0  0  0  0  0  0  0
   15.1592  -19.9251    4.0022 C   0  0  2  0  0  0  0  0  0  0  0  0
   14.4248  -19.4869    5.2220 C   0  0  0  0  0  0  0  0  0  0  0  0
   15.8712  -18.8120    3.2755 C   0  0  2  0  0  0  0  0  0  0  0  0
   16.5316  -19.4409    2.1208 N   0  0  0  0  0  0  0  0  0  0  0  0
   16.9266  -18.1654    4.1020 C   0  0  0  0  0  0  0  0  0  0  0  0
   18.0503  -18.7041    4.2530 O   0  0  0  0  0  0  0  0  0  0  0  0
   19.9214  -11.2373    5.7501 C   0  0  0  0  0  0  0  0  0  0  0  0
   18.5979  -12.3220    5.1361 S   0  0  0  0  0  0  0  0  0  0  0  0
   18.8435  -14.0263    5.7744 C   0  0  0  0  0  0  0  0  0  0  0  0
   17.8019  -14.8666    5.1301 C   0  0  0  0  0  0  0  0  0  0  0  0
   17.8038  -16.3247    5.5085 C   0  0  2  0  0  0  0  0  0  0  0  0
   16.6994  -16.9203    4.7468 N   0  0  0  0  0  0  0  0  0  0  0  0
   17.5648  -16.4510    6.9604 C   0  0  0  0  0  0  0  0  0  0  0  0
   16.4083  -16.2660    7.4206 O   0  0  0  0  0  0  0  0  0  0  0  0
   18.6184  -16.7765    7.8353 N   0  0  0  0  0  0  0  0  0  0  0  0
   18.4293  -16.7930    9.2923 C   0  0  1  0  0  0  0  0  0  0  0  0
   18.6059  -18.2173    9.6912 C   0  0  0  0  0  0  0  0  0  0  0  0
   17.4535  -19.1294    9.4722 C   0  0  0  0  0  0  0  0  0  0  0  0
   17.7268  -20.5173    9.8535 C   0  0  0  0  0  0  0  0  0  0  0  0
   18.9207  -20.9746    9.9138 O   0  0  0  0  0  0  0  0  0  0  0  0
   19.1470  -15.7629    9.9958 C   0  0  0  0  0  0  0  0  0  0  0  0
   20.0006  -14.9782    9.4609 O   0  0  0  0  0  0  0  0  0  0  0  0
   16.6899  -21.3850   10.1638 O   0  0  0  0  0  0  0  0  0  0  0  0
   18.9453  -15.5357   11.3594 O   0  0  0  0  0  0  0  0  0  0  0  0
  2  1  1  0
  3  4  1  1
  3  2  1  0
  5  3  1  0
  5  6  1  6
  7  8  2  0
  7  5  1  0
  9 10  1  0
 10 11  1  0
 11 12  1  0
 13 12  1  6
 13 14  1  0
 14  7  1  0
 15 13  1  0
 16 15  2  0
 17 15  1  0
 18 17  1  0
 18 19  1  1
 19 20  1  0
 20 21  1  0
 21 22  2  0
 23 26  1  0
 23 18  1  0
 24 23  2  0
 25 21  1  0
M  END
$$$$
