IME.pdb
     RDKit          3D

 26 25  0  0  1  0  0  0  0  0999 V2000
   19.3275  -37.5600   -9.6254 C   0  0  0  0  0  0  0  0  0  0  0  0
   19.8313  -37.1536   -8.2706 C   0  0  0  0  0  0  0  0  0  0  0  0
   21.3483  -36.9367   -8.2761 C   0  0  2  0  0  0  0  0  0  0  0  0
   22.0096  -38.2262   -8.6209 C   0  0  0  0  0  0  0  0  0  0  0  0
   21.7125  -36.3992   -6.9150 C   0  0  2  0  0  0  0  0  0  0  0  0
   21.0246  -35.1041   -6.7947 N   0  0  0  0  0  0  0  0  0  0  0  0
   23.1721  -36.1506   -6.7641 C   0  0  0  0  0  0  0  0  0  0  0  0
   24.0042  -37.0798   -6.9047 O   0  0  0  0  0  0  0  0  0  0  0  0
   24.6844  -30.8257   -8.6959 C   0  0  0  0  0  0  0  0  0  0  0  0
   25.9887  -32.0044   -9.1588 S   0  0  0  0  0  0  0  0  0  0  0  0
   25.6025  -33.6623   -8.4700 C   0  0  0  0  0  0  0  0  0  0  0  0
   25.5239  -33.4934   -6.9964 C   0  0  0  0  0  0  0  0  0  0  0  0
   25.1130  -34.7131   -6.2138 C   0  0  2  0  0  0  0  0  0  0  0  0
   23.6724  -34.8573   -6.4562 N   0  0  0  0  0  0  0  0  0  0  0  0
   25.3809  -34.4843   -4.7796 C   0  0  0  0  0  0  0  0  0  0  0  0
   24.4923  -33.9678   -4.0537 O   0  0  0  0  0  0  0  0  0  0  0  0
   26.6213  -34.8383   -4.2160 N   0  0  0  0  0  0  0  0  0  0  0  0
   26.9033  -34.6318   -2.7889 C   0  0  1  0  0  0  0  0  0  0  0  0
   25.8372  -35.3830   -2.0693 C   0  0  0  0  0  0  0  0  0  0  0  0
   25.9070  -35.4025   -0.5851 C   0  0  0  0  0  0  0  0  0  0  0  0
   24.9406  -36.3137    0.0328 C   0  0  0  0  0  0  0  0  0  0  0  0
   24.8698  -36.4574    1.3026 O   0  0  0  0  0  0  0  0  0  0  0  0
   28.2814  -34.8253   -2.4220 C   0  0  0  0  0  0  0  0  0  0  0  0
   29.1875  -35.2621   -3.2086 O   0  0  0  0  0  0  0  0  0  0  0  0
   24.0650  -37.0547   -0.7475 O   0  0  0  0  0  0  0  0  0  0  0  0
   28.7417  -34.5289   -1.1367 O   0  0  0  0  0  0  0  0  0  0  0  0
  2  1  1  0
  3  4  1  1
  3  2  1  0
  5  3  1  0
  5  6  1  6
  7  8  2  0
  7  5  1  0
  9 10  1  0
 10 11  1  0
 11 12  1  0
 13 12  1  6
 13 14  1  0
 14  7  1  0
 15 13  1  0
 16 15  2  0
 17 15  1  0
 18 17  1  0
 18 19  1  1
 19 20  1  0
 20 21  1  0
 21 22  2  0
 23 26  1  0
 23 18  1  0
 24 23  2  0
 25 21  1  0
M  END
$$$$
