IME.pdb
     RDKit          3D

 26 25  0  0  1  0  0  0  0  0999 V2000
   15.0381  -13.7434  -16.2494 C   0  0  0  0  0  0  0  0  0  0  0  0
   16.0495  -13.0424  -15.3891 C   0  0  0  0  0  0  0  0  0  0  0  0
   15.4508  -11.8055  -14.7110 C   0  0  2  0  0  0  0  0  0  0  0  0
   14.9216  -10.8967  -15.7661 C   0  0  0  0  0  0  0  0  0  0  0  0
   16.5462  -11.2027  -13.8678 C   0  0  2  0  0  0  0  0  0  0  0  0
   16.9423  -12.2488  -12.9120 N   0  0  0  0  0  0  0  0  0  0  0  0
   16.0881  -10.0242  -13.0827 C   0  0  0  0  0  0  0  0  0  0  0  0
   15.7117   -8.9725  -13.6554 O   0  0  0  0  0  0  0  0  0  0  0  0
   10.7447  -10.2793   -8.8251 C   0  0  0  0  0  0  0  0  0  0  0  0
   12.5300  -10.0570   -8.5635 S   0  0  0  0  0  0  0  0  0  0  0  0
   13.3058   -9.3981  -10.0921 C   0  0  0  0  0  0  0  0  0  0  0  0
   14.7650   -9.3311   -9.8232 C   0  0  0  0  0  0  0  0  0  0  0  0
   15.6228   -8.8375  -10.9587 C   0  0  2  0  0  0  0  0  0  0  0  0
   16.0617  -10.0484  -11.6627 N   0  0  0  0  0  0  0  0  0  0  0  0
   16.7811   -8.1034  -10.4104 C   0  0  0  0  0  0  0  0  0  0  0  0
   17.7711   -8.7414   -9.9675 O   0  0  0  0  0  0  0  0  0  0  0  0
   16.7887   -6.6961  -10.3781 N   0  0  0  0  0  0  0  0  0  0  0  0
   17.9946   -5.9431  -10.0069 C   0  0  1  0  0  0  0  0  0  0  0  0
   19.0056   -6.2924  -11.0436 C   0  0  0  0  0  0  0  0  0  0  0  0
   20.3059   -5.5752  -10.9899 C   0  0  0  0  0  0  0  0  0  0  0  0
   21.2410   -5.9824  -12.0415 C   0  0  0  0  0  0  0  0  0  0  0  0
   21.3147   -5.3549  -13.1546 O   0  0  0  0  0  0  0  0  0  0  0  0
   17.7555   -4.5613   -9.6834 C   0  0  0  0  0  0  0  0  0  0  0  0
   16.7066   -3.9103  -10.0100 O   0  0  0  0  0  0  0  0  0  0  0  0
   22.0824   -7.0703  -11.8602 O   0  0  0  0  0  0  0  0  0  0  0  0
   18.6832   -3.8124   -8.9554 O   0  0  0  0  0  0  0  0  0  0  0  0
  2  1  1  0
  3  4  1  6
  3  2  1  0
  5  3  1  0
  5  6  1  1
  7  8  2  0
  7  5  1  0
  9 10  1  0
 10 11  1  0
 11 12  1  0
 13 12  1  1
 13 14  1  0
 14  7  1  0
 15 13  1  0
 16 15  2  0
 17 15  1  0
 18 17  1  0
 18 19  1  6
 19 20  1  0
 20 21  1  0
 21 22  2  0
 23 26  1  0
 23 18  1  0
 24 23  2  0
 25 21  1  0
M  END
$$$$
