IME.pdb
     RDKit          3D

 26 25  0  0  1  0  0  0  0  0999 V2000
   28.0354  -18.1572  -17.8315 C   0  0  0  0  0  0  0  0  0  0  0  0
   28.4703  -19.1333  -16.7768 C   0  0  0  0  0  0  0  0  0  0  0  0
   27.3479  -19.4131  -15.7717 C   0  0  2  0  0  0  0  0  0  0  0  0
   27.0097  -18.1413  -15.0736 C   0  0  0  0  0  0  0  0  0  0  0  0
   27.8472  -20.5055  -14.8598 C   0  0  2  0  0  0  0  0  0  0  0  0
   28.0730  -21.6778  -15.7198 N   0  0  0  0  0  0  0  0  0  0  0  0
   26.8520  -20.8916  -13.8227 C   0  0  0  0  0  0  0  0  0  0  0  0
   25.8444  -21.5796  -14.1179 O   0  0  0  0  0  0  0  0  0  0  0  0
   27.9804  -20.8495   -7.4025 C   0  0  0  0  0  0  0  0  0  0  0  0
   26.3936  -19.9736   -7.5428 S   0  0  0  0  0  0  0  0  0  0  0  0
   25.4974  -20.5451   -9.0403 C   0  0  0  0  0  0  0  0  0  0  0  0
   26.4290  -20.3549  -10.1814 C   0  0  0  0  0  0  0  0  0  0  0  0
   25.9335  -20.8275  -11.5231 C   0  0  2  0  0  0  0  0  0  0  0  0
   27.0072  -20.4958  -12.4674 N   0  0  0  0  0  0  0  0  0  0  0  0
   24.6934  -20.1029  -11.8668 C   0  0  0  0  0  0  0  0  0  0  0  0
   24.7223  -18.8540  -12.0183 O   0  0  0  0  0  0  0  0  0  0  0  0
   23.4784  -20.7955  -12.0267 N   0  0  0  0  0  0  0  0  0  0  0  0
   22.2407  -20.0985  -12.4020 C   0  0  1  0  0  0  0  0  0  0  0  0
   22.3121  -19.9490  -13.8823 C   0  0  0  0  0  0  0  0  0  0  0  0
   22.2861  -21.1957  -14.6905 C   0  0  0  0  0  0  0  0  0  0  0  0
   22.3315  -20.9559  -16.1351 C   0  0  0  0  0  0  0  0  0  0  0  0
   22.3022  -19.7721  -16.6206 O   0  0  0  0  0  0  0  0  0  0  0  0
   21.0502  -20.6358  -11.7977 C   0  0  0  0  0  0  0  0  0  0  0  0
   19.8889  -20.1132  -11.8920 O   0  0  0  0  0  0  0  0  0  0  0  0
   22.4087  -22.0149  -17.0278 O   0  0  0  0  0  0  0  0  0  0  0  0
   21.0819  -21.8138  -11.0474 O   0  0  0  0  0  0  0  0  0  0  0  0
  2  1  1  0
  3  4  1  1
  3  2  1  0
  5  3  1  0
  5  6  1  6
  7  8  2  0
  7  5  1  0
  9 10  1  0
 10 11  1  0
 11 12  1  0
 13 12  1  1
 13 14  1  0
 14  7  1  0
 15 13  1  0
 16 15  2  0
 17 15  1  0
 18 17  1  0
 18 19  1  6
 19 20  1  0
 20 21  1  0
 21 22  2  0
 23 26  1  0
 23 18  1  0
 24 23  2  0
 25 21  1  0
M  END
$$$$
