HVR.pdb
     RDKit          3D

 29 29  0  0  1  0  0  0  0  0999 V2000
   10.1537  -16.5893   15.8069 N   0  0  0  0  0  0  0  0  0  0  0  0
   10.3258  -15.4385   16.6584 C   0  0  1  0  0  0  0  0  0  0  0  0
    8.9754  -14.9870   17.1950 C   0  0  0  0  0  0  0  0  0  0  0  0
    8.2229  -14.2985   16.1156 C   0  0  0  0  0  0  0  0  0  0  0  0
    8.6223  -14.1541   14.7956 C   0  0  0  0  0  0  0  0  0  0  0  0
    7.6853  -13.4774   14.1087 N   0  0  0  0  0  0  0  0  0  0  0  0
    6.7044  -13.2004   14.9974 C   0  0  0  0  0  0  0  0  0  0  0  0
    7.0289  -13.6935   16.1993 N   0  0  0  0  0  0  0  0  0  0  0  0
   11.1498  -15.8125   17.8306 C   0  0  0  0  0  0  0  0  0  0  0  0
   11.0841  -16.9883   18.2606 O   0  0  0  0  0  0  0  0  0  0  0  0
   14.8951  -15.0047   18.1224 C   0  0  0  0  0  0  0  0  0  0  0  0
   14.2448  -14.6689   19.4276 C   0  0  2  0  0  0  0  0  0  0  0  0
   15.0971  -15.0330   20.6267 C   0  0  0  0  0  0  0  0  0  0  0  0
   12.8771  -15.3654   19.5329 C   0  0  2  0  0  0  0  0  0  0  0  0
   12.0081  -14.8963   18.4838 N   0  0  0  0  0  0  0  0  0  0  0  0
   12.3650  -14.9964   20.8854 C   0  0  0  0  0  0  0  0  0  0  0  0
   11.9697  -13.8245   21.1229 O   0  0  0  0  0  0  0  0  0  0  0  0
    8.0806  -14.0687   26.2289 N   0  0  0  0  0  0  0  0  0  0  0  0
    7.0627  -13.8042   25.2849 C   0  0  0  0  0  0  0  0  0  0  0  0
    6.3654  -12.7095   25.3164 N   0  0  0  0  0  0  0  0  0  0  0  0
    6.7328  -14.7126   24.2414 N   0  0  0  0  0  0  0  0  0  0  0  0
    7.6411  -15.0906   23.1771 C   0  0  0  0  0  0  0  0  0  0  0  0
    9.0255  -15.3267   23.6120 C   0  0  0  0  0  0  0  0  0  0  0  0
   10.1098  -15.6090   22.6924 C   0  0  0  0  0  0  0  0  0  0  0  0
   11.4964  -15.8824   23.0971 C   0  0  2  0  0  0  0  0  0  0  0  0
   12.3390  -15.9955   21.8813 N   0  0  0  0  0  0  0  0  0  0  0  0
   11.7767  -17.0489   23.9192 C   0  0  0  0  0  0  0  0  0  0  0  0
   11.7782  -16.8890   25.3275 O   0  0  0  0  0  0  0  0  0  0  0  0
   12.0175  -18.1819   23.5058 O   0  0  0  0  0  0  0  0  0  0  0  0
  2  1  1  6
  3  4  1  0
  3  2  1  0
  4  8  1  0
  5  6  1  0
  5  4  2  0
  6  7  1  0
  7  8  2  0
  9  2  1  0
  9 10  2  0
 12 14  1  0
 12 11  1  6
 13 12  1  0
 14 15  1  6
 15  9  1  0
 16 14  1  0
 17 16  2  0
 18 19  1  0
 19 20  2  0
 19 21  1  0
 21 22  1  0
 22 23  1  0
 23 24  1  0
 25 24  1  6
 25 27  1  0
 25 26  1  0
 26 16  1  0
 27 28  1  0
 29 27  2  0
M  END
$$$$
