HVR.pdb
     RDKit          3D

 29 29  0  0  1  0  0  0  0  0999 V2000
    8.1390  -15.0300   20.6499 N   0  0  0  0  0  0  0  0  0  0  0  0
    7.4168  -15.3314   21.8609 C   0  0  1  0  0  0  0  0  0  0  0  0
    7.4039  -16.8351   22.0934 C   0  0  0  0  0  0  0  0  0  0  0  0
    6.5377  -17.4824   21.0756 C   0  0  0  0  0  0  0  0  0  0  0  0
    5.9213  -16.8588   20.0015 C   0  0  0  0  0  0  0  0  0  0  0  0
    5.2197  -17.7613   19.2935 N   0  0  0  0  0  0  0  0  0  0  0  0
    5.3979  -18.9441   19.9241 C   0  0  0  0  0  0  0  0  0  0  0  0
    6.1881  -18.7744   20.9916 N   0  0  0  0  0  0  0  0  0  0  0  0
    8.1178  -14.7248   23.0157 C   0  0  0  0  0  0  0  0  0  0  0  0
    9.3612  -14.8595   23.1022 O   0  0  0  0  0  0  0  0  0  0  0  0
    6.0480  -12.8097   26.2460 C   0  0  0  0  0  0  0  0  0  0  0  0
    7.4167  -12.3660   25.8348 C   0  0  2  0  0  0  0  0  0  0  0  0
    7.3985  -11.1714   24.9024 C   0  0  0  0  0  0  0  0  0  0  0  0
    8.1741  -13.5296   25.1720 C   0  0  2  0  0  0  0  0  0  0  0  0
    7.4403  -13.9994   24.0246 N   0  0  0  0  0  0  0  0  0  0  0  0
    8.2730  -14.5736   26.2341 C   0  0  0  0  0  0  0  0  0  0  0  0
    7.3018  -15.3392   26.4722 O   0  0  0  0  0  0  0  0  0  0  0  0
   12.0675  -21.0779   26.2443 N   0  0  0  0  0  0  0  0  0  0  0  0
   12.6353  -20.0509   25.4568 C   0  0  0  0  0  0  0  0  0  0  0  0
   12.7572  -20.1616   24.1690 N   0  0  0  0  0  0  0  0  0  0  0  0
   13.1102  -18.8325   26.0161 N   0  0  0  0  0  0  0  0  0  0  0  0
   12.7652  -18.3592   27.3419 C   0  0  0  0  0  0  0  0  0  0  0  0
   11.3700  -17.9198   27.4885 C   0  0  0  0  0  0  0  0  0  0  0  0
   10.9067  -16.6029   27.0982 C   0  0  0  0  0  0  0  0  0  0  0  0
    9.8237  -15.8678   27.7676 C   0  0  2  0  0  0  0  0  0  0  0  0
    9.4804  -14.6735   26.9571 N   0  0  0  0  0  0  0  0  0  0  0  0
   10.0172  -15.4128   29.1353 C   0  0  0  0  0  0  0  0  0  0  0  0
   10.1696  -16.3910   30.1495 O   0  0  0  0  0  0  0  0  0  0  0  0
   10.0621  -14.2411   29.5063 O   0  0  0  0  0  0  0  0  0  0  0  0
  2  1  1  6
  3  4  1  0
  3  2  1  0
  4  8  1  0
  5  6  1  0
  5  4  2  0
  6  7  1  0
  7  8  2  0
  9  2  1  0
  9 10  2  0
 12 14  1  0
 12 11  1  6
 13 12  1  0
 14 15  1  6
 15  9  1  0
 16 14  1  0
 17 16  2  0
 18 19  1  0
 19 20  2  0
 19 21  1  0
 21 22  1  0
 22 23  1  0
 23 24  1  0
 25 24  1  6
 25 27  1  0
 25 26  1  0
 26 16  1  0
 27 28  1  0
 29 27  2  0
M  END
$$$$
