HVR.pdb
     RDKit          3D

 29 29  0  0  1  0  0  0  0  0999 V2000
    5.4431  -15.3980   20.7099 N   0  0  0  0  0  0  0  0  0  0  0  0
    6.7518  -15.7400   21.2093 C   0  0  1  0  0  0  0  0  0  0  0  0
    7.4944  -14.4766   21.6188 C   0  0  0  0  0  0  0  0  0  0  0  0
    7.9965  -13.7860   20.4038 C   0  0  0  0  0  0  0  0  0  0  0  0
    7.8483  -14.2128   19.0928 C   0  0  0  0  0  0  0  0  0  0  0  0
    8.4290  -13.3316   18.2596 N   0  0  0  0  0  0  0  0  0  0  0  0
    8.9379  -12.3582   19.0484 C   0  0  0  0  0  0  0  0  0  0  0  0
    8.6774  -12.6327   20.3328 N   0  0  0  0  0  0  0  0  0  0  0  0
    6.6121  -16.5695   22.4280 C   0  0  0  0  0  0  0  0  0  0  0  0
    5.7637  -16.2352   23.2883 O   0  0  0  0  0  0  0  0  0  0  0  0
    5.3666  -19.8049   22.5586 C   0  0  0  0  0  0  0  0  0  0  0  0
    6.6344  -19.9368   23.3426 C   0  0  2  0  0  0  0  0  0  0  0  0
    6.4996  -20.8568   24.5393 C   0  0  0  0  0  0  0  0  0  0  0  0
    7.1178  -18.5515   23.8054 C   0  0  2  0  0  0  0  0  0  0  0  0
    7.3973  -17.7239   22.6597 N   0  0  0  0  0  0  0  0  0  0  0  0
    8.3470  -18.8252   24.6066 C   0  0  0  0  0  0  0  0  0  0  0  0
    9.3714  -19.3142   24.0612 O   0  0  0  0  0  0  0  0  0  0  0  0
   10.5130  -15.2073   31.3773 N   0  0  0  0  0  0  0  0  0  0  0  0
   10.6569  -14.2263   30.3702 C   0  0  0  0  0  0  0  0  0  0  0  0
   10.8869  -12.9804   30.6539 N   0  0  0  0  0  0  0  0  0  0  0  0
   10.5602  -14.5329   28.9848 N   0  0  0  0  0  0  0  0  0  0  0  0
    9.3336  -14.9365   28.3264 C   0  0  0  0  0  0  0  0  0  0  0  0
    9.4903  -16.0422   27.3702 C   0  0  0  0  0  0  0  0  0  0  0  0
    9.5178  -17.4365   27.7657 C   0  0  0  0  0  0  0  0  0  0  0  0
    9.5427  -18.5687   26.8282 C   0  0  2  0  0  0  0  0  0  0  0  0
    8.3236  -18.5211   25.9841 N   0  0  0  0  0  0  0  0  0  0  0  0
    9.6437  -19.9208   27.3541 C   0  0  0  0  0  0  0  0  0  0  0  0
   10.9350  -20.4347   27.6320 O   0  0  0  0  0  0  0  0  0  0  0  0
    8.7020  -20.6771   27.5857 O   0  0  0  0  0  0  0  0  0  0  0  0
  2  1  1  1
  3  4  1  0
  3  2  1  0
  4  8  1  0
  5  6  1  0
  5  4  2  0
  6  7  1  0
  7  8  2  0
  9  2  1  0
  9 10  2  0
 12 14  1  0
 12 11  1  1
 13 12  1  0
 14 15  1  6
 15  9  1  0
 16 14  1  0
 17 16  2  0
 18 19  1  0
 19 20  2  0
 19 21  1  0
 21 22  1  0
 22 23  1  0
 23 24  1  0
 25 24  1  1
 25 27  1  0
 25 26  1  0
 26 16  1  0
 27 28  1  0
 29 27  2  0
M  END
$$$$
