HVR.pdb
     RDKit          3D

 29 29  0  0  1  0  0  0  0  0999 V2000
   10.0989  -15.6009   15.5057 N   0  0  0  0  0  0  0  0  0  0  0  0
    9.1962  -16.0335   16.5435 C   0  0  1  0  0  0  0  0  0  0  0  0
    9.3282  -17.5355   16.7492 C   0  0  0  0  0  0  0  0  0  0  0  0
    8.6864  -18.2454   15.6136 C   0  0  0  0  0  0  0  0  0  0  0  0
    8.0217  -17.6608   14.5463 C   0  0  0  0  0  0  0  0  0  0  0  0
    7.5749  -18.6154   13.7114 N   0  0  0  0  0  0  0  0  0  0  0  0
    7.9596  -19.7917   14.2563 C   0  0  0  0  0  0  0  0  0  0  0  0
    8.6255  -19.5673   15.3961 N   0  0  0  0  0  0  0  0  0  0  0  0
    9.5731  -15.3906   17.8231 C   0  0  0  0  0  0  0  0  0  0  0  0
   10.7846  -15.3544   18.1433 O   0  0  0  0  0  0  0  0  0  0  0  0
    6.7449  -13.9701   20.8063 C   0  0  0  0  0  0  0  0  0  0  0  0
    8.0025  -13.2402   20.4532 C   0  0  2  0  0  0  0  0  0  0  0  0
    7.7854  -12.1442   19.4291 C   0  0  0  0  0  0  0  0  0  0  0  0
    9.0622  -14.2290   19.9376 C   0  0  2  0  0  0  0  0  0  0  0  0
    8.6208  -14.8156   18.6978 N   0  0  0  0  0  0  0  0  0  0  0  0
    9.1904  -15.2485   21.0201 C   0  0  0  0  0  0  0  0  0  0  0  0
    8.5645  -16.3391   20.9504 O   0  0  0  0  0  0  0  0  0  0  0  0
   15.7955  -14.7133   22.0983 N   0  0  0  0  0  0  0  0  0  0  0  0
   15.3918  -15.0159   20.7782 C   0  0  0  0  0  0  0  0  0  0  0  0
   15.7500  -14.2851   19.7666 N   0  0  0  0  0  0  0  0  0  0  0  0
   14.5703  -16.1345   20.4673 N   0  0  0  0  0  0  0  0  0  0  0  0
   13.9480  -16.9858   21.4617 C   0  0  0  0  0  0  0  0  0  0  0  0
   12.5058  -16.7628   21.6388 C   0  0  0  0  0  0  0  0  0  0  0  0
   11.9286  -16.2255   22.8551 C   0  0  0  0  0  0  0  0  0  0  0  0
   10.4920  -15.9943   23.0649 C   0  0  2  0  0  0  0  0  0  0  0  0
   10.0287  -14.9525   22.1157 N   0  0  0  0  0  0  0  0  0  0  0  0
   10.0232  -15.6057   24.3856 C   0  0  0  0  0  0  0  0  0  0  0  0
    9.3874  -14.3467   24.5251 O   0  0  0  0  0  0  0  0  0  0  0  0
   10.1259  -16.2737   25.4131 O   0  0  0  0  0  0  0  0  0  0  0  0
  2  1  1  6
  3  4  1  0
  3  2  1  0
  4  8  1  0
  5  6  1  0
  5  4  2  0
  6  7  1  0
  7  8  2  0
  9  2  1  0
  9 10  2  0
 12 14  1  0
 12 11  1  6
 13 12  1  0
 14 15  1  6
 15  9  1  0
 16 14  1  0
 17 16  2  0
 18 19  1  0
 19 20  2  0
 19 21  1  0
 21 22  1  0
 22 23  1  0
 23 24  1  0
 25 24  1  1
 25 27  1  0
 25 26  1  0
 26 16  1  0
 27 28  1  0
 29 27  2  0
M  END
$$$$
