HVR.pdb
     RDKit          3D

 29 29  0  0  1  0  0  0  0  0999 V2000
   10.3063  -16.9522   16.0525 N   0  0  0  0  0  0  0  0  0  0  0  0
    9.1699  -16.9890   16.9391 C   0  0  1  0  0  0  0  0  0  0  0  0
    8.9253  -18.4167   17.4055 C   0  0  0  0  0  0  0  0  0  0  0  0
    8.2678  -19.1836   16.3169 C   0  0  0  0  0  0  0  0  0  0  0  0
    7.2573  -18.7293   15.4832 C   0  0  0  0  0  0  0  0  0  0  0  0
    6.9130  -19.6982   14.6168 N   0  0  0  0  0  0  0  0  0  0  0  0
    7.7064  -20.7535   14.9092 C   0  0  0  0  0  0  0  0  0  0  0  0
    8.5174  -20.4426   15.9283 N   0  0  0  0  0  0  0  0  0  0  0  0
    9.4633  -16.1869   18.1488 C   0  0  0  0  0  0  0  0  0  0  0  0
   10.6093  -16.2562   18.6522 O   0  0  0  0  0  0  0  0  0  0  0  0
    7.6743  -12.6122   19.3278 C   0  0  0  0  0  0  0  0  0  0  0  0
    7.7197  -13.6884   20.3665 C   0  0  2  0  0  0  0  0  0  0  0  0
    7.9511  -13.1538   21.7656 C   0  0  0  0  0  0  0  0  0  0  0  0
    8.8098  -14.7162   20.0173 C   0  0  2  0  0  0  0  0  0  0  0  0
    8.5023  -15.3457   18.7583 N   0  0  0  0  0  0  0  0  0  0  0  0
    8.7888  -15.6921   21.1464 C   0  0  0  0  0  0  0  0  0  0  0  0
    7.8998  -16.5821   21.2074 O   0  0  0  0  0  0  0  0  0  0  0  0
   15.6949  -19.5133   21.6899 N   0  0  0  0  0  0  0  0  0  0  0  0
   14.5555  -20.2371   22.1086 C   0  0  0  0  0  0  0  0  0  0  0  0
   14.5530  -21.5337   22.1760 N   0  0  0  0  0  0  0  0  0  0  0  0
   13.3400  -19.6003   22.4826 N   0  0  0  0  0  0  0  0  0  0  0  0
   13.1591  -18.8554   23.7127 C   0  0  0  0  0  0  0  0  0  0  0  0
   11.8177  -18.2788   23.8846 C   0  0  0  0  0  0  0  0  0  0  0  0
   11.2622  -17.2801   22.9928 C   0  0  0  0  0  0  0  0  0  0  0  0
    9.9703  -16.6082   23.1948 C   0  0  2  0  0  0  0  0  0  0  0  0
    9.7892  -15.5854   22.1355 N   0  0  0  0  0  0  0  0  0  0  0  0
    9.7033  -15.9556   24.4668 C   0  0  0  0  0  0  0  0  0  0  0  0
    9.5095  -16.7721   25.6089 O   0  0  0  0  0  0  0  0  0  0  0  0
    9.6271  -14.7423   24.6531 O   0  0  0  0  0  0  0  0  0  0  0  0
  2  1  1  6
  3  4  1  0
  3  2  1  0
  4  8  1  0
  5  6  1  0
  5  4  2  0
  6  7  1  0
  7  8  2  0
  9  2  1  0
  9 10  2  0
 12 14  1  0
 12 11  1  6
 13 12  1  0
 14 15  1  6
 15  9  1  0
 16 14  1  0
 17 16  2  0
 18 19  1  0
 19 20  2  0
 19 21  1  0
 21 22  1  0
 22 23  1  0
 23 24  1  0
 25 24  1  1
 25 27  1  0
 25 26  1  0
 26 16  1  0
 27 28  1  0
 29 27  2  0
M  END
$$$$
