HVR.pdb
     RDKit          3D

 29 29  0  0  1  0  0  0  0  0999 V2000
    9.7969  -13.6946   20.8746 N   0  0  0  0  0  0  0  0  0  0  0  0
    8.4993  -13.8997   21.4689 C   0  0  1  0  0  0  0  0  0  0  0  0
    7.8501  -15.1412   20.8748 C   0  0  0  0  0  0  0  0  0  0  0  0
    7.4783  -14.8732   19.4622 C   0  0  0  0  0  0  0  0  0  0  0  0
    7.8620  -13.7785   18.7027 C   0  0  0  0  0  0  0  0  0  0  0  0
    7.3376  -13.8755   17.4683 N   0  0  0  0  0  0  0  0  0  0  0  0
    6.6291  -15.0272   17.4580 C   0  0  0  0  0  0  0  0  0  0  0  0
    6.7149  -15.6233   18.6540 N   0  0  0  0  0  0  0  0  0  0  0  0
    8.6566  -14.1506   22.9198 C   0  0  0  0  0  0  0  0  0  0  0  0
    9.7260  -14.6614   23.3287 O   0  0  0  0  0  0  0  0  0  0  0  0
    6.6494  -11.9121   25.6842 C   0  0  0  0  0  0  0  0  0  0  0  0
    6.8057  -13.3422   26.0961 C   0  0  2  0  0  0  0  0  0  0  0  0
    7.1023  -13.5056   27.5734 C   0  0  0  0  0  0  0  0  0  0  0  0
    7.9138  -14.0143   25.2673 C   0  0  2  0  0  0  0  0  0  0  0  0
    7.6488  -13.8365   23.8623 N   0  0  0  0  0  0  0  0  0  0  0  0
    7.8669  -15.4524   25.6640 C   0  0  0  0  0  0  0  0  0  0  0  0
    6.7964  -16.1088   25.5680 O   0  0  0  0  0  0  0  0  0  0  0  0
   12.3308  -17.5610   21.5310 N   0  0  0  0  0  0  0  0  0  0  0  0
   11.1662  -18.2391   21.1054 C   0  0  0  0  0  0  0  0  0  0  0  0
   10.7695  -18.2119   19.8695 N   0  0  0  0  0  0  0  0  0  0  0  0
   10.3524  -18.9934   21.9951 N   0  0  0  0  0  0  0  0  0  0  0  0
   10.6215  -19.1436   23.4113 C   0  0  0  0  0  0  0  0  0  0  0  0
    9.7661  -18.3267   24.2844 C   0  0  0  0  0  0  0  0  0  0  0  0
    9.9538  -18.2336   25.7188 C   0  0  0  0  0  0  0  0  0  0  0  0
    9.0976  -17.4518   26.6226 C   0  0  2  0  0  0  0  0  0  0  0  0
    9.0516  -16.0474   26.1468 N   0  0  0  0  0  0  0  0  0  0  0  0
    9.4173  -17.4105   28.0407 C   0  0  0  0  0  0  0  0  0  0  0  0
    9.1484  -18.5634   28.8201 O   0  0  0  0  0  0  0  0  0  0  0  0
    9.9069  -16.4561   28.6424 O   0  0  0  0  0  0  0  0  0  0  0  0
  2  1  1  6
  3  4  1  0
  3  2  1  0
  4  8  1  0
  5  6  1  0
  5  4  2  0
  6  7  1  0
  7  8  2  0
  9  2  1  0
  9 10  2  0
 12 14  1  0
 12 11  1  6
 13 12  1  0
 14 15  1  6
 15  9  1  0
 16 14  1  0
 17 16  2  0
 18 19  1  0
 19 20  2  0
 19 21  1  0
 21 22  1  0
 22 23  1  0
 23 24  1  0
 25 24  1  6
 25 27  1  0
 25 26  1  0
 26 16  1  0
 27 28  1  0
 29 27  2  0
M  END
$$$$
