HVR.pdb
     RDKit          3D

 29 29  0  0  1  0  0  0  0  0999 V2000
    9.2242  -16.0943   14.7896 N   0  0  0  0  0  0  0  0  0  0  0  0
    8.4752  -16.5759   15.9236 C   0  0  1  0  0  0  0  0  0  0  0  0
    8.6914  -18.0734   16.0865 C   0  0  0  0  0  0  0  0  0  0  0  0
    7.9842  -18.7935   14.9972 C   0  0  0  0  0  0  0  0  0  0  0  0
    6.7249  -19.3690   15.0719 C   0  0  0  0  0  0  0  0  0  0  0  0
    6.4108  -19.9298   13.8909 N   0  0  0  0  0  0  0  0  0  0  0  0
    7.4709  -19.7048   13.0821 C   0  0  0  0  0  0  0  0  0  0  0  0
    8.4124  -19.0237   13.7473 N   0  0  0  0  0  0  0  0  0  0  0  0
    8.9820  -15.9326   17.1573 C   0  0  0  0  0  0  0  0  0  0  0  0
   10.2214  -15.8345   17.3181 O   0  0  0  0  0  0  0  0  0  0  0  0
    6.9423  -12.9466   19.1795 C   0  0  0  0  0  0  0  0  0  0  0  0
    7.5733  -13.9861   20.0515 C   0  0  2  0  0  0  0  0  0  0  0  0
    8.1304  -13.4199   21.3423 C   0  0  0  0  0  0  0  0  0  0  0  0
    8.6872  -14.7176   19.2829 C   0  0  2  0  0  0  0  0  0  0  0  0
    8.1235  -15.4243   18.1610 N   0  0  0  0  0  0  0  0  0  0  0  0
    9.2899  -15.6495   20.2809 C   0  0  0  0  0  0  0  0  0  0  0  0
    8.7370  -16.7497   20.5454 O   0  0  0  0  0  0  0  0  0  0  0  0
   17.2032  -17.5221   25.0631 N   0  0  0  0  0  0  0  0  0  0  0  0
   16.3334  -16.7041   24.3069 C   0  0  0  0  0  0  0  0  0  0  0  0
   15.6347  -15.7562   24.8536 N   0  0  0  0  0  0  0  0  0  0  0  0
   16.1634  -16.8611   22.9036 N   0  0  0  0  0  0  0  0  0  0  0  0
   15.2287  -16.0903   22.1080 C   0  0  0  0  0  0  0  0  0  0  0  0
   13.8201  -16.4740   22.2805 C   0  0  0  0  0  0  0  0  0  0  0  0
   12.7265  -15.8084   21.6004 C   0  0  0  0  0  0  0  0  0  0  0  0
   11.3154  -16.2086   21.7007 C   0  0  2  0  0  0  0  0  0  0  0  0
   10.4894  -15.2603   20.9136 N   0  0  0  0  0  0  0  0  0  0  0  0
   10.7024  -16.3175   23.0150 C   0  0  0  0  0  0  0  0  0  0  0  0
   10.0561  -15.1741   23.5476 O   0  0  0  0  0  0  0  0  0  0  0  0
   10.6893  -17.3225   23.7238 O   0  0  0  0  0  0  0  0  0  0  0  0
  2  1  1  6
  3  4  1  0
  3  2  1  0
  4  8  1  0
  5  6  1  0
  5  4  2  0
  6  7  1  0
  7  8  2  0
  9  2  1  0
  9 10  2  0
 12 14  1  0
 12 11  1  6
 13 12  1  0
 14 15  1  6
 15  9  1  0
 16 14  1  0
 17 16  2  0
 18 19  1  0
 19 20  2  0
 19 21  1  0
 21 22  1  0
 22 23  1  0
 23 24  1  0
 25 24  1  1
 25 27  1  0
 25 26  1  0
 26 16  1  0
 27 28  1  0
 29 27  2  0
M  END
$$$$
