HVR.pdb
     RDKit          3D

 29 29  0  0  1  0  0  0  0  0999 V2000
    9.8901  -14.1061   21.0813 N   0  0  0  0  0  0  0  0  0  0  0  0
    8.5713  -13.7996   21.5771 C   0  0  1  0  0  0  0  0  0  0  0  0
    7.5458  -14.7040   20.9091 C   0  0  0  0  0  0  0  0  0  0  0  0
    7.5818  -14.4871   19.4405 C   0  0  0  0  0  0  0  0  0  0  0  0
    7.4393  -13.2746   18.7829 C   0  0  0  0  0  0  0  0  0  0  0  0
    7.5299  -13.4645   17.4549 N   0  0  0  0  0  0  0  0  0  0  0  0
    7.7281  -14.7913   17.2846 C   0  0  0  0  0  0  0  0  0  0  0  0
    7.7589  -15.4018   18.4759 N   0  0  0  0  0  0  0  0  0  0  0  0
    8.5129  -14.0841   23.0291 C   0  0  0  0  0  0  0  0  0  0  0  0
    9.3284  -14.9036   23.5140 O   0  0  0  0  0  0  0  0  0  0  0  0
    6.5827  -11.4688   25.6623 C   0  0  0  0  0  0  0  0  0  0  0  0
    6.5469  -12.9183   26.0324 C   0  0  2  0  0  0  0  0  0  0  0  0
    6.6465  -13.1523   27.5264 C   0  0  0  0  0  0  0  0  0  0  0  0
    7.6751  -13.6769   25.3124 C   0  0  2  0  0  0  0  0  0  0  0  0
    7.5743  -13.4678   23.8905 N   0  0  0  0  0  0  0  0  0  0  0  0
    7.4662  -15.1084   25.6798 C   0  0  0  0  0  0  0  0  0  0  0  0
    6.5336  -15.7743   25.1575 O   0  0  0  0  0  0  0  0  0  0  0  0
   13.2364  -21.0466   22.3595 N   0  0  0  0  0  0  0  0  0  0  0  0
   12.5074  -20.4374   23.4058 C   0  0  0  0  0  0  0  0  0  0  0  0
   13.0683  -20.1004   24.5271 N   0  0  0  0  0  0  0  0  0  0  0  0
   11.1176  -20.1531   23.3046 N   0  0  0  0  0  0  0  0  0  0  0  0
   10.5423  -18.8367   23.4965 C   0  0  0  0  0  0  0  0  0  0  0  0
    9.9825  -18.6053   24.8361 C   0  0  0  0  0  0  0  0  0  0  0  0
    9.3402  -17.3655   25.2253 C   0  0  0  0  0  0  0  0  0  0  0  0
    8.7609  -17.1072   26.5516 C   0  0  2  0  0  0  0  0  0  0  0  0
    8.3406  -15.6863   26.6244 N   0  0  0  0  0  0  0  0  0  0  0  0
    9.5592  -17.3762   27.7371 C   0  0  0  0  0  0  0  0  0  0  0  0
   10.0663  -16.2715   28.4659 O   0  0  0  0  0  0  0  0  0  0  0  0
    9.8435  -18.4885   28.1782 O   0  0  0  0  0  0  0  0  0  0  0  0
  2  1  1  6
  3  4  1  0
  3  2  1  0
  4  8  1  0
  5  6  1  0
  5  4  2  0
  6  7  1  0
  7  8  2  0
  9  2  1  0
  9 10  2  0
 12 14  1  0
 12 11  1  1
 13 12  1  0
 14 15  1  6
 15  9  1  0
 16 14  1  0
 17 16  2  0
 18 19  1  0
 19 20  2  0
 19 21  1  0
 21 22  1  0
 22 23  1  0
 23 24  1  0
 25 24  1  6
 25 27  1  0
 25 26  1  0
 26 16  1  0
 27 28  1  0
 29 27  2  0
M  END
$$$$
