HVR.pdb
     RDKit          3D

 29 29  0  0  1  0  0  0  0  0999 V2000
    6.8179  -14.2561   21.1476 N   0  0  0  0  0  0  0  0  0  0  0  0
    7.9384  -15.0511   21.5852 C   0  0  1  0  0  0  0  0  0  0  0  0
    9.0498  -14.9918   20.5475 C   0  0  0  0  0  0  0  0  0  0  0  0
    8.4940  -14.5049   19.2593 C   0  0  0  0  0  0  0  0  0  0  0  0
    7.4346  -13.6248   19.0992 C   0  0  0  0  0  0  0  0  0  0  0  0
    7.2148  -13.4116   17.7899 N   0  0  0  0  0  0  0  0  0  0  0  0
    8.1343  -14.1565   17.1354 C   0  0  0  0  0  0  0  0  0  0  0  0
    8.8996  -14.8107   18.0181 N   0  0  0  0  0  0  0  0  0  0  0  0
    8.4884  -14.4800   22.8359 C   0  0  0  0  0  0  0  0  0  0  0  0
    9.7191  -14.5816   23.0524 O   0  0  0  0  0  0  0  0  0  0  0  0
    7.8663  -12.2473   27.1943 C   0  0  0  0  0  0  0  0  0  0  0  0
    7.2732  -12.6072   25.8684 C   0  0  2  0  0  0  0  0  0  0  0  0
    5.9014  -13.2410   25.9840 C   0  0  0  0  0  0  0  0  0  0  0  0
    8.2176  -13.5508   25.1040 C   0  0  2  0  0  0  0  0  0  0  0  0
    7.6808  -13.8242   23.7953 N   0  0  0  0  0  0  0  0  0  0  0  0
    8.2878  -14.7822   25.9444 C   0  0  0  0  0  0  0  0  0  0  0  0
    7.3071  -15.5696   26.0103 O   0  0  0  0  0  0  0  0  0  0  0  0
   11.1715  -21.4084   23.2431 N   0  0  0  0  0  0  0  0  0  0  0  0
   12.0893  -20.7805   24.1155 C   0  0  0  0  0  0  0  0  0  0  0  0
   13.0912  -21.4224   24.6349 N   0  0  0  0  0  0  0  0  0  0  0  0
   11.9802  -19.4110   24.4833 N   0  0  0  0  0  0  0  0  0  0  0  0
   12.4781  -18.8631   25.7293 C   0  0  0  0  0  0  0  0  0  0  0  0
   11.4431  -18.2821   26.5967 C   0  0  0  0  0  0  0  0  0  0  0  0
   10.7889  -17.0193   26.3165 C   0  0  0  0  0  0  0  0  0  0  0  0
    9.8107  -16.3723   27.2030 C   0  0  2  0  0  0  0  0  0  0  0  0
    9.4792  -15.0330   26.6574 N   0  0  0  0  0  0  0  0  0  0  0  0
   10.1407  -16.1900   28.6076 C   0  0  0  0  0  0  0  0  0  0  0  0
   10.2459  -17.3435   29.4243 O   0  0  0  0  0  0  0  0  0  0  0  0
   10.3410  -15.1136   29.1678 O   0  0  0  0  0  0  0  0  0  0  0  0
  2  1  1  6
  3  4  1  0
  3  2  1  0
  4  8  1  0
  5  6  1  0
  5  4  2  0
  6  7  1  0
  7  8  2  0
  9  2  1  0
  9 10  2  0
 12 14  1  0
 12 11  1  1
 13 12  1  0
 14 15  1  6
 15  9  1  0
 16 14  1  0
 17 16  2  0
 18 19  1  0
 19 20  2  0
 19 21  1  0
 21 22  1  0
 22 23  1  0
 23 24  1  0
 25 24  1  6
 25 27  1  0
 25 26  1  0
 26 16  1  0
 27 28  1  0
 29 27  2  0
M  END
$$$$
