HVR.pdb
     RDKit          3D

 29 29  0  0  1  0  0  0  0  0999 V2000
    8.0518  -16.5529   16.2348 N   0  0  0  0  0  0  0  0  0  0  0  0
    9.3946  -16.0722   16.0230 C   0  0  1  0  0  0  0  0  0  0  0  0
    9.4241  -15.1349   14.8245 C   0  0  0  0  0  0  0  0  0  0  0  0
    8.8426  -15.8260   13.6457 C   0  0  0  0  0  0  0  0  0  0  0  0
    7.5293  -15.7453   13.2082 C   0  0  0  0  0  0  0  0  0  0  0  0
    7.3691  -16.5030   12.1090 N   0  0  0  0  0  0  0  0  0  0  0  0
    8.5787  -17.0546   11.8617 C   0  0  0  0  0  0  0  0  0  0  0  0
    9.4600  -16.6474   12.7839 N   0  0  0  0  0  0  0  0  0  0  0  0
    9.8247  -15.2799   17.1977 C   0  0  0  0  0  0  0  0  0  0  0  0
   11.0094  -14.8725   17.2465 O   0  0  0  0  0  0  0  0  0  0  0  0
    7.2413  -14.2590   20.5304 C   0  0  0  0  0  0  0  0  0  0  0  0
    8.3974  -13.4254   20.0744 C   0  0  2  0  0  0  0  0  0  0  0  0
    7.9969  -12.3388   19.0967 C   0  0  0  0  0  0  0  0  0  0  0  0
    9.4783  -14.3190   19.4423 C   0  0  2  0  0  0  0  0  0  0  0  0
    8.9523  -14.9643   18.2664 N   0  0  0  0  0  0  0  0  0  0  0  0
    9.8285  -15.3043   20.5073 C   0  0  0  0  0  0  0  0  0  0  0  0
    9.1287  -16.3371   20.6796 O   0  0  0  0  0  0  0  0  0  0  0  0
   14.6275  -14.1746   18.2297 N   0  0  0  0  0  0  0  0  0  0  0  0
   15.8215  -14.4691   18.9261 C   0  0  0  0  0  0  0  0  0  0  0  0
   16.8951  -13.7538   18.7802 N   0  0  0  0  0  0  0  0  0  0  0  0
   15.9300  -15.5624   19.8293 N   0  0  0  0  0  0  0  0  0  0  0  0
   15.2814  -15.6127   21.1245 C   0  0  0  0  0  0  0  0  0  0  0  0
   13.8280  -15.8269   21.0707 C   0  0  0  0  0  0  0  0  0  0  0  0
   12.9929  -15.9097   22.2527 C   0  0  0  0  0  0  0  0  0  0  0  0
   11.5301  -16.0544   22.2316 C   0  0  2  0  0  0  0  0  0  0  0  0
   10.9599  -15.0425   21.3086 N   0  0  0  0  0  0  0  0  0  0  0  0
   10.7912  -15.9559   23.4803 C   0  0  0  0  0  0  0  0  0  0  0  0
   10.8504  -17.0497   24.3797 O   0  0  0  0  0  0  0  0  0  0  0  0
   10.1066  -14.9996   23.8400 O   0  0  0  0  0  0  0  0  0  0  0  0
  2  1  1  1
  3  4  1  0
  3  2  1  0
  4  8  1  0
  5  6  1  0
  5  4  2  0
  6  7  1  0
  7  8  2  0
  9  2  1  0
  9 10  2  0
 12 14  1  0
 12 11  1  6
 13 12  1  0
 14 15  1  6
 15  9  1  0
 16 14  1  0
 17 16  2  0
 18 19  1  0
 19 20  2  0
 19 21  1  0
 21 22  1  0
 22 23  1  0
 23 24  1  0
 25 24  1  1
 25 27  1  0
 25 26  1  0
 26 16  1  0
 27 28  1  0
 29 27  2  0
M  END
$$$$
