ACA.pdb
     RDKit          3D

 17 16  0  0  1  0  0  0  0  0999 V2000
   21.1413  -21.3507  -15.4540 C   0  0  0  0  0  0  0  0  0  0  0  0
   20.9365  -20.9230  -13.9970 C   0  0  2  0  0  0  0  0  0  0  0  0
   19.8665  -19.9469  -14.0106 N   0  0  0  0  0  0  0  0  0  0  0  0
   22.1410  -20.3131  -13.4337 C   0  0  0  0  0  0  0  0  0  0  0  0
   22.4259  -19.1251  -13.7212 O   0  0  0  0  0  0  0  0  0  0  0  0
   23.0478  -20.9814  -12.5550 N   0  0  0  0  0  0  0  0  0  0  0  0
   24.2709  -20.3768  -12.1238 C   0  0  1  0  0  0  0  0  0  0  0  0
   24.7147  -21.1116  -10.8507 C   0  0  0  0  0  0  0  0  0  0  0  0
   26.1931  -20.2952  -10.2026 S   0  0  0  0  0  0  0  0  0  0  0  0
   25.3744  -20.5245  -13.0969 C   0  0  0  0  0  0  0  0  0  0  0  0
   25.5948  -21.6875  -13.5357 O   0  0  0  0  0  0  0  0  0  0  0  0
   27.8662  -18.4176  -14.8835 C   0  0  0  0  0  0  0  0  0  0  0  0
   27.1697  -19.7303  -14.5846 C   0  0  2  0  0  0  0  0  0  0  0  0
   26.1799  -19.4743  -13.5575 N   0  0  0  0  0  0  0  0  0  0  0  0
   28.1444  -20.7738  -14.1531 C   0  0  0  0  0  0  0  0  0  0  0  0
   28.3418  -21.1025  -12.9743 O   0  0  0  0  0  0  0  0  0  0  0  0
   28.8637  -21.4007  -15.1674 O   0  0  0  0  0  0  0  0  0  0  0  0
  2  1  1  6
  2  4  1  0
  3  2  1  0
  4  6  1  0
  5  4  2  0
  6  7  1  0
  7  8  1  1
  8  9  1  0
 10 14  1  0
 10  7  1  0
 11 10  2  0
 13 12  1  1
 13 14  1  0
 13 15  1  0
 15 17  1  0
 16 15  2  0
M  END
$$$$
