ACA.pdb
     RDKit          3D

 17 16  0  0  1  0  0  0  0  0999 V2000
   18.0851   -9.6087  -16.8425 C   0  0  0  0  0  0  0  0  0  0  0  0
   19.4921   -9.6020  -16.2358 C   0  0  2  0  0  0  0  0  0  0  0  0
   19.6379  -10.8659  -15.5436 N   0  0  0  0  0  0  0  0  0  0  0  0
   19.6698   -8.5055  -15.2839 C   0  0  0  0  0  0  0  0  0  0  0  0
   18.9333   -8.4405  -14.2697 O   0  0  0  0  0  0  0  0  0  0  0  0
   20.6446   -7.4700  -15.4194 N   0  0  0  0  0  0  0  0  0  0  0  0
   20.7728   -6.4180  -14.4580 C   0  0  1  0  0  0  0  0  0  0  0  0
   22.2584   -6.3293  -14.0798 C   0  0  0  0  0  0  0  0  0  0  0  0
   22.4667   -4.9900  -12.8818 S   0  0  0  0  0  0  0  0  0  0  0  0
   20.3970   -5.0894  -14.9871 C   0  0  0  0  0  0  0  0  0  0  0  0
   21.0145   -4.6894  -16.0129 O   0  0  0  0  0  0  0  0  0  0  0  0
   17.7837   -2.5179  -14.6149 C   0  0  0  0  0  0  0  0  0  0  0  0
   19.1849   -2.9451  -15.0044 C   0  0  2  0  0  0  0  0  0  0  0  0
   19.4149   -4.2570  -14.4333 N   0  0  0  0  0  0  0  0  0  0  0  0
   20.2014   -1.9605  -14.5328 C   0  0  0  0  0  0  0  0  0  0  0  0
   20.9842   -2.1586  -13.5922 O   0  0  0  0  0  0  0  0  0  0  0  0
   20.2470   -0.7482  -15.2166 O   0  0  0  0  0  0  0  0  0  0  0  0
  2  1  1  1
  2  4  1  0
  3  2  1  0
  4  6  1  0
  5  4  2  0
  6  7  1  0
  7  8  1  6
  8  9  1  0
 10 14  1  0
 10  7  1  0
 11 10  2  0
 13 12  1  1
 13 14  1  0
 13 15  1  0
 15 17  1  0
 16 15  2  0
M  END
$$$$
