ACA.pdb
     RDKit          3D

 17 16  0  0  1  0  0  0  0  0999 V2000
   18.4632   -9.2176  -17.1052 C   0  0  0  0  0  0  0  0  0  0  0  0
   19.9044   -8.7746  -16.8322 C   0  0  2  0  0  0  0  0  0  0  0  0
   20.5639   -9.9077  -16.2164 N   0  0  0  0  0  0  0  0  0  0  0  0
   19.9597   -7.6297  -15.9233 C   0  0  0  0  0  0  0  0  0  0  0  0
   19.1248   -7.5387  -14.9906 O   0  0  0  0  0  0  0  0  0  0  0  0
   20.9173   -6.5734  -16.0142 N   0  0  0  0  0  0  0  0  0  0  0  0
   20.9286   -5.4782  -15.0936 C   0  0  1  0  0  0  0  0  0  0  0  0
   22.3543   -5.3727  -14.5332 C   0  0  0  0  0  0  0  0  0  0  0  0
   22.3057   -4.3764  -13.0242 S   0  0  0  0  0  0  0  0  0  0  0  0
   20.6318   -4.1753  -15.7267 C   0  0  0  0  0  0  0  0  0  0  0  0
   21.3848   -3.8182  -16.6749 O   0  0  0  0  0  0  0  0  0  0  0  0
   17.9068   -1.7287  -15.9489 C   0  0  0  0  0  0  0  0  0  0  0  0
   19.3748   -2.0856  -16.0734 C   0  0  2  0  0  0  0  0  0  0  0  0
   19.5852   -3.3231  -15.3494 N   0  0  0  0  0  0  0  0  0  0  0  0
   20.2435   -0.9929  -15.5476 C   0  0  0  0  0  0  0  0  0  0  0  0
   20.4892    0.0595  -16.1549 O   0  0  0  0  0  0  0  0  0  0  0  0
   20.7995   -1.2013  -14.2880 O   0  0  0  0  0  0  0  0  0  0  0  0
  2  1  1  1
  2  4  1  0
  3  2  1  0
  4  6  1  0
  5  4  2  0
  6  7  1  0
  7  8  1  6
  8  9  1  0
 10 14  1  0
 10  7  1  0
 11 10  2  0
 13 12  1  1
 13 14  1  0
 13 15  1  0
 15 17  1  0
 16 15  2  0
M  END
$$$$
