ACA.pdb
     RDKit          3D

 17 16  0  0  1  0  0  0  0  0999 V2000
   13.8515  -10.5936  -18.5753 C   0  0  0  0  0  0  0  0  0  0  0  0
   15.2458  -10.8672  -18.0017 C   0  0  2  0  0  0  0  0  0  0  0  0
   15.2262  -12.2374  -17.5324 N   0  0  0  0  0  0  0  0  0  0  0  0
   15.5595   -9.9771  -16.8840 C   0  0  0  0  0  0  0  0  0  0  0  0
   14.6326   -9.5505  -16.1532 O   0  0  0  0  0  0  0  0  0  0  0  0
   16.8771   -9.5405  -16.5462 N   0  0  0  0  0  0  0  0  0  0  0  0
   17.1356   -8.7258  -15.3987 C   0  0  1  0  0  0  0  0  0  0  0  0
   18.4353   -9.2396  -14.7624 C   0  0  0  0  0  0  0  0  0  0  0  0
   18.0174  -10.5298  -13.5654 S   0  0  0  0  0  0  0  0  0  0  0  0
   17.3665   -7.3030  -15.7281 C   0  0  0  0  0  0  0  0  0  0  0  0
   18.2094   -7.0580  -16.6354 O   0  0  0  0  0  0  0  0  0  0  0  0
   15.6435   -4.1082  -15.3920 C   0  0  0  0  0  0  0  0  0  0  0  0
   16.9278   -4.8818  -15.6144 C   0  0  2  0  0  0  0  0  0  0  0  0
   16.7210   -6.2241  -15.1089 N   0  0  0  0  0  0  0  0  0  0  0  0
   18.0822   -4.2187  -14.9414 C   0  0  0  0  0  0  0  0  0  0  0  0
   18.5814   -3.1439  -15.3052 O   0  0  0  0  0  0  0  0  0  0  0  0
   18.6101   -4.8777  -13.8341 O   0  0  0  0  0  0  0  0  0  0  0  0
  2  1  1  1
  2  4  1  0
  3  2  1  0
  4  6  1  0
  5  4  2  0
  6  7  1  0
  7  8  1  6
  8  9  1  0
 10 14  1  0
 10  7  1  0
 11 10  2  0
 13 12  1  1
 13 14  1  0
 13 15  1  0
 15 17  1  0
 16 15  2  0
M  END
$$$$
