ACA.pdb
     RDKit          3D

 17 16  0  0  1  0  0  0  0  0999 V2000
   19.8813  -12.9718  -19.1798 C   0  0  0  0  0  0  0  0  0  0  0  0
   20.2303  -11.4849  -19.3031 C   0  0  2  0  0  0  0  0  0  0  0  0
   21.4496  -11.4209  -20.0823 N   0  0  0  0  0  0  0  0  0  0  0  0
   20.4581  -10.8685  -17.9961 C   0  0  0  0  0  0  0  0  0  0  0  0
   19.5205  -10.8183  -17.1632 O   0  0  0  0  0  0  0  0  0  0  0  0
   21.7008  -10.3013  -17.5777 N   0  0  0  0  0  0  0  0  0  0  0  0
   21.8816   -9.7518  -16.2690 C   0  0  1  0  0  0  0  0  0  0  0  0
   23.2189  -10.2852  -15.7351 C   0  0  0  0  0  0  0  0  0  0  0  0
   23.3993   -9.7616  -14.0130 S   0  0  0  0  0  0  0  0  0  0  0  0
   21.9874   -8.2770  -16.2604 C   0  0  0  0  0  0  0  0  0  0  0  0
   22.8475   -7.7632  -17.0284 O   0  0  0  0  0  0  0  0  0  0  0  0
   20.2012   -5.2709  -15.7308 C   0  0  0  0  0  0  0  0  0  0  0  0
   21.4970   -6.0044  -15.4466 C   0  0  2  0  0  0  0  0  0  0  0  0
   21.2074   -7.4242  -15.4676 N   0  0  0  0  0  0  0  0  0  0  0  0
   22.0791   -5.5870  -14.1382 C   0  0  0  0  0  0  0  0  0  0  0  0
   22.0180   -6.2594  -13.0985 O   0  0  0  0  0  0  0  0  0  0  0  0
   22.7273   -4.3547  -14.1184 O   0  0  0  0  0  0  0  0  0  0  0  0
  2  1  1  1
  2  4  1  0
  3  2  1  0
  4  6  1  0
  5  4  2  0
  6  7  1  0
  7  8  1  6
  8  9  1  0
 10 14  1  0
 10  7  1  0
 11 10  2  0
 13 12  1  1
 13 14  1  0
 13 15  1  0
 15 17  1  0
 16 15  2  0
M  END
$$$$
