ACA.pdb
     RDKit          3D

 17 16  0  0  1  0  0  0  0  0999 V2000
   25.4512  -19.3814  -15.0682 C   0  0  0  0  0  0  0  0  0  0  0  0
   26.6190  -18.5341  -14.5523 C   0  0  2  0  0  0  0  0  0  0  0  0
   26.6811  -17.3691  -15.4107 N   0  0  0  0  0  0  0  0  0  0  0  0
   27.8892  -19.2561  -14.6235 C   0  0  0  0  0  0  0  0  0  0  0  0
   28.5910  -19.1737  -15.6608 O   0  0  0  0  0  0  0  0  0  0  0  0
   28.4122  -20.0733  -13.5748 N   0  0  0  0  0  0  0  0  0  0  0  0
   29.6245  -20.8180  -13.7260 C   0  0  1  0  0  0  0  0  0  0  0  0
   29.9383  -21.4534  -12.3638 C   0  0  0  0  0  0  0  0  0  0  0  0
   31.4228  -22.4729  -12.5342 S   0  0  0  0  0  0  0  0  0  0  0  0
   29.5126  -21.9331  -14.6906 C   0  0  0  0  0  0  0  0  0  0  0  0
   28.4826  -22.6580  -14.6062 O   0  0  0  0  0  0  0  0  0  0  0  0
   29.7551  -22.7405  -17.9061 C   0  0  0  0  0  0  0  0  0  0  0  0
   30.2179  -23.3337  -16.5902 C   0  0  2  0  0  0  0  0  0  0  0  0
   30.4606  -22.2341  -15.6780 N   0  0  0  0  0  0  0  0  0  0  0  0
   31.4403  -24.1687  -16.7734 C   0  0  0  0  0  0  0  0  0  0  0  0
   32.5766  -23.8362  -16.4062 O   0  0  0  0  0  0  0  0  0  0  0  0
   31.2572  -25.3976  -17.4024 O   0  0  0  0  0  0  0  0  0  0  0  0
  2  1  1  6
  2  4  1  0
  3  2  1  0
  4  6  1  0
  5  4  2  0
  6  7  1  0
  7  8  1  1
  8  9  1  0
 10 14  1  0
 10  7  1  0
 11 10  2  0
 13 12  1  6
 13 14  1  0
 13 15  1  0
 15 17  1  0
 16 15  2  0
M  END
$$$$
