ACA.pdb
     RDKit          3D

 17 16  0  0  1  0  0  0  0  0999 V2000
   17.3582  -11.1002  -16.9780 C   0  0  0  0  0  0  0  0  0  0  0  0
   18.7082  -11.1613  -16.2557 C   0  0  2  0  0  0  0  0  0  0  0  0
   18.6476  -12.3184  -15.3866 N   0  0  0  0  0  0  0  0  0  0  0  0
   18.9503   -9.9638  -15.4512 C   0  0  0  0  0  0  0  0  0  0  0  0
   18.2742   -9.7689  -14.4118 O   0  0  0  0  0  0  0  0  0  0  0  0
   19.9249   -8.9667  -15.7625 N   0  0  0  0  0  0  0  0  0  0  0  0
   20.0845   -7.7875  -14.9679 C   0  0  1  0  0  0  0  0  0  0  0  0
   21.5931   -7.5550  -14.8009 C   0  0  0  0  0  0  0  0  0  0  0  0
   21.8380   -6.0404  -13.8428 S   0  0  0  0  0  0  0  0  0  0  0  0
   19.5432   -6.5696  -15.6084 C   0  0  0  0  0  0  0  0  0  0  0  0
   20.0196   -6.2591  -16.7354 O   0  0  0  0  0  0  0  0  0  0  0  0
   16.5800   -4.5594  -15.7024 C   0  0  0  0  0  0  0  0  0  0  0  0
   18.0930   -4.5868  -15.7895 C   0  0  2  0  0  0  0  0  0  0  0  0
   18.5507   -5.7493  -15.0552 N   0  0  0  0  0  0  0  0  0  0  0  0
   18.6888   -3.3314  -15.2473 C   0  0  0  0  0  0  0  0  0  0  0  0
   18.4584   -2.1979  -15.6932 O   0  0  0  0  0  0  0  0  0  0  0  0
   19.5573   -3.4783  -14.1687 O   0  0  0  0  0  0  0  0  0  0  0  0
  2  1  1  1
  2  4  1  0
  3  2  1  0
  4  6  1  0
  5  4  2  0
  6  7  1  0
  7  8  1  6
  8  9  1  0
 10 14  1  0
 10  7  1  0
 11 10  2  0
 13 12  1  1
 13 14  1  0
 13 15  1  0
 15 17  1  0
 16 15  2  0
M  END
$$$$
