ACA.pdb
     RDKit          3D

 17 16  0  0  1  0  0  0  0  0999 V2000
   22.1994  -11.3215  -18.7550 C   0  0  0  0  0  0  0  0  0  0  0  0
   21.0801  -11.7484  -17.7996 C   0  0  2  0  0  0  0  0  0  0  0  0
   20.1154  -12.4678  -18.6057 N   0  0  0  0  0  0  0  0  0  0  0  0
   20.4274  -10.5973  -17.1760 C   0  0  0  0  0  0  0  0  0  0  0  0
   19.6508   -9.8827  -17.8553 O   0  0  0  0  0  0  0  0  0  0  0  0
   20.6080  -10.2083  -15.8132 N   0  0  0  0  0  0  0  0  0  0  0  0
   20.0014   -9.0302  -15.2737 C   0  0  1  0  0  0  0  0  0  0  0  0
   19.2539   -9.4490  -13.9995 C   0  0  0  0  0  0  0  0  0  0  0  0
   18.6122   -7.9612  -13.1952 S   0  0  0  0  0  0  0  0  0  0  0  0
   20.9801   -8.0004  -14.8637 C   0  0  0  0  0  0  0  0  0  0  0  0
   21.8870   -8.3629  -14.0639 O   0  0  0  0  0  0  0  0  0  0  0  0
   22.0089   -4.5630  -15.7493 C   0  0  0  0  0  0  0  0  0  0  0  0
   21.9685   -5.7451  -14.8012 C   0  0  2  0  0  0  0  0  0  0  0  0
   20.9678   -6.6679  -15.2980 N   0  0  0  0  0  0  0  0  0  0  0  0
   21.6638   -5.3103  -13.4073 C   0  0  0  0  0  0  0  0  0  0  0  0
   20.5229   -5.2526  -12.9257 O   0  0  0  0  0  0  0  0  0  0  0  0
   22.7564   -4.9523  -12.6217 O   0  0  0  0  0  0  0  0  0  0  0  0
  2  1  1  6
  2  4  1  0
  3  2  1  0
  4  6  1  0
  5  4  2  0
  6  7  1  0
  7  8  1  1
  8  9  1  0
 10 14  1  0
 10  7  1  0
 11 10  2  0
 13 12  1  6
 13 14  1  0
 13 15  1  0
 15 17  1  0
 16 15  2  0
M  END
$$$$
