ACA.pdb
     RDKit          3D

 17 16  0  0  1  0  0  0  0  0999 V2000
   18.9294   -8.9714  -18.2971 C   0  0  0  0  0  0  0  0  0  0  0  0
   20.0859   -9.1767  -17.3132 C   0  0  2  0  0  0  0  0  0  0  0  0
   19.8776  -10.4784  -16.7131 N   0  0  0  0  0  0  0  0  0  0  0  0
   20.0970   -8.1566  -16.2647 C   0  0  0  0  0  0  0  0  0  0  0  0
   19.1427   -8.0936  -15.4519 O   0  0  0  0  0  0  0  0  0  0  0  0
   21.1391   -7.1959  -16.0854 N   0  0  0  0  0  0  0  0  0  0  0  0
   21.0499   -6.1530  -15.1098 C   0  0  1  0  0  0  0  0  0  0  0  0
   22.4359   -6.0188  -14.4628 C   0  0  0  0  0  0  0  0  0  0  0  0
   22.3762   -4.6772  -13.2509 S   0  0  0  0  0  0  0  0  0  0  0  0
   20.7308   -4.8310  -15.6904 C   0  0  0  0  0  0  0  0  0  0  0  0
   21.4884   -4.4153  -16.6105 O   0  0  0  0  0  0  0  0  0  0  0  0
   18.0013   -2.4805  -16.0665 C   0  0  0  0  0  0  0  0  0  0  0  0
   19.4892   -2.7134  -15.8940 C   0  0  2  0  0  0  0  0  0  0  0  0
   19.6586   -4.0210  -15.2926 N   0  0  0  0  0  0  0  0  0  0  0  0
   20.1105   -1.6454  -15.0583 C   0  0  0  0  0  0  0  0  0  0  0  0
   20.5865   -1.8289  -13.9284 O   0  0  0  0  0  0  0  0  0  0  0  0
   20.1416   -0.3691  -15.6144 O   0  0  0  0  0  0  0  0  0  0  0  0
  2  1  1  6
  2  4  1  0
  3  2  1  0
  4  6  1  0
  5  4  2  0
  6  7  1  0
  7  8  1  6
  8  9  1  0
 10 14  1  0
 10  7  1  0
 11 10  2  0
 13 12  1  1
 13 14  1  0
 13 15  1  0
 15 17  1  0
 16 15  2  0
M  END
$$$$
