ACA.pdb
     RDKit          3D

 17 16  0  0  1  0  0  0  0  0999 V2000
   18.5471  -10.2055  -18.0733 C   0  0  0  0  0  0  0  0  0  0  0  0
   18.9998  -10.5943  -16.6620 C   0  0  2  0  0  0  0  0  0  0  0  0
   18.0611  -11.5958  -16.1998 N   0  0  0  0  0  0  0  0  0  0  0  0
   18.9776   -9.4518  -15.7486 C   0  0  0  0  0  0  0  0  0  0  0  0
   17.9782   -8.6927  -15.7307 O   0  0  0  0  0  0  0  0  0  0  0  0
   20.0347   -9.1197  -14.8468 N   0  0  0  0  0  0  0  0  0  0  0  0
   19.9549   -7.9956  -13.9653 C   0  0  1  0  0  0  0  0  0  0  0  0
   20.4284   -8.4694  -12.5836 C   0  0  0  0  0  0  0  0  0  0  0  0
   19.0103   -9.1565  -11.6953 S   0  0  0  0  0  0  0  0  0  0  0  0
   20.8462   -6.8810  -14.3521 C   0  0  0  0  0  0  0  0  0  0  0  0
   21.8957   -7.1844  -14.9846 O   0  0  0  0  0  0  0  0  0  0  0  0
   21.4133   -4.6394  -16.1347 C   0  0  0  0  0  0  0  0  0  0  0  0
   21.4788   -4.5162  -14.6253 C   0  0  2  0  0  0  0  0  0  0  0  0
   20.6066   -5.5299  -14.0672 N   0  0  0  0  0  0  0  0  0  0  0  0
   21.0825   -3.1500  -14.1764 C   0  0  0  0  0  0  0  0  0  0  0  0
   19.9876   -2.8710  -13.6665 O   0  0  0  0  0  0  0  0  0  0  0  0
   22.0288   -2.1445  -14.3568 O   0  0  0  0  0  0  0  0  0  0  0  0
  2  1  1  6
  2  4  1  0
  3  2  1  0
  4  6  1  0
  5  4  2  0
  6  7  1  0
  7  8  1  1
  8  9  1  0
 10 14  1  0
 10  7  1  0
 11 10  2  0
 13 12  1  6
 13 14  1  0
 13 15  1  0
 15 17  1  0
 16 15  2  0
M  END
$$$$
