ACA.pdb
     RDKit          3D

 17 16  0  0  1  0  0  0  0  0999 V2000
   17.1197   -9.5418  -18.7570 C   0  0  0  0  0  0  0  0  0  0  0  0
   18.5525  -10.0388  -18.5380 C   0  0  2  0  0  0  0  0  0  0  0  0
   18.4813  -11.4854  -18.5390 N   0  0  0  0  0  0  0  0  0  0  0  0
   19.0984   -9.5818  -17.2600 C   0  0  0  0  0  0  0  0  0  0  0  0
   18.3638   -9.5679  -16.2425 O   0  0  0  0  0  0  0  0  0  0  0  0
   20.4424   -9.1362  -17.0704 N   0  0  0  0  0  0  0  0  0  0  0  0
   20.9146   -8.6668  -15.8039 C   0  0  1  0  0  0  0  0  0  0  0  0
   22.2418   -9.3855  -15.5211 C   0  0  0  0  0  0  0  0  0  0  0  0
   22.9204   -8.7483  -13.9701 S   0  0  0  0  0  0  0  0  0  0  0  0
   21.2127   -7.2186  -15.7879 C   0  0  0  0  0  0  0  0  0  0  0  0
   21.9935   -6.7880  -16.6815 O   0  0  0  0  0  0  0  0  0  0  0  0
   19.8465   -4.0703  -14.9231 C   0  0  0  0  0  0  0  0  0  0  0  0
   21.1038   -4.9171  -14.9171 C   0  0  2  0  0  0  0  0  0  0  0  0
   20.6935   -6.3058  -14.8600 N   0  0  0  0  0  0  0  0  0  0  0  0
   21.9886   -4.5634  -13.7694 C   0  0  0  0  0  0  0  0  0  0  0  0
   22.6349   -3.5091  -13.6829 O   0  0  0  0  0  0  0  0  0  0  0  0
   22.0712   -5.5022  -12.7442 O   0  0  0  0  0  0  0  0  0  0  0  0
  2  1  1  1
  2  4  1  0
  3  2  1  0
  4  6  1  0
  5  4  2  0
  6  7  1  0
  7  8  1  6
  8  9  1  0
 10 14  1  0
 10  7  1  0
 11 10  2  0
 13 12  1  1
 13 14  1  0
 13 15  1  0
 15 17  1  0
 16 15  2  0
M  END
$$$$
