ACA.pdb
     RDKit          3D

 17 16  0  0  1  0  0  0  0  0999 V2000
   19.5149   -9.9288  -20.5235 C   0  0  0  0  0  0  0  0  0  0  0  0
   20.3585  -10.5537  -19.4075 C   0  0  2  0  0  0  0  0  0  0  0  0
   19.8462  -11.8954  -19.2188 N   0  0  0  0  0  0  0  0  0  0  0  0
   20.2404   -9.8097  -18.1535 C   0  0  0  0  0  0  0  0  0  0  0  0
   19.1285   -9.7436  -17.5751 O   0  0  0  0  0  0  0  0  0  0  0  0
   21.3225   -9.1309  -17.5136 N   0  0  0  0  0  0  0  0  0  0  0  0
   21.1412   -8.3811  -16.3086 C   0  0  1  0  0  0  0  0  0  0  0  0
   22.0772   -8.9875  -15.2531 C   0  0  0  0  0  0  0  0  0  0  0  0
   21.9205   -8.0279  -13.7277 S   0  0  0  0  0  0  0  0  0  0  0  0
   21.5244   -6.9589  -16.4382 C   0  0  0  0  0  0  0  0  0  0  0  0
   22.6692   -6.7185  -16.9126 O   0  0  0  0  0  0  0  0  0  0  0  0
   19.9627   -3.6314  -16.4187 C   0  0  0  0  0  0  0  0  0  0  0  0
   21.1823   -4.5235  -16.2992 C   0  0  2  0  0  0  0  0  0  0  0  0
   20.7126   -5.8759  -16.0746 N   0  0  0  0  0  0  0  0  0  0  0  0
   22.0791   -4.0688  -15.1973 C   0  0  0  0  0  0  0  0  0  0  0  0
   21.8952   -4.3186  -13.9971 O   0  0  0  0  0  0  0  0  0  0  0  0
   23.1872   -3.3158  -15.5771 O   0  0  0  0  0  0  0  0  0  0  0  0
  2  1  1  6
  2  4  1  0
  3  2  1  0
  4  6  1  0
  5  4  2  0
  6  7  1  0
  7  8  1  1
  8  9  1  0
 10 14  1  0
 10  7  1  0
 11 10  2  0
 13 12  1  1
 13 14  1  0
 13 15  1  0
 15 17  1  0
 16 15  2  0
M  END
$$$$
