ACA.pdb
     RDKit          3D

 17 16  0  0  1  0  0  0  0  0999 V2000
   19.3275  -10.0568  -19.8460 C   0  0  0  0  0  0  0  0  0  0  0  0
   20.2483  -10.8511  -18.9138 C   0  0  2  0  0  0  0  0  0  0  0  0
   19.6913  -12.1861  -18.8396 N   0  0  0  0  0  0  0  0  0  0  0  0
   20.2963  -10.2714  -17.5716 C   0  0  0  0  0  0  0  0  0  0  0  0
   19.3800  -10.5278  -16.7532 O   0  0  0  0  0  0  0  0  0  0  0  0
   21.3347   -9.4098  -17.1021 N   0  0  0  0  0  0  0  0  0  0  0  0
   21.2618   -8.7563  -15.8313 C   0  0  1  0  0  0  0  0  0  0  0  0
   22.4572   -9.2462  -15.0013 C   0  0  0  0  0  0  0  0  0  0  0  0
   22.4300   -8.4017  -13.4018 S   0  0  0  0  0  0  0  0  0  0  0  0
   21.3891   -7.2858  -15.9185 C   0  0  0  0  0  0  0  0  0  0  0  0
   22.3973   -6.8368  -16.5312 O   0  0  0  0  0  0  0  0  0  0  0  0
   19.4439   -4.2151  -15.3224 C   0  0  0  0  0  0  0  0  0  0  0  0
   20.7634   -4.9517  -15.4412 C   0  0  2  0  0  0  0  0  0  0  0  0
   20.4778   -6.3708  -15.3740 N   0  0  0  0  0  0  0  0  0  0  0  0
   21.7132   -4.5363  -14.3686 C   0  0  0  0  0  0  0  0  0  0  0  0
   21.7541   -5.0396  -13.2365 O   0  0  0  0  0  0  0  0  0  0  0  0
   22.5992   -3.5124  -14.6941 O   0  0  0  0  0  0  0  0  0  0  0  0
  2  1  1  6
  2  4  1  0
  3  2  1  0
  4  6  1  0
  5  4  2  0
  6  7  1  0
  7  8  1  1
  8  9  1  0
 10 14  1  0
 10  7  1  0
 11 10  2  0
 13 12  1  1
 13 14  1  0
 13 15  1  0
 15 17  1  0
 16 15  2  0
M  END
$$$$
