TPM.pdb
     RDKit          3D

 23 23  0  0  1  0  0  0  0  0999 V2000
    6.1457  -11.0474   26.1283 C   0  0  0  0  0  0  0  0  0  0  0  0
    6.9229  -12.2226   25.6657 C   0  0  1  0  0  0  0  0  0  0  0  0
    7.6950  -12.7257   26.7408 O   0  0  0  0  0  0  0  0  0  0  0  0
    6.1032  -13.4012   25.1852 C   0  0  2  0  0  0  0  0  0  0  0  0
    5.3735  -13.8252   26.3957 N   0  0  0  0  0  0  0  0  0  0  0  0
    6.9014  -14.5115   24.6478 C   0  0  0  0  0  0  0  0  0  0  0  0
    6.9870  -15.5433   25.4105 O   0  0  0  0  0  0  0  0  0  0  0  0
    7.5600  -14.5423   23.4031 N   0  0  0  0  0  0  0  0  0  0  0  0
    7.6257  -13.4748   22.4451 C   0  0  0  0  0  0  0  0  0  0  0  0
    7.3815  -14.2453   21.1393 C   0  0  0  0  0  0  0  0  0  0  0  0
    8.3939  -15.3824   21.3385 C   0  0  0  0  0  0  0  0  0  0  0  0
    8.2780  -15.6554   22.8326 C   0  0  1  0  0  0  0  0  0  0  0  0
    9.6181  -15.7652   23.4686 C   0  0  0  0  0  0  0  0  0  0  0  0
   10.6296  -15.1173   23.0487 O   0  0  0  0  0  0  0  0  0  0  0  0
   10.7628  -13.4433   28.9295 C   0  0  0  0  0  0  0  0  0  0  0  0
   11.1844  -15.1708   29.2790 S   0  0  0  0  0  0  0  0  0  0  0  0
   11.7364  -15.9246   27.7133 C   0  0  0  0  0  0  0  0  0  0  0  0
   10.6380  -15.9638   26.7166 C   0  0  0  0  0  0  0  0  0  0  0  0
   11.0903  -16.5003   25.3828 C   0  0  2  0  0  0  0  0  0  0  0  0
    9.8606  -16.6023   24.5901 N   0  0  0  0  0  0  0  0  0  0  0  0
   11.7270  -17.8013   25.5561 C   0  0  0  0  0  0  0  0  0  0  0  0
   11.0817  -18.8528   25.3644 O   0  0  0  0  0  0  0  0  0  0  0  0
   13.0621  -17.9326   25.9370 O   0  0  0  0  0  0  0  0  0  0  0  0
  2  1  1  1
  2  3  1  0
  4  2  1  0
  4  6  1  0
  4  5  1  1
  6  7  2  0
  8  6  1  0
  8 12  1  0
  9 10  1  0
  9  8  1  0
 10 11  1  0
 11 12  1  0
 12 13  1  1
 13 20  1  0
 14 13  2  0
 16 15  1  0
 17 16  1  0
 18 17  1  0
 19 20  1  0
 19 18  1  1
 21 19  1  0
 22 21  2  0
 23 21  1  0
M  END
$$$$
