TPM.pdb
     RDKit          3D

 23 23  0  0  1  0  0  0  0  0999 V2000
    4.2382  -16.7200   21.3455 C   0  0  0  0  0  0  0  0  0  0  0  0
    5.1052  -17.8891   21.0614 C   0  0  1  0  0  0  0  0  0  0  0  0
    4.3202  -18.9309   20.5104 O   0  0  0  0  0  0  0  0  0  0  0  0
    6.2103  -17.6546   20.0536 C   0  0  2  0  0  0  0  0  0  0  0  0
    6.7073  -19.0147   19.7699 N   0  0  0  0  0  0  0  0  0  0  0  0
    7.2995  -16.7980   20.5419 C   0  0  0  0  0  0  0  0  0  0  0  0
    8.2083  -17.4026   21.2219 O   0  0  0  0  0  0  0  0  0  0  0  0
    7.4309  -15.4113   20.3328 N   0  0  0  0  0  0  0  0  0  0  0  0
    6.5233  -14.5672   19.6078 C   0  0  0  0  0  0  0  0  0  0  0  0
    7.5102  -13.7089   18.8030 C   0  0  0  0  0  0  0  0  0  0  0  0
    8.4561  -13.2996   19.9411 C   0  0  0  0  0  0  0  0  0  0  0  0
    8.5107  -14.5679   20.7830 C   0  0  1  0  0  0  0  0  0  0  0  0
    8.3399  -14.2657   22.2293 C   0  0  0  0  0  0  0  0  0  0  0  0
    7.6069  -13.3130   22.6471 O   0  0  0  0  0  0  0  0  0  0  0  0
    6.7559  -11.9054   28.1522 C   0  0  0  0  0  0  0  0  0  0  0  0
    6.4459  -12.5362   26.4818 S   0  0  0  0  0  0  0  0  0  0  0  0
    7.1848  -14.1999   26.3817 C   0  0  0  0  0  0  0  0  0  0  0  0
    7.4500  -14.5887   24.9746 C   0  0  0  0  0  0  0  0  0  0  0  0
    8.9228  -14.6330   24.6577 C   0  0  2  0  0  0  0  0  0  0  0  0
    8.9845  -15.0211   23.2447 N   0  0  0  0  0  0  0  0  0  0  0  0
    9.5899  -15.6090   25.5124 C   0  0  0  0  0  0  0  0  0  0  0  0
    9.7163  -15.3973   26.7364 O   0  0  0  0  0  0  0  0  0  0  0  0
   10.1094  -16.8036   25.0146 O   0  0  0  0  0  0  0  0  0  0  0  0
  2  1  1  6
  2  3  1  0
  4  2  1  0
  4  6  1  0
  4  5  1  1
  6  7  2  0
  8  6  1  0
  8 12  1  0
  9 10  1  0
  9  8  1  0
 10 11  1  0
 11 12  1  0
 12 13  1  1
 13 20  1  0
 14 13  2  0
 16 15  1  0
 17 16  1  0
 18 17  1  0
 19 20  1  0
 19 18  1  1
 21 19  1  0
 22 21  2  0
 23 21  1  0
M  END
$$$$
