TPM.pdb
     RDKit          3D

 23 23  0  0  1  0  0  0  0  0999 V2000
    5.3919  -18.0677   21.4401 C   0  0  0  0  0  0  0  0  0  0  0  0
    6.5864  -18.7076   20.8376 C   0  0  1  0  0  0  0  0  0  0  0  0
    6.1748  -19.6030   19.8208 O   0  0  0  0  0  0  0  0  0  0  0  0
    7.5616  -17.7672   20.1618 C   0  0  2  0  0  0  0  0  0  0  0  0
    8.6030  -18.6731   19.6402 N   0  0  0  0  0  0  0  0  0  0  0  0
    8.1515  -16.7641   21.0588 C   0  0  0  0  0  0  0  0  0  0  0  0
    9.1055  -17.1927   21.8071 O   0  0  0  0  0  0  0  0  0  0  0  0
    7.7737  -15.4113   21.1645 N   0  0  0  0  0  0  0  0  0  0  0  0
    6.7424  -14.7516   20.4141 C   0  0  0  0  0  0  0  0  0  0  0  0
    7.4416  -13.4291   20.0666 C   0  0  0  0  0  0  0  0  0  0  0  0
    7.9607  -13.0577   21.4631 C   0  0  0  0  0  0  0  0  0  0  0  0
    8.3598  -14.4152   22.0272 C   0  0  1  0  0  0  0  0  0  0  0  0
    7.8545  -14.5950   23.4145 C   0  0  0  0  0  0  0  0  0  0  0  0
    6.7076  -15.0854   23.6665 O   0  0  0  0  0  0  0  0  0  0  0  0
    9.8755  -14.5778   30.9200 C   0  0  0  0  0  0  0  0  0  0  0  0
   10.3061  -13.8288   29.3269 S   0  0  0  0  0  0  0  0  0  0  0  0
    8.8438  -13.9665   28.2469 C   0  0  0  0  0  0  0  0  0  0  0  0
    9.2331  -14.0247   26.8163 C   0  0  0  0  0  0  0  0  0  0  0  0
    8.0524  -14.2514   25.9074 C   0  0  2  0  0  0  0  0  0  0  0  0
    8.6190  -14.2309   24.5548 N   0  0  0  0  0  0  0  0  0  0  0  0
    7.0669  -13.1920   26.0930 C   0  0  0  0  0  0  0  0  0  0  0  0
    7.1990  -12.0951   25.5114 O   0  0  0  0  0  0  0  0  0  0  0  0
    5.9500  -13.3487   26.9133 O   0  0  0  0  0  0  0  0  0  0  0  0
  2  1  1  6
  2  3  1  0
  4  2  1  0
  4  6  1  0
  4  5  1  1
  6  7  2  0
  8  6  1  0
  8 12  1  0
  9 10  1  0
  9  8  1  0
 10 11  1  0
 11 12  1  0
 12 13  1  1
 13 20  1  0
 14 13  2  0
 16 15  1  0
 17 16  1  0
 18 17  1  0
 19 20  1  0
 19 18  1  1
 21 19  1  0
 22 21  2  0
 23 21  1  0
M  END
$$$$
