TPM.pdb
     RDKit          3D

 23 23  0  0  1  0  0  0  0  0999 V2000
   11.0312  -14.0516   17.6755 C   0  0  0  0  0  0  0  0  0  0  0  0
   10.4131  -14.2795   19.0041 C   0  0  1  0  0  0  0  0  0  0  0  0
   11.0669  -13.4749   19.9686 O   0  0  0  0  0  0  0  0  0  0  0  0
    8.9481  -13.9143   19.1156 C   0  0  2  0  0  0  0  0  0  0  0  0
    8.9314  -12.4724   18.8030 N   0  0  0  0  0  0  0  0  0  0  0  0
    8.3643  -14.1624   20.4409 C   0  0  0  0  0  0  0  0  0  0  0  0
    8.2928  -13.1333   21.2087 O   0  0  0  0  0  0  0  0  0  0  0  0
    7.8877  -15.3953   20.9274 N   0  0  0  0  0  0  0  0  0  0  0  0
    7.9478  -16.6608   20.2516 C   0  0  0  0  0  0  0  0  0  0  0  0
    6.5437  -17.2096   20.5442 C   0  0  0  0  0  0  0  0  0  0  0  0
    6.5005  -16.9632   22.0591 C   0  0  0  0  0  0  0  0  0  0  0  0
    7.2253  -15.6296   22.1869 C   0  0  1  0  0  0  0  0  0  0  0  0
    8.2306  -15.6623   23.2825 C   0  0  0  0  0  0  0  0  0  0  0  0
    9.4301  -16.0457   23.0989 O   0  0  0  0  0  0  0  0  0  0  0  0
    6.1857  -11.0578   26.3033 C   0  0  0  0  0  0  0  0  0  0  0  0
    6.3231  -12.8648   26.2847 S   0  0  0  0  0  0  0  0  0  0  0  0
    8.0594  -13.2831   26.6513 C   0  0  0  0  0  0  0  0  0  0  0  0
    8.2262  -14.7392   26.8828 C   0  0  0  0  0  0  0  0  0  0  0  0
    8.8719  -15.4374   25.7136 C   0  0  2  0  0  0  0  0  0  0  0  0
    7.9200  -15.2672   24.6109 N   0  0  0  0  0  0  0  0  0  0  0  0
    9.0846  -16.8462   26.0268 C   0  0  0  0  0  0  0  0  0  0  0  0
    9.9638  -17.1873   26.8450 O   0  0  0  0  0  0  0  0  0  0  0  0
    8.3313  -17.8621   25.4393 O   0  0  0  0  0  0  0  0  0  0  0  0
  2  1  1  6
  2  3  1  0
  4  2  1  0
  4  6  1  0
  4  5  1  1
  6  7  2  0
  8  6  1  0
  8 12  1  0
  9 10  1  0
  9  8  1  0
 10 11  1  0
 11 12  1  0
 12 13  1  1
 13 20  1  0
 14 13  2  0
 16 15  1  0
 17 16  1  0
 18 17  1  0
 19 20  1  0
 19 18  1  1
 21 19  1  0
 22 21  2  0
 23 21  1  0
M  END
$$$$
