TPM.pdb
     RDKit          3D

 23 23  0  0  1  0  0  0  0  0999 V2000
   11.1528  -13.6910   17.8175 C   0  0  0  0  0  0  0  0  0  0  0  0
   10.3696  -14.0788   19.0156 C   0  0  1  0  0  0  0  0  0  0  0  0
   10.7091  -13.2251   20.0931 O   0  0  0  0  0  0  0  0  0  0  0  0
    8.8662  -13.9621   18.8805 C   0  0  2  0  0  0  0  0  0  0  0  0
    8.6598  -12.5296   18.5928 N   0  0  0  0  0  0  0  0  0  0  0  0
    8.1204  -14.3604   20.0820 C   0  0  0  0  0  0  0  0  0  0  0  0
    7.6513  -13.3889   20.7820 O   0  0  0  0  0  0  0  0  0  0  0  0
    7.8801  -15.6777   20.5190 N   0  0  0  0  0  0  0  0  0  0  0  0
    8.2804  -16.8849   19.8525 C   0  0  0  0  0  0  0  0  0  0  0  0
    7.0087  -17.7321   20.0047 C   0  0  0  0  0  0  0  0  0  0  0  0
    6.7665  -17.5339   21.5079 C   0  0  0  0  0  0  0  0  0  0  0  0
    7.1664  -16.0776   21.7067 C   0  0  1  0  0  0  0  0  0  0  0  0
    8.0440  -15.9146   22.8965 C   0  0  0  0  0  0  0  0  0  0  0  0
    9.3076  -16.0530   22.8384 O   0  0  0  0  0  0  0  0  0  0  0  0
    6.4794  -10.5633   26.4169 C   0  0  0  0  0  0  0  0  0  0  0  0
    6.4948  -12.2673   27.0338 S   0  0  0  0  0  0  0  0  0  0  0  0
    7.4937  -13.2578   25.8741 C   0  0  0  0  0  0  0  0  0  0  0  0
    7.6270  -14.6606   26.3387 C   0  0  0  0  0  0  0  0  0  0  0  0
    8.3929  -15.5189   25.3650 C   0  0  2  0  0  0  0  0  0  0  0  0
    7.5305  -15.5928   24.1810 N   0  0  0  0  0  0  0  0  0  0  0  0
    8.6303  -16.8385   25.9397 C   0  0  0  0  0  0  0  0  0  0  0  0
    7.8768  -17.7948   25.6627 O   0  0  0  0  0  0  0  0  0  0  0  0
    9.6898  -17.0925   26.8101 O   0  0  0  0  0  0  0  0  0  0  0  0
  2  1  1  6
  2  3  1  0
  4  2  1  0
  4  6  1  0
  4  5  1  1
  6  7  2  0
  8  6  1  0
  8 12  1  0
  9 10  1  0
  9  8  1  0
 10 11  1  0
 11 12  1  0
 12 13  1  1
 13 20  1  0
 14 13  2  0
 16 15  1  0
 17 16  1  0
 18 17  1  0
 19 20  1  0
 19 18  1  1
 21 19  1  0
 22 21  2  0
 23 21  1  0
M  END
$$$$
