TPM.pdb
     RDKit          3D

 23 23  0  0  1  0  0  0  0  0999 V2000
    7.0219  -13.2002   25.7339 C   0  0  0  0  0  0  0  0  0  0  0  0
    6.5115  -14.5379   26.1202 C   0  0  1  0  0  0  0  0  0  0  0  0
    5.3061  -14.3867   26.8476 O   0  0  0  0  0  0  0  0  0  0  0  0
    6.1647  -15.4623   24.9726 C   0  0  2  0  0  0  0  0  0  0  0  0
    5.5849  -16.6400   25.6466 N   0  0  0  0  0  0  0  0  0  0  0  0
    7.3142  -15.8541   24.1457 C   0  0  0  0  0  0  0  0  0  0  0  0
    7.8833  -16.9558   24.4866 O   0  0  0  0  0  0  0  0  0  0  0  0
    7.8299  -15.1476   23.0417 N   0  0  0  0  0  0  0  0  0  0  0  0
    7.3249  -13.9153   22.5049 C   0  0  0  0  0  0  0  0  0  0  0  0
    7.3904  -14.2098   20.9991 C   0  0  0  0  0  0  0  0  0  0  0  0
    8.8291  -14.7403   20.9206 C   0  0  0  0  0  0  0  0  0  0  0  0
    8.9498  -15.5302   22.2174 C   0  0  1  0  0  0  0  0  0  0  0  0
   10.2208  -15.2195   22.9246 C   0  0  0  0  0  0  0  0  0  0  0  0
   10.6880  -14.0385   23.0044 O   0  0  0  0  0  0  0  0  0  0  0  0
   11.7736  -13.3607   29.4335 C   0  0  0  0  0  0  0  0  0  0  0  0
   10.7089  -14.0327   28.1300 S   0  0  0  0  0  0  0  0  0  0  0  0
   11.7881  -14.8712   26.9232 C   0  0  0  0  0  0  0  0  0  0  0  0
   11.0258  -15.3009   25.7249 C   0  0  0  0  0  0  0  0  0  0  0  0
   11.9107  -15.9100   24.6679 C   0  0  2  0  0  0  0  0  0  0  0  0
   11.0013  -16.2215   23.5603 N   0  0  0  0  0  0  0  0  0  0  0  0
   12.5565  -17.1108   25.1865 C   0  0  0  0  0  0  0  0  0  0  0  0
   11.9631  -18.2091   25.1640 O   0  0  0  0  0  0  0  0  0  0  0  0
   13.8438  -17.0921   25.7227 O   0  0  0  0  0  0  0  0  0  0  0  0
  2  1  1  6
  2  3  1  0
  4  2  1  0
  4  6  1  0
  4  5  1  1
  6  7  2  0
  8  6  1  0
  8 12  1  0
  9 10  1  0
  9  8  1  0
 10 11  1  0
 11 12  1  0
 12 13  1  1
 13 20  1  0
 14 13  2  0
 16 15  1  0
 17 16  1  0
 18 17  1  0
 19 20  1  0
 19 18  1  1
 21 19  1  0
 22 21  2  0
 23 21  1  0
M  END
$$$$
