TPM.pdb
     RDKit          3D

 23 23  0  0  1  0  0  0  0  0999 V2000
    6.9671  -19.3174   19.7118 C   0  0  0  0  0  0  0  0  0  0  0  0
    7.3206  -18.3149   20.7458 C   0  0  1  0  0  0  0  0  0  0  0  0
    7.6385  -18.9812   21.9542 O   0  0  0  0  0  0  0  0  0  0  0  0
    8.5304  -17.4577   20.4397 C   0  0  2  0  0  0  0  0  0  0  0  0
    9.6382  -18.4318   20.4038 N   0  0  0  0  0  0  0  0  0  0  0  0
    8.7950  -16.4109   21.4361 C   0  0  0  0  0  0  0  0  0  0  0  0
    9.6424  -16.7271   22.3502 O   0  0  0  0  0  0  0  0  0  0  0  0
    8.2181  -15.1265   21.4732 N   0  0  0  0  0  0  0  0  0  0  0  0
    7.2622  -14.5925   20.5442 C   0  0  0  0  0  0  0  0  0  0  0  0
    7.8212  -13.1769   20.3388 C   0  0  0  0  0  0  0  0  0  0  0  0
    8.0142  -12.7794   21.8093 C   0  0  0  0  0  0  0  0  0  0  0  0
    8.4878  -14.0854   22.4340 C   0  0  1  0  0  0  0  0  0  0  0  0
    7.7637  -14.3737   23.7008 C   0  0  0  0  0  0  0  0  0  0  0  0
    6.6667  -15.0180   23.7301 O   0  0  0  0  0  0  0  0  0  0  0  0
    9.7755  -14.0132   30.3382 C   0  0  0  0  0  0  0  0  0  0  0  0
   10.5922  -13.9931   28.7206 S   0  0  0  0  0  0  0  0  0  0  0  0
    9.3709  -14.5492   27.4865 C   0  0  0  0  0  0  0  0  0  0  0  0
    8.3100  -13.5325   27.2811 C   0  0  0  0  0  0  0  0  0  0  0  0
    7.3819  -13.8901   26.1487 C   0  0  2  0  0  0  0  0  0  0  0  0
    8.2480  -13.9489   24.9666 N   0  0  0  0  0  0  0  0  0  0  0  0
    6.3483  -12.8704   26.0071 C   0  0  0  0  0  0  0  0  0  0  0  0
    5.3183  -12.9107   26.7115 O   0  0  0  0  0  0  0  0  0  0  0  0
    6.4574  -11.8204   25.0958 O   0  0  0  0  0  0  0  0  0  0  0  0
  2  1  1  6
  2  3  1  0
  4  2  1  0
  4  6  1  0
  4  5  1  1
  6  7  2  0
  8  6  1  0
  8 12  1  0
  9 10  1  0
  9  8  1  0
 10 11  1  0
 11 12  1  0
 12 13  1  1
 13 20  1  0
 14 13  2  0
 16 15  1  0
 17 16  1  0
 18 17  1  0
 19 20  1  0
 19 18  1  1
 21 19  1  0
 22 21  2  0
 23 21  1  0
M  END
$$$$
