TPM.pdb
     RDKit          3D

 23 23  0  0  1  0  0  0  0  0999 V2000
    4.6744  -17.2963   20.9361 C   0  0  0  0  0  0  0  0  0  0  0  0
    5.6908  -18.1587   20.2863 C   0  0  1  0  0  0  0  0  0  0  0  0
    5.0459  -19.0568   19.4016 O   0  0  0  0  0  0  0  0  0  0  0  0
    6.7145  -17.4368   19.4362 C   0  0  2  0  0  0  0  0  0  0  0  0
    7.4398  -18.5353   18.7694 N   0  0  0  0  0  0  0  0  0  0  0  0
    7.6439  -16.5924   20.1991 C   0  0  0  0  0  0  0  0  0  0  0  0
    8.6131  -17.2193   20.7661 O   0  0  0  0  0  0  0  0  0  0  0  0
    7.5675  -15.1947   20.3560 N   0  0  0  0  0  0  0  0  0  0  0  0
    6.6112  -14.3174   19.7415 C   0  0  0  0  0  0  0  0  0  0  0  0
    7.5201  -13.1552   19.3154 C   0  0  0  0  0  0  0  0  0  0  0  0
    8.2684  -12.9381   20.6385 C   0  0  0  0  0  0  0  0  0  0  0  0
    8.4450  -14.3643   21.1435 C   0  0  1  0  0  0  0  0  0  0  0  0
    8.0841  -14.4780   22.5819 C   0  0  0  0  0  0  0  0  0  0  0  0
    6.8909  -14.6838   22.9735 O   0  0  0  0  0  0  0  0  0  0  0  0
    6.5577  -11.1667   27.4637 C   0  0  0  0  0  0  0  0  0  0  0  0
    7.4368  -12.1509   26.2217 S   0  0  0  0  0  0  0  0  0  0  0  0
    6.5662  -13.7461   26.0744 C   0  0  0  0  0  0  0  0  0  0  0  0
    7.1841  -14.6039   25.0333 C   0  0  0  0  0  0  0  0  0  0  0  0
    8.6886  -14.5144   25.0325 C   0  0  2  0  0  0  0  0  0  0  0  0
    9.0484  -14.3646   23.6186 N   0  0  0  0  0  0  0  0  0  0  0  0
    9.2627  -15.7261   25.6073 C   0  0  0  0  0  0  0  0  0  0  0  0
    9.3026  -16.7837   24.9450 O   0  0  0  0  0  0  0  0  0  0  0  0
    9.7853  -15.7624   26.8997 O   0  0  0  0  0  0  0  0  0  0  0  0
  2  1  1  6
  2  3  1  0
  4  2  1  0
  4  6  1  0
  4  5  1  1
  6  7  2  0
  8  6  1  0
  8 12  1  0
  9 10  1  0
  9  8  1  0
 10 11  1  0
 11 12  1  0
 12 13  1  1
 13 20  1  0
 14 13  2  0
 16 15  1  0
 17 16  1  0
 18 17  1  0
 19 20  1  0
 19 18  1  6
 21 19  1  0
 22 21  2  0
 23 21  1  0
M  END
$$$$
