TPM.pdb
     RDKit          3D

 23 23  0  0  1  0  0  0  0  0999 V2000
    5.2548  -17.3637   23.1890 C   0  0  0  0  0  0  0  0  0  0  0  0
    5.9986  -18.4258   22.4694 C   0  0  1  0  0  0  0  0  0  0  0  0
    5.1316  -19.5170   22.2191 O   0  0  0  0  0  0  0  0  0  0  0  0
    6.5437  -18.0375   21.1114 C   0  0  2  0  0  0  0  0  0  0  0  0
    6.9743  -19.3261   20.5357 N   0  0  0  0  0  0  0  0  0  0  0  0
    7.6675  -17.0924   21.1608 C   0  0  0  0  0  0  0  0  0  0  0  0
    8.7815  -17.5877   21.5702 O   0  0  0  0  0  0  0  0  0  0  0  0
    7.6307  -15.7298   20.8060 N   0  0  0  0  0  0  0  0  0  0  0  0
    6.5126  -15.0226   20.2479 C   0  0  0  0  0  0  0  0  0  0  0  0
    7.2107  -14.1953   19.1587 C   0  0  0  0  0  0  0  0  0  0  0  0
    8.3574  -13.6128   19.9975 C   0  0  0  0  0  0  0  0  0  0  0  0
    8.7113  -14.7804   20.9095 C   0  0  1  0  0  0  0  0  0  0  0  0
    8.8562  -14.3392   22.3225 C   0  0  0  0  0  0  0  0  0  0  0  0
    8.6021  -13.1500   22.6972 O   0  0  0  0  0  0  0  0  0  0  0  0
    6.1141  -12.5485   28.3400 C   0  0  0  0  0  0  0  0  0  0  0  0
    6.2160  -12.9871   26.5846 S   0  0  0  0  0  0  0  0  0  0  0  0
    7.4162  -14.3510   26.4325 C   0  0  0  0  0  0  0  0  0  0  0  0
    7.7218  -14.6447   25.0105 C   0  0  0  0  0  0  0  0  0  0  0  0
    9.1947  -14.8552   24.7702 C   0  0  2  0  0  0  0  0  0  0  0  0
    9.2889  -15.2169   23.3520 N   0  0  0  0  0  0  0  0  0  0  0  0
    9.6952  -15.9215   25.6308 C   0  0  0  0  0  0  0  0  0  0  0  0
    9.8122  -17.0854   25.1942 O   0  0  0  0  0  0  0  0  0  0  0  0
   10.0608  -15.6981   26.9579 O   0  0  0  0  0  0  0  0  0  0  0  0
  2  1  1  6
  2  3  1  0
  4  2  1  0
  4  6  1  0
  4  5  1  1
  6  7  2  0
  8  6  1  0
  8 12  1  0
  9 10  1  0
  9  8  1  0
 10 11  1  0
 11 12  1  0
 12 13  1  1
 13 20  1  0
 14 13  2  0
 16 15  1  0
 17 16  1  0
 18 17  1  0
 19 20  1  0
 19 18  1  1
 21 19  1  0
 22 21  2  0
 23 21  1  0
M  END
$$$$
