TPM.pdb
     RDKit          3D

 23 23  0  0  1  0  0  0  0  0999 V2000
   11.4149  -14.0129   17.5404 C   0  0  0  0  0  0  0  0  0  0  0  0
   10.6179  -14.3460   18.7458 C   0  0  1  0  0  0  0  0  0  0  0  0
   10.9379  -13.4378   19.7840 O   0  0  0  0  0  0  0  0  0  0  0  0
    9.1158  -14.2461   18.5853 C   0  0  2  0  0  0  0  0  0  0  0  0
    8.9019  -12.8234   18.2574 N   0  0  0  0  0  0  0  0  0  0  0  0
    8.3553  -14.6196   19.7855 C   0  0  0  0  0  0  0  0  0  0  0  0
    7.7792  -13.6441   20.3940 O   0  0  0  0  0  0  0  0  0  0  0  0
    8.2056  -15.9181   20.3104 N   0  0  0  0  0  0  0  0  0  0  0  0
    8.7331  -17.1311   19.7516 C   0  0  0  0  0  0  0  0  0  0  0  0
    7.5301  -18.0710   19.9184 C   0  0  0  0  0  0  0  0  0  0  0  0
    7.2064  -17.7875   21.3923 C   0  0  0  0  0  0  0  0  0  0  0  0
    7.4757  -16.2919   21.4968 C   0  0  1  0  0  0  0  0  0  0  0  0
    8.2835  -15.9700   22.7034 C   0  0  0  0  0  0  0  0  0  0  0  0
    9.5450  -16.1315   22.7450 O   0  0  0  0  0  0  0  0  0  0  0  0
    5.7503  -11.8953   26.8445 C   0  0  0  0  0  0  0  0  0  0  0  0
    7.4810  -11.7574   27.3638 S   0  0  0  0  0  0  0  0  0  0  0  0
    8.3367  -13.2714   26.8165 C   0  0  0  0  0  0  0  0  0  0  0  0
    7.7294  -13.8163   25.5772 C   0  0  0  0  0  0  0  0  0  0  0  0
    8.5177  -14.9680   25.0084 C   0  0  2  0  0  0  0  0  0  0  0  0
    7.7009  -15.4593   23.8938 N   0  0  0  0  0  0  0  0  0  0  0  0
    8.7100  -15.9947   26.0268 C   0  0  0  0  0  0  0  0  0  0  0  0
    7.9023  -16.9410   26.1324 O   0  0  0  0  0  0  0  0  0  0  0  0
    9.7844  -15.9708   26.9155 O   0  0  0  0  0  0  0  0  0  0  0  0
  2  1  1  6
  2  3  1  0
  4  2  1  0
  4  6  1  0
  4  5  1  1
  6  7  2  0
  8  6  1  0
  8 12  1  0
  9 10  1  0
  9  8  1  0
 10 11  1  0
 11 12  1  0
 12 13  1  1
 13 20  1  0
 14 13  2  0
 16 15  1  0
 17 16  1  0
 18 17  1  0
 19 20  1  0
 19 18  1  1
 21 19  1  0
 22 21  2  0
 23 21  1  0
M  END
$$$$
