TPM.pdb
     RDKit          3D

 23 23  0  0  1  0  0  0  0  0999 V2000
   10.5442  -13.7887   17.5563 C   0  0  0  0  0  0  0  0  0  0  0  0
    9.8531  -14.1727   18.8109 C   0  0  1  0  0  0  0  0  0  0  0  0
   10.2472  -13.2949   19.8498 O   0  0  0  0  0  0  0  0  0  0  0  0
    8.3419  -14.0886   18.7776 C   0  0  2  0  0  0  0  0  0  0  0  0
    8.0856  -12.6608   18.5078 N   0  0  0  0  0  0  0  0  0  0  0  0
    7.6875  -14.5041   20.0258 C   0  0  0  0  0  0  0  0  0  0  0  0
    7.2215  -13.5451   20.7448 O   0  0  0  0  0  0  0  0  0  0  0  0
    7.5293  -15.8253   20.4877 N   0  0  0  0  0  0  0  0  0  0  0  0
    7.9120  -17.0236   19.7953 C   0  0  0  0  0  0  0  0  0  0  0  0
    6.6868  -17.9112   20.0586 C   0  0  0  0  0  0  0  0  0  0  0  0
    6.5661  -17.7097   21.5760 C   0  0  0  0  0  0  0  0  0  0  0  0
    6.9324  -16.2396   21.7334 C   0  0  1  0  0  0  0  0  0  0  0  0
    7.9014  -16.0388   22.8438 C   0  0  0  0  0  0  0  0  0  0  0  0
    9.1378  -15.8159   22.6407 O   0  0  0  0  0  0  0  0  0  0  0  0
    5.6589  -12.3622   27.6383 C   0  0  0  0  0  0  0  0  0  0  0  0
    7.2922  -11.8680   27.0283 S   0  0  0  0  0  0  0  0  0  0  0  0
    8.2212  -13.3932   26.6611 C   0  0  0  0  0  0  0  0  0  0  0  0
    7.6001  -14.1478   25.5448 C   0  0  0  0  0  0  0  0  0  0  0  0
    8.3098  -15.4473   25.2635 C   0  0  2  0  0  0  0  0  0  0  0  0
    7.5124  -16.0823   24.2091 N   0  0  0  0  0  0  0  0  0  0  0  0
    8.3533  -16.2656   26.4704 C   0  0  0  0  0  0  0  0  0  0  0  0
    7.4511  -17.0961   26.7053 O   0  0  0  0  0  0  0  0  0  0  0  0
    9.3846  -16.1629   27.4035 O   0  0  0  0  0  0  0  0  0  0  0  0
  2  1  1  6
  2  3  1  0
  4  2  1  0
  4  6  1  0
  4  5  1  1
  6  7  2  0
  8  6  1  0
  8 12  1  0
  9 10  1  0
  9  8  1  0
 10 11  1  0
 11 12  1  0
 12 13  1  1
 13 20  1  0
 14 13  2  0
 16 15  1  0
 17 16  1  0
 18 17  1  0
 19 20  1  0
 19 18  1  1
 21 19  1  0
 22 21  2  0
 23 21  1  0
M  END
$$$$
