TPM.pdb
     RDKit          3D

 23 23  0  0  1  0  0  0  0  0999 V2000
    3.3600  -17.8181   21.0620 C   0  0  0  0  0  0  0  0  0  0  0  0
    4.6713  -17.2269   21.4224 C   0  0  1  0  0  0  0  0  0  0  0  0
    5.3189  -18.0632   22.3639 O   0  0  0  0  0  0  0  0  0  0  0  0
    5.6579  -17.0798   20.2835 C   0  0  2  0  0  0  0  0  0  0  0  0
    5.8735  -18.4697   19.8374 N   0  0  0  0  0  0  0  0  0  0  0  0
    6.9322  -16.4567   20.6667 C   0  0  0  0  0  0  0  0  0  0  0  0
    7.8302  -17.2690   21.0996 O   0  0  0  0  0  0  0  0  0  0  0  0
    7.2460  -15.0852   20.6000 N   0  0  0  0  0  0  0  0  0  0  0  0
    6.3537  -14.0219   20.2327 C   0  0  0  0  0  0  0  0  0  0  0  0
    7.2614  -13.1891   19.3157 C   0  0  0  0  0  0  0  0  0  0  0  0
    8.4980  -13.0971   20.2211 C   0  0  0  0  0  0  0  0  0  0  0  0
    8.5274  -14.4781   20.8634 C   0  0  1  0  0  0  0  0  0  0  0  0
    8.7460  -14.3879   22.3318 C   0  0  0  0  0  0  0  0  0  0  0  0
    8.4469  -13.3505   23.0054 O   0  0  0  0  0  0  0  0  0  0  0  0
    6.2859  -11.5823   26.6189 C   0  0  0  0  0  0  0  0  0  0  0  0
    6.4328  -13.3598   26.2982 S   0  0  0  0  0  0  0  0  0  0  0  0
    8.0431  -13.6364   25.4892 C   0  0  0  0  0  0  0  0  0  0  0  0
    8.2341  -15.0663   25.1421 C   0  0  0  0  0  0  0  0  0  0  0  0
    9.5804  -15.3322   24.5190 C   0  0  2  0  0  0  0  0  0  0  0  0
    9.3046  -15.4555   23.0838 N   0  0  0  0  0  0  0  0  0  0  0  0
   10.1507  -16.5595   25.0637 C   0  0  0  0  0  0  0  0  0  0  0  0
    9.9769  -17.6509   24.4826 O   0  0  0  0  0  0  0  0  0  0  0  0
   10.9035  -16.5744   26.2374 O   0  0  0  0  0  0  0  0  0  0  0  0
  2  1  1  6
  2  3  1  0
  4  2  1  0
  4  6  1  0
  4  5  1  1
  6  7  2  0
  8  6  1  0
  8 12  1  0
  9 10  1  0
  9  8  1  0
 10 11  1  0
 11 12  1  0
 12 13  1  1
 13 20  1  0
 14 13  2  0
 16 15  1  0
 17 16  1  0
 18 17  1  0
 19 20  1  0
 19 18  1  1
 21 19  1  0
 22 21  2  0
 23 21  1  0
M  END
$$$$
