FGP.pdb
     RDKit          3D

 23 24  0  0  1  0  0  0  0  0999 V2000
    6.7889  -18.1272   25.8417 N   0  0  0  0  0  0  0  0  0  0  0  0
    6.7973  -16.7386   25.5041 C   0  0  1  0  0  0  0  0  0  0  0  0
    7.9474  -15.9864   26.1387 C   0  0  0  0  0  0  0  0  0  0  0  0
    7.6467  -14.5502   26.2914 C   0  0  0  0  0  0  0  0  0  0  0  0
    6.3213  -14.1225   26.1594 C   0  0  0  0  0  0  0  0  0  0  0  0
    6.0231  -12.7875   26.2986 C   0  0  0  0  0  0  0  0  0  0  0  0
    7.0469  -11.9002   26.5667 C   0  0  0  0  0  0  0  0  0  0  0  0
    8.3486  -12.3218   26.6961 C   0  0  0  0  0  0  0  0  0  0  0  0
    8.6593  -13.6546   26.5590 C   0  0  0  0  0  0  0  0  0  0  0  0
    6.8672  -16.6105   24.0256 C   0  0  0  0  0  0  0  0  0  0  0  0
    7.1912  -17.5796   23.2890 O   0  0  0  0  0  0  0  0  0  0  0  0
    6.5639  -15.3680   23.4023 N   0  0  0  0  0  0  0  0  0  0  0  0
    6.3780  -15.2922   21.9864 C   0  0  0  0  0  0  0  0  0  0  0  0
    7.6885  -15.4596   21.3122 C   0  0  0  0  0  0  0  0  0  0  0  0
    8.3566  -16.5370   21.4254 O   0  0  0  0  0  0  0  0  0  0  0  0
    8.1839  -14.3799   20.5313 N   0  0  0  0  0  0  0  0  0  0  0  0
    7.6369  -13.0645   20.5683 C   0  0  0  0  0  0  0  0  0  0  0  0
    8.4697  -12.2167   19.6769 C   0  0  0  0  0  0  0  0  0  0  0  0
    9.0721  -13.2503   18.7232 C   0  0  0  0  0  0  0  0  0  0  0  0
    9.2762  -14.4606   19.6151 C   0  0  1  0  0  0  0  0  0  0  0  0
   10.5632  -14.3977   20.3374 C   0  0  0  0  0  0  0  0  0  0  0  0
   11.7255  -14.7284   19.6862 O   0  0  0  0  0  0  0  0  0  0  0  0
   10.5429  -14.0369   21.5435 O   0  0  0  0  0  0  0  0  0  0  0  0
  2 10  1  0
  2  1  1  6
  3  2  1  0
  4  3  1  0
  5  4  2  0
  6  5  1  0
  7  8  1  0
  7  6  2  0
  8  9  2  0
  9  4  1  0
 10 12  1  0
 11 10  2  0
 12 13  1  0
 13 14  1  0
 14 16  1  0
 15 14  2  0
 16 20  1  0
 16 17  1  0
 17 18  1  0
 19 18  1  0
 20 21  1  1
 20 19  1  0
 21 22  1  0
 23 21  2  0
M  END
$$$$
