FGP.pdb
     RDKit          3D

 23 24  0  0  1  0  0  0  0  0999 V2000
    5.9014  -16.5680   21.5688 N   0  0  0  0  0  0  0  0  0  0  0  0
    6.9626  -15.9856   22.3282 C   0  0  1  0  0  0  0  0  0  0  0  0
    6.9734  -14.4735   22.2598 C   0  0  0  0  0  0  0  0  0  0  0  0
    7.4926  -13.9859   20.9679 C   0  0  0  0  0  0  0  0  0  0  0  0
    6.5833  -13.5460   20.0000 C   0  0  0  0  0  0  0  0  0  0  0  0
    7.0499  -13.0883   18.7903 C   0  0  0  0  0  0  0  0  0  0  0  0
    8.4121  -13.0755   18.5629 C   0  0  0  0  0  0  0  0  0  0  0  0
    9.3043  -13.5080   19.5146 C   0  0  0  0  0  0  0  0  0  0  0  0
    8.8497  -13.9681   20.7284 C   0  0  0  0  0  0  0  0  0  0  0  0
    6.8303  -16.4242   23.7415 C   0  0  0  0  0  0  0  0  0  0  0  0
    5.7283  -16.3819   24.3502 O   0  0  0  0  0  0  0  0  0  0  0  0
    7.9667  -16.9093   24.4472 N   0  0  0  0  0  0  0  0  0  0  0  0
    8.0552  -16.7659   25.8673 C   0  0  0  0  0  0  0  0  0  0  0  0
    9.4699  -16.5325   26.2471 C   0  0  0  0  0  0  0  0  0  0  0  0
   10.4159  -17.1915   25.7079 O   0  0  0  0  0  0  0  0  0  0  0  0
    9.7453  -15.5482   27.2351 N   0  0  0  0  0  0  0  0  0  0  0  0
    8.7738  -14.6258   27.7212 C   0  0  0  0  0  0  0  0  0  0  0  0
    9.4254  -13.8216   28.7867 C   0  0  0  0  0  0  0  0  0  0  0  0
   10.9051  -13.9367   28.4150 C   0  0  0  0  0  0  0  0  0  0  0  0
   11.0109  -15.3467   27.8651 C   0  0  1  0  0  0  0  0  0  0  0  0
   11.2180  -16.3393   28.9394 C   0  0  0  0  0  0  0  0  0  0  0  0
   10.1804  -17.1516   29.3240 O   0  0  0  0  0  0  0  0  0  0  0  0
   12.3584  -16.4020   29.4694 O   0  0  0  0  0  0  0  0  0  0  0  0
  2 10  1  0
  2  1  1  6
  3  2  1  0
  4  3  1  0
  5  4  2  0
  6  5  1  0
  7  8  1  0
  7  6  2  0
  8  9  2  0
  9  4  1  0
 10 12  1  0
 11 10  2  0
 12 13  1  0
 13 14  1  0
 14 16  1  0
 15 14  2  0
 16 20  1  0
 16 17  1  0
 17 18  1  0
 19 18  1  0
 20 21  1  1
 20 19  1  0
 21 22  1  0
 23 21  2  0
M  END
$$$$
