FGP.pdb
     RDKit          3D

 23 24  0  0  1  0  0  0  0  0999 V2000
    9.1976  -16.2017   25.4213 N   0  0  0  0  0  0  0  0  0  0  0  0
    7.8197  -16.5520   25.5653 C   0  0  1  0  0  0  0  0  0  0  0  0
    7.2111  -16.0288   26.8487 C   0  0  0  0  0  0  0  0  0  0  0  0
    7.2172  -14.5545   26.8983 C   0  0  0  0  0  0  0  0  0  0  0  0
    8.3977  -13.8983   27.2632 C   0  0  0  0  0  0  0  0  0  0  0  0
    8.4212  -12.5245   27.3146 C   0  0  0  0  0  0  0  0  0  0  0  0
    7.2713  -11.8260   27.0025 C   0  0  0  0  0  0  0  0  0  0  0  0
    6.1124  -12.4719   26.6442 C   0  0  0  0  0  0  0  0  0  0  0  0
    6.0765  -13.8457   26.5892 C   0  0  0  0  0  0  0  0  0  0  0  0
    7.0704  -16.0178   24.3989 C   0  0  0  0  0  0  0  0  0  0  0  0
    5.8876  -16.3722   24.1497 O   0  0  0  0  0  0  0  0  0  0  0  0
    7.6860  -15.0785   23.5252 N   0  0  0  0  0  0  0  0  0  0  0  0
    6.9599  -14.5279   22.4230 C   0  0  0  0  0  0  0  0  0  0  0  0
    7.4475  -15.1395   21.1628 C   0  0  0  0  0  0  0  0  0  0  0  0
    7.4249  -16.4002   20.9885 O   0  0  0  0  0  0  0  0  0  0  0  0
    7.9445  -14.2776   20.1474 N   0  0  0  0  0  0  0  0  0  0  0  0
    7.9603  -12.8569   20.2577 C   0  0  0  0  0  0  0  0  0  0  0  0
    8.6183  -12.3283   19.0352 C   0  0  0  0  0  0  0  0  0  0  0  0
    8.3900  -13.4617   18.0332 C   0  0  0  0  0  0  0  0  0  0  0  0
    8.4842  -14.7057   18.8965 C   0  0  1  0  0  0  0  0  0  0  0  0
    9.8825  -15.1526   19.0622 C   0  0  0  0  0  0  0  0  0  0  0  0
   10.5358  -14.9177   20.2464 O   0  0  0  0  0  0  0  0  0  0  0  0
   10.4296  -15.7417   18.0932 O   0  0  0  0  0  0  0  0  0  0  0  0
  2 10  1  0
  2  1  1  6
  3  2  1  0
  4  3  1  0
  5  4  2  0
  6  5  1  0
  7  8  1  0
  7  6  2  0
  8  9  2  0
  9  4  1  0
 10 12  1  0
 11 10  2  0
 12 13  1  0
 13 14  1  0
 14 16  1  0
 15 14  2  0
 16 20  1  0
 16 17  1  0
 17 18  1  0
 19 18  1  0
 20 21  1  1
 20 19  1  0
 21 22  1  0
 23 21  2  0
M  END
$$$$
