FGP.pdb
     RDKit          3D

 23 24  0  0  1  0  0  0  0  0999 V2000
    6.8790  -16.1835   26.1529 N   0  0  0  0  0  0  0  0  0  0  0  0
    7.2839  -15.3974   25.0302 C   0  0  1  0  0  0  0  0  0  0  0  0
    8.1452  -14.2153   25.4203 C   0  0  0  0  0  0  0  0  0  0  0  0
    7.3821  -13.2067   26.1797 C   0  0  0  0  0  0  0  0  0  0  0  0
    7.9924  -12.5847   27.2741 C   0  0  0  0  0  0  0  0  0  0  0  0
    7.2957  -11.6422   27.9931 C   0  0  0  0  0  0  0  0  0  0  0  0
    6.0045  -11.3338   27.6124 C   0  0  0  0  0  0  0  0  0  0  0  0
    5.4062  -11.9456   26.5370 C   0  0  0  0  0  0  0  0  0  0  0  0
    6.0929  -12.8899   25.8101 C   0  0  0  0  0  0  0  0  0  0  0  0
    8.0258  -16.2697   24.0836 C   0  0  0  0  0  0  0  0  0  0  0  0
    8.8991  -17.0873   24.4781 O   0  0  0  0  0  0  0  0  0  0  0  0
    7.7589  -16.1967   22.6879 N   0  0  0  0  0  0  0  0  0  0  0  0
    8.8225  -16.3082   21.7384 C   0  0  0  0  0  0  0  0  0  0  0  0
    8.2677  -16.1917   20.3678 C   0  0  0  0  0  0  0  0  0  0  0  0
    7.7386  -17.1904   19.7824 O   0  0  0  0  0  0  0  0  0  0  0  0
    8.3420  -14.9288   19.7193 N   0  0  0  0  0  0  0  0  0  0  0  0
    8.7660  -13.7332   20.3685 C   0  0  0  0  0  0  0  0  0  0  0  0
    8.7775  -12.6571   19.3444 C   0  0  0  0  0  0  0  0  0  0  0  0
    7.7774  -13.1852   18.3140 C   0  0  0  0  0  0  0  0  0  0  0  0
    8.0053  -14.6846   18.3532 C   0  0  1  0  0  0  0  0  0  0  0  0
    9.1136  -15.0933   17.4662 C   0  0  0  0  0  0  0  0  0  0  0  0
    8.8857  -15.2521   16.1218 O   0  0  0  0  0  0  0  0  0  0  0  0
   10.2438  -15.2835   17.9875 O   0  0  0  0  0  0  0  0  0  0  0  0
  2 10  1  0
  2  1  1  1
  3  2  1  0
  4  3  1  0
  5  4  2  0
  6  5  1  0
  7  8  1  0
  7  6  2  0
  8  9  2  0
  9  4  1  0
 10 12  1  0
 11 10  2  0
 12 13  1  0
 13 14  1  0
 14 16  1  0
 15 14  2  0
 16 20  1  0
 16 17  1  0
 17 18  1  0
 19 18  1  0
 20 21  1  6
 20 19  1  0
 21 22  1  0
 23 21  2  0
M  END
$$$$
