FGP.pdb
     RDKit          3D

 23 24  0  0  1  0  0  0  0  0999 V2000
    6.5011  -16.8197   24.7015 N   0  0  0  0  0  0  0  0  0  0  0  0
    6.9047  -15.4536   24.8159 C   0  0  1  0  0  0  0  0  0  0  0  0
    7.3299  -15.0819   26.2204 C   0  0  0  0  0  0  0  0  0  0  0  0
    6.9498  -13.6979   26.5611 C   0  0  0  0  0  0  0  0  0  0  0  0
    5.5923  -13.3614   26.5933 C   0  0  0  0  0  0  0  0  0  0  0  0
    5.2201  -12.0759   26.9090 C   0  0  0  0  0  0  0  0  0  0  0  0
    6.2032  -11.1467   27.1873 C   0  0  0  0  0  0  0  0  0  0  0  0
    7.5364  -11.4786   27.1553 C   0  0  0  0  0  0  0  0  0  0  0  0
    7.9211  -12.7611   26.8408 C   0  0  0  0  0  0  0  0  0  0  0  0
    8.0242  -15.2093   23.8702 C   0  0  0  0  0  0  0  0  0  0  0  0
    8.5781  -14.0822   23.7727 O   0  0  0  0  0  0  0  0  0  0  0  0
    8.5005  -16.2632   23.0414 N   0  0  0  0  0  0  0  0  0  0  0  0
    9.4765  -16.0058   22.0283 C   0  0  0  0  0  0  0  0  0  0  0  0
    8.8342  -16.1048   20.6951 C   0  0  0  0  0  0  0  0  0  0  0  0
    8.5173  -17.2324   20.1968 O   0  0  0  0  0  0  0  0  0  0  0  0
    8.5795  -14.9016   19.9822 N   0  0  0  0  0  0  0  0  0  0  0  0
    8.8633  -13.6042   20.4991 C   0  0  0  0  0  0  0  0  0  0  0  0
    8.5283  -12.6238   19.4344 C   0  0  0  0  0  0  0  0  0  0  0  0
    7.5062  -13.3962   18.5980 C   0  0  0  0  0  0  0  0  0  0  0  0
    8.0113  -14.8248   18.6744 C   0  0  1  0  0  0  0  0  0  0  0  0
    9.0374  -15.0984   17.6475 C   0  0  0  0  0  0  0  0  0  0  0  0
    8.6524  -15.4016   16.3652 O   0  0  0  0  0  0  0  0  0  0  0  0
   10.2462  -15.0419   17.9953 O   0  0  0  0  0  0  0  0  0  0  0  0
  2 10  1  0
  2  1  1  1
  3  2  1  0
  4  3  1  0
  5  4  2  0
  6  5  1  0
  7  8  1  0
  7  6  2  0
  8  9  2  0
  9  4  1  0
 10 12  1  0
 11 10  2  0
 12 13  1  0
 13 14  1  0
 14 16  1  0
 15 14  2  0
 16 20  1  0
 16 17  1  0
 17 18  1  0
 19 18  1  0
 20 21  1  6
 20 19  1  0
 21 22  1  0
 23 21  2  0
M  END
$$$$
