FGP.pdb
     RDKit          3D

 23 24  0  0  1  0  0  0  0  0999 V2000
    5.4210  -18.3119   24.4594 N   0  0  0  0  0  0  0  0  0  0  0  0
    5.9699  -18.1238   23.1534 C   0  0  1  0  0  0  0  0  0  0  0  0
    4.9240  -17.7522   22.1242 C   0  0  0  0  0  0  0  0  0  0  0  0
    3.9210  -18.8199   21.9503 C   0  0  0  0  0  0  0  0  0  0  0  0
    2.5827  -18.4610   21.7564 C   0  0  0  0  0  0  0  0  0  0  0  0
    1.6346  -19.4432   21.5926 C   0  0  0  0  0  0  0  0  0  0  0  0
    2.0324  -20.7654   21.6242 C   0  0  0  0  0  0  0  0  0  0  0  0
    3.3473  -21.1167   21.8147 C   0  0  0  0  0  0  0  0  0  0  0  0
    4.3048  -20.1431   21.9797 C   0  0  0  0  0  0  0  0  0  0  0  0
    7.0064  -17.0617   23.2233 C   0  0  0  0  0  0  0  0  0  0  0  0
    7.8537  -16.8984   22.3056 O   0  0  0  0  0  0  0  0  0  0  0  0
    7.0628  -16.1931   24.3488 N   0  0  0  0  0  0  0  0  0  0  0  0
    8.0430  -15.1540   24.4158 C   0  0  0  0  0  0  0  0  0  0  0  0
    9.1517  -15.5851   25.3017 C   0  0  0  0  0  0  0  0  0  0  0  0
    9.9765  -16.4838   24.9380 O   0  0  0  0  0  0  0  0  0  0  0  0
    9.2716  -14.9662   26.5759 N   0  0  0  0  0  0  0  0  0  0  0  0
    8.3138  -14.0507   27.1006 C   0  0  0  0  0  0  0  0  0  0  0  0
    8.7560  -13.6896   28.4720 C   0  0  0  0  0  0  0  0  0  0  0  0
   10.2602  -13.9612   28.4052 C   0  0  0  0  0  0  0  0  0  0  0  0
   10.3496  -15.1681   27.4903 C   0  0  1  0  0  0  0  0  0  0  0  0
   10.1685  -16.4325   28.2326 C   0  0  0  0  0  0  0  0  0  0  0  0
    9.0134  -17.1564   28.0712 O   0  0  0  0  0  0  0  0  0  0  0  0
   11.0974  -16.8027   28.9977 O   0  0  0  0  0  0  0  0  0  0  0  0
  2 10  1  0
  2  1  1  1
  3  2  1  0
  4  3  1  0
  5  4  2  0
  6  5  1  0
  7  8  1  0
  7  6  2  0
  8  9  2  0
  9  4  1  0
 10 12  1  0
 11 10  2  0
 12 13  1  0
 13 14  1  0
 14 16  1  0
 15 14  2  0
 16 20  1  0
 16 17  1  0
 17 18  1  0
 19 18  1  0
 20 21  1  1
 20 19  1  0
 21 22  1  0
 23 21  2  0
M  END
$$$$
