FGP.pdb
     RDKit          3D

 23 24  0  0  1  0  0  0  0  0999 V2000
    8.4775  -16.1905   21.0031 N   0  0  0  0  0  0  0  0  0  0  0  0
    7.9046  -14.9074   21.2633 C   0  0  1  0  0  0  0  0  0  0  0  0
    6.7254  -14.5973   20.3663 C   0  0  0  0  0  0  0  0  0  0  0  0
    7.1512  -14.2738   18.9914 C   0  0  0  0  0  0  0  0  0  0  0  0
    6.9819  -15.2364   17.9904 C   0  0  0  0  0  0  0  0  0  0  0  0
    7.3734  -14.9517   16.7034 C   0  0  0  0  0  0  0  0  0  0  0  0
    7.9263  -13.7154   16.4330 C   0  0  0  0  0  0  0  0  0  0  0  0
    8.0920  -12.7706   17.4173 C   0  0  0  0  0  0  0  0  0  0  0  0
    7.7044  -13.0438   18.7084 C   0  0  0  0  0  0  0  0  0  0  0  0
    7.4811  -14.8570   22.6864 C   0  0  0  0  0  0  0  0  0  0  0  0
    7.0717  -13.7923   23.2209 O   0  0  0  0  0  0  0  0  0  0  0  0
    7.5306  -16.0321   23.4873 N   0  0  0  0  0  0  0  0  0  0  0  0
    7.2114  -15.9755   24.8801 C   0  0  0  0  0  0  0  0  0  0  0  0
    8.3435  -15.3618   25.6160 C   0  0  0  0  0  0  0  0  0  0  0  0
    9.5334  -15.7911   25.4746 O   0  0  0  0  0  0  0  0  0  0  0  0
    8.0655  -14.2751   26.4893 N   0  0  0  0  0  0  0  0  0  0  0  0
    6.7806  -13.6708   26.6112 C   0  0  0  0  0  0  0  0  0  0  0  0
    6.8818  -12.6319   27.6682 C   0  0  0  0  0  0  0  0  0  0  0  0
    8.3764  -12.3049   27.6536 C   0  0  0  0  0  0  0  0  0  0  0  0
    9.0170  -13.6458   27.3483 C   0  0  1  0  0  0  0  0  0  0  0  0
    9.2187  -14.4478   28.5724 C   0  0  0  0  0  0  0  0  0  0  0  0
   10.2605  -14.1512   29.4157 O   0  0  0  0  0  0  0  0  0  0  0  0
    8.4128  -15.3885   28.7978 O   0  0  0  0  0  0  0  0  0  0  0  0
  2 10  1  0
  2  1  1  6
  3  2  1  0
  4  3  1  0
  5  4  2  0
  6  5  1  0
  7  8  1  0
  7  6  2  0
  8  9  2  0
  9  4  1  0
 10 12  1  0
 11 10  2  0
 12 13  1  0
 13 14  1  0
 14 16  1  0
 15 14  2  0
 16 20  1  0
 16 17  1  0
 17 18  1  0
 19 18  1  0
 20 21  1  1
 20 19  1  0
 21 22  1  0
 23 21  2  0
M  END
$$$$
