FGP.pdb
     RDKit          3D

 23 24  0  0  1  0  0  0  0  0999 V2000
    7.6048  -17.1391   21.7626 N   0  0  0  0  0  0  0  0  0  0  0  0
    7.7023  -15.7325   21.9952 C   0  0  1  0  0  0  0  0  0  0  0  0
    6.5991  -14.9470   21.3188 C   0  0  0  0  0  0  0  0  0  0  0  0
    7.0899  -14.2214   20.1319 C   0  0  0  0  0  0  0  0  0  0  0  0
    7.0202  -14.8486   18.8833 C   0  0  0  0  0  0  0  0  0  0  0  0
    7.4731  -14.1868   17.7664 C   0  0  0  0  0  0  0  0  0  0  0  0
    7.9877  -12.9131   17.9091 C   0  0  0  0  0  0  0  0  0  0  0  0
    8.0557  -12.2982   19.1363 C   0  0  0  0  0  0  0  0  0  0  0  0
    7.6057  -12.9500   20.2608 C   0  0  0  0  0  0  0  0  0  0  0  0
    7.6662  -15.4907   23.4607 C   0  0  0  0  0  0  0  0  0  0  0  0
    7.9192  -14.3597   23.9542 O   0  0  0  0  0  0  0  0  0  0  0  0
    7.3391  -16.5515   24.3507 N   0  0  0  0  0  0  0  0  0  0  0  0
    7.4931  -16.3881   25.7630 C   0  0  0  0  0  0  0  0  0  0  0  0
    8.9368  -16.4095   26.1024 C   0  0  0  0  0  0  0  0  0  0  0  0
    9.7289  -17.2494   25.5664 O   0  0  0  0  0  0  0  0  0  0  0  0
    9.4177  -15.4629   27.0477 N   0  0  0  0  0  0  0  0  0  0  0  0
    8.6219  -14.4080   27.5814 C   0  0  0  0  0  0  0  0  0  0  0  0
    9.4548  -13.6916   28.5813 C   0  0  0  0  0  0  0  0  0  0  0  0
   10.8731  -14.0173   28.1089 C   0  0  0  0  0  0  0  0  0  0  0  0
   10.7414  -15.4342   27.5826 C   0  0  1  0  0  0  0  0  0  0  0  0
   10.8857  -16.4342   28.6603 C   0  0  0  0  0  0  0  0  0  0  0  0
    9.7777  -17.0984   29.1246 O   0  0  0  0  0  0  0  0  0  0  0  0
   12.0399  -16.6414   29.1187 O   0  0  0  0  0  0  0  0  0  0  0  0
  2 10  1  0
  2  1  1  1
  3  2  1  0
  4  3  1  0
  5  4  2  0
  6  5  1  0
  7  8  1  0
  7  6  2  0
  8  9  2  0
  9  4  1  0
 10 12  1  0
 11 10  2  0
 12 13  1  0
 13 14  1  0
 14 16  1  0
 15 14  2  0
 16 20  1  0
 16 17  1  0
 17 18  1  0
 19 18  1  0
 20 21  1  1
 20 19  1  0
 21 22  1  0
 23 21  2  0
M  END
$$$$
