FGP.pdb
     RDKit          3D

 23 24  0  0  1  0  0  0  0  0999 V2000
    7.3221  -16.9186   26.2686 N   0  0  0  0  0  0  0  0  0  0  0  0
    6.9695  -16.1698   25.1037 C   0  0  1  0  0  0  0  0  0  0  0  0
    7.7915  -14.9087   24.9443 C   0  0  0  0  0  0  0  0  0  0  0  0
    7.4340  -13.8895   25.9491 C   0  0  0  0  0  0  0  0  0  0  0  0
    8.4346  -13.3975   26.7940 C   0  0  0  0  0  0  0  0  0  0  0  0
    8.1190  -12.4471   27.7363 C   0  0  0  0  0  0  0  0  0  0  0  0
    6.8145  -12.0019   27.8229 C   0  0  0  0  0  0  0  0  0  0  0  0
    5.8326  -12.4860   26.9922 C   0  0  0  0  0  0  0  0  0  0  0  0
    6.1360  -13.4368   26.0458 C   0  0  0  0  0  0  0  0  0  0  0  0
    7.1443  -17.0382   23.9109 C   0  0  0  0  0  0  0  0  0  0  0  0
    7.8893  -18.0537   23.9315 O   0  0  0  0  0  0  0  0  0  0  0  0
    6.4609  -16.7336   22.7006 N   0  0  0  0  0  0  0  0  0  0  0  0
    6.6474  -15.4687   22.0601 C   0  0  0  0  0  0  0  0  0  0  0  0
    7.3440  -15.6743   20.7668 C   0  0  0  0  0  0  0  0  0  0  0  0
    7.4976  -16.8392   20.2773 O   0  0  0  0  0  0  0  0  0  0  0  0
    7.8396  -14.5310   20.0827 N   0  0  0  0  0  0  0  0  0  0  0  0
    7.7341  -13.2028   20.5884 C   0  0  0  0  0  0  0  0  0  0  0  0
    8.4308  -12.3097   19.6272 C   0  0  0  0  0  0  0  0  0  0  0  0
    8.3638  -13.1199   18.3311 C   0  0  0  0  0  0  0  0  0  0  0  0
    8.4971  -14.5516   18.8153 C   0  0  1  0  0  0  0  0  0  0  0  0
    9.9118  -14.9468   18.9728 C   0  0  0  0  0  0  0  0  0  0  0  0
   10.4625  -15.0176   20.2282 O   0  0  0  0  0  0  0  0  0  0  0  0
   10.5684  -15.2076   17.9306 O   0  0  0  0  0  0  0  0  0  0  0  0
  2 10  1  0
  2  1  1  1
  3  2  1  0
  4  3  1  0
  5  4  2  0
  6  5  1  0
  7  8  1  0
  7  6  2  0
  8  9  2  0
  9  4  1  0
 10 12  1  0
 11 10  2  0
 12 13  1  0
 13 14  1  0
 14 16  1  0
 15 14  2  0
 16 20  1  0
 16 17  1  0
 17 18  1  0
 19 18  1  0
 20 21  1  1
 20 19  1  0
 21 22  1  0
 23 21  2  0
M  END
$$$$
