FGP.pdb
     RDKit          3D

 23 24  0  0  1  0  0  0  0  0999 V2000
    7.1823  -16.8390   26.5297 N   0  0  0  0  0  0  0  0  0  0  0  0
    6.9792  -16.2352   25.2505 C   0  0  1  0  0  0  0  0  0  0  0  0
    7.7910  -14.9717   25.0611 C   0  0  0  0  0  0  0  0  0  0  0  0
    7.3646  -13.9017   25.9828 C   0  0  0  0  0  0  0  0  0  0  0  0
    6.0291  -13.4858   25.9592 C   0  0  0  0  0  0  0  0  0  0  0  0
    5.6145  -12.4896   26.8115 C   0  0  0  0  0  0  0  0  0  0  0  0
    6.5340  -11.9237   27.6727 C   0  0  0  0  0  0  0  0  0  0  0  0
    7.8456  -12.3333   27.6949 C   0  0  0  0  0  0  0  0  0  0  0  0
    8.2723  -13.3288   26.8471 C   0  0  0  0  0  0  0  0  0  0  0  0
    7.3331  -17.2229   24.1986 C   0  0  0  0  0  0  0  0  0  0  0  0
    7.3089  -18.4634   24.4163 O   0  0  0  0  0  0  0  0  0  0  0  0
    7.7131  -16.7781   22.9015 N   0  0  0  0  0  0  0  0  0  0  0  0
    6.8913  -15.8564   22.1802 C   0  0  0  0  0  0  0  0  0  0  0  0
    7.3501  -15.7924   20.7712 C   0  0  0  0  0  0  0  0  0  0  0  0
    7.2822  -16.8085   20.0077 O   0  0  0  0  0  0  0  0  0  0  0  0
    7.8715  -14.5602   20.2909 N   0  0  0  0  0  0  0  0  0  0  0  0
    7.8763  -13.3559   21.0529 C   0  0  0  0  0  0  0  0  0  0  0  0
    8.5665  -12.3230   20.2385 C   0  0  0  0  0  0  0  0  0  0  0  0
    8.3736  -12.8546   18.8169 C   0  0  0  0  0  0  0  0  0  0  0  0
    8.4496  -14.3587   19.0009 C   0  0  1  0  0  0  0  0  0  0  0  0
    9.8449  -14.8433   18.9777 C   0  0  0  0  0  0  0  0  0  0  0  0
   10.4560  -15.2131   20.1500 O   0  0  0  0  0  0  0  0  0  0  0  0
   10.4291  -14.8988   17.8637 O   0  0  0  0  0  0  0  0  0  0  0  0
  2 10  1  0
  2  1  1  1
  3  2  1  0
  4  3  1  0
  5  4  2  0
  6  5  1  0
  7  8  1  0
  7  6  2  0
  8  9  2  0
  9  4  1  0
 10 12  1  0
 11 10  2  0
 12 13  1  0
 13 14  1  0
 14 16  1  0
 15 14  2  0
 16 20  1  0
 16 17  1  0
 17 18  1  0
 19 18  1  0
 20 21  1  1
 20 19  1  0
 21 22  1  0
 23 21  2  0
M  END
$$$$
