FGP.pdb
     RDKit          3D

 23 24  0  0  1  0  0  0  0  0999 V2000
    7.3492  -16.7342   16.5447 N   0  0  0  0  0  0  0  0  0  0  0  0
    7.8080  -15.9685   17.6607 C   0  0  1  0  0  0  0  0  0  0  0  0
    6.6944  -15.2101   18.3509 C   0  0  0  0  0  0  0  0  0  0  0  0
    7.1841  -14.4638   19.5254 C   0  0  0  0  0  0  0  0  0  0  0  0
    7.8342  -13.2417   19.3230 C   0  0  0  0  0  0  0  0  0  0  0  0
    8.2970  -12.5328   20.4065 C   0  0  0  0  0  0  0  0  0  0  0  0
    8.1058  -13.0503   21.6726 C   0  0  0  0  0  0  0  0  0  0  0  0
    7.4670  -14.2510   21.8700 C   0  0  0  0  0  0  0  0  0  0  0  0
    6.9997  -14.9692   20.7941 C   0  0  0  0  0  0  0  0  0  0  0  0
    8.4658  -16.8858   18.6267 C   0  0  0  0  0  0  0  0  0  0  0  0
    7.8254  -17.7890   19.2274 O   0  0  0  0  0  0  0  0  0  0  0  0
    9.8571  -16.7590   18.8966 N   0  0  0  0  0  0  0  0  0  0  0  0
   10.5281  -17.7193   19.7168 C   0  0  0  0  0  0  0  0  0  0  0  0
   10.6151  -17.2009   21.1038 C   0  0  0  0  0  0  0  0  0  0  0  0
   10.2749  -16.0071   21.3852 O   0  0  0  0  0  0  0  0  0  0  0  0
   11.0914  -18.0756   22.1181 N   0  0  0  0  0  0  0  0  0  0  0  0
   11.4086  -19.4463   21.8916 C   0  0  0  0  0  0  0  0  0  0  0  0
   11.9382  -19.9918   23.1679 C   0  0  0  0  0  0  0  0  0  0  0  0
   11.3197  -19.0476   24.2007 C   0  0  0  0  0  0  0  0  0  0  0  0
   11.3114  -17.7118   23.4813 C   0  0  1  0  0  0  0  0  0  0  0  0
   12.5998  -17.0038   23.6264 C   0  0  0  0  0  0  0  0  0  0  0  0
   12.8645  -16.3020   24.7761 O   0  0  0  0  0  0  0  0  0  0  0  0
   13.4189  -17.0732   22.6727 O   0  0  0  0  0  0  0  0  0  0  0  0
  2 10  1  0
  2  1  1  6
  3  2  1  0
  4  3  1  0
  5  4  2  0
  6  5  1  0
  7  8  1  0
  7  6  2  0
  8  9  2  0
  9  4  1  0
 10 12  1  0
 11 10  2  0
 12 13  1  0
 13 14  1  0
 14 16  1  0
 15 14  2  0
 16 20  1  0
 16 17  1  0
 17 18  1  0
 19 18  1  0
 20 21  1  6
 20 19  1  0
 21 22  1  0
 23 21  2  0
M  END
$$$$
