FGP.pdb
     RDKit          3D

 23 24  0  0  1  0  0  0  0  0999 V2000
    7.1395  -16.8109   26.0735 N   0  0  0  0  0  0  0  0  0  0  0  0
    6.8513  -15.8351   25.0700 C   0  0  1  0  0  0  0  0  0  0  0  0
    7.7906  -14.6490   25.1165 C   0  0  0  0  0  0  0  0  0  0  0  0
    7.3544  -13.6412   26.1015 C   0  0  0  0  0  0  0  0  0  0  0  0
    6.1231  -13.0045   25.9127 C   0  0  0  0  0  0  0  0  0  0  0  0
    5.7009  -12.0626   26.8211 C   0  0  0  0  0  0  0  0  0  0  0  0
    6.5094  -11.7694   27.9017 C   0  0  0  0  0  0  0  0  0  0  0  0
    7.7188  -12.3956   28.0860 C   0  0  0  0  0  0  0  0  0  0  0  0
    8.1519  -13.3395   27.1842 C   0  0  0  0  0  0  0  0  0  0  0  0
    6.9305  -16.4876   23.7376 C   0  0  0  0  0  0  0  0  0  0  0  0
    7.0164  -17.7383   23.6140 O   0  0  0  0  0  0  0  0  0  0  0  0
    6.9105  -15.6977   22.5544 N   0  0  0  0  0  0  0  0  0  0  0  0
    6.4232  -16.2430   21.3254 C   0  0  0  0  0  0  0  0  0  0  0  0
    7.4987  -16.1862   20.3056 C   0  0  0  0  0  0  0  0  0  0  0  0
    7.9912  -17.2480   19.8053 O   0  0  0  0  0  0  0  0  0  0  0  0
    7.9696  -14.9084   19.8979 N   0  0  0  0  0  0  0  0  0  0  0  0
    7.5232  -13.6835   20.4733 C   0  0  0  0  0  0  0  0  0  0  0  0
    8.2989  -12.5893   19.8348 C   0  0  0  0  0  0  0  0  0  0  0  0
    8.7091  -13.2222   18.5037 C   0  0  0  0  0  0  0  0  0  0  0  0
    8.9352  -14.6766   18.8717 C   0  0  1  0  0  0  0  0  0  0  0  0
   10.3013  -14.9054   19.3854 C   0  0  0  0  0  0  0  0  0  0  0  0
   10.4929  -15.1506   20.7224 O   0  0  0  0  0  0  0  0  0  0  0  0
   11.2529  -14.8656   18.5619 O   0  0  0  0  0  0  0  0  0  0  0  0
  2 10  1  0
  2  1  1  1
  3  2  1  0
  4  3  1  0
  5  4  2  0
  6  5  1  0
  7  8  1  0
  7  6  2  0
  8  9  2  0
  9  4  1  0
 10 12  1  0
 11 10  2  0
 12 13  1  0
 13 14  1  0
 14 16  1  0
 15 14  2  0
 16 20  1  0
 16 17  1  0
 17 18  1  0
 19 18  1  0
 20 21  1  1
 20 19  1  0
 21 22  1  0
 23 21  2  0
M  END
$$$$
