FGP.pdb
     RDKit          3D

 23 24  0  0  1  0  0  0  0  0999 V2000
    5.6580  -17.4120   20.5546 N   0  0  0  0  0  0  0  0  0  0  0  0
    6.7890  -17.4557   21.4271 C   0  0  1  0  0  0  0  0  0  0  0  0
    8.0240  -16.8246   20.8207 C   0  0  0  0  0  0  0  0  0  0  0  0
    7.8686  -15.3676   20.6498 C   0  0  0  0  0  0  0  0  0  0  0  0
    8.6120  -14.5109   21.4687 C   0  0  0  0  0  0  0  0  0  0  0  0
    8.4794  -13.1501   21.3229 C   0  0  0  0  0  0  0  0  0  0  0  0
    7.6106  -12.6637   20.3659 C   0  0  0  0  0  0  0  0  0  0  0  0
    6.8809  -13.5064   19.5621 C   0  0  0  0  0  0  0  0  0  0  0  0
    7.0049  -14.8694   19.6985 C   0  0  0  0  0  0  0  0  0  0  0  0
    6.4386  -16.7607   22.6926 C   0  0  0  0  0  0  0  0  0  0  0  0
    5.5263  -15.8936   22.7442 O   0  0  0  0  0  0  0  0  0  0  0  0
    7.1398  -17.0668   23.8922 N   0  0  0  0  0  0  0  0  0  0  0  0
    6.8480  -16.3645   25.1033 C   0  0  0  0  0  0  0  0  0  0  0  0
    8.0505  -15.6091   25.5315 C   0  0  0  0  0  0  0  0  0  0  0  0
    9.2196  -15.9814   25.1928 O   0  0  0  0  0  0  0  0  0  0  0  0
    7.8643  -14.4514   26.3352 N   0  0  0  0  0  0  0  0  0  0  0  0
    6.5873  -13.8858   26.6187 C   0  0  0  0  0  0  0  0  0  0  0  0
    6.8077  -12.7433   27.5422 C   0  0  0  0  0  0  0  0  0  0  0  0
    8.2593  -12.3644   27.2421 C   0  0  0  0  0  0  0  0  0  0  0  0
    8.9107  -13.7047   26.9569 C   0  0  1  0  0  0  0  0  0  0  0  0
    9.3560  -14.3720   28.1973 C   0  0  0  0  0  0  0  0  0  0  0  0
    8.6446  -15.4379   28.6893 O   0  0  0  0  0  0  0  0  0  0  0  0
   10.3889  -13.9286   28.7646 O   0  0  0  0  0  0  0  0  0  0  0  0
  2 10  1  0
  2  1  1  6
  3  2  1  0
  4  3  1  0
  5  4  2  0
  6  5  1  0
  7  8  1  0
  7  6  2  0
  8  9  2  0
  9  4  1  0
 10 12  1  0
 11 10  2  0
 12 13  1  0
 13 14  1  0
 14 16  1  0
 15 14  2  0
 16 20  1  0
 16 17  1  0
 17 18  1  0
 19 18  1  0
 20 21  1  1
 20 19  1  0
 21 22  1  0
 23 21  2  0
M  END
$$$$
