IYE.pdb
     RDKit          3D

 30 30  0  0  1  0  0  0  0  0999 V2000
   24.5494  -21.3245  -18.5354 C   0  0  0  0  0  0  0  0  0  0  0  0
   24.4260  -19.8360  -18.3436 C   0  0  0  0  0  0  0  0  0  0  0  0
   23.4514  -19.5346  -17.2618 C   0  0  2  0  0  0  0  0  0  0  0  0
   22.1748  -20.3424  -17.4443 C   0  0  0  0  0  0  0  0  0  0  0  0
   23.1122  -18.0893  -17.0813 C   0  0  2  0  0  0  0  0  0  0  0  0
   24.3894  -17.3900  -16.8592 N   0  0  0  0  0  0  0  0  0  0  0  0
   22.1673  -17.8150  -15.9993 C   0  0  0  0  0  0  0  0  0  0  0  0
   22.5098  -17.9544  -14.8049 O   0  0  0  0  0  0  0  0  0  0  0  0
   18.8164  -12.3892  -19.5851 O   0  0  0  0  0  0  0  0  0  0  0  0
   19.0644  -13.1784  -18.4559 C   0  0  0  0  0  0  0  0  0  0  0  0
   20.3518  -13.4431  -18.0424 C   0  0  0  0  0  0  0  0  0  0  0  0
   20.5958  -14.2277  -16.9198 C   0  0  0  0  0  0  0  0  0  0  0  0
   19.5673  -14.7695  -16.1797 C   0  0  0  0  0  0  0  0  0  0  0  0
   19.8176  -15.6073  -14.9867 C   0  0  0  0  0  0  0  0  0  0  0  0
   19.8456  -17.0915  -15.3077 C   0  0  2  0  0  0  0  0  0  0  0  0
   20.8554  -17.3886  -16.3047 N   0  0  0  0  0  0  0  0  0  0  0  0
   18.5410  -17.6413  -15.6949 C   0  0  0  0  0  0  0  0  0  0  0  0
   18.1429  -17.7386  -16.8782 O   0  0  0  0  0  0  0  0  0  0  0  0
   18.2773  -14.4868  -16.6188 C   0  0  0  0  0  0  0  0  0  0  0  0
   18.0230  -13.7174  -17.7197 C   0  0  0  0  0  0  0  0  0  0  0  0
   17.6594  -18.0980  -14.6777 N   0  0  0  0  0  0  0  0  0  0  0  0
   16.3021  -18.5691  -15.0169 C   0  0  1  0  0  0  0  0  0  0  0  0
   15.7559  -19.3779  -13.8767 C   0  0  0  0  0  0  0  0  0  0  0  0
   14.4214  -19.9897  -14.1073 C   0  0  0  0  0  0  0  0  0  0  0  0
   13.4636  -19.8353  -12.9961 C   0  0  0  0  0  0  0  0  0  0  0  0
   13.7253  -19.2657  -11.9070 O   0  0  0  0  0  0  0  0  0  0  0  0
   15.4593  -17.4259  -15.4022 C   0  0  0  0  0  0  0  0  0  0  0  0
   15.6241  -16.3145  -14.8739 O   0  0  0  0  0  0  0  0  0  0  0  0
   12.1531  -20.3364  -13.0972 O   0  0  0  0  0  0  0  0  0  0  0  0
   14.4788  -17.5894  -16.3571 O   0  0  0  0  0  0  0  0  0  0  0  0
  2  1  1  0
  3  2  1  0
  3  4  1  6
  5  7  1  0
  5  3  1  0
  5  6  1  1
  7  8  2  0
  9 10  1  0
 10 20  2  0
 10 11  1  0
 11 12  2  0
 12 13  1  0
 13 14  1  0
 15 14  1  6
 16 15  1  0
 16  7  1  0
 17 15  1  0
 18 17  2  0
 19 13  2  0
 20 19  1  0
 21 17  1  0
 22 27  1  0
 22 21  1  0
 22 23  1  1
 24 25  1  0
 24 23  1  0
 25 26  2  0
 27 30  1  0
 28 27  2  0
 29 25  1  0
M  END
$$$$
