IYE.pdb
     RDKit          3D

 30 30  0  0  1  0  0  0  0  0999 V2000
   20.8104  -10.0958  -21.1886 C   0  0  0  0  0  0  0  0  0  0  0  0
   21.5837  -10.3989  -19.9325 C   0  0  0  0  0  0  0  0  0  0  0  0
   20.9932   -9.6747  -18.7760 C   0  0  2  0  0  0  0  0  0  0  0  0
   20.9546   -8.1765  -19.0392 C   0  0  0  0  0  0  0  0  0  0  0  0
   21.6362   -9.9377  -17.4516 C   0  0  2  0  0  0  0  0  0  0  0  0
   21.6486  -11.4008  -17.2818 N   0  0  0  0  0  0  0  0  0  0  0  0
   20.9867   -9.2820  -16.3171 C   0  0  0  0  0  0  0  0  0  0  0  0
   19.9020   -9.7131  -15.8688 O   0  0  0  0  0  0  0  0  0  0  0  0
   19.0034   -4.4944   -9.2717 O   0  0  0  0  0  0  0  0  0  0  0  0
   19.6536   -5.2117  -10.2827 C   0  0  0  0  0  0  0  0  0  0  0  0
   19.5953   -6.5876  -10.3282 C   0  0  0  0  0  0  0  0  0  0  0  0
   20.2422   -7.2984  -11.3340 C   0  0  0  0  0  0  0  0  0  0  0  0
   20.9636   -6.6607  -12.3199 C   0  0  0  0  0  0  0  0  0  0  0  0
   21.6571   -7.4085  -13.3911 C   0  0  0  0  0  0  0  0  0  0  0  0
   20.9426   -7.3162  -14.7280 C   0  0  2  0  0  0  0  0  0  0  0  0
   21.5889   -8.1512  -15.7214 N   0  0  0  0  0  0  0  0  0  0  0  0
   20.7737   -5.9433  -15.2189 C   0  0  0  0  0  0  0  0  0  0  0  0
   21.7146   -5.2189  -15.6168 O   0  0  0  0  0  0  0  0  0  0  0  0
   21.0065   -5.2714  -12.2505 C   0  0  0  0  0  0  0  0  0  0  0  0
   20.3755   -4.5602  -11.2683 C   0  0  0  0  0  0  0  0  0  0  0  0
   19.4681   -5.3824  -15.2533 N   0  0  0  0  0  0  0  0  0  0  0  0
   19.2677   -3.9706  -15.6353 C   0  0  1  0  0  0  0  0  0  0  0  0
   18.2144   -3.8875  -16.7012 C   0  0  0  0  0  0  0  0  0  0  0  0
   17.7838   -2.5138  -17.0701 C   0  0  0  0  0  0  0  0  0  0  0  0
   18.6581   -1.8244  -18.0377 C   0  0  0  0  0  0  0  0  0  0  0  0
   18.6296   -0.5890  -18.2659 O   0  0  0  0  0  0  0  0  0  0  0  0
   18.9771   -3.1663  -14.4377 C   0  0  0  0  0  0  0  0  0  0  0  0
   19.6028   -2.1173  -14.2154 O   0  0  0  0  0  0  0  0  0  0  0  0
   19.6095   -2.5388  -18.7883 O   0  0  0  0  0  0  0  0  0  0  0  0
   18.0025   -3.5801  -13.5551 O   0  0  0  0  0  0  0  0  0  0  0  0
  2  1  1  0
  3  2  1  0
  3  4  1  6
  5  7  1  0
  5  3  1  0
  5  6  1  1
  7  8  2  0
  9 10  1  0
 10 20  2  0
 10 11  1  0
 11 12  2  0
 12 13  1  0
 13 14  1  0
 15 14  1  1
 16 15  1  0
 16  7  1  0
 17 15  1  0
 18 17  2  0
 19 13  2  0
 20 19  1  0
 21 17  1  0
 22 27  1  0
 22 21  1  0
 22 23  1  6
 24 25  1  0
 24 23  1  0
 25 26  2  0
 27 30  1  0
 28 27  2  0
 29 25  1  0
M  END
$$$$
