IYE.pdb
     RDKit          3D

 30 30  0  0  1  0  0  0  0  0999 V2000
   19.5839  -17.2116  -21.4430 C   0  0  0  0  0  0  0  0  0  0  0  0
   20.2466  -15.9719  -20.9032 C   0  0  0  0  0  0  0  0  0  0  0  0
   19.2859  -15.1903  -20.0804 C   0  0  2  0  0  0  0  0  0  0  0  0
   18.0267  -14.8746  -20.8743 C   0  0  0  0  0  0  0  0  0  0  0  0
   19.8266  -13.9354  -19.4725 C   0  0  2  0  0  0  0  0  0  0  0  0
   20.9537  -14.3436  -18.6165 N   0  0  0  0  0  0  0  0  0  0  0  0
   18.8489  -13.1530  -18.7171 C   0  0  0  0  0  0  0  0  0  0  0  0
   17.7838  -12.7769  -19.2535 O   0  0  0  0  0  0  0  0  0  0  0  0
   14.5416  -17.2967  -15.9077 O   0  0  0  0  0  0  0  0  0  0  0  0
   15.3700  -16.1808  -15.7404 C   0  0  0  0  0  0  0  0  0  0  0  0
   14.8393  -14.9199  -15.5758 C   0  0  0  0  0  0  0  0  0  0  0  0
   15.6644  -13.8123  -15.4097 C   0  0  0  0  0  0  0  0  0  0  0  0
   17.0375  -13.9289  -15.4030 C   0  0  0  0  0  0  0  0  0  0  0  0
   17.9224  -12.7563  -15.2301 C   0  0  0  0  0  0  0  0  0  0  0  0
   18.2102  -12.0407  -16.5384 C   0  0  2  0  0  0  0  0  0  0  0  0
   19.1086  -12.8181  -17.3693 N   0  0  0  0  0  0  0  0  0  0  0  0
   18.6994  -10.6672  -16.3703 C   0  0  0  0  0  0  0  0  0  0  0  0
   19.8972  -10.3691  -16.1584 O   0  0  0  0  0  0  0  0  0  0  0  0
   17.5473  -15.2129  -15.5711 C   0  0  0  0  0  0  0  0  0  0  0  0
   16.7484  -16.3100  -15.7352 C   0  0  0  0  0  0  0  0  0  0  0  0
   17.7714   -9.5934  -16.4498 N   0  0  0  0  0  0  0  0  0  0  0  0
   18.1995   -8.2091  -16.1673 C   0  0  1  0  0  0  0  0  0  0  0  0
   17.4172   -7.2603  -17.0276 C   0  0  0  0  0  0  0  0  0  0  0  0
   17.6649   -5.8165  -16.7774 C   0  0  0  0  0  0  0  0  0  0  0  0
   18.3146   -5.0933  -17.8868 C   0  0  0  0  0  0  0  0  0  0  0  0
   18.7618   -5.6405  -18.9258 O   0  0  0  0  0  0  0  0  0  0  0  0
   18.0949   -7.9394  -14.7244 C   0  0  0  0  0  0  0  0  0  0  0  0
   18.9157   -7.1982  -14.1603 O   0  0  0  0  0  0  0  0  0  0  0  0
   18.4761   -3.6966  -17.8421 O   0  0  0  0  0  0  0  0  0  0  0  0
   17.0779   -8.5139  -13.9925 O   0  0  0  0  0  0  0  0  0  0  0  0
  2  1  1  0
  3  2  1  0
  3  4  1  6
  5  7  1  0
  5  3  1  0
  5  6  1  1
  7  8  2  0
  9 10  1  0
 10 20  2  0
 10 11  1  0
 11 12  2  0
 12 13  1  0
 13 14  1  0
 15 14  1  1
 16 15  1  0
 16  7  1  0
 17 15  1  0
 18 17  2  0
 19 13  2  0
 20 19  1  0
 21 17  1  0
 22 27  1  0
 22 21  1  0
 22 23  1  6
 24 25  1  0
 24 23  1  0
 25 26  2  0
 27 30  1  0
 28 27  2  0
 29 25  1  0
M  END
$$$$
