IYE.pdb
     RDKit          3D

 30 30  0  0  1  0  0  0  0  0999 V2000
   25.8169  -20.3265  -22.0151 C   0  0  0  0  0  0  0  0  0  0  0  0
   25.0715  -19.4015  -21.0896 C   0  0  0  0  0  0  0  0  0  0  0  0
   24.7653  -20.0909  -19.8083 C   0  0  2  0  0  0  0  0  0  0  0  0
   24.0299  -21.3990  -20.0609 C   0  0  0  0  0  0  0  0  0  0  0  0
   24.0175  -19.2786  -18.7996 C   0  0  2  0  0  0  0  0  0  0  0  0
   24.8217  -18.0667  -18.5671 N   0  0  0  0  0  0  0  0  0  0  0  0
   23.7375  -19.9731  -17.5434 C   0  0  0  0  0  0  0  0  0  0  0  0
   23.2002  -21.1021  -17.5466 O   0  0  0  0  0  0  0  0  0  0  0  0
   23.3495  -21.2565   -8.7267 O   0  0  0  0  0  0  0  0  0  0  0  0
   23.6844  -20.8084  -10.0099 C   0  0  0  0  0  0  0  0  0  0  0  0
   22.9578  -19.8140  -10.6277 C   0  0  0  0  0  0  0  0  0  0  0  0
   23.2925  -19.3702  -11.9029 C   0  0  0  0  0  0  0  0  0  0  0  0
   24.3571  -19.9030  -12.5970 C   0  0  0  0  0  0  0  0  0  0  0  0
   24.7182  -19.4394  -13.9544 C   0  0  0  0  0  0  0  0  0  0  0  0
   23.7418  -19.9153  -15.0158 C   0  0  2  0  0  0  0  0  0  0  0  0
   24.0764  -19.3641  -16.3143 N   0  0  0  0  0  0  0  0  0  0  0  0
   22.3338  -19.6688  -14.6826 C   0  0  0  0  0  0  0  0  0  0  0  0
   21.8055  -18.5336  -14.6606 O   0  0  0  0  0  0  0  0  0  0  0  0
   25.0740  -20.9055  -11.9505 C   0  0  0  0  0  0  0  0  0  0  0  0
   24.7565  -21.3510  -10.6977 C   0  0  0  0  0  0  0  0  0  0  0  0
   21.5005  -20.7749  -14.3622 N   0  0  0  0  0  0  0  0  0  0  0  0
   20.0712  -20.5729  -14.0529 C   0  0  1  0  0  0  0  0  0  0  0  0
   19.2552  -21.6098  -14.7679 C   0  0  0  0  0  0  0  0  0  0  0  0
   17.7830  -21.4908  -14.6043 C   0  0  0  0  0  0  0  0  0  0  0  0
   17.0912  -22.7440  -14.2478 C   0  0  0  0  0  0  0  0  0  0  0  0
   16.2207  -22.8430  -13.3470 O   0  0  0  0  0  0  0  0  0  0  0  0
   19.8746  -20.5523  -12.5947 C   0  0  0  0  0  0  0  0  0  0  0  0
   20.3383  -21.4577  -11.8829 O   0  0  0  0  0  0  0  0  0  0  0  0
   17.3783  -23.9446  -14.9222 O   0  0  0  0  0  0  0  0  0  0  0  0
   19.1700  -19.5199  -12.0134 O   0  0  0  0  0  0  0  0  0  0  0  0
  2  1  1  0
  3  2  1  0
  3  4  1  6
  5  7  1  0
  5  3  1  0
  5  6  1  1
  7  8  2  0
  9 10  1  0
 10 20  2  0
 10 11  1  0
 11 12  2  0
 12 13  1  0
 13 14  1  0
 15 14  1  1
 16 15  1  0
 16  7  1  0
 17 15  1  0
 18 17  2  0
 19 13  2  0
 20 19  1  0
 21 17  1  0
 22 27  1  0
 22 21  1  0
 22 23  1  6
 24 25  1  0
 24 23  1  0
 25 26  2  0
 27 30  1  0
 28 27  2  0
 29 25  1  0
M  END
$$$$
