IYE.pdb
     RDKit          3D

 30 30  0  0  1  0  0  0  0  0999 V2000
   29.8102  -23.8939  -19.0472 C   0  0  0  0  0  0  0  0  0  0  0  0
   29.0970  -22.6138  -18.7007 C   0  0  0  0  0  0  0  0  0  0  0  0
   28.4292  -22.7373  -17.3780 C   0  0  2  0  0  0  0  0  0  0  0  0
   27.6358  -24.0330  -17.2922 C   0  0  0  0  0  0  0  0  0  0  0  0
   27.5599  -21.5865  -16.9824 C   0  0  2  0  0  0  0  0  0  0  0  0
   28.4340  -20.4014  -16.9478 N   0  0  0  0  0  0  0  0  0  0  0  0
   26.8588  -21.7603  -15.7108 C   0  0  0  0  0  0  0  0  0  0  0  0
   25.9028  -22.5606  -15.6155 O   0  0  0  0  0  0  0  0  0  0  0  0
   24.7078  -20.4392   -7.1806 O   0  0  0  0  0  0  0  0  0  0  0  0
   25.3761  -20.4523   -8.4105 C   0  0  0  0  0  0  0  0  0  0  0  0
   26.2585  -19.4504   -8.7506 C   0  0  0  0  0  0  0  0  0  0  0  0
   26.9216  -19.4655   -9.9735 C   0  0  0  0  0  0  0  0  0  0  0  0
   26.7248  -20.4760  -10.8896 C   0  0  0  0  0  0  0  0  0  0  0  0
   27.4231  -20.4984  -12.1932 C   0  0  0  0  0  0  0  0  0  0  0  0
   26.5366  -20.9876  -13.3252 C   0  0  2  0  0  0  0  0  0  0  0  0
   27.2641  -21.0181  -14.5789 N   0  0  0  0  0  0  0  0  0  0  0  0
   25.2790  -20.2432  -13.4605 C   0  0  0  0  0  0  0  0  0  0  0  0
   25.2041  -19.0562  -13.8526 O   0  0  0  0  0  0  0  0  0  0  0  0
   25.8288  -21.4751  -10.5212 C   0  0  0  0  0  0  0  0  0  0  0  0
   25.1706  -21.4730   -9.3231 C   0  0  0  0  0  0  0  0  0  0  0  0
   24.0582  -20.8925  -13.1311 N   0  0  0  0  0  0  0  0  0  0  0  0
   22.7711  -20.1812  -13.2611 C   0  0  1  0  0  0  0  0  0  0  0  0
   22.4583  -19.9786  -14.7148 C   0  0  0  0  0  0  0  0  0  0  0  0
   21.1066  -19.4357  -15.0093 C   0  0  0  0  0  0  0  0  0  0  0  0
   20.7889  -19.2959  -16.4430 C   0  0  0  0  0  0  0  0  0  0  0  0
   21.5341  -19.6855  -17.3768 O   0  0  0  0  0  0  0  0  0  0  0  0
   21.7263  -20.9005  -12.5150 C   0  0  0  0  0  0  0  0  0  0  0  0
   21.8342  -22.1173  -12.2932 O   0  0  0  0  0  0  0  0  0  0  0  0
   19.5876  -18.6953  -16.8614 O   0  0  0  0  0  0  0  0  0  0  0  0
   20.6188  -20.2187  -12.0583 O   0  0  0  0  0  0  0  0  0  0  0  0
  2  1  1  0
  3  2  1  0
  3  4  1  6
  5  7  1  0
  5  3  1  0
  5  6  1  1
  7  8  2  0
  9 10  1  0
 10 20  2  0
 10 11  1  0
 11 12  2  0
 12 13  1  0
 13 14  1  0
 15 14  1  1
 16 15  1  0
 16  7  1  0
 17 15  1  0
 18 17  2  0
 19 13  2  0
 20 19  1  0
 21 17  1  0
 22 27  1  0
 22 21  1  0
 22 23  1  6
 24 25  1  0
 24 23  1  0
 25 26  2  0
 27 30  1  0
 28 27  2  0
 29 25  1  0
M  END
$$$$
