IYE.pdb
     RDKit          3D

 30 30  0  0  1  0  0  0  0  0999 V2000
   16.8745  -13.9750  -20.3833 C   0  0  0  0  0  0  0  0  0  0  0  0
   17.8159  -14.1319  -19.2184 C   0  0  0  0  0  0  0  0  0  0  0  0
   17.9474  -12.8452  -18.4848 C   0  0  2  0  0  0  0  0  0  0  0  0
   18.4941  -11.7567  -19.3969 C   0  0  0  0  0  0  0  0  0  0  0  0
   18.7515  -12.8984  -17.2250 C   0  0  2  0  0  0  0  0  0  0  0  0
   18.1542  -13.9613  -16.3984 N   0  0  0  0  0  0  0  0  0  0  0  0
   18.8184  -11.6357  -16.4902 C   0  0  0  0  0  0  0  0  0  0  0  0
   17.7918  -11.1472  -15.9699 O   0  0  0  0  0  0  0  0  0  0  0  0
   22.6884   -4.2818  -13.2005 O   0  0  0  0  0  0  0  0  0  0  0  0
   22.4289   -5.5698  -13.6837 C   0  0  0  0  0  0  0  0  0  0  0  0
   21.8483   -6.5267  -12.8803 C   0  0  0  0  0  0  0  0  0  0  0  0
   21.5912   -7.8060  -13.3626 C   0  0  0  0  0  0  0  0  0  0  0  0
   21.9045   -8.1673  -14.6550 C   0  0  0  0  0  0  0  0  0  0  0  0
   21.6376   -9.5259  -15.1752 C   0  0  0  0  0  0  0  0  0  0  0  0
   20.2186   -9.6879  -15.6918 C   0  0  2  0  0  0  0  0  0  0  0  0
   20.0534  -10.9606  -16.3663 N   0  0  0  0  0  0  0  0  0  0  0  0
   19.7624   -8.5777  -16.5363 C   0  0  0  0  0  0  0  0  0  0  0  0
   20.1184   -8.4067  -17.7247 O   0  0  0  0  0  0  0  0  0  0  0  0
   22.4897   -7.1823  -15.4450 C   0  0  0  0  0  0  0  0  0  0  0  0
   22.7478   -5.9214  -14.9843 C   0  0  0  0  0  0  0  0  0  0  0  0
   18.8590   -7.6259  -15.9899 N   0  0  0  0  0  0  0  0  0  0  0  0
   18.3917   -6.4835  -16.7998 C   0  0  1  0  0  0  0  0  0  0  0  0
   16.9082   -6.5888  -17.0008 C   0  0  0  0  0  0  0  0  0  0  0  0
   16.2862   -5.4806  -17.7711 C   0  0  0  0  0  0  0  0  0  0  0  0
   15.0136   -4.9760  -17.2217 C   0  0  0  0  0  0  0  0  0  0  0  0
   14.5060   -5.3600  -16.1382 O   0  0  0  0  0  0  0  0  0  0  0  0
   18.8274   -5.2218  -16.1804 C   0  0  0  0  0  0  0  0  0  0  0  0
   19.0407   -5.1596  -14.9589 O   0  0  0  0  0  0  0  0  0  0  0  0
   14.2680   -3.9992  -17.9064 O   0  0  0  0  0  0  0  0  0  0  0  0
   19.0002   -4.0994  -16.9617 O   0  0  0  0  0  0  0  0  0  0  0  0
  2  1  1  0
  3  2  1  0
  3  4  1  6
  5  7  1  0
  5  3  1  0
  5  6  1  1
  7  8  2  0
  9 10  1  0
 10 20  2  0
 10 11  1  0
 11 12  2  0
 12 13  1  0
 13 14  1  0
 15 14  1  6
 16 15  1  0
 16  7  1  0
 17 15  1  0
 18 17  2  0
 19 13  2  0
 20 19  1  0
 21 17  1  0
 22 27  1  0
 22 21  1  0
 22 23  1  1
 24 25  1  0
 24 23  1  0
 25 26  2  0
 27 30  1  0
 28 27  2  0
 29 25  1  0
M  END
$$$$
