IYE.pdb
     RDKit          3D

 30 30  0  0  1  0  0  0  0  0999 V2000
   23.9258  -19.6114  -21.6231 C   0  0  0  0  0  0  0  0  0  0  0  0
   24.8721  -19.0986  -20.5699 C   0  0  0  0  0  0  0  0  0  0  0  0
   24.5035  -19.6431  -19.2363 C   0  0  2  0  0  0  0  0  0  0  0  0
   24.7014  -21.1513  -19.1951 C   0  0  0  0  0  0  0  0  0  0  0  0
   23.1291  -19.3015  -18.7556 C   0  0  2  0  0  0  0  0  0  0  0  0
   23.0572  -17.8307  -18.7216 N   0  0  0  0  0  0  0  0  0  0  0  0
   22.7765  -19.8756  -17.4576 C   0  0  0  0  0  0  0  0  0  0  0  0
   22.7616  -21.1150  -17.2930 O   0  0  0  0  0  0  0  0  0  0  0  0
   20.8988  -20.4014   -8.8041 O   0  0  0  0  0  0  0  0  0  0  0  0
   21.3159  -19.9749  -10.0704 C   0  0  0  0  0  0  0  0  0  0  0  0
   20.5902  -19.0444  -10.7818 C   0  0  0  0  0  0  0  0  0  0  0  0
   21.0066  -18.6220  -12.0401 C   0  0  0  0  0  0  0  0  0  0  0  0
   22.1543  -19.1132  -12.6239 C   0  0  0  0  0  0  0  0  0  0  0  0
   22.6028  -18.6720  -13.9625 C   0  0  0  0  0  0  0  0  0  0  0  0
   21.9907  -19.4909  -15.0856 C   0  0  2  0  0  0  0  0  0  0  0  0
   22.4495  -19.0235  -16.3791 N   0  0  0  0  0  0  0  0  0  0  0  0
   20.5257  -19.5647  -15.0381 C   0  0  0  0  0  0  0  0  0  0  0  0
   19.7640  -18.6273  -15.3692 O   0  0  0  0  0  0  0  0  0  0  0  0
   22.8683  -20.0513  -11.8844 C   0  0  0  0  0  0  0  0  0  0  0  0
   22.4709  -20.4752  -10.6470 C   0  0  0  0  0  0  0  0  0  0  0  0
   19.9130  -20.7671  -14.5916 N   0  0  0  0  0  0  0  0  0  0  0  0
   18.4431  -20.8736  -14.5063 C   0  0  1  0  0  0  0  0  0  0  0  0
   17.9800  -22.0436  -15.3241 C   0  0  0  0  0  0  0  0  0  0  0  0
   16.8874  -21.7573  -16.2899 C   0  0  0  0  0  0  0  0  0  0  0  0
   15.8558  -22.8065  -16.3943 C   0  0  0  0  0  0  0  0  0  0  0  0
   15.8268  -23.8465  -15.6897 O   0  0  0  0  0  0  0  0  0  0  0  0
   18.0278  -20.9232  -13.0954 C   0  0  0  0  0  0  0  0  0  0  0  0
   18.8195  -21.3035  -12.2179 O   0  0  0  0  0  0  0  0  0  0  0  0
   14.8061  -22.6974  -17.3244 O   0  0  0  0  0  0  0  0  0  0  0  0
   16.7497  -20.5446  -12.7442 O   0  0  0  0  0  0  0  0  0  0  0  0
  2  1  1  0
  3  2  1  0
  3  4  1  6
  5  7  1  0
  5  3  1  0
  5  6  1  1
  7  8  2  0
  9 10  1  0
 10 20  2  0
 10 11  1  0
 11 12  2  0
 12 13  1  0
 13 14  1  0
 15 14  1  1
 16 15  1  0
 16  7  1  0
 17 15  1  0
 18 17  2  0
 19 13  2  0
 20 19  1  0
 21 17  1  0
 22 27  1  0
 22 21  1  0
 22 23  1  6
 24 25  1  0
 24 23  1  0
 25 26  2  0
 27 30  1  0
 28 27  2  0
 29 25  1  0
M  END
$$$$
