IYE.pdb
     RDKit          3D

 30 30  0  0  1  0  0  0  0  0999 V2000
   29.5338  -18.0175  -15.5713 C   0  0  0  0  0  0  0  0  0  0  0  0
   28.1052  -18.4808  -15.6824 C   0  0  0  0  0  0  0  0  0  0  0  0
   27.7409  -19.3149  -14.5066 C   0  0  2  0  0  0  0  0  0  0  0  0
   28.7124  -20.4749  -14.3452 C   0  0  0  0  0  0  0  0  0  0  0  0
   26.3360  -19.8274  -14.4878 C   0  0  2  0  0  0  0  0  0  0  0  0
   25.4652  -18.6517  -14.6580 N   0  0  0  0  0  0  0  0  0  0  0  0
   25.9767  -20.5785  -13.2855 C   0  0  0  0  0  0  0  0  0  0  0  0
   26.4253  -21.7303  -13.0970 O   0  0  0  0  0  0  0  0  0  0  0  0
   29.4573  -20.8895   -6.9411 O   0  0  0  0  0  0  0  0  0  0  0  0
   28.2911  -20.6374   -7.6732 C   0  0  0  0  0  0  0  0  0  0  0  0
   27.9529  -21.4129   -8.7607 C   0  0  0  0  0  0  0  0  0  0  0  0
   26.7934  -21.1606   -9.4867 C   0  0  0  0  0  0  0  0  0  0  0  0
   25.9405  -20.1315   -9.1511 C   0  0  0  0  0  0  0  0  0  0  0  0
   24.7073  -19.8542   -9.9192 C   0  0  0  0  0  0  0  0  0  0  0  0
   24.5935  -20.7039  -11.1729 C   0  0  2  0  0  0  0  0  0  0  0  0
   25.1149  -19.9989  -12.3275 N   0  0  0  0  0  0  0  0  0  0  0  0
   23.2396  -21.2097  -11.4281 C   0  0  0  0  0  0  0  0  0  0  0  0
   22.5349  -21.7931  -10.5729 O   0  0  0  0  0  0  0  0  0  0  0  0
   26.3053  -19.3640   -8.0490 C   0  0  0  0  0  0  0  0  0  0  0  0
   27.4414  -19.6007   -7.3266 C   0  0  0  0  0  0  0  0  0  0  0  0
   22.6744  -21.0363  -12.7207 N   0  0  0  0  0  0  0  0  0  0  0  0
   21.2295  -21.2430  -12.9419 C   0  0  1  0  0  0  0  0  0  0  0  0
   20.5885  -19.9350  -13.3031 C   0  0  0  0  0  0  0  0  0  0  0  0
   20.2225  -19.7750  -14.7345 C   0  0  0  0  0  0  0  0  0  0  0  0
   18.8939  -19.1816  -14.9765 C   0  0  0  0  0  0  0  0  0  0  0  0
   18.5351  -18.0508  -14.5621 O   0  0  0  0  0  0  0  0  0  0  0  0
   21.0246  -22.3087  -13.9358 C   0  0  0  0  0  0  0  0  0  0  0  0
   19.9705  -22.9646  -13.9490 O   0  0  0  0  0  0  0  0  0  0  0  0
   17.9164  -19.8749  -15.7132 O   0  0  0  0  0  0  0  0  0  0  0  0
   22.0102  -22.5815  -14.8601 O   0  0  0  0  0  0  0  0  0  0  0  0
  2  1  1  0
  3  2  1  0
  3  4  1  6
  5  7  1  0
  5  3  1  0
  5  6  1  1
  7  8  2  0
  9 10  1  0
 10 20  2  0
 10 11  1  0
 11 12  2  0
 12 13  1  0
 13 14  1  0
 15 14  1  1
 16 15  1  0
 16  7  1  0
 17 15  1  0
 18 17  2  0
 19 13  2  0
 20 19  1  0
 21 17  1  0
 22 27  1  0
 22 21  1  0
 22 23  1  6
 24 25  1  0
 24 23  1  0
 25 26  2  0
 27 30  1  0
 28 27  2  0
 29 25  1  0
M  END
$$$$
