IYE.pdb
     RDKit          3D

 30 30  0  0  1  0  0  0  0  0999 V2000
   22.4215  -16.0145  -19.6779 C   0  0  0  0  0  0  0  0  0  0  0  0
   21.7980  -14.6507  -19.8151 C   0  0  0  0  0  0  0  0  0  0  0  0
   22.3525  -13.7249  -18.7922 C   0  0  2  0  0  0  0  0  0  0  0  0
   22.2193  -14.3186  -17.3974 C   0  0  0  0  0  0  0  0  0  0  0  0
   21.7943  -12.3376  -18.8051 C   0  0  2  0  0  0  0  0  0  0  0  0
   22.2401  -11.7249  -20.0683 N   0  0  0  0  0  0  0  0  0  0  0  0
   22.1770  -11.5152  -17.6579 C   0  0  0  0  0  0  0  0  0  0  0  0
   21.8354  -11.8403  -16.4999 O   0  0  0  0  0  0  0  0  0  0  0  0
   27.8114  -14.1684  -17.2957 O   0  0  0  0  0  0  0  0  0  0  0  0
   27.0995  -12.9672  -17.1966 C   0  0  0  0  0  0  0  0  0  0  0  0
   26.8844  -12.1751  -18.3032 C   0  0  0  0  0  0  0  0  0  0  0  0
   26.1765  -10.9817  -18.2024 C   0  0  0  0  0  0  0  0  0  0  0  0
   25.6646  -10.5448  -16.9998 C   0  0  0  0  0  0  0  0  0  0  0  0
   24.9135   -9.2760  -16.8829 C   0  0  0  0  0  0  0  0  0  0  0  0
   23.4130   -9.4894  -16.7861 C   0  0  2  0  0  0  0  0  0  0  0  0
   22.9393  -10.3426  -17.8583 N   0  0  0  0  0  0  0  0  0  0  0  0
   22.6381   -8.2448  -16.7180 C   0  0  0  0  0  0  0  0  0  0  0  0
   22.0597   -7.7228  -17.6985 O   0  0  0  0  0  0  0  0  0  0  0  0
   25.8960  -11.3634  -15.8983 C   0  0  0  0  0  0  0  0  0  0  0  0
   26.5895  -12.5383  -15.9829 C   0  0  0  0  0  0  0  0  0  0  0  0
   22.5246   -7.5743  -15.4697 N   0  0  0  0  0  0  0  0  0  0  0  0
   21.7039   -6.3535  -15.3454 C   0  0  1  0  0  0  0  0  0  0  0  0
   20.3012   -6.6487  -15.7898 C   0  0  0  0  0  0  0  0  0  0  0  0
   19.3106   -5.5690  -15.5422 C   0  0  0  0  0  0  0  0  0  0  0  0
   19.2048   -4.5611  -16.6142 C   0  0  0  0  0  0  0  0  0  0  0  0
   19.5497   -3.3587  -16.4949 O   0  0  0  0  0  0  0  0  0  0  0  0
   21.8028   -5.8234  -13.9762 C   0  0  0  0  0  0  0  0  0  0  0  0
   21.5448   -4.6320  -13.7410 O   0  0  0  0  0  0  0  0  0  0  0  0
   18.6921   -4.9028  -17.8788 O   0  0  0  0  0  0  0  0  0  0  0  0
   22.1848   -6.6556  -12.9459 O   0  0  0  0  0  0  0  0  0  0  0  0
  2  1  1  0
  3  2  1  0
  3  4  1  1
  5  7  1  0
  5  3  1  0
  5  6  1  6
  7  8  2  0
  9 10  1  0
 10 20  2  0
 10 11  1  0
 11 12  2  0
 12 13  1  0
 13 14  1  0
 15 14  1  6
 16 15  1  0
 16  7  1  0
 17 15  1  0
 18 17  2  0
 19 13  2  0
 20 19  1  0
 21 17  1  0
 22 27  1  0
 22 21  1  0
 22 23  1  1
 24 25  1  0
 24 23  1  0
 25 26  2  0
 27 30  1  0
 28 27  2  0
 29 25  1  0
M  END
$$$$
