IYE.pdb
     RDKit          3D

 30 30  0  0  1  0  0  0  0  0999 V2000
   28.7348  -19.9792   -4.2461 C   0  0  0  0  0  0  0  0  0  0  0  0
   27.4505  -20.3959   -4.9130 C   0  0  0  0  0  0  0  0  0  0  0  0
   27.4536  -19.9829   -6.3414 C   0  0  2  0  0  0  0  0  0  0  0  0
   27.8048  -18.5085   -6.4767 C   0  0  0  0  0  0  0  0  0  0  0  0
   26.1990  -20.2743   -7.1015 C   0  0  2  0  0  0  0  0  0  0  0  0
   25.9736  -21.7253   -6.9856 N   0  0  0  0  0  0  0  0  0  0  0  0
   26.2235  -19.8561   -8.5026 C   0  0  0  0  0  0  0  0  0  0  0  0
   26.2364  -18.6427   -8.8043 O   0  0  0  0  0  0  0  0  0  0  0  0
   28.0752  -19.7345  -17.0850 O   0  0  0  0  0  0  0  0  0  0  0  0
   27.9627  -20.0355  -15.7225 C   0  0  0  0  0  0  0  0  0  0  0  0
   28.2106  -19.0805  -14.7608 C   0  0  0  0  0  0  0  0  0  0  0  0
   28.0980  -19.3818  -13.4073 C   0  0  0  0  0  0  0  0  0  0  0  0
   27.7367  -20.6393  -12.9748 C   0  0  0  0  0  0  0  0  0  0  0  0
   27.6177  -20.9693  -11.5379 C   0  0  0  0  0  0  0  0  0  0  0  0
   26.2952  -20.5212  -10.9407 C   0  0  2  0  0  0  0  0  0  0  0  0
   26.2326  -20.8305   -9.5257 N   0  0  0  0  0  0  0  0  0  0  0  0
   25.1174  -21.0372  -11.6483 C   0  0  0  0  0  0  0  0  0  0  0  0
   24.6194  -22.1692  -11.4510 O   0  0  0  0  0  0  0  0  0  0  0  0
   27.4920  -21.5848  -13.9663 C   0  0  0  0  0  0  0  0  0  0  0  0
   27.5986  -21.3026  -15.2996 C   0  0  0  0  0  0  0  0  0  0  0  0
   24.4874  -20.2158  -12.6224 N   0  0  0  0  0  0  0  0  0  0  0  0
   23.2885  -20.6898  -13.3419 C   0  0  1  0  0  0  0  0  0  0  0  0
   22.0594  -20.2931  -12.5776 C   0  0  0  0  0  0  0  0  0  0  0  0
   20.7658  -20.6596  -13.2105 C   0  0  0  0  0  0  0  0  0  0  0  0
   19.5665  -20.3191  -12.4220 C   0  0  0  0  0  0  0  0  0  0  0  0
   19.5130  -19.3922  -11.5752 O   0  0  0  0  0  0  0  0  0  0  0  0
   23.3164  -20.2049  -14.7310 C   0  0  0  0  0  0  0  0  0  0  0  0
   23.9203  -19.1600  -15.0222 O   0  0  0  0  0  0  0  0  0  0  0  0
   18.3694  -21.0407  -12.5799 O   0  0  0  0  0  0  0  0  0  0  0  0
   22.6670  -20.9158  -15.7174 O   0  0  0  0  0  0  0  0  0  0  0  0
  2  1  1  0
  3  2  1  0
  3  4  1  1
  5  7  1  0
  5  3  1  0
  5  6  1  6
  7  8  2  0
  9 10  1  0
 10 20  2  0
 10 11  1  0
 11 12  2  0
 12 13  1  0
 13 14  1  0
 15 14  1  6
 16 15  1  0
 16  7  1  0
 17 15  1  0
 18 17  2  0
 19 13  2  0
 20 19  1  0
 21 17  1  0
 22 27  1  0
 22 21  1  0
 22 23  1  1
 24 25  1  0
 24 23  1  0
 25 26  2  0
 27 30  1  0
 28 27  2  0
 29 25  1  0
M  END
$$$$
