RPC.pdb
     RDKit          3D

 25 25  0  0  1  0  0  0  0  0999 V2000
   19.6976  -16.3124  -16.5523 N   0  0  0  0  0  0  0  0  0  0  0  0
   19.5685  -17.7110  -16.2313 C   0  0  0  0  0  0  0  0  0  0  0  0
   18.4166  -18.1455  -15.8752 N   0  0  0  0  0  0  0  0  0  0  0  0
   20.6712  -18.5858  -16.3037 N   0  0  0  0  0  0  0  0  0  0  0  0
   21.6579  -18.4051  -17.3662 C   0  0  0  0  0  0  0  0  0  0  0  0
   21.4273  -19.5033  -18.3577 C   0  0  0  0  0  0  0  0  0  0  0  0
   22.3818  -19.5874  -19.4907 C   0  0  0  0  0  0  0  0  0  0  0  0
   23.3927  -20.7022  -19.4110 C   0  0  2  0  0  0  0  0  0  0  0  0
   22.9027  -21.5789  -18.3196 N   0  0  0  0  0  0  0  0  0  0  0  0
   24.6855  -20.1397  -18.9221 C   0  0  0  0  0  0  0  0  0  0  0  0
   24.9482  -20.2211  -17.6901 O   0  0  0  0  0  0  0  0  0  0  0  0
   18.1898  -19.1034  -15.5776 N   0  0  0  0  0  0  0  0  0  0  0  0
   25.6442  -19.5176  -19.7623 C   0  0  0  0  0  0  0  0  0  0  0  0
   25.4284  -19.2568  -21.1844 C   0  0  0  0  0  0  0  0  0  0  0  0
   26.6560  -18.6033  -21.7217 C   0  0  0  0  0  0  0  0  0  0  0  0
   27.7037  -18.8841  -20.6958 C   0  0  1  0  0  0  0  0  0  0  0  0
   26.9411  -19.0211  -19.3935 C   0  0  0  0  0  0  0  0  0  0  0  0
   26.8413  -17.6182  -18.8442 O   0  0  0  0  0  0  0  0  0  0  0  0
   25.9376  -16.8873  -19.3096 N   0  0  0  0  0  0  0  0  0  0  0  0
   27.6940  -17.0977  -17.8560 C   0  0  1  0  0  0  0  0  0  0  0  0
   27.6157  -15.7977  -17.2788 C   0  0  0  0  0  0  0  0  0  0  0  0
   28.1825  -15.6648  -15.9030 S   0  0  0  0  0  0  0  0  0  0  0  0
   27.8899  -13.9297  -15.3783 C   0  0  0  0  0  0  0  0  0  0  0  0
   28.2463  -14.7466  -18.1250 O   0  0  0  0  0  0  0  0  0  0  0  0
   29.2663  -15.0320  -18.7990 O   0  0  0  0  0  0  0  0  0  0  0  0
  2  1  1  0
  2  3  2  0
  4  5  1  0
  4  2  1  0
  6  5  1  0
  6  7  1  0
  7  8  1  0
  8 10  1  0
  8  9  1  1
 10 12  1  0
 11 10  2  0
 12 13  1  0
 12 16  1  0
 13 14  1  0
 14 15  1  0
 16 15  1  0
 17 19  1  0
 16 17  1  1
 18 17  2  0
 20 21  1  6
 20 23  1  0
 20 19  1  0
 22 21  1  0
 23 25  1  0
 24 23  2  0
M  END
$$$$
