RPC.pdb
     RDKit          3D

 25 25  0  0  1  0  0  0  0  0999 V2000
   17.9049  -14.1525  -15.4814 N   0  0  0  0  0  0  0  0  0  0  0  0
   18.5031  -13.9048  -16.7685 C   0  0  0  0  0  0  0  0  0  0  0  0
   18.2887  -14.7505  -17.7074 N   0  0  0  0  0  0  0  0  0  0  0  0
   19.3031  -12.7677  -16.9999 N   0  0  0  0  0  0  0  0  0  0  0  0
   19.2111  -11.6316  -16.0855 C   0  0  0  0  0  0  0  0  0  0  0  0
   18.9201  -10.4267  -16.9257 C   0  0  0  0  0  0  0  0  0  0  0  0
   18.6965   -9.1504  -16.2027 C   0  0  0  0  0  0  0  0  0  0  0  0
   19.1305   -9.1331  -14.7597 C   0  0  2  0  0  0  0  0  0  0  0  0
   18.0640   -9.8667  -14.0358 N   0  0  0  0  0  0  0  0  0  0  0  0
   19.0617   -7.7295  -14.2578 C   0  0  0  0  0  0  0  0  0  0  0  0
   17.9458   -7.2843  -13.8702 O   0  0  0  0  0  0  0  0  0  0  0  0
   18.6432  -14.6967  -18.6712 N   0  0  0  0  0  0  0  0  0  0  0  0
   20.1803   -6.8602  -14.1869 C   0  0  0  0  0  0  0  0  0  0  0  0
   21.5182   -7.2207  -14.6531 C   0  0  0  0  0  0  0  0  0  0  0  0
   22.4184   -6.0585  -14.4050 C   0  0  0  0  0  0  0  0  0  0  0  0
   21.6733   -5.2168  -13.4224 C   0  0  1  0  0  0  0  0  0  0  0  0
   20.2117   -5.5115  -13.6926 C   0  0  0  0  0  0  0  0  0  0  0  0
   19.8043   -4.5361  -14.7709 O   0  0  0  0  0  0  0  0  0  0  0  0
   20.2087   -4.7698  -15.9325 N   0  0  0  0  0  0  0  0  0  0  0  0
   19.0097   -3.3996  -14.5443 C   0  0  1  0  0  0  0  0  0  0  0  0
   18.5228   -2.5033  -15.5387 C   0  0  0  0  0  0  0  0  0  0  0  0
   17.2414   -1.8081  -15.2125 S   0  0  0  0  0  0  0  0  0  0  0  0
   16.0144   -3.1188  -14.8279 C   0  0  0  0  0  0  0  0  0  0  0  0
   19.5147   -1.4579  -15.9154 O   0  0  0  0  0  0  0  0  0  0  0  0
   20.5474   -1.3121  -15.2165 O   0  0  0  0  0  0  0  0  0  0  0  0
  2  1  1  0
  2  3  2  0
  4  5  1  0
  4  2  1  0
  6  5  1  0
  6  7  1  0
  7  8  1  0
  8 10  1  0
  8  9  1  1
 10 12  1  0
 11 10  2  0
 12 13  1  0
 12 16  1  0
 13 14  1  0
 14 15  1  0
 16 15  1  0
 17 19  1  0
 16 17  1  6
 18 17  2  0
 20 21  1  6
 20 23  1  0
 20 19  1  0
 22 21  1  0
 23 25  1  0
 24 23  2  0
M  END
$$$$
