RPC.pdb
     RDKit          3D

 25 25  0  0  1  0  0  0  0  0999 V2000
   20.7354  -20.5811   -9.4302 N   0  0  0  0  0  0  0  0  0  0  0  0
   21.8681  -21.1024   -8.7083 C   0  0  0  0  0  0  0  0  0  0  0  0
   21.6751  -22.0856   -7.9093 N   0  0  0  0  0  0  0  0  0  0  0  0
   23.1567  -20.5544   -8.8689 N   0  0  0  0  0  0  0  0  0  0  0  0
   23.6120  -20.1796  -10.2058 C   0  0  0  0  0  0  0  0  0  0  0  0
   24.4360  -21.3217  -10.7146 C   0  0  0  0  0  0  0  0  0  0  0  0
   24.9050  -21.2293  -12.1193 C   0  0  0  0  0  0  0  0  0  0  0  0
   24.2481  -20.1632  -12.9578 C   0  0  2  0  0  0  0  0  0  0  0  0
   22.8761  -20.6692  -13.2048 N   0  0  0  0  0  0  0  0  0  0  0  0
   24.9099  -20.1329  -14.2949 C   0  0  0  0  0  0  0  0  0  0  0  0
   24.4618  -20.8856  -15.2039 O   0  0  0  0  0  0  0  0  0  0  0  0
   22.3758  -22.5212   -7.2955 N   0  0  0  0  0  0  0  0  0  0  0  0
   26.0166  -19.3036  -14.6099 C   0  0  0  0  0  0  0  0  0  0  0  0
   26.6798  -18.4335  -13.6402 C   0  0  0  0  0  0  0  0  0  0  0  0
   27.7839  -17.7207  -14.3443 C   0  0  0  0  0  0  0  0  0  0  0  0
   27.4633  -17.8821  -15.7935 C   0  0  1  0  0  0  0  0  0  0  0  0
   26.6880  -19.1816  -15.8744 C   0  0  0  0  0  0  0  0  0  0  0  0
   27.7352  -20.2579  -16.0310 O   0  0  0  0  0  0  0  0  0  0  0  0
   28.7464  -20.1798  -15.2969 N   0  0  0  0  0  0  0  0  0  0  0  0
   27.6376  -21.3241  -16.9411 C   0  0  1  0  0  0  0  0  0  0  0  0
   28.5839  -22.3759  -17.1073 C   0  0  0  0  0  0  0  0  0  0  0  0
   28.0186  -23.7585  -17.1267 S   0  0  0  0  0  0  0  0  0  0  0  0
   27.1600  -23.9989  -15.5216 C   0  0  0  0  0  0  0  0  0  0  0  0
   29.4202  -22.2181  -18.3298 O   0  0  0  0  0  0  0  0  0  0  0  0
   29.1266  -21.3257  -19.1627 O   0  0  0  0  0  0  0  0  0  0  0  0
  2  1  1  0
  2  3  2  0
  4  5  1  0
  4  2  1  0
  6  5  1  0
  6  7  1  0
  7  8  1  0
  8 10  1  0
  8  9  1  6
 10 12  1  0
 11 10  2  0
 12 13  1  0
 12 16  1  0
 13 14  1  0
 14 15  1  0
 16 15  1  0
 17 19  1  0
 16 17  1  6
 18 17  2  0
 20 21  1  6
 20 23  1  0
 20 19  1  0
 22 21  1  0
 23 25  1  0
 24 23  2  0
M  END
$$$$
