RPC.pdb
     RDKit          3D

 25 25  0  0  1  0  0  0  0  0999 V2000
   18.5146  -21.5570  -17.5735 N   0  0  0  0  0  0  0  0  0  0  0  0
   18.0853  -21.6769  -16.2034 C   0  0  0  0  0  0  0  0  0  0  0  0
   17.3341  -22.6668  -15.8899 N   0  0  0  0  0  0  0  0  0  0  0  0
   18.4747  -20.7380  -15.2270 N   0  0  0  0  0  0  0  0  0  0  0  0
   19.2633  -19.5752  -15.6286 C   0  0  0  0  0  0  0  0  0  0  0  0
   20.6899  -19.8897  -15.3000 C   0  0  0  0  0  0  0  0  0  0  0  0
   21.2509  -19.2437  -14.0877 C   0  0  0  0  0  0  0  0  0  0  0  0
   22.1777  -20.0987  -13.2623 C   0  0  2  0  0  0  0  0  0  0  0  0
   22.9832  -20.8499  -14.2554 N   0  0  0  0  0  0  0  0  0  0  0  0
   21.3669  -21.1261  -12.5455 C   0  0  0  0  0  0  0  0  0  0  0  0
   21.0792  -22.1948  -13.1526 O   0  0  0  0  0  0  0  0  0  0  0  0
   16.9591  -22.8779  -14.9559 N   0  0  0  0  0  0  0  0  0  0  0  0
   20.8989  -20.9757  -11.2149 C   0  0  0  0  0  0  0  0  0  0  0  0
   20.9902  -19.7276  -10.4594 C   0  0  0  0  0  0  0  0  0  0  0  0
   20.4045  -19.9656   -9.1092 C   0  0  0  0  0  0  0  0  0  0  0  0
   20.3732  -21.4523   -8.9764 C   0  0  2  0  0  0  0  0  0  0  0  0
   20.2505  -21.9637  -10.3976 C   0  0  0  0  0  0  0  0  0  0  0  0
   18.7673  -22.0011  -10.6778 O   0  0  0  0  0  0  0  0  0  0  0  0
   18.2419  -20.9485  -11.1059 N   0  0  0  0  0  0  0  0  0  0  0  0
   17.9590  -23.1345  -10.4867 C   0  0  1  0  0  0  0  0  0  0  0  0
   16.6099  -23.2865  -10.9183 C   0  0  0  0  0  0  0  0  0  0  0  0
   16.1432  -24.6937  -11.1015 S   0  0  0  0  0  0  0  0  0  0  0  0
   17.4014  -25.5345  -12.1415 C   0  0  0  0  0  0  0  0  0  0  0  0
   15.6329  -22.6047  -10.0242 O   0  0  0  0  0  0  0  0  0  0  0  0
   15.9960  -22.2502   -8.8759 O   0  0  0  0  0  0  0  0  0  0  0  0
  2  1  1  0
  2  3  2  0
  4  5  1  0
  4  2  1  0
  6  5  1  0
  6  7  1  0
  7  8  1  0
  8 10  1  0
  8  9  1  6
 10 12  1  0
 11 10  2  0
 12 13  1  0
 12 16  1  0
 13 14  1  0
 14 15  1  0
 16 15  1  0
 17 19  1  0
 16 17  1  1
 18 17  2  0
 20 21  1  1
 20 23  1  0
 20 19  1  0
 22 21  1  0
 23 25  1  0
 24 23  2  0
M  END
$$$$
