RPC.pdb
     RDKit          3D

 25 25  0  0  1  0  0  0  0  0999 V2000
   25.1005  -18.1297  -17.9936 N   0  0  0  0  0  0  0  0  0  0  0  0
   23.9694  -17.9688  -17.1158 C   0  0  0  0  0  0  0  0  0  0  0  0
   22.8382  -17.6668  -17.6369 N   0  0  0  0  0  0  0  0  0  0  0  0
   24.0921  -18.1365  -15.7218 N   0  0  0  0  0  0  0  0  0  0  0  0
   24.4183  -19.4567  -15.1871 C   0  0  0  0  0  0  0  0  0  0  0  0
   23.5538  -19.6571  -13.9810 C   0  0  0  0  0  0  0  0  0  0  0  0
   24.2388  -20.0821  -12.7352 C   0  0  0  0  0  0  0  0  0  0  0  0
   25.0641  -21.3386  -12.8403 C   0  0  2  0  0  0  0  0  0  0  0  0
   24.0717  -22.4312  -12.9848 N   0  0  0  0  0  0  0  0  0  0  0  0
   25.7357  -21.5791  -11.5297 C   0  0  0  0  0  0  0  0  0  0  0  0
   25.0763  -22.1401  -10.6110 O   0  0  0  0  0  0  0  0  0  0  0  0
   21.9434  -17.5667  -17.1400 N   0  0  0  0  0  0  0  0  0  0  0  0
   27.0784  -21.2159  -11.2517 C   0  0  0  0  0  0  0  0  0  0  0  0
   27.9291  -20.4796  -12.1851 C   0  0  0  0  0  0  0  0  0  0  0  0
   29.2619  -20.2958  -11.5428 C   0  0  0  0  0  0  0  0  0  0  0  0
   29.2773  -21.2923  -10.4312 C   0  0  1  0  0  0  0  0  0  0  0  0
   27.8215  -21.4641  -10.0473 C   0  0  0  0  0  0  0  0  0  0  0  0
   27.5536  -20.3891   -9.0214 O   0  0  0  0  0  0  0  0  0  0  0  0
   27.2717  -19.2480   -9.4526 N   0  0  0  0  0  0  0  0  0  0  0  0
   27.6032  -20.5971   -7.6326 C   0  0  1  0  0  0  0  0  0  0  0  0
   27.3452  -19.6212   -6.6274 C   0  0  0  0  0  0  0  0  0  0  0  0
   26.3277  -20.0012   -5.6018 S   0  0  0  0  0  0  0  0  0  0  0  0
   26.8461  -21.6265   -4.9227 C   0  0  0  0  0  0  0  0  0  0  0  0
   28.5741  -19.1955   -5.9011 O   0  0  0  0  0  0  0  0  0  0  0  0
   29.5925  -19.9287   -5.9368 O   0  0  0  0  0  0  0  0  0  0  0  0
  2  1  1  0
  2  3  2  0
  4  5  1  0
  4  2  1  0
  6  5  1  0
  6  7  1  0
  7  8  1  0
  8 10  1  0
  8  9  1  1
 10 12  1  0
 11 10  2  0
 12 13  1  0
 12 16  1  0
 13 14  1  0
 14 15  1  0
 16 15  1  0
 17 19  1  0
 16 17  1  1
 18 17  2  0
 20 21  1  1
 20 23  1  0
 20 19  1  0
 22 21  1  0
 23 25  1  0
 24 23  2  0
M  END
$$$$
