RPC.pdb
     RDKit          3D

 25 25  0  0  1  0  0  0  0  0999 V2000
   29.1482  -21.6882  -17.8278 N   0  0  0  0  0  0  0  0  0  0  0  0
   29.8149  -20.4253  -18.0187 C   0  0  0  0  0  0  0  0  0  0  0  0
   30.6896  -20.3386  -18.9513 N   0  0  0  0  0  0  0  0  0  0  0  0
   29.5212  -19.3101  -17.2085 N   0  0  0  0  0  0  0  0  0  0  0  0
   28.9190  -19.5210  -15.8938 C   0  0  0  0  0  0  0  0  0  0  0  0
   27.4996  -19.0542  -15.9919 C   0  0  0  0  0  0  0  0  0  0  0  0
   26.4564  -19.9925  -15.5091 C   0  0  0  0  0  0  0  0  0  0  0  0
   26.9331  -21.0725  -14.5724 C   0  0  2  0  0  0  0  0  0  0  0  0
   27.4042  -22.1622  -15.4613 N   0  0  0  0  0  0  0  0  0  0  0  0
   25.7539  -21.6296  -13.8473 C   0  0  0  0  0  0  0  0  0  0  0  0
   25.0792  -22.5382  -14.4066 O   0  0  0  0  0  0  0  0  0  0  0  0
   31.2317  -19.5024  -19.2052 N   0  0  0  0  0  0  0  0  0  0  0  0
   25.3433  -21.1999  -12.5593 C   0  0  0  0  0  0  0  0  0  0  0  0
   26.0273  -20.1575  -11.7960 C   0  0  0  0  0  0  0  0  0  0  0  0
   25.3104  -19.9944  -10.4990 C   0  0  0  0  0  0  0  0  0  0  0  0
   24.4880  -21.2339  -10.3726 C   0  0  1  0  0  0  0  0  0  0  0  0
   24.2144  -21.6623  -11.8002 C   0  0  0  0  0  0  0  0  0  0  0  0
   22.9602  -20.9234  -12.2014 O   0  0  0  0  0  0  0  0  0  0  0  0
   23.0824  -19.7132  -12.4978 N   0  0  0  0  0  0  0  0  0  0  0  0
   21.6851  -21.5111  -12.2585 C   0  0  1  0  0  0  0  0  0  0  0  0
   20.5417  -20.9746  -12.9173 C   0  0  0  0  0  0  0  0  0  0  0  0
   19.6445  -21.9727  -13.5734 S   0  0  0  0  0  0  0  0  0  0  0  0
   20.6992  -22.9696  -14.6982 C   0  0  0  0  0  0  0  0  0  0  0  0
   19.6968  -20.1338  -12.0240 O   0  0  0  0  0  0  0  0  0  0  0  0
   19.9339  -20.1189  -10.7913 O   0  0  0  0  0  0  0  0  0  0  0  0
  2  1  1  0
  2  3  2  0
  4  5  1  0
  4  2  1  0
  6  5  1  0
  6  7  1  0
  7  8  1  0
  8 10  1  0
  8  9  1  6
 10 12  1  0
 11 10  2  0
 12 13  1  0
 12 16  1  0
 13 14  1  0
 14 15  1  0
 16 15  1  0
 17 19  1  0
 16 17  1  6
 18 17  2  0
 20 21  1  6
 20 23  1  0
 20 19  1  0
 22 21  1  0
 23 25  1  0
 24 23  2  0
M  END
$$$$
