RPC.pdb
     RDKit          3D

 25 25  0  0  1  0  0  0  0  0999 V2000
   19.3463  -18.0642  -14.5077 N   0  0  0  0  0  0  0  0  0  0  0  0
   19.3228  -18.1650  -15.9447 C   0  0  0  0  0  0  0  0  0  0  0  0
   18.5521  -17.3729  -16.5936 N   0  0  0  0  0  0  0  0  0  0  0  0
   20.1209  -19.1045  -16.6281 N   0  0  0  0  0  0  0  0  0  0  0  0
   20.9360  -20.0427  -15.8596 C   0  0  0  0  0  0  0  0  0  0  0  0
   22.2801  -20.0835  -16.5185 C   0  0  0  0  0  0  0  0  0  0  0  0
   22.7000  -18.8617  -17.2483 C   0  0  0  0  0  0  0  0  0  0  0  0
   24.0749  -18.9092  -17.8635 C   0  0  2  0  0  0  0  0  0  0  0  0
   23.9960  -19.9845  -18.8818 N   0  0  0  0  0  0  0  0  0  0  0  0
   25.0400  -19.4006  -16.8370 C   0  0  0  0  0  0  0  0  0  0  0  0
   25.3452  -20.6255  -16.8374 O   0  0  0  0  0  0  0  0  0  0  0  0
   18.3964  -17.3681  -17.6101 N   0  0  0  0  0  0  0  0  0  0  0  0
   25.6409  -18.5704  -15.8563 C   0  0  0  0  0  0  0  0  0  0  0  0
   25.2884  -17.1658  -15.6564 C   0  0  0  0  0  0  0  0  0  0  0  0
   26.1341  -16.6343  -14.5496 C   0  0  0  0  0  0  0  0  0  0  0  0
   27.2431  -17.6258  -14.4227 C   0  0  1  0  0  0  0  0  0  0  0  0
   26.6453  -18.9354  -14.8958 C   0  0  0  0  0  0  0  0  0  0  0  0
   26.0150  -19.5487  -13.6684 O   0  0  0  0  0  0  0  0  0  0  0  0
   24.7918  -19.3460  -13.4947 N   0  0  0  0  0  0  0  0  0  0  0  0
   26.7157  -20.3212  -12.7268 C   0  0  2  0  0  0  0  0  0  0  0  0
   26.1463  -21.0239  -11.6261 C   0  0  0  0  0  0  0  0  0  0  0  0
   27.1190  -21.7039  -10.7188 S   0  0  0  0  0  0  0  0  0  0  0  0
   26.1302  -22.5281   -9.4095 C   0  0  0  0  0  0  0  0  0  0  0  0
   25.2699  -20.1670  -10.7797 O   0  0  0  0  0  0  0  0  0  0  0  0
   25.7109  -19.0720  -10.3523 O   0  0  0  0  0  0  0  0  0  0  0  0
  2  1  1  0
  2  3  2  0
  4  5  1  0
  4  2  1  0
  6  5  1  0
  6  7  1  0
  7  8  1  0
  8 10  1  0
  8  9  1  6
 10 12  1  0
 11 10  2  0
 12 13  1  0
 12 16  1  0
 13 14  1  0
 14 15  1  0
 16 15  1  0
 17 19  1  0
 16 17  1  1
 18 17  2  0
 20 21  1  1
 20 23  1  0
 20 19  1  0
 22 21  1  0
 23 25  1  0
 24 23  2  0
M  END
$$$$
