RPC.pdb
     RDKit          3D

 25 25  0  0  1  0  0  0  0  0999 V2000
   24.7691  -21.8095   -8.5084 N   0  0  0  0  0  0  0  0  0  0  0  0
   24.4707  -20.9884   -9.6541 C   0  0  0  0  0  0  0  0  0  0  0  0
   23.2428  -20.8466   -9.9926 N   0  0  0  0  0  0  0  0  0  0  0  0
   25.4925  -20.3542  -10.3892 N   0  0  0  0  0  0  0  0  0  0  0  0
   26.5231  -21.1688  -11.0291 C   0  0  0  0  0  0  0  0  0  0  0  0
   26.7347  -20.5968  -12.3967 C   0  0  0  0  0  0  0  0  0  0  0  0
   27.6820  -21.3201  -13.2805 C   0  0  0  0  0  0  0  0  0  0  0  0
   27.0716  -21.9818  -14.4890 C   0  0  2  0  0  0  0  0  0  0  0  0
   28.2241  -22.5441  -15.2341 N   0  0  0  0  0  0  0  0  0  0  0  0
   26.5004  -20.9248  -15.3740 C   0  0  0  0  0  0  0  0  0  0  0  0
   27.2964  -20.1725  -16.0017 O   0  0  0  0  0  0  0  0  0  0  0  0
   22.8851  -20.2782  -10.7714 N   0  0  0  0  0  0  0  0  0  0  0  0
   25.1097  -20.7137  -15.5561 C   0  0  0  0  0  0  0  0  0  0  0  0
   24.0763  -21.4264  -14.8069 C   0  0  0  0  0  0  0  0  0  0  0  0
   22.7491  -20.9407  -15.2816 C   0  0  0  0  0  0  0  0  0  0  0  0
   23.0445  -20.2688  -16.5817 C   0  0  2  0  0  0  0  0  0  0  0  0
   24.4743  -19.7846  -16.4492 C   0  0  0  0  0  0  0  0  0  0  0  0
   24.3718  -18.4177  -15.8160 O   0  0  0  0  0  0  0  0  0  0  0  0
   23.8678  -18.3565  -14.6716 N   0  0  0  0  0  0  0  0  0  0  0  0
   24.8041  -17.2310  -16.4319 C   0  0  1  0  0  0  0  0  0  0  0  0
   24.7768  -15.9280  -15.8567 C   0  0  0  0  0  0  0  0  0  0  0  0
   26.0028  -15.1009  -16.0682 S   0  0  0  0  0  0  0  0  0  0  0  0
   27.4246  -16.1102  -15.4927 C   0  0  0  0  0  0  0  0  0  0  0  0
   23.6094  -15.1187  -16.3048 O   0  0  0  0  0  0  0  0  0  0  0  0
   22.9000  -15.5378  -17.2521 O   0  0  0  0  0  0  0  0  0  0  0  0
  2  1  1  0
  2  3  2  0
  4  5  1  0
  4  2  1  0
  6  5  1  0
  6  7  1  0
  7  8  1  0
  8 10  1  0
  8  9  1  6
 10 12  1  0
 11 10  2  0
 12 13  1  0
 12 16  1  0
 13 14  1  0
 14 15  1  0
 16 15  1  0
 17 19  1  0
 16 17  1  6
 18 17  2  0
 20 21  1  1
 20 23  1  0
 20 19  1  0
 22 21  1  0
 23 25  1  0
 24 23  2  0
M  END
$$$$
