RPC.pdb
     RDKit          3D

 25 25  0  0  1  0  0  0  0  0999 V2000
   22.9742  -25.3564  -14.9864 N   0  0  0  0  0  0  0  0  0  0  0  0
   23.7927  -24.2058  -14.7003 C   0  0  0  0  0  0  0  0  0  0  0  0
   23.2517  -23.2150  -14.0935 N   0  0  0  0  0  0  0  0  0  0  0  0
   25.1513  -24.1602  -15.0726 N   0  0  0  0  0  0  0  0  0  0  0  0
   25.6802  -25.1833  -15.9720 C   0  0  0  0  0  0  0  0  0  0  0  0
   27.0045  -24.6828  -16.4601 C   0  0  0  0  0  0  0  0  0  0  0  0
   26.9749  -23.5535  -17.4220 C   0  0  0  0  0  0  0  0  0  0  0  0
   28.0162  -22.4855  -17.2069 C   0  0  2  0  0  0  0  0  0  0  0  0
   29.2830  -23.2292  -17.0024 N   0  0  0  0  0  0  0  0  0  0  0  0
   27.7388  -21.8035  -15.9091 C   0  0  0  0  0  0  0  0  0  0  0  0
   28.3436  -22.2073  -14.8772 O   0  0  0  0  0  0  0  0  0  0  0  0
   23.7226  -22.3524  -13.7910 N   0  0  0  0  0  0  0  0  0  0  0  0
   26.8336  -20.7212  -15.7631 C   0  0  0  0  0  0  0  0  0  0  0  0
   25.9828  -20.2244  -16.8431 C   0  0  0  0  0  0  0  0  0  0  0  0
   25.1845  -19.0839  -16.3096 C   0  0  0  0  0  0  0  0  0  0  0  0
   25.8983  -18.6850  -15.0605 C   0  0  2  0  0  0  0  0  0  0  0  0
   26.5678  -19.9555  -14.5767 C   0  0  0  0  0  0  0  0  0  0  0  0
   25.5358  -20.6430  -13.7154 O   0  0  0  0  0  0  0  0  0  0  0  0
   24.6896  -21.3564  -14.3004 N   0  0  0  0  0  0  0  0  0  0  0  0
   25.4751  -20.5268  -12.3163 C   0  0  1  0  0  0  0  0  0  0  0  0
   24.4902  -21.1084  -11.4671 C   0  0  0  0  0  0  0  0  0  0  0  0
   24.7137  -20.9319  -10.0006 S   0  0  0  0  0  0  0  0  0  0  0  0
   26.5265  -21.0366   -9.7279 C   0  0  0  0  0  0  0  0  0  0  0  0
   23.1101  -20.6362  -11.7686 O   0  0  0  0  0  0  0  0  0  0  0  0
   22.9495  -19.6807  -12.5670 O   0  0  0  0  0  0  0  0  0  0  0  0
  2  1  1  0
  2  3  2  0
  4  5  1  0
  4  2  1  0
  6  5  1  0
  6  7  1  0
  7  8  1  0
  8 10  1  0
  8  9  1  1
 10 12  1  0
 11 10  2  0
 12 13  1  0
 12 16  1  0
 13 14  1  0
 14 15  1  0
 16 15  1  0
 17 19  1  0
 16 17  1  1
 18 17  2  0
 20 21  1  1
 20 23  1  0
 20 19  1  0
 22 21  1  0
 23 25  1  0
 24 23  2  0
M  END
$$$$
