RPC.pdb
     RDKit          3D

 25 25  0  0  1  0  0  0  0  0999 V2000
   25.7527  -14.3861  -15.2641 N   0  0  0  0  0  0  0  0  0  0  0  0
   24.9251  -15.2085  -16.1095 C   0  0  0  0  0  0  0  0  0  0  0  0
   25.0868  -16.4790  -16.0618 N   0  0  0  0  0  0  0  0  0  0  0  0
   23.9616  -14.6425  -16.9684 N   0  0  0  0  0  0  0  0  0  0  0  0
   23.6746  -13.2127  -16.8764 C   0  0  0  0  0  0  0  0  0  0  0  0
   22.3232  -13.0859  -16.2439 C   0  0  0  0  0  0  0  0  0  0  0  0
   21.7626  -11.7158  -16.1425 C   0  0  0  0  0  0  0  0  0  0  0  0
   20.4239  -11.6074  -15.4588 C   0  0  2  0  0  0  0  0  0  0  0  0
   19.4589  -12.1875  -16.4241 N   0  0  0  0  0  0  0  0  0  0  0  0
   20.0604  -10.1644  -15.3481 C   0  0  0  0  0  0  0  0  0  0  0  0
   19.6454   -9.5688  -16.3808 O   0  0  0  0  0  0  0  0  0  0  0  0
   24.5805  -17.1809  -16.6171 N   0  0  0  0  0  0  0  0  0  0  0  0
   20.1509   -9.4170  -14.1460 C   0  0  0  0  0  0  0  0  0  0  0  0
   20.7360   -9.9357  -12.9108 C   0  0  0  0  0  0  0  0  0  0  0  0
   20.6423   -8.8670  -11.8755 C   0  0  0  0  0  0  0  0  0  0  0  0
   19.6306   -7.9131  -12.4192 C   0  0  1  0  0  0  0  0  0  0  0  0
   19.7310   -8.0610  -13.9239 C   0  0  0  0  0  0  0  0  0  0  0  0
   20.8083   -7.0907  -14.3457 O   0  0  0  0  0  0  0  0  0  0  0  0
   21.9939   -7.4832  -14.2591 N   0  0  0  0  0  0  0  0  0  0  0  0
   20.5558   -5.7929  -14.8215 C   0  0  2  0  0  0  0  0  0  0  0  0
   21.4997   -4.9298  -15.4487 C   0  0  0  0  0  0  0  0  0  0  0  0
   20.9346   -3.9574  -16.4321 S   0  0  0  0  0  0  0  0  0  0  0  0
   19.6162   -3.0277  -15.5551 C   0  0  0  0  0  0  0  0  0  0  0  0
   22.3169   -4.1550  -14.4737 O   0  0  0  0  0  0  0  0  0  0  0  0
   21.9444   -4.0896  -13.2766 O   0  0  0  0  0  0  0  0  0  0  0  0
  2  1  1  0
  2  3  2  0
  4  5  1  0
  4  2  1  0
  6  5  1  0
  6  7  1  0
  7  8  1  0
  8 10  1  0
  8  9  1  6
 10 12  1  0
 11 10  2  0
 12 13  1  0
 12 16  1  0
 13 14  1  0
 14 15  1  0
 16 15  1  0
 17 19  1  0
 16 17  1  6
 18 17  2  0
 20 21  1  1
 20 23  1  0
 20 19  1  0
 22 21  1  0
 23 25  1  0
 24 23  2  0
M  END
$$$$
