RPC.pdb
     RDKit          3D

 25 25  0  0  1  0  0  0  0  0999 V2000
   20.2473  -21.5241  -14.8068 N   0  0  0  0  0  0  0  0  0  0  0  0
   20.8290  -22.6890  -15.4236 C   0  0  0  0  0  0  0  0  0  0  0  0
   20.8322  -23.7859  -14.7608 N   0  0  0  0  0  0  0  0  0  0  0  0
   21.3816  -22.6353  -16.7191 N   0  0  0  0  0  0  0  0  0  0  0  0
   22.7704  -23.0428  -16.9208 C   0  0  0  0  0  0  0  0  0  0  0  0
   23.6161  -21.8397  -16.6388 C   0  0  0  0  0  0  0  0  0  0  0  0
   24.5825  -21.4446  -17.6932 C   0  0  0  0  0  0  0  0  0  0  0  0
   26.0049  -21.8926  -17.4758 C   0  0  2  0  0  0  0  0  0  0  0  0
   25.9826  -23.3544  -17.7254 N   0  0  0  0  0  0  0  0  0  0  0  0
   26.3375  -21.7389  -16.0293 C   0  0  0  0  0  0  0  0  0  0  0  0
   26.4026  -22.7774  -15.3144 O   0  0  0  0  0  0  0  0  0  0  0  0
   21.2865  -24.6660  -15.0375 N   0  0  0  0  0  0  0  0  0  0  0  0
   26.5889  -20.4904  -15.4049 C   0  0  0  0  0  0  0  0  0  0  0  0
   26.4390  -19.2019  -16.0790 C   0  0  0  0  0  0  0  0  0  0  0  0
   26.7991  -18.1312  -15.1059 C   0  0  0  0  0  0  0  0  0  0  0  0
   27.5480  -18.8458  -14.0301 C   0  0  2  0  0  0  0  0  0  0  0  0
   26.9941  -20.2562  -14.0464 C   0  0  0  0  0  0  0  0  0  0  0  0
   25.7958  -20.2211  -13.1284 O   0  0  0  0  0  0  0  0  0  0  0  0
   24.6659  -20.2813  -13.6644 N   0  0  0  0  0  0  0  0  0  0  0  0
   25.8793  -20.1258  -11.7290 C   0  0  1  0  0  0  0  0  0  0  0  0
   24.8877  -20.5484  -10.7976 C   0  0  0  0  0  0  0  0  0  0  0  0
   25.1917  -20.2772   -9.3604 S   0  0  0  0  0  0  0  0  0  0  0  0
   25.2922  -21.9099   -8.5262 C   0  0  0  0  0  0  0  0  0  0  0  0
   23.5409  -19.9804  -11.0842 O   0  0  0  0  0  0  0  0  0  0  0  0
   23.4530  -18.8999  -11.7173 O   0  0  0  0  0  0  0  0  0  0  0  0
  2  1  1  0
  2  3  2  0
  4  5  1  0
  4  2  1  0
  6  5  1  0
  6  7  1  0
  7  8  1  0
  8 10  1  0
  8  9  1  1
 10 12  1  0
 11 10  2  0
 12 13  1  0
 12 16  1  0
 13 14  1  0
 14 15  1  0
 16 15  1  0
 17 19  1  0
 16 17  1  1
 18 17  2  0
 20 21  1  1
 20 23  1  0
 20 19  1  0
 22 21  1  0
 23 25  1  0
 24 23  2  0
M  END
$$$$
