RPC.pdb
     RDKit          3D

 25 25  0  0  1  0  0  0  0  0999 V2000
   17.0352  -20.1177  -14.6202 N   0  0  0  0  0  0  0  0  0  0  0  0
   18.1649  -21.0041  -14.7381 C   0  0  0  0  0  0  0  0  0  0  0  0
   17.9422  -22.2658  -14.7723 N   0  0  0  0  0  0  0  0  0  0  0  0
   19.4822  -20.5087  -14.8148 N   0  0  0  0  0  0  0  0  0  0  0  0
   19.8379  -19.5892  -15.8933 C   0  0  0  0  0  0  0  0  0  0  0  0
   21.2820  -19.2419  -15.7027 C   0  0  0  0  0  0  0  0  0  0  0  0
   22.1251  -20.2553  -15.0215 C   0  0  0  0  0  0  0  0  0  0  0  0
   23.4741  -20.5073  -15.6444 C   0  0  2  0  0  0  0  0  0  0  0  0
   23.2486  -21.6235  -16.5945 N   0  0  0  0  0  0  0  0  0  0  0  0
   24.3884  -21.0512  -14.5981 C   0  0  0  0  0  0  0  0  0  0  0  0
   24.1042  -22.1624  -14.0709 O   0  0  0  0  0  0  0  0  0  0  0  0
   18.6463  -23.0082  -14.8747 N   0  0  0  0  0  0  0  0  0  0  0  0
   25.5657  -20.3934  -14.1584 C   0  0  0  0  0  0  0  0  0  0  0  0
   26.0002  -19.0895  -14.6565 C   0  0  0  0  0  0  0  0  0  0  0  0
   27.2747  -18.7375  -13.9678 C   0  0  0  0  0  0  0  0  0  0  0  0
   27.7595  -20.0317  -13.4030 C   0  0  1  0  0  0  0  0  0  0  0  0
   26.5024  -20.8440  -13.1665 C   0  0  0  0  0  0  0  0  0  0  0  0
   26.0400  -20.4627  -11.7806 O   0  0  0  0  0  0  0  0  0  0  0  0
   25.4568  -19.3617  -11.6577 N   0  0  0  0  0  0  0  0  0  0  0  0
   26.2264  -21.2633  -10.6410 C   0  0  2  0  0  0  0  0  0  0  0  0
   25.9158  -20.8997   -9.2991 C   0  0  0  0  0  0  0  0  0  0  0  0
   26.3481  -21.8699   -8.2486 S   0  0  0  0  0  0  0  0  0  0  0  0
   25.8465  -21.1553   -6.6333 C   0  0  0  0  0  0  0  0  0  0  0  0
   26.4518  -19.5627   -8.9199 O   0  0  0  0  0  0  0  0  0  0  0  0
   27.6458  -19.2821   -9.1878 O   0  0  0  0  0  0  0  0  0  0  0  0
  2  1  1  0
  2  3  2  0
  4  5  1  0
  4  2  1  0
  6  5  1  0
  6  7  1  0
  7  8  1  0
  8 10  1  0
  8  9  1  6
 10 12  1  0
 11 10  2  0
 12 13  1  0
 12 16  1  0
 13 14  1  0
 14 15  1  0
 16 15  1  0
 17 19  1  0
 16 17  1  1
 18 17  2  0
 20 21  1  1
 20 23  1  0
 20 19  1  0
 22 21  1  0
 23 25  1  0
 24 23  2  0
M  END
$$$$
