RPC.pdb
     RDKit          3D

 25 25  0  0  1  0  0  0  0  0999 V2000
   20.3560  -18.0775  -18.2799 N   0  0  0  0  0  0  0  0  0  0  0  0
   20.4116  -18.5380  -16.9159 C   0  0  0  0  0  0  0  0  0  0  0  0
   19.7647  -19.6012  -16.6101 N   0  0  0  0  0  0  0  0  0  0  0  0
   21.1535  -17.8465  -15.9371 N   0  0  0  0  0  0  0  0  0  0  0  0
   21.7964  -16.5823  -16.2888 C   0  0  0  0  0  0  0  0  0  0  0  0
   23.1678  -16.9216  -16.7852 C   0  0  0  0  0  0  0  0  0  0  0  0
   24.0928  -17.5467  -15.8078 C   0  0  0  0  0  0  0  0  0  0  0  0
   24.8706  -18.7346  -16.3127 C   0  0  2  0  0  0  0  0  0  0  0  0
   23.9725  -19.3819  -17.2997 N   0  0  0  0  0  0  0  0  0  0  0  0
   25.0160  -19.7176  -15.1995 C   0  0  0  0  0  0  0  0  0  0  0  0
   24.0288  -20.4500  -14.9123 O   0  0  0  0  0  0  0  0  0  0  0  0
   19.7557  -20.0693  -15.6945 N   0  0  0  0  0  0  0  0  0  0  0  0
   26.2034  -19.8821  -14.4412 C   0  0  0  0  0  0  0  0  0  0  0  0
   27.3887  -19.0409  -14.5978 C   0  0  0  0  0  0  0  0  0  0  0  0
   28.4235  -19.5246  -13.6396 C   0  0  0  0  0  0  0  0  0  0  0  0
   27.9605  -20.8904  -13.2535 C   0  0  1  0  0  0  0  0  0  0  0  0
   26.4532  -20.8429  -13.4024 C   0  0  0  0  0  0  0  0  0  0  0  0
   25.9402  -20.3410  -12.0739 O   0  0  0  0  0  0  0  0  0  0  0  0
   26.0137  -19.1090  -11.8637 N   0  0  0  0  0  0  0  0  0  0  0  0
   25.3945  -21.1684  -11.0779 C   0  0  1  0  0  0  0  0  0  0  0  0
   25.0563  -20.7748   -9.7512 C   0  0  0  0  0  0  0  0  0  0  0  0
   24.4639  -21.8421   -8.8901 S   0  0  0  0  0  0  0  0  0  0  0  0
   23.9300  -21.0271   -7.3337 C   0  0  0  0  0  0  0  0  0  0  0  0
   26.2059  -20.1879   -9.0078 O   0  0  0  0  0  0  0  0  0  0  0  0
   27.3192  -20.7671   -9.0433 O   0  0  0  0  0  0  0  0  0  0  0  0
  2  1  1  0
  2  3  2  0
  4  5  1  0
  4  2  1  0
  6  5  1  0
  6  7  1  0
  7  8  1  0
  8 10  1  0
  8  9  1  6
 10 12  1  0
 11 10  2  0
 12 13  1  0
 12 16  1  0
 13 14  1  0
 14 15  1  0
 16 15  1  0
 17 19  1  0
 16 17  1  1
 18 17  2  0
 20 21  1  1
 20 23  1  0
 20 19  1  0
 22 21  1  0
 23 25  1  0
 24 23  2  0
M  END
$$$$
