RPQ.pdb
     RDKit          3D

 28 28  0  0  1  0  0  0  0  0999 V2000
    8.5148  -19.2005   24.9511 N   0  0  0  0  0  0  0  0  0  0  0  0
    7.3449  -19.6361   24.2828 C   0  0  0  0  0  0  0  0  0  0  0  0
    6.3762  -20.2080   24.9362 N   0  0  0  0  0  0  0  0  0  0  0  0
    7.1721  -19.4682   22.8725 N   0  0  0  0  0  0  0  0  0  0  0  0
    6.4003  -18.3298   22.3480 C   0  0  0  0  0  0  0  0  0  0  0  0
    6.9901  -17.0917   22.9221 C   0  0  0  0  0  0  0  0  0  0  0  0
    6.3706  -15.8054   22.5267 C   0  0  0  0  0  0  0  0  0  0  0  0
    7.3244  -14.6808   22.2160 C   0  0  2  0  0  0  0  0  0  0  0  0
    8.1388  -14.9022   21.0790 N   0  0  0  0  0  0  0  0  0  0  0  0
    8.0683  -14.2329   23.4089 C   0  0  0  0  0  0  0  0  0  0  0  0
    9.3509  -14.3483   23.3300 O   0  0  0  0  0  0  0  0  0  0  0  0
    5.5028  -20.4674   24.4273 N   0  0  0  0  0  0  0  0  0  0  0  0
    7.4840  -13.7016   24.6004 C   0  0  0  0  0  0  0  0  0  0  0  0
    6.1123  -13.4855   24.9397 C   0  0  0  0  0  0  0  0  0  0  0  0
    6.0983  -12.2711   25.8286 C   0  0  0  0  0  0  0  0  0  0  0  0
    7.5165  -12.1229   26.2718 C   0  0  2  0  0  0  0  0  0  0  0  0
    8.2764  -13.2742   25.7238 C   0  0  0  0  0  0  0  0  0  0  0  0
    8.5620  -14.3434   26.7027 O   0  0  0  0  0  0  0  0  0  0  0  0
    7.6144  -15.0943   27.0496 N   0  0  0  0  0  0  0  0  0  0  0  0
   13.2955  -17.6994   25.8125 C   0  0  0  0  0  0  0  0  0  0  0  0
   13.4810  -16.3650   26.2136 O   0  0  0  0  0  0  0  0  0  0  0  0
   14.5079  -15.7450   25.8895 C   0  0  0  0  0  0  0  0  0  0  0  0
   12.4499  -15.6653   27.0356 C   0  0  0  0  0  0  0  0  0  0  0  0
   11.2671  -16.5558   27.2981 C   0  0  1  0  0  0  0  0  0  0  0  0
   10.1831  -15.8216   27.9665 N   0  0  0  0  0  0  0  0  0  0  0  0
    9.8277  -14.5801   27.2762 C   0  0  0  0  0  0  0  0  0  0  0  0
   10.4108  -15.5946   29.3936 O   0  0  0  0  0  0  0  0  0  0  0  0
   10.6613  -16.6738   30.2240 O   0  0  0  0  0  0  0  0  0  0  0  0
  2  1  1  0
  3  2  2  0
  4  2  1  0
  5  4  1  0
  6  5  1  0
  7  6  1  0
  8  9  1  6
  8  7  1  0
 10  8  1  0
 11 10  2  0
 12 10  1  0
 12 16  1  0
 13 14  1  0
 13 12  1  0
 14 15  1  0
 15 16  1  0
 16 17  1  1
 17 18  2  0
 20 21  2  0
 20 19  1  0
 22 20  1  0
 23 22  1  0
 24 23  1  6
 24 26  1  0
 25 17  1  0
 25 24  1  0
 26 28  2  0
 26 27  1  0
M  END
$$$$
