RPQ.pdb
     RDKit          3D

 28 28  0  0  1  0  0  0  0  0999 V2000
    9.6288  -19.0363   14.4254 N   0  0  0  0  0  0  0  0  0  0  0  0
    8.3339  -19.5807   14.2459 C   0  0  0  0  0  0  0  0  0  0  0  0
    7.9254  -19.9584   13.0699 N   0  0  0  0  0  0  0  0  0  0  0  0
    7.4231  -19.7422   15.3372 N   0  0  0  0  0  0  0  0  0  0  0  0
    7.8223  -19.3613   16.7019 C   0  0  0  0  0  0  0  0  0  0  0  0
    8.1034  -17.9015   16.6909 C   0  0  0  0  0  0  0  0  0  0  0  0
    8.4992  -17.2830   17.9775 C   0  0  0  0  0  0  0  0  0  0  0  0
    8.7520  -15.7976   17.9461 C   0  0  2  0  0  0  0  0  0  0  0  0
    9.5889  -15.3692   16.8873 N   0  0  0  0  0  0  0  0  0  0  0  0
    9.1381  -15.2681   19.2680 C   0  0  0  0  0  0  0  0  0  0  0  0
   10.3995  -15.3230   19.5331 O   0  0  0  0  0  0  0  0  0  0  0  0
    6.9258  -20.2297   12.9416 N   0  0  0  0  0  0  0  0  0  0  0  0
    8.2410  -14.7207   20.2372 C   0  0  0  0  0  0  0  0  0  0  0  0
    6.8218  -14.5561   20.1931 C   0  0  0  0  0  0  0  0  0  0  0  0
    6.5306  -13.3116   20.9879 C   0  0  0  0  0  0  0  0  0  0  0  0
    7.7748  -13.0817   21.7808 C   0  0  1  0  0  0  0  0  0  0  0  0
    8.6923  -14.2159   21.5076 C   0  0  0  0  0  0  0  0  0  0  0  0
    8.7458  -15.2339   22.5771 O   0  0  0  0  0  0  0  0  0  0  0  0
    7.9617  -16.2143   22.4984 N   0  0  0  0  0  0  0  0  0  0  0  0
   15.3231  -17.6444   23.4906 C   0  0  0  0  0  0  0  0  0  0  0  0
   14.2746  -16.7216   23.3329 O   0  0  0  0  0  0  0  0  0  0  0  0
   14.4686  -15.6371   22.7583 C   0  0  0  0  0  0  0  0  0  0  0  0
   12.9077  -17.0245   23.8511 C   0  0  0  0  0  0  0  0  0  0  0  0
   11.9340  -15.9389   23.4846 C   0  0  1  0  0  0  0  0  0  0  0  0
   10.5882  -16.2322   23.9982 N   0  0  0  0  0  0  0  0  0  0  0  0
    9.6182  -15.1815   23.6830 C   0  0  0  0  0  0  0  0  0  0  0  0
   10.5571  -16.5813   25.4185 O   0  0  0  0  0  0  0  0  0  0  0  0
    9.9226  -15.7373   26.3140 O   0  0  0  0  0  0  0  0  0  0  0  0
  2  1  1  0
  3  2  2  0
  4  2  1  0
  5  4  1  0
  6  5  1  0
  7  6  1  0
  8  9  1  6
  8  7  1  0
 10  8  1  0
 11 10  2  0
 12 10  1  0
 12 16  1  0
 13 14  1  0
 13 12  1  0
 14 15  1  0
 15 16  1  0
 16 17  1  1
 17 18  2  0
 20 21  2  0
 20 19  1  0
 22 20  1  0
 23 22  1  0
 24 23  1  6
 24 26  1  0
 25 17  1  0
 25 24  1  0
 26 28  2  0
 26 27  1  0
M  END
$$$$
