RPQ.pdb
     RDKit          3D

 28 28  0  0  1  0  0  0  0  0999 V2000
    7.5625  -15.1171   14.9905 N   0  0  0  0  0  0  0  0  0  0  0  0
    8.9200  -15.2972   15.3506 C   0  0  0  0  0  0  0  0  0  0  0  0
    9.8661  -15.1886   14.4644 N   0  0  0  0  0  0  0  0  0  0  0  0
    9.3130  -15.6016   16.6922 N   0  0  0  0  0  0  0  0  0  0  0  0
    8.2959  -15.8417   17.7288 C   0  0  0  0  0  0  0  0  0  0  0  0
    7.7357  -14.5201   18.1154 C   0  0  0  0  0  0  0  0  0  0  0  0
    7.4044  -14.3221   19.5457 C   0  0  0  0  0  0  0  0  0  0  0  0
    8.1291  -13.1992   20.2423 C   0  0  2  0  0  0  0  0  0  0  0  0
    9.0587  -12.5090   19.4273 N   0  0  0  0  0  0  0  0  0  0  0  0
    8.6688  -13.6100   21.5526 C   0  0  0  0  0  0  0  0  0  0  0  0
    9.9393  -13.8334   21.5762 O   0  0  0  0  0  0  0  0  0  0  0  0
   10.8535  -15.3704   14.7494 N   0  0  0  0  0  0  0  0  0  0  0  0
    7.9060  -13.7716   22.7508 C   0  0  0  0  0  0  0  0  0  0  0  0
    6.5152  -13.5520   22.9971 C   0  0  0  0  0  0  0  0  0  0  0  0
    6.4213  -13.0960   24.4283 C   0  0  0  0  0  0  0  0  0  0  0  0
    7.7331  -13.4860   25.0257 C   0  0  1  0  0  0  0  0  0  0  0  0
    8.4947  -14.2212   23.9852 C   0  0  0  0  0  0  0  0  0  0  0  0
    8.5013  -15.6893   24.1514 O   0  0  0  0  0  0  0  0  0  0  0  0
    7.9619  -16.3871   23.2546 N   0  0  0  0  0  0  0  0  0  0  0  0
   12.8435  -16.4807   21.0821 C   0  0  0  0  0  0  0  0  0  0  0  0
   12.9116  -16.6177   22.4794 O   0  0  0  0  0  0  0  0  0  0  0  0
   13.8858  -16.1748   23.1108 C   0  0  0  0  0  0  0  0  0  0  0  0
   11.8166  -17.2967   23.2333 C   0  0  0  0  0  0  0  0  0  0  0  0
   11.3629  -16.4648   24.4009 C   0  0  2  0  0  0  0  0  0  0  0  0
   10.3075  -17.1460   25.1645 N   0  0  0  0  0  0  0  0  0  0  0  0
    9.0726  -16.3635   25.2495 C   0  0  0  0  0  0  0  0  0  0  0  0
   10.7359  -17.6153   26.4822 O   0  0  0  0  0  0  0  0  0  0  0  0
   11.0549  -16.6926   27.4638 O   0  0  0  0  0  0  0  0  0  0  0  0
  2  1  1  0
  3  2  2  0
  4  2  1  0
  5  4  1  0
  6  5  1  0
  7  6  1  0
  8  9  1  6
  8  7  1  0
 10  8  1  0
 11 10  2  0
 12 10  1  0
 12 16  1  0
 13 14  1  0
 13 12  1  0
 14 15  1  0
 15 16  1  0
 16 17  1  1
 17 18  2  0
 20 21  2  0
 20 19  1  0
 22 20  1  0
 23 22  1  0
 24 23  1  6
 24 26  1  0
 25 17  1  0
 25 24  1  0
 26 28  2  0
 26 27  1  0
M  END
$$$$
