RPQ.pdb
     RDKit          3D

 28 28  0  0  1  0  0  0  0  0999 V2000
    6.8231  -13.8520   16.2746 N   0  0  0  0  0  0  0  0  0  0  0  0
    6.9316  -13.9128   17.6851 C   0  0  0  0  0  0  0  0  0  0  0  0
    6.8492  -12.8346   18.4084 N   0  0  0  0  0  0  0  0  0  0  0  0
    7.1326  -15.1494   18.3760 N   0  0  0  0  0  0  0  0  0  0  0  0
    6.9209  -15.2320   19.8303 C   0  0  0  0  0  0  0  0  0  0  0  0
    8.2172  -14.9164   20.4861 C   0  0  0  0  0  0  0  0  0  0  0  0
    8.3017  -15.1347   21.9489 C   0  0  0  0  0  0  0  0  0  0  0  0
    9.5993  -14.7345   22.6026 C   0  0  2  0  0  0  0  0  0  0  0  0
   10.7585  -15.1472   21.9019 N   0  0  0  0  0  0  0  0  0  0  0  0
    9.6225  -15.0557   24.0425 C   0  0  0  0  0  0  0  0  0  0  0  0
   10.4646  -15.9706   24.3863 O   0  0  0  0  0  0  0  0  0  0  0  0
    6.9799  -12.9039   19.4415 N   0  0  0  0  0  0  0  0  0  0  0  0
    8.8039  -14.4444   25.0424 C   0  0  0  0  0  0  0  0  0  0  0  0
    7.5690  -13.7353   24.9187 C   0  0  0  0  0  0  0  0  0  0  0  0
    7.5832  -12.6978   26.0089 C   0  0  0  0  0  0  0  0  0  0  0  0
    8.6509  -13.1614   26.9443 C   0  0  1  0  0  0  0  0  0  0  0  0
    9.1483  -14.4657   26.4401 C   0  0  0  0  0  0  0  0  0  0  0  0
    8.6346  -15.6429   27.1705 O   0  0  0  0  0  0  0  0  0  0  0  0
    7.4775  -16.0507   26.8931 N   0  0  0  0  0  0  0  0  0  0  0  0
   13.4126  -18.1045   25.7463 C   0  0  0  0  0  0  0  0  0  0  0  0
   12.7818  -19.2744   26.2037 O   0  0  0  0  0  0  0  0  0  0  0  0
   13.2277  -20.3933   25.8983 C   0  0  0  0  0  0  0  0  0  0  0  0
   11.5649  -19.1979   27.0651 C   0  0  0  0  0  0  0  0  0  0  0  0
   11.0407  -17.7907   27.1424 C   0  0  1  0  0  0  0  0  0  0  0  0
    9.8414  -17.7127   27.9889 N   0  0  0  0  0  0  0  0  0  0  0  0
    9.3548  -16.3422   28.1600 C   0  0  0  0  0  0  0  0  0  0  0  0
    9.9758  -18.3977   29.2745 O   0  0  0  0  0  0  0  0  0  0  0  0
    9.8293  -19.7732   29.3324 O   0  0  0  0  0  0  0  0  0  0  0  0
  2  1  1  0
  3  2  2  0
  4  2  1  0
  5  4  1  0
  6  5  1  0
  7  6  1  0
  8  9  1  6
  8  7  1  0
 10  8  1  0
 11 10  2  0
 12 10  1  0
 12 16  1  0
 13 14  1  0
 13 12  1  0
 14 15  1  0
 15 16  1  0
 16 17  1  1
 17 18  2  0
 20 21  2  0
 20 19  1  0
 22 20  1  0
 23 22  1  0
 24 23  1  6
 24 26  1  0
 25 17  1  0
 25 24  1  0
 26 28  2  0
 26 27  1  0
M  END
$$$$
