RPQ.pdb
     RDKit          3D

 28 28  0  0  1  0  0  0  0  0999 V2000
    8.4311  -14.9617   14.2524 N   0  0  0  0  0  0  0  0  0  0  0  0
    8.1704  -14.2347   15.4392 C   0  0  0  0  0  0  0  0  0  0  0  0
    8.1848  -12.9339   15.4424 N   0  0  0  0  0  0  0  0  0  0  0  0
    7.8793  -14.8881   16.6783 N   0  0  0  0  0  0  0  0  0  0  0  0
    7.9108  -16.3569   16.7700 C   0  0  0  0  0  0  0  0  0  0  0  0
    9.1437  -16.7288   17.5128 C   0  0  0  0  0  0  0  0  0  0  0  0
    9.1290  -16.5339   18.9812 C   0  0  0  0  0  0  0  0  0  0  0  0
   10.1430  -15.5627   19.5289 C   0  0  2  0  0  0  0  0  0  0  0  0
   11.4061  -15.6148   18.8911 N   0  0  0  0  0  0  0  0  0  0  0  0
   10.2128  -15.5987   21.0022 C   0  0  0  0  0  0  0  0  0  0  0  0
   11.3293  -16.0258   21.4876 O   0  0  0  0  0  0  0  0  0  0  0  0
    8.0284  -12.4256   16.3404 N   0  0  0  0  0  0  0  0  0  0  0  0
    9.1648  -15.2079   21.8926 C   0  0  0  0  0  0  0  0  0  0  0  0
    7.8504  -14.7199   21.6145 C   0  0  0  0  0  0  0  0  0  0  0  0
    7.5222  -13.7703   22.7351 C   0  0  0  0  0  0  0  0  0  0  0  0
    8.5158  -14.1001   23.7999 C   0  0  1  0  0  0  0  0  0  0  0  0
    9.3091  -15.2607   23.3240 C   0  0  0  0  0  0  0  0  0  0  0  0
    8.9231  -16.5554   23.9223 O   0  0  0  0  0  0  0  0  0  0  0  0
    8.1367  -17.2934   23.2749 N   0  0  0  0  0  0  0  0  0  0  0  0
   10.7738  -19.3776   21.3612 C   0  0  0  0  0  0  0  0  0  0  0  0
   11.7338  -19.7577   22.3151 O   0  0  0  0  0  0  0  0  0  0  0  0
   12.8500  -20.1708   21.9580 C   0  0  0  0  0  0  0  0  0  0  0  0
   11.4335  -19.6730   23.7749 C   0  0  0  0  0  0  0  0  0  0  0  0
   11.2636  -18.2448   24.2135 C   0  0  2  0  0  0  0  0  0  0  0  0
   10.3118  -18.1376   25.3287 N   0  0  0  0  0  0  0  0  0  0  0  0
    9.3771  -17.0213   25.1727 C   0  0  0  0  0  0  0  0  0  0  0  0
   10.9419  -18.1282   26.6489 O   0  0  0  0  0  0  0  0  0  0  0  0
   11.2739  -16.9195   27.2370 O   0  0  0  0  0  0  0  0  0  0  0  0
  2  1  1  0
  3  2  2  0
  4  2  1  0
  5  4  1  0
  6  5  1  0
  7  6  1  0
  8  9  1  6
  8  7  1  0
 10  8  1  0
 11 10  2  0
 12 10  1  0
 12 16  1  0
 13 14  1  0
 13 12  1  0
 14 15  1  0
 15 16  1  0
 16 17  1  6
 17 18  2  0
 20 21  2  0
 20 19  1  0
 22 20  1  0
 23 22  1  0
 24 23  1  6
 24 26  1  0
 25 17  1  0
 25 24  1  0
 26 28  2  0
 26 27  1  0
M  END
$$$$
