RPQ.pdb
     RDKit          3D

 28 28  0  0  1  0  0  0  0  0999 V2000
    4.4185  -20.6917   22.1575 N   0  0  0  0  0  0  0  0  0  0  0  0
    5.7232  -20.8945   21.6459 C   0  0  0  0  0  0  0  0  0  0  0  0
    6.5889  -21.6192   22.2922 N   0  0  0  0  0  0  0  0  0  0  0  0
    6.1473  -20.3206   20.4058 N   0  0  0  0  0  0  0  0  0  0  0  0
    5.9141  -18.8940   20.1281 C   0  0  0  0  0  0  0  0  0  0  0  0
    6.3769  -18.6307   18.7401 C   0  0  0  0  0  0  0  0  0  0  0  0
    6.2885  -17.2337   18.2551 C   0  0  0  0  0  0  0  0  0  0  0  0
    7.5533  -16.6545   17.6753 C   0  0  2  0  0  0  0  0  0  0  0  0
    8.2351  -17.5162   16.7822 N   0  0  0  0  0  0  0  0  0  0  0  0
    8.4188  -16.0550   18.7090 C   0  0  0  0  0  0  0  0  0  0  0  0
    9.6014  -16.5635   18.7958 O   0  0  0  0  0  0  0  0  0  0  0  0
    7.5697  -21.6748   21.9401 N   0  0  0  0  0  0  0  0  0  0  0  0
    8.0472  -14.9900   19.5872 C   0  0  0  0  0  0  0  0  0  0  0  0
    6.7875  -14.3392   19.7686 C   0  0  0  0  0  0  0  0  0  0  0  0
    7.1125  -12.9144   20.1286 C   0  0  0  0  0  0  0  0  0  0  0  0
    8.5491  -12.9557   20.5339 C   0  0  2  0  0  0  0  0  0  0  0  0
    8.9824  -14.3747   20.4923 C   0  0  0  0  0  0  0  0  0  0  0  0
    9.0645  -15.0308   21.8137 O   0  0  0  0  0  0  0  0  0  0  0  0
    8.0116  -15.5232   22.2944 N   0  0  0  0  0  0  0  0  0  0  0  0
    9.9514  -20.7495   23.2916 C   0  0  0  0  0  0  0  0  0  0  0  0
   10.9216  -19.9343   22.6835 O   0  0  0  0  0  0  0  0  0  0  0  0
   11.4244  -20.2564   21.5938 C   0  0  0  0  0  0  0  0  0  0  0  0
   11.3676  -18.6660   23.3324 C   0  0  0  0  0  0  0  0  0  0  0  0
   10.9927  -17.4692   22.5028 C   0  0  1  0  0  0  0  0  0  0  0  0
   10.5982  -16.3342   23.3496 N   0  0  0  0  0  0  0  0  0  0  0  0
   10.2456  -15.1428   22.5747 C   0  0  0  0  0  0  0  0  0  0  0  0
   11.5583  -16.0201   24.4078 O   0  0  0  0  0  0  0  0  0  0  0  0
   11.6396  -16.8409   25.5198 O   0  0  0  0  0  0  0  0  0  0  0  0
  2  1  1  0
  3  2  2  0
  4  2  1  0
  5  4  1  0
  6  5  1  0
  7  6  1  0
  8  9  1  1
  8  7  1  0
 10  8  1  0
 11 10  2  0
 12 10  1  0
 12 16  1  0
 13 14  1  0
 13 12  1  0
 14 15  1  0
 15 16  1  0
 16 17  1  1
 17 18  2  0
 20 21  2  0
 20 19  1  0
 22 20  1  0
 23 22  1  0
 24 23  1  6
 24 26  1  0
 25 17  1  0
 25 24  1  0
 26 28  2  0
 26 27  1  0
M  END
$$$$
