RPQ.pdb
     RDKit          3D

 28 28  0  0  1  0  0  0  0  0999 V2000
    7.4097  -12.2967   17.6934 N   0  0  0  0  0  0  0  0  0  0  0  0
    8.1662  -13.4821   17.5271 C   0  0  0  0  0  0  0  0  0  0  0  0
    8.0966  -14.1696   16.4249 N   0  0  0  0  0  0  0  0  0  0  0  0
    9.0362  -13.9744   18.5506 N   0  0  0  0  0  0  0  0  0  0  0  0
    8.5656  -14.0753   19.9417 C   0  0  0  0  0  0  0  0  0  0  0  0
    7.5882  -15.1939   19.9995 C   0  0  0  0  0  0  0  0  0  0  0  0
    7.0093  -15.5137   21.3251 C   0  0  0  0  0  0  0  0  0  0  0  0
    7.0362  -16.9666   21.7246 C   0  0  2  0  0  0  0  0  0  0  0  0
    5.7745  -17.6078   21.6828 N   0  0  0  0  0  0  0  0  0  0  0  0
    7.7804  -17.1878   22.9792 C   0  0  0  0  0  0  0  0  0  0  0  0
    7.0632  -17.1731   24.0516 O   0  0  0  0  0  0  0  0  0  0  0  0
    8.6813  -15.0281   16.3230 N   0  0  0  0  0  0  0  0  0  0  0  0
    9.1894  -17.4074   23.0808 C   0  0  0  0  0  0  0  0  0  0  0  0
   10.1852  -17.5040   22.0600 C   0  0  0  0  0  0  0  0  0  0  0  0
   11.2122  -18.4724   22.5822 C   0  0  0  0  0  0  0  0  0  0  0  0
   10.9376  -18.5451   24.0482 C   0  0  1  0  0  0  0  0  0  0  0  0
    9.8545  -17.5751   24.3465 C   0  0  0  0  0  0  0  0  0  0  0  0
   10.3134  -16.3115   24.9594 O   0  0  0  0  0  0  0  0  0  0  0  0
   10.6930  -15.3882   24.1941 N   0  0  0  0  0  0  0  0  0  0  0  0
    6.2503  -13.1572   26.5232 C   0  0  0  0  0  0  0  0  0  0  0  0
    7.2395  -12.3412   27.0990 O   0  0  0  0  0  0  0  0  0  0  0  0
    6.9734  -11.1803   27.4530 C   0  0  0  0  0  0  0  0  0  0  0  0
    8.6284  -12.8512   27.2973 C   0  0  0  0  0  0  0  0  0  0  0  0
    8.7800  -14.2437   26.7506 C   0  0  2  0  0  0  0  0  0  0  0  0
   10.1471  -14.7481   26.9440 N   0  0  0  0  0  0  0  0  0  0  0  0
   10.3552  -16.0691   26.3473 C   0  0  0  0  0  0  0  0  0  0  0  0
   10.6037  -14.7101   28.3333 O   0  0  0  0  0  0  0  0  0  0  0  0
   11.0757  -13.5213   28.8633 O   0  0  0  0  0  0  0  0  0  0  0  0
  2  1  1  0
  3  2  2  0
  4  2  1  0
  5  4  1  0
  6  5  1  0
  7  6  1  0
  8  9  1  1
  8  7  1  0
 10  8  1  0
 11 10  2  0
 12 10  1  0
 12 16  1  0
 13 14  1  0
 13 12  1  0
 14 15  1  0
 15 16  1  0
 16 17  1  1
 17 18  2  0
 20 21  2  0
 20 19  1  0
 22 20  1  0
 23 22  1  0
 24 23  1  6
 24 26  1  0
 25 17  1  0
 25 24  1  0
 26 28  2  0
 26 27  1  0
M  END
$$$$
