RPQ.pdb
     RDKit          3D

 28 28  0  0  1  0  0  0  0  0999 V2000
    2.4144  -18.1103   21.4611 N   0  0  0  0  0  0  0  0  0  0  0  0
    3.2778  -19.0402   22.0896 C   0  0  0  0  0  0  0  0  0  0  0  0
    2.8093  -20.1262   22.6312 N   0  0  0  0  0  0  0  0  0  0  0  0
    4.6920  -18.8340   22.1565 N   0  0  0  0  0  0  0  0  0  0  0  0
    5.3413  -17.8424   21.2838 C   0  0  0  0  0  0  0  0  0  0  0  0
    6.2372  -17.0187   22.1376 C   0  0  0  0  0  0  0  0  0  0  0  0
    5.9778  -15.5606   22.1744 C   0  0  0  0  0  0  0  0  0  0  0  0
    7.1346  -14.6741   21.7906 C   0  0  2  0  0  0  0  0  0  0  0  0
    7.6803  -14.9456   20.5126 N   0  0  0  0  0  0  0  0  0  0  0  0
    8.1418  -14.5731   22.8640 C   0  0  0  0  0  0  0  0  0  0  0  0
    9.3544  -14.8258   22.5031 O   0  0  0  0  0  0  0  0  0  0  0  0
    3.4746  -20.8201   23.0374 N   0  0  0  0  0  0  0  0  0  0  0  0
    7.8726  -14.2283   24.2250 C   0  0  0  0  0  0  0  0  0  0  0  0
    6.6395  -13.8971   24.8675 C   0  0  0  0  0  0  0  0  0  0  0  0
    6.9938  -12.9084   25.9456 C   0  0  0  0  0  0  0  0  0  0  0  0
    8.4700  -13.0593   26.1127 C   0  0  2  0  0  0  0  0  0  0  0  0
    8.9076  -14.1644   25.2237 C   0  0  0  0  0  0  0  0  0  0  0  0
    9.1593  -15.4457   25.9150 O   0  0  0  0  0  0  0  0  0  0  0  0
    8.2224  -15.9471   26.5880 N   0  0  0  0  0  0  0  0  0  0  0  0
   14.0302  -20.9115   26.8967 C   0  0  0  0  0  0  0  0  0  0  0  0
   13.0711  -20.0720   26.3040 O   0  0  0  0  0  0  0  0  0  0  0  0
   12.9303  -20.0466   25.0697 C   0  0  0  0  0  0  0  0  0  0  0  0
   12.2024  -19.1948   27.1434 C   0  0  0  0  0  0  0  0  0  0  0  0
   12.0219  -17.8426   26.5110 C   0  0  2  0  0  0  0  0  0  0  0  0
   10.6261  -17.3910   26.6041 N   0  0  0  0  0  0  0  0  0  0  0  0
   10.3814  -16.1467   25.8717 C   0  0  0  0  0  0  0  0  0  0  0  0
   10.1158  -17.3159   27.9730 O   0  0  0  0  0  0  0  0  0  0  0  0
    9.6479  -18.4637   28.5899 O   0  0  0  0  0  0  0  0  0  0  0  0
  2  1  1  0
  3  2  2  0
  4  2  1  0
  5  4  1  0
  6  5  1  0
  7  6  1  0
  8  9  1  6
  8  7  1  0
 10  8  1  0
 11 10  2  0
 12 10  1  0
 12 16  1  0
 13 14  1  0
 13 12  1  0
 14 15  1  0
 15 16  1  0
 16 17  1  1
 17 18  2  0
 20 21  2  0
 20 19  1  0
 22 20  1  0
 23 22  1  0
 24 23  1  6
 24 26  1  0
 25 17  1  0
 25 24  1  0
 26 28  2  0
 26 27  1  0
M  END
$$$$
