RPQ.pdb
     RDKit          3D

 28 28  0  0  1  0  0  0  0  0999 V2000
    8.3957  -15.5775   17.5019 N   0  0  0  0  0  0  0  0  0  0  0  0
    8.0406  -14.2837   17.0492 C   0  0  0  0  0  0  0  0  0  0  0  0
    7.7509  -14.0698   15.7991 N   0  0  0  0  0  0  0  0  0  0  0  0
    7.9814  -13.1618   17.9350 N   0  0  0  0  0  0  0  0  0  0  0  0
    7.0471  -13.1607   19.0725 C   0  0  0  0  0  0  0  0  0  0  0  0
    7.0342  -14.5357   19.6375 C   0  0  0  0  0  0  0  0  0  0  0  0
    7.3017  -14.6694   21.0885 C   0  0  0  0  0  0  0  0  0  0  0  0
    8.5513  -13.9959   21.5946 C   0  0  2  0  0  0  0  0  0  0  0  0
    9.6833  -14.1612   20.7602 N   0  0  0  0  0  0  0  0  0  0  0  0
    8.8070  -14.2888   23.0179 C   0  0  0  0  0  0  0  0  0  0  0  0
    9.9499  -14.8322   23.2687 O   0  0  0  0  0  0  0  0  0  0  0  0
    7.6449  -13.0877   15.4623 N   0  0  0  0  0  0  0  0  0  0  0  0
    7.9060  -14.0215   24.0951 C   0  0  0  0  0  0  0  0  0  0  0  0
    6.5179  -13.6807   24.0755 C   0  0  0  0  0  0  0  0  0  0  0  0
    6.3023  -12.7796   25.2615 C   0  0  0  0  0  0  0  0  0  0  0  0
    7.5054  -13.0031   26.1173 C   0  0  1  0  0  0  0  0  0  0  0  0
    8.3175  -14.0660   25.4739 C   0  0  0  0  0  0  0  0  0  0  0  0
    8.1909  -15.3988   26.0990 O   0  0  0  0  0  0  0  0  0  0  0  0
    7.4133  -16.2300   25.5639 N   0  0  0  0  0  0  0  0  0  0  0  0
   10.3176  -13.7612   28.8670 C   0  0  0  0  0  0  0  0  0  0  0  0
   10.3454  -14.7577   29.8580 O   0  0  0  0  0  0  0  0  0  0  0  0
   10.0500  -14.4872   31.0342 C   0  0  0  0  0  0  0  0  0  0  0  0
   10.7293  -16.1599   29.5190 C   0  0  0  0  0  0  0  0  0  0  0  0
   11.1378  -16.2787   28.0768 C   0  0  1  0  0  0  0  0  0  0  0  0
   10.0173  -16.7307   27.2394 N   0  0  0  0  0  0  0  0  0  0  0  0
    8.8841  -15.8036   27.2577 C   0  0  0  0  0  0  0  0  0  0  0  0
    9.5904  -18.1038   27.5085 O   0  0  0  0  0  0  0  0  0  0  0  0
    8.2516  -18.3677   27.7428 O   0  0  0  0  0  0  0  0  0  0  0  0
  2  1  1  0
  3  2  2  0
  4  2  1  0
  5  4  1  0
  6  5  1  0
  7  6  1  0
  8  9  1  6
  8  7  1  0
 10  8  1  0
 11 10  2  0
 12 10  1  0
 12 16  1  0
 13 14  1  0
 13 12  1  0
 14 15  1  0
 15 16  1  0
 16 17  1  1
 17 18  2  0
 20 21  2  0
 20 19  1  0
 22 20  1  0
 23 22  1  0
 24 23  1  6
 24 26  1  0
 25 17  1  0
 25 24  1  0
 26 28  2  0
 26 27  1  0
M  END
$$$$
