RPQ.pdb
     RDKit          3D

 28 28  0  0  1  0  0  0  0  0999 V2000
    6.9784  -19.6170   26.6438 N   0  0  0  0  0  0  0  0  0  0  0  0
    6.8732  -20.1336   25.3295 C   0  0  0  0  0  0  0  0  0  0  0  0
    6.1115  -21.1565   25.0730 N   0  0  0  0  0  0  0  0  0  0  0  0
    7.5896  -19.5606   24.2317 N   0  0  0  0  0  0  0  0  0  0  0  0
    7.1450  -18.2904   23.6353 C   0  0  0  0  0  0  0  0  0  0  0  0
    6.0061  -18.5992   22.7311 C   0  0  0  0  0  0  0  0  0  0  0  0
    5.5526  -17.5171   21.8266 C   0  0  0  0  0  0  0  0  0  0  0  0
    6.1258  -17.5375   20.4329 C   0  0  2  0  0  0  0  0  0  0  0  0
    6.1695  -18.8215   19.8375 N   0  0  0  0  0  0  0  0  0  0  0  0
    7.3938  -16.7890   20.3388 C   0  0  0  0  0  0  0  0  0  0  0  0
    8.4249  -17.4958   20.0198 O   0  0  0  0  0  0  0  0  0  0  0  0
    6.0622  -21.5220   24.0967 N   0  0  0  0  0  0  0  0  0  0  0  0
    7.5490  -15.3868   20.5702 C   0  0  0  0  0  0  0  0  0  0  0  0
    6.5728  -14.3862   20.8684 C   0  0  0  0  0  0  0  0  0  0  0  0
    7.0839  -13.1176   20.2401 C   0  0  0  0  0  0  0  0  0  0  0  0
    8.5281  -13.3925   19.9782 C   0  0  1  0  0  0  0  0  0  0  0  0
    8.8325  -14.7360   20.5307 C   0  0  0  0  0  0  0  0  0  0  0  0
    9.5417  -14.7208   21.8268 O   0  0  0  0  0  0  0  0  0  0  0  0
    8.8897  -14.3966   22.8524 N   0  0  0  0  0  0  0  0  0  0  0  0
    9.4168  -18.9704   24.7725 C   0  0  0  0  0  0  0  0  0  0  0  0
   10.5719  -18.5323   25.4431 O   0  0  0  0  0  0  0  0  0  0  0  0
   10.9698  -19.1178   26.4642 C   0  0  0  0  0  0  0  0  0  0  0  0
   11.3441  -17.3565   24.9434 C   0  0  0  0  0  0  0  0  0  0  0  0
   10.6981  -16.7599   23.7236 C   0  0  1  0  0  0  0  0  0  0  0  0
   11.4566  -15.6017   23.2294 N   0  0  0  0  0  0  0  0  0  0  0  0
   10.9032  -15.0457   21.9929 C   0  0  0  0  0  0  0  0  0  0  0  0
   12.8954  -15.8394   23.1128 O   0  0  0  0  0  0  0  0  0  0  0  0
   13.6345  -16.1181   24.2499 O   0  0  0  0  0  0  0  0  0  0  0  0
  2  1  1  0
  3  2  2  0
  4  2  1  0
  5  4  1  0
  6  5  1  0
  7  6  1  0
  8  9  1  1
  8  7  1  0
 10  8  1  0
 11 10  2  0
 12 10  1  0
 12 16  1  0
 13 14  1  0
 13 12  1  0
 14 15  1  0
 15 16  1  0
 16 17  1  1
 17 18  2  0
 20 21  2  0
 20 19  1  0
 22 20  1  0
 23 22  1  0
 24 23  1  1
 24 26  1  0
 25 17  1  0
 25 24  1  0
 26 28  2  0
 26 27  1  0
M  END
$$$$
