RPQ.pdb
     RDKit          3D

 28 28  0  0  1  0  0  0  0  0999 V2000
    6.9010  -12.4343   17.6831 N   0  0  0  0  0  0  0  0  0  0  0  0
    6.7989  -13.8365   17.5139 C   0  0  0  0  0  0  0  0  0  0  0  0
    5.7872  -14.3616   16.8869 N   0  0  0  0  0  0  0  0  0  0  0  0
    7.7935  -14.7337   18.0165 N   0  0  0  0  0  0  0  0  0  0  0  0
    8.1897  -14.6869   19.4334 C   0  0  0  0  0  0  0  0  0  0  0  0
    6.9575  -14.4517   20.2312 C   0  0  0  0  0  0  0  0  0  0  0  0
    7.0973  -14.4697   21.7059 C   0  0  0  0  0  0  0  0  0  0  0  0
    8.1425  -13.5492   22.2816 C   0  0  2  0  0  0  0  0  0  0  0  0
    9.2367  -13.2953   21.4195 N   0  0  0  0  0  0  0  0  0  0  0  0
    8.5342  -13.9349   23.6508 C   0  0  0  0  0  0  0  0  0  0  0  0
    9.7095  -14.4562   23.7581 O   0  0  0  0  0  0  0  0  0  0  0  0
    5.7245  -15.3999   16.8022 N   0  0  0  0  0  0  0  0  0  0  0  0
    7.7279  -13.7764   24.8205 C   0  0  0  0  0  0  0  0  0  0  0  0
    6.3359  -13.4783   24.9495 C   0  0  0  0  0  0  0  0  0  0  0  0
    6.2063  -12.6747   26.2155 C   0  0  0  0  0  0  0  0  0  0  0  0
    7.4868  -12.9237   26.9422 C   0  0  1  0  0  0  0  0  0  0  0  0
    8.2631  -13.9102   26.1503 C   0  0  0  0  0  0  0  0  0  0  0  0
    8.2258  -15.2889   26.6801 O   0  0  0  0  0  0  0  0  0  0  0  0
    7.1196  -15.8875   26.6900 N   0  0  0  0  0  0  0  0  0  0  0  0
   11.4011  -19.7965   24.7960 C   0  0  0  0  0  0  0  0  0  0  0  0
   12.1227  -18.8080   25.4875 O   0  0  0  0  0  0  0  0  0  0  0  0
   13.3286  -18.6246   25.2509 C   0  0  0  0  0  0  0  0  0  0  0  0
   11.4566  -17.9586   26.5187 C   0  0  0  0  0  0  0  0  0  0  0  0
    9.9896  -18.2733   26.6180 C   0  0  1  0  0  0  0  0  0  0  0  0
    9.3170  -17.3887   27.5803 N   0  0  0  0  0  0  0  0  0  0  0  0
    9.3485  -15.9814   27.1768 C   0  0  0  0  0  0  0  0  0  0  0  0
    9.7684  -17.5601   28.9612 O   0  0  0  0  0  0  0  0  0  0  0  0
    9.6921  -18.8094   29.5531 O   0  0  0  0  0  0  0  0  0  0  0  0
  2  1  1  0
  3  2  2  0
  4  2  1  0
  5  4  1  0
  6  5  1  0
  7  6  1  0
  8  9  1  6
  8  7  1  0
 10  8  1  0
 11 10  2  0
 12 10  1  0
 12 16  1  0
 13 14  1  0
 13 12  1  0
 14 15  1  0
 15 16  1  0
 16 17  1  1
 17 18  2  0
 20 21  2  0
 20 19  1  0
 22 20  1  0
 23 22  1  0
 24 23  1  6
 24 26  1  0
 25 17  1  0
 25 24  1  0
 26 28  2  0
 26 27  1  0
M  END
$$$$
