RPQ.pdb
     RDKit          3D

 28 28  0  0  1  0  0  0  0  0999 V2000
    8.2173  -15.3851   14.3241 N   0  0  0  0  0  0  0  0  0  0  0  0
    8.5827  -15.6053   15.6743 C   0  0  0  0  0  0  0  0  0  0  0  0
    9.6941  -16.2109   15.9751 N   0  0  0  0  0  0  0  0  0  0  0  0
    7.7579  -15.1752   16.7613 N   0  0  0  0  0  0  0  0  0  0  0  0
    8.2692  -15.2079   18.1412 C   0  0  0  0  0  0  0  0  0  0  0  0
    7.2095  -14.6477   19.0206 C   0  0  0  0  0  0  0  0  0  0  0  0
    7.4633  -14.6728   20.4799 C   0  0  0  0  0  0  0  0  0  0  0  0
    7.7337  -13.3385   21.1263 C   0  0  2  0  0  0  0  0  0  0  0  0
    8.3687  -12.3971   20.2805 N   0  0  0  0  0  0  0  0  0  0  0  0
    8.3670  -13.4774   22.4517 C   0  0  0  0  0  0  0  0  0  0  0  0
    9.6550  -13.5510   22.4384 O   0  0  0  0  0  0  0  0  0  0  0  0
    9.9465  -16.3417   16.9793 N   0  0  0  0  0  0  0  0  0  0  0  0
    7.6741  -13.5348   23.7007 C   0  0  0  0  0  0  0  0  0  0  0  0
    6.2730  -13.5054   23.9821 C   0  0  0  0  0  0  0  0  0  0  0  0
    6.1381  -12.8106   25.3103 C   0  0  0  0  0  0  0  0  0  0  0  0
    7.5122  -12.8597   25.8927 C   0  0  1  0  0  0  0  0  0  0  0  0
    8.3627  -13.6413   24.9605 C   0  0  0  0  0  0  0  0  0  0  0  0
    8.6269  -15.0305   25.3885 O   0  0  0  0  0  0  0  0  0  0  0  0
    7.7707  -15.9078   25.1065 N   0  0  0  0  0  0  0  0  0  0  0  0
   11.8370  -20.4331   24.1789 C   0  0  0  0  0  0  0  0  0  0  0  0
   12.0878  -19.0554   24.3011 O   0  0  0  0  0  0  0  0  0  0  0  0
   12.3189  -18.3637   23.2951 C   0  0  0  0  0  0  0  0  0  0  0  0
   12.0815  -18.3949   25.6399 C   0  0  0  0  0  0  0  0  0  0  0  0
   11.5996  -16.9739   25.5433 C   0  0  1  0  0  0  0  0  0  0  0  0
   10.2563  -16.8244   26.1215 N   0  0  0  0  0  0  0  0  0  0  0  0
    9.7763  -15.4413   26.0935 C   0  0  0  0  0  0  0  0  0  0  0  0
   10.1133  -17.4141   27.4526 O   0  0  0  0  0  0  0  0  0  0  0  0
   10.3305  -18.7707   27.6239 O   0  0  0  0  0  0  0  0  0  0  0  0
  2  1  1  0
  3  2  2  0
  4  2  1  0
  5  4  1  0
  6  5  1  0
  7  6  1  0
  8  9  1  6
  8  7  1  0
 10  8  1  0
 11 10  2  0
 12 10  1  0
 12 16  1  0
 13 14  1  0
 13 12  1  0
 14 15  1  0
 15 16  1  0
 16 17  1  1
 17 18  2  0
 20 21  2  0
 20 19  1  0
 22 20  1  0
 23 22  1  0
 24 23  1  6
 24 26  1  0
 25 17  1  0
 25 24  1  0
 26 28  2  0
 26 27  1  0
M  END
$$$$
