RPQ.pdb
     RDKit          3D

 28 28  0  0  1  0  0  0  0  0999 V2000
    6.4349  -14.3419   17.0800 N   0  0  0  0  0  0  0  0  0  0  0  0
    7.7316  -13.8302   17.3288 C   0  0  0  0  0  0  0  0  0  0  0  0
    8.2284  -12.8819   16.5897 N   0  0  0  0  0  0  0  0  0  0  0  0
    8.5482  -14.3240   18.3947 N   0  0  0  0  0  0  0  0  0  0  0  0
    8.0218  -15.3319   19.3295 C   0  0  0  0  0  0  0  0  0  0  0  0
    7.1953  -14.6149   20.3358 C   0  0  0  0  0  0  0  0  0  0  0  0
    7.5262  -14.8404   21.7621 C   0  0  0  0  0  0  0  0  0  0  0  0
    8.7728  -14.1601   22.2666 C   0  0  2  0  0  0  0  0  0  0  0  0
    9.9306  -14.4117   21.4913 N   0  0  0  0  0  0  0  0  0  0  0  0
    8.9676  -14.3535   23.7163 C   0  0  0  0  0  0  0  0  0  0  0  0
   10.0327  -15.0037   24.0440 O   0  0  0  0  0  0  0  0  0  0  0  0
    9.2258  -12.6040   16.7214 N   0  0  0  0  0  0  0  0  0  0  0  0
    8.0874  -13.8870   24.7415 C   0  0  0  0  0  0  0  0  0  0  0  0
    6.7849  -13.3059   24.6469 C   0  0  0  0  0  0  0  0  0  0  0  0
    6.6878  -12.3336   25.7917 C   0  0  0  0  0  0  0  0  0  0  0  0
    7.7966  -12.7328   26.7087 C   0  0  1  0  0  0  0  0  0  0  0  0
    8.4296  -13.9482   26.1386 C   0  0  0  0  0  0  0  0  0  0  0  0
    8.0414  -15.2109   26.8004 O   0  0  0  0  0  0  0  0  0  0  0  0
    6.9446  -15.7342   26.4760 N   0  0  0  0  0  0  0  0  0  0  0  0
   10.5735  -19.1208   24.2797 C   0  0  0  0  0  0  0  0  0  0  0  0
   11.4748  -18.4261   25.1048 O   0  0  0  0  0  0  0  0  0  0  0  0
   12.6846  -18.3846   24.8245 C   0  0  0  0  0  0  0  0  0  0  0  0
   10.9986  -17.7242   26.3333 C   0  0  0  0  0  0  0  0  0  0  0  0
    9.5046  -17.8232   26.4719 C   0  0  1  0  0  0  0  0  0  0  0  0
    9.0539  -17.3164   27.7761 N   0  0  0  0  0  0  0  0  0  0  0  0
    8.8185  -15.8711   27.7736 C   0  0  0  0  0  0  0  0  0  0  0  0
    9.9047  -17.7185   28.8962 O   0  0  0  0  0  0  0  0  0  0  0  0
   10.5252  -16.7475   29.6636 O   0  0  0  0  0  0  0  0  0  0  0  0
  2  1  1  0
  3  2  2  0
  4  2  1  0
  5  4  1  0
  6  5  1  0
  7  6  1  0
  8  9  1  6
  8  7  1  0
 10  8  1  0
 11 10  2  0
 12 10  1  0
 12 16  1  0
 13 14  1  0
 13 12  1  0
 14 15  1  0
 15 16  1  0
 16 17  1  6
 17 18  2  0
 20 21  2  0
 20 19  1  0
 22 20  1  0
 23 22  1  0
 24 23  1  6
 24 26  1  0
 25 17  1  0
 25 24  1  0
 26 28  2  0
 26 27  1  0
M  END
$$$$
