RPQ.pdb
     RDKit          3D

 28 28  0  0  1  0  0  0  0  0999 V2000
    3.4682  -20.2713   20.3157 N   0  0  0  0  0  0  0  0  0  0  0  0
    3.1228  -19.0156   20.8716 C   0  0  0  0  0  0  0  0  0  0  0  0
    1.9965  -18.8510   21.5014 N   0  0  0  0  0  0  0  0  0  0  0  0
    3.9873  -17.8800   20.7708 N   0  0  0  0  0  0  0  0  0  0  0  0
    5.3285  -17.9101   21.3766 C   0  0  0  0  0  0  0  0  0  0  0  0
    5.4780  -16.6719   22.1856 C   0  0  0  0  0  0  0  0  0  0  0  0
    6.8141  -16.4057   22.7676 C   0  0  0  0  0  0  0  0  0  0  0  0
    7.3908  -15.0393   22.5002 C   0  0  2  0  0  0  0  0  0  0  0  0
    8.0123  -14.9044   21.2350 N   0  0  0  0  0  0  0  0  0  0  0  0
    8.2080  -14.5472   23.6257 C   0  0  0  0  0  0  0  0  0  0  0  0
    9.4832  -14.5815   23.4331 O   0  0  0  0  0  0  0  0  0  0  0  0
    1.7479  -17.9029   21.8600 N   0  0  0  0  0  0  0  0  0  0  0  0
    7.6994  -14.0553   24.8679 C   0  0  0  0  0  0  0  0  0  0  0  0
    6.3531  -13.8210   25.2870 C   0  0  0  0  0  0  0  0  0  0  0  0
    6.4168  -12.6475   26.2272 C   0  0  0  0  0  0  0  0  0  0  0  0
    7.8592  -12.5542   26.6021 C   0  0  2  0  0  0  0  0  0  0  0  0
    8.5591  -13.6981   25.9661 C   0  0  0  0  0  0  0  0  0  0  0  0
    8.8653  -14.8167   26.8816 O   0  0  0  0  0  0  0  0  0  0  0  0
    7.9097  -15.5299   27.2821 N   0  0  0  0  0  0  0  0  0  0  0  0
   12.1178  -17.9169   23.9598 C   0  0  0  0  0  0  0  0  0  0  0  0
   12.2278  -17.5032   25.2987 O   0  0  0  0  0  0  0  0  0  0  0  0
   13.2972  -17.0414   25.7312 C   0  0  0  0  0  0  0  0  0  0  0  0
   11.0641  -17.6092   26.2277 C   0  0  0  0  0  0  0  0  0  0  0  0
   11.4437  -17.2001   27.6240 C   0  0  2  0  0  0  0  0  0  0  0  0
   10.4482  -16.2862   28.2026 N   0  0  0  0  0  0  0  0  0  0  0  0
   10.1590  -15.1401   27.3383 C   0  0  0  0  0  0  0  0  0  0  0  0
   10.7535  -15.8628   29.5692 O   0  0  0  0  0  0  0  0  0  0  0  0
   11.0386  -16.8173   30.5308 O   0  0  0  0  0  0  0  0  0  0  0  0
  2  1  1  0
  3  2  2  0
  4  2  1  0
  5  4  1  0
  6  5  1  0
  7  6  1  0
  8  9  1  6
  8  7  1  0
 10  8  1  0
 11 10  2  0
 12 10  1  0
 12 16  1  0
 13 14  1  0
 13 12  1  0
 14 15  1  0
 15 16  1  0
 16 17  1  1
 17 18  2  0
 20 21  2  0
 20 19  1  0
 22 20  1  0
 23 22  1  0
 24 23  1  6
 24 26  1  0
 25 17  1  0
 25 24  1  0
 26 28  2  0
 26 27  1  0
M  END
$$$$
