RPQ.pdb
     RDKit          3D

 28 28  0  0  1  0  0  0  0  0999 V2000
    7.4223  -19.4437   23.3318 N   0  0  0  0  0  0  0  0  0  0  0  0
    6.1649  -20.0696   23.1517 C   0  0  0  0  0  0  0  0  0  0  0  0
    5.9871  -21.3167   23.4764 N   0  0  0  0  0  0  0  0  0  0  0  0
    5.0408  -19.3680   22.6123 N   0  0  0  0  0  0  0  0  0  0  0  0
    5.1967  -17.9982   22.0962 C   0  0  0  0  0  0  0  0  0  0  0  0
    5.0707  -18.0645   20.6164 C   0  0  0  0  0  0  0  0  0  0  0  0
    5.3400  -16.8184   19.8619 C   0  0  0  0  0  0  0  0  0  0  0  0
    6.4522  -16.8879   18.8473 C   0  0  2  0  0  0  0  0  0  0  0  0
    6.5533  -18.1298   18.1747 N   0  0  0  0  0  0  0  0  0  0  0  0
    7.7328  -16.3916   19.3866 C   0  0  0  0  0  0  0  0  0  0  0  0
    8.7432  -17.1733   19.2057 O   0  0  0  0  0  0  0  0  0  0  0  0
    5.0299  -21.7276   23.4121 N   0  0  0  0  0  0  0  0  0  0  0  0
    7.9200  -15.1505   20.0709 C   0  0  0  0  0  0  0  0  0  0  0  0
    6.9601  -14.2052   20.5486 C   0  0  0  0  0  0  0  0  0  0  0  0
    7.6193  -12.8576   20.4271 C   0  0  0  0  0  0  0  0  0  0  0  0
    9.0713  -13.1706   20.2734 C   0  0  2  0  0  0  0  0  0  0  0  0
    9.2253  -14.6413   20.4016 C   0  0  0  0  0  0  0  0  0  0  0  0
    9.7353  -15.0934   21.7124 O   0  0  0  0  0  0  0  0  0  0  0  0
    8.9354  -15.1100   22.6830 N   0  0  0  0  0  0  0  0  0  0  0  0
   12.7830  -20.1067   22.8951 C   0  0  0  0  0  0  0  0  0  0  0  0
   11.4757  -19.7884   22.4883 O   0  0  0  0  0  0  0  0  0  0  0  0
   10.7354  -20.6602   22.0027 C   0  0  0  0  0  0  0  0  0  0  0  0
   10.9496  -18.3987   22.6310 C   0  0  0  0  0  0  0  0  0  0  0  0
   12.0293  -17.4511   23.0754 C   0  0  2  0  0  0  0  0  0  0  0  0
   11.5131  -16.0823   23.2197 N   0  0  0  0  0  0  0  0  0  0  0  0
   11.0611  -15.5087   21.9504 C   0  0  0  0  0  0  0  0  0  0  0  0
   12.4203  -15.1762   23.9240 O   0  0  0  0  0  0  0  0  0  0  0  0
   13.1900  -14.2827   23.1986 O   0  0  0  0  0  0  0  0  0  0  0  0
  2  1  1  0
  3  2  2  0
  4  2  1  0
  5  4  1  0
  6  5  1  0
  7  6  1  0
  8  9  1  1
  8  7  1  0
 10  8  1  0
 11 10  2  0
 12 10  1  0
 12 16  1  0
 13 14  1  0
 13 12  1  0
 14 15  1  0
 15 16  1  0
 16 17  1  1
 17 18  2  0
 20 21  2  0
 20 19  1  0
 22 20  1  0
 23 22  1  0
 24 23  1  1
 24 26  1  0
 25 17  1  0
 25 24  1  0
 26 28  2  0
 26 27  1  0
M  END
$$$$
