RPQ.pdb
     RDKit          3D

 28 28  0  0  1  0  0  0  0  0999 V2000
    8.1307  -13.9001   15.2172 N   0  0  0  0  0  0  0  0  0  0  0  0
    8.8019  -14.9736   15.8516 C   0  0  0  0  0  0  0  0  0  0  0  0
    9.9237  -15.4324   15.3790 N   0  0  0  0  0  0  0  0  0  0  0  0
    8.2859  -15.5972   17.0313 N   0  0  0  0  0  0  0  0  0  0  0  0
    7.2629  -14.9194   17.8442 C   0  0  0  0  0  0  0  0  0  0  0  0
    7.8159  -14.7660   19.2156 C   0  0  0  0  0  0  0  0  0  0  0  0
    6.9346  -14.1431   20.2305 C   0  0  0  0  0  0  0  0  0  0  0  0
    7.5139  -12.9691   20.9771 C   0  0  2  0  0  0  0  0  0  0  0  0
    8.2969  -12.0986   20.1808 N   0  0  0  0  0  0  0  0  0  0  0  0
    8.1622  -13.3738   22.2392 C   0  0  0  0  0  0  0  0  0  0  0  0
    9.4403  -13.5359   22.1712 O   0  0  0  0  0  0  0  0  0  0  0  0
   10.3298  -16.3027   15.7876 N   0  0  0  0  0  0  0  0  0  0  0  0
    7.4929  -13.5909   23.4836 C   0  0  0  0  0  0  0  0  0  0  0  0
    6.0993  -13.5625   23.8003 C   0  0  0  0  0  0  0  0  0  0  0  0
    6.0131  -13.0628   25.2174 C   0  0  0  0  0  0  0  0  0  0  0  0
    7.3963  -13.2344   25.7531 C   0  0  1  0  0  0  0  0  0  0  0  0
    8.2028  -13.8974   24.6980 C   0  0  0  0  0  0  0  0  0  0  0  0
    8.4315  -15.3407   24.9157 O   0  0  0  0  0  0  0  0  0  0  0  0
    7.4510  -16.1188   24.7913 N   0  0  0  0  0  0  0  0  0  0  0  0
   11.7491  -14.3807   29.1991 C   0  0  0  0  0  0  0  0  0  0  0  0
   11.2014  -15.5774   29.6928 O   0  0  0  0  0  0  0  0  0  0  0  0
   11.6596  -16.1054   30.7200 C   0  0  0  0  0  0  0  0  0  0  0  0
   10.0592  -16.2383   28.9949 C   0  0  0  0  0  0  0  0  0  0  0  0
    9.7724  -15.5778   27.6748 C   0  0  1  0  0  0  0  0  0  0  0  0
    9.9623  -16.5130   26.5567 N   0  0  0  0  0  0  0  0  0  0  0  0
    9.6770  -15.9071   25.2544 C   0  0  0  0  0  0  0  0  0  0  0  0
    9.2600  -17.7858   26.7206 O   0  0  0  0  0  0  0  0  0  0  0  0
    9.9453  -18.8840   27.2115 O   0  0  0  0  0  0  0  0  0  0  0  0
  2  1  1  0
  3  2  2  0
  4  2  1  0
  5  4  1  0
  6  5  1  0
  7  6  1  0
  8  9  1  6
  8  7  1  0
 10  8  1  0
 11 10  2  0
 12 10  1  0
 12 16  1  0
 13 14  1  0
 13 12  1  0
 14 15  1  0
 15 16  1  0
 16 17  1  1
 17 18  2  0
 20 21  2  0
 20 19  1  0
 22 20  1  0
 23 22  1  0
 24 23  1  6
 24 26  1  0
 25 17  1  0
 25 24  1  0
 26 28  2  0
 26 27  1  0
M  END
$$$$
