INQ.pdb
     RDKit          3D

 26 25  0  0  1  0  0  0  0  0999 V2000
    6.7991  -11.2544   27.1515 C   0  0  0  0  0  0  0  0  0  0  0  0
    6.4961  -12.6931   26.9118 C   0  0  0  0  0  0  0  0  0  0  0  0
    6.6687  -13.1184   25.4686 C   0  0  2  0  0  0  0  0  0  0  0  0
    5.9461  -12.1386   24.6084 C   0  0  0  0  0  0  0  0  0  0  0  0
    6.2954  -14.5569   25.2569 C   0  0  2  0  0  0  0  0  0  0  0  0
    6.9751  -15.2882   26.3453 N   0  0  0  0  0  0  0  0  0  0  0  0
    6.8561  -15.0683   23.9915 C   0  0  0  0  0  0  0  0  0  0  0  0
    6.2881  -15.9348   23.2776 O   0  0  0  0  0  0  0  0  0  0  0  0
    8.2455  -12.0862   20.4055 N   0  0  0  0  0  0  0  0  0  0  0  0
    8.3322  -13.4898   20.5314 C   0  0  0  0  0  0  0  0  0  0  0  0
    7.5549  -14.2098   19.8718 O   0  0  0  0  0  0  0  0  0  0  0  0
    9.3182  -14.1040   21.4219 C   0  0  0  0  0  0  0  0  0  0  0  0
    8.6753  -15.2013   22.2353 C   0  0  2  0  0  0  0  0  0  0  0  0
    8.1138  -14.6038   23.4760 N   0  0  0  0  0  0  0  0  0  0  0  0
    9.7185  -16.1316   22.6828 C   0  0  0  0  0  0  0  0  0  0  0  0
   10.5515  -16.5663   21.8103 O   0  0  0  0  0  0  0  0  0  0  0  0
   12.9836  -19.9826   28.1908 N   0  0  0  0  0  0  0  0  0  0  0  0
   12.1835  -18.9566   27.6498 C   0  0  0  0  0  0  0  0  0  0  0  0
   11.4964  -18.2401   28.3965 O   0  0  0  0  0  0  0  0  0  0  0  0
   12.1651  -18.7344   26.1765 C   0  0  0  0  0  0  0  0  0  0  0  0
   11.0908  -17.7701   25.7773 C   0  0  0  0  0  0  0  0  0  0  0  0
   10.9859  -17.5908   24.2815 C   0  0  2  0  0  0  0  0  0  0  0  0
    9.9297  -16.6155   23.9871 N   0  0  0  0  0  0  0  0  0  0  0  0
   10.7144  -18.8705   23.6213 C   0  0  0  0  0  0  0  0  0  0  0  0
    9.4966  -19.2205   23.4526 O   0  0  0  0  0  0  0  0  0  0  0  0
   11.6732  -19.7451   23.1541 O   0  0  0  0  0  0  0  0  0  0  0  0
  2  1  1  0
  3  5  1  0
  3  2  1  0
  3  4  1  6
  5  6  1  1
  7  5  1  0
  7  8  2  0
  9 10  1  0
 10 12  1  0
 10 11  2  0
 13 12  1  6
 13 14  1  0
 14  7  1  0
 15 23  1  0
 15 13  1  0
 16 15  2  0
 18 17  1  0
 18 19  2  0
 20 21  1  0
 20 18  1  0
 22 21  1  1
 22 23  1  0
 22 24  1  0
 24 25  2  0
 24 26  1  0
M  END
$$$$
