INQ.pdb
     RDKit          3D

 26 25  0  0  1  0  0  0  0  0999 V2000
    6.5569  -11.2424   27.0684 C   0  0  0  0  0  0  0  0  0  0  0  0
    6.2410  -12.6759   26.8144 C   0  0  0  0  0  0  0  0  0  0  0  0
    6.6664  -13.1585   25.4434 C   0  0  2  0  0  0  0  0  0  0  0  0
    6.1091  -12.2189   24.4292 C   0  0  0  0  0  0  0  0  0  0  0  0
    6.3347  -14.6067   25.2281 C   0  0  2  0  0  0  0  0  0  0  0  0
    6.8903  -15.3013   26.4072 N   0  0  0  0  0  0  0  0  0  0  0  0
    7.0440  -15.1425   24.0505 C   0  0  0  0  0  0  0  0  0  0  0  0
    6.5804  -16.0483   23.3104 O   0  0  0  0  0  0  0  0  0  0  0  0
    8.0815  -12.6607   20.1830 N   0  0  0  0  0  0  0  0  0  0  0  0
    8.3751  -13.9752   20.6064 C   0  0  0  0  0  0  0  0  0  0  0  0
    7.6901  -14.9230   20.1701 O   0  0  0  0  0  0  0  0  0  0  0  0
    9.4673  -14.2349   21.5454 C   0  0  0  0  0  0  0  0  0  0  0  0
    9.0644  -15.3036   22.5326 C   0  0  2  0  0  0  0  0  0  0  0  0
    8.3384  -14.6582   23.6587 N   0  0  0  0  0  0  0  0  0  0  0  0
   10.2763  -15.8819   23.1247 C   0  0  0  0  0  0  0  0  0  0  0  0
   11.2543  -16.1592   22.3432 O   0  0  0  0  0  0  0  0  0  0  0  0
   10.9860  -14.2276   28.0371 N   0  0  0  0  0  0  0  0  0  0  0  0
   11.0294  -15.5870   28.4053 C   0  0  0  0  0  0  0  0  0  0  0  0
   10.6280  -15.9445   29.5251 O   0  0  0  0  0  0  0  0  0  0  0  0
   11.5597  -16.5950   27.4445 C   0  0  0  0  0  0  0  0  0  0  0  0
   12.1655  -15.9434   26.2396 C   0  0  0  0  0  0  0  0  0  0  0  0
   11.8163  -16.6481   24.9503 C   0  0  2  0  0  0  0  0  0  0  0  0
   10.5094  -16.1729   24.4816 N   0  0  0  0  0  0  0  0  0  0  0  0
   11.8078  -18.1014   25.1369 C   0  0  0  0  0  0  0  0  0  0  0  0
   10.6901  -18.7170   25.0610 O   0  0  0  0  0  0  0  0  0  0  0  0
   12.9191  -18.8789   25.3883 O   0  0  0  0  0  0  0  0  0  0  0  0
  2  1  1  0
  3  5  1  0
  3  2  1  0
  3  4  1  6
  5  6  1  1
  7  5  1  0
  7  8  2  0
  9 10  1  0
 10 12  1  0
 10 11  2  0
 13 12  1  6
 13 14  1  0
 14  7  1  0
 15 23  1  0
 15 13  1  0
 16 15  2  0
 18 17  1  0
 18 19  2  0
 20 21  1  0
 20 18  1  0
 22 21  1  1
 22 23  1  0
 22 24  1  0
 24 25  2  0
 24 26  1  0
M  END
$$$$
