INQ.pdb
     RDKit          3D

 26 25  0  0  1  0  0  0  0  0999 V2000
    7.7458  -12.6920   19.2949 C   0  0  0  0  0  0  0  0  0  0  0  0
    7.8697  -12.9571   20.7556 C   0  0  0  0  0  0  0  0  0  0  0  0
    7.8091  -14.4273   21.1139 C   0  0  2  0  0  0  0  0  0  0  0  0
    6.5656  -14.9966   20.5210 C   0  0  0  0  0  0  0  0  0  0  0  0
    7.9808  -14.6552   22.5877 C   0  0  2  0  0  0  0  0  0  0  0  0
    8.8950  -13.5837   23.0322 N   0  0  0  0  0  0  0  0  0  0  0  0
    8.6711  -15.9330   22.8485 C   0  0  0  0  0  0  0  0  0  0  0  0
    8.0740  -17.0316   22.9889 O   0  0  0  0  0  0  0  0  0  0  0  0
   10.8399  -19.0278   20.6485 N   0  0  0  0  0  0  0  0  0  0  0  0
   11.4265  -17.7829   20.9639 C   0  0  0  0  0  0  0  0  0  0  0  0
   11.5282  -16.9143   20.0733 O   0  0  0  0  0  0  0  0  0  0  0  0
   11.9128  -17.5033   22.3157 C   0  0  0  0  0  0  0  0  0  0  0  0
   10.7504  -17.3179   23.2610 C   0  0  2  0  0  0  0  0  0  0  0  0
   10.1008  -16.0139   22.9623 N   0  0  0  0  0  0  0  0  0  0  0  0
   11.2679  -17.1965   24.6290 C   0  0  0  0  0  0  0  0  0  0  0  0
   12.5391  -17.2172   24.7954 O   0  0  0  0  0  0  0  0  0  0  0  0
    9.7695  -13.3823   28.9822 N   0  0  0  0  0  0  0  0  0  0  0  0
    9.0892  -13.8100   27.8247 C   0  0  0  0  0  0  0  0  0  0  0  0
    8.1229  -13.1606   27.3916 O   0  0  0  0  0  0  0  0  0  0  0  0
    9.5345  -15.0460   27.1216 C   0  0  0  0  0  0  0  0  0  0  0  0
   10.7032  -15.6816   27.8098 C   0  0  0  0  0  0  0  0  0  0  0  0
   11.1793  -16.9392   27.1224 C   0  0  2  0  0  0  0  0  0  0  0  0
   10.5237  -17.0496   25.8142 N   0  0  0  0  0  0  0  0  0  0  0  0
   10.9038  -18.1192   27.9464 C   0  0  0  0  0  0  0  0  0  0  0  0
   10.0763  -18.9880   27.5056 O   0  0  0  0  0  0  0  0  0  0  0  0
   11.4709  -18.3824   29.1759 O   0  0  0  0  0  0  0  0  0  0  0  0
  2  1  1  0
  3  5  1  0
  3  2  1  0
  3  4  1  1
  5  6  1  6
  7  5  1  0
  7  8  2  0
  9 10  1  0
 10 12  1  0
 10 11  2  0
 13 12  1  6
 13 14  1  0
 14  7  1  0
 15 23  1  0
 15 13  1  0
 16 15  2  0
 18 17  1  0
 18 19  2  0
 20 21  1  0
 20 18  1  0
 22 21  1  1
 22 23  1  0
 22 24  1  0
 24 25  2  0
 24 26  1  0
M  END
$$$$
