INQ.pdb
     RDKit          3D

 26 25  0  0  1  0  0  0  0  0999 V2000
    7.2718  -12.1453   19.1209 C   0  0  0  0  0  0  0  0  0  0  0  0
    8.1733  -13.3286   19.0419 C   0  0  0  0  0  0  0  0  0  0  0  0
    8.1059  -14.2265   20.2596 C   0  0  2  0  0  0  0  0  0  0  0  0
    8.3739  -13.3916   21.4650 C   0  0  0  0  0  0  0  0  0  0  0  0
    8.9762  -15.4409   20.1127 C   0  0  2  0  0  0  0  0  0  0  0  0
    8.4566  -16.1364   18.9179 N   0  0  0  0  0  0  0  0  0  0  0  0
    8.7936  -16.3633   21.2498 C   0  0  0  0  0  0  0  0  0  0  0  0
    8.2867  -17.5099   21.1423 O   0  0  0  0  0  0  0  0  0  0  0  0
   13.9391  -15.6569   23.0828 N   0  0  0  0  0  0  0  0  0  0  0  0
   12.8842  -16.5245   22.7252 C   0  0  0  0  0  0  0  0  0  0  0  0
   13.0554  -17.7580   22.8076 O   0  0  0  0  0  0  0  0  0  0  0  0
   11.6008  -15.9946   22.2622 C   0  0  0  0  0  0  0  0  0  0  0  0
   10.4794  -16.5063   23.1337 C   0  0  2  0  0  0  0  0  0  0  0  0
    9.1893  -16.0103   22.5847 N   0  0  0  0  0  0  0  0  0  0  0  0
   10.6005  -15.9002   24.4648 C   0  0  0  0  0  0  0  0  0  0  0  0
   11.6921  -16.0833   25.1121 O   0  0  0  0  0  0  0  0  0  0  0  0
    6.4547  -11.6253   26.8244 N   0  0  0  0  0  0  0  0  0  0  0  0
    6.4280  -12.9337   26.3022 C   0  0  0  0  0  0  0  0  0  0  0  0
    5.3506  -13.5430   26.1969 O   0  0  0  0  0  0  0  0  0  0  0  0
    7.6992  -13.5843   25.8764 C   0  0  0  0  0  0  0  0  0  0  0  0
    8.3864  -14.2568   27.0248 C   0  0  0  0  0  0  0  0  0  0  0  0
    9.5985  -15.0523   26.6022 C   0  0  2  0  0  0  0  0  0  0  0  0
    9.6449  -15.1159   25.1369 N   0  0  0  0  0  0  0  0  0  0  0  0
    9.5672  -16.3972   27.1830 C   0  0  0  0  0  0  0  0  0  0  0  0
    8.9351  -17.3148   26.5565 O   0  0  0  0  0  0  0  0  0  0  0  0
   10.1730  -16.7689   28.3652 O   0  0  0  0  0  0  0  0  0  0  0  0
  2  1  1  0
  3  5  1  0
  3  2  1  0
  3  4  1  1
  5  6  1  6
  7  5  1  0
  7  8  2  0
  9 10  1  0
 10 12  1  0
 10 11  2  0
 13 12  1  6
 13 14  1  0
 14  7  1  0
 15 23  1  0
 15 13  1  0
 16 15  2  0
 18 17  1  0
 18 19  2  0
 20 21  1  0
 20 18  1  0
 22 21  1  6
 22 23  1  0
 22 24  1  0
 24 25  2  0
 24 26  1  0
M  END
$$$$
