INQ.pdb
     RDKit          3D

 26 25  0  0  1  0  0  0  0  0999 V2000
    7.5655  -11.8771   19.8553 C   0  0  0  0  0  0  0  0  0  0  0  0
    7.5632  -13.3638   19.7613 C   0  0  0  0  0  0  0  0  0  0  0  0
    7.3398  -14.0566   21.0893 C   0  0  2  0  0  0  0  0  0  0  0  0
    8.3888  -13.5862   22.0382 C   0  0  0  0  0  0  0  0  0  0  0  0
    7.2330  -15.5461   20.9365 C   0  0  2  0  0  0  0  0  0  0  0  0
    6.0402  -15.7551   20.0909 N   0  0  0  0  0  0  0  0  0  0  0  0
    6.9491  -16.1919   22.2325 C   0  0  0  0  0  0  0  0  0  0  0  0
    5.8656  -16.0538   22.8572 O   0  0  0  0  0  0  0  0  0  0  0  0
    7.2899  -18.9954   26.5434 N   0  0  0  0  0  0  0  0  0  0  0  0
    7.2972  -19.7646   25.3595 C   0  0  0  0  0  0  0  0  0  0  0  0
    7.1513  -21.0018   25.4359 O   0  0  0  0  0  0  0  0  0  0  0  0
    7.4731  -19.1292   24.0528 C   0  0  0  0  0  0  0  0  0  0  0  0
    7.5952  -17.6329   24.2118 C   0  0  2  0  0  0  0  0  0  0  0  0
    7.9079  -17.0399   22.8843 N   0  0  0  0  0  0  0  0  0  0  0  0
    8.7579  -17.3404   25.0581 C   0  0  0  0  0  0  0  0  0  0  0  0
    9.9222  -17.4086   24.5253 O   0  0  0  0  0  0  0  0  0  0  0  0
   10.2121  -12.5879   26.9831 N   0  0  0  0  0  0  0  0  0  0  0  0
    9.0804  -13.1635   27.5941 C   0  0  0  0  0  0  0  0  0  0  0  0
    8.0709  -12.4744   27.8153 O   0  0  0  0  0  0  0  0  0  0  0  0
    9.1000  -14.6041   27.9745 C   0  0  0  0  0  0  0  0  0  0  0  0
   10.2601  -15.3223   27.3565 C   0  0  0  0  0  0  0  0  0  0  0  0
   10.0055  -16.7985   27.1656 C   0  0  2  0  0  0  0  0  0  0  0  0
    8.7556  -16.9780   26.4178 N   0  0  0  0  0  0  0  0  0  0  0  0
    9.9454  -17.4879   28.4572 C   0  0  0  0  0  0  0  0  0  0  0  0
    8.8658  -18.0959   28.7715 O   0  0  0  0  0  0  0  0  0  0  0  0
   10.9698  -17.5433   29.3791 O   0  0  0  0  0  0  0  0  0  0  0  0
  2  1  1  0
  3  5  1  0
  3  2  1  0
  3  4  1  1
  5  6  1  6
  7  5  1  0
  7  8  2  0
  9 10  1  0
 10 12  1  0
 10 11  2  0
 13 12  1  6
 13 14  1  0
 14  7  1  0
 15 23  1  0
 15 13  1  0
 16 15  2  0
 18 17  1  0
 18 19  2  0
 20 21  1  0
 20 18  1  0
 22 21  1  1
 22 23  1  0
 22 24  1  0
 24 25  2  0
 24 26  1  0
M  END
$$$$
