INQ.pdb
     RDKit          3D

 26 25  0  0  1  0  0  0  0  0999 V2000
    8.8303  -11.8982   19.2386 C   0  0  0  0  0  0  0  0  0  0  0  0
    9.1151  -13.1112   20.0551 C   0  0  0  0  0  0  0  0  0  0  0  0
    8.1758  -14.2660   19.7762 C   0  0  2  0  0  0  0  0  0  0  0  0
    6.7847  -13.8074   20.0528 C   0  0  0  0  0  0  0  0  0  0  0  0
    8.5939  -15.5175   20.4921 C   0  0  2  0  0  0  0  0  0  0  0  0
    8.5652  -15.1612   21.9251 N   0  0  0  0  0  0  0  0  0  0  0  0
    9.9913  -15.8677   20.1730 C   0  0  0  0  0  0  0  0  0  0  0  0
   10.3320  -16.5060   19.1436 O   0  0  0  0  0  0  0  0  0  0  0  0
   12.7048  -13.6958   18.1458 N   0  0  0  0  0  0  0  0  0  0  0  0
   13.2262  -14.8384   18.7908 C   0  0  0  0  0  0  0  0  0  0  0  0
   13.6202  -15.8010   18.1008 O   0  0  0  0  0  0  0  0  0  0  0  0
   13.3084  -14.9042   20.2506 C   0  0  0  0  0  0  0  0  0  0  0  0
   12.4463  -16.0284   20.7722 C   0  0  2  0  0  0  0  0  0  0  0  0
   11.0817  -15.4972   21.0316 N   0  0  0  0  0  0  0  0  0  0  0  0
   12.9602  -16.4510   22.0802 C   0  0  0  0  0  0  0  0  0  0  0  0
   13.6742  -15.6179   22.7438 O   0  0  0  0  0  0  0  0  0  0  0  0
    8.5683  -15.7762   24.5703 N   0  0  0  0  0  0  0  0  0  0  0  0
    9.1150  -16.3823   25.7189 C   0  0  0  0  0  0  0  0  0  0  0  0
    8.5293  -16.2947   26.8109 O   0  0  0  0  0  0  0  0  0  0  0  0
   10.4002  -17.1296   25.6180 C   0  0  0  0  0  0  0  0  0  0  0  0
   10.9949  -17.0218   24.2475 C   0  0  0  0  0  0  0  0  0  0  0  0
   12.3017  -17.7664   24.1119 C   0  0  2  0  0  0  0  0  0  0  0  0
   12.7572  -17.6882   22.7191 N   0  0  0  0  0  0  0  0  0  0  0  0
   12.1529  -19.1612   24.5356 C   0  0  0  0  0  0  0  0  0  0  0  0
   12.7442  -19.5376   25.6046 O   0  0  0  0  0  0  0  0  0  0  0  0
   11.4152  -20.1205   23.8737 O   0  0  0  0  0  0  0  0  0  0  0  0
  2  1  1  0
  3  5  1  0
  3  2  1  0
  3  4  1  1
  5  6  1  1
  7  5  1  0
  7  8  2  0
  9 10  1  0
 10 12  1  0
 10 11  2  0
 13 12  1  1
 13 14  1  0
 14  7  1  0
 15 23  1  0
 15 13  1  0
 16 15  2  0
 18 17  1  0
 18 19  2  0
 20 21  1  0
 20 18  1  0
 22 21  1  6
 22 23  1  0
 22 24  1  0
 24 25  2  0
 24 26  1  0
M  END
$$$$
