INQ.pdb
     RDKit          3D

 26 25  0  0  1  0  0  0  0  0999 V2000
    8.5064  -11.9443   18.9745 C   0  0  0  0  0  0  0  0  0  0  0  0
    7.7354  -13.1844   18.6794 C   0  0  0  0  0  0  0  0  0  0  0  0
    7.7237  -14.1791   19.8213 C   0  0  2  0  0  0  0  0  0  0  0  0
    6.6240  -13.7998   20.7534 C   0  0  0  0  0  0  0  0  0  0  0  0
    9.0777  -14.3282   20.4521 C   0  0  2  0  0  0  0  0  0  0  0  0
    9.9239  -14.9202   19.3962 N   0  0  0  0  0  0  0  0  0  0  0  0
    9.0412  -15.3035   21.5587 C   0  0  0  0  0  0  0  0  0  0  0  0
    8.2807  -15.1980   22.5556 O   0  0  0  0  0  0  0  0  0  0  0  0
   11.3826  -19.4055   20.1292 N   0  0  0  0  0  0  0  0  0  0  0  0
   10.3926  -19.2326   21.1210 C   0  0  0  0  0  0  0  0  0  0  0  0
    9.2302  -19.6280   20.8969 O   0  0  0  0  0  0  0  0  0  0  0  0
   10.7147  -18.5986   22.4002 C   0  0  0  0  0  0  0  0  0  0  0  0
    9.7618  -17.4599   22.6733 C   0  0  2  0  0  0  0  0  0  0  0  0
    9.8873  -16.4642   21.5759 N   0  0  0  0  0  0  0  0  0  0  0  0
   10.1943  -16.7625   23.8900 C   0  0  0  0  0  0  0  0  0  0  0  0
   11.3279  -16.1636   23.8694 O   0  0  0  0  0  0  0  0  0  0  0  0
    6.7047  -12.6151   25.5824 N   0  0  0  0  0  0  0  0  0  0  0  0
    7.5110  -13.1847   26.5879 C   0  0  0  0  0  0  0  0  0  0  0  0
    7.7871  -12.5356   27.6103 O   0  0  0  0  0  0  0  0  0  0  0  0
    8.0316  -14.5707   26.4192 C   0  0  0  0  0  0  0  0  0  0  0  0
    9.5288  -14.5974   26.3863 C   0  0  0  0  0  0  0  0  0  0  0  0
   10.0910  -15.9947   26.2756 C   0  0  2  0  0  0  0  0  0  0  0  0
    9.4992  -16.6599   25.1091 N   0  0  0  0  0  0  0  0  0  0  0  0
    9.8332  -16.7583   27.4994 C   0  0  0  0  0  0  0  0  0  0  0  0
   10.3485  -16.3443   28.5935 O   0  0  0  0  0  0  0  0  0  0  0  0
    9.0672  -17.9027   27.5779 O   0  0  0  0  0  0  0  0  0  0  0  0
  2  1  1  0
  3  5  1  0
  3  2  1  0
  3  4  1  1
  5  6  1  6
  7  5  1  0
  7  8  2  0
  9 10  1  0
 10 12  1  0
 10 11  2  0
 13 12  1  6
 13 14  1  0
 14  7  1  0
 15 23  1  0
 15 13  1  0
 16 15  2  0
 18 17  1  0
 18 19  2  0
 20 21  1  0
 20 18  1  0
 22 21  1  1
 22 23  1  0
 22 24  1  0
 24 25  2  0
 24 26  1  0
M  END
$$$$
