INQ.pdb
     RDKit          3D

 26 25  0  0  1  0  0  0  0  0999 V2000
    7.3022  -11.6968   19.5849 C   0  0  0  0  0  0  0  0  0  0  0  0
    7.4144  -13.1532   19.2927 C   0  0  0  0  0  0  0  0  0  0  0  0
    7.9315  -13.9691   20.4590 C   0  0  2  0  0  0  0  0  0  0  0  0
    9.1952  -13.3407   20.9386 C   0  0  0  0  0  0  0  0  0  0  0  0
    8.0264  -15.4299   20.1262 C   0  0  2  0  0  0  0  0  0  0  0  0
    6.6426  -15.8361   19.8077 N   0  0  0  0  0  0  0  0  0  0  0  0
    8.4351  -16.2158   21.3063 C   0  0  0  0  0  0  0  0  0  0  0  0
    7.6410  -16.5730   22.2146 O   0  0  0  0  0  0  0  0  0  0  0  0
   13.0849  -19.7034   23.4924 N   0  0  0  0  0  0  0  0  0  0  0  0
   11.7768  -19.1840   23.3805 C   0  0  0  0  0  0  0  0  0  0  0  0
   10.9095  -19.5341   24.2069 O   0  0  0  0  0  0  0  0  0  0  0  0
   11.4310  -18.2454   22.3120 C   0  0  0  0  0  0  0  0  0  0  0  0
   10.1353  -17.5411   22.6347 C   0  0  2  0  0  0  0  0  0  0  0  0
    9.7941  -16.6365   21.5046 N   0  0  0  0  0  0  0  0  0  0  0  0
   10.3492  -16.6635   23.7914 C   0  0  0  0  0  0  0  0  0  0  0  0
   10.7470  -15.4645   23.5715 O   0  0  0  0  0  0  0  0  0  0  0  0
    6.3084  -13.9407   25.8934 N   0  0  0  0  0  0  0  0  0  0  0  0
    7.2305  -13.4348   26.8310 C   0  0  0  0  0  0  0  0  0  0  0  0
    6.9310  -12.4586   27.5383 O   0  0  0  0  0  0  0  0  0  0  0  0
    8.5681  -14.0766   26.9706 C   0  0  0  0  0  0  0  0  0  0  0  0
    8.7446  -15.2013   25.9974 C   0  0  0  0  0  0  0  0  0  0  0  0
   10.0545  -15.9321   26.1725 C   0  0  2  0  0  0  0  0  0  0  0  0
   10.1614  -16.9791   25.1498 N   0  0  0  0  0  0  0  0  0  0  0  0
   10.1563  -16.5035   27.5180 C   0  0  0  0  0  0  0  0  0  0  0  0
   10.5814  -15.7568   28.4644 O   0  0  0  0  0  0  0  0  0  0  0  0
    9.8248  -17.7977   27.8611 O   0  0  0  0  0  0  0  0  0  0  0  0
  2  1  1  0
  3  5  1  0
  3  2  1  0
  3  4  1  6
  5  6  1  1
  7  5  1  0
  7  8  2  0
  9 10  1  0
 10 12  1  0
 10 11  2  0
 13 12  1  6
 13 14  1  0
 14  7  1  0
 15 23  1  0
 15 13  1  0
 16 15  2  0
 18 17  1  0
 18 19  2  0
 20 21  1  0
 20 18  1  0
 22 21  1  1
 22 23  1  0
 22 24  1  0
 24 25  2  0
 24 26  1  0
M  END
$$$$
