INQ.pdb
     RDKit          3D

 26 25  0  0  1  0  0  0  0  0999 V2000
    8.0911  -12.0201   21.4720 C   0  0  0  0  0  0  0  0  0  0  0  0
    7.4586  -12.9689   20.5133 C   0  0  0  0  0  0  0  0  0  0  0  0
    8.4562  -13.7878   19.7211 C   0  0  2  0  0  0  0  0  0  0  0  0
    9.4476  -12.8520   19.1183 C   0  0  0  0  0  0  0  0  0  0  0  0
    7.7808  -14.7177   18.7553 C   0  0  2  0  0  0  0  0  0  0  0  0
    6.8210  -15.4836   19.5759 N   0  0  0  0  0  0  0  0  0  0  0  0
    8.7386  -15.6957   18.2047 C   0  0  0  0  0  0  0  0  0  0  0  0
    9.0803  -16.7488   18.8025 O   0  0  0  0  0  0  0  0  0  0  0  0
   10.6423  -18.6067   13.7364 N   0  0  0  0  0  0  0  0  0  0  0  0
   11.1731  -17.4120   14.2698 C   0  0  0  0  0  0  0  0  0  0  0  0
   12.4064  -17.2237   14.2333 O   0  0  0  0  0  0  0  0  0  0  0  0
   10.2968  -16.3997   14.8609 C   0  0  0  0  0  0  0  0  0  0  0  0
   10.2329  -16.5745   16.3590 C   0  0  2  0  0  0  0  0  0  0  0  0
    9.3600  -15.5107   16.9229 N   0  0  0  0  0  0  0  0  0  0  0  0
   11.5662  -16.3298   16.9212 C   0  0  0  0  0  0  0  0  0  0  0  0
   11.9812  -15.1180   16.9799 O   0  0  0  0  0  0  0  0  0  0  0  0
   14.3730  -13.8265   18.8479 N   0  0  0  0  0  0  0  0  0  0  0  0
   14.8050  -14.4773   20.0206 C   0  0  0  0  0  0  0  0  0  0  0  0
   15.7223  -13.9919   20.7033 O   0  0  0  0  0  0  0  0  0  0  0  0
   14.1561  -15.7518   20.4389 C   0  0  0  0  0  0  0  0  0  0  0  0
   13.0737  -16.1583   19.4866 C   0  0  0  0  0  0  0  0  0  0  0  0
   13.5986  -16.8958   18.2778 C   0  0  2  0  0  0  0  0  0  0  0  0
   12.4700  -17.2840   17.4241 N   0  0  0  0  0  0  0  0  0  0  0  0
   14.3767  -18.0701   18.6815 C   0  0  0  0  0  0  0  0  0  0  0  0
   13.7771  -19.1958   18.7674 O   0  0  0  0  0  0  0  0  0  0  0  0
   15.7235  -18.0696   18.9789 O   0  0  0  0  0  0  0  0  0  0  0  0
  2  1  1  0
  3  5  1  0
  3  2  1  0
  3  4  1  6
  5  6  1  1
  7  5  1  0
  7  8  2  0
  9 10  1  0
 10 12  1  0
 10 11  2  0
 13 12  1  6
 13 14  1  0
 14  7  1  0
 15 23  1  0
 15 13  1  0
 16 15  2  0
 18 17  1  0
 18 19  2  0
 20 21  1  0
 20 18  1  0
 22 21  1  1
 22 23  1  0
 22 24  1  0
 24 25  2  0
 24 26  1  0
M  END
$$$$
