GSA.pdb
     RDKit          3D

 16 15  0  0  1  0  0  0  0  0999 V2000
   -3.2341  -23.4936   29.1032 N   0  0  0  0  0  0  0  0  0  0  0  0
   -2.7941  -24.3929   30.1331 C   0  0  0  0  0  0  0  0  0  0  0  0
   -3.5483  -24.1040   31.3944 C   0  0  0  0  0  0  0  0  0  0  0  0
   -4.3540  -23.1498   31.4856 O   0  0  0  0  0  0  0  0  0  0  0  0
   -5.9259  -26.2662   33.2012 O   0  0  0  0  0  0  0  0  0  0  0  0
   -4.8620  -26.0316   34.0388 C   0  0  0  0  0  0  0  0  0  0  0  0
   -4.1814  -24.6970   33.7319 C   0  0  2  0  0  0  0  0  0  0  0  0
   -3.3747  -24.9133   32.5494 N   0  0  0  0  0  0  0  0  0  0  0  0
   -3.2694  -24.3785   34.8615 C   0  0  0  0  0  0  0  0  0  0  0  0
   -2.1391  -24.9488   34.9583 O   0  0  0  0  0  0  0  0  0  0  0  0
   -3.1969  -22.0656   37.8234 C   0  0  0  0  0  0  0  0  0  0  0  0
   -2.7010  -23.2262   36.9866 C   0  0  2  0  0  0  0  0  0  0  0  0
   -3.5977  -23.4435   35.8723 N   0  0  0  0  0  0  0  0  0  0  0  0
   -2.5664  -24.4481   37.8272 C   0  0  0  0  0  0  0  0  0  0  0  0
   -1.4148  -24.6627   38.5349 O   0  0  0  0  0  0  0  0  0  0  0  0
   -3.5372  -25.2445   37.8495 O   0  0  0  0  0  0  0  0  0  0  0  0
  2  1  1  0
  3  2  1  0
  4  3  2  0
  6  5  1  0
  7  6  1  1
  7  8  1  0
  8  3  1  0
  9 10  2  0
  9  7  1  0
 12 11  1  1
 12 13  1  0
 13  9  1  0
 14 12  1  0
 14 15  1  0
 16 14  2  0
M  END
$$$$
