GSA.pdb
     RDKit          3D

 16 15  0  0  1  0  0  0  0  0999 V2000
    9.6186  -17.3581   17.3066 N   0  0  0  0  0  0  0  0  0  0  0  0
    8.5338  -17.3186   18.2473 C   0  0  0  0  0  0  0  0  0  0  0  0
    8.9406  -16.5003   19.4340 C   0  0  0  0  0  0  0  0  0  0  0  0
   10.1232  -16.1310   19.6152 O   0  0  0  0  0  0  0  0  0  0  0  0
    6.2397  -15.7362   22.5607 O   0  0  0  0  0  0  0  0  0  0  0  0
    7.0922  -14.7410   22.1467 C   0  0  0  0  0  0  0  0  0  0  0  0
    8.3814  -15.3087   21.5515 C   0  0  2  0  0  0  0  0  0  0  0  0
    7.9862  -16.1079   20.4108 N   0  0  0  0  0  0  0  0  0  0  0  0
    8.9911  -16.2136   22.5606 C   0  0  0  0  0  0  0  0  0  0  0  0
    8.6902  -17.4469   22.5865 O   0  0  0  0  0  0  0  0  0  0  0  0
   11.9886  -16.5756   24.4970 C   0  0  0  0  0  0  0  0  0  0  0  0
   10.4789  -16.6931   24.4903 C   0  0  2  0  0  0  0  0  0  0  0  0
    9.9209  -15.7663   23.5297 N   0  0  0  0  0  0  0  0  0  0  0  0
    9.9368  -16.4572   25.8572 C   0  0  0  0  0  0  0  0  0  0  0  0
   10.3196  -17.2699   26.8897 O   0  0  0  0  0  0  0  0  0  0  0  0
    9.1349  -15.5020   26.0044 O   0  0  0  0  0  0  0  0  0  0  0  0
  2  1  1  0
  3  2  1  0
  4  3  2  0
  6  5  1  0
  7  6  1  1
  7  8  1  0
  8  3  1  0
  9 10  2  0
  9  7  1  0
 12 11  1  1
 12 13  1  0
 13  9  1  0
 14 12  1  0
 14 15  1  0
 16 14  2  0
M  END
$$$$
