GSA.pdb
     RDKit          3D

 16 15  0  0  1  0  0  0  0  0999 V2000
    8.5840  -17.6793   16.1659 N   0  0  0  0  0  0  0  0  0  0  0  0
    7.6671  -17.5857   17.2675 C   0  0  0  0  0  0  0  0  0  0  0  0
    8.1799  -16.5793   18.2510 C   0  0  0  0  0  0  0  0  0  0  0  0
    9.3149  -16.0612   18.1441 O   0  0  0  0  0  0  0  0  0  0  0  0
    5.9262  -15.6784   21.6458 O   0  0  0  0  0  0  0  0  0  0  0  0
    6.7286  -14.6986   21.1122 C   0  0  0  0  0  0  0  0  0  0  0  0
    7.9279  -15.2888   20.3694 C   0  0  2  0  0  0  0  0  0  0  0  0
    7.3864  -16.1700   19.3563 N   0  0  0  0  0  0  0  0  0  0  0  0
    8.7019  -16.1137   21.3334 C   0  0  0  0  0  0  0  0  0  0  0  0
    8.3910  -17.3275   21.5389 O   0  0  0  0  0  0  0  0  0  0  0  0
   11.9230  -15.8708   23.2078 C   0  0  0  0  0  0  0  0  0  0  0  0
   10.5612  -16.4760   22.9394 C   0  0  2  0  0  0  0  0  0  0  0  0
    9.8051  -15.6085   22.0625 N   0  0  0  0  0  0  0  0  0  0  0  0
    9.8429  -16.7193   24.2211 C   0  0  0  0  0  0  0  0  0  0  0  0
   10.2813  -17.6986   25.0706 O   0  0  0  0  0  0  0  0  0  0  0  0
    8.8449  -15.9989   24.4705 O   0  0  0  0  0  0  0  0  0  0  0  0
  2  1  1  0
  3  2  1  0
  4  3  2  0
  6  5  1  0
  7  6  1  1
  7  8  1  0
  8  3  1  0
  9 10  2  0
  9  7  1  0
 12 11  1  1
 12 13  1  0
 13  9  1  0
 14 12  1  0
 14 15  1  0
 16 14  2  0
M  END
$$$$
