GSA.pdb
     RDKit          3D

 16 15  0  0  1  0  0  0  0  0999 V2000
   -1.8936  -26.7819   27.2497 N   0  0  0  0  0  0  0  0  0  0  0  0
   -3.2658  -26.4023   27.0595 C   0  0  0  0  0  0  0  0  0  0  0  0
   -3.6703  -25.4560   28.1476 C   0  0  0  0  0  0  0  0  0  0  0  0
   -3.3329  -25.6289   29.3410 O   0  0  0  0  0  0  0  0  0  0  0  0
   -4.9212  -21.7438   27.1494 O   0  0  0  0  0  0  0  0  0  0  0  0
   -4.4259  -21.9917   28.4071 C   0  0  0  0  0  0  0  0  0  0  0  0
   -4.8225  -23.3804   28.9099 C   0  0  2  0  0  0  0  0  0  0  0  0
   -4.4625  -24.3117   27.8614 N   0  0  0  0  0  0  0  0  0  0  0  0
   -6.3005  -23.4063   29.0634 C   0  0  0  0  0  0  0  0  0  0  0  0
   -7.0507  -23.5855   28.0548 O   0  0  0  0  0  0  0  0  0  0  0  0
   -8.7854  -23.6825   31.8225 C   0  0  0  0  0  0  0  0  0  0  0  0
   -8.3865  -23.3172   30.4081 C   0  0  2  0  0  0  0  0  0  0  0  0
   -6.9452  -23.2368   30.3122 N   0  0  0  0  0  0  0  0  0  0  0  0
   -9.0341  -22.0389   30.0030 C   0  0  0  0  0  0  0  0  0  0  0  0
  -10.2258  -22.0640   29.3306 O   0  0  0  0  0  0  0  0  0  0  0  0
   -8.4446  -20.9714   30.3032 O   0  0  0  0  0  0  0  0  0  0  0  0
  2  1  1  0
  3  2  1  0
  4  3  2  0
  6  5  1  0
  7  6  1  6
  7  8  1  0
  8  3  1  0
  9 10  2  0
  9  7  1  0
 12 11  1  1
 12 13  1  0
 13  9  1  0
 14 12  1  0
 14 15  1  0
 16 14  2  0
M  END
$$$$
