GSA.pdb
     RDKit          3D

 16 15  0  0  1  0  0  0  0  0999 V2000
    8.2549  -18.0922   16.1644 N   0  0  0  0  0  0  0  0  0  0  0  0
    7.3914  -17.8675   17.2901 C   0  0  0  0  0  0  0  0  0  0  0  0
    8.0182  -16.8538   18.1971 C   0  0  0  0  0  0  0  0  0  0  0  0
    9.1839  -16.4319   18.0206 O   0  0  0  0  0  0  0  0  0  0  0  0
    5.9834  -15.6309   21.6241 O   0  0  0  0  0  0  0  0  0  0  0  0
    6.8373  -14.7387   21.0214 C   0  0  0  0  0  0  0  0  0  0  0  0
    7.9544  -15.4499   20.2565 C   0  0  2  0  0  0  0  0  0  0  0  0
    7.3033  -16.3267   19.3061 N   0  0  0  0  0  0  0  0  0  0  0  0
    8.7056  -16.2927   21.2232 C   0  0  0  0  0  0  0  0  0  0  0  0
    8.3219  -17.4750   21.4823 O   0  0  0  0  0  0  0  0  0  0  0  0
   12.0574  -16.4790   22.7039 C   0  0  0  0  0  0  0  0  0  0  0  0
   10.5651  -16.7108   22.8153 C   0  0  2  0  0  0  0  0  0  0  0  0
    9.8653  -15.8394   21.8965 N   0  0  0  0  0  0  0  0  0  0  0  0
   10.1137  -16.5020   24.2190 C   0  0  0  0  0  0  0  0  0  0  0  0
   10.5478  -17.3458   25.2051 O   0  0  0  0  0  0  0  0  0  0  0  0
    9.3376  -15.5396   24.4398 O   0  0  0  0  0  0  0  0  0  0  0  0
  2  1  1  0
  3  2  1  0
  4  3  2  0
  6  5  1  0
  7  6  1  1
  7  8  1  0
  8  3  1  0
  9 10  2  0
  9  7  1  0
 12 11  1  1
 12 13  1  0
 13  9  1  0
 14 12  1  0
 14 15  1  0
 16 14  2  0
M  END
$$$$
