GSA.pdb
     RDKit          3D

 16 15  0  0  1  0  0  0  0  0999 V2000
    7.6532  -17.2126   17.7650 N   0  0  0  0  0  0  0  0  0  0  0  0
    7.0118  -16.7311   18.9566 C   0  0  0  0  0  0  0  0  0  0  0  0
    8.0509  -16.1959   19.8932 C   0  0  0  0  0  0  0  0  0  0  0  0
    9.2765  -16.3011   19.6595 O   0  0  0  0  0  0  0  0  0  0  0  0
    6.9924  -14.5930   23.6446 O   0  0  0  0  0  0  0  0  0  0  0  0
    7.9628  -13.9871   22.8830 C   0  0  0  0  0  0  0  0  0  0  0  0
    8.6844  -14.9891   21.9809 C   0  0  2  0  0  0  0  0  0  0  0  0
    7.6785  -15.5404   21.0976 N   0  0  0  0  0  0  0  0  0  0  0  0
    9.1989  -16.0885   22.8385 C   0  0  0  0  0  0  0  0  0  0  0  0
    8.4606  -17.0802   23.1279 O   0  0  0  0  0  0  0  0  0  0  0  0
   12.4184  -17.5530   23.6928 C   0  0  0  0  0  0  0  0  0  0  0  0
   10.9945  -17.2448   24.1058 C   0  0  2  0  0  0  0  0  0  0  0  0
   10.5103  -16.0963   23.3713 N   0  0  0  0  0  0  0  0  0  0  0  0
   10.9199  -17.0250   25.5769 C   0  0  0  0  0  0  0  0  0  0  0  0
   11.2714  -18.0328   26.4333 O   0  0  0  0  0  0  0  0  0  0  0  0
   10.5291  -15.8996   25.9743 O   0  0  0  0  0  0  0  0  0  0  0  0
  2  1  1  0
  3  2  1  0
  4  3  2  0
  6  5  1  0
  7  6  1  1
  7  8  1  0
  8  3  1  0
  9 10  2  0
  9  7  1  0
 12 11  1  6
 12 13  1  0
 13  9  1  0
 14 12  1  0
 14 15  1  0
 16 14  2  0
M  END
$$$$
