GSA.pdb
     RDKit          3D

 16 15  0  0  1  0  0  0  0  0999 V2000
    8.6783  -18.3996   14.7214 N   0  0  0  0  0  0  0  0  0  0  0  0
    7.9337  -19.3838   15.4564 C   0  0  0  0  0  0  0  0  0  0  0  0
    7.8532  -18.9686   16.8932 C   0  0  0  0  0  0  0  0  0  0  0  0
    8.4186  -17.9368   17.3216 O   0  0  0  0  0  0  0  0  0  0  0  0
    5.5890  -19.6149   21.1056 O   0  0  0  0  0  0  0  0  0  0  0  0
    5.6969  -19.7792   19.7455 C   0  0  0  0  0  0  0  0  0  0  0  0
    7.0720  -19.3534   19.2295 C   0  0  2  0  0  0  0  0  0  0  0  0
    7.1221  -19.7410   17.8354 N   0  0  0  0  0  0  0  0  0  0  0  0
    8.0989  -20.1373   19.9642 C   0  0  0  0  0  0  0  0  0  0  0  0
    8.2516  -21.3765   19.7335 O   0  0  0  0  0  0  0  0  0  0  0  0
   11.1411  -19.5887   21.9680 C   0  0  0  0  0  0  0  0  0  0  0  0
    9.8913  -20.3882   21.6647 C   0  0  2  0  0  0  0  0  0  0  0  0
    8.9476  -19.5640   20.9414 N   0  0  0  0  0  0  0  0  0  0  0  0
    9.3007  -20.9201   22.9241 C   0  0  0  0  0  0  0  0  0  0  0  0
    9.9114  -21.9565   23.5764 O   0  0  0  0  0  0  0  0  0  0  0  0
    8.2451  -20.3817   23.3402 O   0  0  0  0  0  0  0  0  0  0  0  0
  2  1  1  0
  3  2  1  0
  4  3  2  0
  6  5  1  0
  7  6  1  1
  7  8  1  0
  8  3  1  0
  9 10  2  0
  9  7  1  0
 12 11  1  1
 12 13  1  0
 13  9  1  0
 14 12  1  0
 14 15  1  0
 16 14  2  0
M  END
$$$$
