GSA.pdb
     RDKit          3D

 16 15  0  0  1  0  0  0  0  0999 V2000
    8.6704  -20.1436   18.2382 N   0  0  0  0  0  0  0  0  0  0  0  0
    8.4067  -21.1607   19.2176 C   0  0  0  0  0  0  0  0  0  0  0  0
    8.3783  -20.5376   20.5792 C   0  0  0  0  0  0  0  0  0  0  0  0
    8.7256  -19.3509   20.7767 O   0  0  0  0  0  0  0  0  0  0  0  0
    6.4935  -22.4079   23.8748 O   0  0  0  0  0  0  0  0  0  0  0  0
    6.5956  -21.0543   23.6603 C   0  0  0  0  0  0  0  0  0  0  0  0
    7.9370  -20.6792   23.0291 C   0  0  2  0  0  0  0  0  0  0  0  0
    7.9502  -21.2806   21.7122 N   0  0  0  0  0  0  0  0  0  0  0  0
    9.0142  -21.3097   23.8359 C   0  0  0  0  0  0  0  0  0  0  0  0
    9.4431  -22.4690   23.5455 O   0  0  0  0  0  0  0  0  0  0  0  0
   11.5676  -20.2361   26.3103 C   0  0  0  0  0  0  0  0  0  0  0  0
   10.7168  -21.2967   25.6437 C   0  0  2  0  0  0  0  0  0  0  0  0
    9.6123  -20.6717   24.9491 N   0  0  0  0  0  0  0  0  0  0  0  0
   10.2411  -22.2849   26.6511 C   0  0  0  0  0  0  0  0  0  0  0  0
   11.1247  -23.1731   27.2019 O   0  0  0  0  0  0  0  0  0  0  0  0
    9.0233  -22.2585   26.9568 O   0  0  0  0  0  0  0  0  0  0  0  0
  2  1  1  0
  3  2  1  0
  4  3  2  0
  6  5  1  0
  7  6  1  1
  7  8  1  0
  8  3  1  0
  9 10  2  0
  9  7  1  0
 12 11  1  1
 12 13  1  0
 13  9  1  0
 14 12  1  0
 14 15  1  0
 16 14  2  0
M  END
$$$$
