GSA.pdb
     RDKit          3D

 16 15  0  0  1  0  0  0  0  0999 V2000
    6.8768  -18.6091   19.3637 N   0  0  0  0  0  0  0  0  0  0  0  0
    6.8503  -19.7861   20.1867 C   0  0  0  0  0  0  0  0  0  0  0  0
    6.7815  -19.3789   21.6264 C   0  0  0  0  0  0  0  0  0  0  0  0
    6.8507  -18.1809   21.9843 O   0  0  0  0  0  0  0  0  0  0  0  0
    5.8008  -22.1488   24.6292 O   0  0  0  0  0  0  0  0  0  0  0  0
    5.5145  -20.8070   24.7071 C   0  0  0  0  0  0  0  0  0  0  0  0
    6.5988  -19.9557   24.0451 C   0  0  2  0  0  0  0  0  0  0  0  0
    6.6333  -20.3504   22.6526 N   0  0  0  0  0  0  0  0  0  0  0  0
    7.9027  -20.3169   24.6601 C   0  0  0  0  0  0  0  0  0  0  0  0
    8.6606  -21.1736   24.1089 O   0  0  0  0  0  0  0  0  0  0  0  0
   10.4422  -18.9606   26.8415 C   0  0  0  0  0  0  0  0  0  0  0  0
    9.6215  -20.1704   26.4467 C   0  0  2  0  0  0  0  0  0  0  0  0
    8.3669  -19.7419   25.8675 N   0  0  0  0  0  0  0  0  0  0  0  0
    9.4065  -21.0552   27.6251 C   0  0  0  0  0  0  0  0  0  0  0  0
   10.4697  -21.7076   28.1881 O   0  0  0  0  0  0  0  0  0  0  0  0
    8.2332  -21.1655   28.0591 O   0  0  0  0  0  0  0  0  0  0  0  0
  2  1  1  0
  3  2  1  0
  4  3  2  0
  6  5  1  0
  7  6  1  1
  7  8  1  0
  8  3  1  0
  9 10  2  0
  9  7  1  0
 12 11  1  1
 12 13  1  0
 13  9  1  0
 14 12  1  0
 14 15  1  0
 16 14  2  0
M  END
$$$$
