GSA.pdb
     RDKit          3D

 16 15  0  0  1  0  0  0  0  0999 V2000
    8.9544  -17.4565   16.8585 N   0  0  0  0  0  0  0  0  0  0  0  0
    8.0172  -17.2085   17.9184 C   0  0  0  0  0  0  0  0  0  0  0  0
    8.6869  -16.4043   18.9898 C   0  0  0  0  0  0  0  0  0  0  0  0
    9.9101  -16.1384   18.9575 O   0  0  0  0  0  0  0  0  0  0  0  0
    6.5814  -15.2981   22.4284 O   0  0  0  0  0  0  0  0  0  0  0  0
    7.4839  -14.4106   21.8934 C   0  0  0  0  0  0  0  0  0  0  0  0
    8.5983  -15.1258   21.1285 C   0  0  2  0  0  0  0  0  0  0  0  0
    7.9485  -15.9069   20.0972 N   0  0  0  0  0  0  0  0  0  0  0  0
    9.2672  -16.0646   22.0667 C   0  0  0  0  0  0  0  0  0  0  0  0
    8.8302  -17.2473   22.2166 O   0  0  0  0  0  0  0  0  0  0  0  0
   12.5732  -16.4111   23.6438 C   0  0  0  0  0  0  0  0  0  0  0  0
   11.0859  -16.6956   23.6356 C   0  0  2  0  0  0  0  0  0  0  0  0
   10.4035  -15.7057   22.8309 N   0  0  0  0  0  0  0  0  0  0  0  0
   10.5588  -16.7269   25.0281 C   0  0  0  0  0  0  0  0  0  0  0  0
   10.9747  -17.7049   25.8903 O   0  0  0  0  0  0  0  0  0  0  0  0
    9.7380  -15.8348   25.3559 O   0  0  0  0  0  0  0  0  0  0  0  0
  2  1  1  0
  3  2  1  0
  4  3  2  0
  6  5  1  0
  7  6  1  1
  7  8  1  0
  8  3  1  0
  9 10  2  0
  9  7  1  0
 12 11  1  1
 12 13  1  0
 13  9  1  0
 14 12  1  0
 14 15  1  0
 16 14  2  0
M  END
$$$$
