GSA.pdb
     RDKit          3D

 16 15  0  0  1  0  0  0  0  0999 V2000
   -3.2375  -26.8765   25.2328 N   0  0  0  0  0  0  0  0  0  0  0  0
   -4.1030  -25.7348   25.3361 C   0  0  0  0  0  0  0  0  0  0  0  0
   -4.2525  -25.3591   26.7782 C   0  0  0  0  0  0  0  0  0  0  0  0
   -4.3356  -26.2179   27.6856 O   0  0  0  0  0  0  0  0  0  0  0  0
   -4.0961  -21.3839   27.8230 O   0  0  0  0  0  0  0  0  0  0  0  0
   -3.7612  -22.3161   28.7756 C   0  0  0  0  0  0  0  0  0  0  0  0
   -4.5029  -23.6365   28.5632 C   0  0  2  0  0  0  0  0  0  0  0  0
   -4.3063  -23.9957   27.1746 N   0  0  0  0  0  0  0  0  0  0  0  0
   -5.9525  -23.3858   28.7749 C   0  0  0  0  0  0  0  0  0  0  0  0
   -6.7028  -23.0760   27.7985 O   0  0  0  0  0  0  0  0  0  0  0  0
   -8.5249  -23.9578   31.3902 C   0  0  0  0  0  0  0  0  0  0  0  0
   -7.9823  -23.2042   30.1941 C   0  0  2  0  0  0  0  0  0  0  0  0
   -6.5688  -23.4751   30.0461 N   0  0  0  0  0  0  0  0  0  0  0  0
   -8.2478  -21.7460   30.3390 C   0  0  0  0  0  0  0  0  0  0  0  0
   -9.5113  -21.2617   30.1341 O   0  0  0  0  0  0  0  0  0  0  0  0
   -7.2790  -21.0098   30.6497 O   0  0  0  0  0  0  0  0  0  0  0  0
  2  1  1  0
  3  2  1  0
  4  3  2  0
  6  5  1  0
  7  6  1  6
  7  8  1  0
  8  3  1  0
  9 10  2  0
  9  7  1  0
 12 11  1  1
 12 13  1  0
 13  9  1  0
 14 12  1  0
 14 15  1  0
 16 14  2  0
M  END
$$$$
