QAN.pdb
     RDKit          3D

 23 22  0  0  1  0  0  0  0  0999 V2000
   25.1017  -13.2897  -21.0652 N   0  0  0  0  0  0  0  0  0  0  0  0
   23.9355  -14.0786  -21.1668 C   0  0  0  0  0  0  0  0  0  0  0  0
   23.8136  -14.8846  -22.1376 O   0  0  0  0  0  0  0  0  0  0  0  0
   22.8428  -14.0131  -20.2020 C   0  0  0  0  0  0  0  0  0  0  0  0
   22.9840  -13.0682  -19.0644 C   0  0  0  0  0  0  0  0  0  0  0  0
   23.9963  -13.4161  -18.0305 C   0  0  2  0  0  0  0  0  0  0  0  0
   23.7918  -14.6961  -17.4057 N   0  0  0  0  0  0  0  0  0  0  0  0
   24.0715  -12.2874  -17.0401 C   0  0  0  0  0  0  0  0  0  0  0  0
   23.0939  -12.0234  -16.2929 O   0  0  0  0  0  0  0  0  0  0  0  0
   26.7524   -9.9329  -15.8980 C   0  0  0  0  0  0  0  0  0  0  0  0
   25.3372  -10.3714  -15.9620 C   0  0  2  0  0  0  0  0  0  0  0  0
   25.2278  -11.4745  -16.9016 N   0  0  0  0  0  0  0  0  0  0  0  0
   24.3950   -9.3118  -16.3851 C   0  0  0  0  0  0  0  0  0  0  0  0
   24.1804   -9.1685  -17.6129 O   0  0  0  0  0  0  0  0  0  0  0  0
   19.3382   -6.7386  -16.2236 N   0  0  0  0  0  0  0  0  0  0  0  0
   20.5874   -6.4256  -15.6754 C   0  0  0  0  0  0  0  0  0  0  0  0
   20.9854   -5.2177  -15.5871 O   0  0  0  0  0  0  0  0  0  0  0  0
   21.5395   -7.4756  -15.1504 C   0  0  0  0  0  0  0  0  0  0  0  0
   22.8010   -7.4334  -16.0045 C   0  0  2  0  0  0  0  0  0  0  0  0
   23.7135   -8.4426  -15.4959 N   0  0  0  0  0  0  0  0  0  0  0  0
   23.4123   -6.0920  -15.9076 C   0  0  0  0  0  0  0  0  0  0  0  0
   24.2516   -5.8553  -14.9860 O   0  0  0  0  0  0  0  0  0  0  0  0
   23.0953   -5.0806  -16.7937 O   0  0  0  0  0  0  0  0  0  0  0  0
  2  4  1  0
  2  1  1  0
  3  2  2  0
  5  4  1  0
  6  7  1  1
  6  5  1  0
  8  6  1  0
  9  8  2  0
 11 10  1  6
 11 13  1  0
 11 12  1  0
 12  8  1  0
 13 20  1  0
 14 13  2  0
 16 17  2  0
 16 15  1  0
 18 16  1  0
 19 18  1  1
 19 21  1  0
 20 19  1  0
 21 22  2  0
 21 23  1  0
M  END
$$$$
