QAN.pdb
     RDKit          3D

 23 22  0  0  1  0  0  0  0  0999 V2000
   15.1366  -14.3962  -13.1003 N   0  0  0  0  0  0  0  0  0  0  0  0
   15.7698  -15.6378  -13.3252 C   0  0  0  0  0  0  0  0  0  0  0  0
   15.3866  -16.6569  -12.6761 O   0  0  0  0  0  0  0  0  0  0  0  0
   16.8622  -15.8141  -14.2764 C   0  0  0  0  0  0  0  0  0  0  0  0
   17.3542  -14.6086  -14.9917 C   0  0  0  0  0  0  0  0  0  0  0  0
   16.5625  -14.1635  -16.1706 C   0  0  2  0  0  0  0  0  0  0  0  0
   16.6294  -15.0516  -17.3008 N   0  0  0  0  0  0  0  0  0  0  0  0
   16.9651  -12.7550  -16.5091 C   0  0  0  0  0  0  0  0  0  0  0  0
   18.1265  -12.5014  -16.9223 O   0  0  0  0  0  0  0  0  0  0  0  0
   15.1025   -9.5620  -16.9910 C   0  0  0  0  0  0  0  0  0  0  0  0
   16.3731  -10.3089  -16.8275 C   0  0  2  0  0  0  0  0  0  0  0  0
   16.0722  -11.6582  -16.3797 N   0  0  0  0  0  0  0  0  0  0  0  0
   17.3107   -9.7009  -15.8576 C   0  0  0  0  0  0  0  0  0  0  0  0
   17.2922  -10.1210  -14.6756 O   0  0  0  0  0  0  0  0  0  0  0  0
   22.1375   -8.0800  -13.8474 N   0  0  0  0  0  0  0  0  0  0  0  0
   21.4515   -7.3638  -14.8350 C   0  0  0  0  0  0  0  0  0  0  0  0
   21.5838   -6.1007  -14.9462 O   0  0  0  0  0  0  0  0  0  0  0  0
   20.5235   -8.0216  -15.8304 C   0  0  0  0  0  0  0  0  0  0  0  0
   19.1604   -8.1790  -15.1672 C   0  0  2  0  0  0  0  0  0  0  0  0
   18.2341   -8.6716  -16.1717 N   0  0  0  0  0  0  0  0  0  0  0  0
   18.7124   -6.8683  -14.6535 C   0  0  0  0  0  0  0  0  0  0  0  0
   18.0579   -6.0921  -15.4143 O   0  0  0  0  0  0  0  0  0  0  0  0
   18.9872   -6.4584  -13.3632 O   0  0  0  0  0  0  0  0  0  0  0  0
  2  4  1  0
  2  1  1  0
  3  2  2  0
  5  4  1  0
  6  7  1  6
  6  5  1  0
  8  6  1  0
  9  8  2  0
 11 10  1  1
 11 13  1  0
 11 12  1  0
 12  8  1  0
 13 20  1  0
 14 13  2  0
 16 17  2  0
 16 15  1  0
 18 16  1  0
 19 18  1  6
 19 21  1  0
 20 19  1  0
 21 22  2  0
 21 23  1  0
M  END
$$$$
