QAN.pdb
     RDKit          3D

 23 22  0  0  1  0  0  0  0  0999 V2000
   28.9883  -20.3980  -18.2935 N   0  0  0  0  0  0  0  0  0  0  0  0
   29.0350  -19.0374  -17.9199 C   0  0  0  0  0  0  0  0  0  0  0  0
   29.3177  -18.1630  -18.7930 O   0  0  0  0  0  0  0  0  0  0  0  0
   28.7756  -18.5753  -16.5604 C   0  0  0  0  0  0  0  0  0  0  0  0
   28.4353  -19.5982  -15.5382 C   0  0  0  0  0  0  0  0  0  0  0  0
   27.0100  -19.6709  -15.1166 C   0  0  2  0  0  0  0  0  0  0  0  0
   26.4107  -18.3954  -14.8254 N   0  0  0  0  0  0  0  0  0  0  0  0
   26.9011  -20.6425  -13.9744 C   0  0  0  0  0  0  0  0  0  0  0  0
   27.2785  -21.8355  -14.1088 O   0  0  0  0  0  0  0  0  0  0  0  0
   26.4077  -20.7122  -10.3613 C   0  0  0  0  0  0  0  0  0  0  0  0
   25.9744  -21.2213  -11.6850 C   0  0  2  0  0  0  0  0  0  0  0  0
   26.3738  -20.2709  -12.7091 N   0  0  0  0  0  0  0  0  0  0  0  0
   24.5150  -21.4363  -11.8012 C   0  0  0  0  0  0  0  0  0  0  0  0
   23.9803  -22.2805  -11.0426 O   0  0  0  0  0  0  0  0  0  0  0  0
   20.5977  -20.9768  -10.5852 N   0  0  0  0  0  0  0  0  0  0  0  0
   20.6119  -19.8508  -11.4164 C   0  0  0  0  0  0  0  0  0  0  0  0
   19.8745  -18.8402  -11.1712 O   0  0  0  0  0  0  0  0  0  0  0  0
   21.4905  -19.7466  -12.6419 C   0  0  0  0  0  0  0  0  0  0  0  0
   22.2552  -21.0573  -12.7831 C   0  0  2  0  0  0  0  0  0  0  0  0
   23.6735  -20.7514  -12.7143 N   0  0  0  0  0  0  0  0  0  0  0  0
   21.9257  -21.6780  -14.0825 C   0  0  0  0  0  0  0  0  0  0  0  0
   20.7624  -22.1481  -14.2709 O   0  0  0  0  0  0  0  0  0  0  0  0
   22.8511  -21.7646  -15.1047 O   0  0  0  0  0  0  0  0  0  0  0  0
  2  4  1  0
  2  1  1  0
  3  2  2  0
  5  4  1  0
  6  7  1  1
  6  5  1  0
  8  6  1  0
  9  8  2  0
 11 10  1  1
 11 13  1  0
 11 12  1  0
 12  8  1  0
 13 20  1  0
 14 13  2  0
 16 17  2  0
 16 15  1  0
 18 16  1  0
 19 18  1  6
 19 21  1  0
 20 19  1  0
 21 22  2  0
 21 23  1  0
M  END
$$$$
