QAN.pdb
     RDKit          3D

 23 22  0  0  1  0  0  0  0  0999 V2000
   24.1564  -12.7241  -15.7901 N   0  0  0  0  0  0  0  0  0  0  0  0
   23.4481  -13.5118  -16.7233 C   0  0  0  0  0  0  0  0  0  0  0  0
   23.9307  -14.6254  -17.0892 O   0  0  0  0  0  0  0  0  0  0  0  0
   22.1719  -13.1057  -17.3026 C   0  0  0  0  0  0  0  0  0  0  0  0
   21.5896  -11.8158  -16.8507 C   0  0  0  0  0  0  0  0  0  0  0  0
   20.2124  -11.8664  -16.2891 C   0  0  2  0  0  0  0  0  0  0  0  0
   19.2265  -12.4157  -17.1819 N   0  0  0  0  0  0  0  0  0  0  0  0
   19.8510  -10.4943  -15.7920 C   0  0  0  0  0  0  0  0  0  0  0  0
   19.7389   -9.5305  -16.5934 O   0  0  0  0  0  0  0  0  0  0  0  0
   18.9711   -9.0253  -12.4539 C   0  0  0  0  0  0  0  0  0  0  0  0
   19.3058   -8.9027  -13.8933 C   0  0  2  0  0  0  0  0  0  0  0  0
   19.6245  -10.2202  -14.4169 N   0  0  0  0  0  0  0  0  0  0  0  0
   20.4503   -8.0075  -14.1732 C   0  0  0  0  0  0  0  0  0  0  0  0
   21.5424   -8.5304  -14.5013 O   0  0  0  0  0  0  0  0  0  0  0  0
   23.5874   -4.2053  -15.4355 N   0  0  0  0  0  0  0  0  0  0  0  0
   22.7815   -4.8618  -16.3729 C   0  0  0  0  0  0  0  0  0  0  0  0
   22.9506   -4.6888  -17.6246 O   0  0  0  0  0  0  0  0  0  0  0  0
   21.6742   -5.8127  -15.9802 C   0  0  0  0  0  0  0  0  0  0  0  0
   21.5548   -5.7913  -14.4610 C   0  0  2  0  0  0  0  0  0  0  0  0
   20.3992   -6.5924  -14.0969 N   0  0  0  0  0  0  0  0  0  0  0  0
   21.3787   -4.3975  -14.0042 C   0  0  0  0  0  0  0  0  0  0  0  0
   22.3577   -3.5930  -14.0676 O   0  0  0  0  0  0  0  0  0  0  0  0
   20.1741   -3.9406  -13.5054 O   0  0  0  0  0  0  0  0  0  0  0  0
  2  4  1  0
  2  1  1  0
  3  2  2  0
  5  4  1  0
  6  7  1  6
  6  5  1  0
  8  6  1  0
  9  8  2  0
 11 10  1  1
 11 13  1  0
 11 12  1  0
 12  8  1  0
 13 20  1  0
 14 13  2  0
 16 17  2  0
 16 15  1  0
 18 16  1  0
 19 18  1  6
 19 21  1  0
 20 19  1  0
 21 22  2  0
 21 23  1  0
M  END
$$$$
