QAN.pdb
     RDKit          3D

 23 22  0  0  1  0  0  0  0  0999 V2000
   21.6389  -11.8910  -18.3111 N   0  0  0  0  0  0  0  0  0  0  0  0
   20.6052  -12.8464  -18.4190 C   0  0  0  0  0  0  0  0  0  0  0  0
   20.9014  -14.0774  -18.4819 O   0  0  0  0  0  0  0  0  0  0  0  0
   19.1915  -12.4885  -18.4671 C   0  0  0  0  0  0  0  0  0  0  0  0
   18.8478  -11.0440  -18.5154 C   0  0  0  0  0  0  0  0  0  0  0  0
   18.9708  -10.2865  -17.2404 C   0  0  2  0  0  0  0  0  0  0  0  0
   18.2272  -10.8460  -16.1428 N   0  0  0  0  0  0  0  0  0  0  0  0
   18.6258   -8.8476  -17.5071 C   0  0  0  0  0  0  0  0  0  0  0  0
   19.1769   -8.2196  -18.4482 O   0  0  0  0  0  0  0  0  0  0  0  0
   16.1089   -6.4098  -16.2104 C   0  0  0  0  0  0  0  0  0  0  0  0
   17.3942   -6.7198  -16.8819 C   0  0  2  0  0  0  0  0  0  0  0  0
   17.6793   -8.1358  -16.7232 N   0  0  0  0  0  0  0  0  0  0  0  0
   18.5488   -5.9568  -16.3581 C   0  0  0  0  0  0  0  0  0  0  0  0
   18.4969   -4.7040  -16.4007 O   0  0  0  0  0  0  0  0  0  0  0  0
   23.0121   -4.4109  -14.3213 N   0  0  0  0  0  0  0  0  0  0  0  0
   22.2860   -5.2351  -13.4539 C   0  0  0  0  0  0  0  0  0  0  0  0
   22.6168   -5.3576  -12.2287 O   0  0  0  0  0  0  0  0  0  0  0  0
   21.0736   -6.0232  -13.8935 C   0  0  0  0  0  0  0  0  0  0  0  0
   20.8223   -5.7147  -15.3647 C   0  0  2  0  0  0  0  0  0  0  0  0
   19.7159   -6.5450  -15.8080 N   0  0  0  0  0  0  0  0  0  0  0  0
   22.0396   -6.0218  -16.1434 C   0  0  0  0  0  0  0  0  0  0  0  0
   22.1055   -7.1099  -16.7926 O   0  0  0  0  0  0  0  0  0  0  0  0
   23.1157   -5.1564  -16.1855 O   0  0  0  0  0  0  0  0  0  0  0  0
  2  4  1  0
  2  1  1  0
  3  2  2  0
  5  4  1  0
  6  7  1  1
  6  5  1  0
  8  6  1  0
  9  8  2  0
 11 10  1  1
 11 13  1  0
 11 12  1  0
 12  8  1  0
 13 20  1  0
 14 13  2  0
 16 17  2  0
 16 15  1  0
 18 16  1  0
 19 18  1  1
 19 21  1  0
 20 19  1  0
 21 22  2  0
 21 23  1  0
M  END
$$$$
