QAN.pdb
     RDKit          3D

 23 22  0  0  1  0  0  0  0  0999 V2000
   15.9459  -11.1397  -17.2989 N   0  0  0  0  0  0  0  0  0  0  0  0
   16.8386  -12.2137  -17.0923 C   0  0  0  0  0  0  0  0  0  0  0  0
   16.6567  -13.3015  -17.7172 O   0  0  0  0  0  0  0  0  0  0  0  0
   17.9756  -12.1404  -16.1807 C   0  0  0  0  0  0  0  0  0  0  0  0
   18.1383  -10.8991  -15.3808 C   0  0  0  0  0  0  0  0  0  0  0  0
   19.3370  -10.0681  -15.6762 C   0  0  2  0  0  0  0  0  0  0  0  0
   20.5864  -10.7774  -15.5949 N   0  0  0  0  0  0  0  0  0  0  0  0
   19.2986   -8.8489  -14.7971 C   0  0  0  0  0  0  0  0  0  0  0  0
   19.7245   -8.8975  -13.6139 O   0  0  0  0  0  0  0  0  0  0  0  0
   18.6194   -5.2220  -15.3428 C   0  0  0  0  0  0  0  0  0  0  0  0
   18.7721   -6.3925  -14.4452 C   0  0  2  0  0  0  0  0  0  0  0  0
   18.7863   -7.6035  -15.2482 N   0  0  0  0  0  0  0  0  0  0  0  0
   17.6988   -6.5232  -13.4351 C   0  0  0  0  0  0  0  0  0  0  0  0
   16.6762   -7.1819  -13.7420 O   0  0  0  0  0  0  0  0  0  0  0  0
   14.7872   -6.5263   -9.2079 N   0  0  0  0  0  0  0  0  0  0  0  0
   16.1203   -6.3684   -8.8116 C   0  0  0  0  0  0  0  0  0  0  0  0
   16.4552   -6.4309   -7.5831 O   0  0  0  0  0  0  0  0  0  0  0  0
   17.2442   -6.1224   -9.7918 C   0  0  0  0  0  0  0  0  0  0  0  0
   16.6580   -6.1679  -11.1979 C   0  0  2  0  0  0  0  0  0  0  0  0
   17.7450   -5.9536  -12.1372 N   0  0  0  0  0  0  0  0  0  0  0  0
   15.6407   -5.1059  -11.3380 C   0  0  0  0  0  0  0  0  0  0  0  0
   15.9919   -3.9570  -11.7457 O   0  0  0  0  0  0  0  0  0  0  0  0
   14.3108   -5.3259  -11.0352 O   0  0  0  0  0  0  0  0  0  0  0  0
  2  4  1  0
  2  1  1  0
  3  2  2  0
  5  4  1  0
  6  7  1  1
  6  5  1  0
  8  6  1  0
  9  8  2  0
 11 10  1  6
 11 13  1  0
 11 12  1  0
 12  8  1  0
 13 20  1  0
 14 13  2  0
 16 17  2  0
 16 15  1  0
 18 16  1  0
 19 18  1  1
 19 21  1  0
 20 19  1  0
 21 22  2  0
 21 23  1  0
M  END
$$$$
