QAN.pdb
     RDKit          3D

 23 22  0  0  1  0  0  0  0  0999 V2000
   20.8148  -30.9724  -16.9582 N   0  0  0  0  0  0  0  0  0  0  0  0
   21.2029  -32.0118  -16.0853 C   0  0  0  0  0  0  0  0  0  0  0  0
   21.1319  -33.2140  -16.4809 O   0  0  0  0  0  0  0  0  0  0  0  0
   21.6852  -31.7745  -14.7288 C   0  0  0  0  0  0  0  0  0  0  0  0
   21.8024  -30.3644  -14.2761 C   0  0  0  0  0  0  0  0  0  0  0  0
   22.8872  -29.5540  -14.8936 C   0  0  2  0  0  0  0  0  0  0  0  0
   24.2154  -30.0419  -14.6325 N   0  0  0  0  0  0  0  0  0  0  0  0
   22.7003  -28.1193  -14.4845 C   0  0  0  0  0  0  0  0  0  0  0  0
   22.9460  -27.7509  -13.3065 O   0  0  0  0  0  0  0  0  0  0  0  0
   22.6263  -24.9337  -16.2608 C   0  0  0  0  0  0  0  0  0  0  0  0
   22.1826  -25.7074  -15.0761 C   0  0  2  0  0  0  0  0  0  0  0  0
   22.2428  -27.1251  -15.3896 N   0  0  0  0  0  0  0  0  0  0  0  0
   20.8073  -25.3932  -14.6299 C   0  0  0  0  0  0  0  0  0  0  0  0
   20.0083  -26.3460  -14.4637 O   0  0  0  0  0  0  0  0  0  0  0  0
   16.1422  -25.0475  -12.6430 N   0  0  0  0  0  0  0  0  0  0  0  0
   17.1572  -24.1104  -12.4184 C   0  0  0  0  0  0  0  0  0  0  0  0
   16.8973  -22.9583  -11.9384 O   0  0  0  0  0  0  0  0  0  0  0  0
   18.6125  -24.3897  -12.7165 C   0  0  0  0  0  0  0  0  0  0  0  0
   18.9165  -23.8538  -14.1104 C   0  0  2  0  0  0  0  0  0  0  0  0
   20.3261  -24.0839  -14.3749 N   0  0  0  0  0  0  0  0  0  0  0  0
   18.6143  -22.4084  -14.1552 C   0  0  0  0  0  0  0  0  0  0  0  0
   19.5335  -21.5719  -13.9004 O   0  0  0  0  0  0  0  0  0  0  0  0
   17.3536  -21.9366  -14.4660 O   0  0  0  0  0  0  0  0  0  0  0  0
  2  4  1  0
  2  1  1  0
  3  2  2  0
  5  4  1  0
  6  7  1  1
  6  5  1  0
  8  6  1  0
  9  8  2  0
 11 10  1  6
 11 13  1  0
 11 12  1  0
 12  8  1  0
 13 20  1  0
 14 13  2  0
 16 17  2  0
 16 15  1  0
 18 16  1  0
 19 18  1  1
 19 21  1  0
 20 19  1  0
 21 22  2  0
 21 23  1  0
M  END
$$$$
