QAN.pdb
     RDKit          3D

 23 22  0  0  1  0  0  0  0  0999 V2000
   16.4874  -11.9287  -18.8560 N   0  0  0  0  0  0  0  0  0  0  0  0
   17.3112  -11.6142  -19.9585 C   0  0  0  0  0  0  0  0  0  0  0  0
   16.9657  -11.9897  -21.1189 O   0  0  0  0  0  0  0  0  0  0  0  0
   18.5612  -10.8721  -19.8329 C   0  0  0  0  0  0  0  0  0  0  0  0
   18.9245  -10.3573  -18.4875 C   0  0  0  0  0  0  0  0  0  0  0  0
   19.7713  -11.2417  -17.6416 C   0  0  2  0  0  0  0  0  0  0  0  0
   19.1577  -12.4959  -17.2935 N   0  0  0  0  0  0  0  0  0  0  0  0
   20.2242  -10.4591  -16.4405 C   0  0  0  0  0  0  0  0  0  0  0  0
   19.3946   -9.8256  -15.7374 O   0  0  0  0  0  0  0  0  0  0  0  0
   23.4370  -10.1419  -14.5557 C   0  0  0  0  0  0  0  0  0  0  0  0
   22.0580   -9.6922  -14.8643 C   0  0  2  0  0  0  0  0  0  0  0  0
   21.5872  -10.3937  -16.0466 N   0  0  0  0  0  0  0  0  0  0  0  0
   21.9383   -8.2387  -15.1138 C   0  0  0  0  0  0  0  0  0  0  0  0
   22.1766   -7.8167  -16.2710 O   0  0  0  0  0  0  0  0  0  0  0  0
   21.1340   -3.2055  -15.0410 N   0  0  0  0  0  0  0  0  0  0  0  0
   19.9971   -3.9623  -14.7351 C   0  0  0  0  0  0  0  0  0  0  0  0
   18.8358   -3.4362  -14.7304 O   0  0  0  0  0  0  0  0  0  0  0  0
   20.0573   -5.4348  -14.3994 C   0  0  0  0  0  0  0  0  0  0  0  0
   21.5166   -5.8701  -14.4609 C   0  0  2  0  0  0  0  0  0  0  0  0
   21.5705   -7.2838  -14.1320 N   0  0  0  0  0  0  0  0  0  0  0  0
   22.3023   -5.0853  -13.4866 C   0  0  0  0  0  0  0  0  0  0  0  0
   22.4230   -5.5104  -12.2973 O   0  0  0  0  0  0  0  0  0  0  0  0
   22.9121   -3.8947  -13.8320 O   0  0  0  0  0  0  0  0  0  0  0  0
  2  4  1  0
  2  1  1  0
  3  2  2  0
  5  4  1  0
  6  7  1  1
  6  5  1  0
  8  6  1  0
  9  8  2  0
 11 10  1  6
 11 13  1  0
 11 12  1  0
 12  8  1  0
 13 20  1  0
 14 13  2  0
 16 17  2  0
 16 15  1  0
 18 16  1  0
 19 18  1  1
 19 21  1  0
 20 19  1  0
 21 22  2  0
 21 23  1  0
M  END
$$$$
