QAN.pdb
     RDKit          3D

 23 22  0  0  1  0  0  0  0  0999 V2000
   14.6366  -11.1725  -17.9472 N   0  0  0  0  0  0  0  0  0  0  0  0
   13.6219  -11.0154  -16.9783 C   0  0  0  0  0  0  0  0  0  0  0  0
   12.4150  -11.2267  -17.3032 O   0  0  0  0  0  0  0  0  0  0  0  0
   13.8904  -10.6124  -15.6019 C   0  0  0  0  0  0  0  0  0  0  0  0
   15.3047  -10.3671  -15.2192 C   0  0  0  0  0  0  0  0  0  0  0  0
   16.2496  -11.5033  -15.3951 C   0  0  2  0  0  0  0  0  0  0  0  0
   15.9668  -12.6450  -14.5660 N   0  0  0  0  0  0  0  0  0  0  0  0
   17.6510  -10.9874  -15.2212 C   0  0  0  0  0  0  0  0  0  0  0  0
   18.0887  -10.6914  -14.0790 O   0  0  0  0  0  0  0  0  0  0  0  0
   20.6548  -10.9568  -17.4111 C   0  0  0  0  0  0  0  0  0  0  0  0
   19.9536  -10.5222  -16.1789 C   0  0  2  0  0  0  0  0  0  0  0  0
   18.5357  -10.8083  -16.3178 N   0  0  0  0  0  0  0  0  0  0  0  0
   20.1044   -9.0822  -15.8740 C   0  0  0  0  0  0  0  0  0  0  0  0
   19.2204   -8.2950  -16.2895 O   0  0  0  0  0  0  0  0  0  0  0  0
   21.6516   -4.7974  -12.5267 N   0  0  0  0  0  0  0  0  0  0  0  0
   22.4037   -5.3878  -13.5489 C   0  0  0  0  0  0  0  0  0  0  0  0
   23.1829   -4.6930  -14.2805 O   0  0  0  0  0  0  0  0  0  0  0  0
   22.3549   -6.8675  -13.8537 C   0  0  0  0  0  0  0  0  0  0  0  0
   21.2155   -7.1061  -14.8373 C   0  0  2  0  0  0  0  0  0  0  0  0
   21.1833   -8.5261  -15.1407 N   0  0  0  0  0  0  0  0  0  0  0  0
   21.4588   -6.3232  -16.0663 C   0  0  0  0  0  0  0  0  0  0  0  0
   20.9429   -5.1699  -16.1822 O   0  0  0  0  0  0  0  0  0  0  0  0
   22.2339   -6.8116  -17.1003 O   0  0  0  0  0  0  0  0  0  0  0  0
  2  4  1  0
  2  1  1  0
  3  2  2  0
  5  4  1  0
  6  7  1  1
  6  5  1  0
  8  6  1  0
  9  8  2  0
 11 10  1  6
 11 13  1  0
 11 12  1  0
 12  8  1  0
 13 20  1  0
 14 13  2  0
 16 17  2  0
 16 15  1  0
 18 16  1  0
 19 18  1  1
 19 21  1  0
 20 19  1  0
 21 22  2  0
 21 23  1  0
M  END
$$$$
