QAN.pdb
     RDKit          3D

 23 22  0  0  1  0  0  0  0  0999 V2000
   28.3252  -16.8956  -16.6696 N   0  0  0  0  0  0  0  0  0  0  0  0
   27.8772  -18.0127  -17.4075 C   0  0  0  0  0  0  0  0  0  0  0  0
   27.8371  -17.9456  -18.6727 O   0  0  0  0  0  0  0  0  0  0  0  0
   27.4468  -19.2592  -16.7831 C   0  0  0  0  0  0  0  0  0  0  0  0
   27.4786  -19.3336  -15.2997 C   0  0  0  0  0  0  0  0  0  0  0  0
   27.7654  -20.6674  -14.7052 C   0  0  2  0  0  0  0  0  0  0  0  0
   28.3094  -21.6258  -15.6304 N   0  0  0  0  0  0  0  0  0  0  0  0
   26.5216  -21.1589  -14.0181 C   0  0  0  0  0  0  0  0  0  0  0  0
   25.6328  -21.7737  -14.6630 O   0  0  0  0  0  0  0  0  0  0  0  0
   25.2241  -21.0672  -10.4962 C   0  0  0  0  0  0  0  0  0  0  0  0
   25.0914  -21.3951  -11.9363 C   0  0  2  0  0  0  0  0  0  0  0  0
   26.2893  -20.9558  -12.6318 N   0  0  0  0  0  0  0  0  0  0  0  0
   23.9226  -20.7691  -12.5931 C   0  0  0  0  0  0  0  0  0  0  0  0
   24.0021  -19.5578  -12.9101 O   0  0  0  0  0  0  0  0  0  0  0  0
   22.7997  -22.6035  -16.2145 N   0  0  0  0  0  0  0  0  0  0  0  0
   22.0990  -21.4826  -15.7545 C   0  0  0  0  0  0  0  0  0  0  0  0
   22.2935  -20.3290  -16.2611 O   0  0  0  0  0  0  0  0  0  0  0  0
   21.0730  -21.5540  -14.6468 C   0  0  0  0  0  0  0  0  0  0  0  0
   21.5911  -20.7296  -13.4743 C   0  0  2  0  0  0  0  0  0  0  0  0
   22.7126  -21.4455  -12.8917 N   0  0  0  0  0  0  0  0  0  0  0  0
   20.5127  -20.5652  -12.4781 C   0  0  0  0  0  0  0  0  0  0  0  0
   20.5514  -21.2364  -11.4021 O   0  0  0  0  0  0  0  0  0  0  0  0
   19.4560  -19.6993  -12.6838 O   0  0  0  0  0  0  0  0  0  0  0  0
  2  4  1  0
  2  1  1  0
  3  2  2  0
  5  4  1  0
  6  7  1  6
  6  5  1  0
  8  6  1  0
  9  8  2  0
 11 10  1  1
 11 13  1  0
 11 12  1  0
 12  8  1  0
 13 20  1  0
 14 13  2  0
 16 17  2  0
 16 15  1  0
 18 16  1  0
 19 18  1  6
 19 21  1  0
 20 19  1  0
 21 22  2  0
 21 23  1  0
M  END
$$$$
