QAN.pdb
     RDKit          3D

 23 22  0  0  1  0  0  0  0  0999 V2000
   21.9108  -19.0868  -14.1183 N   0  0  0  0  0  0  0  0  0  0  0  0
   21.4679  -19.8024  -15.2517 C   0  0  0  0  0  0  0  0  0  0  0  0
   20.9802  -20.9629  -15.1020 O   0  0  0  0  0  0  0  0  0  0  0  0
   21.5459  -19.2725  -16.6090 C   0  0  0  0  0  0  0  0  0  0  0  0
   21.9908  -17.8647  -16.7744 C   0  0  0  0  0  0  0  0  0  0  0  0
   23.4532  -17.6427  -16.9383 C   0  0  2  0  0  0  0  0  0  0  0  0
   24.2703  -18.3312  -15.9746 N   0  0  0  0  0  0  0  0  0  0  0  0
   23.7084  -16.1614  -16.9695 C   0  0  0  0  0  0  0  0  0  0  0  0
   23.6455  -15.4772  -15.9152 O   0  0  0  0  0  0  0  0  0  0  0  0
   25.2762  -13.8046  -19.3389 C   0  0  0  0  0  0  0  0  0  0  0  0
   24.3168  -14.0485  -18.2348 C   0  0  2  0  0  0  0  0  0  0  0  0
   24.0253  -15.4706  -18.1693 N   0  0  0  0  0  0  0  0  0  0  0  0
   23.0352  -13.3226  -18.3769 C   0  0  0  0  0  0  0  0  0  0  0  0
   22.0789  -13.9158  -18.9314 O   0  0  0  0  0  0  0  0  0  0  0  0
   19.0871  -10.0612  -18.1578 N   0  0  0  0  0  0  0  0  0  0  0  0
   19.8993   -9.8510  -17.0375 C   0  0  0  0  0  0  0  0  0  0  0  0
   19.5082   -9.1241  -16.0659 O   0  0  0  0  0  0  0  0  0  0  0  0
   21.2738  -10.4630  -16.8940 C   0  0  0  0  0  0  0  0  0  0  0  0
   21.5104  -11.3706  -18.0953 C   0  0  2  0  0  0  0  0  0  0  0  0
   22.8103  -11.9965  -17.9275 N   0  0  0  0  0  0  0  0  0  0  0  0
   21.4849  -10.5620  -19.3314 C   0  0  0  0  0  0  0  0  0  0  0  0
   22.5432   -9.9762  -19.7142 O   0  0  0  0  0  0  0  0  0  0  0  0
   20.3370  -10.4218  -20.0872 O   0  0  0  0  0  0  0  0  0  0  0  0
  2  4  1  0
  2  1  1  0
  3  2  2  0
  5  4  1  0
  6  7  1  1
  6  5  1  0
  8  6  1  0
  9  8  2  0
 11 10  1  6
 11 13  1  0
 11 12  1  0
 12  8  1  0
 13 20  1  0
 14 13  2  0
 16 17  2  0
 16 15  1  0
 18 16  1  0
 19 18  1  1
 19 21  1  0
 20 19  1  0
 21 22  2  0
 21 23  1  0
M  END
$$$$
