QAN.pdb
     RDKit          3D

 23 22  0  0  1  0  0  0  0  0999 V2000
   21.2094  -12.3396  -20.2796 N   0  0  0  0  0  0  0  0  0  0  0  0
   19.8246  -12.5455  -20.4609 C   0  0  0  0  0  0  0  0  0  0  0  0
   19.4157  -13.1311  -21.5082 O   0  0  0  0  0  0  0  0  0  0  0  0
   18.8213  -12.1102  -19.4950 C   0  0  0  0  0  0  0  0  0  0  0  0
   19.2972  -11.4003  -18.2798 C   0  0  0  0  0  0  0  0  0  0  0  0
   20.1141  -12.1934  -17.3215 C   0  0  2  0  0  0  0  0  0  0  0  0
   19.4457  -13.3497  -16.7860 N   0  0  0  0  0  0  0  0  0  0  0  0
   20.6262  -11.2673  -16.2535 C   0  0  0  0  0  0  0  0  0  0  0  0
   19.8268  -10.6399  -15.5111 O   0  0  0  0  0  0  0  0  0  0  0  0
   23.9875  -10.4188  -14.8481 C   0  0  0  0  0  0  0  0  0  0  0  0
   22.5470  -10.1295  -15.0487 C   0  0  2  0  0  0  0  0  0  0  0  0
   22.0132  -11.0550  -16.0337 N   0  0  0  0  0  0  0  0  0  0  0  0
   22.2662   -8.7526  -15.5121 C   0  0  0  0  0  0  0  0  0  0  0  0
   22.3664   -8.5105  -16.7390 O   0  0  0  0  0  0  0  0  0  0  0  0
   20.8762   -3.9127  -16.2251 N   0  0  0  0  0  0  0  0  0  0  0  0
   19.8719   -4.7209  -15.6800 C   0  0  0  0  0  0  0  0  0  0  0  0
   18.6658   -4.3146  -15.6056 O   0  0  0  0  0  0  0  0  0  0  0  0
   20.1344   -6.1132  -15.1535 C   0  0  0  0  0  0  0  0  0  0  0  0
   21.6374   -6.3594  -15.2088 C   0  0  2  0  0  0  0  0  0  0  0  0
   21.8893   -7.6815  -14.6625 N   0  0  0  0  0  0  0  0  0  0  0  0
   22.3311   -5.3310  -14.4066 C   0  0  0  0  0  0  0  0  0  0  0  0
   22.5021   -5.5213  -13.1639 O   0  0  0  0  0  0  0  0  0  0  0  0
   22.8007   -4.1606  -14.9707 O   0  0  0  0  0  0  0  0  0  0  0  0
  2  4  1  0
  2  1  1  0
  3  2  2  0
  5  4  1  0
  6  7  1  1
  6  5  1  0
  8  6  1  0
  9  8  2  0
 11 10  1  6
 11 13  1  0
 11 12  1  0
 12  8  1  0
 13 20  1  0
 14 13  2  0
 16 17  2  0
 16 15  1  0
 18 16  1  0
 19 18  1  1
 19 21  1  0
 20 19  1  0
 21 22  2  0
 21 23  1  0
M  END
$$$$
