QAN.pdb
     RDKit          3D

 23 22  0  0  1  0  0  0  0  0999 V2000
   20.3284   -6.5996  -11.5093 N   0  0  0  0  0  0  0  0  0  0  0  0
   20.1208   -7.1840  -12.7776 C   0  0  0  0  0  0  0  0  0  0  0  0
   20.3479   -6.5007  -13.8209 O   0  0  0  0  0  0  0  0  0  0  0  0
   19.6474   -8.5525  -12.9562 C   0  0  0  0  0  0  0  0  0  0  0  0
   19.2910   -9.3229  -11.7370 C   0  0  0  0  0  0  0  0  0  0  0  0
   17.9061   -9.8637  -11.6713 C   0  0  2  0  0  0  0  0  0  0  0  0
   17.4755  -10.5411  -12.8656 N   0  0  0  0  0  0  0  0  0  0  0  0
   16.9802   -8.7513  -11.2641 C   0  0  0  0  0  0  0  0  0  0  0  0
   16.4324   -8.0225  -12.1316 O   0  0  0  0  0  0  0  0  0  0  0  0
   15.3298   -7.8031   -8.0519 C   0  0  0  0  0  0  0  0  0  0  0  0
   15.6579   -7.5352   -9.4730 C   0  0  2  0  0  0  0  0  0  0  0  0
   16.6841   -8.4694   -9.9039 N   0  0  0  0  0  0  0  0  0  0  0  0
   16.1475   -6.1630   -9.7316 C   0  0  0  0  0  0  0  0  0  0  0  0
   17.3357   -5.8938   -9.4321 O   0  0  0  0  0  0  0  0  0  0  0  0
   15.8775   -1.2148  -13.2770 N   0  0  0  0  0  0  0  0  0  0  0  0
   16.1220   -1.9725  -12.1259 C   0  0  0  0  0  0  0  0  0  0  0  0
   16.9450   -1.5753  -11.2369 O   0  0  0  0  0  0  0  0  0  0  0  0
   15.4374   -3.2917  -11.8511 C   0  0  0  0  0  0  0  0  0  0  0  0
   15.9280   -3.8022  -10.5015 C   0  0  2  0  0  0  0  0  0  0  0  0
   15.3643   -5.1252  -10.2976 N   0  0  0  0  0  0  0  0  0  0  0  0
   15.4773   -2.8817   -9.4375 C   0  0  0  0  0  0  0  0  0  0  0  0
   16.0409   -1.7521   -9.3116 O   0  0  0  0  0  0  0  0  0  0  0  0
   14.4561   -3.2156   -8.5691 O   0  0  0  0  0  0  0  0  0  0  0  0
  2  4  1  0
  2  1  1  0
  3  2  2  0
  5  4  1  0
  6  7  1  6
  6  5  1  0
  8  6  1  0
  9  8  2  0
 11 10  1  1
 11 13  1  0
 11 12  1  0
 12  8  1  0
 13 20  1  0
 14 13  2  0
 16 17  2  0
 16 15  1  0
 18 16  1  0
 19 18  1  6
 19 21  1  0
 20 19  1  0
 21 22  2  0
 21 23  1  0
M  END
$$$$
