DHN.pdb
     RDKit          3D

 27 27  0  0  1  0  0  0  0  0999 V2000
    9.7529  -17.5571   16.5441 N   0  0  0  0  0  0  0  0  0  0  0  0
   10.9517  -16.8230   16.3622 C   0  0  1  0  0  0  0  0  0  0  0  0
   10.8869  -15.8111   15.2483 C   0  0  0  0  0  0  0  0  0  0  0  0
   10.5037  -16.4209   13.9517 C   0  0  0  0  0  0  0  0  0  0  0  0
   10.7047  -17.6632   13.7253 O   0  0  0  0  0  0  0  0  0  0  0  0
   11.3300  -16.0807   17.6329 C   0  0  0  0  0  0  0  0  0  0  0  0
   12.3659  -15.3892   17.6587 O   0  0  0  0  0  0  0  0  0  0  0  0
    9.9159  -15.7146   12.9165 O   0  0  0  0  0  0  0  0  0  0  0  0
   10.5203  -16.1702   18.7749 N   0  0  0  0  0  0  0  0  0  0  0  0
   10.6807  -15.5911   20.0699 C   0  0  1  0  0  0  0  0  0  0  0  0
    9.3871  -15.2541   20.8059 C   0  0  0  0  0  0  0  0  0  0  0  0
    8.4877  -14.3802   20.0536 C   0  0  0  0  0  0  0  0  0  0  0  0
    8.4652  -13.0079   20.1825 C   0  0  0  0  0  0  0  0  0  0  0  0
    7.5408  -12.4781   19.3733 N   0  0  0  0  0  0  0  0  0  0  0  0
    6.9535  -13.5133   18.7089 C   0  0  0  0  0  0  0  0  0  0  0  0
    7.5351  -14.6500   19.1300 N   0  0  0  0  0  0  0  0  0  0  0  0
   11.6069  -16.2500   20.9782 C   0  0  0  0  0  0  0  0  0  0  0  0
   11.5521  -17.5294   20.9916 O   0  0  0  0  0  0  0  0  0  0  0  0
   16.4844  -17.2496   23.2283 N   0  0  0  0  0  0  0  0  0  0  0  0
   15.8988  -15.9806   23.4005 C   0  0  0  0  0  0  0  0  0  0  0  0
   16.3659  -15.2182   24.3249 O   0  0  0  0  0  0  0  0  0  0  0  0
   14.7941  -15.4175   22.6248 C   0  0  0  0  0  0  0  0  0  0  0  0
   13.5666  -16.2647   22.5728 C   0  0  2  0  0  0  0  0  0  0  0  0
   12.5282  -15.5640   21.8131 N   0  0  0  0  0  0  0  0  0  0  0  0
   13.0403  -16.6284   23.9176 C   0  0  0  0  0  0  0  0  0  0  0  0
   12.0721  -15.9704   24.4018 O   0  0  0  0  0  0  0  0  0  0  0  0
   13.5251  -17.6467   24.7092 O   0  0  0  0  0  0  0  0  0  0  0  0
  2  1  1  1
  2  3  1  0
  4  8  1  0
  4  3  1  0
  5  4  2  0
  6  7  2  0
  6  2  1  0
  9  6  1  0
 10  9  1  0
 10 11  1  1
 12 11  1  0
 12 13  2  0
 14 13  1  0
 15 14  1  0
 16 15  2  0
 16 12  1  0
 17 10  1  0
 17 18  2  0
 20 19  1  0
 20 21  2  0
 22 20  1  0
 23 24  1  0
 23 22  1  1
 24 17  1  0
 25 23  1  0
 26 25  2  0
 27 25  1  0
M  END
$$$$
