DHN.pdb
     RDKit          3D

 27 27  0  0  1  0  0  0  0  0999 V2000
    9.3905  -17.1824   20.5868 N   0  0  0  0  0  0  0  0  0  0  0  0
   10.5749  -17.2925   21.3577 C   0  0  1  0  0  0  0  0  0  0  0  0
   11.8354  -16.9923   20.5896 C   0  0  0  0  0  0  0  0  0  0  0  0
   11.8001  -17.5357   19.2100 C   0  0  0  0  0  0  0  0  0  0  0  0
   11.8708  -18.7946   18.9980 O   0  0  0  0  0  0  0  0  0  0  0  0
   10.5326  -16.3541   22.5521 C   0  0  0  0  0  0  0  0  0  0  0  0
   11.5787  -16.1107   23.1832 O   0  0  0  0  0  0  0  0  0  0  0  0
   11.6909  -16.7465   18.0781 O   0  0  0  0  0  0  0  0  0  0  0  0
    9.3238  -15.7620   22.9470 N   0  0  0  0  0  0  0  0  0  0  0  0
    9.0080  -14.9879   24.1042 C   0  0  1  0  0  0  0  0  0  0  0  0
    7.6398  -14.3121   24.0917 C   0  0  0  0  0  0  0  0  0  0  0  0
    7.3940  -13.4502   25.2472 C   0  0  0  0  0  0  0  0  0  0  0  0
    6.3987  -13.6744   26.1742 C   0  0  0  0  0  0  0  0  0  0  0  0
    6.4127  -12.7222   27.1138 N   0  0  0  0  0  0  0  0  0  0  0  0
    7.4267  -11.8675   26.7988 C   0  0  0  0  0  0  0  0  0  0  0  0
    8.0064  -12.3203   25.6733 N   0  0  0  0  0  0  0  0  0  0  0  0
    9.2378  -15.6109   25.3988 C   0  0  0  0  0  0  0  0  0  0  0  0
    8.4240  -16.5482   25.7136 O   0  0  0  0  0  0  0  0  0  0  0  0
   10.9418  -18.3815   26.0820 N   0  0  0  0  0  0  0  0  0  0  0  0
   11.9520  -17.7629   26.8434 C   0  0  0  0  0  0  0  0  0  0  0  0
   13.1110  -18.3193   26.8782 O   0  0  0  0  0  0  0  0  0  0  0  0
   11.8288  -16.5267   27.6154 C   0  0  0  0  0  0  0  0  0  0  0  0
   10.4760  -15.8974   27.5825 C   0  0  2  0  0  0  0  0  0  0  0  0
   10.2809  -15.2396   26.2881 N   0  0  0  0  0  0  0  0  0  0  0  0
   10.2527  -14.9151   28.6793 C   0  0  0  0  0  0  0  0  0  0  0  0
   10.2658  -15.3159   29.8810 O   0  0  0  0  0  0  0  0  0  0  0  0
   10.0255  -13.5677   28.5019 O   0  0  0  0  0  0  0  0  0  0  0  0
  2  1  1  6
  2  3  1  0
  4  8  1  0
  4  3  1  0
  5  4  2  0
  6  7  2  0
  6  2  1  0
  9  6  1  0
 10  9  1  0
 10 11  1  6
 12 11  1  0
 12 13  2  0
 14 13  1  0
 15 14  1  0
 16 15  2  0
 16 12  1  0
 17 10  1  0
 17 18  2  0
 20 19  1  0
 20 21  2  0
 22 20  1  0
 23 24  1  0
 23 22  1  6
 24 17  1  0
 25 23  1  0
 26 25  2  0
 27 25  1  0
M  END
$$$$
