DHN.pdb
     RDKit          3D

 27 27  0  0  1  0  0  0  0  0999 V2000
    9.6751  -18.1033   16.7625 N   0  0  0  0  0  0  0  0  0  0  0  0
   10.9893  -17.8041   17.2014 C   0  0  1  0  0  0  0  0  0  0  0  0
   11.8215  -17.0677   16.1845 C   0  0  0  0  0  0  0  0  0  0  0  0
   11.7615  -17.6964   14.8424 C   0  0  0  0  0  0  0  0  0  0  0  0
   11.3052  -18.8813   14.6920 O   0  0  0  0  0  0  0  0  0  0  0  0
   10.9591  -16.9605   18.4649 C   0  0  0  0  0  0  0  0  0  0  0  0
   11.9823  -16.3460   18.8214 O   0  0  0  0  0  0  0  0  0  0  0  0
   12.1819  -17.0685   13.6826 O   0  0  0  0  0  0  0  0  0  0  0  0
    9.7870  -16.8707   19.2305 N   0  0  0  0  0  0  0  0  0  0  0  0
    9.5581  -16.2664   20.5035 C   0  0  1  0  0  0  0  0  0  0  0  0
    8.1970  -15.5998   20.6812 C   0  0  0  0  0  0  0  0  0  0  0  0
    7.9376  -14.5194   19.7303 C   0  0  0  0  0  0  0  0  0  0  0  0
    8.8112  -14.1513   18.7296 C   0  0  0  0  0  0  0  0  0  0  0  0
    8.3080  -13.1338   18.0215 N   0  0  0  0  0  0  0  0  0  0  0  0
    7.0939  -12.8339   18.5638 C   0  0  0  0  0  0  0  0  0  0  0  0
    6.8868  -13.6769   19.5905 N   0  0  0  0  0  0  0  0  0  0  0  0
    9.8737  -17.0631   21.6793 C   0  0  0  0  0  0  0  0  0  0  0  0
    9.5285  -18.2949   21.6216 O   0  0  0  0  0  0  0  0  0  0  0  0
   14.0855  -19.2782   23.6412 N   0  0  0  0  0  0  0  0  0  0  0  0
   13.9609  -17.8816   23.5115 C   0  0  0  0  0  0  0  0  0  0  0  0
   14.9039  -17.1432   23.9800 O   0  0  0  0  0  0  0  0  0  0  0  0
   12.8537  -17.1592   22.8858 C   0  0  0  0  0  0  0  0  0  0  0  0
   11.5348  -17.3191   23.5657 C   0  0  2  0  0  0  0  0  0  0  0  0
   10.5201  -16.5541   22.8368 N   0  0  0  0  0  0  0  0  0  0  0  0
   11.5488  -16.8947   24.9931 C   0  0  0  0  0  0  0  0  0  0  0  0
   12.3451  -17.4612   25.7993 O   0  0  0  0  0  0  0  0  0  0  0  0
   10.7498  -15.9117   25.5352 O   0  0  0  0  0  0  0  0  0  0  0  0
  2  1  1  6
  2  3  1  0
  4  8  1  0
  4  3  1  0
  5  4  2  0
  6  7  2  0
  6  2  1  0
  9  6  1  0
 10  9  1  0
 10 11  1  1
 12 11  1  0
 12 13  2  0
 14 13  1  0
 15 14  1  0
 16 15  2  0
 16 12  1  0
 17 10  1  0
 17 18  2  0
 20 19  1  0
 20 21  2  0
 22 20  1  0
 23 24  1  0
 23 22  1  6
 24 17  1  0
 25 23  1  0
 26 25  2  0
 27 25  1  0
M  END
$$$$
