DHN.pdb
     RDKit          3D

 27 27  0  0  1  0  0  0  0  0999 V2000
   10.5768  -18.2818   18.4421 N   0  0  0  0  0  0  0  0  0  0  0  0
   11.4787  -17.1936   18.3346 C   0  0  1  0  0  0  0  0  0  0  0  0
   11.3531  -16.4191   17.0488 C   0  0  0  0  0  0  0  0  0  0  0  0
   11.4928  -17.2837   15.8518 C   0  0  0  0  0  0  0  0  0  0  0  0
   11.5785  -18.5544   15.9657 O   0  0  0  0  0  0  0  0  0  0  0  0
   11.2836  -16.2138   19.4795 C   0  0  0  0  0  0  0  0  0  0  0  0
   12.2772  -15.7107   20.0375 O   0  0  0  0  0  0  0  0  0  0  0  0
   11.5399  -16.7976   14.5566 O   0  0  0  0  0  0  0  0  0  0  0  0
    9.9926  -15.8740   19.9107 N   0  0  0  0  0  0  0  0  0  0  0  0
    9.5673  -15.0183   20.9714 C   0  0  1  0  0  0  0  0  0  0  0  0
    8.1529  -14.4605   20.8411 C   0  0  0  0  0  0  0  0  0  0  0  0
    7.7321  -14.2292   19.4598 C   0  0  0  0  0  0  0  0  0  0  0  0
    7.7181  -12.9886   18.8590 C   0  0  0  0  0  0  0  0  0  0  0  0
    7.2844  -13.0858   17.5971 N   0  0  0  0  0  0  0  0  0  0  0  0
    7.0125  -14.4021   17.3703 C   0  0  0  0  0  0  0  0  0  0  0  0
    7.2874  -15.0757   18.5010 N   0  0  0  0  0  0  0  0  0  0  0  0
    9.7873  -15.4906   22.3299 C   0  0  0  0  0  0  0  0  0  0  0  0
    9.3467  -14.7273   23.2589 O   0  0  0  0  0  0  0  0  0  0  0  0
   10.9191  -20.1922   25.9574 N   0  0  0  0  0  0  0  0  0  0  0  0
   10.3041  -18.9646   25.6451 C   0  0  0  0  0  0  0  0  0  0  0  0
    9.9042  -18.2228   26.6167 O   0  0  0  0  0  0  0  0  0  0  0  0
   10.0663  -18.4238   24.3071 C   0  0  0  0  0  0  0  0  0  0  0  0
   10.7131  -17.1062   24.0376 C   0  0  2  0  0  0  0  0  0  0  0  0
   10.4411  -16.7089   22.6540 N   0  0  0  0  0  0  0  0  0  0  0  0
   12.1832  -17.1081   24.2756 C   0  0  0  0  0  0  0  0  0  0  0  0
   12.9560  -17.5421   23.3704 O   0  0  0  0  0  0  0  0  0  0  0  0
   12.8000  -16.6679   25.4264 O   0  0  0  0  0  0  0  0  0  0  0  0
  2  1  1  6
  2  3  1  0
  4  8  1  0
  4  3  1  0
  5  4  2  0
  6  7  2  0
  6  2  1  0
  9  6  1  0
 10  9  1  0
 10 11  1  6
 12 11  1  0
 12 13  2  0
 14 13  1  0
 15 14  1  0
 16 15  2  0
 16 12  1  0
 17 10  1  0
 17 18  2  0
 20 19  1  0
 20 21  2  0
 22 20  1  0
 23 24  1  0
 23 22  1  6
 24 17  1  0
 25 23  1  0
 26 25  2  0
 27 25  1  0
M  END
$$$$
