DHN.pdb
     RDKit          3D

 27 27  0  0  1  0  0  0  0  0999 V2000
   11.9743  -15.9454   15.8042 N   0  0  0  0  0  0  0  0  0  0  0  0
   12.3634  -16.9506   16.7247 C   0  0  1  0  0  0  0  0  0  0  0  0
   13.7165  -17.5490   16.4420 C   0  0  0  0  0  0  0  0  0  0  0  0
   13.7645  -18.2465   15.1340 C   0  0  0  0  0  0  0  0  0  0  0  0
   13.3365  -17.6792   14.0710 O   0  0  0  0  0  0  0  0  0  0  0  0
   12.3919  -16.4046   18.1424 C   0  0  0  0  0  0  0  0  0  0  0  0
   13.4711  -16.0269   18.6368 O   0  0  0  0  0  0  0  0  0  0  0  0
   14.2614  -19.5276   14.9663 O   0  0  0  0  0  0  0  0  0  0  0  0
   11.2114  -16.3242   18.8959 N   0  0  0  0  0  0  0  0  0  0  0  0
   10.9845  -15.8060   20.2067 C   0  0  1  0  0  0  0  0  0  0  0  0
    9.5217  -15.6019   20.5904 C   0  0  0  0  0  0  0  0  0  0  0  0
    8.8553  -14.5378   19.8408 C   0  0  0  0  0  0  0  0  0  0  0  0
    9.4891  -13.7398   18.9126 C   0  0  0  0  0  0  0  0  0  0  0  0
    8.6300  -12.8556   18.3928 N   0  0  0  0  0  0  0  0  0  0  0  0
    7.4232  -13.0775   18.9862 C   0  0  0  0  0  0  0  0  0  0  0  0
    7.5765  -14.0927   19.8543 N   0  0  0  0  0  0  0  0  0  0  0  0
   11.6967  -16.4456   21.3024 C   0  0  0  0  0  0  0  0  0  0  0  0
   11.6781  -17.7261   21.3013 O   0  0  0  0  0  0  0  0  0  0  0  0
   15.0748  -17.4432   25.3464 N   0  0  0  0  0  0  0  0  0  0  0  0
   15.3217  -16.2822   24.5889 C   0  0  0  0  0  0  0  0  0  0  0  0
   16.4428  -15.6751   24.7586 O   0  0  0  0  0  0  0  0  0  0  0  0
   14.4257  -15.6763   23.6044 C   0  0  0  0  0  0  0  0  0  0  0  0
   13.1577  -16.4256   23.3636 C   0  0  2  0  0  0  0  0  0  0  0  0
   12.3812  -15.7403   22.3274 N   0  0  0  0  0  0  0  0  0  0  0  0
   12.3233  -16.5868   24.5866 C   0  0  0  0  0  0  0  0  0  0  0  0
   12.7999  -17.2065   25.5835 O   0  0  0  0  0  0  0  0  0  0  0  0
   11.0398  -16.1091   24.7387 O   0  0  0  0  0  0  0  0  0  0  0  0
  2  1  1  6
  2  3  1  0
  4  8  1  0
  4  3  1  0
  5  4  2  0
  6  7  2  0
  6  2  1  0
  9  6  1  0
 10  9  1  0
 10 11  1  1
 12 11  1  0
 12 13  2  0
 14 13  1  0
 15 14  1  0
 16 15  2  0
 16 12  1  0
 17 10  1  0
 17 18  2  0
 20 19  1  0
 20 21  2  0
 22 20  1  0
 23 24  1  0
 23 22  1  1
 24 17  1  0
 25 23  1  0
 26 25  2  0
 27 25  1  0
M  END
$$$$
