DHN.pdb
     RDKit          3D

 27 27  0  0  1  0  0  0  0  0999 V2000
    9.8899  -16.5370   14.1877 N   0  0  0  0  0  0  0  0  0  0  0  0
    9.5327  -17.3121   15.3194 C   0  0  1  0  0  0  0  0  0  0  0  0
    8.5127  -18.3824   15.0311 C   0  0  0  0  0  0  0  0  0  0  0  0
    7.6877  -18.0710   13.8385 C   0  0  0  0  0  0  0  0  0  0  0  0
    7.9233  -17.0333   13.1296 O   0  0  0  0  0  0  0  0  0  0  0  0
   10.7531  -17.9924   15.9166 C   0  0  0  0  0  0  0  0  0  0  0  0
   10.6608  -18.5719   17.0155 O   0  0  0  0  0  0  0  0  0  0  0  0
    6.6301  -18.8557   13.4121 O   0  0  0  0  0  0  0  0  0  0  0  0
   11.9808  -17.9709   15.2382 N   0  0  0  0  0  0  0  0  0  0  0  0
   13.2493  -18.5136   15.6046 C   0  0  1  0  0  0  0  0  0  0  0  0
   14.3117  -18.5031   14.5092 C   0  0  0  0  0  0  0  0  0  0  0  0
   13.9751  -19.3277   13.3493 C   0  0  0  0  0  0  0  0  0  0  0  0
   13.5871  -20.6478   13.4325 C   0  0  0  0  0  0  0  0  0  0  0  0
   13.3479  -21.1419   12.2124 N   0  0  0  0  0  0  0  0  0  0  0  0
   13.5813  -20.1357   11.3231 C   0  0  0  0  0  0  0  0  0  0  0  0
   13.9575  -19.0516   12.0238 N   0  0  0  0  0  0  0  0  0  0  0  0
   13.8286  -18.0521   16.8570 C   0  0  0  0  0  0  0  0  0  0  0  0
   13.8749  -16.7815   17.0098 O   0  0  0  0  0  0  0  0  0  0  0  0
   15.1257  -21.4197   21.2492 N   0  0  0  0  0  0  0  0  0  0  0  0
   14.5669  -20.6492   20.2115 C   0  0  0  0  0  0  0  0  0  0  0  0
   14.3045  -21.2340   19.0965 O   0  0  0  0  0  0  0  0  0  0  0  0
   14.2405  -19.2244   20.2619 C   0  0  0  0  0  0  0  0  0  0  0  0
   14.8182  -18.4077   19.1543 C   0  0  2  0  0  0  0  0  0  0  0  0
   14.3224  -18.9138   17.8720 N   0  0  0  0  0  0  0  0  0  0  0  0
   16.3073  -18.3943   19.1425 C   0  0  0  0  0  0  0  0  0  0  0  0
   16.9295  -17.9027   20.1305 O   0  0  0  0  0  0  0  0  0  0  0  0
   17.0959  -18.8826   18.1235 O   0  0  0  0  0  0  0  0  0  0  0  0
  2  1  1  6
  2  3  1  0
  4  8  1  0
  4  3  1  0
  5  4  2  0
  6  7  2  0
  6  2  1  0
  9  6  1  0
 10  9  1  0
 10 11  1  6
 12 11  1  0
 12 13  2  0
 14 13  1  0
 15 14  1  0
 16 15  2  0
 16 12  1  0
 17 10  1  0
 17 18  2  0
 20 19  1  0
 20 21  2  0
 22 20  1  0
 23 24  1  0
 23 22  1  1
 24 17  1  0
 25 23  1  0
 26 25  2  0
 27 25  1  0
M  END
$$$$
