DHN.pdb
     RDKit          3D

 27 27  0  0  1  0  0  0  0  0999 V2000
   11.1788  -17.3521   13.9983 N   0  0  0  0  0  0  0  0  0  0  0  0
   10.1629  -17.6185   14.9503 C   0  0  1  0  0  0  0  0  0  0  0  0
   10.0923  -19.0596   15.3832 C   0  0  0  0  0  0  0  0  0  0  0  0
    9.8550  -19.9810   14.2454 C   0  0  0  0  0  0  0  0  0  0  0  0
    9.9918  -21.2447   14.3840 O   0  0  0  0  0  0  0  0  0  0  0  0
   10.3566  -16.7748   16.1991 C   0  0  0  0  0  0  0  0  0  0  0  0
   11.4919  -16.6646   16.6996 O   0  0  0  0  0  0  0  0  0  0  0  0
    9.4779  -19.5580   12.9825 O   0  0  0  0  0  0  0  0  0  0  0  0
    9.2652  -16.1210   16.7901 N   0  0  0  0  0  0  0  0  0  0  0  0
    9.1814  -15.3741   18.0039 C   0  0  1  0  0  0  0  0  0  0  0  0
    7.8654  -14.6369   18.2344 C   0  0  0  0  0  0  0  0  0  0  0  0
    7.8338  -13.8526   19.4683 C   0  0  0  0  0  0  0  0  0  0  0  0
    8.4199  -12.6125   19.6048 C   0  0  0  0  0  0  0  0  0  0  0  0
    8.2311  -12.1405   20.8424 N   0  0  0  0  0  0  0  0  0  0  0  0
    7.5146  -13.0805   21.5215 C   0  0  0  0  0  0  0  0  0  0  0  0
    7.2841  -14.1035   20.6801 N   0  0  0  0  0  0  0  0  0  0  0  0
    9.5871  -16.0517   19.2259 C   0  0  0  0  0  0  0  0  0  0  0  0
    9.3398  -17.3074   19.2702 O   0  0  0  0  0  0  0  0  0  0  0  0
   11.7376  -17.2231   24.0184 N   0  0  0  0  0  0  0  0  0  0  0  0
   12.4897  -16.4423   23.1198 C   0  0  0  0  0  0  0  0  0  0  0  0
   13.7345  -16.2499   23.3796 O   0  0  0  0  0  0  0  0  0  0  0  0
   12.0029  -15.8130   21.8926 C   0  0  0  0  0  0  0  0  0  0  0  0
   10.5853  -16.1252   21.5458 C   0  0  2  0  0  0  0  0  0  0  0  0
   10.2181  -15.4071   20.3228 N   0  0  0  0  0  0  0  0  0  0  0  0
    9.6219  -15.7876   22.6301 C   0  0  0  0  0  0  0  0  0  0  0  0
    9.1069  -16.7219   23.3132 O   0  0  0  0  0  0  0  0  0  0  0  0
    9.2261  -14.5121   22.9693 O   0  0  0  0  0  0  0  0  0  0  0  0
  2  1  1  6
  2  3  1  0
  4  8  1  0
  4  3  1  0
  5  4  2  0
  6  7  2  0
  6  2  1  0
  9  6  1  0
 10  9  1  0
 10 11  1  1
 12 11  1  0
 12 13  2  0
 14 13  1  0
 15 14  1  0
 16 15  2  0
 16 12  1  0
 17 10  1  0
 17 18  2  0
 20 19  1  0
 20 21  2  0
 22 20  1  0
 23 24  1  0
 23 22  1  1
 24 17  1  0
 25 23  1  0
 26 25  2  0
 27 25  1  0
M  END
$$$$
