DHN.pdb
     RDKit          3D

 27 27  0  0  1  0  0  0  0  0999 V2000
    9.0248  -12.2018   17.6644 N   0  0  0  0  0  0  0  0  0  0  0  0
    8.3565  -13.3426   18.1753 C   0  0  1  0  0  0  0  0  0  0  0  0
    7.4569  -14.0233   17.1770 C   0  0  0  0  0  0  0  0  0  0  0  0
    8.1184  -14.2250   15.8650 C   0  0  0  0  0  0  0  0  0  0  0  0
    9.3001  -14.7080   15.7925 O   0  0  0  0  0  0  0  0  0  0  0  0
    9.3531  -14.3765   18.6721 C   0  0  0  0  0  0  0  0  0  0  0  0
    8.9467  -15.4863   19.0658 O   0  0  0  0  0  0  0  0  0  0  0  0
    7.5262  -13.9158   14.6526 O   0  0  0  0  0  0  0  0  0  0  0  0
   10.7257  -14.0878   18.6900 N   0  0  0  0  0  0  0  0  0  0  0  0
   11.8398  -14.9129   19.0310 C   0  0  1  0  0  0  0  0  0  0  0  0
   13.0886  -14.7204   18.1753 C   0  0  0  0  0  0  0  0  0  0  0  0
   12.9603  -15.2400   16.8144 C   0  0  0  0  0  0  0  0  0  0  0  0
   13.3362  -16.5121   16.4398 C   0  0  0  0  0  0  0  0  0  0  0  0
   13.1048  -16.7025   15.1359 N   0  0  0  0  0  0  0  0  0  0  0  0
   12.5723  -15.5442   14.6532 C   0  0  0  0  0  0  0  0  0  0  0  0
   12.4923  -14.6753   15.6761 N   0  0  0  0  0  0  0  0  0  0  0  0
   12.2105  -14.9746   20.4366 C   0  0  0  0  0  0  0  0  0  0  0  0
   12.8108  -13.9410   20.8961 O   0  0  0  0  0  0  0  0  0  0  0  0
   12.9046  -16.6032   25.5328 N   0  0  0  0  0  0  0  0  0  0  0  0
   11.7329  -17.0553   24.8961 C   0  0  0  0  0  0  0  0  0  0  0  0
   10.8768  -17.7108   25.5972 O   0  0  0  0  0  0  0  0  0  0  0  0
   11.3700  -16.8555   23.4934 C   0  0  0  0  0  0  0  0  0  0  0  0
   12.3851  -16.1243   22.6796 C   0  0  2  0  0  0  0  0  0  0  0  0
   11.9459  -16.0841   21.2825 N   0  0  0  0  0  0  0  0  0  0  0  0
   13.7475  -16.7207   22.7566 C   0  0  0  0  0  0  0  0  0  0  0  0
   14.0116  -17.7513   22.0688 O   0  0  0  0  0  0  0  0  0  0  0  0
   14.7801  -16.2399   23.5320 O   0  0  0  0  0  0  0  0  0  0  0  0
  2  1  1  6
  2  3  1  0
  4  8  1  0
  4  3  1  0
  5  4  2  0
  6  7  2  0
  6  2  1  0
  9  6  1  0
 10  9  1  0
 10 11  1  6
 12 11  1  0
 12 13  2  0
 14 13  1  0
 15 14  1  0
 16 15  2  0
 16 12  1  0
 17 10  1  0
 17 18  2  0
 20 19  1  0
 20 21  2  0
 22 20  1  0
 23 24  1  0
 23 22  1  1
 24 17  1  0
 25 23  1  0
 26 25  2  0
 27 25  1  0
M  END
$$$$
