DHN.pdb
     RDKit          3D

 27 27  0  0  1  0  0  0  0  0999 V2000
   12.5045  -16.3724   18.1550 N   0  0  0  0  0  0  0  0  0  0  0  0
   13.1519  -15.4282   18.9908 C   0  0  1  0  0  0  0  0  0  0  0  0
   13.4736  -14.1249   18.3075 C   0  0  0  0  0  0  0  0  0  0  0  0
   14.5663  -14.2619   17.3139 C   0  0  0  0  0  0  0  0  0  0  0  0
   14.4851  -15.1109   16.3612 O   0  0  0  0  0  0  0  0  0  0  0  0
   12.2997  -15.1085   20.2076 C   0  0  0  0  0  0  0  0  0  0  0  0
   12.7191  -14.3031   21.0604 O   0  0  0  0  0  0  0  0  0  0  0  0
   15.7244  -13.5042   17.3391 O   0  0  0  0  0  0  0  0  0  0  0  0
   11.0459  -15.7148   20.3751 N   0  0  0  0  0  0  0  0  0  0  0  0
   10.0829  -15.5741   21.4196 C   0  0  1  0  0  0  0  0  0  0  0  0
    8.6542  -15.2902   20.9648 C   0  0  0  0  0  0  0  0  0  0  0  0
    8.5395  -14.1626   20.0407 C   0  0  0  0  0  0  0  0  0  0  0  0
    8.2542  -14.2958   18.6987 C   0  0  0  0  0  0  0  0  0  0  0  0
    8.2164  -13.0959   18.1081 N   0  0  0  0  0  0  0  0  0  0  0  0
    8.4790  -12.1694   19.0727 C   0  0  0  0  0  0  0  0  0  0  0  0
    8.6708  -12.8282   20.2290 N   0  0  0  0  0  0  0  0  0  0  0  0
   10.0764  -16.5970   22.4544 C   0  0  0  0  0  0  0  0  0  0  0  0
    9.2943  -17.5894   22.2460 O   0  0  0  0  0  0  0  0  0  0  0  0
   11.6310  -20.9220   24.7220 N   0  0  0  0  0  0  0  0  0  0  0  0
   12.4733  -19.8478   24.3765 C   0  0  0  0  0  0  0  0  0  0  0  0
   13.7170  -19.9264   24.6947 O   0  0  0  0  0  0  0  0  0  0  0  0
   12.0835  -18.6241   23.6766 C   0  0  0  0  0  0  0  0  0  0  0  0
   11.1562  -17.7342   24.4353 C   0  0  2  0  0  0  0  0  0  0  0  0
   10.8662  -16.5430   23.6333 N   0  0  0  0  0  0  0  0  0  0  0  0
   11.6855  -17.3229   25.7651 C   0  0  0  0  0  0  0  0  0  0  0  0
   12.2946  -16.2174   25.8737 O   0  0  0  0  0  0  0  0  0  0  0  0
   11.5705  -18.0574   26.9253 O   0  0  0  0  0  0  0  0  0  0  0  0
  2  1  1  6
  2  3  1  0
  4  8  1  0
  4  3  1  0
  5  4  2  0
  6  7  2  0
  6  2  1  0
  9  6  1  0
 10  9  1  0
 10 11  1  6
 12 11  1  0
 12 13  2  0
 14 13  1  0
 15 14  1  0
 16 15  2  0
 16 12  1  0
 17 10  1  0
 17 18  2  0
 20 19  1  0
 20 21  2  0
 22 20  1  0
 23 24  1  0
 23 22  1  6
 24 17  1  0
 25 23  1  0
 26 25  2  0
 27 25  1  0
M  END
$$$$
