DHN.pdb
     RDKit          3D

 27 27  0  0  1  0  0  0  0  0999 V2000
    9.9940  -17.2142   15.6186 N   0  0  0  0  0  0  0  0  0  0  0  0
    9.7032  -17.9258   16.8096 C   0  0  1  0  0  0  0  0  0  0  0  0
   10.4265  -19.2417   16.9286 C   0  0  0  0  0  0  0  0  0  0  0  0
   10.1413  -20.1488   15.7903 C   0  0  0  0  0  0  0  0  0  0  0  0
    9.5621  -19.7169   14.7354 O   0  0  0  0  0  0  0  0  0  0  0  0
   10.0553  -17.0980   18.0343 C   0  0  0  0  0  0  0  0  0  0  0  0
   11.0795  -16.3891   18.0266 O   0  0  0  0  0  0  0  0  0  0  0  0
   10.4701  -21.4934   15.7809 O   0  0  0  0  0  0  0  0  0  0  0  0
    9.2344  -17.1286   19.1715 N   0  0  0  0  0  0  0  0  0  0  0  0
    9.3173  -16.3923   20.3918 C   0  0  1  0  0  0  0  0  0  0  0  0
    8.0987  -15.5384   20.7303 C   0  0  0  0  0  0  0  0  0  0  0  0
    7.7354  -14.5833   19.6843 C   0  0  0  0  0  0  0  0  0  0  0  0
    8.0847  -13.2500   19.7072 C   0  0  0  0  0  0  0  0  0  0  0  0
    7.6122  -12.6248   18.6228 N   0  0  0  0  0  0  0  0  0  0  0  0
    6.9480  -13.5578   17.8837 C   0  0  0  0  0  0  0  0  0  0  0  0
    7.0320  -14.7302   18.5366 N   0  0  0  0  0  0  0  0  0  0  0  0
    9.7528  -17.1199   21.5741 C   0  0  0  0  0  0  0  0  0  0  0  0
    9.2899  -18.3079   21.6939 O   0  0  0  0  0  0  0  0  0  0  0  0
   14.1126  -19.5513   23.2090 N   0  0  0  0  0  0  0  0  0  0  0  0
   13.9735  -18.1502   23.2295 C   0  0  0  0  0  0  0  0  0  0  0  0
   14.8571  -17.4629   23.8627 O   0  0  0  0  0  0  0  0  0  0  0  0
   12.9127  -17.3698   22.5931 C   0  0  0  0  0  0  0  0  0  0  0  0
   11.5897  -17.4294   23.2810 C   0  0  2  0  0  0  0  0  0  0  0  0
   10.6309  -16.5911   22.5569 N   0  0  0  0  0  0  0  0  0  0  0  0
   11.6440  -17.0056   24.7077 C   0  0  0  0  0  0  0  0  0  0  0  0
   12.3388  -17.6775   25.5266 O   0  0  0  0  0  0  0  0  0  0  0  0
   10.9870  -15.9157   25.2359 O   0  0  0  0  0  0  0  0  0  0  0  0
  2  1  1  6
  2  3  1  0
  4  8  1  0
  4  3  1  0
  5  4  2  0
  6  7  2  0
  6  2  1  0
  9  6  1  0
 10  9  1  0
 10 11  1  1
 12 11  1  0
 12 13  2  0
 14 13  1  0
 15 14  1  0
 16 15  2  0
 16 12  1  0
 17 10  1  0
 17 18  2  0
 20 19  1  0
 20 21  2  0
 22 20  1  0
 23 24  1  0
 23 22  1  6
 24 17  1  0
 25 23  1  0
 26 25  2  0
 27 25  1  0
M  END
$$$$
