DHN.pdb
     RDKit          3D

 27 27  0  0  1  0  0  0  0  0999 V2000
    5.6902  -24.1117   19.8973 N   0  0  0  0  0  0  0  0  0  0  0  0
    5.2976  -24.0674   21.2586 C   0  0  1  0  0  0  0  0  0  0  0  0
    5.8164  -25.2164   22.0830 C   0  0  0  0  0  0  0  0  0  0  0  0
    5.3083  -26.5270   21.6096 C   0  0  0  0  0  0  0  0  0  0  0  0
    5.4336  -26.8769   20.3862 O   0  0  0  0  0  0  0  0  0  0  0  0
    5.7706  -22.7821   21.9167 C   0  0  0  0  0  0  0  0  0  0  0  0
    6.9910  -22.5546   22.0207 O   0  0  0  0  0  0  0  0  0  0  0  0
    4.6779  -27.4463   22.4302 O   0  0  0  0  0  0  0  0  0  0  0  0
    4.8417  -21.8523   22.4071 N   0  0  0  0  0  0  0  0  0  0  0  0
    5.0437  -20.5804   23.0232 C   0  0  1  0  0  0  0  0  0  0  0  0
    4.0050  -19.5137   22.6885 C   0  0  0  0  0  0  0  0  0  0  0  0
    3.7045  -19.4065   21.2613 C   0  0  0  0  0  0  0  0  0  0  0  0
    4.4979  -18.7318   20.3583 C   0  0  0  0  0  0  0  0  0  0  0  0
    3.9708  -18.8014   19.1306 N   0  0  0  0  0  0  0  0  0  0  0  0
    2.8223  -19.5285   19.2314 C   0  0  0  0  0  0  0  0  0  0  0  0
    2.6773  -19.8847   20.5198 N   0  0  0  0  0  0  0  0  0  0  0  0
    5.3129  -20.5742   24.4531 C   0  0  0  0  0  0  0  0  0  0  0  0
    4.4808  -21.2269   25.1753 O   0  0  0  0  0  0  0  0  0  0  0  0
    9.4647  -22.9034   27.1647 N   0  0  0  0  0  0  0  0  0  0  0  0
    8.1154  -22.5008   27.1543 C   0  0  0  0  0  0  0  0  0  0  0  0
    7.4163  -22.6974   28.2158 O   0  0  0  0  0  0  0  0  0  0  0  0
    7.4033  -21.8659   26.0457 C   0  0  0  0  0  0  0  0  0  0  0  0
    7.0844  -20.4221   26.2481 C   0  0  2  0  0  0  0  0  0  0  0  0
    6.4114  -19.9044   25.0543 N   0  0  0  0  0  0  0  0  0  0  0  0
    8.2810  -19.5874   26.5470 C   0  0  0  0  0  0  0  0  0  0  0  0
    8.6431  -19.4338   27.7512 O   0  0  0  0  0  0  0  0  0  0  0  0
    9.0549  -18.9459   25.6045 O   0  0  0  0  0  0  0  0  0  0  0  0
  2  1  1  6
  2  3  1  0
  4  8  1  0
  4  3  1  0
  5  4  2  0
  6  7  2  0
  6  2  1  0
  9  6  1  0
 10  9  1  0
 10 11  1  1
 12 11  1  0
 12 13  2  0
 14 13  1  0
 15 14  1  0
 16 15  2  0
 16 12  1  0
 17 10  1  0
 17 18  2  0
 20 19  1  0
 20 21  2  0
 22 20  1  0
 23 24  1  0
 23 22  1  6
 24 17  1  0
 25 23  1  0
 26 25  2  0
 27 25  1  0
M  END
$$$$
