ITT.pdb
     RDKit          3D

 23 22  0  0  1  0  0  0  0  0999 V2000
    7.1872  -11.7031   18.3209 C   0  0  0  0  0  0  0  0  0  0  0  0
    7.9896  -12.9198   17.9130 C   0  0  0  0  0  0  0  0  0  0  0  0
    8.0541  -13.9232   19.0409 C   0  0  2  0  0  0  0  0  0  0  0  0
    8.6014  -13.2652   20.2515 C   0  0  0  0  0  0  0  0  0  0  0  0
    8.8085  -15.1422   18.5946 C   0  0  2  0  0  0  0  0  0  0  0  0
    8.2110  -15.5956   17.3549 N   0  0  0  0  0  0  0  0  0  0  0  0
    8.8387  -16.2087   19.6168 C   0  0  0  0  0  0  0  0  0  0  0  0
    7.9404  -17.0315   19.8173 O   0  0  0  0  0  0  0  0  0  0  0  0
   12.4284  -17.7064   20.8753 C   0  0  0  0  0  0  0  0  0  0  0  0
   11.1010  -18.3463   21.2061 C   0  0  1  0  0  0  0  0  0  0  0  0
   11.1709  -19.2498   22.2280 O   0  0  0  0  0  0  0  0  0  0  0  0
   10.0403  -17.3074   21.5267 C   0  0  2  0  0  0  0  0  0  0  0  0
   10.0032  -16.2995   20.4453 N   0  0  0  0  0  0  0  0  0  0  0  0
   10.2288  -16.6531   22.8298 C   0  0  0  0  0  0  0  0  0  0  0  0
   11.0459  -15.6882   22.9340 O   0  0  0  0  0  0  0  0  0  0  0  0
    8.0078  -14.5998   24.8154 C   0  0  0  0  0  0  0  0  0  0  0  0
    8.4032  -15.7495   25.6893 C   0  0  1  0  0  0  0  0  0  0  0  0
    7.4262  -16.7443   25.5351 O   0  0  0  0  0  0  0  0  0  0  0  0
    9.7208  -16.3659   25.2777 C   0  0  2  0  0  0  0  0  0  0  0  0
    9.5431  -17.0355   24.0039 N   0  0  0  0  0  0  0  0  0  0  0  0
   10.2055  -17.3550   26.2609 C   0  0  0  0  0  0  0  0  0  0  0  0
   10.6285  -17.0178   27.5376 O   0  0  0  0  0  0  0  0  0  0  0  0
   10.2427  -18.5651   25.9408 O   0  0  0  0  0  0  0  0  0  0  0  0
  1  2  1  0
  3  2  1  0
  3  5  1  0
  3  4  1  1
  5  7  1  0
  5  6  1  6
  7  8  2  0
  7 13  1  0
 10  9  1  1
 11 10  1  0
 12 14  1  0
 12 10  1  0
 12 13  1  6
 14 15  2  0
 17 19  1  0
 17 16  1  6
 17 18  1  0
 19 20  1  6
 20 14  1  0
 21 22  1  0
 21 19  1  0
 23 21  2  0
M  END
$$$$
