ITT.pdb
     RDKit          3D

 23 22  0  0  1  0  0  0  0  0999 V2000
    6.8751  -11.7474   27.5596 C   0  0  0  0  0  0  0  0  0  0  0  0
    6.2467  -12.9309   26.8561 C   0  0  0  0  0  0  0  0  0  0  0  0
    7.2598  -13.6386   25.9867 C   0  0  2  0  0  0  0  0  0  0  0  0
    7.8775  -12.6609   25.0590 C   0  0  0  0  0  0  0  0  0  0  0  0
    6.6186  -14.8196   25.3170 C   0  0  2  0  0  0  0  0  0  0  0  0
    6.0228  -15.6386   26.3532 N   0  0  0  0  0  0  0  0  0  0  0  0
    7.5602  -15.5884   24.4770 C   0  0  0  0  0  0  0  0  0  0  0  0
    8.2960  -16.4958   24.8760 O   0  0  0  0  0  0  0  0  0  0  0  0
    9.1184  -16.4628   19.8090 C   0  0  0  0  0  0  0  0  0  0  0  0
    8.1617  -15.7814   20.7584 C   0  0  1  0  0  0  0  0  0  0  0  0
    6.8580  -16.1433   20.5719 O   0  0  0  0  0  0  0  0  0  0  0  0
    8.5453  -16.0179   22.2090 C   0  0  2  0  0  0  0  0  0  0  0  0
    7.6286  -15.2575   23.0854 N   0  0  0  0  0  0  0  0  0  0  0  0
    9.9431  -15.6787   22.5135 C   0  0  0  0  0  0  0  0  0  0  0  0
   10.2049  -14.6129   23.1498 O   0  0  0  0  0  0  0  0  0  0  0  0
   11.7542  -17.8120   24.6271 C   0  0  0  0  0  0  0  0  0  0  0  0
   12.2668  -16.4688   24.2087 C   0  0  1  0  0  0  0  0  0  0  0  0
   13.5695  -16.3449   24.7141 O   0  0  0  0  0  0  0  0  0  0  0  0
   12.3670  -16.3271   22.7070 C   0  0  2  0  0  0  0  0  0  0  0  0
   11.0429  -16.4807   22.1362 N   0  0  0  0  0  0  0  0  0  0  0  0
   13.2538  -17.3444   22.1083 C   0  0  0  0  0  0  0  0  0  0  0  0
   14.6266  -17.1874   21.9929 O   0  0  0  0  0  0  0  0  0  0  0  0
   12.7560  -18.4099   21.6778 O   0  0  0  0  0  0  0  0  0  0  0  0
  1  2  1  0
  3  2  1  0
  3  5  1  0
  3  4  1  6
  5  7  1  0
  5  6  1  1
  7  8  2  0
  7 13  1  0
 10  9  1  6
 11 10  1  0
 12 14  1  0
 12 10  1  0
 12 13  1  1
 14 15  2  0
 17 19  1  0
 17 16  1  6
 17 18  1  0
 19 20  1  6
 20 14  1  0
 21 22  1  0
 21 19  1  0
 23 21  2  0
M  END
$$$$
