ITT.pdb
     RDKit          3D

 23 22  0  0  1  0  0  0  0  0999 V2000
    5.7926  -10.7543   26.4012 C   0  0  0  0  0  0  0  0  0  0  0  0
    5.4998  -12.0351   25.6501 C   0  0  0  0  0  0  0  0  0  0  0  0
    6.6612  -12.9962   25.7546 C   0  0  2  0  0  0  0  0  0  0  0  0
    7.8715  -12.3672   25.1736 C   0  0  0  0  0  0  0  0  0  0  0  0
    6.2859  -14.3156   25.1441 C   0  0  2  0  0  0  0  0  0  0  0  0
    4.9926  -14.6916   25.6784 N   0  0  0  0  0  0  0  0  0  0  0  0
    7.3026  -15.3645   25.3664 C   0  0  0  0  0  0  0  0  0  0  0  0
    7.4188  -16.0404   26.3930 O   0  0  0  0  0  0  0  0  0  0  0  0
    8.6032  -17.5183   22.1603 C   0  0  0  0  0  0  0  0  0  0  0  0
    9.7269  -17.1223   23.0884 C   0  0  1  0  0  0  0  0  0  0  0  0
   10.5161  -16.1232   22.5939 O   0  0  0  0  0  0  0  0  0  0  0  0
    9.2092  -16.7209   24.4589 C   0  0  2  0  0  0  0  0  0  0  0  0
    8.2314  -15.6219   24.3074 N   0  0  0  0  0  0  0  0  0  0  0  0
   10.2696  -16.3361   25.4017 C   0  0  0  0  0  0  0  0  0  0  0  0
   10.7214  -15.1507   25.3866 O   0  0  0  0  0  0  0  0  0  0  0  0
   11.4336  -15.4900   29.6164 C   0  0  0  0  0  0  0  0  0  0  0  0
   10.8078  -15.8002   28.2921 C   0  0  1  0  0  0  0  0  0  0  0  0
   10.7566  -14.6015   27.5653 O   0  0  0  0  0  0  0  0  0  0  0  0
   11.6293  -16.7706   27.4743 C   0  0  2  0  0  0  0  0  0  0  0  0
   10.8334  -17.2197   26.3485 N   0  0  0  0  0  0  0  0  0  0  0  0
   12.0388  -17.9534   28.2573 C   0  0  0  0  0  0  0  0  0  0  0  0
   13.0427  -17.9255   29.2133 O   0  0  0  0  0  0  0  0  0  0  0  0
   11.4593  -19.0458   28.0598 O   0  0  0  0  0  0  0  0  0  0  0  0
  1  2  1  0
  3  2  1  0
  3  5  1  0
  3  4  1  6
  5  7  1  0
  5  6  1  1
  7  8  2  0
  7 13  1  0
 10  9  1  6
 11 10  1  0
 12 14  1  0
 12 10  1  0
 12 13  1  6
 14 15  2  0
 17 19  1  0
 17 16  1  1
 17 18  1  0
 19 20  1  6
 20 14  1  0
 21 22  1  0
 21 19  1  0
 23 21  2  0
M  END
$$$$
