ITT.pdb
     RDKit          3D

 23 22  0  0  1  0  0  0  0  0999 V2000
    6.4323  -11.9112   25.1885 C   0  0  0  0  0  0  0  0  0  0  0  0
    6.5286  -13.2151   24.4263 C   0  0  0  0  0  0  0  0  0  0  0  0
    7.5978  -13.1368   23.3614 C   0  0  2  0  0  0  0  0  0  0  0  0
    7.3042  -12.0010   22.4548 C   0  0  0  0  0  0  0  0  0  0  0  0
    7.7326  -14.4665   22.6773 C   0  0  2  0  0  0  0  0  0  0  0  0
    6.4547  -14.7754   22.0682 N   0  0  0  0  0  0  0  0  0  0  0  0
    8.1865  -15.5397   23.5858 C   0  0  0  0  0  0  0  0  0  0  0  0
    7.4507  -16.2407   24.2868 O   0  0  0  0  0  0  0  0  0  0  0  0
   10.1043  -18.4130   22.4726 C   0  0  0  0  0  0  0  0  0  0  0  0
   10.9097  -17.8506   23.6197 C   0  0  1  0  0  0  0  0  0  0  0  0
   12.0457  -17.2043   23.2231 O   0  0  0  0  0  0  0  0  0  0  0  0
   10.0795  -16.9195   24.4864 C   0  0  2  0  0  0  0  0  0  0  0  0
    9.5941  -15.7913   23.6629 N   0  0  0  0  0  0  0  0  0  0  0  0
   10.7945  -16.4190   25.6695 C   0  0  0  0  0  0  0  0  0  0  0  0
   11.5992  -15.4455   25.5499 O   0  0  0  0  0  0  0  0  0  0  0  0
   10.3804  -14.1954   28.1023 C   0  0  0  0  0  0  0  0  0  0  0  0
   10.5397  -15.4788   28.8568 C   0  0  1  0  0  0  0  0  0  0  0  0
    9.2626  -16.0435   28.9913 O   0  0  0  0  0  0  0  0  0  0  0  0
   11.3860  -16.4879   28.1146 C   0  0  2  0  0  0  0  0  0  0  0  0
   10.6417  -16.9625   26.9643 N   0  0  0  0  0  0  0  0  0  0  0  0
   11.7353  -17.6499   28.9559 C   0  0  0  0  0  0  0  0  0  0  0  0
   11.2384  -18.9260   28.7390 O   0  0  0  0  0  0  0  0  0  0  0  0
   12.5196  -17.4913   29.9192 O   0  0  0  0  0  0  0  0  0  0  0  0
  1  2  1  0
  3  2  1  0
  3  5  1  0
  3  4  1  6
  5  7  1  0
  5  6  1  1
  7  8  2  0
  7 13  1  0
 10  9  1  6
 11 10  1  0
 12 14  1  0
 12 10  1  0
 12 13  1  6
 14 15  2  0
 17 19  1  0
 17 16  1  6
 17 18  1  0
 19 20  1  6
 20 14  1  0
 21 22  1  0
 21 19  1  0
 23 21  2  0
M  END
$$$$
