ITT.pdb
     RDKit          3D

 23 22  0  0  1  0  0  0  0  0999 V2000
    6.7186  -11.0943   27.6028 C   0  0  0  0  0  0  0  0  0  0  0  0
    5.9532  -12.1174   26.7917 C   0  0  0  0  0  0  0  0  0  0  0  0
    6.8989  -13.0798   26.1115 C   0  0  2  0  0  0  0  0  0  0  0  0
    7.8773  -12.3151   25.3014 C   0  0  0  0  0  0  0  0  0  0  0  0
    6.1157  -14.1058   25.3445 C   0  0  2  0  0  0  0  0  0  0  0  0
    5.1898  -14.7285   26.2687 N   0  0  0  0  0  0  0  0  0  0  0  0
    6.9742  -15.0996   24.6674 C   0  0  0  0  0  0  0  0  0  0  0  0
    7.3513  -16.1687   25.1563 O   0  0  0  0  0  0  0  0  0  0  0  0
    8.4179  -14.0559   20.8161 C   0  0  0  0  0  0  0  0  0  0  0  0
    8.1224  -15.5082   21.1068 C   0  0  1  0  0  0  0  0  0  0  0  0
    8.9315  -16.3754   20.4296 O   0  0  0  0  0  0  0  0  0  0  0  0
    8.1961  -15.8102   22.5936 C   0  0  2  0  0  0  0  0  0  0  0  0
    7.4068  -14.8032   23.3349 N   0  0  0  0  0  0  0  0  0  0  0  0
    9.5686  -15.8711   23.1169 C   0  0  0  0  0  0  0  0  0  0  0  0
   10.1178  -14.8164   23.5593 O   0  0  0  0  0  0  0  0  0  0  0  0
   13.2463  -18.6071   24.9608 C   0  0  0  0  0  0  0  0  0  0  0  0
   11.8719  -18.4455   24.3892 C   0  0  1  0  0  0  0  0  0  0  0  0
   10.9679  -18.4905   25.4609 O   0  0  0  0  0  0  0  0  0  0  0  0
   11.6779  -17.1081   23.7117 C   0  0  2  0  0  0  0  0  0  0  0  0
   10.3370  -17.0554   23.1624 N   0  0  0  0  0  0  0  0  0  0  0  0
   12.6408  -16.8941   22.6131 C   0  0  0  0  0  0  0  0  0  0  0  0
   13.8146  -16.1704   22.7572 O   0  0  0  0  0  0  0  0  0  0  0  0
   12.3994  -17.3852   21.4866 O   0  0  0  0  0  0  0  0  0  0  0  0
  1  2  1  0
  3  2  1  0
  3  5  1  0
  3  4  1  6
  5  7  1  0
  5  6  1  1
  7  8  2  0
  7 13  1  0
 10  9  1  1
 11 10  1  0
 12 14  1  0
 12 10  1  0
 12 13  1  1
 14 15  2  0
 17 19  1  0
 17 16  1  1
 17 18  1  0
 19 20  1  6
 20 14  1  0
 21 22  1  0
 21 19  1  0
 23 21  2  0
M  END
$$$$
