ITT.pdb
     RDKit          3D

 23 22  0  0  1  0  0  0  0  0999 V2000
    7.7859  -11.9071   18.3638 C   0  0  0  0  0  0  0  0  0  0  0  0
    8.2838  -13.3213   18.5704 C   0  0  0  0  0  0  0  0  0  0  0  0
    7.8892  -13.8353   19.9355 C   0  0  2  0  0  0  0  0  0  0  0  0
    8.3964  -12.9069   20.9742 C   0  0  0  0  0  0  0  0  0  0  0  0
    8.3401  -15.2588   20.0928 C   0  0  2  0  0  0  0  0  0  0  0  0
    7.7056  -16.0356   19.0471 N   0  0  0  0  0  0  0  0  0  0  0  0
    8.0616  -15.8075   21.4361 C   0  0  0  0  0  0  0  0  0  0  0  0
    6.9635  -16.2129   21.8284 O   0  0  0  0  0  0  0  0  0  0  0  0
    9.5507  -18.1273   25.3940 C   0  0  0  0  0  0  0  0  0  0  0  0
    9.7727  -17.5760   24.0056 C   0  0  1  0  0  0  0  0  0  0  0  0
    9.5828  -18.4979   23.0160 O   0  0  0  0  0  0  0  0  0  0  0  0
    8.8988  -16.3632   23.7359 C   0  0  2  0  0  0  0  0  0  0  0  0
    9.1514  -15.8766   22.3625 N   0  0  0  0  0  0  0  0  0  0  0  0
    9.0831  -15.2744   24.7065 C   0  0  0  0  0  0  0  0  0  0  0  0
   10.1198  -14.5460   24.6415 O   0  0  0  0  0  0  0  0  0  0  0  0
    6.5869  -12.4043   25.5501 C   0  0  0  0  0  0  0  0  0  0  0  0
    6.9808  -13.1587   26.7820 C   0  0  1  0  0  0  0  0  0  0  0  0
    6.0221  -14.1638   26.9785 O   0  0  0  0  0  0  0  0  0  0  0  0
    8.3158  -13.8529   26.6362 C   0  0  2  0  0  0  0  0  0  0  0  0
    8.1594  -14.9762   25.7327 N   0  0  0  0  0  0  0  0  0  0  0  0
    8.8253  -14.3594   27.9261 C   0  0  0  0  0  0  0  0  0  0  0  0
    9.2868  -13.5350   28.9410 O   0  0  0  0  0  0  0  0  0  0  0  0
    8.8485  -15.5948   28.1297 O   0  0  0  0  0  0  0  0  0  0  0  0
  1  2  1  0
  3  2  1  0
  3  5  1  0
  3  4  1  1
  5  7  1  0
  5  6  1  6
  7  8  2  0
  7 13  1  0
 10  9  1  1
 11 10  1  0
 12 14  1  0
 12 10  1  0
 12 13  1  6
 14 15  2  0
 17 19  1  0
 17 16  1  6
 17 18  1  0
 19 20  1  6
 20 14  1  0
 21 22  1  0
 21 19  1  0
 23 21  2  0
M  END
$$$$
