ITT.pdb
     RDKit          3D

 23 22  0  0  1  0  0  0  0  0999 V2000
    7.1718  -11.5090   27.5145 C   0  0  0  0  0  0  0  0  0  0  0  0
    7.0368  -13.0161   27.4849 C   0  0  0  0  0  0  0  0  0  0  0  0
    7.3971  -13.5608   26.1223 C   0  0  2  0  0  0  0  0  0  0  0  0
    6.5313  -12.9294   25.0976 C   0  0  0  0  0  0  0  0  0  0  0  0
    7.3491  -15.0613   26.1454 C   0  0  2  0  0  0  0  0  0  0  0  0
    7.8709  -15.4949   27.4257 N   0  0  0  0  0  0  0  0  0  0  0  0
    8.0724  -15.6794   25.0149 C   0  0  0  0  0  0  0  0  0  0  0  0
    9.2922  -15.8626   24.9621 O   0  0  0  0  0  0  0  0  0  0  0  0
    8.5863  -18.8146   23.9173 C   0  0  0  0  0  0  0  0  0  0  0  0
    7.8355  -18.2034   22.7581 C   0  0  1  0  0  0  0  0  0  0  0  0
    6.5069  -18.5195   22.7415 O   0  0  0  0  0  0  0  0  0  0  0  0
    7.9923  -16.6930   22.7204 C   0  0  2  0  0  0  0  0  0  0  0  0
    7.2999  -16.1022   23.8858 N   0  0  0  0  0  0  0  0  0  0  0  0
    7.5106  -16.0798   21.4741 C   0  0  0  0  0  0  0  0  0  0  0  0
    6.3883  -15.4884   21.4598 O   0  0  0  0  0  0  0  0  0  0  0  0
    8.1107  -12.7183   18.6526 C   0  0  0  0  0  0  0  0  0  0  0  0
    8.1312  -13.7591   19.7287 C   0  0  1  0  0  0  0  0  0  0  0  0
    7.0114  -13.5366   20.5438 O   0  0  0  0  0  0  0  0  0  0  0  0
    8.0001  -15.1625   19.1823 C   0  0  2  0  0  0  0  0  0  0  0  0
    8.2321  -16.1045   20.2600 N   0  0  0  0  0  0  0  0  0  0  0  0
    8.9736  -15.4358   18.1064 C   0  0  0  0  0  0  0  0  0  0  0  0
   10.0232  -16.3323   18.2365 O   0  0  0  0  0  0  0  0  0  0  0  0
    8.8591  -14.8349   17.0136 O   0  0  0  0  0  0  0  0  0  0  0  0
  1  2  1  0
  3  2  1  0
  3  5  1  0
  3  4  1  6
  5  7  1  0
  5  6  1  1
  7  8  2  0
  7 13  1  0
 10  9  1  1
 11 10  1  0
 12 14  1  0
 12 10  1  0
 12 13  1  1
 14 15  2  0
 17 19  1  0
 17 16  1  6
 17 18  1  0
 19 20  1  1
 20 14  1  0
 21 22  1  0
 21 19  1  0
 23 21  2  0
M  END
$$$$
