ITT.pdb
     RDKit          3D

 23 22  0  0  1  0  0  0  0  0999 V2000
    7.2039  -11.9256   19.7356 C   0  0  0  0  0  0  0  0  0  0  0  0
    7.4260  -13.4198   19.6436 C   0  0  0  0  0  0  0  0  0  0  0  0
    8.8798  -13.7308   19.3732 C   0  0  2  0  0  0  0  0  0  0  0  0
    9.2909  -13.0856   18.1032 C   0  0  0  0  0  0  0  0  0  0  0  0
    9.1000  -15.2152   19.4223 C   0  0  2  0  0  0  0  0  0  0  0  0
    8.3495  -15.8040   18.3317 N   0  0  0  0  0  0  0  0  0  0  0  0
    8.7398  -15.8094   20.7262 C   0  0  0  0  0  0  0  0  0  0  0  0
    7.6460  -16.3093   21.0055 O   0  0  0  0  0  0  0  0  0  0  0  0
    9.7877  -18.7040   22.2126 C   0  0  0  0  0  0  0  0  0  0  0  0
   10.1681  -17.6839   23.2594 C   0  0  1  0  0  0  0  0  0  0  0  0
   11.5080  -17.4232   23.3051 O   0  0  0  0  0  0  0  0  0  0  0  0
    9.4093  -16.3808   23.0765 C   0  0  2  0  0  0  0  0  0  0  0  0
    9.7375  -15.8078   21.7534 N   0  0  0  0  0  0  0  0  0  0  0  0
    9.6624  -15.3956   24.1379 C   0  0  0  0  0  0  0  0  0  0  0  0
   10.5917  -14.5440   23.9936 O   0  0  0  0  0  0  0  0  0  0  0  0
    7.8959  -12.4777   25.4787 C   0  0  0  0  0  0  0  0  0  0  0  0
    8.0305  -13.4756   26.5869 C   0  0  1  0  0  0  0  0  0  0  0  0
    6.8864  -14.2867   26.5575 O   0  0  0  0  0  0  0  0  0  0  0  0
    9.2187  -14.3918   26.4026 C   0  0  2  0  0  0  0  0  0  0  0  0
    8.9210  -15.3307   25.3384 N   0  0  0  0  0  0  0  0  0  0  0  0
    9.5285  -15.1571   27.6266 C   0  0  0  0  0  0  0  0  0  0  0  0
    9.9801  -14.5711   28.7993 O   0  0  0  0  0  0  0  0  0  0  0  0
    9.3810  -16.4007   27.6218 O   0  0  0  0  0  0  0  0  0  0  0  0
  1  2  1  0
  3  2  1  0
  3  5  1  0
  3  4  1  6
  5  7  1  0
  5  6  1  6
  7  8  2  0
  7 13  1  0
 10  9  1  6
 11 10  1  0
 12 14  1  0
 12 10  1  0
 12 13  1  6
 14 15  2  0
 17 19  1  0
 17 16  1  6
 17 18  1  0
 19 20  1  6
 20 14  1  0
 21 22  1  0
 21 19  1  0
 23 21  2  0
M  END
$$$$
