ITT.pdb
     RDKit          3D

 23 22  0  0  1  0  0  0  0  0999 V2000
    7.3889  -11.9531   19.1767 C   0  0  0  0  0  0  0  0  0  0  0  0
    8.0684  -13.3037   19.2450 C   0  0  0  0  0  0  0  0  0  0  0  0
    7.9412  -13.8993   20.6279 C   0  0  2  0  0  0  0  0  0  0  0  0
    8.4704  -12.9388   21.6257 C   0  0  0  0  0  0  0  0  0  0  0  0
    8.5862  -15.2548   20.6592 C   0  0  2  0  0  0  0  0  0  0  0  0
    7.9940  -16.0445   19.5985 N   0  0  0  0  0  0  0  0  0  0  0  0
    8.4706  -15.9189   21.9741 C   0  0  0  0  0  0  0  0  0  0  0  0
    7.4269  -16.3655   22.4593 O   0  0  0  0  0  0  0  0  0  0  0  0
    9.4853  -19.0025   23.1404 C   0  0  0  0  0  0  0  0  0  0  0  0
   10.2373  -18.0535   24.0431 C   0  0  1  0  0  0  0  0  0  0  0  0
   11.5541  -17.9118   23.7095 O   0  0  0  0  0  0  0  0  0  0  0  0
    9.5816  -16.6841   24.0903 C   0  0  2  0  0  0  0  0  0  0  0  0
    9.6640  -16.0583   22.7531 N   0  0  0  0  0  0  0  0  0  0  0  0
   10.1516  -15.7908   25.1094 C   0  0  0  0  0  0  0  0  0  0  0  0
   11.0844  -14.9919   24.7912 O   0  0  0  0  0  0  0  0  0  0  0  0
    9.0994  -12.8051   26.7189 C   0  0  0  0  0  0  0  0  0  0  0  0
    9.2779  -13.8189   27.8061 C   0  0  1  0  0  0  0  0  0  0  0  0
    8.0492  -14.4760   27.9679 O   0  0  0  0  0  0  0  0  0  0  0  0
   10.2952  -14.8792   27.4507 C   0  0  2  0  0  0  0  0  0  0  0  0
    9.7191  -15.7605   26.4537 N   0  0  0  0  0  0  0  0  0  0  0  0
   10.6873  -15.6908   28.6200 C   0  0  0  0  0  0  0  0  0  0  0  0
   11.3757  -15.1779   29.7088 O   0  0  0  0  0  0  0  0  0  0  0  0
   10.3901  -16.9071   28.6452 O   0  0  0  0  0  0  0  0  0  0  0  0
  1  2  1  0
  3  2  1  0
  3  5  1  0
  3  4  1  1
  5  7  1  0
  5  6  1  6
  7  8  2  0
  7 13  1  0
 10  9  1  6
 11 10  1  0
 12 14  1  0
 12 10  1  0
 12 13  1  6
 14 15  2  0
 17 19  1  0
 17 16  1  6
 17 18  1  0
 19 20  1  6
 20 14  1  0
 21 22  1  0
 21 19  1  0
 23 21  2  0
M  END
$$$$
