ITT.pdb
     RDKit          3D

 23 22  0  0  1  0  0  0  0  0999 V2000
    7.2230  -11.9949   19.4576 C   0  0  0  0  0  0  0  0  0  0  0  0
    8.1628  -13.1800   19.4051 C   0  0  0  0  0  0  0  0  0  0  0  0
    8.0949  -13.9762   20.6876 C   0  0  2  0  0  0  0  0  0  0  0  0
    8.4430  -13.0968   21.8294 C   0  0  0  0  0  0  0  0  0  0  0  0
    8.9418  -15.2100   20.5657 C   0  0  2  0  0  0  0  0  0  0  0  0
    8.5260  -15.9079   19.3659 N   0  0  0  0  0  0  0  0  0  0  0  0
    8.8753  -16.0763   21.7608 C   0  0  0  0  0  0  0  0  0  0  0  0
    8.2034  -17.1073   21.8591 O   0  0  0  0  0  0  0  0  0  0  0  0
    9.3809  -18.5610   22.5808 C   0  0  0  0  0  0  0  0  0  0  0  0
   10.2095  -17.9410   23.6808 C   0  0  1  0  0  0  0  0  0  0  0  0
   11.5351  -17.8331   23.3701 O   0  0  0  0  0  0  0  0  0  0  0  0
    9.6765  -16.5774   24.0857 C   0  0  2  0  0  0  0  0  0  0  0  0
    9.6519  -15.6927   22.9011 N   0  0  0  0  0  0  0  0  0  0  0  0
   10.4323  -15.9483   25.1787 C   0  0  0  0  0  0  0  0  0  0  0  0
   11.4908  -15.3001   24.9163 O   0  0  0  0  0  0  0  0  0  0  0  0
    9.6229  -13.0912   26.9148 C   0  0  0  0  0  0  0  0  0  0  0  0
    9.7839  -14.1190   27.9916 C   0  0  1  0  0  0  0  0  0  0  0  0
    8.5200  -14.6828   28.2207 O   0  0  0  0  0  0  0  0  0  0  0  0
   10.6981  -15.2512   27.5821 C   0  0  2  0  0  0  0  0  0  0  0  0
   10.0490  -16.0178   26.5364 N   0  0  0  0  0  0  0  0  0  0  0  0
   11.0004  -16.1589   28.7066 C   0  0  0  0  0  0  0  0  0  0  0  0
   11.7513  -15.7832   29.8100 O   0  0  0  0  0  0  0  0  0  0  0  0
   10.5634  -17.3321   28.6776 O   0  0  0  0  0  0  0  0  0  0  0  0
  1  2  1  0
  3  2  1  0
  3  5  1  0
  3  4  1  1
  5  7  1  0
  5  6  1  6
  7  8  2  0
  7 13  1  0
 10  9  1  6
 11 10  1  0
 12 14  1  0
 12 10  1  0
 12 13  1  6
 14 15  2  0
 17 19  1  0
 17 16  1  6
 17 18  1  0
 19 20  1  6
 20 14  1  0
 21 22  1  0
 21 19  1  0
 23 21  2  0
M  END
$$$$
