ITT.pdb
     RDKit          3D

 23 22  0  0  1  0  0  0  0  0999 V2000
    8.3942  -11.7927   20.0235 C   0  0  0  0  0  0  0  0  0  0  0  0
    8.1858  -13.1142   19.3160 C   0  0  0  0  0  0  0  0  0  0  0  0
    9.4955  -13.8510   19.1579 C   0  0  2  0  0  0  0  0  0  0  0  0
   10.4460  -13.0034   18.3988 C   0  0  0  0  0  0  0  0  0  0  0  0
    9.2480  -15.2057   18.5597 C   0  0  2  0  0  0  0  0  0  0  0  0
    8.4899  -15.0123   17.3401 N   0  0  0  0  0  0  0  0  0  0  0  0
    8.5718  -16.1330   19.4904 C   0  0  0  0  0  0  0  0  0  0  0  0
    7.5322  -16.7540   19.2502 O   0  0  0  0  0  0  0  0  0  0  0  0
    7.8123  -18.7372   19.8183 C   0  0  0  0  0  0  0  0  0  0  0  0
    8.5657  -18.6740   21.1258 C   0  0  1  0  0  0  0  0  0  0  0  0
    9.8602  -19.0986   21.0303 O   0  0  0  0  0  0  0  0  0  0  0  0
    8.5385  -17.2778   21.7235 C   0  0  2  0  0  0  0  0  0  0  0  0
    9.1671  -16.3308   20.7776 N   0  0  0  0  0  0  0  0  0  0  0  0
    9.1819  -17.1868   23.0422 C   0  0  0  0  0  0  0  0  0  0  0  0
   10.3697  -16.7499   23.1310 O   0  0  0  0  0  0  0  0  0  0  0  0
    7.0437  -15.6006   25.6253 C   0  0  0  0  0  0  0  0  0  0  0  0
    8.5235  -15.7319   25.8118 C   0  0  1  0  0  0  0  0  0  0  0  0
    8.8000  -15.4472   27.1573 O   0  0  0  0  0  0  0  0  0  0  0  0
    9.0194  -17.1363   25.5531 C   0  0  2  0  0  0  0  0  0  0  0  0
    8.5504  -17.5620   24.2487 N   0  0  0  0  0  0  0  0  0  0  0  0
    8.5281  -18.0964   26.5615 C   0  0  0  0  0  0  0  0  0  0  0  0
    9.1564  -18.3133   27.7783 O   0  0  0  0  0  0  0  0  0  0  0  0
    7.4917  -18.7566   26.3206 O   0  0  0  0  0  0  0  0  0  0  0  0
  1  2  1  0
  3  2  1  0
  3  5  1  0
  3  4  1  6
  5  7  1  0
  5  6  1  6
  7  8  2  0
  7 13  1  0
 10  9  1  6
 11 10  1  0
 12 14  1  0
 12 10  1  0
 12 13  1  6
 14 15  2  0
 17 19  1  0
 17 16  1  1
 17 18  1  0
 19 20  1  6
 20 14  1  0
 21 22  1  0
 21 19  1  0
 23 21  2  0
M  END
$$$$
