ITT.pdb
     RDKit          3D

 23 22  0  0  1  0  0  0  0  0999 V2000
    6.6852  -11.5578   27.3598 C   0  0  0  0  0  0  0  0  0  0  0  0
    6.0592  -12.7062   26.5984 C   0  0  0  0  0  0  0  0  0  0  0  0
    7.1205  -13.5505   25.9320 C   0  0  2  0  0  0  0  0  0  0  0  0
    7.9580  -12.6890   25.0634 C   0  0  0  0  0  0  0  0  0  0  0  0
    6.4795  -14.7132   25.2309 C   0  0  2  0  0  0  0  0  0  0  0  0
    5.6638  -15.4130   26.2027 N   0  0  0  0  0  0  0  0  0  0  0  0
    7.4602  -15.6090   24.5837 C   0  0  0  0  0  0  0  0  0  0  0  0
    7.9473  -16.6223   25.0939 O   0  0  0  0  0  0  0  0  0  0  0  0
    9.4710  -16.8852   20.2039 C   0  0  0  0  0  0  0  0  0  0  0  0
    8.6357  -15.9307   21.0237 C   0  0  1  0  0  0  0  0  0  0  0  0
    7.3237  -15.8918   20.6463 O   0  0  0  0  0  0  0  0  0  0  0  0
    8.7218  -16.2409   22.5082 C   0  0  2  0  0  0  0  0  0  0  0  0
    7.8835  -15.2793   23.2561 N   0  0  0  0  0  0  0  0  0  0  0  0
   10.0949  -16.2395   23.0337 C   0  0  0  0  0  0  0  0  0  0  0  0
   10.6901  -15.1361   23.2281 O   0  0  0  0  0  0  0  0  0  0  0  0
   13.6556  -18.7867   25.3766 C   0  0  0  0  0  0  0  0  0  0  0  0
   12.2724  -18.6301   24.8254 C   0  0  1  0  0  0  0  0  0  0  0  0
   11.4063  -18.4632   25.9162 O   0  0  0  0  0  0  0  0  0  0  0  0
   12.1271  -17.3978   23.9617 C   0  0  2  0  0  0  0  0  0  0  0  0
   10.8146  -17.4141   23.3455 N   0  0  0  0  0  0  0  0  0  0  0  0
   13.1437  -17.3428   22.8923 C   0  0  0  0  0  0  0  0  0  0  0  0
   14.3286  -16.6312   23.0018 O   0  0  0  0  0  0  0  0  0  0  0  0
   12.9402  -17.9655   21.8251 O   0  0  0  0  0  0  0  0  0  0  0  0
  1  2  1  0
  3  2  1  0
  3  5  1  0
  3  4  1  6
  5  7  1  0
  5  6  1  1
  7  8  2  0
  7 13  1  0
 10  9  1  6
 11 10  1  0
 12 14  1  0
 12 10  1  0
 12 13  1  1
 14 15  2  0
 17 19  1  0
 17 16  1  1
 17 18  1  0
 19 20  1  6
 20 14  1  0
 21 22  1  0
 21 19  1  0
 23 21  2  0
M  END
$$$$
