ITT.pdb
     RDKit          3D

 23 22  0  0  1  0  0  0  0  0999 V2000
    6.8594  -11.3783   27.5787 C   0  0  0  0  0  0  0  0  0  0  0  0
    6.1211  -12.3315   26.6639 C   0  0  0  0  0  0  0  0  0  0  0  0
    7.0729  -13.3315   26.0495 C   0  0  2  0  0  0  0  0  0  0  0  0
    8.1463  -12.6069   25.3278 C   0  0  0  0  0  0  0  0  0  0  0  0
    6.3070  -14.3141   25.2116 C   0  0  2  0  0  0  0  0  0  0  0  0
    5.2835  -14.9006   26.0530 N   0  0  0  0  0  0  0  0  0  0  0  0
    7.1703  -15.3413   24.5928 C   0  0  0  0  0  0  0  0  0  0  0  0
    7.5177  -16.3986   25.1272 O   0  0  0  0  0  0  0  0  0  0  0  0
    7.0309  -15.8703   20.5802 C   0  0  0  0  0  0  0  0  0  0  0  0
    8.4487  -15.8966   21.1000 C   0  0  1  0  0  0  0  0  0  0  0  0
    9.1667  -14.7790   20.7823 O   0  0  0  0  0  0  0  0  0  0  0  0
    8.4925  -16.1105   22.6032 C   0  0  2  0  0  0  0  0  0  0  0  0
    7.6454  -15.0949   23.2646 N   0  0  0  0  0  0  0  0  0  0  0  0
    9.8513  -16.0875   23.1641 C   0  0  0  0  0  0  0  0  0  0  0  0
   10.1022  -15.3538   24.1682 O   0  0  0  0  0  0  0  0  0  0  0  0
   10.9215  -17.2885   25.5534 C   0  0  0  0  0  0  0  0  0  0  0  0
   11.8391  -17.9570   24.5774 C   0  0  1  0  0  0  0  0  0  0  0  0
   11.1720  -19.0898   24.0880 O   0  0  0  0  0  0  0  0  0  0  0  0
   12.1513  -17.0853   23.3824 C   0  0  2  0  0  0  0  0  0  0  0  0
   10.9241  -16.8473   22.6475 N   0  0  0  0  0  0  0  0  0  0  0  0
   13.1260  -17.7164   22.4705 C   0  0  0  0  0  0  0  0  0  0  0  0
   14.4957  -17.6958   22.6849 O   0  0  0  0  0  0  0  0  0  0  0  0
   12.7103  -18.3047   21.4462 O   0  0  0  0  0  0  0  0  0  0  0  0
  1  2  1  0
  3  2  1  0
  3  5  1  0
  3  4  1  6
  5  7  1  0
  5  6  1  1
  7  8  2  0
  7 13  1  0
 10  9  1  1
 11 10  1  0
 12 14  1  0
 12 10  1  0
 12 13  1  1
 14 15  2  0
 17 19  1  0
 17 16  1  1
 17 18  1  0
 19 20  1  6
 20 14  1  0
 21 22  1  0
 21 19  1  0
 23 21  2  0
M  END
$$$$
