DDS.pdb
     RDKit          3D

 23 22  0  0  1  0  0  0  0  0999 V2000
   13.2175  -17.4529   19.3300 N   0  0  0  0  0  0  0  0  0  0  0  0
   13.7165  -18.6733   19.9320 C   0  0  1  0  0  0  0  0  0  0  0  0
   14.7018  -19.3653   19.0397 C   0  0  0  0  0  0  0  0  0  0  0  0
   14.2088  -19.4237   17.6629 C   0  0  0  0  0  0  0  0  0  0  0  0
   14.8539  -20.0699   16.8023 O   0  0  0  0  0  0  0  0  0  0  0  0
   14.2824  -18.3424   21.2612 C   0  0  0  0  0  0  0  0  0  0  0  0
   14.3227  -19.2156   22.1798 O   0  0  0  0  0  0  0  0  0  0  0  0
   13.0206  -18.7495   17.3472 O   0  0  0  0  0  0  0  0  0  0  0  0
   14.8030  -17.0636   21.5889 N   0  0  0  0  0  0  0  0  0  0  0  0
   15.3778  -16.7012   22.8620 C   0  0  1  0  0  0  0  0  0  0  0  0
   16.4560  -15.6748   22.7602 C   0  0  0  0  0  0  0  0  0  0  0  0
   17.6380  -16.2033   22.0418 C   0  0  0  0  0  0  0  0  0  0  0  0
   17.8142  -15.9610   20.8266 O   0  0  0  0  0  0  0  0  0  0  0  0
   14.3310  -16.3353   23.8524 C   0  0  0  0  0  0  0  0  0  0  0  0
   14.6832  -15.9647   24.9974 O   0  0  0  0  0  0  0  0  0  0  0  0
   18.6046  -16.9861   22.6638 O   0  0  0  0  0  0  0  0  0  0  0  0
   10.2249  -16.4088   22.9815 O   0  0  0  0  0  0  0  0  0  0  0  0
   10.6909  -15.4467   23.8651 C   0  0  0  0  0  0  0  0  0  0  0  0
   11.9417  -15.9839   24.5317 C   0  0  2  0  0  0  0  0  0  0  0  0
   12.9451  -16.3846   23.5660 N   0  0  0  0  0  0  0  0  0  0  0  0
   11.6424  -17.0675   25.4839 C   0  0  0  0  0  0  0  0  0  0  0  0
   10.9119  -16.8074   26.6172 O   0  0  0  0  0  0  0  0  0  0  0  0
   12.0511  -18.2232   25.2640 O   0  0  0  0  0  0  0  0  0  0  0  0
  2  1  1  6
  3  2  1  0
  4  8  1  0
  4  3  1  0
  5  4  2  0
  6  2  1  0
  7  6  2  0
  9  6  1  0
 10 14  1  0
 10  9  1  0
 10 11  1  6
 12 13  2  0
 12 11  1  0
 14 20  1  0
 15 14  2  0
 16 12  1  0
 18 17  1  0
 19 18  1  6
 19 21  1  0
 20 19  1  0
 21 23  2  0
 21 22  1  0
M  END
$$$$
