DDS.pdb
     RDKit          3D

 23 22  0  0  1  0  0  0  0  0999 V2000
   14.0918  -18.1758   19.4324 N   0  0  0  0  0  0  0  0  0  0  0  0
   14.5300  -19.2309   20.3244 C   0  0  1  0  0  0  0  0  0  0  0  0
   15.3859  -20.2343   19.6128 C   0  0  0  0  0  0  0  0  0  0  0  0
   14.6976  -20.7676   18.4364 C   0  0  0  0  0  0  0  0  0  0  0  0
   14.5755  -22.0091   18.3017 O   0  0  0  0  0  0  0  0  0  0  0  0
   15.2177  -18.6103   21.4814 C   0  0  0  0  0  0  0  0  0  0  0  0
   15.4615  -19.2878   22.5252 O   0  0  0  0  0  0  0  0  0  0  0  0
   14.1922  -19.8657   17.4892 O   0  0  0  0  0  0  0  0  0  0  0  0
   15.6386  -17.2552   21.5013 N   0  0  0  0  0  0  0  0  0  0  0  0
   16.2657  -16.5958   22.6213 C   0  0  1  0  0  0  0  0  0  0  0  0
   17.1667  -15.4740   22.2262 C   0  0  0  0  0  0  0  0  0  0  0  0
   18.0382  -15.8560   21.0916 C   0  0  0  0  0  0  0  0  0  0  0  0
   17.8784  -15.3497   19.9583 O   0  0  0  0  0  0  0  0  0  0  0  0
   15.2697  -16.1948   23.6498 C   0  0  0  0  0  0  0  0  0  0  0  0
   15.6738  -15.6520   24.7055 O   0  0  0  0  0  0  0  0  0  0  0  0
   19.0671  -16.7832   21.2163 O   0  0  0  0  0  0  0  0  0  0  0  0
   11.1391  -16.3685   23.0381 O   0  0  0  0  0  0  0  0  0  0  0  0
   11.6472  -15.4659   23.9604 C   0  0  0  0  0  0  0  0  0  0  0  0
   12.9261  -16.0445   24.5323 C   0  0  2  0  0  0  0  0  0  0  0  0
   13.8765  -16.3963   23.4964 N   0  0  0  0  0  0  0  0  0  0  0  0
   12.6673  -17.1773   25.4380 C   0  0  0  0  0  0  0  0  0  0  0  0
   13.1944  -18.4150   25.1624 O   0  0  0  0  0  0  0  0  0  0  0  0
   11.9694  -17.0159   26.4568 O   0  0  0  0  0  0  0  0  0  0  0  0
  2  1  1  6
  3  2  1  0
  4  8  1  0
  4  3  1  0
  5  4  2  0
  6  2  1  0
  7  6  2  0
  9  6  1  0
 10 14  1  0
 10  9  1  0
 10 11  1  6
 12 13  2  0
 12 11  1  0
 14 20  1  0
 15 14  2  0
 16 12  1  0
 18 17  1  0
 19 18  1  6
 19 21  1  0
 20 19  1  0
 21 23  2  0
 21 22  1  0
M  END
$$$$
