DDS.pdb
     RDKit          3D

 23 22  0  0  1  0  0  0  0  0999 V2000
   12.2965  -14.8556   17.3046 N   0  0  0  0  0  0  0  0  0  0  0  0
   12.8712  -15.4301   18.5048 C   0  0  1  0  0  0  0  0  0  0  0  0
   13.8507  -14.4964   19.1485 C   0  0  0  0  0  0  0  0  0  0  0  0
   15.0887  -14.4208   18.3716 C   0  0  0  0  0  0  0  0  0  0  0  0
   15.5108  -15.4437   17.7801 O   0  0  0  0  0  0  0  0  0  0  0  0
   11.7665  -15.8165   19.4142 C   0  0  0  0  0  0  0  0  0  0  0  0
   10.7403  -15.0807   19.5301 O   0  0  0  0  0  0  0  0  0  0  0  0
   15.7695  -13.1963   18.3127 O   0  0  0  0  0  0  0  0  0  0  0  0
   11.7797  -17.0012   20.1953 N   0  0  0  0  0  0  0  0  0  0  0  0
   10.7240  -17.4226   21.0843 C   0  0  1  0  0  0  0  0  0  0  0  0
   10.4783  -18.8942   21.0647 C   0  0  0  0  0  0  0  0  0  0  0  0
    9.3552  -19.2657   21.9552 C   0  0  0  0  0  0  0  0  0  0  0  0
    8.4110  -18.4716   22.1659 O   0  0  0  0  0  0  0  0  0  0  0  0
   10.9211  -16.8936   22.4598 C   0  0  0  0  0  0  0  0  0  0  0  0
   12.0444  -17.0201   23.0025 O   0  0  0  0  0  0  0  0  0  0  0  0
    9.2844  -20.4966   22.5984 O   0  0  0  0  0  0  0  0  0  0  0  0
    9.2487  -14.4553   26.3003 O   0  0  0  0  0  0  0  0  0  0  0  0
    8.9316  -14.9406   25.0404 C   0  0  0  0  0  0  0  0  0  0  0  0
   10.0966  -15.7768   24.5495 C   0  0  2  0  0  0  0  0  0  0  0  0
    9.8963  -16.2488   23.1941 N   0  0  0  0  0  0  0  0  0  0  0  0
   10.4118  -16.8846   25.4683 C   0  0  0  0  0  0  0  0  0  0  0  0
    9.8619  -18.1264   25.2656 O   0  0  0  0  0  0  0  0  0  0  0  0
   11.1782  -16.6981   26.4321 O   0  0  0  0  0  0  0  0  0  0  0  0
  2  1  1  6
  3  2  1  0
  4  8  1  0
  4  3  1  0
  5  4  2  0
  6  2  1  0
  7  6  2  0
  9  6  1  0
 10 14  1  0
 10  9  1  0
 10 11  1  1
 12 13  2  0
 12 11  1  0
 14 20  1  0
 15 14  2  0
 16 12  1  0
 18 17  1  0
 19 18  1  1
 19 21  1  0
 20 19  1  0
 21 23  2  0
 21 22  1  0
M  END
$$$$
