DDS.pdb
     RDKit          3D

 23 22  0  0  1  0  0  0  0  0999 V2000
    9.2256  -15.7286   17.3627 N   0  0  0  0  0  0  0  0  0  0  0  0
    8.0528  -16.2863   18.0064 C   0  0  1  0  0  0  0  0  0  0  0  0
    7.1556  -16.9707   17.0202 C   0  0  0  0  0  0  0  0  0  0  0  0
    7.9201  -17.8693   16.1542 C   0  0  0  0  0  0  0  0  0  0  0  0
    9.1562  -17.9943   16.3305 O   0  0  0  0  0  0  0  0  0  0  0  0
    8.5000  -17.1878   19.0946 C   0  0  0  0  0  0  0  0  0  0  0  0
    7.6536  -17.8146   19.8007 O   0  0  0  0  0  0  0  0  0  0  0  0
    7.2405  -18.5680   15.1463 O   0  0  0  0  0  0  0  0  0  0  0  0
    9.8657  -17.4058   19.4126 N   0  0  0  0  0  0  0  0  0  0  0  0
   10.3453  -18.1614   20.5447 C   0  0  1  0  0  0  0  0  0  0  0  0
   11.4594  -19.0959   20.2105 C   0  0  0  0  0  0  0  0  0  0  0  0
   11.8197  -19.9427   21.3705 C   0  0  0  0  0  0  0  0  0  0  0  0
   12.7276  -19.5996   22.1607 O   0  0  0  0  0  0  0  0  0  0  0  0
   10.6650  -17.2788   21.6977 C   0  0  0  0  0  0  0  0  0  0  0  0
   11.4929  -16.3505   21.5390 O   0  0  0  0  0  0  0  0  0  0  0  0
   11.1820  -21.1475   21.6453 O   0  0  0  0  0  0  0  0  0  0  0  0
    9.5860  -14.7264   25.3600 O   0  0  0  0  0  0  0  0  0  0  0  0
    9.1703  -15.6797   24.4423 C   0  0  0  0  0  0  0  0  0  0  0  0
   10.3667  -16.5347   24.0749 C   0  0  2  0  0  0  0  0  0  0  0  0
   10.0772  -17.4346   22.9765 N   0  0  0  0  0  0  0  0  0  0  0  0
   10.9121  -17.2565   25.2378 C   0  0  0  0  0  0  0  0  0  0  0  0
   11.4741  -16.5607   26.2798 O   0  0  0  0  0  0  0  0  0  0  0  0
   10.8652  -18.5003   25.2795 O   0  0  0  0  0  0  0  0  0  0  0  0
  2  1  1  6
  3  2  1  0
  4  8  1  0
  4  3  1  0
  5  4  2  0
  6  2  1  0
  7  6  2  0
  9  6  1  0
 10 14  1  0
 10  9  1  0
 10 11  1  6
 12 13  2  0
 12 11  1  0
 14 20  1  0
 15 14  2  0
 16 12  1  0
 18 17  1  0
 19 18  1  1
 19 21  1  0
 20 19  1  0
 21 23  2  0
 21 22  1  0
M  END
$$$$
