DDS.pdb
     RDKit          3D

 23 22  0  0  1  0  0  0  0  0999 V2000
   15.4883  -15.9571   18.2689 N   0  0  0  0  0  0  0  0  0  0  0  0
   14.6219  -14.8130   18.4721 C   0  0  1  0  0  0  0  0  0  0  0  0
   14.3168  -14.1163   17.1808 C   0  0  0  0  0  0  0  0  0  0  0  0
   15.5440  -13.6398   16.5415 C   0  0  0  0  0  0  0  0  0  0  0  0
   16.6494  -13.8360   17.1019 O   0  0  0  0  0  0  0  0  0  0  0  0
   13.4014  -15.2695   19.1783 C   0  0  0  0  0  0  0  0  0  0  0  0
   12.4812  -14.4477   19.4711 O   0  0  0  0  0  0  0  0  0  0  0  0
   15.4441  -12.9732   15.3119 O   0  0  0  0  0  0  0  0  0  0  0  0
   13.1840  -16.6175   19.5644 N   0  0  0  0  0  0  0  0  0  0  0  0
   12.0316  -17.0999   20.2868 C   0  0  1  0  0  0  0  0  0  0  0  0
   11.7518  -18.5489   20.0663 C   0  0  0  0  0  0  0  0  0  0  0  0
   10.5554  -18.9881   20.8201 C   0  0  0  0  0  0  0  0  0  0  0  0
    9.5065  -18.3052   20.8178 O   0  0  0  0  0  0  0  0  0  0  0  0
   12.0989  -16.7430   21.7286 C   0  0  0  0  0  0  0  0  0  0  0  0
   13.1955  -16.8460   22.3278 O   0  0  0  0  0  0  0  0  0  0  0  0
   10.5271  -20.1642   21.5616 O   0  0  0  0  0  0  0  0  0  0  0  0
    8.7031  -15.8333   23.9994 O   0  0  0  0  0  0  0  0  0  0  0  0
    9.8747  -15.1898   24.3695 C   0  0  0  0  0  0  0  0  0  0  0  0
   11.0444  -16.0254   23.8889 C   0  0  2  0  0  0  0  0  0  0  0  0
   10.9782  -16.2888   22.4654 N   0  0  0  0  0  0  0  0  0  0  0  0
   11.1945  -17.2694   24.6640 C   0  0  0  0  0  0  0  0  0  0  0  0
   11.5068  -17.2159   26.0001 O   0  0  0  0  0  0  0  0  0  0  0  0
   11.0385  -18.3736   24.1097 O   0  0  0  0  0  0  0  0  0  0  0  0
  2  1  1  6
  3  2  1  0
  4  8  1  0
  4  3  1  0
  5  4  2  0
  6  2  1  0
  7  6  2  0
  9  6  1  0
 10 14  1  0
 10  9  1  0
 10 11  1  1
 12 13  2  0
 12 11  1  0
 14 20  1  0
 15 14  2  0
 16 12  1  0
 18 17  1  0
 19 18  1  1
 19 21  1  0
 20 19  1  0
 21 23  2  0
 21 22  1  0
M  END
$$$$
