DDS.pdb
     RDKit          3D

 23 22  0  0  1  0  0  0  0  0999 V2000
   12.1332  -20.5678   16.2629 N   0  0  0  0  0  0  0  0  0  0  0  0
   13.0581  -20.3573   17.3588 C   0  0  1  0  0  0  0  0  0  0  0  0
   13.8242  -19.0797   17.1960 C   0  0  0  0  0  0  0  0  0  0  0  0
   14.8580  -19.2175   16.1692 C   0  0  0  0  0  0  0  0  0  0  0  0
   15.5867  -18.2349   15.8900 O   0  0  0  0  0  0  0  0  0  0  0  0
   12.2978  -20.4105   18.6300 C   0  0  0  0  0  0  0  0  0  0  0  0
   11.4837  -19.4868   18.9328 O   0  0  0  0  0  0  0  0  0  0  0  0
   15.0021  -20.4544   15.5248 O   0  0  0  0  0  0  0  0  0  0  0  0
   12.4240  -21.4673   19.5686 N   0  0  0  0  0  0  0  0  0  0  0  0
   11.7778  -21.5156   20.8580 C   0  0  1  0  0  0  0  0  0  0  0  0
   11.9959  -22.7986   21.5878 C   0  0  0  0  0  0  0  0  0  0  0  0
   11.2736  -22.8136   22.8803 C   0  0  0  0  0  0  0  0  0  0  0  0
   10.0235  -22.7688   22.9197 O   0  0  0  0  0  0  0  0  0  0  0  0
   12.1099  -20.3242   21.6831 C   0  0  0  0  0  0  0  0  0  0  0  0
   13.2742  -19.8610   21.6376 O   0  0  0  0  0  0  0  0  0  0  0  0
   11.9299  -22.8773   24.1047 O   0  0  0  0  0  0  0  0  0  0  0  0
   11.1087  -16.1359   23.3339 O   0  0  0  0  0  0  0  0  0  0  0  0
   10.5848  -17.3088   22.8110 C   0  0  0  0  0  0  0  0  0  0  0  0
   11.4802  -18.4560   23.2347 C   0  0  2  0  0  0  0  0  0  0  0  0
   11.1703  -19.6807   22.5247 N   0  0  0  0  0  0  0  0  0  0  0  0
   11.4715  -18.6583   24.6940 C   0  0  0  0  0  0  0  0  0  0  0  0
   11.9952  -17.6997   25.5262 O   0  0  0  0  0  0  0  0  0  0  0  0
   10.9891  -19.6996   25.1776 O   0  0  0  0  0  0  0  0  0  0  0  0
  2  1  1  6
  3  2  1  0
  4  8  1  0
  4  3  1  0
  5  4  2  0
  6  2  1  0
  7  6  2  0
  9  6  1  0
 10 14  1  0
 10  9  1  0
 10 11  1  1
 12 13  2  0
 12 11  1  0
 14 20  1  0
 15 14  2  0
 16 12  1  0
 18 17  1  0
 19 18  1  1
 19 21  1  0
 20 19  1  0
 21 23  2  0
 21 22  1  0
M  END
$$$$
