DDS.pdb
     RDKit          3D

 23 22  0  0  1  0  0  0  0  0999 V2000
   14.3374  -15.4109   18.3029 N   0  0  0  0  0  0  0  0  0  0  0  0
   12.9173  -15.4523   18.0155 C   0  0  1  0  0  0  0  0  0  0  0  0
   12.6444  -16.0547   16.6707 C   0  0  0  0  0  0  0  0  0  0  0  0
   13.2469  -15.2511   15.6061 C   0  0  0  0  0  0  0  0  0  0  0  0
   14.3621  -14.7086   15.7970 O   0  0  0  0  0  0  0  0  0  0  0  0
   12.2379  -16.1769   19.1156 C   0  0  0  0  0  0  0  0  0  0  0  0
   10.9808  -16.0961   19.2604 O   0  0  0  0  0  0  0  0  0  0  0  0
   12.5520  -15.1122   14.3962 O   0  0  0  0  0  0  0  0  0  0  0  0
   12.9262  -16.9873   20.0554 N   0  0  0  0  0  0  0  0  0  0  0  0
   12.3182  -17.6524   21.1825 C   0  0  1  0  0  0  0  0  0  0  0  0
   13.1013  -18.8209   21.6802 C   0  0  0  0  0  0  0  0  0  0  0  0
   13.1767  -19.8932   20.6618 C   0  0  0  0  0  0  0  0  0  0  0  0
   14.2245  -20.0843   20.0047 O   0  0  0  0  0  0  0  0  0  0  0  0
   11.9717  -16.6931   22.2642 C   0  0  0  0  0  0  0  0  0  0  0  0
   12.8313  -15.8572   22.6311 O   0  0  0  0  0  0  0  0  0  0  0  0
   12.1068  -20.7359   20.3806 O   0  0  0  0  0  0  0  0  0  0  0  0
    8.8959  -14.7788   25.4300 O   0  0  0  0  0  0  0  0  0  0  0  0
    9.0072  -15.6423   24.3504 C   0  0  0  0  0  0  0  0  0  0  0  0
   10.4775  -15.9401   24.1335 C   0  0  2  0  0  0  0  0  0  0  0  0
   10.7098  -16.6752   22.9065 N   0  0  0  0  0  0  0  0  0  0  0  0
   11.0849  -16.6154   25.2935 C   0  0  0  0  0  0  0  0  0  0  0  0
   11.2866  -17.9735   25.2731 O   0  0  0  0  0  0  0  0  0  0  0  0
   11.4175  -15.9564   26.2966 O   0  0  0  0  0  0  0  0  0  0  0  0
  2  1  1  1
  3  2  1  0
  4  8  1  0
  4  3  1  0
  5  4  2  0
  6  2  1  0
  7  6  2  0
  9  6  1  0
 10 14  1  0
 10  9  1  0
 10 11  1  1
 12 13  2  0
 12 11  1  0
 14 20  1  0
 15 14  2  0
 16 12  1  0
 18 17  1  0
 19 18  1  1
 19 21  1  0
 20 19  1  0
 21 23  2  0
 21 22  1  0
M  END
$$$$
