DDS.pdb
     RDKit          3D

 23 22  0  0  1  0  0  0  0  0999 V2000
   14.2870  -18.5367   17.2737 N   0  0  0  0  0  0  0  0  0  0  0  0
   12.9081  -18.4086   17.7017 C   0  0  1  0  0  0  0  0  0  0  0  0
   11.9573  -18.8978   16.6517 C   0  0  0  0  0  0  0  0  0  0  0  0
   12.0332  -18.0661   15.4498 C   0  0  0  0  0  0  0  0  0  0  0  0
   12.9176  -17.1800   15.3660 O   0  0  0  0  0  0  0  0  0  0  0  0
   12.7505  -19.1199   18.9924 C   0  0  0  0  0  0  0  0  0  0  0  0
   11.6271  -19.1475   19.5798 O   0  0  0  0  0  0  0  0  0  0  0  0
   11.1066  -18.2885   14.4211 O   0  0  0  0  0  0  0  0  0  0  0  0
   13.8139  -19.7994   19.6414 N   0  0  0  0  0  0  0  0  0  0  0  0
   13.6860  -20.5877   20.8434 C   0  0  1  0  0  0  0  0  0  0  0  0
   14.9011  -21.3932   21.1617 C   0  0  0  0  0  0  0  0  0  0  0  0
   15.3417  -22.1896   19.9937 C   0  0  0  0  0  0  0  0  0  0  0  0
   14.5805  -23.0298   19.4635 O   0  0  0  0  0  0  0  0  0  0  0  0
   13.2279  -19.7642   21.9934 C   0  0  0  0  0  0  0  0  0  0  0  0
   13.8588  -18.7191   22.2798 O   0  0  0  0  0  0  0  0  0  0  0  0
   16.6044  -22.0535   19.4273 O   0  0  0  0  0  0  0  0  0  0  0  0
    9.4756  -19.9230   23.6815 O   0  0  0  0  0  0  0  0  0  0  0  0
   10.3115  -18.8373   23.8965 C   0  0  0  0  0  0  0  0  0  0  0  0
   11.7375  -19.3459   23.9677 C   0  0  2  0  0  0  0  0  0  0  0  0
   12.1060  -20.1030   22.7883 N   0  0  0  0  0  0  0  0  0  0  0  0
   11.9954  -20.1067   25.2027 C   0  0  0  0  0  0  0  0  0  0  0  0
   11.9120  -19.4863   26.4249 O   0  0  0  0  0  0  0  0  0  0  0  0
   12.2898  -21.3153   25.1422 O   0  0  0  0  0  0  0  0  0  0  0  0
  2  1  1  6
  3  2  1  0
  4  8  1  0
  4  3  1  0
  5  4  2  0
  6  2  1  0
  7  6  2  0
  9  6  1  0
 10 14  1  0
 10  9  1  0
 10 11  1  1
 12 13  2  0
 12 11  1  0
 14 20  1  0
 15 14  2  0
 16 12  1  0
 18 17  1  0
 19 18  1  6
 19 21  1  0
 20 19  1  0
 21 23  2  0
 21 22  1  0
M  END
$$$$
