DDS.pdb
     RDKit          3D

 23 22  0  0  1  0  0  0  0  0999 V2000
   13.6609  -14.7736   16.7642 N   0  0  0  0  0  0  0  0  0  0  0  0
   14.2264  -15.2101   18.0253 C   0  0  1  0  0  0  0  0  0  0  0  0
   15.0064  -14.1155   18.6881 C   0  0  0  0  0  0  0  0  0  0  0  0
   16.1770  -13.7504   17.8892 C   0  0  0  0  0  0  0  0  0  0  0  0
   16.5468  -14.5022   16.9552 O   0  0  0  0  0  0  0  0  0  0  0  0
   13.1288  -15.7269   18.8768 C   0  0  0  0  0  0  0  0  0  0  0  0
   12.0062  -15.1381   18.9084 O   0  0  0  0  0  0  0  0  0  0  0  0
   16.8538  -12.5613   18.1962 O   0  0  0  0  0  0  0  0  0  0  0  0
   13.2538  -16.8820   19.6915 N   0  0  0  0  0  0  0  0  0  0  0  0
   12.2125  -17.4240   20.5308 C   0  0  1  0  0  0  0  0  0  0  0  0
   12.2106  -18.9149   20.5928 C   0  0  0  0  0  0  0  0  0  0  0  0
   11.7277  -19.5070   19.3245 C   0  0  0  0  0  0  0  0  0  0  0  0
   12.2892  -20.5087   18.8268 O   0  0  0  0  0  0  0  0  0  0  0  0
   12.2107  -16.7952   21.8780 C   0  0  0  0  0  0  0  0  0  0  0  0
   13.3069  -16.5772   22.4465 O   0  0  0  0  0  0  0  0  0  0  0  0
   10.6412  -18.9943   18.6241 O   0  0  0  0  0  0  0  0  0  0  0  0
    8.6995  -15.9212   24.0292 O   0  0  0  0  0  0  0  0  0  0  0  0
    9.7697  -15.0492   24.1633 C   0  0  0  0  0  0  0  0  0  0  0  0
   11.0437  -15.8168   23.8717 C   0  0  2  0  0  0  0  0  0  0  0  0
   11.0241  -16.4269   22.5574 N   0  0  0  0  0  0  0  0  0  0  0  0
   11.3517  -16.8024   24.9225 C   0  0  0  0  0  0  0  0  0  0  0  0
   11.6707  -16.3820   26.1903 O   0  0  0  0  0  0  0  0  0  0  0  0
   11.3236  -18.0205   24.6643 O   0  0  0  0  0  0  0  0  0  0  0  0
  2  1  1  6
  3  2  1  0
  4  8  1  0
  4  3  1  0
  5  4  2  0
  6  2  1  0
  7  6  2  0
  9  6  1  0
 10 14  1  0
 10  9  1  0
 10 11  1  1
 12 13  2  0
 12 11  1  0
 14 20  1  0
 15 14  2  0
 16 12  1  0
 18 17  1  0
 19 18  1  1
 19 21  1  0
 20 19  1  0
 21 23  2  0
 21 22  1  0
M  END
$$$$
