DDS.pdb
     RDKit          3D

 23 22  0  0  1  0  0  0  0  0999 V2000
   12.3801  -18.9878   21.6219 N   0  0  0  0  0  0  0  0  0  0  0  0
   11.6791  -17.7219   21.7062 C   0  0  1  0  0  0  0  0  0  0  0  0
   10.6467  -17.5905   20.6279 C   0  0  0  0  0  0  0  0  0  0  0  0
   11.2621  -17.6713   19.3025 C   0  0  0  0  0  0  0  0  0  0  0  0
   10.5500  -17.5225   18.2802 O   0  0  0  0  0  0  0  0  0  0  0  0
   11.1050  -17.5944   23.0667 C   0  0  0  0  0  0  0  0  0  0  0  0
    9.9318  -17.1422   23.2310 O   0  0  0  0  0  0  0  0  0  0  0  0
   12.6404  -17.9146   19.2171 O   0  0  0  0  0  0  0  0  0  0  0  0
   11.8071  -17.9585   24.2449 N   0  0  0  0  0  0  0  0  0  0  0  0
   11.2574  -17.9412   25.5791 C   0  0  1  0  0  0  0  0  0  0  0  0
   11.8289  -18.9891   26.4743 C   0  0  0  0  0  0  0  0  0  0  0  0
   11.2838  -18.8822   27.8469 C   0  0  0  0  0  0  0  0  0  0  0  0
   10.1148  -19.2469   28.1054 O   0  0  0  0  0  0  0  0  0  0  0  0
   11.3158  -16.5820   26.1790 C   0  0  0  0  0  0  0  0  0  0  0  0
   12.3834  -15.9293   26.0981 O   0  0  0  0  0  0  0  0  0  0  0  0
   12.0252  -18.3791   28.9104 O   0  0  0  0  0  0  0  0  0  0  0  0
    7.9266  -14.3671   27.0501 O   0  0  0  0  0  0  0  0  0  0  0  0
    9.1349  -13.7777   26.7091 C   0  0  0  0  0  0  0  0  0  0  0  0
   10.2517  -14.6100   27.3071 C   0  0  2  0  0  0  0  0  0  0  0  0
   10.2180  -15.9822   26.8425 N   0  0  0  0  0  0  0  0  0  0  0  0
   10.2733  -14.5361   28.7784 C   0  0  0  0  0  0  0  0  0  0  0  0
   10.4405  -13.3261   29.4058 O   0  0  0  0  0  0  0  0  0  0  0  0
   10.1399  -15.5712   29.4580 O   0  0  0  0  0  0  0  0  0  0  0  0
  2  1  1  1
  3  2  1  0
  4  8  1  0
  4  3  1  0
  5  4  2  0
  6  2  1  0
  7  6  2  0
  9  6  1  0
 10 14  1  0
 10  9  1  0
 10 11  1  1
 12 13  2  0
 12 11  1  0
 14 20  1  0
 15 14  2  0
 16 12  1  0
 18 17  1  0
 19 18  1  1
 19 21  1  0
 20 19  1  0
 21 23  2  0
 21 22  1  0
M  END
$$$$
