DDS.pdb
     RDKit          3D

 23 22  0  0  1  0  0  0  0  0999 V2000
    9.9897  -17.9756   17.8184 N   0  0  0  0  0  0  0  0  0  0  0  0
    8.8698  -17.6788   18.6894 C   0  0  1  0  0  0  0  0  0  0  0  0
    7.7628  -18.6751   18.5230 C   0  0  0  0  0  0  0  0  0  0  0  0
    7.2683  -18.6815   17.1455 C   0  0  0  0  0  0  0  0  0  0  0  0
    8.0084  -18.2665   16.2212 O   0  0  0  0  0  0  0  0  0  0  0  0
    9.3678  -17.6045   20.0835 C   0  0  0  0  0  0  0  0  0  0  0  0
    8.5612  -17.4384   21.0477 O   0  0  0  0  0  0  0  0  0  0  0  0
    5.9716  -19.1557   16.9009 O   0  0  0  0  0  0  0  0  0  0  0  0
   10.7408  -17.7108   20.4260 N   0  0  0  0  0  0  0  0  0  0  0  0
   11.2625  -17.7346   21.7713 C   0  0  1  0  0  0  0  0  0  0  0  0
   12.7133  -18.0760   21.8435 C   0  0  0  0  0  0  0  0  0  0  0  0
   13.2032  -18.0570   23.2406 C   0  0  0  0  0  0  0  0  0  0  0  0
   12.7091  -18.8138   24.1064 O   0  0  0  0  0  0  0  0  0  0  0  0
   10.9304  -16.4882   22.5107 C   0  0  0  0  0  0  0  0  0  0  0  0
   11.6255  -15.4633   22.3138 O   0  0  0  0  0  0  0  0  0  0  0  0
   14.2228  -17.2123   23.6657 O   0  0  0  0  0  0  0  0  0  0  0  0
    7.2939  -15.4309   24.2311 O   0  0  0  0  0  0  0  0  0  0  0  0
    8.3170  -14.5468   23.9225 C   0  0  0  0  0  0  0  0  0  0  0  0
    9.6362  -15.2198   24.2456 C   0  0  2  0  0  0  0  0  0  0  0  0
    9.8602  -16.3990   23.4337 N   0  0  0  0  0  0  0  0  0  0  0  0
    9.7712  -15.5170   25.6823 C   0  0  0  0  0  0  0  0  0  0  0  0
    9.6902  -14.5048   26.6066 O   0  0  0  0  0  0  0  0  0  0  0  0
    9.9593  -16.6878   26.0631 O   0  0  0  0  0  0  0  0  0  0  0  0
  2  1  1  6
  3  2  1  0
  4  8  1  0
  4  3  1  0
  5  4  2  0
  6  2  1  0
  7  6  2  0
  9  6  1  0
 10 14  1  0
 10  9  1  0
 10 11  1  6
 12 13  2  0
 12 11  1  0
 14 20  1  0
 15 14  2  0
 16 12  1  0
 18 17  1  0
 19 18  1  1
 19 21  1  0
 20 19  1  0
 21 23  2  0
 21 22  1  0
M  END
$$$$
