DDS.pdb
     RDKit          3D

 23 22  0  0  1  0  0  0  0  0999 V2000
   12.9237  -18.8920   16.8597 N   0  0  0  0  0  0  0  0  0  0  0  0
   11.6137  -18.3516   17.1642 C   0  0  1  0  0  0  0  0  0  0  0  0
   10.6468  -18.5853   16.0434 C   0  0  0  0  0  0  0  0  0  0  0  0
   11.0491  -17.8492   14.8441 C   0  0  0  0  0  0  0  0  0  0  0  0
   12.1186  -17.1929   14.8514 O   0  0  0  0  0  0  0  0  0  0  0  0
   11.1538  -18.9337   18.4473 C   0  0  0  0  0  0  0  0  0  0  0  0
   10.0561  -18.5662   18.9648 O   0  0  0  0  0  0  0  0  0  0  0  0
   10.2189  -17.9015   13.7154 O   0  0  0  0  0  0  0  0  0  0  0  0
   11.8878  -19.9136   19.1648 N   0  0  0  0  0  0  0  0  0  0  0  0
   11.4868  -20.4975   20.4220 C   0  0  1  0  0  0  0  0  0  0  0  0
   11.9614  -21.8998   20.6079 C   0  0  0  0  0  0  0  0  0  0  0  0
   11.5374  -22.4437   21.9182 C   0  0  0  0  0  0  0  0  0  0  0  0
   10.3321  -22.4440   22.2555 O   0  0  0  0  0  0  0  0  0  0  0  0
   11.8335  -19.6190   21.5703 C   0  0  0  0  0  0  0  0  0  0  0  0
   12.9910  -19.1421   21.6406 O   0  0  0  0  0  0  0  0  0  0  0  0
   12.4371  -22.9768   22.8348 O   0  0  0  0  0  0  0  0  0  0  0  0
    9.0090  -18.0740   24.1938 O   0  0  0  0  0  0  0  0  0  0  0  0
   10.2205  -17.4183   24.0332 C   0  0  0  0  0  0  0  0  0  0  0  0
   11.2815  -18.4556   23.7234 C   0  0  2  0  0  0  0  0  0  0  0  0
   10.9153  -19.2908   22.5972 N   0  0  0  0  0  0  0  0  0  0  0  0
   11.6318  -19.2624   24.9054 C   0  0  0  0  0  0  0  0  0  0  0  0
   12.2248  -18.6704   25.9933 O   0  0  0  0  0  0  0  0  0  0  0  0
   11.3912  -20.4842   24.9216 O   0  0  0  0  0  0  0  0  0  0  0  0
  2  1  1  6
  3  2  1  0
  4  8  1  0
  4  3  1  0
  5  4  2  0
  6  2  1  0
  7  6  2  0
  9  6  1  0
 10 14  1  0
 10  9  1  0
 10 11  1  1
 12 13  2  0
 12 11  1  0
 14 20  1  0
 15 14  2  0
 16 12  1  0
 18 17  1  0
 19 18  1  1
 19 21  1  0
 20 19  1  0
 21 23  2  0
 21 22  1  0
M  END
$$$$
