MLW.pdb
     RDKit          3D

 31 32  0  0  1  0  0  0  0  0999 V2000
   20.7818  -19.1098  -11.7504 C   0  0  0  0  0  0  0  0  0  0  0  0
   20.5053  -17.9657  -13.1095 S   0  0  0  0  0  0  0  0  0  0  0  0
   20.9019  -18.7462  -14.7192 C   0  0  0  0  0  0  0  0  0  0  0  0
   22.1795  -19.4996  -14.5294 C   0  0  0  0  0  0  0  0  0  0  0  0
   23.2653  -19.1503  -15.4921 C   0  0  2  0  0  0  0  0  0  0  0  0
   22.8746  -19.2560  -16.8648 N   0  0  0  0  0  0  0  0  0  0  0  0
   24.5639  -19.8333  -15.2043 C   0  0  0  0  0  0  0  0  0  0  0  0
   24.5860  -21.0650  -15.1662 O   0  0  0  0  0  0  0  0  0  0  0  0
   28.4139  -18.8391  -17.2536 C   0  0  0  0  0  0  0  0  0  0  0  0
   28.1845  -17.8643  -16.0697 C   0  0  2  0  0  0  0  0  0  0  0  0
   29.4574  -16.9925  -16.0719 C   0  0  0  0  0  0  0  0  0  0  0  0
   28.2237  -18.6748  -14.8405 C   0  0  0  0  0  0  0  0  0  0  0  0
   27.0366  -19.5700  -14.6033 C   0  0  2  0  0  0  0  0  0  0  0  0
   25.7569  -19.1182  -14.9761 N   0  0  0  0  0  0  0  0  0  0  0  0
   27.1425  -20.3343  -13.3547 C   0  0  0  0  0  0  0  0  0  0  0  0
   28.2067  -20.9759  -13.0468 O   0  0  0  0  0  0  0  0  0  0  0  0
   26.0935  -20.4250  -12.4004 N   0  0  0  0  0  0  0  0  0  0  0  0
   26.2083  -21.1914  -11.1427 C   0  0  1  0  0  0  0  0  0  0  0  0
   27.3227  -20.6707  -10.3179 C   0  0  0  0  0  0  0  0  0  0  0  0
   26.9893  -20.5263   -8.8987 C   0  0  0  0  0  0  0  0  0  0  0  0
   25.7436  -20.6230   -8.2817 C   0  0  0  0  0  0  0  0  0  0  0  0
   25.8507  -20.3980   -6.9687 N   0  0  0  0  0  0  0  0  0  0  0  0
   27.1406  -20.1517   -6.6836 C   0  0  0  0  0  0  0  0  0  0  0  0
   27.7499  -19.8778   -5.4602 C   0  0  0  0  0  0  0  0  0  0  0  0
   29.1156  -19.6704   -5.3878 C   0  0  0  0  0  0  0  0  0  0  0  0
   29.8206  -19.7468   -6.5554 C   0  0  0  0  0  0  0  0  0  0  0  0
   29.2262  -20.0145   -7.7564 C   0  0  0  0  0  0  0  0  0  0  0  0
   27.8759  -20.2235   -7.8584 C   0  0  0  0  0  0  0  0  0  0  0  0
   24.9096  -21.3932  -10.5288 C   0  0  0  0  0  0  0  0  0  0  0  0
   23.9963  -20.5217  -10.6950 O   0  0  0  0  0  0  0  0  0  0  0  0
   24.5442  -22.4838   -9.7536 O   0  0  0  0  0  0  0  0  0  0  0  0
  1  2  1  0
  2  3  1  0
  4  3  1  0
  5  6  1  6
  5  4  1  0
  7  8  2  0
  7  5  1  0
 10  9  1  6
 10 11  1  0
 10 12  1  0
 13 12  1  1
 13 14  1  0
 14  7  1  0
 15 13  1  0
 16 15  2  0
 17 15  1  0
 18 29  1  0
 18 17  1  0
 18 19  1  1
 20 19  1  0
 20 28  1  0
 21 22  1  0
 21 20  2  0
 22 23  1  0
 23 28  2  0
 23 24  1  0
 24 25  2  0
 25 26  1  0
 27 26  2  0
 28 27  1  0
 29 31  1  0
 30 29  2  0
M  END
$$$$
