MLW.pdb
     RDKit          3D

 31 32  0  0  1  0  0  0  0  0999 V2000
   22.1122  -24.8054  -19.4399 C   0  0  0  0  0  0  0  0  0  0  0  0
   20.7165  -23.7213  -19.1092 S   0  0  0  0  0  0  0  0  0  0  0  0
   21.2623  -21.9820  -18.9233 C   0  0  0  0  0  0  0  0  0  0  0  0
   22.7009  -22.0231  -18.5181 C   0  0  0  0  0  0  0  0  0  0  0  0
   22.9461  -21.8875  -17.0520 C   0  0  2  0  0  0  0  0  0  0  0  0
   22.1230  -20.9031  -16.4185 N   0  0  0  0  0  0  0  0  0  0  0  0
   24.3920  -21.7507  -16.6965 C   0  0  0  0  0  0  0  0  0  0  0  0
   25.1999  -22.5312  -17.2036 O   0  0  0  0  0  0  0  0  0  0  0  0
   28.3623  -17.4311  -14.8216 C   0  0  0  0  0  0  0  0  0  0  0  0
   28.0749  -18.9546  -14.8461 C   0  0  2  0  0  0  0  0  0  0  0  0
   28.9571  -19.4669  -16.0035 C   0  0  0  0  0  0  0  0  0  0  0  0
   26.6743  -19.1142  -15.2734 C   0  0  0  0  0  0  0  0  0  0  0  0
   26.1500  -20.5253  -15.2989 C   0  0  2  0  0  0  0  0  0  0  0  0
   24.8585  -20.7636  -15.8049 N   0  0  0  0  0  0  0  0  0  0  0  0
   26.5692  -21.3080  -14.1301 C   0  0  0  0  0  0  0  0  0  0  0  0
   27.7985  -21.3923  -13.7825 O   0  0  0  0  0  0  0  0  0  0  0  0
   25.6639  -22.0241  -13.3012 N   0  0  0  0  0  0  0  0  0  0  0  0
   25.4176  -21.6796  -11.8860 C   0  0  1  0  0  0  0  0  0  0  0  0
   26.6791  -21.2757  -11.2233 C   0  0  0  0  0  0  0  0  0  0  0  0
   26.4875  -20.7016   -9.8892 C   0  0  0  0  0  0  0  0  0  0  0  0
   25.3352  -20.1459   -9.3366 C   0  0  0  0  0  0  0  0  0  0  0  0
   25.5743  -19.7027   -8.0986 N   0  0  0  0  0  0  0  0  0  0  0  0
   26.8619  -19.9464   -7.8013 C   0  0  0  0  0  0  0  0  0  0  0  0
   27.5755  -19.6837   -6.6331 C   0  0  0  0  0  0  0  0  0  0  0  0
   28.9084  -20.0392   -6.5305 C   0  0  0  0  0  0  0  0  0  0  0  0
   29.4761  -20.6490   -7.6131 C   0  0  0  0  0  0  0  0  0  0  0  0
   28.7794  -20.9074   -8.7600 C   0  0  0  0  0  0  0  0  0  0  0  0
   27.4588  -20.5660   -8.8902 C   0  0  0  0  0  0  0  0  0  0  0  0
   24.2449  -20.8373  -11.7455 C   0  0  0  0  0  0  0  0  0  0  0  0
   24.0595  -19.8806  -12.5650 O   0  0  0  0  0  0  0  0  0  0  0  0
   23.2633  -20.9761  -10.7756 O   0  0  0  0  0  0  0  0  0  0  0  0
  1  2  1  0
  2  3  1  0
  4  3  1  0
  5  6  1  6
  5  4  1  0
  7  8  2  0
  7  5  1  0
 10  9  1  6
 10 11  1  0
 10 12  1  0
 13 12  1  1
 13 14  1  0
 14  7  1  0
 15 13  1  0
 16 15  2  0
 17 15  1  0
 18 29  1  0
 18 17  1  0
 18 19  1  6
 20 19  1  0
 20 28  1  0
 21 22  1  0
 21 20  2  0
 22 23  1  0
 23 28  2  0
 23 24  1  0
 24 25  2  0
 25 26  1  0
 27 26  2  0
 28 27  1  0
 29 31  1  0
 30 29  2  0
M  END
$$$$
