MLW.pdb
     RDKit          3D

 31 32  0  0  1  0  0  0  0  0999 V2000
   19.6167  -19.9691  -16.5664 C   0  0  0  0  0  0  0  0  0  0  0  0
   19.5956  -18.2240  -16.9986 S   0  0  0  0  0  0  0  0  0  0  0  0
   21.2586  -17.6523  -17.5138 C   0  0  0  0  0  0  0  0  0  0  0  0
   22.2124  -18.7585  -17.1940 C   0  0  0  0  0  0  0  0  0  0  0  0
   23.2038  -18.4450  -16.1231 C   0  0  2  0  0  0  0  0  0  0  0  0
   23.7251  -17.1140  -16.1919 N   0  0  0  0  0  0  0  0  0  0  0  0
   24.2728  -19.4798  -15.9747 C   0  0  0  0  0  0  0  0  0  0  0  0
   23.9485  -20.6687  -15.9922 O   0  0  0  0  0  0  0  0  0  0  0  0
   27.7645  -17.8476  -17.5514 C   0  0  0  0  0  0  0  0  0  0  0  0
   28.1985  -17.9577  -16.0668 C   0  0  2  0  0  0  0  0  0  0  0  0
   29.6935  -17.5784  -16.1017 C   0  0  0  0  0  0  0  0  0  0  0  0
   28.1279  -19.3851  -15.7100 C   0  0  0  0  0  0  0  0  0  0  0  0
   26.7453  -19.9473  -15.5124 C   0  0  2  0  0  0  0  0  0  0  0  0
   25.6320  -19.1415  -15.8160 N   0  0  0  0  0  0  0  0  0  0  0  0
   26.6475  -20.8114  -14.3300 C   0  0  0  0  0  0  0  0  0  0  0  0
   27.4079  -21.8297  -14.1761 O   0  0  0  0  0  0  0  0  0  0  0  0
   25.7189  -20.5950  -13.2763 N   0  0  0  0  0  0  0  0  0  0  0  0
   25.5014  -21.5599  -12.1791 C   0  0  1  0  0  0  0  0  0  0  0  0
   26.7083  -21.6561  -11.3260 C   0  0  0  0  0  0  0  0  0  0  0  0
   26.5517  -21.0330  -10.0095 C   0  0  0  0  0  0  0  0  0  0  0  0
   25.4342  -20.3954   -9.4742 C   0  0  0  0  0  0  0  0  0  0  0  0
   25.6998  -19.9306   -8.2497 N   0  0  0  0  0  0  0  0  0  0  0  0
   26.9715  -20.2396   -7.9445 C   0  0  0  0  0  0  0  0  0  0  0  0
   27.7004  -19.9844   -6.7841 C   0  0  0  0  0  0  0  0  0  0  0  0
   29.0106  -20.4133   -6.6703 C   0  0  0  0  0  0  0  0  0  0  0  0
   29.5408  -21.0865   -7.7341 C   0  0  0  0  0  0  0  0  0  0  0  0
   28.8291  -21.3377   -8.8734 C   0  0  0  0  0  0  0  0  0  0  0  0
   27.5304  -20.9245   -9.0143 C   0  0  0  0  0  0  0  0  0  0  0  0
   24.2079  -21.3625  -11.5529 C   0  0  0  0  0  0  0  0  0  0  0  0
   23.5645  -20.2857  -11.7714 O   0  0  0  0  0  0  0  0  0  0  0  0
   23.5722  -22.2641  -10.7123 O   0  0  0  0  0  0  0  0  0  0  0  0
  1  2  1  0
  2  3  1  0
  4  3  1  0
  5  6  1  6
  5  4  1  0
  7  8  2  0
  7  5  1  0
 10  9  1  6
 10 11  1  0
 10 12  1  0
 13 12  1  1
 13 14  1  0
 14  7  1  0
 15 13  1  0
 16 15  2  0
 17 15  1  0
 18 29  1  0
 18 17  1  0
 18 19  1  1
 20 19  1  0
 20 28  1  0
 21 22  1  0
 21 20  2  0
 22 23  1  0
 23 28  2  0
 23 24  1  0
 24 25  2  0
 25 26  1  0
 27 26  2  0
 28 27  1  0
 29 31  1  0
 30 29  2  0
M  END
$$$$
