MLW.pdb
     RDKit          3D

 31 32  0  0  1  0  0  0  0  0999 V2000
   18.6783  -17.0818  -13.2014 C   0  0  0  0  0  0  0  0  0  0  0  0
   20.1238  -18.0851  -12.8318 S   0  0  0  0  0  0  0  0  0  0  0  0
   21.1327  -18.3668  -14.3353 C   0  0  0  0  0  0  0  0  0  0  0  0
   22.2959  -19.2102  -13.9216 C   0  0  0  0  0  0  0  0  0  0  0  0
   23.3095  -19.4524  -14.9902 C   0  0  2  0  0  0  0  0  0  0  0  0
   22.7509  -19.9362  -16.2157 N   0  0  0  0  0  0  0  0  0  0  0  0
   24.4840  -20.2558  -14.5310 C   0  0  0  0  0  0  0  0  0  0  0  0
   24.3890  -21.4845  -14.5191 O   0  0  0  0  0  0  0  0  0  0  0  0
   28.3167  -19.9824  -16.3725 C   0  0  0  0  0  0  0  0  0  0  0  0
   28.2462  -18.8909  -15.2735 C   0  0  2  0  0  0  0  0  0  0  0  0
   29.6272  -18.2084  -15.3576 C   0  0  0  0  0  0  0  0  0  0  0  0
   28.1954  -19.5948  -13.9806 C   0  0  0  0  0  0  0  0  0  0  0  0
   26.8784  -20.2348  -13.6301 C   0  0  2  0  0  0  0  0  0  0  0  0
   25.6896  -19.6567  -14.1132 N   0  0  0  0  0  0  0  0  0  0  0  0
   26.8562  -20.7780  -12.2667 C   0  0  0  0  0  0  0  0  0  0  0  0
   27.8594  -21.4034  -11.7753 O   0  0  0  0  0  0  0  0  0  0  0  0
   25.7415  -20.6578  -11.3937 N   0  0  0  0  0  0  0  0  0  0  0  0
   25.7655  -21.1030   -9.9852 C   0  0  1  0  0  0  0  0  0  0  0  0
   26.9346  -20.5293   -9.2798 C   0  0  0  0  0  0  0  0  0  0  0  0
   26.8474  -20.6224   -7.8204 C   0  0  0  0  0  0  0  0  0  0  0  0
   25.9428  -21.3458   -7.0456 C   0  0  0  0  0  0  0  0  0  0  0  0
   26.1743  -21.1471   -5.7444 N   0  0  0  0  0  0  0  0  0  0  0  0
   27.2152  -20.3061   -5.6216 C   0  0  0  0  0  0  0  0  0  0  0  0
   27.8367  -19.8131   -4.4754 C   0  0  0  0  0  0  0  0  0  0  0  0
   28.9210  -18.9602   -4.5773 C   0  0  0  0  0  0  0  0  0  0  0  0
   29.3414  -18.6338   -5.8354 C   0  0  0  0  0  0  0  0  0  0  0  0
   28.7339  -19.1149   -6.9610 C   0  0  0  0  0  0  0  0  0  0  0  0
   27.6580  -19.9604   -6.8906 C   0  0  0  0  0  0  0  0  0  0  0  0
   24.4526  -20.9982   -9.3775 C   0  0  0  0  0  0  0  0  0  0  0  0
   23.6490  -20.0942   -9.7751 O   0  0  0  0  0  0  0  0  0  0  0  0
   23.9610  -21.8177   -8.3722 O   0  0  0  0  0  0  0  0  0  0  0  0
  1  2  1  0
  2  3  1  0
  4  3  1  0
  5  6  1  6
  5  4  1  0
  7  8  2  0
  7  5  1  0
 10  9  1  6
 10 11  1  0
 10 12  1  0
 13 12  1  1
 13 14  1  0
 14  7  1  0
 15 13  1  0
 16 15  2  0
 17 15  1  0
 18 29  1  0
 18 17  1  0
 18 19  1  1
 20 19  1  0
 20 28  1  0
 21 22  1  0
 21 20  2  0
 22 23  1  0
 23 28  2  0
 23 24  1  0
 24 25  2  0
 25 26  1  0
 27 26  2  0
 28 27  1  0
 29 31  1  0
 30 29  2  0
M  END
$$$$
