MLW.pdb
     RDKit          3D

 31 32  0  0  1  0  0  0  0  0999 V2000
   22.8479  -17.6378  -18.2348 C   0  0  0  0  0  0  0  0  0  0  0  0
   23.9438  -16.3215  -18.7815 S   0  0  0  0  0  0  0  0  0  0  0  0
   25.5489  -16.9951  -19.3540 C   0  0  0  0  0  0  0  0  0  0  0  0
   25.8960  -18.1215  -18.4339 C   0  0  0  0  0  0  0  0  0  0  0  0
   26.6243  -17.7201  -17.1944 C   0  0  2  0  0  0  0  0  0  0  0  0
   27.7797  -16.9124  -17.4408 N   0  0  0  0  0  0  0  0  0  0  0  0
   26.9001  -18.8593  -16.2660 C   0  0  0  0  0  0  0  0  0  0  0  0
   26.1125  -19.8071  -16.2462 O   0  0  0  0  0  0  0  0  0  0  0  0
   31.3178  -20.1497  -11.9669 C   0  0  0  0  0  0  0  0  0  0  0  0
   29.9192  -20.5073  -12.5327 C   0  0  2  0  0  0  0  0  0  0  0  0
   30.1360  -21.8940  -13.1733 C   0  0  0  0  0  0  0  0  0  0  0  0
   29.6543  -19.5649  -13.6332 C   0  0  0  0  0  0  0  0  0  0  0  0
   28.3119  -19.6942  -14.3027 C   0  0  2  0  0  0  0  0  0  0  0  0
   28.0252  -18.8842  -15.4173 N   0  0  0  0  0  0  0  0  0  0  0  0
   27.2227  -19.9353  -13.3488 C   0  0  0  0  0  0  0  0  0  0  0  0
   26.9992  -19.1429  -12.3684 O   0  0  0  0  0  0  0  0  0  0  0  0
   26.3410  -21.0467  -13.4311 N   0  0  0  0  0  0  0  0  0  0  0  0
   25.3768  -21.3947  -12.3673 C   0  0  1  0  0  0  0  0  0  0  0  0
   24.6811  -20.1811  -11.8807 C   0  0  0  0  0  0  0  0  0  0  0  0
   23.7833  -20.4289  -10.7498 C   0  0  0  0  0  0  0  0  0  0  0  0
   24.1071  -20.7741   -9.4392 C   0  0  0  0  0  0  0  0  0  0  0  0
   22.9997  -20.9429   -8.7103 N   0  0  0  0  0  0  0  0  0  0  0  0
   21.9343  -20.7194   -9.4982 C   0  0  0  0  0  0  0  0  0  0  0  0
   20.5741  -20.7579   -9.1958 C   0  0  0  0  0  0  0  0  0  0  0  0
   19.6314  -20.4721  -10.1669 C   0  0  0  0  0  0  0  0  0  0  0  0
   20.0953  -20.1567  -11.4125 C   0  0  0  0  0  0  0  0  0  0  0  0
   21.4280  -20.1187  -11.7123 C   0  0  0  0  0  0  0  0  0  0  0  0
   22.3839  -20.3977  -10.7711 C   0  0  0  0  0  0  0  0  0  0  0  0
   24.5935  -22.5612  -12.7278 C   0  0  0  0  0  0  0  0  0  0  0  0
   23.9159  -22.5516  -13.8057 O   0  0  0  0  0  0  0  0  0  0  0  0
   24.5080  -23.7343  -11.9929 O   0  0  0  0  0  0  0  0  0  0  0  0
  1  2  1  0
  2  3  1  0
  4  3  1  0
  5  6  1  6
  5  4  1  0
  7  8  2  0
  7  5  1  0
 10  9  1  6
 10 11  1  0
 10 12  1  0
 13 12  1  1
 13 14  1  0
 14  7  1  0
 15 13  1  0
 16 15  2  0
 17 15  1  0
 18 29  1  0
 18 17  1  0
 18 19  1  6
 20 19  1  0
 20 28  1  0
 21 22  1  0
 21 20  2  0
 22 23  1  0
 23 28  2  0
 23 24  1  0
 24 25  2  0
 25 26  1  0
 27 26  2  0
 28 27  1  0
 29 31  1  0
 30 29  2  0
M  END
$$$$
