MLW.pdb
     RDKit          3D

 31 32  0  0  1  0  0  0  0  0999 V2000
   24.2139  -14.5033  -13.4568 C   0  0  0  0  0  0  0  0  0  0  0  0
   22.6240  -15.3298  -13.6049 S   0  0  0  0  0  0  0  0  0  0  0  0
   22.6936  -16.6754  -14.8467 C   0  0  0  0  0  0  0  0  0  0  0  0
   23.6019  -17.7260  -14.2927 C   0  0  0  0  0  0  0  0  0  0  0  0
   23.9355  -18.8320  -15.2380 C   0  0  2  0  0  0  0  0  0  0  0  0
   22.8017  -19.3529  -15.9388 N   0  0  0  0  0  0  0  0  0  0  0  0
   24.7849  -19.9027  -14.6316 C   0  0  0  0  0  0  0  0  0  0  0  0
   24.2365  -20.9257  -14.2169 O   0  0  0  0  0  0  0  0  0  0  0  0
   28.5745  -21.3661  -16.5697 C   0  0  0  0  0  0  0  0  0  0  0  0
   28.8510  -20.1092  -15.7049 C   0  0  2  0  0  0  0  0  0  0  0  0
   30.3763  -19.9157  -15.8317 C   0  0  0  0  0  0  0  0  0  0  0  0
   28.5832  -20.4897  -14.3074 C   0  0  0  0  0  0  0  0  0  0  0  0
   27.1329  -20.6388  -13.9315 C   0  0  2  0  0  0  0  0  0  0  0  0
   26.1847  -19.7808  -14.5193 N   0  0  0  0  0  0  0  0  0  0  0  0
   26.9455  -20.9791  -12.5161 C   0  0  0  0  0  0  0  0  0  0  0  0
   27.7339  -21.7834  -11.9074 O   0  0  0  0  0  0  0  0  0  0  0  0
   25.8939  -20.4549  -11.7169 N   0  0  0  0  0  0  0  0  0  0  0  0
   25.7160  -20.7942  -10.2902 C   0  0  1  0  0  0  0  0  0  0  0  0
   26.9005  -20.3755   -9.5059 C   0  0  0  0  0  0  0  0  0  0  0  0
   26.6808  -20.3792   -8.0575 C   0  0  0  0  0  0  0  0  0  0  0  0
   25.5752  -20.8390   -7.3447 C   0  0  0  0  0  0  0  0  0  0  0  0
   25.7448  -20.6396   -6.0342 N   0  0  0  0  0  0  0  0  0  0  0  0
   26.9401  -20.0556   -5.8444 C   0  0  0  0  0  0  0  0  0  0  0  0
   27.5683  -19.6669   -4.6623 C   0  0  0  0  0  0  0  0  0  0  0  0
   28.8260  -19.0917   -4.6928 C   0  0  0  0  0  0  0  0  0  0  0  0
   29.4074  -18.9286   -5.9182 C   0  0  0  0  0  0  0  0  0  0  0  0
   28.7939  -19.3081   -7.0789 C   0  0  0  0  0  0  0  0  0  0  0  0
   27.5485  -19.8794   -7.0792 C   0  0  0  0  0  0  0  0  0  0  0  0
   24.3931  -20.4262   -9.8224 C   0  0  0  0  0  0  0  0  0  0  0  0
   23.8367  -19.3764  -10.2803 O   0  0  0  0  0  0  0  0  0  0  0  0
   23.6399  -21.1312   -8.8955 O   0  0  0  0  0  0  0  0  0  0  0  0
  1  2  1  0
  2  3  1  0
  4  3  1  0
  5  6  1  1
  5  4  1  0
  7  8  2  0
  7  5  1  0
 10  9  1  6
 10 11  1  0
 10 12  1  0
 13 12  1  1
 13 14  1  0
 14  7  1  0
 15 13  1  0
 16 15  2  0
 17 15  1  0
 18 29  1  0
 18 17  1  0
 18 19  1  1
 20 19  1  0
 20 28  1  0
 21 22  1  0
 21 20  2  0
 22 23  1  0
 23 28  2  0
 23 24  1  0
 24 25  2  0
 25 26  1  0
 27 26  2  0
 28 27  1  0
 29 31  1  0
 30 29  2  0
M  END
$$$$
