MLW.pdb
     RDKit          3D

 31 32  0  0  1  0  0  0  0  0999 V2000
   26.5785  -18.9501  -17.7363 C   0  0  0  0  0  0  0  0  0  0  0  0
   28.1099  -19.8543  -18.0007 S   0  0  0  0  0  0  0  0  0  0  0  0
   27.8936  -21.6374  -17.6382 C   0  0  0  0  0  0  0  0  0  0  0  0
   26.9880  -21.7289  -16.4519 C   0  0  0  0  0  0  0  0  0  0  0  0
   27.6449  -21.4693  -15.1370 C   0  0  2  0  0  0  0  0  0  0  0  0
   28.8914  -22.1523  -14.9705 N   0  0  0  0  0  0  0  0  0  0  0  0
   26.7300  -21.6383  -13.9665 C   0  0  0  0  0  0  0  0  0  0  0  0
   25.6404  -22.1861  -14.1445 O   0  0  0  0  0  0  0  0  0  0  0  0
   24.9194  -20.0907   -9.3153 C   0  0  0  0  0  0  0  0  0  0  0  0
   26.1623  -20.9536   -8.9763 C   0  0  2  0  0  0  0  0  0  0  0  0
   26.8943  -20.1211   -7.9034 C   0  0  0  0  0  0  0  0  0  0  0  0
   27.0179  -20.9527  -10.1753 C   0  0  0  0  0  0  0  0  0  0  0  0
   26.3113  -21.1558  -11.4891 C   0  0  2  0  0  0  0  0  0  0  0  0
   27.0712  -21.1936  -12.6732 N   0  0  0  0  0  0  0  0  0  0  0  0
   25.0117  -20.4759  -11.5458 C   0  0  0  0  0  0  0  0  0  0  0  0
   24.8908  -19.2315  -11.2706 O   0  0  0  0  0  0  0  0  0  0  0  0
   23.8013  -21.1284  -11.9042 N   0  0  0  0  0  0  0  0  0  0  0  0
   22.7706  -20.5073  -12.7612 C   0  0  1  0  0  0  0  0  0  0  0  0
   23.2836  -20.3226  -14.1382 C   0  0  0  0  0  0  0  0  0  0  0  0
   22.3204  -19.6974  -15.0479 C   0  0  0  0  0  0  0  0  0  0  0  0
   21.6154  -18.5062  -14.8867 C   0  0  0  0  0  0  0  0  0  0  0  0
   20.8082  -18.2928  -15.9302 N   0  0  0  0  0  0  0  0  0  0  0  0
   20.9516  -19.3124  -16.7938 C   0  0  0  0  0  0  0  0  0  0  0  0
   20.3394  -19.5337  -18.0264 C   0  0  0  0  0  0  0  0  0  0  0  0
   20.6500  -20.6565  -18.7722 C   0  0  0  0  0  0  0  0  0  0  0  0
   21.5699  -21.5190  -18.2469 C   0  0  0  0  0  0  0  0  0  0  0  0
   22.1714  -21.3053  -17.0386 C   0  0  0  0  0  0  0  0  0  0  0  0
   21.8829  -20.2027  -16.2780 C   0  0  0  0  0  0  0  0  0  0  0  0
   21.4770  -21.1344  -12.5675 C   0  0  0  0  0  0  0  0  0  0  0  0
   21.4113  -22.3946  -12.3976 O   0  0  0  0  0  0  0  0  0  0  0  0
   20.2567  -20.4757  -12.5416 O   0  0  0  0  0  0  0  0  0  0  0  0
  1  2  1  0
  2  3  1  0
  4  3  1  0
  5  6  1  1
  5  4  1  0
  7  8  2  0
  7  5  1  0
 10  9  1  6
 10 11  1  0
 10 12  1  0
 13 12  1  1
 13 14  1  0
 14  7  1  0
 15 13  1  0
 16 15  2  0
 17 15  1  0
 18 29  1  0
 18 17  1  0
 18 19  1  6
 20 19  1  0
 20 28  1  0
 21 22  1  0
 21 20  2  0
 22 23  1  0
 23 28  2  0
 23 24  1  0
 24 25  2  0
 25 26  1  0
 27 26  2  0
 28 27  1  0
 29 31  1  0
 30 29  2  0
M  END
$$$$
