MLW.pdb
     RDKit          3D

 31 32  0  0  1  0  0  0  0  0999 V2000
   19.5860  -21.9297  -13.3900 C   0  0  0  0  0  0  0  0  0  0  0  0
   19.2044  -20.1728  -13.4138 S   0  0  0  0  0  0  0  0  0  0  0  0
   20.3637  -19.2612  -14.5014 C   0  0  0  0  0  0  0  0  0  0  0  0
   21.5977  -20.0981  -14.6131 C   0  0  0  0  0  0  0  0  0  0  0  0
   22.7131  -19.6992  -13.7050 C   0  0  2  0  0  0  0  0  0  0  0  0
   23.0642  -18.3149  -13.7967 N   0  0  0  0  0  0  0  0  0  0  0  0
   23.9003  -20.6051  -13.7804 C   0  0  0  0  0  0  0  0  0  0  0  0
   23.7105  -21.8214  -13.8401 O   0  0  0  0  0  0  0  0  0  0  0  0
   30.0715  -19.5853  -13.0388 C   0  0  0  0  0  0  0  0  0  0  0  0
   28.9088  -20.6086  -12.9660 C   0  0  2  0  0  0  0  0  0  0  0  0
   29.2432  -21.6110  -14.0900 C   0  0  0  0  0  0  0  0  0  0  0  0
   27.6893  -19.8936  -13.3799 C   0  0  0  0  0  0  0  0  0  0  0  0
   26.3970  -20.6502  -13.2239 C   0  0  2  0  0  0  0  0  0  0  0  0
   25.2222  -20.1158  -13.7853 N   0  0  0  0  0  0  0  0  0  0  0  0
   26.2787  -21.3083  -11.9172 C   0  0  0  0  0  0  0  0  0  0  0  0
   27.1093  -22.2057  -11.5383 O   0  0  0  0  0  0  0  0  0  0  0  0
   25.2525  -21.0107  -10.9803 N   0  0  0  0  0  0  0  0  0  0  0  0
   25.4678  -21.0078   -9.5188 C   0  0  1  0  0  0  0  0  0  0  0  0
   26.3393  -19.8769   -9.1252 C   0  0  0  0  0  0  0  0  0  0  0  0
   27.5301  -20.2828   -8.3746 C   0  0  0  0  0  0  0  0  0  0  0  0
   28.5460  -21.1564   -8.7574 C   0  0  0  0  0  0  0  0  0  0  0  0
   29.4450  -21.2901   -7.7777 N   0  0  0  0  0  0  0  0  0  0  0  0
   29.0604  -20.5264   -6.7409 C   0  0  0  0  0  0  0  0  0  0  0  0
   29.6718  -20.3218   -5.5051 C   0  0  0  0  0  0  0  0  0  0  0  0
   29.1068  -19.4667   -4.5761 C   0  0  0  0  0  0  0  0  0  0  0  0
   27.9415  -18.8464   -4.9275 C   0  0  0  0  0  0  0  0  0  0  0  0
   27.3393  -19.0454   -6.1380 C   0  0  0  0  0  0  0  0  0  0  0  0
   27.8756  -19.8868   -7.0770 C   0  0  0  0  0  0  0  0  0  0  0  0
   24.2246  -21.2238   -8.8031 C   0  0  0  0  0  0  0  0  0  0  0  0
   23.1315  -20.8100   -9.3081 O   0  0  0  0  0  0  0  0  0  0  0  0
   24.0987  -21.8651   -7.5798 O   0  0  0  0  0  0  0  0  0  0  0  0
  1  2  1  0
  2  3  1  0
  4  3  1  0
  5  6  1  6
  5  4  1  0
  7  8  2  0
  7  5  1  0
 10  9  1  6
 10 11  1  0
 10 12  1  0
 13 12  1  1
 13 14  1  0
 14  7  1  0
 15 13  1  0
 16 15  2  0
 17 15  1  0
 18 29  1  0
 18 17  1  0
 18 19  1  1
 20 19  1  0
 20 28  1  0
 21 22  1  0
 21 20  2  0
 22 23  1  0
 23 28  2  0
 23 24  1  0
 24 25  2  0
 25 26  1  0
 27 26  2  0
 28 27  1  0
 29 31  1  0
 30 29  2  0
M  END
$$$$
