MLW.pdb
     RDKit          3D

 31 32  0  0  1  0  0  0  0  0999 V2000
   21.8698  -22.9925  -20.4117 C   0  0  0  0  0  0  0  0  0  0  0  0
   20.8891  -21.5058  -20.1658 S   0  0  0  0  0  0  0  0  0  0  0  0
   21.7816  -20.2924  -19.1222 C   0  0  0  0  0  0  0  0  0  0  0  0
   23.0915  -20.9164  -18.7609 C   0  0  0  0  0  0  0  0  0  0  0  0
   23.3169  -21.1040  -17.2974 C   0  0  2  0  0  0  0  0  0  0  0  0
   22.9054  -19.9872  -16.5029 N   0  0  0  0  0  0  0  0  0  0  0  0
   24.6933  -21.5806  -16.9595 C   0  0  0  0  0  0  0  0  0  0  0  0
   25.1718  -22.5101  -17.6123 O   0  0  0  0  0  0  0  0  0  0  0  0
   27.0720  -18.0561  -16.7210 C   0  0  0  0  0  0  0  0  0  0  0  0
   27.3882  -18.7873  -15.3907 C   0  0  2  0  0  0  0  0  0  0  0  0
   28.6403  -18.0533  -14.8675 C   0  0  0  0  0  0  0  0  0  0  0  0
   27.8112  -20.1522  -15.7482 C   0  0  0  0  0  0  0  0  0  0  0  0
   26.7890  -21.2364  -15.5330 C   0  0  2  0  0  0  0  0  0  0  0  0
   25.4570  -21.0047  -15.9241 N   0  0  0  0  0  0  0  0  0  0  0  0
   27.0039  -21.9798  -14.2858 C   0  0  0  0  0  0  0  0  0  0  0  0
   28.1796  -22.2593  -13.8632 O   0  0  0  0  0  0  0  0  0  0  0  0
   25.9460  -22.4429  -13.4577 N   0  0  0  0  0  0  0  0  0  0  0  0
   25.6269  -21.8470  -12.1441 C   0  0  1  0  0  0  0  0  0  0  0  0
   26.7816  -21.0745  -11.6307 C   0  0  0  0  0  0  0  0  0  0  0  0
   26.6816  -20.7386  -10.2083 C   0  0  0  0  0  0  0  0  0  0  0  0
   25.6027  -20.1931   -9.5153 C   0  0  0  0  0  0  0  0  0  0  0  0
   25.9161  -20.0059   -8.2297 N   0  0  0  0  0  0  0  0  0  0  0  0
   27.1823  -20.4127   -8.0374 C   0  0  0  0  0  0  0  0  0  0  0  0
   27.9491  -20.4314   -6.8734 C   0  0  0  0  0  0  0  0  0  0  0  0
   29.2445  -20.9162   -6.8947 C   0  0  0  0  0  0  0  0  0  0  0  0
   29.7221  -21.3662   -8.0927 C   0  0  0  0  0  0  0  0  0  0  0  0
   28.9733  -21.3486   -9.2357 C   0  0  0  0  0  0  0  0  0  0  0  0
   27.6881  -20.8738   -9.2447 C   0  0  0  0  0  0  0  0  0  0  0  0
   24.3128  -21.2329  -12.1498 C   0  0  0  0  0  0  0  0  0  0  0  0
   23.5758  -21.3214  -11.1153 O   0  0  0  0  0  0  0  0  0  0  0  0
   23.7569  -20.5263  -13.2059 O   0  0  0  0  0  0  0  0  0  0  0  0
  1  2  1  0
  2  3  1  0
  4  3  1  0
  5  6  1  1
  5  4  1  0
  7  8  2  0
  7  5  1  0
 10  9  1  6
 10 11  1  0
 10 12  1  0
 13 12  1  1
 13 14  1  0
 14  7  1  0
 15 13  1  0
 16 15  2  0
 17 15  1  0
 18 29  1  0
 18 17  1  0
 18 19  1  6
 20 19  1  0
 20 28  1  0
 21 22  1  0
 21 20  2  0
 22 23  1  0
 23 28  2  0
 23 24  1  0
 24 25  2  0
 25 26  1  0
 27 26  2  0
 28 27  1  0
 29 31  1  0
 30 29  2  0
M  END
$$$$
