MLW.pdb
     RDKit          3D

 31 32  0  0  1  0  0  0  0  0999 V2000
   26.6601  -16.5554  -15.8230 C   0  0  0  0  0  0  0  0  0  0  0  0
   28.1193  -16.9376  -16.8015 S   0  0  0  0  0  0  0  0  0  0  0  0
   28.5583  -18.7115  -16.6652 C   0  0  0  0  0  0  0  0  0  0  0  0
   27.5254  -19.3446  -15.7888 C   0  0  0  0  0  0  0  0  0  0  0  0
   27.7945  -20.7670  -15.4252 C   0  0  2  0  0  0  0  0  0  0  0  0
   27.9528  -21.6308  -16.5552 N   0  0  0  0  0  0  0  0  0  0  0  0
   26.8482  -21.3140  -14.4050 C   0  0  0  0  0  0  0  0  0  0  0  0
   25.9099  -22.0155  -14.7878 O   0  0  0  0  0  0  0  0  0  0  0  0
   26.0617  -19.8671   -8.3309 C   0  0  0  0  0  0  0  0  0  0  0  0
   25.3960  -20.4019   -9.6252 C   0  0  2  0  0  0  0  0  0  0  0  0
   24.9747  -21.8364   -9.2448 C   0  0  0  0  0  0  0  0  0  0  0  0
   26.4645  -20.5230  -10.6317 C   0  0  0  0  0  0  0  0  0  0  0  0
   26.0253  -20.9294  -12.0133 C   0  0  2  0  0  0  0  0  0  0  0  0
   26.9934  -21.0547  -13.0271 N   0  0  0  0  0  0  0  0  0  0  0  0
   24.7288  -20.3531  -12.3893 C   0  0  0  0  0  0  0  0  0  0  0  0
   24.3631  -19.1960  -11.9812 O   0  0  0  0  0  0  0  0  0  0  0  0
   23.7882  -21.0172  -13.2220 N   0  0  0  0  0  0  0  0  0  0  0  0
   22.5602  -20.3719  -13.7298 C   0  0  1  0  0  0  0  0  0  0  0  0
   22.7911  -19.8072  -15.0794 C   0  0  0  0  0  0  0  0  0  0  0  0
   21.6149  -19.1487  -15.6530 C   0  0  0  0  0  0  0  0  0  0  0  0
   20.6430  -18.3850  -15.0095 C   0  0  0  0  0  0  0  0  0  0  0  0
   19.7109  -17.9817  -15.8782 N   0  0  0  0  0  0  0  0  0  0  0  0
   20.0304  -18.4551  -17.0946 C   0  0  0  0  0  0  0  0  0  0  0  0
   19.3805  -18.2925  -18.3169 C   0  0  0  0  0  0  0  0  0  0  0  0
   19.8990  -18.8586  -19.4677 C   0  0  0  0  0  0  0  0  0  0  0  0
   21.0583  -19.5707  -19.3444 C   0  0  0  0  0  0  0  0  0  0  0  0
   21.6975  -19.7324  -18.1475 C   0  0  0  0  0  0  0  0  0  0  0  0
   21.2069  -19.1839  -16.9917 C   0  0  0  0  0  0  0  0  0  0  0  0
   21.3949  -21.2054  -13.5030 C   0  0  0  0  0  0  0  0  0  0  0  0
   21.5290  -22.4709  -13.4608 O   0  0  0  0  0  0  0  0  0  0  0  0
   20.0995  -20.7473  -13.3139 O   0  0  0  0  0  0  0  0  0  0  0  0
  1  2  1  0
  2  3  1  0
  4  3  1  0
  5  6  1  6
  5  4  1  0
  7  8  2  0
  7  5  1  0
 10  9  1  1
 10 11  1  0
 10 12  1  0
 13 12  1  1
 13 14  1  0
 14  7  1  0
 15 13  1  0
 16 15  2  0
 17 15  1  0
 18 29  1  0
 18 17  1  0
 18 19  1  6
 20 19  1  0
 20 28  1  0
 21 22  1  0
 21 20  2  0
 22 23  1  0
 23 28  2  0
 23 24  1  0
 24 25  2  0
 25 26  1  0
 27 26  2  0
 28 27  1  0
 29 31  1  0
 30 29  2  0
M  END
$$$$
