QNR.pdb
     RDKit          3D

 29 28  0  0  1  0  0  0  0  0999 V2000
    4.1442  -23.2373   23.7264 N   0  0  0  0  0  0  0  0  0  0  0  0
    3.8148  -22.8588   22.3851 C   0  0  0  0  0  0  0  0  0  0  0  0
    2.7367  -23.2525   21.9216 O   0  0  0  0  0  0  0  0  0  0  0  0
    4.8014  -22.0236   21.6694 C   0  0  0  0  0  0  0  0  0  0  0  0
    6.0390  -21.7838   22.4709 C   0  0  0  0  0  0  0  0  0  0  0  0
    6.3637  -20.3110   22.5635 C   0  0  2  0  0  0  0  0  0  0  0  0
    5.9099  -19.6102   21.3567 N   0  0  0  0  0  0  0  0  0  0  0  0
    7.8281  -20.1041   22.6665 C   0  0  0  0  0  0  0  0  0  0  0  0
    8.4664  -20.5936   23.6422 O   0  0  0  0  0  0  0  0  0  0  0  0
   12.8523  -19.6167   20.5167 N   0  0  0  0  0  0  0  0  0  0  0  0
   11.9387  -18.4974   20.4867 C   0  0  0  0  0  0  0  0  0  0  0  0
   12.4726  -17.3704   20.4314 O   0  0  0  0  0  0  0  0  0  0  0  0
   10.5054  -18.8079   20.5245 C   0  0  0  0  0  0  0  0  0  0  0  0
    9.9667  -19.1833   21.8624 C   0  0  2  0  0  0  0  0  0  0  0  0
    8.5273  -19.3717   21.6977 N   0  0  0  0  0  0  0  0  0  0  0  0
   10.1884  -18.0590   22.8415 C   0  0  0  0  0  0  0  0  0  0  0  0
   11.3462  -17.7601   23.1871 O   0  0  0  0  0  0  0  0  0  0  0  0
    4.7937  -11.7736   26.5786 N   0  0  0  0  0  0  0  0  0  0  0  0
    6.1489  -11.4366   26.7631 C   0  0  0  0  0  0  0  0  0  0  0  0
    6.4509  -10.3644   27.4128 N   0  0  0  0  0  0  0  0  0  0  0  0
    7.2274  -12.2133   26.2714 N   0  0  0  0  0  0  0  0  0  0  0  0
    7.0278  -13.4008   25.5209 C   0  0  0  0  0  0  0  0  0  0  0  0
    8.3147  -14.1715   25.2563 C   0  0  0  0  0  0  0  0  0  0  0  0
    8.0798  -15.3400   24.3457 C   0  0  0  0  0  0  0  0  0  0  0  0
    9.3666  -16.1055   24.1721 C   0  0  2  0  0  0  0  0  0  0  0  0
    9.1087  -17.3253   23.3855 N   0  0  0  0  0  0  0  0  0  0  0  0
    9.8878  -16.5633   25.4586 C   0  0  0  0  0  0  0  0  0  0  0  0
    9.3844  -17.6821   26.0774 O   0  0  0  0  0  0  0  0  0  0  0  0
   10.8081  -15.9442   26.0353 O   0  0  0  0  0  0  0  0  0  0  0  0
  2  1  1  0
  3  2  2  0
  4  2  1  0
  5  4  1  0
  6  5  1  0
  6  7  1  6
  8  6  1  0
  9  8  2  0
 10 11  1  0
 11 13  1  0
 12 11  2  0
 14 13  1  6
 14 15  1  0
 15  8  1  0
 16 14  1  0
 16 17  2  0
 18 19  1  0
 19 20  2  0
 21 22  1  0
 21 19  1  0
 23 24  1  0
 23 22  1  0
 25 24  1  1
 25 26  1  0
 26 16  1  0
 27 25  1  0
 28 27  1  0
 29 27  2  0
M  END
$$$$
