QNR.pdb
     RDKit          3D

 29 28  0  0  1  0  0  0  0  0999 V2000
    5.7483  -21.1325   20.9144 N   0  0  0  0  0  0  0  0  0  0  0  0
    6.9719  -21.5221   20.2802 C   0  0  0  0  0  0  0  0  0  0  0  0
    7.4724  -22.6060   20.6067 O   0  0  0  0  0  0  0  0  0  0  0  0
    7.5307  -20.5858   19.2833 C   0  0  0  0  0  0  0  0  0  0  0  0
    6.7397  -19.3231   19.1755 C   0  0  0  0  0  0  0  0  0  0  0  0
    7.3767  -18.3496   18.2112 C   0  0  2  0  0  0  0  0  0  0  0  0
    8.2318  -19.0621   17.2551 N   0  0  0  0  0  0  0  0  0  0  0  0
    8.2378  -17.3844   18.9355 C   0  0  0  0  0  0  0  0  0  0  0  0
    9.4961  -17.4934   18.8743 O   0  0  0  0  0  0  0  0  0  0  0  0
    6.1346  -12.7208   19.2621 N   0  0  0  0  0  0  0  0  0  0  0  0
    7.4399  -13.3391   19.3125 C   0  0  0  0  0  0  0  0  0  0  0  0
    8.1674  -13.1382   18.3183 O   0  0  0  0  0  0  0  0  0  0  0  0
    7.7584  -14.1230   20.5110 C   0  0  0  0  0  0  0  0  0  0  0  0
    8.5769  -15.3463   20.2769 C   0  0  2  0  0  0  0  0  0  0  0  0
    7.6834  -16.3440   19.6932 N   0  0  0  0  0  0  0  0  0  0  0  0
    9.0917  -15.8810   21.5888 C   0  0  0  0  0  0  0  0  0  0  0  0
    8.3936  -16.6710   22.2505 O   0  0  0  0  0  0  0  0  0  0  0  0
   16.6498  -13.7327   21.1739 N   0  0  0  0  0  0  0  0  0  0  0  0
   16.0488  -14.8871   20.6351 C   0  0  0  0  0  0  0  0  0  0  0  0
   16.1581  -15.1261   19.3726 N   0  0  0  0  0  0  0  0  0  0  0  0
   15.3151  -15.8247   21.4038 N   0  0  0  0  0  0  0  0  0  0  0  0
   14.4842  -15.4350   22.4860 C   0  0  0  0  0  0  0  0  0  0  0  0
   13.0784  -16.0159   22.4075 C   0  0  0  0  0  0  0  0  0  0  0  0
   12.2602  -15.6426   23.6079 C   0  0  0  0  0  0  0  0  0  0  0  0
   10.8271  -16.0522   23.3835 C   0  0  2  0  0  0  0  0  0  0  0  0
   10.3578  -15.5080   22.0963 N   0  0  0  0  0  0  0  0  0  0  0  0
    9.9478  -15.4814   24.4021 C   0  0  0  0  0  0  0  0  0  0  0  0
    9.7985  -16.0747   25.6324 O   0  0  0  0  0  0  0  0  0  0  0  0
    9.3019  -14.4346   24.1790 O   0  0  0  0  0  0  0  0  0  0  0  0
  2  1  1  0
  3  2  2  0
  4  2  1  0
  5  4  1  0
  6  5  1  0
  6  7  1  6
  8  6  1  0
  9  8  2  0
 10 11  1  0
 11 13  1  0
 12 11  2  0
 14 13  1  1
 14 15  1  0
 15  8  1  0
 16 14  1  0
 16 17  2  0
 18 19  1  0
 19 20  2  0
 21 22  1  0
 21 19  1  0
 23 24  1  0
 23 22  1  0
 25 24  1  1
 25 26  1  0
 26 16  1  0
 27 25  1  0
 28 27  1  0
 29 27  2  0
M  END
$$$$
