QNR.pdb
     RDKit          3D

 29 28  0  0  1  0  0  0  0  0999 V2000
    7.4779  -18.9670   15.3285 N   0  0  0  0  0  0  0  0  0  0  0  0
    8.9055  -19.0596   15.2642 C   0  0  0  0  0  0  0  0  0  0  0  0
    9.4426  -20.0602   15.7565 O   0  0  0  0  0  0  0  0  0  0  0  0
    9.6147  -17.9413   14.6088 C   0  0  0  0  0  0  0  0  0  0  0  0
   10.3414  -17.0729   15.5832 C   0  0  0  0  0  0  0  0  0  0  0  0
    9.7513  -15.6829   15.6355 C   0  0  2  0  0  0  0  0  0  0  0  0
   10.4677  -14.7882   14.7192 N   0  0  0  0  0  0  0  0  0  0  0  0
    9.8803  -15.1112   16.9973 C   0  0  0  0  0  0  0  0  0  0  0  0
   10.9613  -14.5567   17.3479 O   0  0  0  0  0  0  0  0  0  0  0  0
    6.1855  -12.9393   18.3384 N   0  0  0  0  0  0  0  0  0  0  0  0
    7.2806  -12.9321   19.2815 C   0  0  0  0  0  0  0  0  0  0  0  0
    7.7364  -11.8053   19.5657 O   0  0  0  0  0  0  0  0  0  0  0  0
    7.7273  -14.2331   19.7915 C   0  0  0  0  0  0  0  0  0  0  0  0
    9.0451  -14.7035   19.2786 C   0  0  2  0  0  0  0  0  0  0  0  0
    8.8212  -15.1719   17.9129 N   0  0  0  0  0  0  0  0  0  0  0  0
    9.5344  -15.8660   20.1039 C   0  0  0  0  0  0  0  0  0  0  0  0
    9.0726  -17.0043   19.9026 O   0  0  0  0  0  0  0  0  0  0  0  0
   17.5433  -16.1739   18.6959 N   0  0  0  0  0  0  0  0  0  0  0  0
   16.5172  -15.2107   18.7552 C   0  0  0  0  0  0  0  0  0  0  0  0
   16.7971  -14.0118   19.1389 N   0  0  0  0  0  0  0  0  0  0  0  0
   15.1675  -15.4761   18.4146 N   0  0  0  0  0  0  0  0  0  0  0  0
   14.5899  -16.7652   18.5483 C   0  0  0  0  0  0  0  0  0  0  0  0
   13.8205  -16.9501   19.8497 C   0  0  0  0  0  0  0  0  0  0  0  0
   12.5394  -16.1700   19.8480 C   0  0  0  0  0  0  0  0  0  0  0  0
   11.7454  -16.5092   21.0835 C   0  0  2  0  0  0  0  0  0  0  0  0
   10.5130  -15.7007   21.1113 N   0  0  0  0  0  0  0  0  0  0  0  0
   12.4799  -16.1585   22.2975 C   0  0  0  0  0  0  0  0  0  0  0  0
   13.5822  -16.8740   22.6988 O   0  0  0  0  0  0  0  0  0  0  0  0
   12.1213  -15.1952   23.0090 O   0  0  0  0  0  0  0  0  0  0  0  0
  2  1  1  0
  3  2  2  0
  4  2  1  0
  5  4  1  0
  6  5  1  0
  6  7  1  6
  8  6  1  0
  9  8  2  0
 10 11  1  0
 11 13  1  0
 12 11  2  0
 14 13  1  1
 14 15  1  0
 15  8  1  0
 16 14  1  0
 16 17  2  0
 18 19  1  0
 19 20  2  0
 21 22  1  0
 21 19  1  0
 23 24  1  0
 23 22  1  0
 25 24  1  6
 25 26  1  0
 26 16  1  0
 27 25  1  0
 28 27  1  0
 29 27  2  0
M  END
$$$$
