QNR.pdb
     RDKit          3D

 29 28  0  0  1  0  0  0  0  0999 V2000
   11.1577  -16.4800   13.4588 N   0  0  0  0  0  0  0  0  0  0  0  0
    9.8395  -17.0227   13.5956 C   0  0  0  0  0  0  0  0  0  0  0  0
    9.3393  -17.5812   12.6109 O   0  0  0  0  0  0  0  0  0  0  0  0
    9.1901  -16.8655   14.9135 C   0  0  0  0  0  0  0  0  0  0  0  0
   10.0823  -16.2134   15.9186 C   0  0  0  0  0  0  0  0  0  0  0  0
    9.9396  -16.8483   17.2823 C   0  0  2  0  0  0  0  0  0  0  0  0
    8.6257  -17.4883   17.4137 N   0  0  0  0  0  0  0  0  0  0  0  0
   10.0370  -15.8233   18.3489 C   0  0  0  0  0  0  0  0  0  0  0  0
   11.0883  -15.1298   18.4621 O   0  0  0  0  0  0  0  0  0  0  0  0
    6.3383  -13.0520   18.6101 N   0  0  0  0  0  0  0  0  0  0  0  0
    7.6508  -12.9679   19.2092 C   0  0  0  0  0  0  0  0  0  0  0  0
    8.4386  -12.1671   18.6650 O   0  0  0  0  0  0  0  0  0  0  0  0
    7.9059  -13.8223   20.3742 C   0  0  0  0  0  0  0  0  0  0  0  0
    9.1584  -14.6277   20.3153 C   0  0  2  0  0  0  0  0  0  0  0  0
    8.9802  -15.6035   19.2426 N   0  0  0  0  0  0  0  0  0  0  0  0
    9.3514  -15.3763   21.6093 C   0  0  0  0  0  0  0  0  0  0  0  0
    8.3690  -15.8812   22.1834 O   0  0  0  0  0  0  0  0  0  0  0  0
   11.0214  -20.4003   18.7213 N   0  0  0  0  0  0  0  0  0  0  0  0
   12.1871  -20.5608   19.4955 C   0  0  0  0  0  0  0  0  0  0  0  0
   13.2446  -21.0583   18.9503 N   0  0  0  0  0  0  0  0  0  0  0  0
   12.2785  -20.2049   20.8642 N   0  0  0  0  0  0  0  0  0  0  0  0
   11.1664  -19.7165   21.5978 C   0  0  0  0  0  0  0  0  0  0  0  0
   11.1893  -18.2065   21.7952 C   0  0  0  0  0  0  0  0  0  0  0  0
   10.4478  -17.8016   23.0347 C   0  0  0  0  0  0  0  0  0  0  0  0
   10.8004  -16.3789   23.3862 C   0  0  2  0  0  0  0  0  0  0  0  0
   10.6289  -15.5237   22.1977 N   0  0  0  0  0  0  0  0  0  0  0  0
   12.2074  -16.2600   23.7634 C   0  0  0  0  0  0  0  0  0  0  0  0
   12.5807  -15.7435   24.9807 O   0  0  0  0  0  0  0  0  0  0  0  0
   13.1140  -16.6237   22.9833 O   0  0  0  0  0  0  0  0  0  0  0  0
  2  1  1  0
  3  2  2  0
  4  2  1  0
  5  4  1  0
  6  5  1  0
  6  7  1  6
  8  6  1  0
  9  8  2  0
 10 11  1  0
 11 13  1  0
 12 11  2  0
 14 13  1  1
 14 15  1  0
 15  8  1  0
 16 14  1  0
 16 17  2  0
 18 19  1  0
 19 20  2  0
 21 22  1  0
 21 19  1  0
 23 24  1  0
 23 22  1  0
 25 24  1  6
 25 26  1  0
 26 16  1  0
 27 25  1  0
 28 27  1  0
 29 27  2  0
M  END
$$$$
