QNR.pdb
     RDKit          3D

 29 28  0  0  1  0  0  0  0  0999 V2000
    8.3760  -13.6995   17.7714 N   0  0  0  0  0  0  0  0  0  0  0  0
    8.5211  -14.5338   16.6164 C   0  0  0  0  0  0  0  0  0  0  0  0
    8.6533  -13.9808   15.5170 O   0  0  0  0  0  0  0  0  0  0  0  0
    8.5004  -15.9934   16.8447 C   0  0  0  0  0  0  0  0  0  0  0  0
    8.4405  -16.3466   18.2950 C   0  0  0  0  0  0  0  0  0  0  0  0
    9.8191  -16.5849   18.8657 C   0  0  2  0  0  0  0  0  0  0  0  0
   10.6336  -17.3649   17.9270 N   0  0  0  0  0  0  0  0  0  0  0  0
    9.7361  -17.3620   20.1255 C   0  0  0  0  0  0  0  0  0  0  0  0
    8.6959  -17.2926   20.8412 O   0  0  0  0  0  0  0  0  0  0  0  0
   10.8619  -22.1362   20.9921 N   0  0  0  0  0  0  0  0  0  0  0  0
   11.6215  -20.9361   20.7245 C   0  0  0  0  0  0  0  0  0  0  0  0
   12.1213  -20.8609   19.5831 O   0  0  0  0  0  0  0  0  0  0  0  0
   11.7184  -19.9546   21.8105 C   0  0  0  0  0  0  0  0  0  0  0  0
   10.6696  -18.8958   21.8119 C   0  0  2  0  0  0  0  0  0  0  0  0
   10.7942  -18.1797   20.5445 N   0  0  0  0  0  0  0  0  0  0  0  0
   10.9224  -17.9212   22.9336 C   0  0  0  0  0  0  0  0  0  0  0  0
   11.9541  -17.2248   22.9261 O   0  0  0  0  0  0  0  0  0  0  0  0
    5.7747  -13.2601   21.4548 N   0  0  0  0  0  0  0  0  0  0  0  0
    7.1225  -13.1331   21.0658 C   0  0  0  0  0  0  0  0  0  0  0  0
    7.4103  -12.4971   19.9816 N   0  0  0  0  0  0  0  0  0  0  0  0
    8.2083  -13.6697   21.8017 N   0  0  0  0  0  0  0  0  0  0  0  0
    8.0207  -14.4512   22.9710 C   0  0  0  0  0  0  0  0  0  0  0  0
    9.3250  -14.8267   23.6621 C   0  0  0  0  0  0  0  0  0  0  0  0
    9.0830  -15.6930   24.8625 C   0  0  0  0  0  0  0  0  0  0  0  0
   10.2035  -16.6929   24.9918 C   0  0  2  0  0  0  0  0  0  0  0  0
   10.0129  -17.7725   24.0062 N   0  0  0  0  0  0  0  0  0  0  0  0
   10.1858  -17.3411   26.3017 C   0  0  0  0  0  0  0  0  0  0  0  0
   10.4661  -16.6411   27.4503 O   0  0  0  0  0  0  0  0  0  0  0  0
    9.9172  -18.5569   26.4126 O   0  0  0  0  0  0  0  0  0  0  0  0
  2  1  1  0
  3  2  2  0
  4  2  1  0
  5  4  1  0
  6  5  1  0
  6  7  1  6
  8  6  1  0
  9  8  2  0
 10 11  1  0
 11 13  1  0
 12 11  2  0
 14 13  1  6
 14 15  1  0
 15  8  1  0
 16 14  1  0
 16 17  2  0
 18 19  1  0
 19 20  2  0
 21 22  1  0
 21 19  1  0
 23 24  1  0
 23 22  1  0
 25 24  1  1
 25 26  1  0
 26 16  1  0
 27 25  1  0
 28 27  1  0
 29 27  2  0
M  END
$$$$
