QNR.pdb
     RDKit          3D

 29 28  0  0  1  0  0  0  0  0999 V2000
    6.3354  -13.1887   16.4821 N   0  0  0  0  0  0  0  0  0  0  0  0
    7.4025  -13.5820   15.6117 C   0  0  0  0  0  0  0  0  0  0  0  0
    7.2743  -13.3561   14.4015 O   0  0  0  0  0  0  0  0  0  0  0  0
    8.5716  -14.2276   16.2438 C   0  0  0  0  0  0  0  0  0  0  0  0
    8.3625  -14.4947   17.6987 C   0  0  0  0  0  0  0  0  0  0  0  0
    9.6762  -14.6140   18.4356 C   0  0  2  0  0  0  0  0  0  0  0  0
   10.7602  -14.9351   17.5002 N   0  0  0  0  0  0  0  0  0  0  0  0
    9.6184  -15.7092   19.4331 C   0  0  0  0  0  0  0  0  0  0  0  0
    8.5857  -15.8565   20.1478 O   0  0  0  0  0  0  0  0  0  0  0  0
   10.2397  -19.8850   19.0419 N   0  0  0  0  0  0  0  0  0  0  0  0
   11.5950  -19.5675   19.4303 C   0  0  0  0  0  0  0  0  0  0  0  0
   12.4863  -20.2219   18.8511 O   0  0  0  0  0  0  0  0  0  0  0  0
   11.7681  -18.5258   20.4486 C   0  0  0  0  0  0  0  0  0  0  0  0
   10.6019  -17.6179   20.6404 C   0  0  2  0  0  0  0  0  0  0  0  0
   10.6924  -16.5932   19.6030 N   0  0  0  0  0  0  0  0  0  0  0  0
   10.6909  -16.9409   21.9841 C   0  0  0  0  0  0  0  0  0  0  0  0
   11.7380  -16.3527   22.3113 O   0  0  0  0  0  0  0  0  0  0  0  0
    4.8741  -11.7936   26.5968 N   0  0  0  0  0  0  0  0  0  0  0  0
    6.2480  -11.7576   26.9050 C   0  0  0  0  0  0  0  0  0  0  0  0
    6.7745  -10.6552   27.3178 N   0  0  0  0  0  0  0  0  0  0  0  0
    7.1106  -12.8760   26.7891 N   0  0  0  0  0  0  0  0  0  0  0  0
    7.0966  -13.7317   25.6573 C   0  0  0  0  0  0  0  0  0  0  0  0
    8.4041  -14.4861   25.4544 C   0  0  0  0  0  0  0  0  0  0  0  0
    8.3626  -15.3386   24.2210 C   0  0  0  0  0  0  0  0  0  0  0  0
    9.6511  -16.1120   24.1039 C   0  0  2  0  0  0  0  0  0  0  0  0
    9.6089  -16.9540   22.8946 N   0  0  0  0  0  0  0  0  0  0  0  0
    9.8191  -17.0336   25.2258 C   0  0  0  0  0  0  0  0  0  0  0  0
   10.2920  -16.6021   26.4416 O   0  0  0  0  0  0  0  0  0  0  0  0
    9.5387  -18.2461   25.1080 O   0  0  0  0  0  0  0  0  0  0  0  0
  2  1  1  0
  3  2  2  0
  4  2  1  0
  5  4  1  0
  6  5  1  0
  6  7  1  6
  8  6  1  0
  9  8  2  0
 10 11  1  0
 11 13  1  0
 12 11  2  0
 14 13  1  6
 14 15  1  0
 15  8  1  0
 16 14  1  0
 16 17  2  0
 18 19  1  0
 19 20  2  0
 21 22  1  0
 21 19  1  0
 23 24  1  0
 23 22  1  0
 25 24  1  1
 25 26  1  0
 26 16  1  0
 27 25  1  0
 28 27  1  0
 29 27  2  0
M  END
$$$$
