QNR.pdb
     RDKit          3D

 29 28  0  0  1  0  0  0  0  0999 V2000
   10.5948  -20.3661   25.8343 N   0  0  0  0  0  0  0  0  0  0  0  0
   10.6185  -21.7282   25.3925 C   0  0  0  0  0  0  0  0  0  0  0  0
   11.7195  -22.2852   25.2952 O   0  0  0  0  0  0  0  0  0  0  0  0
    9.3132  -22.3512   25.0906 C   0  0  0  0  0  0  0  0  0  0  0  0
    8.1844  -21.3744   25.1474 C   0  0  0  0  0  0  0  0  0  0  0  0
    6.8621  -22.0671   25.3815 C   0  0  2  0  0  0  0  0  0  0  0  0
    6.9604  -23.4888   25.0320 N   0  0  0  0  0  0  0  0  0  0  0  0
    5.8044  -21.4771   24.5265 C   0  0  0  0  0  0  0  0  0  0  0  0
    5.4398  -20.2805   24.7109 O   0  0  0  0  0  0  0  0  0  0  0  0
    3.6099  -19.9487   20.5494 N   0  0  0  0  0  0  0  0  0  0  0  0
    3.9451  -21.3171   20.2275 C   0  0  0  0  0  0  0  0  0  0  0  0
    3.9706  -21.5910   19.0099 O   0  0  0  0  0  0  0  0  0  0  0  0
    4.2137  -22.2183   21.3535 C   0  0  0  0  0  0  0  0  0  0  0  0
    4.1509  -21.5916   22.7041 C   0  0  2  0  0  0  0  0  0  0  0  0
    5.1942  -22.2228   23.5089 N   0  0  0  0  0  0  0  0  0  0  0  0
    2.8178  -21.8811   23.3453 C   0  0  0  0  0  0  0  0  0  0  0  0
    2.6580  -22.9339   23.9900 O   0  0  0  0  0  0  0  0  0  0  0  0
   -3.7082  -17.9823   19.7622 N   0  0  0  0  0  0  0  0  0  0  0  0
   -3.8746  -19.2568   20.3385 C   0  0  0  0  0  0  0  0  0  0  0  0
   -5.0333  -19.8216   20.3000 N   0  0  0  0  0  0  0  0  0  0  0  0
   -2.8315  -19.9765   20.9727 N   0  0  0  0  0  0  0  0  0  0  0  0
   -1.5443  -19.4187   21.1855 C   0  0  0  0  0  0  0  0  0  0  0  0
   -0.5535  -20.4015   21.7955 C   0  0  0  0  0  0  0  0  0  0  0  0
   -0.6321  -20.4048   23.2934 C   0  0  0  0  0  0  0  0  0  0  0  0
    0.4324  -21.3164   23.8482 C   0  0  2  0  0  0  0  0  0  0  0  0
    1.7311  -20.9830   23.2353 N   0  0  0  0  0  0  0  0  0  0  0  0
    0.1715  -22.7107   23.4958 C   0  0  0  0  0  0  0  0  0  0  0  0
    0.7515  -23.2909   22.3936 O   0  0  0  0  0  0  0  0  0  0  0  0
   -0.5931  -23.4157   24.1895 O   0  0  0  0  0  0  0  0  0  0  0  0
  2  1  1  0
  3  2  2  0
  4  2  1  0
  5  4  1  0
  6  5  1  0
  6  7  1  6
  8  6  1  0
  9  8  2  0
 10 11  1  0
 11 13  1  0
 12 11  2  0
 14 13  1  6
 14 15  1  0
 15  8  1  0
 16 14  1  0
 16 17  2  0
 18 19  1  0
 19 20  2  0
 21 22  1  0
 21 19  1  0
 23 24  1  0
 23 22  1  0
 25 24  1  6
 25 26  1  0
 26 16  1  0
 27 25  1  0
 28 27  1  0
 29 27  2  0
M  END
$$$$
