QNR.pdb
     RDKit          3D

 29 28  0  0  1  0  0  0  0  0999 V2000
    9.4040  -12.7582   18.6581 N   0  0  0  0  0  0  0  0  0  0  0  0
    8.0129  -13.0460   18.8399 C   0  0  0  0  0  0  0  0  0  0  0  0
    7.1982  -12.4192   18.1505 O   0  0  0  0  0  0  0  0  0  0  0  0
    7.6734  -14.0758   19.8436 C   0  0  0  0  0  0  0  0  0  0  0  0
    8.8837  -14.6867   20.4708 C   0  0  0  0  0  0  0  0  0  0  0  0
    8.5098  -15.7001   21.5274 C   0  0  2  0  0  0  0  0  0  0  0  0
    7.0726  -15.9906   21.4718 N   0  0  0  0  0  0  0  0  0  0  0  0
    8.7989  -15.1731   22.8826 C   0  0  0  0  0  0  0  0  0  0  0  0
    9.1702  -13.9728   23.0258 O   0  0  0  0  0  0  0  0  0  0  0  0
    9.2565  -13.1673   27.2938 N   0  0  0  0  0  0  0  0  0  0  0  0
    7.9717  -13.5802   26.7768 C   0  0  0  0  0  0  0  0  0  0  0  0
    6.9917  -13.3199   27.5048 O   0  0  0  0  0  0  0  0  0  0  0  0
    7.9643  -14.2503   25.4717 C   0  0  0  0  0  0  0  0  0  0  0  0
    8.9108  -15.3931   25.3336 C   0  0  2  0  0  0  0  0  0  0  0  0
    8.6682  -15.9827   24.0190 N   0  0  0  0  0  0  0  0  0  0  0  0
    8.6170  -16.4356   26.3818 C   0  0  0  0  0  0  0  0  0  0  0  0
    7.4886  -16.9585   26.4338 O   0  0  0  0  0  0  0  0  0  0  0  0
    7.9317  -22.1723   24.2455 N   0  0  0  0  0  0  0  0  0  0  0  0
    6.9007  -21.8705   25.1566 C   0  0  0  0  0  0  0  0  0  0  0  0
    5.6971  -21.7155   24.7206 N   0  0  0  0  0  0  0  0  0  0  0  0
    7.1013  -21.7218   26.5516 N   0  0  0  0  0  0  0  0  0  0  0  0
    8.2904  -21.1685   27.0931 C   0  0  0  0  0  0  0  0  0  0  0  0
    8.6898  -19.8476   26.4485 C   0  0  0  0  0  0  0  0  0  0  0  0
    9.8915  -19.2491   27.1177 C   0  0  0  0  0  0  0  0  0  0  0  0
    9.4524  -18.1282   28.0247 C   0  0  2  0  0  0  0  0  0  0  0  0
    9.5953  -16.8420   27.3186 N   0  0  0  0  0  0  0  0  0  0  0  0
   10.3117  -18.0336   29.2033 C   0  0  0  0  0  0  0  0  0  0  0  0
    9.9345  -18.5741   30.4090 O   0  0  0  0  0  0  0  0  0  0  0  0
   11.4171  -17.4527   29.1468 O   0  0  0  0  0  0  0  0  0  0  0  0
  2  1  1  0
  3  2  2  0
  4  2  1  0
  5  4  1  0
  6  5  1  0
  6  7  1  1
  8  6  1  0
  9  8  2  0
 10 11  1  0
 11 13  1  0
 12 11  2  0
 14 13  1  1
 14 15  1  0
 15  8  1  0
 16 14  1  0
 16 17  2  0
 18 19  1  0
 19 20  2  0
 21 22  1  0
 21 19  1  0
 23 24  1  0
 23 22  1  0
 25 24  1  6
 25 26  1  0
 26 16  1  0
 27 25  1  0
 28 27  1  0
 29 27  2  0
M  END
$$$$
