QNR.pdb
     RDKit          3D

 29 28  0  0  1  0  0  0  0  0999 V2000
    9.0403  -13.5407   11.6214 N   0  0  0  0  0  0  0  0  0  0  0  0
    7.7249  -14.0803   11.7934 C   0  0  0  0  0  0  0  0  0  0  0  0
    6.9377  -13.9985   10.8418 O   0  0  0  0  0  0  0  0  0  0  0  0
    7.4244  -14.6925   13.1041 C   0  0  0  0  0  0  0  0  0  0  0  0
    8.5638  -14.5818   14.0639 C   0  0  0  0  0  0  0  0  0  0  0  0
    8.4296  -15.5678   15.2010 C   0  0  2  0  0  0  0  0  0  0  0  0
    7.0319  -15.9885   15.3511 N   0  0  0  0  0  0  0  0  0  0  0  0
    8.8410  -14.9466   16.4827 C   0  0  0  0  0  0  0  0  0  0  0  0
   10.0340  -14.5581   16.6401 O   0  0  0  0  0  0  0  0  0  0  0  0
    8.8749  -13.1411   21.2937 N   0  0  0  0  0  0  0  0  0  0  0  0
    7.5969  -12.8341   20.6928 C   0  0  0  0  0  0  0  0  0  0  0  0
    6.8570  -12.0823   21.3602 O   0  0  0  0  0  0  0  0  0  0  0  0
    7.3170  -13.4331   19.3832 C   0  0  0  0  0  0  0  0  0  0  0  0
    8.4152  -14.2617   18.8102 C   0  0  2  0  0  0  0  0  0  0  0  0
    7.9289  -14.7785   17.5332 N   0  0  0  0  0  0  0  0  0  0  0  0
    8.7045  -15.4316   19.7155 C   0  0  0  0  0  0  0  0  0  0  0  0
    8.2191  -16.5482   19.4563 O   0  0  0  0  0  0  0  0  0  0  0  0
   14.7641  -20.5868   18.7700 N   0  0  0  0  0  0  0  0  0  0  0  0
   14.2885  -20.9113   20.0556 C   0  0  0  0  0  0  0  0  0  0  0  0
   14.6899  -21.9977   20.6225 N   0  0  0  0  0  0  0  0  0  0  0  0
   13.3776  -20.1067   20.7844 N   0  0  0  0  0  0  0  0  0  0  0  0
   12.7830  -18.9425   20.2326 C   0  0  0  0  0  0  0  0  0  0  0  0
   11.8110  -18.2533   21.1813 C   0  0  0  0  0  0  0  0  0  0  0  0
   11.1256  -17.0938   20.5213 C   0  0  0  0  0  0  0  0  0  0  0  0
   10.1303  -16.4900   21.4788 C   0  0  2  0  0  0  0  0  0  0  0  0
    9.5196  -15.2977   20.8634 N   0  0  0  0  0  0  0  0  0  0  0  0
   10.7865  -16.0184   22.6967 C   0  0  0  0  0  0  0  0  0  0  0  0
   11.1614  -16.8897   23.6908 O   0  0  0  0  0  0  0  0  0  0  0  0
   11.0225  -14.8030   22.8692 O   0  0  0  0  0  0  0  0  0  0  0  0
  2  1  1  0
  3  2  2  0
  4  2  1  0
  5  4  1  0
  6  5  1  0
  6  7  1  1
  8  6  1  0
  9  8  2  0
 10 11  1  0
 11 13  1  0
 12 11  2  0
 14 13  1  1
 14 15  1  0
 15  8  1  0
 16 14  1  0
 16 17  2  0
 18 19  1  0
 19 20  2  0
 21 22  1  0
 21 19  1  0
 23 24  1  0
 23 22  1  0
 25 24  1  6
 25 26  1  0
 26 16  1  0
 27 25  1  0
 28 27  1  0
 29 27  2  0
M  END
$$$$
