QNR.pdb
     RDKit          3D

 29 28  0  0  1  0  0  0  0  0999 V2000
    7.9406  -12.3752   16.3619 N   0  0  0  0  0  0  0  0  0  0  0  0
    7.7949  -13.7751   16.0971 C   0  0  0  0  0  0  0  0  0  0  0  0
    7.6736  -14.1306   14.9177 O   0  0  0  0  0  0  0  0  0  0  0  0
    7.8034  -14.6768   17.2675 C   0  0  0  0  0  0  0  0  0  0  0  0
    7.7391  -13.9358   18.5631 C   0  0  0  0  0  0  0  0  0  0  0  0
    8.9687  -14.1833   19.4057 C   0  0  2  0  0  0  0  0  0  0  0  0
   10.1137  -14.5222   18.5528 N   0  0  0  0  0  0  0  0  0  0  0  0
    8.7517  -15.3269   20.3238 C   0  0  0  0  0  0  0  0  0  0  0  0
    7.7274  -15.3542   21.0649 O   0  0  0  0  0  0  0  0  0  0  0  0
    9.2577  -20.9210   20.5990 N   0  0  0  0  0  0  0  0  0  0  0  0
    9.7938  -19.9187   21.4915 C   0  0  0  0  0  0  0  0  0  0  0  0
    9.8604  -20.2505   22.6930 O   0  0  0  0  0  0  0  0  0  0  0  0
   10.1937  -18.6406   20.8924 C   0  0  0  0  0  0  0  0  0  0  0  0
    9.4432  -17.4459   21.3724 C   0  0  2  0  0  0  0  0  0  0  0  0
    9.6645  -16.3881   20.3892 N   0  0  0  0  0  0  0  0  0  0  0  0
    9.9981  -16.9859   22.6961 C   0  0  0  0  0  0  0  0  0  0  0  0
   11.1637  -16.5538   22.7608 O   0  0  0  0  0  0  0  0  0  0  0  0
    4.8896  -12.2445   26.5467 N   0  0  0  0  0  0  0  0  0  0  0  0
    6.1178  -11.6831   26.1465 C   0  0  0  0  0  0  0  0  0  0  0  0
    6.2104  -10.4055   25.9978 N   0  0  0  0  0  0  0  0  0  0  0  0
    7.2852  -12.4445   25.8897 N   0  0  0  0  0  0  0  0  0  0  0  0
    7.3165  -13.8563   26.0274 C   0  0  0  0  0  0  0  0  0  0  0  0
    8.7066  -14.4505   25.8421 C   0  0  0  0  0  0  0  0  0  0  0  0
    8.6921  -15.9430   25.9904 C   0  0  0  0  0  0  0  0  0  0  0  0
    9.7917  -16.5399   25.1498 C   0  0  2  0  0  0  0  0  0  0  0  0
    9.2261  -17.0311   23.8801 N   0  0  0  0  0  0  0  0  0  0  0  0
   10.3818  -17.7074   25.8017 C   0  0  0  0  0  0  0  0  0  0  0  0
   11.2486  -17.5745   26.8594 O   0  0  0  0  0  0  0  0  0  0  0  0
   10.1150  -18.8643   25.4103 O   0  0  0  0  0  0  0  0  0  0  0  0
  2  1  1  0
  3  2  2  0
  4  2  1  0
  5  4  1  0
  6  5  1  0
  6  7  1  6
  8  6  1  0
  9  8  2  0
 10 11  1  0
 11 13  1  0
 12 11  2  0
 14 13  1  6
 14 15  1  0
 15  8  1  0
 16 14  1  0
 16 17  2  0
 18 19  1  0
 19 20  2  0
 21 22  1  0
 21 19  1  0
 23 24  1  0
 23 22  1  0
 25 24  1  1
 25 26  1  0
 26 16  1  0
 27 25  1  0
 28 27  1  0
 29 27  2  0
M  END
$$$$
