QNR.pdb
     RDKit          3D

 29 28  0  0  1  0  0  0  0  0999 V2000
    6.9512  -15.5503   11.4662 N   0  0  0  0  0  0  0  0  0  0  0  0
    6.9345  -14.7308   12.6406 C   0  0  0  0  0  0  0  0  0  0  0  0
    6.1503  -13.7736   12.6662 O   0  0  0  0  0  0  0  0  0  0  0  0
    7.8637  -15.1068   13.7260 C   0  0  0  0  0  0  0  0  0  0  0  0
    8.6626  -16.3265   13.4007 C   0  0  0  0  0  0  0  0  0  0  0  0
    9.5620  -16.7234   14.5482 C   0  0  2  0  0  0  0  0  0  0  0  0
    9.0530  -17.9345   15.2019 N   0  0  0  0  0  0  0  0  0  0  0  0
    9.6022  -15.6545   15.5747 C   0  0  0  0  0  0  0  0  0  0  0  0
   10.3853  -14.6722   15.4309 O   0  0  0  0  0  0  0  0  0  0  0  0
    7.4461  -12.3465   19.5261 N   0  0  0  0  0  0  0  0  0  0  0  0
    7.7017  -13.7595   19.6896 C   0  0  0  0  0  0  0  0  0  0  0  0
    7.9195  -14.1333   20.8605 O   0  0  0  0  0  0  0  0  0  0  0  0
    7.6769  -14.5844   18.4767 C   0  0  0  0  0  0  0  0  0  0  0  0
    8.9803  -14.7178   17.7664 C   0  0  2  0  0  0  0  0  0  0  0  0
    8.7839  -15.7087   16.7110 N   0  0  0  0  0  0  0  0  0  0  0  0
   10.0326  -15.2360   18.7130 C   0  0  0  0  0  0  0  0  0  0  0  0
   10.1229  -16.4589   18.9268 O   0  0  0  0  0  0  0  0  0  0  0  0
   16.0445  -14.1977   16.2555 N   0  0  0  0  0  0  0  0  0  0  0  0
   16.9242  -14.6121   17.2745 C   0  0  0  0  0  0  0  0  0  0  0  0
   17.9637  -15.3105   16.9669 N   0  0  0  0  0  0  0  0  0  0  0  0
   16.7399  -14.3069   18.6461 N   0  0  0  0  0  0  0  0  0  0  0  0
   15.5687  -13.6699   19.1317 C   0  0  0  0  0  0  0  0  0  0  0  0
   14.3993  -14.6255   19.3292 C   0  0  0  0  0  0  0  0  0  0  0  0
   13.2433  -13.9494   20.0048 C   0  0  0  0  0  0  0  0  0  0  0  0
   12.0882  -14.9127   20.1030 C   0  0  2  0  0  0  0  0  0  0  0  0
   10.9303  -14.3652   19.3731 N   0  0  0  0  0  0  0  0  0  0  0  0
   11.6479  -15.0719   21.4876 C   0  0  0  0  0  0  0  0  0  0  0  0
   10.6086  -14.3317   21.9975 O   0  0  0  0  0  0  0  0  0  0  0  0
   12.2100  -15.8875   22.2501 O   0  0  0  0  0  0  0  0  0  0  0  0
  2  1  1  0
  3  2  2  0
  4  2  1  0
  5  4  1  0
  6  5  1  0
  6  7  1  1
  8  6  1  0
  9  8  2  0
 10 11  1  0
 11 13  1  0
 12 11  2  0
 14 13  1  1
 14 15  1  0
 15  8  1  0
 16 14  1  0
 16 17  2  0
 18 19  1  0
 19 20  2  0
 21 22  1  0
 21 19  1  0
 23 24  1  0
 23 22  1  0
 25 24  1  1
 25 26  1  0
 26 16  1  0
 27 25  1  0
 28 27  1  0
 29 27  2  0
M  END
$$$$
