QNR.pdb
     RDKit          3D

 29 28  0  0  1  0  0  0  0  0999 V2000
    7.4745  -12.0510   19.6289 N   0  0  0  0  0  0  0  0  0  0  0  0
    6.9267  -13.0525   18.7641 C   0  0  0  0  0  0  0  0  0  0  0  0
    5.9160  -13.6562   19.1462 O   0  0  0  0  0  0  0  0  0  0  0  0
    7.6245  -13.2758   17.4810 C   0  0  0  0  0  0  0  0  0  0  0  0
    7.6259  -14.7123   17.0711 C   0  0  0  0  0  0  0  0  0  0  0  0
    8.9016  -15.0829   16.3510 C   0  0  2  0  0  0  0  0  0  0  0  0
    8.6114  -15.4837   14.9696 N   0  0  0  0  0  0  0  0  0  0  0  0
    9.5598  -16.2345   17.0131 C   0  0  0  0  0  0  0  0  0  0  0  0
    9.9965  -16.1171   18.1939 O   0  0  0  0  0  0  0  0  0  0  0  0
    8.3205  -19.0216   18.9634 N   0  0  0  0  0  0  0  0  0  0  0  0
    8.3662  -19.9652   17.8697 C   0  0  0  0  0  0  0  0  0  0  0  0
    7.5072  -20.8701   17.9056 O   0  0  0  0  0  0  0  0  0  0  0  0
    9.4038  -19.7559   16.8539 C   0  0  0  0  0  0  0  0  0  0  0  0
   10.2961  -18.5842   17.0823 C   0  0  2  0  0  0  0  0  0  0  0  0
    9.7101  -17.4618   16.3534 N   0  0  0  0  0  0  0  0  0  0  0  0
   11.6635  -18.8583   16.5103 C   0  0  0  0  0  0  0  0  0  0  0  0
   11.7933  -19.0594   15.2888 O   0  0  0  0  0  0  0  0  0  0  0  0
   17.8784  -15.6254   13.4748 N   0  0  0  0  0  0  0  0  0  0  0  0
   18.6653  -16.2743   14.4463 C   0  0  0  0  0  0  0  0  0  0  0  0
   19.9412  -16.0875   14.4542 N   0  0  0  0  0  0  0  0  0  0  0  0
   18.1379  -17.1388   15.4377 N   0  0  0  0  0  0  0  0  0  0  0  0
   16.8590  -17.7414   15.3174 C   0  0  0  0  0  0  0  0  0  0  0  0
   16.4702  -18.5801   16.5279 C   0  0  0  0  0  0  0  0  0  0  0  0
   15.1282  -18.1814   17.0663 C   0  0  0  0  0  0  0  0  0  0  0  0
   14.1221  -19.2582   16.7493 C   0  0  2  0  0  0  0  0  0  0  0  0
   12.8163  -18.8944   17.3287 N   0  0  0  0  0  0  0  0  0  0  0  0
   14.4935  -20.5286   17.3693 C   0  0  0  0  0  0  0  0  0  0  0  0
   13.6992  -21.1189   18.3225 O   0  0  0  0  0  0  0  0  0  0  0  0
   15.5509  -21.1139   17.0498 O   0  0  0  0  0  0  0  0  0  0  0  0
  2  1  1  0
  3  2  2  0
  4  2  1  0
  5  4  1  0
  6  5  1  0
  6  7  1  6
  8  6  1  0
  9  8  2  0
 10 11  1  0
 11 13  1  0
 12 11  2  0
 14 13  1  6
 14 15  1  0
 15  8  1  0
 16 14  1  0
 16 17  2  0
 18 19  1  0
 19 20  2  0
 21 22  1  0
 21 19  1  0
 23 24  1  0
 23 22  1  0
 25 24  1  1
 25 26  1  0
 26 16  1  0
 27 25  1  0
 28 27  1  0
 29 27  2  0
M  END
$$$$
