QNR.pdb
     RDKit          3D

 29 28  0  0  1  0  0  0  0  0999 V2000
   10.4521  -14.5782   14.4292 N   0  0  0  0  0  0  0  0  0  0  0  0
    9.1899  -15.2447   14.3133 C   0  0  0  0  0  0  0  0  0  0  0  0
    8.2747  -14.6516   13.7280 O   0  0  0  0  0  0  0  0  0  0  0  0
    9.0940  -16.5937   14.9084 C   0  0  0  0  0  0  0  0  0  0  0  0
   10.3707  -17.0297   15.5501 C   0  0  0  0  0  0  0  0  0  0  0  0
   10.1307  -17.6146   16.9225 C   0  0  2  0  0  0  0  0  0  0  0  0
    8.8835  -18.3875   16.9383 N   0  0  0  0  0  0  0  0  0  0  0  0
    9.9927  -16.5382   17.9325 C   0  0  0  0  0  0  0  0  0  0  0  0
   11.0164  -15.9089   18.3265 O   0  0  0  0  0  0  0  0  0  0  0  0
    5.8102  -13.0108   20.5590 N   0  0  0  0  0  0  0  0  0  0  0  0
    7.1833  -13.3065   20.2188 C   0  0  0  0  0  0  0  0  0  0  0  0
    8.0387  -12.5711   20.7533 O   0  0  0  0  0  0  0  0  0  0  0  0
    7.4139  -14.4229   19.2954 C   0  0  0  0  0  0  0  0  0  0  0  0
    8.6761  -15.1844   19.5143 C   0  0  2  0  0  0  0  0  0  0  0  0
    8.7417  -16.1991   18.4652 N   0  0  0  0  0  0  0  0  0  0  0  0
    8.6311  -15.8846   20.8484 C   0  0  0  0  0  0  0  0  0  0  0  0
    8.2726  -17.0751   20.9095 O   0  0  0  0  0  0  0  0  0  0  0  0
   10.0918  -13.6461   29.5802 N   0  0  0  0  0  0  0  0  0  0  0  0
   10.2888  -15.0200   29.3397 C   0  0  0  0  0  0  0  0  0  0  0  0
   10.7911  -15.7589   30.2695 N   0  0  0  0  0  0  0  0  0  0  0  0
    9.9656  -15.6595   28.1170 N   0  0  0  0  0  0  0  0  0  0  0  0
    9.8893  -14.9543   26.8881 C   0  0  0  0  0  0  0  0  0  0  0  0
    9.4374  -15.8222   25.7209 C   0  0  0  0  0  0  0  0  0  0  0  0
    9.4319  -15.0538   24.4327 C   0  0  0  0  0  0  0  0  0  0  0  0
    8.8426  -15.9108   23.3417 C   0  0  2  0  0  0  0  0  0  0  0  0
    8.9875  -15.2225   22.0461 N   0  0  0  0  0  0  0  0  0  0  0  0
    7.4062  -16.0995   23.5345 C   0  0  0  0  0  0  0  0  0  0  0  0
    6.9137  -17.1700   24.2413 O   0  0  0  0  0  0  0  0  0  0  0  0
    6.5825  -15.2898   23.0564 O   0  0  0  0  0  0  0  0  0  0  0  0
  2  1  1  0
  3  2  2  0
  4  2  1  0
  5  4  1  0
  6  5  1  0
  6  7  1  6
  8  6  1  0
  9  8  2  0
 10 11  1  0
 11 13  1  0
 12 11  2  0
 14 13  1  6
 14 15  1  0
 15  8  1  0
 16 14  1  0
 16 17  2  0
 18 19  1  0
 19 20  2  0
 21 22  1  0
 21 19  1  0
 23 24  1  0
 23 22  1  0
 25 24  1  1
 25 26  1  0
 26 16  1  0
 27 25  1  0
 28 27  1  0
 29 27  2  0
M  END
$$$$
