QNR.pdb
     RDKit          3D

 29 28  0  0  1  0  0  0  0  0999 V2000
    5.5067  -17.7039   13.3548 N   0  0  0  0  0  0  0  0  0  0  0  0
    6.6260  -18.5890   13.2334 C   0  0  0  0  0  0  0  0  0  0  0  0
    6.4523  -19.6628   12.6429 O   0  0  0  0  0  0  0  0  0  0  0  0
    7.8994  -18.1349   13.8294 C   0  0  0  0  0  0  0  0  0  0  0  0
    7.9394  -18.3244   15.3107 C   0  0  0  0  0  0  0  0  0  0  0  0
    9.0998  -17.5839   15.9340 C   0  0  2  0  0  0  0  0  0  0  0  0
   10.2852  -17.6735   15.0738 N   0  0  0  0  0  0  0  0  0  0  0  0
    9.4601  -18.1825   17.2415 C   0  0  0  0  0  0  0  0  0  0  0  0
    8.5968  -18.2496   18.1630 O   0  0  0  0  0  0  0  0  0  0  0  0
   13.1458  -18.4277   17.2630 N   0  0  0  0  0  0  0  0  0  0  0  0
   13.2336  -19.8077   17.6831 C   0  0  0  0  0  0  0  0  0  0  0  0
   14.2613  -20.4152   17.3184 O   0  0  0  0  0  0  0  0  0  0  0  0
   12.1194  -20.3322   18.4803 C   0  0  0  0  0  0  0  0  0  0  0  0
   11.0110  -19.3708   18.7417 C   0  0  2  0  0  0  0  0  0  0  0  0
   10.7478  -18.6806   17.4812 N   0  0  0  0  0  0  0  0  0  0  0  0
   11.4452  -18.3480   19.7601 C   0  0  0  0  0  0  0  0  0  0  0  0
   12.3328  -17.5251   19.4696 O   0  0  0  0  0  0  0  0  0  0  0  0
    7.1879  -12.4072   18.2188 N   0  0  0  0  0  0  0  0  0  0  0  0
    7.5068  -12.9217   19.4907 C   0  0  0  0  0  0  0  0  0  0  0  0
    6.7547  -12.6310   20.4970 N   0  0  0  0  0  0  0  0  0  0  0  0
    8.6240  -13.7557   19.7453 N   0  0  0  0  0  0  0  0  0  0  0  0
    8.9124  -14.2653   21.0377 C   0  0  0  0  0  0  0  0  0  0  0  0
   10.1557  -15.1441   21.0768 C   0  0  0  0  0  0  0  0  0  0  0  0
   10.0121  -16.2580   22.0710 C   0  0  0  0  0  0  0  0  0  0  0  0
   11.1973  -17.1827   21.9608 C   0  0  2  0  0  0  0  0  0  0  0  0
   10.8684  -18.2944   21.0502 N   0  0  0  0  0  0  0  0  0  0  0  0
   11.5082  -17.8005   23.2484 C   0  0  0  0  0  0  0  0  0  0  0  0
   12.1569  -17.1031   24.2386 O   0  0  0  0  0  0  0  0  0  0  0  0
   11.1935  -18.9873   23.4835 O   0  0  0  0  0  0  0  0  0  0  0  0
  2  1  1  0
  3  2  2  0
  4  2  1  0
  5  4  1  0
  6  5  1  0
  6  7  1  6
  8  6  1  0
  9  8  2  0
 10 11  1  0
 11 13  1  0
 12 11  2  0
 14 13  1  6
 14 15  1  0
 15  8  1  0
 16 14  1  0
 16 17  2  0
 18 19  1  0
 19 20  2  0
 21 22  1  0
 21 19  1  0
 23 24  1  0
 23 22  1  0
 25 24  1  1
 25 26  1  0
 26 16  1  0
 27 25  1  0
 28 27  1  0
 29 27  2  0
M  END
$$$$
