CYF.pdb
     RDKit          3D

 30 31  0  0  1  0  0  0  0  0999 V2000
    7.8611  -18.5665   18.3628 N   0  0  0  0  0  0  0  0  0  0  0  0
    7.5291  -18.6803   19.7460 C   0  0  1  0  0  0  0  0  0  0  0  0
    7.8343  -20.0278   20.3375 C   0  0  0  0  0  0  0  0  0  0  0  0
    7.2893  -20.0882   22.0590 S   0  0  0  0  0  0  0  0  0  0  0  0
    8.2802  -17.6664   20.5814 C   0  0  0  0  0  0  0  0  0  0  0  0
    9.5351  -17.6689   20.5975 O   0  0  0  0  0  0  0  0  0  0  0  0
    7.9964  -12.4489   16.6582 O   0  0  0  0  0  0  0  0  0  0  0  0
    7.9759  -12.9177   17.9576 C   0  0  0  0  0  0  0  0  0  0  0  0
    9.0704  -12.8060   18.7821 C   0  0  0  0  0  0  0  0  0  0  0  0
    8.9838  -13.2909   20.0576 C   0  0  0  0  0  0  0  0  0  0  0  0
    7.8514  -13.8964   20.5844 C   0  0  0  0  0  0  0  0  0  0  0  0
    7.7497  -14.4395   21.9242 C   0  0  0  0  0  0  0  0  0  0  0  0
    8.2933  -15.7634   22.2310 C   0  0  2  0  0  0  0  0  0  0  0  0
    7.5804  -16.7064   21.3522 N   0  0  0  0  0  0  0  0  0  0  0  0
    8.1869  -16.2605   23.6161 C   0  0  0  0  0  0  0  0  0  0  0  0
    7.0749  -16.2446   24.2413 O   0  0  0  0  0  0  0  0  0  0  0  0
    6.7686  -13.9945   19.7336 C   0  0  0  0  0  0  0  0  0  0  0  0
    6.8282  -13.5080   18.4255 C   0  0  0  0  0  0  0  0  0  0  0  0
    9.2603  -16.7948   24.3791 N   0  0  0  0  0  0  0  0  0  0  0  0
    9.9119  -16.0244   25.4566 C   0  0  1  0  0  0  0  0  0  0  0  0
    8.9576  -15.8964   26.6149 C   0  0  0  0  0  0  0  0  0  0  0  0
    9.5466  -15.2934   27.8164 C   0  0  0  0  0  0  0  0  0  0  0  0
    9.5686  -13.9303   28.0494 C   0  0  0  0  0  0  0  0  0  0  0  0
   10.1304  -13.4221   29.1983 C   0  0  0  0  0  0  0  0  0  0  0  0
   10.6955  -14.2108   30.1714 C   0  0  0  0  0  0  0  0  0  0  0  0
   10.6812  -15.5707   29.9530 C   0  0  0  0  0  0  0  0  0  0  0  0
   10.1238  -16.0948   28.8108 C   0  0  0  0  0  0  0  0  0  0  0  0
   11.1507  -16.6858   25.9193 C   0  0  0  0  0  0  0  0  0  0  0  0
   11.9553  -16.1288   26.7274 O   0  0  0  0  0  0  0  0  0  0  0  0
   11.4882  -17.9488   25.4911 O   0  0  0  0  0  0  0  0  0  0  0  0
  2  1  1  6
  2  3  1  0
  3  4  1  0
  5  6  2  0
  5  2  1  0
  8  7  1  0
  9  8  2  0
 10  9  1  0
 11 10  2  0
 11 17  1  0
 12 11  1  0
 13 14  1  0
 13 12  1  1
 14  5  1  0
 15 13  1  0
 16 15  2  0
 17 18  2  0
 18  8  1  0
 19 15  1  0
 20 19  1  0
 20 21  1  1
 22 21  1  0
 23 22  2  0
 24 23  1  0
 25 24  2  0
 25 26  1  0
 26 27  2  0
 27 22  1  0
 28 20  1  0
 28 30  1  0
 29 28  2  0
M  END
$$$$
