CYF.pdb
     RDKit          3D

 30 31  0  0  1  0  0  0  0  0999 V2000
    6.1160  -16.7690   19.4545 N   0  0  0  0  0  0  0  0  0  0  0  0
    7.1428  -16.1589   20.2355 C   0  0  1  0  0  0  0  0  0  0  0  0
    7.2085  -14.6639   20.0957 C   0  0  0  0  0  0  0  0  0  0  0  0
    8.5741  -14.0075   21.0797 S   0  0  0  0  0  0  0  0  0  0  0  0
    6.9597  -16.4428   21.7106 C   0  0  0  0  0  0  0  0  0  0  0  0
    5.8431  -16.2600   22.2535 O   0  0  0  0  0  0  0  0  0  0  0  0
    7.6861  -21.4278   28.8943 O   0  0  0  0  0  0  0  0  0  0  0  0
    7.8226  -20.7829   27.6801 C   0  0  0  0  0  0  0  0  0  0  0  0
    9.0549  -20.5814   27.1049 C   0  0  0  0  0  0  0  0  0  0  0  0
    9.1200  -19.9358   25.9014 C   0  0  0  0  0  0  0  0  0  0  0  0
    8.0124  -19.4634   25.2111 C   0  0  0  0  0  0  0  0  0  0  0  0
    8.0638  -18.7542   23.9483 C   0  0  0  0  0  0  0  0  0  0  0  0
    7.8522  -17.3067   23.9015 C   0  0  2  0  0  0  0  0  0  0  0  0
    8.0405  -16.9161   22.4937 N   0  0  0  0  0  0  0  0  0  0  0  0
    8.7143  -16.4455   24.7334 C   0  0  0  0  0  0  0  0  0  0  0  0
    9.8682  -16.0787   24.3316 O   0  0  0  0  0  0  0  0  0  0  0  0
    6.7889  -19.6801   25.8129 C   0  0  0  0  0  0  0  0  0  0  0  0
    6.6920  -20.3368   27.0420 C   0  0  0  0  0  0  0  0  0  0  0  0
    8.3738  -15.9433   26.0186 N   0  0  0  0  0  0  0  0  0  0  0  0
    9.3223  -15.1474   26.8225 C   0  0  1  0  0  0  0  0  0  0  0  0
    8.5467  -14.2439   27.7449 C   0  0  0  0  0  0  0  0  0  0  0  0
    7.7358  -13.2330   27.0558 C   0  0  0  0  0  0  0  0  0  0  0  0
    8.2275  -11.9997   26.6685 C   0  0  0  0  0  0  0  0  0  0  0  0
    7.4207  -11.0930   26.0198 C   0  0  0  0  0  0  0  0  0  0  0  0
    6.1031  -11.3402   25.7180 C   0  0  0  0  0  0  0  0  0  0  0  0
    5.5993  -12.5646   26.0979 C   0  0  0  0  0  0  0  0  0  0  0  0
    6.3917  -13.4817   26.7466 C   0  0  0  0  0  0  0  0  0  0  0  0
   10.2091  -16.0157   27.6261 C   0  0  0  0  0  0  0  0  0  0  0  0
    9.9534  -17.2418   27.8305 O   0  0  0  0  0  0  0  0  0  0  0  0
   11.3642  -15.5278   28.1918 O   0  0  0  0  0  0  0  0  0  0  0  0
  2  1  1  6
  2  3  1  0
  3  4  1  0
  5  6  2  0
  5  2  1  0
  8  7  1  0
  9  8  2  0
 10  9  1  0
 11 10  2  0
 11 17  1  0
 12 11  1  0
 13 14  1  0
 13 12  1  6
 14  5  1  0
 15 13  1  0
 16 15  2  0
 17 18  2  0
 18  8  1  0
 19 15  1  0
 20 19  1  0
 20 21  1  1
 22 21  1  0
 23 22  2  0
 24 23  1  0
 25 24  2  0
 25 26  1  0
 26 27  2  0
 27 22  1  0
 28 20  1  0
 28 30  1  0
 29 28  2  0
M  END
$$$$
