CYF.pdb
     RDKit          3D

 30 31  0  0  1  0  0  0  0  0999 V2000
    7.2119  -19.4172   20.9704 N   0  0  0  0  0  0  0  0  0  0  0  0
    6.9700  -18.5889   22.1071 C   0  0  1  0  0  0  0  0  0  0  0  0
    6.9453  -19.3353   23.4113 C   0  0  0  0  0  0  0  0  0  0  0  0
    6.4619  -18.2259   24.7527 S   0  0  0  0  0  0  0  0  0  0  0  0
    8.0292  -17.5174   22.2475 C   0  0  0  0  0  0  0  0  0  0  0  0
    9.2171  -17.7593   21.9226 O   0  0  0  0  0  0  0  0  0  0  0  0
    7.7938  -13.3059   16.7953 O   0  0  0  0  0  0  0  0  0  0  0  0
    7.9286  -13.4559   18.1621 C   0  0  0  0  0  0  0  0  0  0  0  0
    9.1559  -13.3868   18.7778 C   0  0  0  0  0  0  0  0  0  0  0  0
    9.2196  -13.5441   20.1345 C   0  0  0  0  0  0  0  0  0  0  0  0
    8.1153  -13.7718   20.9439 C   0  0  0  0  0  0  0  0  0  0  0  0
    8.1663  -13.9670   22.3790 C   0  0  0  0  0  0  0  0  0  0  0  0
    8.7243  -15.1981   22.9407 C   0  0  2  0  0  0  0  0  0  0  0  0
    7.6957  -16.2341   22.7447 N   0  0  0  0  0  0  0  0  0  0  0  0
    9.1141  -15.2050   24.3637 C   0  0  0  0  0  0  0  0  0  0  0  0
    9.5615  -14.1543   24.9324 O   0  0  0  0  0  0  0  0  0  0  0  0
    6.8969  -13.8362   20.2980 C   0  0  0  0  0  0  0  0  0  0  0  0
    6.8014  -13.6792   18.9132 C   0  0  0  0  0  0  0  0  0  0  0  0
    9.0360  -16.3301   25.2286 N   0  0  0  0  0  0  0  0  0  0  0  0
    9.3103  -16.2235   26.6752 C   0  0  1  0  0  0  0  0  0  0  0  0
    8.0602  -15.7660   27.3797 C   0  0  0  0  0  0  0  0  0  0  0  0
    7.6903  -14.3723   27.1054 C   0  0  0  0  0  0  0  0  0  0  0  0
    8.4833  -13.2937   27.4526 C   0  0  0  0  0  0  0  0  0  0  0  0
    8.0869  -12.0077   27.1645 C   0  0  0  0  0  0  0  0  0  0  0  0
    6.9059  -11.7097   26.5283 C   0  0  0  0  0  0  0  0  0  0  0  0
    6.1054  -12.7741   26.1766 C   0  0  0  0  0  0  0  0  0  0  0  0
    6.4866  -14.0648   26.4568 C   0  0  0  0  0  0  0  0  0  0  0  0
    9.7384  -17.5213   27.2399 C   0  0  0  0  0  0  0  0  0  0  0  0
    9.7692  -18.5845   26.5478 O   0  0  0  0  0  0  0  0  0  0  0  0
   10.1286  -17.6338   28.5543 O   0  0  0  0  0  0  0  0  0  0  0  0
  2  1  1  6
  2  3  1  0
  3  4  1  0
  5  6  2  0
  5  2  1  0
  8  7  1  0
  9  8  2  0
 10  9  1  0
 11 10  2  0
 11 17  1  0
 12 11  1  0
 13 14  1  0
 13 12  1  1
 14  5  1  0
 15 13  1  0
 16 15  2  0
 17 18  2  0
 18  8  1  0
 19 15  1  0
 20 19  1  0
 20 21  1  1
 22 21  1  0
 23 22  2  0
 24 23  1  0
 25 24  2  0
 25 26  1  0
 26 27  2  0
 27 22  1  0
 28 20  1  0
 28 30  1  0
 29 28  2  0
M  END
$$$$
