CYF.pdb
     RDKit          3D

 30 31  0  0  1  0  0  0  0  0999 V2000
    8.2377  -16.8581   19.8373 N   0  0  0  0  0  0  0  0  0  0  0  0
    8.5594  -16.0032   20.9338 C   0  0  1  0  0  0  0  0  0  0  0  0
    7.5143  -15.9767   22.0134 C   0  0  0  0  0  0  0  0  0  0  0  0
    6.9369  -17.6531   22.3601 S   0  0  0  0  0  0  0  0  0  0  0  0
    9.8525  -16.4196   21.6004 C   0  0  0  0  0  0  0  0  0  0  0  0
   10.3160  -17.5707   21.4125 O   0  0  0  0  0  0  0  0  0  0  0  0
   14.6383  -14.8712   17.4517 O   0  0  0  0  0  0  0  0  0  0  0  0
   14.1636  -14.8759   18.7492 C   0  0  0  0  0  0  0  0  0  0  0  0
   13.3062  -13.9035   19.2071 C   0  0  0  0  0  0  0  0  0  0  0  0
   12.8738  -13.9667   20.5026 C   0  0  0  0  0  0  0  0  0  0  0  0
   13.2459  -14.9584   21.3995 C   0  0  0  0  0  0  0  0  0  0  0  0
   12.8190  -15.0270   22.7827 C   0  0  0  0  0  0  0  0  0  0  0  0
   11.7517  -15.9444   23.1848 C   0  0  2  0  0  0  0  0  0  0  0  0
   10.5531  -15.5205   22.4407 N   0  0  0  0  0  0  0  0  0  0  0  0
   11.3972  -16.0229   24.6149 C   0  0  0  0  0  0  0  0  0  0  0  0
   11.9523  -15.2637   25.4769 O   0  0  0  0  0  0  0  0  0  0  0  0
   14.1073  -15.9208   20.9117 C   0  0  0  0  0  0  0  0  0  0  0  0
   14.5654  -15.8817   19.5925 C   0  0  0  0  0  0  0  0  0  0  0  0
   10.4370  -16.9096   25.1730 N   0  0  0  0  0  0  0  0  0  0  0  0
   10.2194  -17.0087   26.6298 C   0  0  1  0  0  0  0  0  0  0  0  0
    8.7529  -16.8263   26.9208 C   0  0  0  0  0  0  0  0  0  0  0  0
    8.2211  -15.5141   26.5340 C   0  0  0  0  0  0  0  0  0  0  0  0
    8.5401  -14.3409   27.1931 C   0  0  0  0  0  0  0  0  0  0  0  0
    8.0145  -13.1375   26.7814 C   0  0  0  0  0  0  0  0  0  0  0  0
    7.1573  -13.0173   25.7142 C   0  0  0  0  0  0  0  0  0  0  0  0
    6.8302  -14.1777   25.0480 C   0  0  0  0  0  0  0  0  0  0  0  0
    7.3465  -15.3879   25.4462 C   0  0  0  0  0  0  0  0  0  0  0  0
   10.6586  -18.3202   27.1526 C   0  0  0  0  0  0  0  0  0  0  0  0
   10.7338  -18.5635   28.3959 O   0  0  0  0  0  0  0  0  0  0  0  0
   11.0066  -19.3463   26.3050 O   0  0  0  0  0  0  0  0  0  0  0  0
  2  1  1  6
  2  3  1  0
  3  4  1  0
  5  6  2  0
  5  2  1  0
  8  7  1  0
  9  8  2  0
 10  9  1  0
 11 10  2  0
 11 17  1  0
 12 11  1  0
 13 14  1  0
 13 12  1  1
 14  5  1  0
 15 13  1  0
 16 15  2  0
 17 18  2  0
 18  8  1  0
 19 15  1  0
 20 19  1  0
 20 21  1  6
 22 21  1  0
 23 22  2  0
 24 23  1  0
 25 24  2  0
 25 26  1  0
 26 27  2  0
 27 22  1  0
 28 20  1  0
 28 30  1  0
 29 28  2  0
M  END
$$$$
