CYF.pdb
     RDKit          3D

 30 31  0  0  1  0  0  0  0  0999 V2000
    2.6274  -19.1971   21.0380 N   0  0  0  0  0  0  0  0  0  0  0  0
    4.0045  -19.4992   21.2587 C   0  0  1  0  0  0  0  0  0  0  0  0
    4.9091  -19.0775   20.1351 C   0  0  0  0  0  0  0  0  0  0  0  0
    5.3093  -17.3222   20.2854 S   0  0  0  0  0  0  0  0  0  0  0  0
    4.5275  -18.8211   22.5063 C   0  0  0  0  0  0  0  0  0  0  0  0
    3.9481  -17.8049   22.9611 O   0  0  0  0  0  0  0  0  0  0  0  0
    9.4848  -18.6949   30.0229 O   0  0  0  0  0  0  0  0  0  0  0  0
    8.7522  -18.9037   28.8702 C   0  0  0  0  0  0  0  0  0  0  0  0
    7.7035  -18.0848   28.5238 C   0  0  0  0  0  0  0  0  0  0  0  0
    7.0195  -18.3470   27.3694 C   0  0  0  0  0  0  0  0  0  0  0  0
    7.3150  -19.3972   26.5114 C   0  0  0  0  0  0  0  0  0  0  0  0
    6.5853  -19.7061   25.2980 C   0  0  0  0  0  0  0  0  0  0  0  0
    6.2249  -18.6432   24.3585 C   0  0  2  0  0  0  0  0  0  0  0  0
    5.6719  -19.3217   23.1737 N   0  0  0  0  0  0  0  0  0  0  0  0
    7.2834  -17.7214   23.9041 C   0  0  0  0  0  0  0  0  0  0  0  0
    8.0973  -18.0527   22.9792 O   0  0  0  0  0  0  0  0  0  0  0  0
    8.3726  -20.2021   26.8850 C   0  0  0  0  0  0  0  0  0  0  0  0
    9.0896  -19.9583   28.0589 C   0  0  0  0  0  0  0  0  0  0  0  0
    7.5070  -16.4148   24.4169 N   0  0  0  0  0  0  0  0  0  0  0  0
    8.5701  -15.5389   23.8859 C   0  0  1  0  0  0  0  0  0  0  0  0
    8.0519  -14.1266   23.8131 C   0  0  0  0  0  0  0  0  0  0  0  0
    7.5142  -13.6166   25.0801 C   0  0  0  0  0  0  0  0  0  0  0  0
    6.1733  -13.6740   25.4140 C   0  0  0  0  0  0  0  0  0  0  0  0
    5.7273  -13.1842   26.6202 C   0  0  0  0  0  0  0  0  0  0  0  0
    6.5594  -12.6173   27.5555 C   0  0  0  0  0  0  0  0  0  0  0  0
    7.8978  -12.5530   27.2366 C   0  0  0  0  0  0  0  0  0  0  0  0
    8.3599  -13.0378   26.0361 C   0  0  0  0  0  0  0  0  0  0  0  0
    9.7738  -15.5707   24.7441 C   0  0  0  0  0  0  0  0  0  0  0  0
   10.8807  -15.0696   24.3779 O   0  0  0  0  0  0  0  0  0  0  0  0
    9.7457  -16.1492   25.9919 O   0  0  0  0  0  0  0  0  0  0  0  0
  2  1  1  6
  2  3  1  0
  3  4  1  0
  5  6  2  0
  5  2  1  0
  8  7  1  0
  9  8  2  0
 10  9  1  0
 11 10  2  0
 11 17  1  0
 12 11  1  0
 13 14  1  0
 13 12  1  1
 14  5  1  0
 15 13  1  0
 16 15  2  0
 17 18  2  0
 18  8  1  0
 19 15  1  0
 20 19  1  0
 20 21  1  1
 22 21  1  0
 23 22  2  0
 24 23  1  0
 25 24  2  0
 25 26  1  0
 26 27  2  0
 27 22  1  0
 28 20  1  0
 28 30  1  0
 29 28  2  0
M  END
$$$$
