CYF.pdb
     RDKit          3D

 30 31  0  0  1  0  0  0  0  0999 V2000
    7.8155  -19.0431   21.7133 N   0  0  0  0  0  0  0  0  0  0  0  0
    8.8349  -19.1632   20.7218 C   0  0  1  0  0  0  0  0  0  0  0  0
    8.3101  -19.2730   19.3178 C   0  0  0  0  0  0  0  0  0  0  0  0
    6.9321  -20.4399   19.2594 S   0  0  0  0  0  0  0  0  0  0  0  0
    9.7669  -17.9712   20.7380 C   0  0  0  0  0  0  0  0  0  0  0  0
   10.7304  -17.9138   19.9358 O   0  0  0  0  0  0  0  0  0  0  0  0
    7.0209  -12.8806   16.9347 O   0  0  0  0  0  0  0  0  0  0  0  0
    7.6881  -13.2963   18.0708 C   0  0  0  0  0  0  0  0  0  0  0  0
    8.9909  -13.7327   18.0232 C   0  0  0  0  0  0  0  0  0  0  0  0
    9.5929  -14.1305   19.1847 C   0  0  0  0  0  0  0  0  0  0  0  0
    8.9706  -14.1239   20.4253 C   0  0  0  0  0  0  0  0  0  0  0  0
    9.5835  -14.5661   21.6618 C   0  0  0  0  0  0  0  0  0  0  0  0
   10.4587  -15.7393   21.6776 C   0  0  2  0  0  0  0  0  0  0  0  0
    9.5653  -16.9102   21.6540 N   0  0  0  0  0  0  0  0  0  0  0  0
   11.3933  -15.9008   22.8077 C   0  0  0  0  0  0  0  0  0  0  0  0
   12.4105  -15.1420   22.9389 O   0  0  0  0  0  0  0  0  0  0  0  0
    7.6632  -13.6808   20.4421 C   0  0  0  0  0  0  0  0  0  0  0  0
    7.0226  -13.2683   19.2712 C   0  0  0  0  0  0  0  0  0  0  0  0
   11.2728  -16.8728   23.8375 N   0  0  0  0  0  0  0  0  0  0  0  0
   11.3371  -16.5086   25.2667 C   0  0  1  0  0  0  0  0  0  0  0  0
   10.0634  -15.8025   25.6512 C   0  0  0  0  0  0  0  0  0  0  0  0
   10.0336  -15.3285   27.0400 C   0  0  0  0  0  0  0  0  0  0  0  0
    9.4676  -16.0485   28.0763 C   0  0  0  0  0  0  0  0  0  0  0  0
    9.4741  -15.5554   29.3611 C   0  0  0  0  0  0  0  0  0  0  0  0
   10.0282  -14.3441   29.6987 C   0  0  0  0  0  0  0  0  0  0  0  0
   10.5955  -13.6155   28.6767 C   0  0  0  0  0  0  0  0  0  0  0  0
   10.5977  -14.0936   27.3878 C   0  0  0  0  0  0  0  0  0  0  0  0
   11.5064  -17.7037   26.1207 C   0  0  0  0  0  0  0  0  0  0  0  0
   12.3493  -17.7454   27.0686 O   0  0  0  0  0  0  0  0  0  0  0  0
   10.7478  -18.8344   25.9246 O   0  0  0  0  0  0  0  0  0  0  0  0
  2  1  1  1
  2  3  1  0
  3  4  1  0
  5  6  2  0
  5  2  1  0
  8  7  1  0
  9  8  2  0
 10  9  1  0
 11 10  2  0
 11 17  1  0
 12 11  1  0
 13 14  1  0
 13 12  1  1
 14  5  1  0
 15 13  1  0
 16 15  2  0
 17 18  2  0
 18  8  1  0
 19 15  1  0
 20 19  1  0
 20 21  1  1
 22 21  1  0
 23 22  2  0
 24 23  1  0
 25 24  2  0
 25 26  1  0
 26 27  2  0
 27 22  1  0
 28 20  1  0
 28 30  1  0
 29 28  2  0
M  END
$$$$
