CYF.pdb
     RDKit          3D

 30 31  0  0  1  0  0  0  0  0999 V2000
    6.5876  -20.6574   24.6540 N   0  0  0  0  0  0  0  0  0  0  0  0
    6.1873  -19.2889   24.7129 C   0  0  1  0  0  0  0  0  0  0  0  0
    6.2714  -18.6876   26.0876 C   0  0  0  0  0  0  0  0  0  0  0  0
    6.7057  -19.9586   27.2959 S   0  0  0  0  0  0  0  0  0  0  0  0
    7.0423  -18.4223   23.8140 C   0  0  0  0  0  0  0  0  0  0  0  0
    8.0504  -18.9071   23.2448 O   0  0  0  0  0  0  0  0  0  0  0  0
    8.2476  -12.6044   17.3963 O   0  0  0  0  0  0  0  0  0  0  0  0
    7.8405  -13.2235   18.5624 C   0  0  0  0  0  0  0  0  0  0  0  0
    7.6856  -12.5228   19.7351 C   0  0  0  0  0  0  0  0  0  0  0  0
    7.2800  -13.1963   20.8537 C   0  0  0  0  0  0  0  0  0  0  0  0
    7.0101  -14.5573   20.8872 C   0  0  0  0  0  0  0  0  0  0  0  0
    6.6048  -15.2926   22.0684 C   0  0  0  0  0  0  0  0  0  0  0  0
    7.5393  -16.2029   22.7322 C   0  0  2  0  0  0  0  0  0  0  0  0
    6.7178  -17.0599   23.6043 N   0  0  0  0  0  0  0  0  0  0  0  0
    8.6209  -15.6222   23.5505 C   0  0  0  0  0  0  0  0  0  0  0  0
    8.6248  -14.3847   23.8603 O   0  0  0  0  0  0  0  0  0  0  0  0
    7.1742  -15.2344   19.6953 C   0  0  0  0  0  0  0  0  0  0  0  0
    7.5875  -14.5725   18.5367 C   0  0  0  0  0  0  0  0  0  0  0  0
    9.7315  -16.3415   24.0694 N   0  0  0  0  0  0  0  0  0  0  0  0
   10.4813  -15.8738   25.2519 C   0  0  1  0  0  0  0  0  0  0  0  0
    9.5874  -15.9500   26.4617 C   0  0  0  0  0  0  0  0  0  0  0  0
    8.9831  -14.6686   26.8454 C   0  0  0  0  0  0  0  0  0  0  0  0
    9.5517  -13.8056   27.7645 C   0  0  0  0  0  0  0  0  0  0  0  0
    8.9414  -12.6135   28.0812 C   0  0  0  0  0  0  0  0  0  0  0  0
    7.7544  -12.2049   27.5223 C   0  0  0  0  0  0  0  0  0  0  0  0
    7.1761  -13.0543   26.6051 C   0  0  0  0  0  0  0  0  0  0  0  0
    7.7726  -14.2487   26.2775 C   0  0  0  0  0  0  0  0  0  0  0  0
   11.6867  -16.6973   25.4865 C   0  0  0  0  0  0  0  0  0  0  0  0
   12.7836  -16.1961   25.8816 O   0  0  0  0  0  0  0  0  0  0  0  0
   11.6713  -18.0583   25.2867 O   0  0  0  0  0  0  0  0  0  0  0  0
  2  1  1  1
  2  3  1  0
  3  4  1  0
  5  6  2  0
  5  2  1  0
  8  7  1  0
  9  8  2  0
 10  9  1  0
 11 10  2  0
 11 17  1  0
 12 11  1  0
 13 14  1  0
 13 12  1  1
 14  5  1  0
 15 13  1  0
 16 15  2  0
 17 18  2  0
 18  8  1  0
 19 15  1  0
 20 19  1  0
 20 21  1  1
 22 21  1  0
 23 22  2  0
 24 23  1  0
 25 24  2  0
 25 26  1  0
 26 27  2  0
 27 22  1  0
 28 20  1  0
 28 30  1  0
 29 28  2  0
M  END
$$$$
