CYF.pdb
     RDKit          3D

 30 31  0  0  1  0  0  0  0  0999 V2000
    7.2875  -15.2655   19.2073 N   0  0  0  0  0  0  0  0  0  0  0  0
    8.3180  -14.7697   20.0611 C   0  0  1  0  0  0  0  0  0  0  0  0
    8.0140  -13.4291   20.6686 C   0  0  0  0  0  0  0  0  0  0  0  0
    8.0753  -12.1442   19.4000 S   0  0  0  0  0  0  0  0  0  0  0  0
    8.5827  -15.7121   21.2151 C   0  0  0  0  0  0  0  0  0  0  0  0
    7.6490  -16.4020   21.6921 O   0  0  0  0  0  0  0  0  0  0  0  0
   13.1490  -22.0264   25.2480 O   0  0  0  0  0  0  0  0  0  0  0  0
   12.7646  -20.8862   24.5691 C   0  0  0  0  0  0  0  0  0  0  0  0
   13.4630  -19.7076   24.6851 C   0  0  0  0  0  0  0  0  0  0  0  0
   13.0288  -18.6157   23.9860 C   0  0  0  0  0  0  0  0  0  0  0  0
   11.9164  -18.6153   23.1560 C   0  0  0  0  0  0  0  0  0  0  0  0
   11.4263  -17.4619   22.4282 C   0  0  0  0  0  0  0  0  0  0  0  0
   10.1775  -16.8100   22.8256 C   0  0  2  0  0  0  0  0  0  0  0  0
    9.8808  -15.8273   21.7692 N   0  0  0  0  0  0  0  0  0  0  0  0
   10.1347  -16.1111   24.1244 C   0  0  0  0  0  0  0  0  0  0  0  0
   10.7999  -15.0407   24.3221 O   0  0  0  0  0  0  0  0  0  0  0  0
   11.2354  -19.8123   23.0593 C   0  0  0  0  0  0  0  0  0  0  0  0
   11.6558  -20.9442   23.7619 C   0  0  0  0  0  0  0  0  0  0  0  0
    9.3785  -16.5272   25.2536 N   0  0  0  0  0  0  0  0  0  0  0  0
    9.5605  -15.9141   26.5841 C   0  0  1  0  0  0  0  0  0  0  0  0
    8.2126  -15.5320   27.1371 C   0  0  0  0  0  0  0  0  0  0  0  0
    7.6258  -14.3364   26.5202 C   0  0  0  0  0  0  0  0  0  0  0  0
    6.6020  -14.3856   25.5916 C   0  0  0  0  0  0  0  0  0  0  0  0
    6.0870  -13.2298   25.0506 C   0  0  0  0  0  0  0  0  0  0  0  0
    6.5405  -11.9763   25.3845 C   0  0  0  0  0  0  0  0  0  0  0  0
    7.5603  -11.9116   26.3081 C   0  0  0  0  0  0  0  0  0  0  0  0
    8.0859  -13.0565   26.8583 C   0  0  0  0  0  0  0  0  0  0  0  0
   10.2231  -16.8463   27.5213 C   0  0  0  0  0  0  0  0  0  0  0  0
   10.5714  -16.4978   28.6908 O   0  0  0  0  0  0  0  0  0  0  0  0
   10.4919  -18.1471   27.1635 O   0  0  0  0  0  0  0  0  0  0  0  0
  2  1  1  1
  2  3  1  0
  3  4  1  0
  5  6  2  0
  5  2  1  0
  8  7  1  0
  9  8  2  0
 10  9  1  0
 11 10  2  0
 11 17  1  0
 12 11  1  0
 13 14  1  0
 13 12  1  6
 14  5  1  0
 15 13  1  0
 16 15  2  0
 17 18  2  0
 18  8  1  0
 19 15  1  0
 20 19  1  0
 20 21  1  1
 22 21  1  0
 23 22  2  0
 24 23  1  0
 25 24  2  0
 25 26  1  0
 26 27  2  0
 27 22  1  0
 28 20  1  0
 28 30  1  0
 29 28  2  0
M  END
$$$$
