CYF.pdb
     RDKit          3D

 30 31  0  0  1  0  0  0  0  0999 V2000
   10.9561  -16.6230   18.1965 N   0  0  0  0  0  0  0  0  0  0  0  0
   10.2441  -17.3722   19.1806 C   0  0  1  0  0  0  0  0  0  0  0  0
   10.7876  -18.7553   19.4051 C   0  0  0  0  0  0  0  0  0  0  0  0
    9.7511  -19.6455   20.5871 S   0  0  0  0  0  0  0  0  0  0  0  0
   10.2656  -16.6806   20.5263 C   0  0  0  0  0  0  0  0  0  0  0  0
   11.3357  -16.1967   20.9691 O   0  0  0  0  0  0  0  0  0  0  0  0
    5.9801  -12.5081   27.2675 O   0  0  0  0  0  0  0  0  0  0  0  0
    6.4232  -13.1466   26.1253 C   0  0  0  0  0  0  0  0  0  0  0  0
    7.0997  -12.4708   25.1374 C   0  0  0  0  0  0  0  0  0  0  0  0
    7.5108  -13.1626   24.0320 C   0  0  0  0  0  0  0  0  0  0  0  0
    7.2891  -14.5186   23.8360 C   0  0  0  0  0  0  0  0  0  0  0  0
    7.6939  -15.2627   22.6600 C   0  0  0  0  0  0  0  0  0  0  0  0
    9.0561  -15.7860   22.5462 C   0  0  2  0  0  0  0  0  0  0  0  0
    9.0845  -16.5707   21.2999 N   0  0  0  0  0  0  0  0  0  0  0  0
    9.5723  -16.6383   23.6343 C   0  0  0  0  0  0  0  0  0  0  0  0
    9.3344  -17.8914   23.6629 O   0  0  0  0  0  0  0  0  0  0  0  0
    6.6077  -15.1705   24.8443 C   0  0  0  0  0  0  0  0  0  0  0  0
    6.1757  -14.4896   25.9849 C   0  0  0  0  0  0  0  0  0  0  0  0
   10.3623  -16.1847   24.7252 N   0  0  0  0  0  0  0  0  0  0  0  0
   10.9808  -17.1213   25.6841 C   0  0  1  0  0  0  0  0  0  0  0  0
   11.8670  -16.3474   26.6243 C   0  0  0  0  0  0  0  0  0  0  0  0
   11.1492  -15.4005   27.4860 C   0  0  0  0  0  0  0  0  0  0  0  0
   10.6558  -14.1888   27.0372 C   0  0  0  0  0  0  0  0  0  0  0  0
    9.9851  -13.3430   27.8908 C   0  0  0  0  0  0  0  0  0  0  0  0
    9.7628  -13.6328   29.2155 C   0  0  0  0  0  0  0  0  0  0  0  0
   10.2487  -14.8363   29.6768 C   0  0  0  0  0  0  0  0  0  0  0  0
   10.9208  -15.6928   28.8374 C   0  0  0  0  0  0  0  0  0  0  0  0
    9.9568  -17.8452   26.4676 C   0  0  0  0  0  0  0  0  0  0  0  0
   10.2594  -18.7392   27.3161 O   0  0  0  0  0  0  0  0  0  0  0  0
    8.6167  -17.5768   26.3113 O   0  0  0  0  0  0  0  0  0  0  0  0
  2  1  1  6
  2  3  1  0
  3  4  1  0
  5  6  2  0
  5  2  1  0
  8  7  1  0
  9  8  2  0
 10  9  1  0
 11 10  2  0
 11 17  1  0
 12 11  1  0
 13 14  1  0
 13 12  1  1
 14  5  1  0
 15 13  1  0
 16 15  2  0
 17 18  2  0
 18  8  1  0
 19 15  1  0
 20 19  1  0
 20 21  1  1
 22 21  1  0
 23 22  2  0
 24 23  1  0
 25 24  2  0
 25 26  1  0
 26 27  2  0
 27 22  1  0
 28 20  1  0
 28 30  1  0
 29 28  2  0
M  END
$$$$
