CYF.pdb
     RDKit          3D

 30 31  0  0  1  0  0  0  0  0999 V2000
    6.1002  -19.2057   20.7016 N   0  0  0  0  0  0  0  0  0  0  0  0
    6.0934  -18.1876   21.7017 C   0  0  1  0  0  0  0  0  0  0  0  0
    5.7249  -18.6817   23.0723 C   0  0  0  0  0  0  0  0  0  0  0  0
    4.1118  -19.4940   23.0268 S   0  0  0  0  0  0  0  0  0  0  0  0
    7.4506  -17.5317   21.8340 C   0  0  0  0  0  0  0  0  0  0  0  0
    8.4932  -18.1857   21.5879 O   0  0  0  0  0  0  0  0  0  0  0  0
    7.9578  -13.5917   16.2900 O   0  0  0  0  0  0  0  0  0  0  0  0
    8.1158  -13.7117   17.6573 C   0  0  0  0  0  0  0  0  0  0  0  0
    7.4077  -12.9274   18.5368 C   0  0  0  0  0  0  0  0  0  0  0  0
    7.6115  -13.0968   19.8782 C   0  0  0  0  0  0  0  0  0  0  0  0
    8.4963  -14.0186   20.4203 C   0  0  0  0  0  0  0  0  0  0  0  0
    8.7448  -14.1941   21.8372 C   0  0  0  0  0  0  0  0  0  0  0  0
    8.8763  -15.5361   22.4065 C   0  0  2  0  0  0  0  0  0  0  0  0
    7.5617  -16.1782   22.2353 N   0  0  0  0  0  0  0  0  0  0  0  0
    9.2641  -15.6606   23.8246 C   0  0  0  0  0  0  0  0  0  0  0  0
   10.3886  -15.2277   24.2436 O   0  0  0  0  0  0  0  0  0  0  0  0
    9.1930  -14.7917   19.5132 C   0  0  0  0  0  0  0  0  0  0  0  0
    9.0052  -14.6407   18.1372 C   0  0  0  0  0  0  0  0  0  0  0  0
    8.4650  -16.2463   24.8436 N   0  0  0  0  0  0  0  0  0  0  0  0
    8.9316  -16.3472   26.2405 C   0  0  1  0  0  0  0  0  0  0  0  0
    7.8479  -15.8441   27.1577 C   0  0  0  0  0  0  0  0  0  0  0  0
    7.4982  -14.4326   26.9587 C   0  0  0  0  0  0  0  0  0  0  0  0
    8.3070  -13.3856   27.3616 C   0  0  0  0  0  0  0  0  0  0  0  0
    7.9290  -12.0804   27.1432 C   0  0  0  0  0  0  0  0  0  0  0  0
    6.7519  -11.7319   26.5258 C   0  0  0  0  0  0  0  0  0  0  0  0
    5.9358  -12.7643   26.1192 C   0  0  0  0  0  0  0  0  0  0  0  0
    6.2984  -14.0735   26.3296 C   0  0  0  0  0  0  0  0  0  0  0  0
    9.2617  -17.7431   26.5993 C   0  0  0  0  0  0  0  0  0  0  0  0
    9.0388  -18.7154   25.8147 O   0  0  0  0  0  0  0  0  0  0  0  0
    9.8334  -18.0524   27.8117 O   0  0  0  0  0  0  0  0  0  0  0  0
  2  1  1  6
  2  3  1  0
  3  4  1  0
  5  6  2  0
  5  2  1  0
  8  7  1  0
  9  8  2  0
 10  9  1  0
 11 10  2  0
 11 17  1  0
 12 11  1  0
 13 14  1  0
 13 12  1  1
 14  5  1  0
 15 13  1  0
 16 15  2  0
 17 18  2  0
 18  8  1  0
 19 15  1  0
 20 19  1  0
 20 21  1  1
 22 21  1  0
 23 22  2  0
 24 23  1  0
 25 24  2  0
 25 26  1  0
 26 27  2  0
 27 22  1  0
 28 20  1  0
 28 30  1  0
 29 28  2  0
M  END
$$$$
