CYF.pdb
     RDKit          3D

 30 31  0  0  1  0  0  0  0  0999 V2000
    4.8569  -20.3398   22.1495 N   0  0  0  0  0  0  0  0  0  0  0  0
    4.6926  -18.9559   22.4566 C   0  0  1  0  0  0  0  0  0  0  0  0
    4.4296  -18.6810   23.9105 C   0  0  0  0  0  0  0  0  0  0  0  0
    5.8849  -19.1011   24.8952 S   0  0  0  0  0  0  0  0  0  0  0  0
    5.9226  -18.1561   22.0858 C   0  0  0  0  0  0  0  0  0  0  0  0
    7.0266  -18.7330   21.9324 O   0  0  0  0  0  0  0  0  0  0  0  0
   10.7096  -12.3776   17.7193 O   0  0  0  0  0  0  0  0  0  0  0  0
    9.7007  -12.9563   18.4651 C   0  0  0  0  0  0  0  0  0  0  0  0
    8.8055  -12.1963   19.1801 C   0  0  0  0  0  0  0  0  0  0  0  0
    7.8307  -12.8321   19.8977 C   0  0  0  0  0  0  0  0  0  0  0  0
    7.6807  -14.2107   19.9547 C   0  0  0  0  0  0  0  0  0  0  0  0
    6.6707  -14.9027   20.7302 C   0  0  0  0  0  0  0  0  0  0  0  0
    7.0535  -15.9412   21.6880 C   0  0  2  0  0  0  0  0  0  0  0  0
    5.8445  -16.7534   21.9080 N   0  0  0  0  0  0  0  0  0  0  0  0
    7.5688  -15.5232   23.0058 C   0  0  0  0  0  0  0  0  0  0  0  0
    6.9635  -14.6440   23.7045 O   0  0  0  0  0  0  0  0  0  0  0  0
    8.5937  -14.9475   19.2271 C   0  0  0  0  0  0  0  0  0  0  0  0
    9.6002  -14.3252   18.4847 C   0  0  0  0  0  0  0  0  0  0  0  0
    8.7432  -16.0311   23.6244 N   0  0  0  0  0  0  0  0  0  0  0  0
    9.1281  -15.6527   24.9985 C   0  0  1  0  0  0  0  0  0  0  0  0
    7.9078  -15.6978   25.8802 C   0  0  0  0  0  0  0  0  0  0  0  0
    7.3602  -14.3786   26.2183 C   0  0  0  0  0  0  0  0  0  0  0  0
    6.0388  -14.1724   26.5705 C   0  0  0  0  0  0  0  0  0  0  0  0
    5.5827  -12.9121   26.8831 C   0  0  0  0  0  0  0  0  0  0  0  0
    6.3854  -11.7969   26.8681 C   0  0  0  0  0  0  0  0  0  0  0  0
    7.7042  -11.9869   26.5189 C   0  0  0  0  0  0  0  0  0  0  0  0
    8.1760  -13.2392   26.2039 C   0  0  0  0  0  0  0  0  0  0  0  0
   10.1542  -16.5678   25.5425 C   0  0  0  0  0  0  0  0  0  0  0  0
   10.1876  -17.8014   25.2464 O   0  0  0  0  0  0  0  0  0  0  0  0
   11.1297  -16.1168   26.4011 O   0  0  0  0  0  0  0  0  0  0  0  0
  2  1  1  1
  2  3  1  0
  3  4  1  0
  5  6  2  0
  5  2  1  0
  8  7  1  0
  9  8  2  0
 10  9  1  0
 11 10  2  0
 11 17  1  0
 12 11  1  0
 13 14  1  0
 13 12  1  6
 14  5  1  0
 15 13  1  0
 16 15  2  0
 17 18  2  0
 18  8  1  0
 19 15  1  0
 20 19  1  0
 20 21  1  1
 22 21  1  0
 23 22  2  0
 24 23  1  0
 25 24  2  0
 25 26  1  0
 26 27  2  0
 27 22  1  0
 28 20  1  0
 28 30  1  0
 29 28  2  0
M  END
$$$$
