CYF.pdb
     RDKit          3D

 30 31  0  0  1  0  0  0  0  0999 V2000
   11.0567  -16.5212   18.3806 N   0  0  0  0  0  0  0  0  0  0  0  0
   10.4235  -17.3406   19.3625 C   0  0  1  0  0  0  0  0  0  0  0  0
   11.1475  -18.6277   19.6415 C   0  0  0  0  0  0  0  0  0  0  0  0
   10.1063  -19.7242   20.6303 S   0  0  0  0  0  0  0  0  0  0  0  0
   10.3015  -16.6223   20.6887 C   0  0  0  0  0  0  0  0  0  0  0  0
   11.2897  -16.0170   21.1706 O   0  0  0  0  0  0  0  0  0  0  0  0
    5.6812  -12.6451   27.2402 O   0  0  0  0  0  0  0  0  0  0  0  0
    6.1078  -13.3775   26.1490 C   0  0  0  0  0  0  0  0  0  0  0  0
    5.8258  -14.7173   26.0247 C   0  0  0  0  0  0  0  0  0  0  0  0
    6.2779  -15.3836   24.9195 C   0  0  0  0  0  0  0  0  0  0  0  0
    7.0118  -14.7922   23.9008 C   0  0  0  0  0  0  0  0  0  0  0  0
    7.5215  -15.4874   22.7358 C   0  0  0  0  0  0  0  0  0  0  0  0
    8.9275  -15.8887   22.6678 C   0  0  2  0  0  0  0  0  0  0  0  0
    9.0770  -16.6236   21.4000 N   0  0  0  0  0  0  0  0  0  0  0  0
    9.4684  -16.7320   23.7509 C   0  0  0  0  0  0  0  0  0  0  0  0
    9.1290  -17.9561   23.8687 O   0  0  0  0  0  0  0  0  0  0  0  0
    7.2796  -13.4464   24.0530 C   0  0  0  0  0  0  0  0  0  0  0  0
    6.8305  -12.7400   25.1714 C   0  0  0  0  0  0  0  0  0  0  0  0
   10.3918  -16.3003   24.7413 N   0  0  0  0  0  0  0  0  0  0  0  0
   10.9372  -17.2236   25.7558 C   0  0  1  0  0  0  0  0  0  0  0  0
   12.0572  -16.5373   26.4928 C   0  0  0  0  0  0  0  0  0  0  0  0
   11.6317  -15.3861   27.2977 C   0  0  0  0  0  0  0  0  0  0  0  0
   11.3593  -14.1418   26.7590 C   0  0  0  0  0  0  0  0  0  0  0  0
   10.9582  -13.0996   27.5633 C   0  0  0  0  0  0  0  0  0  0  0  0
   10.8034  -13.2163   28.9237 C   0  0  0  0  0  0  0  0  0  0  0  0
   11.0714  -14.4500   29.4746 C   0  0  0  0  0  0  0  0  0  0  0  0
   11.4730  -15.5015   28.6853 C   0  0  0  0  0  0  0  0  0  0  0  0
    9.8987  -17.6347   26.7248 C   0  0  0  0  0  0  0  0  0  0  0  0
    8.7646  -17.0683   26.7838 O   0  0  0  0  0  0  0  0  0  0  0  0
   10.1179  -18.6619   27.6132 O   0  0  0  0  0  0  0  0  0  0  0  0
  2  1  1  6
  2  3  1  0
  3  4  1  0
  5  6  2  0
  5  2  1  0
  8  7  1  0
  9  8  2  0
 10  9  1  0
 11 10  2  0
 11 17  1  0
 12 11  1  0
 13 14  1  0
 13 12  1  1
 14  5  1  0
 15 13  1  0
 16 15  2  0
 17 18  2  0
 18  8  1  0
 19 15  1  0
 20 19  1  0
 20 21  1  1
 22 21  1  0
 23 22  2  0
 24 23  1  0
 25 24  2  0
 25 26  1  0
 26 27  2  0
 27 22  1  0
 28 20  1  0
 28 30  1  0
 29 28  2  0
M  END
$$$$
