CYF.pdb
     RDKit          3D

 30 31  0  0  1  0  0  0  0  0999 V2000
    7.1882  -14.8981   18.8450 N   0  0  0  0  0  0  0  0  0  0  0  0
    8.1453  -14.5105   19.8300 C   0  0  1  0  0  0  0  0  0  0  0  0
    7.8670  -13.1736   20.4578 C   0  0  0  0  0  0  0  0  0  0  0  0
    8.2922  -11.8469   19.3076 S   0  0  0  0  0  0  0  0  0  0  0  0
    8.2094  -15.5104   20.9640 C   0  0  0  0  0  0  0  0  0  0  0  0
    7.1608  -16.0624   21.3775 O   0  0  0  0  0  0  0  0  0  0  0  0
   11.6963  -22.4790   25.0637 O   0  0  0  0  0  0  0  0  0  0  0  0
   11.4757  -21.3076   24.3650 C   0  0  0  0  0  0  0  0  0  0  0  0
   12.3080  -20.2213   24.4971 C   0  0  0  0  0  0  0  0  0  0  0  0
   12.0330  -19.0921   23.7769 C   0  0  0  0  0  0  0  0  0  0  0  0
   10.9567  -18.9654   22.9098 C   0  0  0  0  0  0  0  0  0  0  0  0
   10.6346  -17.7686   22.1586 C   0  0  0  0  0  0  0  0  0  0  0  0
    9.5455  -16.8919   22.5917 C   0  0  2  0  0  0  0  0  0  0  0  0
    9.4473  -15.8349   21.5705 N   0  0  0  0  0  0  0  0  0  0  0  0
    9.6520  -16.2425   23.9122 C   0  0  0  0  0  0  0  0  0  0  0  0
   10.4083  -15.2311   24.0932 O   0  0  0  0  0  0  0  0  0  0  0  0
   10.1388  -20.0719   22.7976 C   0  0  0  0  0  0  0  0  0  0  0  0
   10.3952  -21.2391   23.5211 C   0  0  0  0  0  0  0  0  0  0  0  0
    8.9533  -16.6464   25.0821 N   0  0  0  0  0  0  0  0  0  0  0  0
    9.2745  -16.0945   26.4131 C   0  0  1  0  0  0  0  0  0  0  0  0
    8.0028  -15.6267   27.0707 C   0  0  0  0  0  0  0  0  0  0  0  0
    7.4683  -14.3736   26.5243 C   0  0  0  0  0  0  0  0  0  0  0  0
    6.3120  -14.3067   25.7685 C   0  0  0  0  0  0  0  0  0  0  0  0
    5.8554  -13.1011   25.2867 C   0  0  0  0  0  0  0  0  0  0  0  0
    6.4980  -11.9082   25.5153 C   0  0  0  0  0  0  0  0  0  0  0  0
    7.6514  -11.9593   26.2665 C   0  0  0  0  0  0  0  0  0  0  0  0
    8.1211  -13.1552   26.7554 C   0  0  0  0  0  0  0  0  0  0  0  0
    9.9224  -17.1068   27.2746 C   0  0  0  0  0  0  0  0  0  0  0  0
    9.9571  -18.3372   26.9659 O   0  0  0  0  0  0  0  0  0  0  0  0
   10.5245  -16.7549   28.4603 O   0  0  0  0  0  0  0  0  0  0  0  0
  2  1  1  6
  2  3  1  0
  3  4  1  0
  5  6  2  0
  5  2  1  0
  8  7  1  0
  9  8  2  0
 10  9  1  0
 11 10  2  0
 11 17  1  0
 12 11  1  0
 13 14  1  0
 13 12  1  6
 14  5  1  0
 15 13  1  0
 16 15  2  0
 17 18  2  0
 18  8  1  0
 19 15  1  0
 20 19  1  0
 20 21  1  1
 22 21  1  0
 23 22  2  0
 24 23  1  0
 25 24  2  0
 25 26  1  0
 26 27  2  0
 27 22  1  0
 28 20  1  0
 28 30  1  0
 29 28  2  0
M  END
$$$$
