CYF.pdb
     RDKit          3D

 30 31  0  0  1  0  0  0  0  0999 V2000
    6.3387  -19.4663   20.9065 N   0  0  0  0  0  0  0  0  0  0  0  0
    6.1357  -18.2348   21.5983 C   0  0  1  0  0  0  0  0  0  0  0  0
    5.4056  -18.3818   22.9036 C   0  0  0  0  0  0  0  0  0  0  0  0
    6.5670  -18.8084   24.2202 S   0  0  0  0  0  0  0  0  0  0  0  0
    7.4496  -17.5552   21.9173 C   0  0  0  0  0  0  0  0  0  0  0  0
    8.5233  -18.2028   21.8634 O   0  0  0  0  0  0  0  0  0  0  0  0
    7.7992  -13.2611   16.4473 O   0  0  0  0  0  0  0  0  0  0  0  0
    7.9426  -13.4769   17.8044 C   0  0  0  0  0  0  0  0  0  0  0  0
    6.8605  -13.4811   18.6524 C   0  0  0  0  0  0  0  0  0  0  0  0
    7.0718  -13.7009   19.9853 C   0  0  0  0  0  0  0  0  0  0  0  0
    8.3206  -13.9230   20.5487 C   0  0  0  0  0  0  0  0  0  0  0  0
    8.5668  -14.1314   21.9616 C   0  0  0  0  0  0  0  0  0  0  0  0
    8.7616  -15.4828   22.4889 C   0  0  2  0  0  0  0  0  0  0  0  0
    7.4847  -16.1865   22.2789 N   0  0  0  0  0  0  0  0  0  0  0  0
    9.1381  -15.6337   23.9075 C   0  0  0  0  0  0  0  0  0  0  0  0
   10.2879  -15.2759   24.3287 O   0  0  0  0  0  0  0  0  0  0  0  0
    9.3879  -13.9130   19.6731 C   0  0  0  0  0  0  0  0  0  0  0  0
    9.2022  -13.6912   18.3064 C   0  0  0  0  0  0  0  0  0  0  0  0
    8.3007  -16.1665   24.9248 N   0  0  0  0  0  0  0  0  0  0  0  0
    8.7319  -16.2351   26.3349 C   0  0  1  0  0  0  0  0  0  0  0  0
    7.6056  -15.7630   27.2164 C   0  0  0  0  0  0  0  0  0  0  0  0
    7.3277  -14.3250   27.1197 C   0  0  0  0  0  0  0  0  0  0  0  0
    8.2362  -13.3494   27.4879 C   0  0  0  0  0  0  0  0  0  0  0  0
    7.9217  -12.0148   27.3697 C   0  0  0  0  0  0  0  0  0  0  0  0
    6.7144  -11.5665   26.8904 C   0  0  0  0  0  0  0  0  0  0  0  0
    5.7992  -12.5270   26.5199 C   0  0  0  0  0  0  0  0  0  0  0  0
    6.0975  -13.8643   26.6314 C   0  0  0  0  0  0  0  0  0  0  0  0
    9.1034  -17.6139   26.7188 C   0  0  0  0  0  0  0  0  0  0  0  0
    8.9765  -18.5959   25.9250 O   0  0  0  0  0  0  0  0  0  0  0  0
    9.6108  -17.8954   27.9661 O   0  0  0  0  0  0  0  0  0  0  0  0
  2  1  1  1
  2  3  1  0
  3  4  1  0
  5  6  2  0
  5  2  1  0
  8  7  1  0
  9  8  2  0
 10  9  1  0
 11 10  2  0
 11 17  1  0
 12 11  1  0
 13 14  1  0
 13 12  1  1
 14  5  1  0
 15 13  1  0
 16 15  2  0
 17 18  2  0
 18  8  1  0
 19 15  1  0
 20 19  1  0
 20 21  1  1
 22 21  1  0
 23 22  2  0
 24 23  1  0
 25 24  2  0
 25 26  1  0
 26 27  2  0
 27 22  1  0
 28 20  1  0
 28 30  1  0
 29 28  2  0
M  END
$$$$
