CYF.pdb
     RDKit          3D

 30 31  0  0  1  0  0  0  0  0999 V2000
    7.0906  -15.8226   18.8730 N   0  0  0  0  0  0  0  0  0  0  0  0
    7.7704  -15.1511   19.9330 C   0  0  1  0  0  0  0  0  0  0  0  0
    7.5116  -13.6715   19.9827 C   0  0  0  0  0  0  0  0  0  0  0  0
    8.4438  -12.8339   18.6814 S   0  0  0  0  0  0  0  0  0  0  0  0
    7.3696  -15.7011   21.2846 C   0  0  0  0  0  0  0  0  0  0  0  0
    6.2130  -15.5003   21.7287 O   0  0  0  0  0  0  0  0  0  0  0  0
    7.3228  -22.1844   27.3506 O   0  0  0  0  0  0  0  0  0  0  0  0
    7.4686  -21.2785   26.3176 C   0  0  0  0  0  0  0  0  0  0  0  0
    6.3826  -20.7730   25.6428 C   0  0  0  0  0  0  0  0  0  0  0  0
    6.5965  -19.8798   24.6300 C   0  0  0  0  0  0  0  0  0  0  0  0
    7.8518  -19.4423   24.2308 C   0  0  0  0  0  0  0  0  0  0  0  0
    8.0994  -18.5170   23.1433 C   0  0  0  0  0  0  0  0  0  0  0  0
    7.8838  -17.0811   23.3277 C   0  0  2  0  0  0  0  0  0  0  0  0
    8.2895  -16.4458   22.0621 N   0  0  0  0  0  0  0  0  0  0  0  0
    8.5942  -16.4016   24.4279 C   0  0  0  0  0  0  0  0  0  0  0  0
    9.8130  -16.0442   24.3077 O   0  0  0  0  0  0  0  0  0  0  0  0
    8.9229  -19.9668   24.9263 C   0  0  0  0  0  0  0  0  0  0  0  0
    8.7345  -20.8811   25.9656 C   0  0  0  0  0  0  0  0  0  0  0  0
    8.0286  -16.0767   25.6906 N   0  0  0  0  0  0  0  0  0  0  0  0
    8.8581  -15.6232   26.8245 C   0  0  1  0  0  0  0  0  0  0  0  0
    8.0072  -14.8030   27.7582 C   0  0  0  0  0  0  0  0  0  0  0  0
    7.5643  -13.5203   27.1989 C   0  0  0  0  0  0  0  0  0  0  0  0
    8.4361  -12.5184   26.8130 C   0  0  0  0  0  0  0  0  0  0  0  0
    7.9625  -11.3372   26.2892 C   0  0  0  0  0  0  0  0  0  0  0  0
    6.6249  -11.0743   26.1162 C   0  0  0  0  0  0  0  0  0  0  0  0
    5.7445  -12.0630   26.4963 C   0  0  0  0  0  0  0  0  0  0  0  0
    6.2009  -13.2488   27.0212 C   0  0  0  0  0  0  0  0  0  0  0  0
    9.4287  -16.7676   27.5668 C   0  0  0  0  0  0  0  0  0  0  0  0
    8.9923  -17.9512   27.4277 O   0  0  0  0  0  0  0  0  0  0  0  0
   10.4708  -16.5981   28.4487 O   0  0  0  0  0  0  0  0  0  0  0  0
  2  1  1  6
  2  3  1  0
  3  4  1  0
  5  6  2  0
  5  2  1  0
  8  7  1  0
  9  8  2  0
 10  9  1  0
 11 10  2  0
 11 17  1  0
 12 11  1  0
 13 14  1  0
 13 12  1  6
 14  5  1  0
 15 13  1  0
 16 15  2  0
 17 18  2  0
 18  8  1  0
 19 15  1  0
 20 19  1  0
 20 21  1  1
 22 21  1  0
 23 22  2  0
 24 23  1  0
 25 24  2  0
 25 26  1  0
 26 27  2  0
 27 22  1  0
 28 20  1  0
 28 30  1  0
 29 28  2  0
M  END
$$$$
