PAV.pdb
     RDKit          3D

 20 20  0  0  1  0  0  0  0  0999 V2000
   26.4665  -20.2667  -15.3432 N   0  0  0  0  0  0  0  0  0  0  0  0
   27.5760  -20.5582  -16.2111 C   0  0  0  0  0  0  0  0  0  0  0  0
   28.1821  -21.8642  -15.6808 C   0  0  0  0  0  0  0  0  0  0  0  0
   27.9796  -21.6497  -14.1749 C   0  0  0  0  0  0  0  0  0  0  0  0
   26.5803  -21.0674  -14.1700 C   0  0  1  0  0  0  0  0  0  0  0  0
   26.2948  -20.3376  -12.9198 C   0  0  0  0  0  0  0  0  0  0  0  0
   26.7263  -19.1913  -12.6829 O   0  0  0  0  0  0  0  0  0  0  0  0
   23.6335  -20.4279  -10.4319 C   0  0  0  0  0  0  0  0  0  0  0  0
   25.1277  -20.3072  -10.6906 C   0  0  2  0  0  0  0  0  0  0  0  0
   25.4924  -20.9594  -11.9329 N   0  0  0  0  0  0  0  0  0  0  0  0
   25.8976  -20.8321   -9.5429 C   0  0  0  0  0  0  0  0  0  0  0  0
   26.1812  -22.0559   -9.5320 O   0  0  0  0  0  0  0  0  0  0  0  0
   27.4339  -18.2518   -6.4033 C   0  0  0  0  0  0  0  0  0  0  0  0
   28.1380  -19.4952   -6.8925 C   0  0  1  0  0  0  0  0  0  0  0  0
   29.0714  -20.0246   -5.8563 C   0  0  0  0  0  0  0  0  0  0  0  0
   27.1418  -20.5344   -7.3641 C   0  0  2  0  0  0  0  0  0  0  0  0
   26.3332  -20.0397   -8.4581 N   0  0  0  0  0  0  0  0  0  0  0  0
   26.2411  -20.9687   -6.2796 C   0  0  0  0  0  0  0  0  0  0  0  0
   26.7610  -21.6521   -5.1981 O   0  0  0  0  0  0  0  0  0  0  0  0
   25.0047  -20.7472   -6.2855 O   0  0  0  0  0  0  0  0  0  0  0  0
  1  2  1  0
  3  2  1  0
  4  3  1  0
  5  4  1  0
  5  6  1  1
  5  1  1  0
  6 10  1  0
  7  6  2  0
  9 11  1  0
  9 10  1  0
  9  8  1  1
 11 17  1  0
 12 11  2  0
 14 13  1  1
 14 15  1  0
 16 14  1  0
 16 17  1  6
 18 16  1  0
 19 18  1  0
 20 18  2  0
M  END
$$$$
