PAV.pdb
     RDKit          3D

 20 20  0  0  1  0  0  0  0  0999 V2000
   24.4758  -20.6688  -16.5903 N   0  0  0  0  0  0  0  0  0  0  0  0
   23.4337  -19.8545  -17.1563 C   0  0  0  0  0  0  0  0  0  0  0  0
   23.8769  -18.4029  -16.9312 C   0  0  0  0  0  0  0  0  0  0  0  0
   24.5483  -18.5479  -15.5590 C   0  0  0  0  0  0  0  0  0  0  0  0
   25.2954  -19.8513  -15.7594 C   0  0  1  0  0  0  0  0  0  0  0  0
   25.6557  -20.4796  -14.4739 C   0  0  0  0  0  0  0  0  0  0  0  0
   24.8151  -20.9639  -13.6896 O   0  0  0  0  0  0  0  0  0  0  0  0
   28.9803  -21.2102  -12.7969 C   0  0  0  0  0  0  0  0  0  0  0  0
   27.4650  -21.0795  -12.8311 C   0  0  2  0  0  0  0  0  0  0  0  0
   27.0203  -20.5416  -14.1017 N   0  0  0  0  0  0  0  0  0  0  0  0
   26.9876  -20.2703  -11.6897 C   0  0  0  0  0  0  0  0  0  0  0  0
   26.9092  -19.0256  -11.8400 O   0  0  0  0  0  0  0  0  0  0  0  0
   23.8073  -20.1200  -10.0717 C   0  0  0  0  0  0  0  0  0  0  0  0
   24.7529  -20.3483   -8.9163 C   0  0  1  0  0  0  0  0  0  0  0  0
   24.6091  -21.7296   -8.3718 C   0  0  0  0  0  0  0  0  0  0  0  0
   26.1795  -20.0228   -9.3086 C   0  0  2  0  0  0  0  0  0  0  0  0
   26.6146  -20.8133  -10.4406 N   0  0  0  0  0  0  0  0  0  0  0  0
   27.1228  -20.2447   -8.1965 C   0  0  0  0  0  0  0  0  0  0  0  0
   28.0537  -21.2605   -8.2883 O   0  0  0  0  0  0  0  0  0  0  0  0
   27.1262  -19.5479   -7.1513 O   0  0  0  0  0  0  0  0  0  0  0  0
  1  2  1  0
  3  2  1  0
  4  3  1  0
  5  4  1  0
  5  6  1  1
  5  1  1  0
  6 10  1  0
  7  6  2  0
  9 11  1  0
  9 10  1  0
  9  8  1  6
 11 17  1  0
 12 11  2  0
 14 13  1  6
 14 15  1  0
 16 14  1  0
 16 17  1  6
 18 16  1  0
 19 18  1  0
 20 18  2  0
M  END
$$$$
