PAV.pdb
     RDKit          3D

 20 20  0  0  1  0  0  0  0  0999 V2000
   26.5029  -19.4855   -7.0207 N   0  0  0  0  0  0  0  0  0  0  0  0
   27.1542  -19.7744   -5.7710 C   0  0  0  0  0  0  0  0  0  0  0  0
   28.6314  -19.4185   -5.9842 C   0  0  0  0  0  0  0  0  0  0  0  0
   28.7940  -19.8564   -7.4459 C   0  0  0  0  0  0  0  0  0  0  0  0
   27.4967  -19.3347   -8.0308 C   0  0  1  0  0  0  0  0  0  0  0  0
   27.1608  -20.0035   -9.3024 C   0  0  0  0  0  0  0  0  0  0  0  0
   27.9870  -20.1845  -10.2193 O   0  0  0  0  0  0  0  0  0  0  0  0
   24.7395  -22.4475  -10.4308 C   0  0  0  0  0  0  0  0  0  0  0  0
   25.4088  -21.1139  -10.7271 C   0  0  2  0  0  0  0  0  0  0  0  0
   25.8382  -20.4669   -9.5028 N   0  0  0  0  0  0  0  0  0  0  0  0
   24.5138  -20.2496  -11.5255 C   0  0  0  0  0  0  0  0  0  0  0  0
   23.8176  -19.3987  -10.9178 O   0  0  0  0  0  0  0  0  0  0  0  0
   23.2261  -18.3370  -15.9288 C   0  0  0  0  0  0  0  0  0  0  0  0
   24.1062  -19.2597  -15.1193 C   0  0  1  0  0  0  0  0  0  0  0  0
   25.5202  -18.7849  -15.1165 C   0  0  0  0  0  0  0  0  0  0  0  0
   23.5535  -19.4510  -13.7218 C   0  0  2  0  0  0  0  0  0  0  0  0
   24.3949  -20.3237  -12.9308 N   0  0  0  0  0  0  0  0  0  0  0  0
   22.1890  -20.0110  -13.7391 C   0  0  0  0  0  0  0  0  0  0  0  0
   21.1046  -19.1594  -13.6616 O   0  0  0  0  0  0  0  0  0  0  0  0
   21.9544  -21.2422  -13.8220 O   0  0  0  0  0  0  0  0  0  0  0  0
  1  2  1  0
  3  2  1  0
  4  3  1  0
  5  4  1  0
  5  6  1  6
  5  1  1  0
  6 10  1  0
  7  6  2  0
  9 11  1  0
  9 10  1  0
  9  8  1  1
 11 17  1  0
 12 11  2  0
 14 13  1  1
 14 15  1  0
 16 14  1  0
 16 17  1  1
 18 16  1  0
 19 18  1  0
 20 18  2  0
M  END
$$$$
