PAV.pdb
     RDKit          3D

 20 20  0  0  1  0  0  0  0  0999 V2000
   17.9530  -11.6998  -15.0032 N   0  0  0  0  0  0  0  0  0  0  0  0
   17.4473  -12.8532  -15.6984 C   0  0  0  0  0  0  0  0  0  0  0  0
   18.5424  -13.2439  -16.6996 C   0  0  0  0  0  0  0  0  0  0  0  0
   19.0458  -11.8476  -17.0892 C   0  0  0  0  0  0  0  0  0  0  0  0
   19.0611  -11.1764  -15.7303 C   0  0  1  0  0  0  0  0  0  0  0  0
   19.0574   -9.7053  -15.8457 C   0  0  0  0  0  0  0  0  0  0  0  0
   19.9550   -9.0624  -16.4263 O   0  0  0  0  0  0  0  0  0  0  0  0
   16.5504   -7.0437  -14.8383 C   0  0  0  0  0  0  0  0  0  0  0  0
   17.9135   -7.5296  -15.3072 C   0  0  2  0  0  0  0  0  0  0  0  0
   17.9871   -8.9771  -15.2727 N   0  0  0  0  0  0  0  0  0  0  0  0
   18.9904   -6.9015  -14.5126 C   0  0  0  0  0  0  0  0  0  0  0  0
   19.2259   -7.3628  -13.3681 O   0  0  0  0  0  0  0  0  0  0  0  0
   21.9909   -4.7073  -16.4285 C   0  0  0  0  0  0  0  0  0  0  0  0
   22.1780   -5.3766  -15.0875 C   0  0  1  0  0  0  0  0  0  0  0  0
   23.3728   -4.8322  -14.3795 C   0  0  0  0  0  0  0  0  0  0  0  0
   20.9162   -5.2866  -14.2540 C   0  0  2  0  0  0  0  0  0  0  0  0
   19.7700   -5.8138  -14.9637 N   0  0  0  0  0  0  0  0  0  0  0  0
   20.6169   -3.8990  -13.8528 C   0  0  0  0  0  0  0  0  0  0  0  0
   19.5776   -3.2250  -14.4633 O   0  0  0  0  0  0  0  0  0  0  0  0
   21.2669   -3.2853  -12.9703 O   0  0  0  0  0  0  0  0  0  0  0  0
  1  2  1  0
  3  2  1  0
  4  3  1  0
  5  4  1  0
  5  6  1  6
  5  1  1  0
  6 10  1  0
  7  6  2  0
  9 11  1  0
  9 10  1  0
  9  8  1  1
 11 17  1  0
 12 11  2  0
 14 13  1  6
 14 15  1  0
 16 14  1  0
 16 17  1  6
 18 16  1  0
 19 18  1  0
 20 18  2  0
M  END
$$$$
