PAV.pdb
     RDKit          3D

 20 20  0  0  1  0  0  0  0  0999 V2000
   27.5395  -19.1064  -18.0386 N   0  0  0  0  0  0  0  0  0  0  0  0
   26.7852  -18.2336  -18.8979 C   0  0  0  0  0  0  0  0  0  0  0  0
   26.7517  -16.8774  -18.1809 C   0  0  0  0  0  0  0  0  0  0  0  0
   26.6537  -17.3568  -16.7265 C   0  0  0  0  0  0  0  0  0  0  0  0
   27.6448  -18.5033  -16.7519 C   0  0  1  0  0  0  0  0  0  0  0  0
   27.4265  -19.4412  -15.6339 C   0  0  0  0  0  0  0  0  0  0  0  0
   26.4288  -20.1853  -15.5500 O   0  0  0  0  0  0  0  0  0  0  0  0
   29.5115  -20.3958  -12.6127 C   0  0  0  0  0  0  0  0  0  0  0  0
   28.2257  -20.3403  -13.4236 C   0  0  2  0  0  0  0  0  0  0  0  0
   28.3907  -19.5084  -14.5995 N   0  0  0  0  0  0  0  0  0  0  0  0
   27.0986  -19.8890  -12.5800 C   0  0  0  0  0  0  0  0  0  0  0  0
   26.9294  -18.6531  -12.4320 O   0  0  0  0  0  0  0  0  0  0  0  0
   23.5542  -20.0422  -13.0061 C   0  0  0  0  0  0  0  0  0  0  0  0
   23.7656  -20.7022  -11.6641 C   0  0  1  0  0  0  0  0  0  0  0  0
   23.5698  -22.1781  -11.7566 C   0  0  0  0  0  0  0  0  0  0  0  0
   25.1131  -20.3292  -11.0808 C   0  0  2  0  0  0  0  0  0  0  0  0
   26.2008  -20.7648  -11.9308 N   0  0  0  0  0  0  0  0  0  0  0  0
   25.3127  -20.9060   -9.7379 C   0  0  0  0  0  0  0  0  0  0  0  0
   24.5909  -20.4082   -8.6711 O   0  0  0  0  0  0  0  0  0  0  0  0
   26.1177  -21.8422   -9.5069 O   0  0  0  0  0  0  0  0  0  0  0  0
  1  2  1  0
  3  2  1  0
  4  3  1  0
  5  4  1  0
  5  6  1  1
  5  1  1  0
  6 10  1  0
  7  6  2  0
  9 11  1  0
  9 10  1  0
  9  8  1  1
 11 17  1  0
 12 11  2  0
 14 13  1  6
 14 15  1  0
 16 14  1  0
 16 17  1  6
 18 16  1  0
 19 18  1  0
 20 18  2  0
M  END
$$$$
