PAV.pdb
     RDKit          3D

 20 20  0  0  1  0  0  0  0  0999 V2000
   27.8799  -22.6162  -16.0649 N   0  0  0  0  0  0  0  0  0  0  0  0
   26.7446  -22.2968  -16.8886 C   0  0  0  0  0  0  0  0  0  0  0  0
   26.5404  -23.5148  -17.7991 C   0  0  0  0  0  0  0  0  0  0  0  0
   28.0045  -23.9093  -18.0346 C   0  0  0  0  0  0  0  0  0  0  0  0
   28.5616  -23.7293  -16.6365 C   0  0  1  0  0  0  0  0  0  0  0  0
   30.0304  -23.5883  -16.6460 C   0  0  0  0  0  0  0  0  0  0  0  0
   30.6131  -22.5144  -16.8977 O   0  0  0  0  0  0  0  0  0  0  0  0
   32.8511  -25.7139  -15.4006 C   0  0  0  0  0  0  0  0  0  0  0  0
   32.2773  -24.6856  -16.3637 C   0  0  2  0  0  0  0  0  0  0  0  0
   30.8280  -24.7215  -16.3564 N   0  0  0  0  0  0  0  0  0  0  0  0
   32.8291  -24.8807  -17.7212 C   0  0  0  0  0  0  0  0  0  0  0  0
   32.1161  -25.4728  -18.5692 O   0  0  0  0  0  0  0  0  0  0  0  0
   36.7804  -23.4750  -18.8365 C   0  0  0  0  0  0  0  0  0  0  0  0
   35.5940  -23.3956  -19.7678 C   0  0  1  0  0  0  0  0  0  0  0  0
   36.0328  -23.3733  -21.1932 C   0  0  0  0  0  0  0  0  0  0  0  0
   34.6025  -24.5046  -19.4812 C   0  0  2  0  0  0  0  0  0  0  0  0
   34.1101  -24.4410  -18.1214 N   0  0  0  0  0  0  0  0  0  0  0  0
   35.1885  -25.8402  -19.7015 C   0  0  0  0  0  0  0  0  0  0  0  0
   35.0914  -26.4270  -20.9479 O   0  0  0  0  0  0  0  0  0  0  0  0
   35.7817  -26.4853  -18.8017 O   0  0  0  0  0  0  0  0  0  0  0  0
  1  2  1  0
  3  2  1  0
  4  3  1  0
  5  4  1  0
  5  6  1  6
  5  1  1  0
  6 10  1  0
  7  6  2  0
  9 11  1  0
  9 10  1  0
  9  8  1  1
 11 17  1  0
 12 11  2  0
 14 13  1  1
 14 15  1  0
 16 14  1  0
 16 17  1  1
 18 16  1  0
 19 18  1  0
 20 18  2  0
M  END
$$$$
