PAV.pdb
     RDKit          3D

 20 20  0  0  1  0  0  0  0  0999 V2000
   17.7778  -11.9757  -15.0333 N   0  0  0  0  0  0  0  0  0  0  0  0
   17.1361  -13.0366  -15.7627 C   0  0  0  0  0  0  0  0  0  0  0  0
   18.1582  -13.4917  -16.8127 C   0  0  0  0  0  0  0  0  0  0  0  0
   18.7956  -12.1386  -17.1557 C   0  0  0  0  0  0  0  0  0  0  0  0
   18.9159  -11.5368  -15.7698 C   0  0  1  0  0  0  0  0  0  0  0  0
   19.0640  -10.0696  -15.8205 C   0  0  0  0  0  0  0  0  0  0  0  0
   19.9502   -9.4938  -16.4833 O   0  0  0  0  0  0  0  0  0  0  0  0
   16.8553   -7.2498  -14.6113 C   0  0  0  0  0  0  0  0  0  0  0  0
   18.1549   -7.8176  -15.1613 C   0  0  2  0  0  0  0  0  0  0  0  0
   18.1611   -9.2653  -15.0842 N   0  0  0  0  0  0  0  0  0  0  0  0
   19.3167   -7.2214  -14.4681 C   0  0  0  0  0  0  0  0  0  0  0  0
   19.7012   -7.7520  -13.3964 O   0  0  0  0  0  0  0  0  0  0  0  0
   21.9518   -4.7473  -16.6358 C   0  0  0  0  0  0  0  0  0  0  0  0
   22.3643   -5.6157  -15.4710 C   0  0  1  0  0  0  0  0  0  0  0  0
   23.6920   -5.1972  -14.9350 C   0  0  0  0  0  0  0  0  0  0  0  0
   21.2884   -5.6427  -14.4049 C   0  0  2  0  0  0  0  0  0  0  0  0
   20.0198   -6.0909  -14.9392 N   0  0  0  0  0  0  0  0  0  0  0  0
   21.0904   -4.3185  -13.7859 C   0  0  0  0  0  0  0  0  0  0  0  0
   21.9820   -3.8764  -12.8286 O   0  0  0  0  0  0  0  0  0  0  0  0
   20.1381   -3.5567  -14.0870 O   0  0  0  0  0  0  0  0  0  0  0  0
  1  2  1  0
  3  2  1  0
  4  3  1  0
  5  4  1  0
  5  6  1  6
  5  1  1  0
  6 10  1  0
  7  6  2  0
  9 11  1  0
  9 10  1  0
  9  8  1  1
 11 17  1  0
 12 11  2  0
 14 13  1  6
 14 15  1  0
 16 14  1  0
 16 17  1  6
 18 16  1  0
 19 18  1  0
 20 18  2  0
M  END
$$$$
