PAV.pdb
     RDKit          3D

 20 20  0  0  1  0  0  0  0  0999 V2000
   27.9424  -19.4953  -17.1562 N   0  0  0  0  0  0  0  0  0  0  0  0
   28.9861  -19.0689  -18.0496 C   0  0  0  0  0  0  0  0  0  0  0  0
   29.5254  -17.7598  -17.4584 C   0  0  0  0  0  0  0  0  0  0  0  0
   28.2193  -17.1645  -16.9156 C   0  0  0  0  0  0  0  0  0  0  0  0
   27.5871  -18.4032  -16.3127 C   0  0  1  0  0  0  0  0  0  0  0  0
   26.1322  -18.2411  -16.1278 C   0  0  0  0  0  0  0  0  0  0  0  0
   25.6277  -17.3409  -15.4269 O   0  0  0  0  0  0  0  0  0  0  0  0
   23.1526  -19.3835  -18.0025 C   0  0  0  0  0  0  0  0  0  0  0  0
   23.8127  -19.0503  -16.6731 C   0  0  2  0  0  0  0  0  0  0  0  0
   25.2558  -19.1465  -16.7731 N   0  0  0  0  0  0  0  0  0  0  0  0
   23.2740  -19.9082  -15.5963 C   0  0  0  0  0  0  0  0  0  0  0  0
   22.0397  -20.1416  -15.5888 O   0  0  0  0  0  0  0  0  0  0  0  0
   25.4974  -22.8672  -13.8628 C   0  0  0  0  0  0  0  0  0  0  0  0
   24.6558  -22.1217  -12.8543 C   0  0  1  0  0  0  0  0  0  0  0  0
   25.5044  -21.2594  -11.9817 C   0  0  0  0  0  0  0  0  0  0  0  0
   23.5476  -21.3469  -13.5374 C   0  0  2  0  0  0  0  0  0  0  0  0
   24.0646  -20.4808  -14.5757 N   0  0  0  0  0  0  0  0  0  0  0  0
   22.7805  -20.5231  -12.5840 C   0  0  0  0  0  0  0  0  0  0  0  0
   21.8452  -21.1254  -11.7657 O   0  0  0  0  0  0  0  0  0  0  0  0
   22.9336  -19.2813  -12.4733 O   0  0  0  0  0  0  0  0  0  0  0  0
  1  2  1  0
  3  2  1  0
  4  3  1  0
  5  4  1  0
  5  6  1  6
  5  1  1  0
  6 10  1  0
  7  6  2  0
  9 11  1  0
  9 10  1  0
  9  8  1  6
 11 17  1  0
 12 11  2  0
 14 13  1  6
 14 15  1  0
 16 14  1  0
 16 17  1  6
 18 16  1  0
 19 18  1  0
 20 18  2  0
M  END
$$$$
