PAV.pdb
     RDKit          3D

 20 20  0  0  1  0  0  0  0  0999 V2000
   17.3740  -14.8353  -17.0059 N   0  0  0  0  0  0  0  0  0  0  0  0
   16.9255  -15.8964  -17.8675 C   0  0  0  0  0  0  0  0  0  0  0  0
   18.1449  -16.8051  -18.0713 C   0  0  0  0  0  0  0  0  0  0  0  0
   19.2540  -15.7451  -18.1037 C   0  0  0  0  0  0  0  0  0  0  0  0
   18.7986  -14.8421  -16.9748 C   0  0  1  0  0  0  0  0  0  0  0  0
   19.4035  -13.4995  -17.0690 C   0  0  0  0  0  0  0  0  0  0  0  0
   20.6330  -13.2974  -17.0096 O   0  0  0  0  0  0  0  0  0  0  0  0
   17.9878  -10.0993  -17.9257 C   0  0  0  0  0  0  0  0  0  0  0  0
   19.0597  -11.0250  -17.3705 C   0  0  2  0  0  0  0  0  0  0  0  0
   18.5560  -12.3777  -17.2352 N   0  0  0  0  0  0  0  0  0  0  0  0
   19.5881  -10.5007  -16.0933 C   0  0  0  0  0  0  0  0  0  0  0  0
   18.9696  -10.7843  -15.0373 O   0  0  0  0  0  0  0  0  0  0  0  0
   22.8631  -11.2566  -14.6154 C   0  0  0  0  0  0  0  0  0  0  0  0
   22.7768   -9.7487  -14.6179 C   0  0  1  0  0  0  0  0  0  0  0  0
   23.6547   -9.1640  -15.6727 C   0  0  0  0  0  0  0  0  0  0  0  0
   21.3389   -9.2865  -14.7352 C   0  0  2  0  0  0  0  0  0  0  0  0
   20.7468   -9.7000  -15.9898 N   0  0  0  0  0  0  0  0  0  0  0  0
   21.2190   -7.8204  -14.6253 C   0  0  0  0  0  0  0  0  0  0  0  0
   21.3402   -7.2202  -13.3875 O   0  0  0  0  0  0  0  0  0  0  0  0
   21.0090   -7.0739  -15.6135 O   0  0  0  0  0  0  0  0  0  0  0  0
  1  2  1  0
  3  2  1  0
  4  3  1  0
  5  4  1  0
  5  6  1  6
  5  1  1  0
  6 10  1  0
  7  6  2  0
  9 11  1  0
  9 10  1  0
  9  8  1  1
 11 17  1  0
 12 11  2  0
 14 13  1  6
 14 15  1  0
 16 14  1  0
 16 17  1  6
 18 16  1  0
 19 18  1  0
 20 18  2  0
M  END
$$$$
