PAV.pdb
     RDKit          3D

 20 20  0  0  1  0  0  0  0  0999 V2000
   22.0890  -11.6327  -18.9124 N   0  0  0  0  0  0  0  0  0  0  0  0
   21.8651  -12.9513  -19.4418 C   0  0  0  0  0  0  0  0  0  0  0  0
   20.3437  -13.0823  -19.5919 C   0  0  0  0  0  0  0  0  0  0  0  0
   19.8935  -12.2934  -18.3551 C   0  0  0  0  0  0  0  0  0  0  0  0
   20.8544  -11.1228  -18.4160 C   0  0  1  0  0  0  0  0  0  0  0  0
   20.9716  -10.4416  -17.1123 C   0  0  0  0  0  0  0  0  0  0  0  0
   20.0015   -9.9294  -16.5184 O   0  0  0  0  0  0  0  0  0  0  0  0
   23.7335  -10.1833  -14.5619 C   0  0  0  0  0  0  0  0  0  0  0  0
   22.4616   -9.6847  -15.2311 C   0  0  2  0  0  0  0  0  0  0  0  0
   22.2432  -10.3593  -16.4956 N   0  0  0  0  0  0  0  0  0  0  0  0
   22.4986   -8.2150  -15.3870 C   0  0  0  0  0  0  0  0  0  0  0  0
   23.0979   -7.7417  -16.3843 O   0  0  0  0  0  0  0  0  0  0  0  0
   20.1749   -5.8532  -16.4193 C   0  0  0  0  0  0  0  0  0  0  0  0
   20.5643   -5.3386  -15.0537 C   0  0  1  0  0  0  0  0  0  0  0  0
   19.5005   -5.6285  -14.0491 C   0  0  0  0  0  0  0  0  0  0  0  0
   21.9194   -5.8727  -14.6374 C   0  0  2  0  0  0  0  0  0  0  0  0
   21.9001   -7.3117  -14.4813 N   0  0  0  0  0  0  0  0  0  0  0  0
   22.3844   -5.2739  -13.3720 C   0  0  0  0  0  0  0  0  0  0  0  0
   22.4120   -6.0443  -12.2262 O   0  0  0  0  0  0  0  0  0  0  0  0
   22.7635   -4.0801  -13.2773 O   0  0  0  0  0  0  0  0  0  0  0  0
  1  2  1  0
  3  2  1  0
  4  3  1  0
  5  4  1  0
  5  6  1  1
  5  1  1  0
  6 10  1  0
  7  6  2  0
  9 11  1  0
  9 10  1  0
  9  8  1  6
 11 17  1  0
 12 11  2  0
 14 13  1  6
 14 15  1  0
 16 14  1  0
 16 17  1  1
 18 16  1  0
 19 18  1  0
 20 18  2  0
M  END
$$$$
