IEN.pdb
     RDKit          3D

 26 25  0  0  1  0  0  0  0  0999 V2000
    6.7595  -11.7076   20.2249 C   0  0  0  0  0  0  0  0  0  0  0  0
    7.1512  -12.9064   19.4306 C   0  0  0  0  0  0  0  0  0  0  0  0
    8.2771  -13.7236   20.0342 C   0  0  2  0  0  0  0  0  0  0  0  0
    9.4980  -12.8182   20.0354 C   0  0  0  0  0  0  0  0  0  0  0  0
    8.5072  -14.9100   19.1642 C   0  0  2  0  0  0  0  0  0  0  0  0
    7.2641  -15.6299   19.0476 N   0  0  0  0  0  0  0  0  0  0  0  0
    9.6558  -15.7664   19.5641 C   0  0  0  0  0  0  0  0  0  0  0  0
    9.4591  -16.6882   20.3935 O   0  0  0  0  0  0  0  0  0  0  0  0
   10.9565  -15.5795   19.0447 N   0  0  0  0  0  0  0  0  0  0  0  0
   12.1546  -16.2988   19.4759 C   0  0  1  0  0  0  0  0  0  0  0  0
   13.3286  -15.8516   18.6084 C   0  0  0  0  0  0  0  0  0  0  0  0
   14.6359  -16.4656   18.9457 C   0  0  0  0  0  0  0  0  0  0  0  0
   15.6223  -15.9638   17.9387 C   0  0  0  0  0  0  0  0  0  0  0  0
   16.3900  -15.0385   18.2680 O   0  0  0  0  0  0  0  0  0  0  0  0
   12.4523  -16.0968   20.8707 C   0  0  0  0  0  0  0  0  0  0  0  0
   12.0617  -14.9642   21.3711 O   0  0  0  0  0  0  0  0  0  0  0  0
   15.6690  -16.5132   16.6906 O   0  0  0  0  0  0  0  0  0  0  0  0
   10.0146  -16.9407   25.3781 N   0  0  0  0  0  0  0  0  0  0  0  0
   11.0032  -17.7936   24.8419 C   0  0  0  0  0  0  0  0  0  0  0  0
   11.5512  -18.6501   25.5913 O   0  0  0  0  0  0  0  0  0  0  0  0
   11.3747  -17.6684   23.4263 C   0  0  0  0  0  0  0  0  0  0  0  0
   12.7134  -16.9852   23.2073 C   0  0  2  0  0  0  0  0  0  0  0  0
   13.0955  -16.9221   21.8101 N   0  0  0  0  0  0  0  0  0  0  0  0
   13.7170  -17.8117   23.9193 C   0  0  0  0  0  0  0  0  0  0  0  0
   14.1578  -17.5556   25.2075 O   0  0  0  0  0  0  0  0  0  0  0  0
   14.2341  -18.8225   23.3606 O   0  0  0  0  0  0  0  0  0  0  0  0
  2  1  1  0
  3  5  1  0
  3  2  1  0
  3  4  1  6
  5  6  1  1
  7  5  1  0
  7  8  2  0
  9  7  1  0
 10  9  1  0
 10 11  1  6
 12 11  1  0
 12 13  1  0
 13 14  2  0
 15 10  1  0
 16 15  2  0
 17 13  1  0
 18 19  1  0
 19 20  2  0
 19 21  1  0
 22 21  1  6
 22 23  1  0
 22 24  1  0
 23 15  1  0
 24 25  1  0
 26 24  2  0
M  END
$$$$
