IEN.pdb
     RDKit          3D

 26 25  0  0  1  0  0  0  0  0999 V2000
    8.3744  -12.1621   21.3048 C   0  0  0  0  0  0  0  0  0  0  0  0
    8.0281  -13.5832   21.0181 C   0  0  0  0  0  0  0  0  0  0  0  0
    8.2934  -14.0224   19.5911 C   0  0  2  0  0  0  0  0  0  0  0  0
    7.3434  -13.2158   18.7209 C   0  0  0  0  0  0  0  0  0  0  0  0
    7.9886  -15.4764   19.4890 C   0  0  2  0  0  0  0  0  0  0  0  0
    6.6009  -15.6696   19.8264 N   0  0  0  0  0  0  0  0  0  0  0  0
    8.9137  -16.3646   20.2426 C   0  0  0  0  0  0  0  0  0  0  0  0
    8.5757  -16.7527   21.3878 O   0  0  0  0  0  0  0  0  0  0  0  0
   10.1557  -16.7853   19.7164 N   0  0  0  0  0  0  0  0  0  0  0  0
   11.1205  -17.6452   20.4009 C   0  0  1  0  0  0  0  0  0  0  0  0
   12.3039  -17.8873   19.4672 C   0  0  0  0  0  0  0  0  0  0  0  0
   13.3605  -18.7805   20.0017 C   0  0  0  0  0  0  0  0  0  0  0  0
   14.4065  -18.8981   18.9382 C   0  0  0  0  0  0  0  0  0  0  0  0
   15.5234  -18.3837   19.1429 O   0  0  0  0  0  0  0  0  0  0  0  0
   11.5702  -17.0902   21.6518 C   0  0  0  0  0  0  0  0  0  0  0  0
   11.9335  -15.8442   21.6162 O   0  0  0  0  0  0  0  0  0  0  0  0
   14.1309  -19.5539   17.7738 O   0  0  0  0  0  0  0  0  0  0  0  0
    8.8745  -15.1600   25.9900 N   0  0  0  0  0  0  0  0  0  0  0  0
    9.7748  -16.2407   25.8729 C   0  0  0  0  0  0  0  0  0  0  0  0
   10.3728  -16.6597   26.9037 O   0  0  0  0  0  0  0  0  0  0  0  0
    9.9986  -16.8554   24.5577 C   0  0  0  0  0  0  0  0  0  0  0  0
   11.4622  -16.9176   24.1569 C   0  0  2  0  0  0  0  0  0  0  0  0
   11.6831  -17.6610   22.9318 N   0  0  0  0  0  0  0  0  0  0  0  0
   12.1584  -17.6287   25.2555 C   0  0  0  0  0  0  0  0  0  0  0  0
   12.8481  -18.8191   25.0928 O   0  0  0  0  0  0  0  0  0  0  0  0
   12.1515  -17.1629   26.4321 O   0  0  0  0  0  0  0  0  0  0  0  0
  2  1  1  0
  3  5  1  0
  3  2  1  0
  3  4  1  6
  5  6  1  1
  7  5  1  0
  7  8  2  0
  9  7  1  0
 10  9  1  0
 10 11  1  6
 12 11  1  0
 12 13  1  0
 13 14  2  0
 15 10  1  0
 16 15  2  0
 17 13  1  0
 18 19  1  0
 19 20  2  0
 19 21  1  0
 22 21  1  1
 22 23  1  0
 22 24  1  0
 23 15  1  0
 24 25  1  0
 26 24  2  0
M  END
$$$$
