IEN.pdb
     RDKit          3D

 26 25  0  0  1  0  0  0  0  0999 V2000
    6.0828  -11.6049   27.1470 C   0  0  0  0  0  0  0  0  0  0  0  0
    5.8515  -12.8959   26.4388 C   0  0  0  0  0  0  0  0  0  0  0  0
    7.1156  -13.6292   26.0337 C   0  0  2  0  0  0  0  0  0  0  0  0
    7.7810  -12.7644   24.9756 C   0  0  0  0  0  0  0  0  0  0  0  0
    6.7241  -14.9470   25.4612 C   0  0  2  0  0  0  0  0  0  0  0  0
    5.8346  -15.5950   26.3917 N   0  0  0  0  0  0  0  0  0  0  0  0
    7.8602  -15.8040   25.0282 C   0  0  0  0  0  0  0  0  0  0  0  0
    8.5736  -16.3467   25.9073 O   0  0  0  0  0  0  0  0  0  0  0  0
    8.1635  -16.0280   23.6665 N   0  0  0  0  0  0  0  0  0  0  0  0
    9.2962  -16.8056   23.1656 C   0  0  1  0  0  0  0  0  0  0  0  0
    9.0155  -17.1952   21.7164 C   0  0  0  0  0  0  0  0  0  0  0  0
    8.6080  -16.0799   20.8277 C   0  0  0  0  0  0  0  0  0  0  0  0
    8.3454  -16.6744   19.4799 C   0  0  0  0  0  0  0  0  0  0  0  0
    9.2712  -17.2815   18.9069 O   0  0  0  0  0  0  0  0  0  0  0  0
   10.5452  -16.0947   23.2638 C   0  0  0  0  0  0  0  0  0  0  0  0
   10.4539  -14.8369   23.5727 O   0  0  0  0  0  0  0  0  0  0  0  0
    7.1167  -16.5459   18.9005 O   0  0  0  0  0  0  0  0  0  0  0  0
   12.5699  -15.9477   27.8009 N   0  0  0  0  0  0  0  0  0  0  0  0
   12.8429  -15.6453   26.4495 C   0  0  0  0  0  0  0  0  0  0  0  0
   13.2297  -14.4823   26.1438 O   0  0  0  0  0  0  0  0  0  0  0  0
   12.6720  -16.6863   25.4275 C   0  0  0  0  0  0  0  0  0  0  0  0
   12.9417  -16.2005   24.0140 C   0  0  2  0  0  0  0  0  0  0  0  0
   11.8726  -16.5246   23.0897 N   0  0  0  0  0  0  0  0  0  0  0  0
   14.1651  -16.9063   23.5642 C   0  0  0  0  0  0  0  0  0  0  0  0
   15.4303  -16.3421   23.5680 O   0  0  0  0  0  0  0  0  0  0  0  0
   14.1043  -18.0974   23.1408 O   0  0  0  0  0  0  0  0  0  0  0  0
  2  1  1  0
  3  5  1  0
  3  2  1  0
  3  4  1  6
  5  6  1  1
  7  5  1  0
  7  8  2  0
  9  7  1  0
 10  9  1  0
 10 11  1  6
 12 11  1  0
 12 13  1  0
 13 14  2  0
 15 10  1  0
 16 15  2  0
 17 13  1  0
 18 19  1  0
 19 20  2  0
 19 21  1  0
 22 21  1  1
 22 23  1  0
 22 24  1  0
 23 15  1  0
 24 25  1  0
 26 24  2  0
M  END
$$$$
