IEN.pdb
     RDKit          3D

 26 25  0  0  1  0  0  0  0  0999 V2000
    8.4088  -12.1577   27.3080 C   0  0  0  0  0  0  0  0  0  0  0  0
    7.6290  -13.3559   26.8863 C   0  0  0  0  0  0  0  0  0  0  0  0
    7.0129  -13.2541   25.5043 C   0  0  2  0  0  0  0  0  0  0  0  0
    5.9433  -12.1784   25.6005 C   0  0  0  0  0  0  0  0  0  0  0  0
    6.4017  -14.5704   25.1708 C   0  0  2  0  0  0  0  0  0  0  0  0
    5.4329  -14.8873   26.1896 N   0  0  0  0  0  0  0  0  0  0  0  0
    7.3751  -15.6655   24.9137 C   0  0  0  0  0  0  0  0  0  0  0  0
    7.5534  -16.5333   25.8034 O   0  0  0  0  0  0  0  0  0  0  0  0
    8.1037  -15.7630   23.7071 N   0  0  0  0  0  0  0  0  0  0  0  0
    9.1428  -16.7512   23.4199 C   0  0  1  0  0  0  0  0  0  0  0  0
    9.5399  -16.6262   21.9511 C   0  0  0  0  0  0  0  0  0  0  0  0
   10.6133  -17.5470   21.5041 C   0  0  0  0  0  0  0  0  0  0  0  0
   10.8333  -17.2808   20.0482 C   0  0  0  0  0  0  0  0  0  0  0  0
   10.0533  -17.7977   19.2245 O   0  0  0  0  0  0  0  0  0  0  0  0
   10.2975  -16.6062   24.2687 C   0  0  0  0  0  0  0  0  0  0  0  0
   10.3925  -15.4762   24.9012 O   0  0  0  0  0  0  0  0  0  0  0  0
   11.8694  -16.4904   19.6438 O   0  0  0  0  0  0  0  0  0  0  0  0
   10.6262  -20.0830   28.3825 N   0  0  0  0  0  0  0  0  0  0  0  0
   10.8405  -18.7191   28.0890 C   0  0  0  0  0  0  0  0  0  0  0  0
   11.3230  -17.9649   28.9801 O   0  0  0  0  0  0  0  0  0  0  0  0
   10.4987  -18.2046   26.7564 C   0  0  0  0  0  0  0  0  0  0  0  0
   11.7105  -17.9059   25.8909 C   0  0  2  0  0  0  0  0  0  0  0  0
   11.3584  -17.4856   24.5486 N   0  0  0  0  0  0  0  0  0  0  0  0
   12.4652  -19.1776   25.7889 C   0  0  0  0  0  0  0  0  0  0  0  0
   13.7175  -19.3817   26.3451 O   0  0  0  0  0  0  0  0  0  0  0  0
   11.9812  -20.1671   25.1659 O   0  0  0  0  0  0  0  0  0  0  0  0
  2  1  1  0
  3  5  1  0
  3  2  1  0
  3  4  1  1
  5  6  1  1
  7  5  1  0
  7  8  2  0
  9  7  1  0
 10  9  1  0
 10 11  1  6
 12 11  1  0
 12 13  1  0
 13 14  2  0
 15 10  1  0
 16 15  2  0
 17 13  1  0
 18 19  1  0
 19 20  2  0
 19 21  1  0
 22 21  1  1
 22 23  1  0
 22 24  1  0
 23 15  1  0
 24 25  1  0
 26 24  2  0
M  END
$$$$
