IEN.pdb
     RDKit          3D

 26 25  0  0  1  0  0  0  0  0999 V2000
    7.8732  -12.6012   27.9681 C   0  0  0  0  0  0  0  0  0  0  0  0
    7.2032  -13.6860   27.1962 C   0  0  0  0  0  0  0  0  0  0  0  0
    7.1270  -13.4428   25.7012 C   0  0  2  0  0  0  0  0  0  0  0  0
    6.1905  -12.2600   25.5162 C   0  0  0  0  0  0  0  0  0  0  0  0
    6.5611  -14.6625   25.0611 C   0  0  2  0  0  0  0  0  0  0  0  0
    5.3471  -15.0121   25.7547 N   0  0  0  0  0  0  0  0  0  0  0  0
    7.5144  -15.7959   24.9213 C   0  0  0  0  0  0  0  0  0  0  0  0
    7.3388  -16.8202   25.6257 O   0  0  0  0  0  0  0  0  0  0  0  0
    8.6070  -15.7601   24.0262 N   0  0  0  0  0  0  0  0  0  0  0  0
    9.6234  -16.8020   23.8848 C   0  0  1  0  0  0  0  0  0  0  0  0
   10.5435  -16.4293   22.7249 C   0  0  0  0  0  0  0  0  0  0  0  0
    9.9091  -16.4389   21.3843 C   0  0  0  0  0  0  0  0  0  0  0  0
   11.0160  -16.3531   20.3811 C   0  0  0  0  0  0  0  0  0  0  0  0
   11.3773  -15.2263   19.9889 O   0  0  0  0  0  0  0  0  0  0  0  0
   10.3867  -17.0013   25.0901 C   0  0  0  0  0  0  0  0  0  0  0  0
   10.2885  -16.0609   25.9800 O   0  0  0  0  0  0  0  0  0  0  0  0
   11.6069  -17.4900   19.9120 O   0  0  0  0  0  0  0  0  0  0  0  0
    7.7105  -18.9823   27.8423 N   0  0  0  0  0  0  0  0  0  0  0  0
    9.0952  -19.0820   28.0973 C   0  0  0  0  0  0  0  0  0  0  0  0
    9.5360  -18.7703   29.2392 O   0  0  0  0  0  0  0  0  0  0  0  0
    9.9944  -19.5448   27.0320 C   0  0  0  0  0  0  0  0  0  0  0  0
   11.1954  -18.6408   26.8149 C   0  0  2  0  0  0  0  0  0  0  0  0
   11.2300  -18.0530   25.4899 N   0  0  0  0  0  0  0  0  0  0  0  0
   12.3910  -19.5044   26.9637 C   0  0  0  0  0  0  0  0  0  0  0  0
   12.7732  -20.0993   28.1550 O   0  0  0  0  0  0  0  0  0  0  0  0
   13.1420  -19.7430   25.9735 O   0  0  0  0  0  0  0  0  0  0  0  0
  2  1  1  0
  3  5  1  0
  3  2  1  0
  3  4  1  1
  5  6  1  1
  7  5  1  0
  7  8  2  0
  9  7  1  0
 10  9  1  0
 10 11  1  6
 12 11  1  0
 12 13  1  0
 13 14  2  0
 15 10  1  0
 16 15  2  0
 17 13  1  0
 18 19  1  0
 19 20  2  0
 19 21  1  0
 22 21  1  6
 22 23  1  0
 22 24  1  0
 23 15  1  0
 24 25  1  0
 26 24  2  0
M  END
$$$$
