IEN.pdb
     RDKit          3D

 26 25  0  0  1  0  0  0  0  0999 V2000
    7.8686  -11.5380   19.1926 C   0  0  0  0  0  0  0  0  0  0  0  0
    7.4958  -12.9010   19.6668 C   0  0  0  0  0  0  0  0  0  0  0  0
    8.6288  -13.6782   20.3086 C   0  0  2  0  0  0  0  0  0  0  0  0
    9.7165  -13.7828   19.2520 C   0  0  0  0  0  0  0  0  0  0  0  0
    8.1184  -15.0300   20.6687 C   0  0  2  0  0  0  0  0  0  0  0  0
    6.9074  -14.8645   21.4323 N   0  0  0  0  0  0  0  0  0  0  0  0
    9.1148  -15.9228   21.3189 C   0  0  0  0  0  0  0  0  0  0  0  0
    9.3502  -15.7714   22.5428 O   0  0  0  0  0  0  0  0  0  0  0  0
    9.8035  -16.9322   20.6095 N   0  0  0  0  0  0  0  0  0  0  0  0
   10.8590  -17.7845   21.1554 C   0  0  1  0  0  0  0  0  0  0  0  0
   10.4705  -19.2438   20.9307 C   0  0  0  0  0  0  0  0  0  0  0  0
    9.4205  -19.7671   21.8381 C   0  0  0  0  0  0  0  0  0  0  0  0
    9.2022  -21.2000   21.4663 C   0  0  0  0  0  0  0  0  0  0  0  0
    8.4676  -21.8977   22.1927 O   0  0  0  0  0  0  0  0  0  0  0  0
   12.1493  -17.5112   20.5764 C   0  0  0  0  0  0  0  0  0  0  0  0
   12.1839  -17.4566   19.2796 O   0  0  0  0  0  0  0  0  0  0  0  0
    9.8012  -21.7201   20.3561 O   0  0  0  0  0  0  0  0  0  0  0  0
   16.3099  -14.7698   19.4148 N   0  0  0  0  0  0  0  0  0  0  0  0
   14.9632  -14.3517   19.3505 C   0  0  0  0  0  0  0  0  0  0  0  0
   14.6796  -13.2749   18.7541 O   0  0  0  0  0  0  0  0  0  0  0  0
   13.9206  -15.1749   19.9772 C   0  0  0  0  0  0  0  0  0  0  0  0
   14.4412  -16.4798   20.5542 C   0  0  2  0  0  0  0  0  0  0  0  0
   13.4023  -17.2809   21.1715 N   0  0  0  0  0  0  0  0  0  0  0  0
   15.4149  -16.1033   21.6066 C   0  0  0  0  0  0  0  0  0  0  0  0
   15.2115  -16.3133   22.9607 O   0  0  0  0  0  0  0  0  0  0  0  0
   16.5131  -15.5529   21.3026 O   0  0  0  0  0  0  0  0  0  0  0  0
  2  1  1  0
  3  5  1  0
  3  2  1  0
  3  4  1  6
  5  6  1  1
  7  5  1  0
  7  8  2  0
  9  7  1  0
 10  9  1  0
 10 11  1  6
 12 11  1  0
 12 13  1  0
 13 14  2  0
 15 10  1  0
 16 15  2  0
 17 13  1  0
 18 19  1  0
 19 20  2  0
 19 21  1  0
 22 21  1  1
 22 23  1  0
 22 24  1  0
 23 15  1  0
 24 25  1  0
 26 24  2  0
M  END
$$$$
