IEN.pdb
     RDKit          3D

 26 25  0  0  1  0  0  0  0  0999 V2000
    7.6629  -11.4780   19.8946 C   0  0  0  0  0  0  0  0  0  0  0  0
    7.7779  -12.6521   18.9837 C   0  0  0  0  0  0  0  0  0  0  0  0
    8.6834  -13.7582   19.4903 C   0  0  2  0  0  0  0  0  0  0  0  0
   10.0781  -13.1582   19.5620 C   0  0  0  0  0  0  0  0  0  0  0  0
    8.6452  -14.8759   18.5070 C   0  0  2  0  0  0  0  0  0  0  0  0
    7.2717  -15.2775   18.3361 N   0  0  0  0  0  0  0  0  0  0  0  0
    9.5630  -16.0069   18.8088 C   0  0  0  0  0  0  0  0  0  0  0  0
    9.1203  -16.9832   19.4624 O   0  0  0  0  0  0  0  0  0  0  0  0
   10.9114  -16.0210   18.3867 N   0  0  0  0  0  0  0  0  0  0  0  0
   11.8862  -17.0671   18.6931 C   0  0  1  0  0  0  0  0  0  0  0  0
   11.6115  -18.2671   17.7901 C   0  0  0  0  0  0  0  0  0  0  0  0
   11.4003  -17.9470   16.3574 C   0  0  0  0  0  0  0  0  0  0  0  0
   11.2149  -19.2501   15.6456 C   0  0  0  0  0  0  0  0  0  0  0  0
   10.2287  -19.3827   14.8947 O   0  0  0  0  0  0  0  0  0  0  0  0
   13.2472  -16.6210   18.5389 C   0  0  0  0  0  0  0  0  0  0  0  0
   13.4746  -15.8505   17.5189 O   0  0  0  0  0  0  0  0  0  0  0  0
   12.1108  -20.2637   15.8247 O   0  0  0  0  0  0  0  0  0  0  0  0
   17.6532  -14.1796   19.2282 N   0  0  0  0  0  0  0  0  0  0  0  0
   16.4198  -13.7231   18.7155 C   0  0  0  0  0  0  0  0  0  0  0  0
   16.3375  -12.5467   18.2631 O   0  0  0  0  0  0  0  0  0  0  0  0
   15.2589  -14.6230   18.7184 C   0  0  0  0  0  0  0  0  0  0  0  0
   15.5451  -15.9824   19.3322 C   0  0  2  0  0  0  0  0  0  0  0  0
   14.3962  -16.8668   19.3112 N   0  0  0  0  0  0  0  0  0  0  0  0
   15.8997  -15.7266   20.7486 C   0  0  0  0  0  0  0  0  0  0  0  0
   15.1341  -16.1421   21.8258 O   0  0  0  0  0  0  0  0  0  0  0  0
   16.9544  -15.0935   21.0455 O   0  0  0  0  0  0  0  0  0  0  0  0
  2  1  1  0
  3  5  1  0
  3  2  1  0
  3  4  1  6
  5  6  1  1
  7  5  1  0
  7  8  2  0
  9  7  1  0
 10  9  1  0
 10 11  1  6
 12 11  1  0
 12 13  1  0
 13 14  2  0
 15 10  1  0
 16 15  2  0
 17 13  1  0
 18 19  1  0
 19 20  2  0
 19 21  1  0
 22 21  1  1
 22 23  1  0
 22 24  1  0
 23 15  1  0
 24 25  1  0
 26 24  2  0
M  END
$$$$
