IEN.pdb
     RDKit          3D

 26 25  0  0  1  0  0  0  0  0999 V2000
    6.1045  -11.1045   27.0774 C   0  0  0  0  0  0  0  0  0  0  0  0
    5.7452  -12.2481   26.1916 C   0  0  0  0  0  0  0  0  0  0  0  0
    6.7727  -13.3629   26.1516 C   0  0  2  0  0  0  0  0  0  0  0  0
    8.0368  -12.7471   25.5744 C   0  0  0  0  0  0  0  0  0  0  0  0
    6.2582  -14.4359   25.2563 C   0  0  2  0  0  0  0  0  0  0  0  0
    4.9724  -14.8572   25.7524 N   0  0  0  0  0  0  0  0  0  0  0  0
    7.2028  -15.5604   25.0199 C   0  0  0  0  0  0  0  0  0  0  0  0
    7.2342  -16.5040   25.8475 O   0  0  0  0  0  0  0  0  0  0  0  0
    8.0631  -15.6038   23.8999 N   0  0  0  0  0  0  0  0  0  0  0  0
    8.9826  -16.6941   23.5771 C   0  0  1  0  0  0  0  0  0  0  0  0
    9.7300  -16.3363   22.2948 C   0  0  0  0  0  0  0  0  0  0  0  0
   10.6715  -17.3701   21.8004 C   0  0  0  0  0  0  0  0  0  0  0  0
   11.1801  -16.8943   20.4761 C   0  0  0  0  0  0  0  0  0  0  0  0
   12.3698  -16.5316   20.3912 O   0  0  0  0  0  0  0  0  0  0  0  0
    9.9122  -16.9710   24.6421 C   0  0  0  0  0  0  0  0  0  0  0  0
   10.6164  -15.9598   25.0512 O   0  0  0  0  0  0  0  0  0  0  0  0
   10.3499  -16.8606   19.3937 O   0  0  0  0  0  0  0  0  0  0  0  0
    8.6000  -18.3209   27.2732 N   0  0  0  0  0  0  0  0  0  0  0  0
    9.4843  -19.2526   27.8582 C   0  0  0  0  0  0  0  0  0  0  0  0
    9.0485  -20.0492   28.7364 O   0  0  0  0  0  0  0  0  0  0  0  0
   10.8909  -19.2773   27.4357 C   0  0  0  0  0  0  0  0  0  0  0  0
   11.2206  -18.2562   26.3607 C   0  0  2  0  0  0  0  0  0  0  0  0
   10.1968  -18.1589   25.3386 N   0  0  0  0  0  0  0  0  0  0  0  0
   12.4684  -18.7289   25.7150 C   0  0  0  0  0  0  0  0  0  0  0  0
   13.6747  -18.8801   26.3791 O   0  0  0  0  0  0  0  0  0  0  0  0
   12.4865  -19.0241   24.4846 O   0  0  0  0  0  0  0  0  0  0  0  0
  2  1  1  0
  3  5  1  0
  3  2  1  0
  3  4  1  6
  5  6  1  1
  7  5  1  0
  7  8  2  0
  9  7  1  0
 10  9  1  0
 10 11  1  6
 12 11  1  0
 12 13  1  0
 13 14  2  0
 15 10  1  0
 16 15  2  0
 17 13  1  0
 18 19  1  0
 19 20  2  0
 19 21  1  0
 22 21  1  1
 22 23  1  0
 22 24  1  0
 23 15  1  0
 24 25  1  0
 26 24  2  0
M  END
$$$$
