IEN.pdb
     RDKit          3D

 26 25  0  0  1  0  0  0  0  0999 V2000
    6.7530  -11.4113   27.1665 C   0  0  0  0  0  0  0  0  0  0  0  0
    6.3454  -12.5237   26.2621 C   0  0  0  0  0  0  0  0  0  0  0  0
    7.2826  -13.7159   26.2653 C   0  0  2  0  0  0  0  0  0  0  0  0
    8.5982  -13.2164   25.6907 C   0  0  0  0  0  0  0  0  0  0  0  0
    6.6966  -14.7689   25.3904 C   0  0  2  0  0  0  0  0  0  0  0  0
    5.4002  -15.1182   25.9140 N   0  0  0  0  0  0  0  0  0  0  0  0
    7.5770  -15.9433   25.1484 C   0  0  0  0  0  0  0  0  0  0  0  0
    7.4531  -16.9506   25.8874 O   0  0  0  0  0  0  0  0  0  0  0  0
    8.5447  -15.9647   24.1191 N   0  0  0  0  0  0  0  0  0  0  0  0
    9.4530  -17.0738   23.8303 C   0  0  1  0  0  0  0  0  0  0  0  0
   10.2172  -16.7551   22.5477 C   0  0  0  0  0  0  0  0  0  0  0  0
   11.1856  -17.7908   22.1128 C   0  0  0  0  0  0  0  0  0  0  0  0
   11.8209  -17.2883   20.8547 C   0  0  0  0  0  0  0  0  0  0  0  0
   11.3635  -17.6755   19.7616 O   0  0  0  0  0  0  0  0  0  0  0  0
   10.3687  -17.3380   24.9105 C   0  0  0  0  0  0  0  0  0  0  0  0
   11.0163  -16.3080   25.3637 O   0  0  0  0  0  0  0  0  0  0  0  0
   12.8781  -16.4278   20.9158 O   0  0  0  0  0  0  0  0  0  0  0  0
    8.7119  -19.7921   28.0908 N   0  0  0  0  0  0  0  0  0  0  0  0
    9.9313  -19.1859   28.4623 C   0  0  0  0  0  0  0  0  0  0  0  0
    9.9343  -18.3184   29.3804 O   0  0  0  0  0  0  0  0  0  0  0  0
   11.1701  -19.5747   27.7753 C   0  0  0  0  0  0  0  0  0  0  0  0
   11.6062  -18.5898   26.7046 C   0  0  2  0  0  0  0  0  0  0  0  0
   10.6903  -18.5308   25.5821 N   0  0  0  0  0  0  0  0  0  0  0  0
   12.9125  -19.0799   26.2041 C   0  0  0  0  0  0  0  0  0  0  0  0
   14.0438  -19.2122   26.9927 O   0  0  0  0  0  0  0  0  0  0  0  0
   13.0563  -19.4093   24.9907 O   0  0  0  0  0  0  0  0  0  0  0  0
  2  1  1  0
  3  5  1  0
  3  2  1  0
  3  4  1  6
  5  6  1  1
  7  5  1  0
  7  8  2  0
  9  7  1  0
 10  9  1  0
 10 11  1  6
 12 11  1  0
 12 13  1  0
 13 14  2  0
 15 10  1  0
 16 15  2  0
 17 13  1  0
 18 19  1  0
 19 20  2  0
 19 21  1  0
 22 21  1  1
 22 23  1  0
 22 24  1  0
 23 15  1  0
 24 25  1  0
 26 24  2  0
M  END
$$$$
