TKI.pdb
     RDKit          3D

 25 24  0  0  1  0  0  0  0  0999 V2000
    9.8208  -13.3967   20.1088 C   0  0  0  0  0  0  0  0  0  0  0  0
    8.4675  -13.2750   19.4459 C   0  0  1  0  0  0  0  0  0  0  0  0
    8.7470  -12.8590   18.1204 O   0  0  0  0  0  0  0  0  0  0  0  0
    7.8137  -14.6429   19.4112 C   0  0  2  0  0  0  0  0  0  0  0  0
    6.5045  -14.4052   18.7644 N   0  0  0  0  0  0  0  0  0  0  0  0
    7.4848  -15.0920   20.7894 C   0  0  0  0  0  0  0  0  0  0  0  0
    6.5320  -14.5638   21.4679 O   0  0  0  0  0  0  0  0  0  0  0  0
    8.1738  -16.1245   21.4749 N   0  0  0  0  0  0  0  0  0  0  0  0
    7.7695  -16.6182   22.7864 C   0  0  1  0  0  0  0  0  0  0  0  0
    8.1282  -18.0711   22.8995 C   0  0  0  0  0  0  0  0  0  0  0  0
    7.8956  -18.6397   24.2710 C   0  0  0  0  0  0  0  0  0  0  0  0
    8.3110  -20.1132   24.2088 C   0  0  0  0  0  0  0  0  0  0  0  0
    7.9672  -20.8189   25.5043 C   0  0  0  0  0  0  0  0  0  0  0  0
    8.2580  -22.2341   25.4414 N   0  0  0  0  0  0  0  0  0  0  0  0
    8.4257  -15.7689   23.7915 C   0  0  0  0  0  0  0  0  0  0  0  0
    9.6248  -15.3831   23.6894 O   0  0  0  0  0  0  0  0  0  0  0  0
    5.5143  -12.0568   26.3782 C   0  0  0  0  0  0  0  0  0  0  0  0
    6.6303  -12.8211   25.6601 C   0  0  0  0  0  0  0  0  0  0  0  0
    7.3530  -13.6659   26.6690 C   0  0  2  0  0  0  0  0  0  0  0  0
    8.0787  -12.7196   27.6181 C   0  0  0  0  0  0  0  0  0  0  0  0
    8.3993  -14.5004   25.9676 C   0  0  2  0  0  0  0  0  0  0  0  0
    7.7502  -15.3067   24.9784 N   0  0  0  0  0  0  0  0  0  0  0  0
    9.0969  -15.2975   27.0032 C   0  0  0  0  0  0  0  0  0  0  0  0
   10.2863  -14.9431   27.5817 O   0  0  0  0  0  0  0  0  0  0  0  0
    8.5468  -16.3701   27.3653 O   0  0  0  0  0  0  0  0  0  0  0  0
  2  4  1  0
  2  1  1  1
  3  2  1  0
  4  5  1  6
  6  4  1  0
  7  6  2  0
  8  6  1  0
  9  8  1  0
  9 10  1  1
 10 11  1  0
 11 12  1  0
 12 13  1  0
 13 14  1  0
 15 16  2  0
 15  9  1  0
 18 17  1  0
 19 21  1  0
 19 18  1  0
 19 20  1  1
 21 22  1  6
 22 15  1  0
 23 24  1  0
 23 21  1  0
 25 23  2  0
M  END
$$$$
