TKI.pdb
     RDKit          3D

 25 24  0  0  1  0  0  0  0  0999 V2000
    9.5584  -13.1181   20.4100 C   0  0  0  0  0  0  0  0  0  0  0  0
    8.4055  -13.2888   19.4470 C   0  0  1  0  0  0  0  0  0  0  0  0
    8.9330  -12.9344   18.1804 O   0  0  0  0  0  0  0  0  0  0  0  0
    7.9968  -14.7490   19.4253 C   0  0  2  0  0  0  0  0  0  0  0  0
    6.8433  -14.7914   18.4999 N   0  0  0  0  0  0  0  0  0  0  0  0
    7.4442  -15.1492   20.7458 C   0  0  0  0  0  0  0  0  0  0  0  0
    6.4361  -14.5528   21.2705 O   0  0  0  0  0  0  0  0  0  0  0  0
    7.9627  -16.2049   21.5378 N   0  0  0  0  0  0  0  0  0  0  0  0
    7.3894  -16.5941   22.8213 C   0  0  1  0  0  0  0  0  0  0  0  0
    7.4463  -18.0878   22.9552 C   0  0  0  0  0  0  0  0  0  0  0  0
    7.0586  -18.5813   24.3206 C   0  0  0  0  0  0  0  0  0  0  0  0
    7.1548  -20.1099   24.2760 C   0  0  0  0  0  0  0  0  0  0  0  0
    6.6705  -20.7125   25.5786 C   0  0  0  0  0  0  0  0  0  0  0  0
    6.7896  -22.1537   25.5833 N   0  0  0  0  0  0  0  0  0  0  0  0
    8.1377  -15.8795   23.8659 C   0  0  0  0  0  0  0  0  0  0  0  0
    9.3984  -15.7918   23.8715 O   0  0  0  0  0  0  0  0  0  0  0  0
    5.8806  -11.5007   25.9797 C   0  0  0  0  0  0  0  0  0  0  0  0
    6.8931  -12.5029   25.4179 C   0  0  0  0  0  0  0  0  0  0  0  0
    7.3257  -13.4149   26.5292 C   0  0  2  0  0  0  0  0  0  0  0  0
    8.1584  -12.5858   27.4997 C   0  0  0  0  0  0  0  0  0  0  0  0
    8.2192  -14.4979   25.9706 C   0  0  2  0  0  0  0  0  0  0  0  0
    7.4898  -15.2193   24.9718 N   0  0  0  0  0  0  0  0  0  0  0  0
    8.6483  -15.3470   27.1061 C   0  0  0  0  0  0  0  0  0  0  0  0
    9.7980  -15.1550   27.8247 O   0  0  0  0  0  0  0  0  0  0  0  0
    7.8949  -16.3053   27.4194 O   0  0  0  0  0  0  0  0  0  0  0  0
  2  4  1  0
  2  1  1  1
  3  2  1  0
  4  5  1  6
  6  4  1  0
  7  6  2  0
  8  6  1  0
  9  8  1  0
  9 10  1  1
 10 11  1  0
 11 12  1  0
 12 13  1  0
 13 14  1  0
 15 16  2  0
 15  9  1  0
 18 17  1  0
 19 21  1  0
 19 18  1  0
 19 20  1  1
 21 22  1  6
 22 15  1  0
 23 24  1  0
 23 21  1  0
 25 23  2  0
M  END
$$$$
