TKI.pdb
     RDKit          3D

 25 24  0  0  1  0  0  0  0  0999 V2000
    8.9968  -12.6744   19.7837 C   0  0  0  0  0  0  0  0  0  0  0  0
    8.0770  -13.5280   18.9405 C   0  0  1  0  0  0  0  0  0  0  0  0
    8.4159  -13.2153   17.6005 O   0  0  0  0  0  0  0  0  0  0  0  0
    8.3854  -14.9892   19.2041 C   0  0  2  0  0  0  0  0  0  0  0  0
    7.4833  -15.7233   18.2897 N   0  0  0  0  0  0  0  0  0  0  0  0
    7.9411  -15.3715   20.5700 C   0  0  0  0  0  0  0  0  0  0  0  0
    6.7433  -15.1604   20.9799 O   0  0  0  0  0  0  0  0  0  0  0  0
    8.7760  -15.9935   21.5327 N   0  0  0  0  0  0  0  0  0  0  0  0
    8.3039  -16.4059   22.8497 C   0  0  1  0  0  0  0  0  0  0  0  0
    8.8970  -17.7415   23.1912 C   0  0  0  0  0  0  0  0  0  0  0  0
    8.5942  -18.1897   24.5933 C   0  0  0  0  0  0  0  0  0  0  0  0
    9.2176  -19.5804   24.7513 C   0  0  0  0  0  0  0  0  0  0  0  0
    8.9479  -20.1310   26.1364 C   0  0  0  0  0  0  0  0  0  0  0  0
    9.3825  -21.5043   26.2650 N   0  0  0  0  0  0  0  0  0  0  0  0
    8.6678  -15.3401   23.7950 C   0  0  0  0  0  0  0  0  0  0  0  0
    9.7935  -14.7658   23.7846 O   0  0  0  0  0  0  0  0  0  0  0  0
    7.2474  -10.5284   26.2647 C   0  0  0  0  0  0  0  0  0  0  0  0
    7.3356  -11.8807   26.9779 C   0  0  0  0  0  0  0  0  0  0  0  0
    6.9539  -12.9574   26.0038 C   0  0  2  0  0  0  0  0  0  0  0  0
    5.8602  -13.7942   26.6567 C   0  0  0  0  0  0  0  0  0  0  0  0
    8.1404  -13.8622   25.7655 C   0  0  2  0  0  0  0  0  0  0  0  0
    7.7652  -14.8634   24.8132 N   0  0  0  0  0  0  0  0  0  0  0  0
    8.5382  -14.4250   27.0768 C   0  0  0  0  0  0  0  0  0  0  0  0
    8.4229  -15.7458   27.4191 O   0  0  0  0  0  0  0  0  0  0  0  0
    9.0123  -13.6226   27.9227 O   0  0  0  0  0  0  0  0  0  0  0  0
  2  4  1  0
  2  1  1  1
  3  2  1  0
  4  5  1  6
  6  4  1  0
  7  6  2  0
  8  6  1  0
  9  8  1  0
  9 10  1  1
 10 11  1  0
 11 12  1  0
 12 13  1  0
 13 14  1  0
 15 16  2  0
 15  9  1  0
 18 17  1  0
 19 21  1  0
 19 18  1  0
 19 20  1  1
 21 22  1  6
 22 15  1  0
 23 24  1  0
 23 21  1  0
 25 23  2  0
M  END
$$$$
