TKI.pdb
     RDKit          3D

 25 24  0  0  1  0  0  0  0  0999 V2000
    9.5315  -13.4405   18.1681 C   0  0  0  0  0  0  0  0  0  0  0  0
    9.0817  -13.8041   19.5650 C   0  0  1  0  0  0  0  0  0  0  0  0
    8.7112  -12.5728   20.1607 O   0  0  0  0  0  0  0  0  0  0  0  0
    7.8608  -14.6986   19.4698 C   0  0  2  0  0  0  0  0  0  0  0  0
    6.7946  -13.8079   18.9612 N   0  0  0  0  0  0  0  0  0  0  0  0
    7.4095  -15.1008   20.8277 C   0  0  0  0  0  0  0  0  0  0  0  0
    6.5747  -14.3979   21.5032 O   0  0  0  0  0  0  0  0  0  0  0  0
    7.8450  -16.2735   21.4954 N   0  0  0  0  0  0  0  0  0  0  0  0
    7.4273  -16.6216   22.8488 C   0  0  1  0  0  0  0  0  0  0  0  0
    7.5630  -18.1038   23.0418 C   0  0  0  0  0  0  0  0  0  0  0  0
    7.2740  -18.5531   24.4464 C   0  0  0  0  0  0  0  0  0  0  0  0
    7.4040  -20.0799   24.4518 C   0  0  0  0  0  0  0  0  0  0  0  0
    7.0965  -20.6360   25.8268 C   0  0  0  0  0  0  0  0  0  0  0  0
    5.9080  -21.4598   25.8220 N   0  0  0  0  0  0  0  0  0  0  0  0
    8.2496  -15.8288   23.7747 C   0  0  0  0  0  0  0  0  0  0  0  0
    9.5077  -15.7516   23.6842 O   0  0  0  0  0  0  0  0  0  0  0  0
    5.7981  -11.9395   26.9917 C   0  0  0  0  0  0  0  0  0  0  0  0
    6.4352  -13.2840   26.6292 C   0  0  0  0  0  0  0  0  0  0  0  0
    7.8131  -13.0272   26.0912 C   0  0  2  0  0  0  0  0  0  0  0  0
    7.6542  -12.2849   24.7696 C   0  0  0  0  0  0  0  0  0  0  0  0
    8.4904  -14.3453   25.7962 C   0  0  2  0  0  0  0  0  0  0  0  0
    7.6832  -15.0731   24.8641 N   0  0  0  0  0  0  0  0  0  0  0  0
    8.6689  -15.0498   27.0871 C   0  0  0  0  0  0  0  0  0  0  0  0
    9.4955  -14.6249   28.0926 O   0  0  0  0  0  0  0  0  0  0  0  0
    8.0096  -16.1086   27.2559 O   0  0  0  0  0  0  0  0  0  0  0  0
  2  4  1  0
  2  1  1  6
  3  2  1  0
  4  5  1  1
  6  4  1  0
  7  6  2  0
  8  6  1  0
  9  8  1  0
  9 10  1  1
 10 11  1  0
 11 12  1  0
 12 13  1  0
 13 14  1  0
 15 16  2  0
 15  9  1  0
 18 17  1  0
 19 21  1  0
 19 18  1  0
 19 20  1  6
 21 22  1  6
 22 15  1  0
 23 24  1  0
 23 21  1  0
 25 23  2  0
M  END
$$$$
