TKI.pdb
     RDKit          3D

 25 24  0  0  1  0  0  0  0  0999 V2000
    8.7145  -12.4713   19.7616 C   0  0  0  0  0  0  0  0  0  0  0  0
    8.1082  -13.3689   18.7070 C   0  0  1  0  0  0  0  0  0  0  0  0
    8.4841  -12.7854   17.4715 O   0  0  0  0  0  0  0  0  0  0  0  0
    8.7327  -14.7465   18.8175 C   0  0  2  0  0  0  0  0  0  0  0  0
    8.0864  -15.5276   17.7400 N   0  0  0  0  0  0  0  0  0  0  0  0
    8.3054  -15.4063   20.0790 C   0  0  0  0  0  0  0  0  0  0  0  0
    7.0984  -15.8008   20.2654 O   0  0  0  0  0  0  0  0  0  0  0  0
    9.1682  -15.6605   21.1752 N   0  0  0  0  0  0  0  0  0  0  0  0
    8.7233  -16.3007   22.4079 C   0  0  1  0  0  0  0  0  0  0  0  0
    9.3872  -17.6406   22.5361 C   0  0  0  0  0  0  0  0  0  0  0  0
    9.0609  -18.3494   23.8204 C   0  0  0  0  0  0  0  0  0  0  0  0
    9.7812  -19.7008   23.7684 C   0  0  0  0  0  0  0  0  0  0  0  0
    9.3788  -20.5648   24.9457 C   0  0  0  0  0  0  0  0  0  0  0  0
    9.9106  -21.9053   24.8376 N   0  0  0  0  0  0  0  0  0  0  0  0
    9.0340  -15.3806   23.5119 C   0  0  0  0  0  0  0  0  0  0  0  0
   10.1807  -14.8795   23.6881 O   0  0  0  0  0  0  0  0  0  0  0  0
    6.3528  -11.0421   26.7528 C   0  0  0  0  0  0  0  0  0  0  0  0
    7.5315  -12.0150   26.6568 C   0  0  0  0  0  0  0  0  0  0  0  0
    7.1855  -13.0838   25.6609 C   0  0  2  0  0  0  0  0  0  0  0  0
    6.0014  -13.8621   26.2221 C   0  0  0  0  0  0  0  0  0  0  0  0
    8.3445  -14.0449   25.5331 C   0  0  2  0  0  0  0  0  0  0  0  0
    8.0507  -14.9753   24.4853 N   0  0  0  0  0  0  0  0  0  0  0  0
    8.5300  -14.6923   26.8526 C   0  0  0  0  0  0  0  0  0  0  0  0
    9.1528  -14.1058   27.9216 O   0  0  0  0  0  0  0  0  0  0  0  0
    8.0793  -15.8601   26.9841 O   0  0  0  0  0  0  0  0  0  0  0  0
  2  4  1  0
  2  1  1  1
  3  2  1  0
  4  5  1  6
  6  4  1  0
  7  6  2  0
  8  6  1  0
  9  8  1  0
  9 10  1  1
 10 11  1  0
 11 12  1  0
 12 13  1  0
 13 14  1  0
 15 16  2  0
 15  9  1  0
 18 17  1  0
 19 21  1  0
 19 18  1  0
 19 20  1  1
 21 22  1  6
 22 15  1  0
 23 24  1  0
 23 21  1  0
 25 23  2  0
M  END
$$$$
