TKI.pdb
     RDKit          3D

 25 24  0  0  1  0  0  0  0  0999 V2000
   10.7384  -13.7292   19.8688 C   0  0  0  0  0  0  0  0  0  0  0  0
    9.5158  -13.1502   19.1939 C   0  0  1  0  0  0  0  0  0  0  0  0
    9.9691  -12.7255   17.9202 O   0  0  0  0  0  0  0  0  0  0  0  0
    8.4873  -14.2502   19.0151 C   0  0  2  0  0  0  0  0  0  0  0  0
    7.3560  -13.5846   18.3325 N   0  0  0  0  0  0  0  0  0  0  0  0
    7.9463  -14.6694   20.3345 C   0  0  0  0  0  0  0  0  0  0  0  0
    7.2870  -13.8648   21.0863 O   0  0  0  0  0  0  0  0  0  0  0  0
    8.1001  -15.9691   20.8803 N   0  0  0  0  0  0  0  0  0  0  0  0
    7.4566  -16.3950   22.1180 C   0  0  1  0  0  0  0  0  0  0  0  0
    7.5592  -17.8873   22.2399 C   0  0  0  0  0  0  0  0  0  0  0  0
    7.0648  -18.4153   23.5572 C   0  0  0  0  0  0  0  0  0  0  0  0
    7.2238  -19.9384   23.5044 C   0  0  0  0  0  0  0  0  0  0  0  0
    6.7397  -20.5696   24.7935 C   0  0  0  0  0  0  0  0  0  0  0  0
    7.0014  -21.9914   24.8293 N   0  0  0  0  0  0  0  0  0  0  0  0
    8.1063  -15.6674   23.2182 C   0  0  0  0  0  0  0  0  0  0  0  0
    9.3389  -15.3884   23.2255 O   0  0  0  0  0  0  0  0  0  0  0  0
    6.6455  -11.5935   27.5228 C   0  0  0  0  0  0  0  0  0  0  0  0
    7.6602  -12.6294   27.0303 C   0  0  0  0  0  0  0  0  0  0  0  0
    7.0375  -13.4082   25.9079 C   0  0  2  0  0  0  0  0  0  0  0  0
    5.8217  -14.1308   26.4758 C   0  0  0  0  0  0  0  0  0  0  0  0
    8.0102  -14.4596   25.4265 C   0  0  2  0  0  0  0  0  0  0  0  0
    7.3857  -15.2126   24.3811 N   0  0  0  0  0  0  0  0  0  0  0  0
    8.3833  -15.2865   26.5976 C   0  0  0  0  0  0  0  0  0  0  0  0
    9.3136  -14.9252   27.5352 O   0  0  0  0  0  0  0  0  0  0  0  0
    7.7972  -16.3930   26.7256 O   0  0  0  0  0  0  0  0  0  0  0  0
  2  4  1  0
  2  1  1  1
  3  2  1  0
  4  5  1  6
  6  4  1  0
  7  6  2  0
  8  6  1  0
  9  8  1  0
  9 10  1  1
 10 11  1  0
 11 12  1  0
 12 13  1  0
 13 14  1  0
 15 16  2  0
 15  9  1  0
 18 17  1  0
 19 21  1  0
 19 18  1  0
 19 20  1  1
 21 22  1  6
 22 15  1  0
 23 24  1  0
 23 21  1  0
 25 23  2  0
M  END
$$$$
