TKI.pdb
     RDKit          3D

 25 24  0  0  1  0  0  0  0  0999 V2000
    8.7553  -12.7945   19.8842 C   0  0  0  0  0  0  0  0  0  0  0  0
    7.9393  -13.6226   18.9177 C   0  0  1  0  0  0  0  0  0  0  0  0
    8.4619  -13.3098   17.6382 O   0  0  0  0  0  0  0  0  0  0  0  0
    8.1784  -15.0918   19.2077 C   0  0  2  0  0  0  0  0  0  0  0  0
    7.3289  -15.8006   18.2255 N   0  0  0  0  0  0  0  0  0  0  0  0
    7.6144  -15.4537   20.5345 C   0  0  0  0  0  0  0  0  0  0  0  0
    6.3494  -15.5266   20.7391 O   0  0  0  0  0  0  0  0  0  0  0  0
    8.3989  -15.7483   21.6784 N   0  0  0  0  0  0  0  0  0  0  0  0
    7.8236  -16.1445   22.9587 C   0  0  1  0  0  0  0  0  0  0  0  0
    7.9366  -17.6333   23.1115 C   0  0  0  0  0  0  0  0  0  0  0  0
    7.5110  -18.1298   24.4645 C   0  0  0  0  0  0  0  0  0  0  0  0
    7.7995  -19.6345   24.4879 C   0  0  0  0  0  0  0  0  0  0  0  0
    7.2534  -20.2622   25.7538 C   0  0  0  0  0  0  0  0  0  0  0  0
    7.3736  -21.7032   25.7366 N   0  0  0  0  0  0  0  0  0  0  0  0
    8.5294  -15.3893   24.0044 C   0  0  0  0  0  0  0  0  0  0  0  0
    9.7896  -15.3299   24.0787 O   0  0  0  0  0  0  0  0  0  0  0  0
    5.6946  -11.5956   26.9580 C   0  0  0  0  0  0  0  0  0  0  0  0
    6.3746  -12.9339   26.6552 C   0  0  0  0  0  0  0  0  0  0  0  0
    7.8266  -12.6762   26.3740 C   0  0  2  0  0  0  0  0  0  0  0  0
    7.9018  -11.8372   25.1038 C   0  0  0  0  0  0  0  0  0  0  0  0
    8.5247  -13.9874   26.0972 C   0  0  2  0  0  0  0  0  0  0  0  0
    7.8368  -14.6533   25.0326 N   0  0  0  0  0  0  0  0  0  0  0  0
    8.5309  -14.7607   27.3608 C   0  0  0  0  0  0  0  0  0  0  0  0
    7.8738  -15.9478   27.5448 O   0  0  0  0  0  0  0  0  0  0  0  0
    9.1890  -14.2812   28.3206 O   0  0  0  0  0  0  0  0  0  0  0  0
  2  4  1  0
  2  1  1  1
  3  2  1  0
  4  5  1  6
  6  4  1  0
  7  6  2  0
  8  6  1  0
  9  8  1  0
  9 10  1  1
 10 11  1  0
 11 12  1  0
 12 13  1  0
 13 14  1  0
 15 16  2  0
 15  9  1  0
 18 17  1  0
 19 21  1  0
 19 18  1  0
 19 20  1  6
 21 22  1  6
 22 15  1  0
 23 24  1  0
 23 21  1  0
 25 23  2  0
M  END
$$$$
