TKI.pdb
     RDKit          3D

 25 24  0  0  1  0  0  0  0  0999 V2000
   13.6534  -19.9896   20.5498 C   0  0  0  0  0  0  0  0  0  0  0  0
   13.0613  -19.0193   21.5467 C   0  0  1  0  0  0  0  0  0  0  0  0
   14.0049  -18.9602   22.6023 O   0  0  0  0  0  0  0  0  0  0  0  0
   12.9544  -17.6531   20.8972 C   0  0  2  0  0  0  0  0  0  0  0  0
   14.3548  -17.1868   20.7956 N   0  0  0  0  0  0  0  0  0  0  0  0
   12.2965  -16.6931   21.8217 C   0  0  0  0  0  0  0  0  0  0  0  0
   12.9711  -15.8963   22.5682 O   0  0  0  0  0  0  0  0  0  0  0  0
   10.8918  -16.5642   21.9666 N   0  0  0  0  0  0  0  0  0  0  0  0
   10.2690  -15.6241   22.8915 C   0  0  1  0  0  0  0  0  0  0  0  0
    8.9087  -15.2530   22.3773 C   0  0  0  0  0  0  0  0  0  0  0  0
    8.9441  -14.2341   21.2732 C   0  0  0  0  0  0  0  0  0  0  0  0
    7.4988  -14.0570   20.7962 C   0  0  0  0  0  0  0  0  0  0  0  0
    7.4291  -13.0448   19.6714 C   0  0  0  0  0  0  0  0  0  0  0  0
    6.0727  -12.8391   19.2142 N   0  0  0  0  0  0  0  0  0  0  0  0
   10.2442  -16.2673   24.2136 C   0  0  0  0  0  0  0  0  0  0  0  0
   10.2934  -17.5203   24.3703 O   0  0  0  0  0  0  0  0  0  0  0  0
   10.1983  -12.7620   28.4906 C   0  0  0  0  0  0  0  0  0  0  0  0
   10.6189  -13.8067   27.4528 C   0  0  0  0  0  0  0  0  0  0  0  0
    9.9427  -15.1053   27.7848 C   0  0  2  0  0  0  0  0  0  0  0  0
   10.5232  -15.5955   29.1060 C   0  0  0  0  0  0  0  0  0  0  0  0
   10.2808  -16.1316   26.7286 C   0  0  2  0  0  0  0  0  0  0  0  0
   10.1617  -15.5161   25.4414 N   0  0  0  0  0  0  0  0  0  0  0  0
    9.3603  -17.2774   26.9142 C   0  0  0  0  0  0  0  0  0  0  0  0
    9.6327  -18.3706   27.6924 O   0  0  0  0  0  0  0  0  0  0  0  0
    8.2576  -17.2280   26.3094 O   0  0  0  0  0  0  0  0  0  0  0  0
  2  4  1  0
  2  1  1  6
  3  2  1  0
  4  5  1  1
  6  4  1  0
  7  6  2  0
  8  6  1  0
  9  8  1  0
  9 10  1  6
 10 11  1  0
 11 12  1  0
 12 13  1  0
 13 14  1  0
 15 16  2  0
 15  9  1  0
 18 17  1  0
 19 21  1  0
 19 18  1  0
 19 20  1  1
 21 22  1  6
 22 15  1  0
 23 24  1  0
 23 21  1  0
 25 23  2  0
M  END
$$$$
