TKI.pdb
     RDKit          3D

 25 24  0  0  1  0  0  0  0  0999 V2000
    9.4778  -13.9477   17.8821 C   0  0  0  0  0  0  0  0  0  0  0  0
    9.2115  -14.3073   19.3262 C   0  0  1  0  0  0  0  0  0  0  0  0
    9.6931  -13.2027   20.0718 O   0  0  0  0  0  0  0  0  0  0  0  0
    7.7143  -14.4326   19.5323 C   0  0  2  0  0  0  0  0  0  0  0  0
    7.2120  -13.0463   19.4108 N   0  0  0  0  0  0  0  0  0  0  0  0
    7.4183  -14.8263   20.9347 C   0  0  0  0  0  0  0  0  0  0  0  0
    7.0139  -13.9779   21.8087 O   0  0  0  0  0  0  0  0  0  0  0  0
    7.5489  -16.1470   21.4342 N   0  0  0  0  0  0  0  0  0  0  0  0
    7.0713  -16.5517   22.7515 C   0  0  1  0  0  0  0  0  0  0  0  0
    7.0845  -18.0497   22.8431 C   0  0  0  0  0  0  0  0  0  0  0  0
    6.7656  -18.5679   24.2171 C   0  0  0  0  0  0  0  0  0  0  0  0
    6.9002  -20.0927   24.1507 C   0  0  0  0  0  0  0  0  0  0  0  0
    6.6170  -20.7122   25.5037 C   0  0  0  0  0  0  0  0  0  0  0  0
    6.6788  -22.1563   25.4595 N   0  0  0  0  0  0  0  0  0  0  0  0
    7.9301  -15.8925   23.7464 C   0  0  0  0  0  0  0  0  0  0  0  0
    9.1886  -15.8411   23.6431 O   0  0  0  0  0  0  0  0  0  0  0  0
    5.9055  -11.6491   26.3831 C   0  0  0  0  0  0  0  0  0  0  0  0
    6.8263  -12.6151   25.6319 C   0  0  0  0  0  0  0  0  0  0  0  0
    7.4232  -13.5709   26.6239 C   0  0  2  0  0  0  0  0  0  0  0  0
    8.3752  -12.7735   27.5074 C   0  0  0  0  0  0  0  0  0  0  0  0
    8.2413  -14.6087   25.8912 C   0  0  2  0  0  0  0  0  0  0  0  0
    7.4024  -15.2497   24.9241 N   0  0  0  0  0  0  0  0  0  0  0  0
    8.7811  -15.5436   26.9056 C   0  0  0  0  0  0  0  0  0  0  0  0
    8.3583  -16.8356   27.0699 O   0  0  0  0  0  0  0  0  0  0  0  0
    9.6889  -15.1062   27.6597 O   0  0  0  0  0  0  0  0  0  0  0  0
  2  4  1  0
  2  1  1  6
  3  2  1  0
  4  5  1  1
  6  4  1  0
  7  6  2  0
  8  6  1  0
  9  8  1  0
  9 10  1  6
 10 11  1  0
 11 12  1  0
 12 13  1  0
 13 14  1  0
 15 16  2  0
 15  9  1  0
 18 17  1  0
 19 21  1  0
 19 18  1  0
 19 20  1  1
 21 22  1  6
 22 15  1  0
 23 24  1  0
 23 21  1  0
 25 23  2  0
M  END
$$$$
