TKI.pdb
     RDKit          3D

 25 24  0  0  1  0  0  0  0  0999 V2000
    9.1795  -12.9267   20.1143 C   0  0  0  0  0  0  0  0  0  0  0  0
    7.9611  -13.5122   19.4373 C   0  0  1  0  0  0  0  0  0  0  0  0
    8.0909  -13.1475   18.0741 O   0  0  0  0  0  0  0  0  0  0  0  0
    8.0130  -15.0232   19.5557 C   0  0  2  0  0  0  0  0  0  0  0  0
    6.8013  -15.4867   18.8447 N   0  0  0  0  0  0  0  0  0  0  0  0
    7.8104  -15.4367   20.9689 C   0  0  0  0  0  0  0  0  0  0  0  0
    6.7355  -15.1573   21.6121 O   0  0  0  0  0  0  0  0  0  0  0  0
    8.7612  -16.1645   21.7286 N   0  0  0  0  0  0  0  0  0  0  0  0
    8.4964  -16.6573   23.0755 C   0  0  1  0  0  0  0  0  0  0  0  0
    9.1551  -17.9944   23.2507 C   0  0  0  0  0  0  0  0  0  0  0  0
    9.0597  -18.5294   24.6517 C   0  0  0  0  0  0  0  0  0  0  0  0
    9.7936  -19.8744   24.6564 C   0  0  0  0  0  0  0  0  0  0  0  0
    9.7381  -20.5070   26.0317 C   0  0  0  0  0  0  0  0  0  0  0  0
   10.4206  -21.7814   26.0672 N   0  0  0  0  0  0  0  0  0  0  0  0
    8.9793  -15.6346   24.0151 C   0  0  0  0  0  0  0  0  0  0  0  0
   10.0857  -15.0399   23.8761 O   0  0  0  0  0  0  0  0  0  0  0  0
    5.8774  -11.8961   26.2096 C   0  0  0  0  0  0  0  0  0  0  0  0
    7.0644  -12.6790   25.6410 C   0  0  0  0  0  0  0  0  0  0  0  0
    7.6520  -13.5160   26.7402 C   0  0  2  0  0  0  0  0  0  0  0  0
    8.2644  -12.5628   27.7596 C   0  0  0  0  0  0  0  0  0  0  0  0
    8.7690  -14.3662   26.1812 C   0  0  2  0  0  0  0  0  0  0  0  0
    8.2255  -15.2272   25.1746 N   0  0  0  0  0  0  0  0  0  0  0  0
    9.3735  -15.1037   27.3148 C   0  0  0  0  0  0  0  0  0  0  0  0
    9.0894  -16.4055   27.6305 O   0  0  0  0  0  0  0  0  0  0  0  0
   10.2022  -14.4782   28.0263 O   0  0  0  0  0  0  0  0  0  0  0  0
  2  4  1  0
  2  1  1  1
  3  2  1  0
  4  5  1  6
  6  4  1  0
  7  6  2  0
  8  6  1  0
  9  8  1  0
  9 10  1  1
 10 11  1  0
 11 12  1  0
 12 13  1  0
 13 14  1  0
 15 16  2  0
 15  9  1  0
 18 17  1  0
 19 21  1  0
 19 18  1  0
 19 20  1  1
 21 22  1  6
 22 15  1  0
 23 24  1  0
 23 21  1  0
 25 23  2  0
M  END
$$$$
