TKI.pdb
     RDKit          3D

 25 24  0  0  1  0  0  0  0  0999 V2000
   10.5385  -13.3216   20.3666 C   0  0  0  0  0  0  0  0  0  0  0  0
    9.3283  -12.9394   19.5451 C   0  0  1  0  0  0  0  0  0  0  0  0
    9.8569  -12.4187   18.3377 O   0  0  0  0  0  0  0  0  0  0  0  0
    8.5279  -14.1907   19.2395 C   0  0  2  0  0  0  0  0  0  0  0  0
    7.3479  -13.6968   18.4964 N   0  0  0  0  0  0  0  0  0  0  0  0
    7.9773  -14.7692   20.4931 C   0  0  0  0  0  0  0  0  0  0  0  0
    6.9632  -14.2574   21.0905 O   0  0  0  0  0  0  0  0  0  0  0  0
    8.5042  -15.9171   21.1376 N   0  0  0  0  0  0  0  0  0  0  0  0
    7.9304  -16.4822   22.3537 C   0  0  1  0  0  0  0  0  0  0  0  0
    8.1491  -17.9670   22.3593 C   0  0  0  0  0  0  0  0  0  0  0  0
    7.7151  -18.6307   23.6358 C   0  0  0  0  0  0  0  0  0  0  0  0
    8.0130  -20.1250   23.4741 C   0  0  0  0  0  0  0  0  0  0  0  0
    7.4917  -20.9042   24.6639 C   0  0  0  0  0  0  0  0  0  0  0  0
    6.0665  -21.1327   24.5765 N   0  0  0  0  0  0  0  0  0  0  0  0
    8.5545  -15.7900   23.4909 C   0  0  0  0  0  0  0  0  0  0  0  0
    9.8013  -15.6059   23.5845 O   0  0  0  0  0  0  0  0  0  0  0  0
    6.1638  -11.5929   25.7776 C   0  0  0  0  0  0  0  0  0  0  0  0
    7.1993  -12.5819   25.2349 C   0  0  0  0  0  0  0  0  0  0  0  0
    7.4713  -13.6129   26.2917 C   0  0  2  0  0  0  0  0  0  0  0  0
    8.1922  -12.9112   27.4366 C   0  0  0  0  0  0  0  0  0  0  0  0
    8.4061  -14.6637   25.7391 C   0  0  2  0  0  0  0  0  0  0  0  0
    7.7902  -15.2639   24.5944 N   0  0  0  0  0  0  0  0  0  0  0  0
    8.6789  -15.6301   26.8282 C   0  0  0  0  0  0  0  0  0  0  0  0
    9.6241  -15.4513   27.8026 O   0  0  0  0  0  0  0  0  0  0  0  0
    7.9872  -16.6815   26.8454 O   0  0  0  0  0  0  0  0  0  0  0  0
  2  4  1  0
  2  1  1  1
  3  2  1  0
  4  5  1  6
  6  4  1  0
  7  6  2  0
  8  6  1  0
  9  8  1  0
  9 10  1  1
 10 11  1  0
 11 12  1  0
 12 13  1  0
 13 14  1  0
 15 16  2  0
 15  9  1  0
 18 17  1  0
 19 21  1  0
 19 18  1  0
 19 20  1  1
 21 22  1  6
 22 15  1  0
 23 24  1  0
 23 21  1  0
 25 23  2  0
M  END
$$$$
