TKI.pdb
     RDKit          3D

 25 24  0  0  1  0  0  0  0  0999 V2000
   11.1386  -14.3468   20.1508 C   0  0  0  0  0  0  0  0  0  0  0  0
   10.1943  -13.4242   19.4140 C   0  0  1  0  0  0  0  0  0  0  0  0
   10.8946  -13.0464   18.2415 O   0  0  0  0  0  0  0  0  0  0  0  0
    8.9530  -14.2030   19.0235 C   0  0  2  0  0  0  0  0  0  0  0  0
    8.0737  -13.1951   18.3914 N   0  0  0  0  0  0  0  0  0  0  0  0
    8.2188  -14.6452   20.2378 C   0  0  0  0  0  0  0  0  0  0  0  0
    7.4030  -13.8729   20.8586 O   0  0  0  0  0  0  0  0  0  0  0  0
    8.3426  -15.9337   20.8168 N   0  0  0  0  0  0  0  0  0  0  0  0
    7.6103  -16.3454   22.0091 C   0  0  1  0  0  0  0  0  0  0  0  0
    7.6186  -17.8434   22.1011 C   0  0  0  0  0  0  0  0  0  0  0  0
    6.9765  -18.3693   23.3539 C   0  0  0  0  0  0  0  0  0  0  0  0
    7.1609  -19.8903   23.3336 C   0  0  0  0  0  0  0  0  0  0  0  0
    6.4779  -20.5259   24.5269 C   0  0  0  0  0  0  0  0  0  0  0  0
    6.5190  -21.9702   24.4659 N   0  0  0  0  0  0  0  0  0  0  0  0
    8.2423  -15.6806   23.1582 C   0  0  0  0  0  0  0  0  0  0  0  0
    9.4942  -15.6382   23.3259 O   0  0  0  0  0  0  0  0  0  0  0  0
    6.9596  -11.0228   26.8772 C   0  0  0  0  0  0  0  0  0  0  0  0
    7.8235  -12.2670   26.6520 C   0  0  0  0  0  0  0  0  0  0  0  0
    7.1814  -13.1044   25.5841 C   0  0  2  0  0  0  0  0  0  0  0  0
    5.9080  -13.6972   26.1753 C   0  0  0  0  0  0  0  0  0  0  0  0
    8.0972  -14.2523   25.2280 C   0  0  2  0  0  0  0  0  0  0  0  0
    7.4806  -15.0212   24.1895 N   0  0  0  0  0  0  0  0  0  0  0  0
    8.3342  -15.0298   26.4665 C   0  0  0  0  0  0  0  0  0  0  0  0
    7.8496  -16.2902   26.6937 O   0  0  0  0  0  0  0  0  0  0  0  0
    9.0296  -14.4815   27.3609 O   0  0  0  0  0  0  0  0  0  0  0  0
  2  4  1  0
  2  1  1  1
  3  2  1  0
  4  5  1  6
  6  4  1  0
  7  6  2  0
  8  6  1  0
  9  8  1  0
  9 10  1  1
 10 11  1  0
 11 12  1  0
 12 13  1  0
 13 14  1  0
 15 16  2  0
 15  9  1  0
 18 17  1  0
 19 21  1  0
 19 18  1  0
 19 20  1  1
 21 22  1  6
 22 15  1  0
 23 24  1  0
 23 21  1  0
 25 23  2  0
M  END
$$$$
