TKI.pdb
     RDKit          3D

 25 24  0  0  1  0  0  0  0  0999 V2000
   10.5939  -13.8367   20.2327 C   0  0  0  0  0  0  0  0  0  0  0  0
    9.4842  -13.1785   19.4446 C   0  0  1  0  0  0  0  0  0  0  0  0
   10.0672  -12.8557   18.1939 O   0  0  0  0  0  0  0  0  0  0  0  0
    8.3711  -14.1858   19.2299 C   0  0  2  0  0  0  0  0  0  0  0  0
    7.3207  -13.4232   18.5201 N   0  0  0  0  0  0  0  0  0  0  0  0
    7.7588  -14.5624   20.5309 C   0  0  0  0  0  0  0  0  0  0  0  0
    7.0188  -13.7507   21.1949 O   0  0  0  0  0  0  0  0  0  0  0  0
    7.9265  -15.8258   21.1526 N   0  0  0  0  0  0  0  0  0  0  0  0
    7.3103  -16.1747   22.4276 C   0  0  1  0  0  0  0  0  0  0  0  0
    7.1624  -17.6658   22.5132 C   0  0  0  0  0  0  0  0  0  0  0  0
    6.0754  -18.2108   21.6303 C   0  0  0  0  0  0  0  0  0  0  0  0
    6.0486  -19.7262   21.8558 C   0  0  0  0  0  0  0  0  0  0  0  0
    4.9195  -20.3618   21.0711 C   0  0  0  0  0  0  0  0  0  0  0  0
    4.9432  -21.8047   21.1644 N   0  0  0  0  0  0  0  0  0  0  0  0
    8.1535  -15.6039   23.4883 C   0  0  0  0  0  0  0  0  0  0  0  0
    9.4161  -15.6536   23.4653 O   0  0  0  0  0  0  0  0  0  0  0  0
    5.8626  -11.9236   27.0835 C   0  0  0  0  0  0  0  0  0  0  0  0
    6.4381  -13.2617   26.6109 C   0  0  0  0  0  0  0  0  0  0  0  0
    7.8086  -13.0176   26.0488 C   0  0  2  0  0  0  0  0  0  0  0  0
    7.6395  -12.1839   24.7842 C   0  0  0  0  0  0  0  0  0  0  0  0
    8.4285  -14.3358   25.6473 C   0  0  2  0  0  0  0  0  0  0  0  0
    7.6045  -14.9394   24.6440 N   0  0  0  0  0  0  0  0  0  0  0  0
    8.5515  -15.1585   26.8731 C   0  0  0  0  0  0  0  0  0  0  0  0
    9.4039  -14.8820   27.9084 O   0  0  0  0  0  0  0  0  0  0  0  0
    7.8163  -16.1770   26.9535 O   0  0  0  0  0  0  0  0  0  0  0  0
  2  4  1  0
  2  1  1  1
  3  2  1  0
  4  5  1  6
  6  4  1  0
  7  6  2  0
  8  6  1  0
  9  8  1  0
  9 10  1  1
 10 11  1  0
 11 12  1  0
 12 13  1  0
 13 14  1  0
 15 16  2  0
 15  9  1  0
 18 17  1  0
 19 21  1  0
 19 18  1  0
 19 20  1  6
 21 22  1  6
 22 15  1  0
 23 24  1  0
 23 21  1  0
 25 23  2  0
M  END
$$$$
