TKI.pdb
     RDKit          3D

 25 24  0  0  1  0  0  0  0  0999 V2000
    9.5246  -12.8002   18.0064 C   0  0  0  0  0  0  0  0  0  0  0  0
    8.6376  -13.1416   19.1821 C   0  0  1  0  0  0  0  0  0  0  0  0
    7.4158  -12.4721   18.9235 O   0  0  0  0  0  0  0  0  0  0  0  0
    8.3928  -14.6382   19.1934 C   0  0  2  0  0  0  0  0  0  0  0  0
    7.3618  -14.8471   18.1531 N   0  0  0  0  0  0  0  0  0  0  0  0
    7.7413  -15.0442   20.4662 C   0  0  0  0  0  0  0  0  0  0  0  0
    6.5922  -14.5926   20.8166 O   0  0  0  0  0  0  0  0  0  0  0  0
    8.3103  -15.9501   21.3970 N   0  0  0  0  0  0  0  0  0  0  0  0
    7.6338  -16.3652   22.6206 C   0  0  1  0  0  0  0  0  0  0  0  0
    7.6325  -17.8639   22.7002 C   0  0  0  0  0  0  0  0  0  0  0  0
    6.7152  -18.5151   21.7038 C   0  0  0  0  0  0  0  0  0  0  0  0
    6.8049  -20.0249   21.9495 C   0  0  0  0  0  0  0  0  0  0  0  0
    5.8561  -20.7710   21.0343 C   0  0  0  0  0  0  0  0  0  0  0  0
    5.9925  -22.2044   21.1687 N   0  0  0  0  0  0  0  0  0  0  0  0
    8.3279  -15.7158   23.7425 C   0  0  0  0  0  0  0  0  0  0  0  0
    9.5802  -15.5489   23.7731 O   0  0  0  0  0  0  0  0  0  0  0  0
    5.6643  -11.8666   26.4538 C   0  0  0  0  0  0  0  0  0  0  0  0
    6.7181  -12.7025   25.7219 C   0  0  0  0  0  0  0  0  0  0  0  0
    7.3174  -13.6726   26.6985 C   0  0  2  0  0  0  0  0  0  0  0  0
    8.0910  -12.8599   27.7300 C   0  0  0  0  0  0  0  0  0  0  0  0
    8.3073  -14.5604   25.9807 C   0  0  2  0  0  0  0  0  0  0  0  0
    7.6317  -15.2158   24.9018 N   0  0  0  0  0  0  0  0  0  0  0  0
    8.8617  -15.5032   26.9798 C   0  0  0  0  0  0  0  0  0  0  0  0
    9.9805  -15.2639   27.7321 O   0  0  0  0  0  0  0  0  0  0  0  0
    8.2521  -16.5931   27.1364 O   0  0  0  0  0  0  0  0  0  0  0  0
  2  4  1  0
  2  1  1  6
  3  2  1  0
  4  5  1  6
  6  4  1  0
  7  6  2  0
  8  6  1  0
  9  8  1  0
  9 10  1  1
 10 11  1  0
 11 12  1  0
 12 13  1  0
 13 14  1  0
 15 16  2  0
 15  9  1  0
 18 17  1  0
 19 21  1  0
 19 18  1  0
 19 20  1  1
 21 22  1  6
 22 15  1  0
 23 24  1  0
 23 21  1  0
 25 23  2  0
M  END
$$$$
