VLK.pdb
     RDKit          3D

 25 24  0  0  1  0  0  0  0  0999 V2000
    7.9153  -13.7531   18.3057 C   0  0  0  0  0  0  0  0  0  0  0  0
    8.4609  -13.5578   19.6808 C   0  0  1  0  0  0  0  0  0  0  0  0
    7.7250  -12.4186   20.3456 C   0  0  0  0  0  0  0  0  0  0  0  0
    8.3441  -14.7631   20.5791 C   0  0  2  0  0  0  0  0  0  0  0  0
    6.9669  -15.2268   20.4433 N   0  0  0  0  0  0  0  0  0  0  0  0
    8.6474  -14.5292   21.9827 C   0  0  0  0  0  0  0  0  0  0  0  0
    9.8794  -14.4458   22.3153 O   0  0  0  0  0  0  0  0  0  0  0  0
    5.7575  -12.4223   26.8959 C   0  0  0  0  0  0  0  0  0  0  0  0
    7.1086  -13.0383   26.4667 C   0  0  2  0  0  0  0  0  0  0  0  0
    8.1425  -11.9638   26.7048 C   0  0  0  0  0  0  0  0  0  0  0  0
    7.0264  -13.4077   25.0403 C   0  0  0  0  0  0  0  0  0  0  0  0
    8.1229  -14.2080   24.4438 C   0  0  2  0  0  0  0  0  0  0  0  0
    7.7275  -14.3832   23.0241 N   0  0  0  0  0  0  0  0  0  0  0  0
    8.3728  -15.5298   25.0505 C   0  0  0  0  0  0  0  0  0  0  0  0
    7.4692  -16.4385   25.0693 O   0  0  0  0  0  0  0  0  0  0  0  0
    9.6027  -15.9024   25.6466 N   0  0  0  0  0  0  0  0  0  0  0  0
    9.9253  -17.3255   25.8798 C   0  0  1  0  0  0  0  0  0  0  0  0
   10.8964  -17.7913   24.7992 C   0  0  0  0  0  0  0  0  0  0  0  0
   11.4547  -19.1528   25.0648 C   0  0  0  0  0  0  0  0  0  0  0  0
   11.2728  -20.0692   23.8819 C   0  0  0  0  0  0  0  0  0  0  0  0
   11.7515  -21.4737   24.1581 C   0  0  0  0  0  0  0  0  0  0  0  0
   11.6424  -22.2197   22.8909 N   0  0  0  0  0  0  0  0  0  0  0  0
   10.4951  -17.3998   27.2388 C   0  0  0  0  0  0  0  0  0  0  0  0
   10.7241  -16.2715   28.0128 O   0  0  0  0  0  0  0  0  0  0  0  0
   10.8149  -18.5112   27.7883 O   0  0  0  0  0  0  0  0  0  0  0  0
  2  1  1  6
  3  2  1  0
  4  2  1  0
  4  6  1  0
  4  5  1  1
  6  7  2  0
  9  8  1  6
 10  9  1  0
 11  9  1  0
 12 11  1  1
 13  6  1  0
 13 12  1  0
 14 12  1  0
 14 15  2  0
 16 14  1  0
 17 16  1  0
 18 19  1  0
 17 18  1  6
 20 19  1  0
 21 22  1  0
 21 20  1  0
 23 17  1  0
 24 23  1  0
 25 23  2  0
M  END
$$$$
