VLK.pdb
     RDKit          3D

 25 24  0  0  1  0  0  0  0  0999 V2000
    7.1990  -18.2453   21.6792 C   0  0  0  0  0  0  0  0  0  0  0  0
    8.2247  -17.6148   20.7977 C   0  0  1  0  0  0  0  0  0  0  0  0
    7.9184  -17.9608   19.3598 C   0  0  0  0  0  0  0  0  0  0  0  0
    8.3014  -16.1124   20.8996 C   0  0  2  0  0  0  0  0  0  0  0  0
    9.3224  -15.7016   19.9409 N   0  0  0  0  0  0  0  0  0  0  0  0
    8.6275  -15.5904   22.2180 C   0  0  0  0  0  0  0  0  0  0  0  0
    9.8364  -15.7085   22.6181 O   0  0  0  0  0  0  0  0  0  0  0  0
    5.8458  -12.0850   26.3859 C   0  0  0  0  0  0  0  0  0  0  0  0
    7.1523  -12.8804   26.1634 C   0  0  2  0  0  0  0  0  0  0  0  0
    8.2699  -11.8711   26.2733 C   0  0  0  0  0  0  0  0  0  0  0  0
    7.1063  -13.4975   24.8236 C   0  0  0  0  0  0  0  0  0  0  0  0
    8.1682  -14.4592   24.4416 C   0  0  2  0  0  0  0  0  0  0  0  0
    7.7527  -14.9645   23.1095 N   0  0  0  0  0  0  0  0  0  0  0  0
    8.3783  -15.5988   25.3554 C   0  0  0  0  0  0  0  0  0  0  0  0
    7.4871  -16.5072   25.5070 O   0  0  0  0  0  0  0  0  0  0  0  0
    9.5544  -15.7862   26.1224 N   0  0  0  0  0  0  0  0  0  0  0  0
    9.8013  -17.0645   26.8214 C   0  0  1  0  0  0  0  0  0  0  0  0
   10.7210  -17.9246   25.9599 C   0  0  0  0  0  0  0  0  0  0  0  0
   11.0916  -19.2172   26.6139 C   0  0  0  0  0  0  0  0  0  0  0  0
   12.0897  -19.9909   25.7908 C   0  0  0  0  0  0  0  0  0  0  0  0
   12.4220  -21.3335   26.3951 C   0  0  0  0  0  0  0  0  0  0  0  0
   13.3524  -22.0019   25.4666 N   0  0  0  0  0  0  0  0  0  0  0  0
   10.3951  -16.7113   28.1252 C   0  0  0  0  0  0  0  0  0  0  0  0
   10.5695  -17.6409   29.1401 O   0  0  0  0  0  0  0  0  0  0  0  0
   10.7855  -15.5236   28.4015 O   0  0  0  0  0  0  0  0  0  0  0  0
  2  1  1  1
  3  2  1  0
  4  2  1  0
  4  6  1  0
  4  5  1  6
  6  7  2  0
  9  8  1  6
 10  9  1  0
 11  9  1  0
 12 11  1  1
 13  6  1  0
 13 12  1  0
 14 12  1  0
 14 15  2  0
 16 14  1  0
 17 16  1  0
 18 19  1  0
 17 18  1  6
 20 19  1  0
 21 22  1  0
 21 20  1  0
 23 17  1  0
 24 23  1  0
 25 23  2  0
M  END
$$$$
