VLK.pdb
     RDKit          3D

 25 24  0  0  1  0  0  0  0  0999 V2000
    7.1408  -18.2625   21.7804 C   0  0  0  0  0  0  0  0  0  0  0  0
    7.8476  -17.4982   20.7113 C   0  0  1  0  0  0  0  0  0  0  0  0
    7.3185  -17.9312   19.3645 C   0  0  0  0  0  0  0  0  0  0  0  0
    7.6925  -16.0013   20.8032 C   0  0  2  0  0  0  0  0  0  0  0  0
    8.4312  -15.4558   19.6688 N   0  0  0  0  0  0  0  0  0  0  0  0
    8.1712  -15.3972   22.0373 C   0  0  0  0  0  0  0  0  0  0  0  0
    9.4366  -15.3267   22.2087 O   0  0  0  0  0  0  0  0  0  0  0  0
    5.7427  -12.3124   26.7206 C   0  0  0  0  0  0  0  0  0  0  0  0
    7.0622  -12.9920   26.2892 C   0  0  2  0  0  0  0  0  0  0  0  0
    8.1167  -11.9127   26.3474 C   0  0  0  0  0  0  0  0  0  0  0  0
    6.8964  -13.5173   24.9201 C   0  0  0  0  0  0  0  0  0  0  0  0
    7.9539  -14.3898   24.3552 C   0  0  2  0  0  0  0  0  0  0  0  0
    7.3897  -14.8771   23.0720 N   0  0  0  0  0  0  0  0  0  0  0  0
    8.3615  -15.5424   25.1816 C   0  0  0  0  0  0  0  0  0  0  0  0
    7.5403  -16.4840   25.4673 O   0  0  0  0  0  0  0  0  0  0  0  0
    9.6635  -15.7075   25.7147 N   0  0  0  0  0  0  0  0  0  0  0  0
   10.0749  -16.9954   26.3111 C   0  0  1  0  0  0  0  0  0  0  0  0
   11.2080  -17.5830   25.4752 C   0  0  0  0  0  0  0  0  0  0  0  0
   11.7354  -18.8677   26.0294 C   0  0  0  0  0  0  0  0  0  0  0  0
   12.8322  -19.4372   25.1663 C   0  0  0  0  0  0  0  0  0  0  0  0
   13.3689  -20.7436   25.6986 C   0  0  0  0  0  0  0  0  0  0  0  0
   14.4467  -21.1670   24.7855 N   0  0  0  0  0  0  0  0  0  0  0  0
   10.4768  -16.6954   27.6987 C   0  0  0  0  0  0  0  0  0  0  0  0
   10.4759  -15.4065   28.2119 O   0  0  0  0  0  0  0  0  0  0  0  0
   10.8529  -17.6067   28.5158 O   0  0  0  0  0  0  0  0  0  0  0  0
  2  1  1  1
  3  2  1  0
  4  2  1  0
  4  6  1  0
  4  5  1  6
  6  7  2  0
  9  8  1  6
 10  9  1  0
 11  9  1  0
 12 11  1  1
 13  6  1  0
 13 12  1  0
 14 12  1  0
 14 15  2  0
 16 14  1  0
 17 16  1  0
 18 19  1  0
 17 18  1  6
 20 19  1  0
 21 22  1  0
 21 20  1  0
 23 17  1  0
 24 23  1  0
 25 23  2  0
M  END
$$$$
