VLK.pdb
     RDKit          3D

 25 24  0  0  1  0  0  0  0  0999 V2000
    8.0698  -13.8835   18.8160 C   0  0  0  0  0  0  0  0  0  0  0  0
    8.3658  -13.6190   20.2545 C   0  0  1  0  0  0  0  0  0  0  0  0
    7.3598  -12.6280   20.7903 C   0  0  0  0  0  0  0  0  0  0  0  0
    8.3206  -14.8393   21.1391 C   0  0  2  0  0  0  0  0  0  0  0  0
    7.0380  -15.4799   20.8654 N   0  0  0  0  0  0  0  0  0  0  0  0
    8.4471  -14.5831   22.5657 C   0  0  0  0  0  0  0  0  0  0  0  0
    9.6280  -14.4735   23.0441 O   0  0  0  0  0  0  0  0  0  0  0  0
    7.6933  -11.6850   26.3157 C   0  0  0  0  0  0  0  0  0  0  0  0
    6.3060  -12.0568   25.7446 C   0  0  2  0  0  0  0  0  0  0  0  0
    5.3241  -11.8187   26.8667 C   0  0  0  0  0  0  0  0  0  0  0  0
    6.3296  -13.4741   25.3339 C   0  0  0  0  0  0  0  0  0  0  0  0
    7.6167  -14.0747   24.9081 C   0  0  2  0  0  0  0  0  0  0  0  0
    7.4052  -14.4410   23.4856 N   0  0  0  0  0  0  0  0  0  0  0  0
    8.0644  -15.2630   25.6598 C   0  0  0  0  0  0  0  0  0  0  0  0
    8.2878  -15.2115   26.9208 O   0  0  0  0  0  0  0  0  0  0  0  0
    8.2774  -16.5333   25.0700 N   0  0  0  0  0  0  0  0  0  0  0  0
    8.4433  -17.7359   25.9125 C   0  0  1  0  0  0  0  0  0  0  0  0
    7.5794  -18.8568   25.3424 C   0  0  0  0  0  0  0  0  0  0  0  0
    7.7517  -20.1524   26.0688 C   0  0  0  0  0  0  0  0  0  0  0  0
    6.9815  -21.2671   25.4083 C   0  0  0  0  0  0  0  0  0  0  0  0
    7.1043  -22.5754   26.1509 C   0  0  0  0  0  0  0  0  0  0  0  0
    6.4542  -23.6032   25.3171 N   0  0  0  0  0  0  0  0  0  0  0  0
    9.8843  -18.0526   25.8964 C   0  0  0  0  0  0  0  0  0  0  0  0
   10.4817  -18.8521   26.8600 O   0  0  0  0  0  0  0  0  0  0  0  0
   10.6740  -17.6078   24.9919 O   0  0  0  0  0  0  0  0  0  0  0  0
  2  1  1  6
  3  2  1  0
  4  2  1  0
  4  6  1  0
  4  5  1  1
  6  7  2  0
  9  8  1  1
 10  9  1  0
 11  9  1  0
 12 11  1  1
 13  6  1  0
 13 12  1  0
 14 12  1  0
 14 15  2  0
 16 14  1  0
 17 16  1  0
 18 19  1  0
 17 18  1  6
 20 19  1  0
 21 22  1  0
 21 20  1  0
 23 17  1  0
 24 23  1  0
 25 23  2  0
M  END
$$$$
