VLK.pdb
     RDKit          3D

 25 24  0  0  1  0  0  0  0  0999 V2000
    7.8718  -13.4069   18.8154 C   0  0  0  0  0  0  0  0  0  0  0  0
    8.4631  -13.3435   20.1841 C   0  0  1  0  0  0  0  0  0  0  0  0
    7.7352  -12.2914   20.9869 C   0  0  0  0  0  0  0  0  0  0  0  0
    8.3954  -14.6362   20.9572 C   0  0  2  0  0  0  0  0  0  0  0  0
    7.0157  -15.0972   20.8387 N   0  0  0  0  0  0  0  0  0  0  0  0
    8.7638  -14.5452   22.3619 C   0  0  0  0  0  0  0  0  0  0  0  0
   10.0052  -14.4149   22.6401 O   0  0  0  0  0  0  0  0  0  0  0  0
    7.7889  -11.6410   25.9700 C   0  0  0  0  0  0  0  0  0  0  0  0
    6.6871  -12.5845   25.4362 C   0  0  2  0  0  0  0  0  0  0  0  0
    5.4632  -12.2996   26.2735 C   0  0  0  0  0  0  0  0  0  0  0  0
    7.1426  -13.9792   25.5956 C   0  0  0  0  0  0  0  0  0  0  0  0
    8.3514  -14.4256   24.8620 C   0  0  2  0  0  0  0  0  0  0  0  0
    7.8982  -14.5850   23.4578 N   0  0  0  0  0  0  0  0  0  0  0  0
    8.9698  -15.6833   25.3241 C   0  0  0  0  0  0  0  0  0  0  0  0
    9.2689  -15.8678   26.5566 O   0  0  0  0  0  0  0  0  0  0  0  0
    9.2756  -16.7706   24.4691 N   0  0  0  0  0  0  0  0  0  0  0  0
    9.9118  -17.9925   25.0038 C   0  0  1  0  0  0  0  0  0  0  0  0
    9.8584  -19.0805   23.9355 C   0  0  0  0  0  0  0  0  0  0  0  0
   10.4551  -20.3739   24.3905 C   0  0  0  0  0  0  0  0  0  0  0  0
   10.4839  -21.3940   23.2811 C   0  0  0  0  0  0  0  0  0  0  0  0
   11.0683  -22.7136   23.7227 C   0  0  0  0  0  0  0  0  0  0  0  0
   11.0944  -23.5884   22.5359 N   0  0  0  0  0  0  0  0  0  0  0  0
   11.2890  -17.6111   25.3710 C   0  0  0  0  0  0  0  0  0  0  0  0
   11.9782  -18.2197   26.4098 O   0  0  0  0  0  0  0  0  0  0  0  0
   11.9339  -16.6930   24.7538 O   0  0  0  0  0  0  0  0  0  0  0  0
  2  1  1  6
  3  2  1  0
  4  2  1  0
  4  6  1  0
  4  5  1  1
  6  7  2  0
  9  8  1  1
 10  9  1  0
 11  9  1  0
 12 11  1  1
 13  6  1  0
 13 12  1  0
 14 12  1  0
 14 15  2  0
 16 14  1  0
 17 16  1  0
 18 19  1  0
 17 18  1  6
 20 19  1  0
 21 22  1  0
 21 20  1  0
 23 17  1  0
 24 23  1  0
 25 23  2  0
M  END
$$$$
