VLK.pdb
     RDKit          3D

 25 24  0  0  1  0  0  0  0  0999 V2000
    7.4471  -16.1867   20.5930 C   0  0  0  0  0  0  0  0  0  0  0  0
    8.0822  -14.9227   20.1181 C   0  0  1  0  0  0  0  0  0  0  0  0
    7.6139  -14.6344   18.7114 C   0  0  0  0  0  0  0  0  0  0  0  0
    7.7731  -13.7105   20.9599 C   0  0  2  0  0  0  0  0  0  0  0  0
    8.3876  -12.5811   20.2693 N   0  0  0  0  0  0  0  0  0  0  0  0
    8.2496  -13.7645   22.3335 C   0  0  0  0  0  0  0  0  0  0  0  0
    9.4654  -13.4329   22.5508 O   0  0  0  0  0  0  0  0  0  0  0  0
    7.6955  -11.5054   26.3046 C   0  0  0  0  0  0  0  0  0  0  0  0
    6.5114  -12.3348   25.7578 C   0  0  2  0  0  0  0  0  0  0  0  0
    5.3784  -12.1232   26.7333 C   0  0  0  0  0  0  0  0  0  0  0  0
    6.9177  -13.7522   25.6950 C   0  0  0  0  0  0  0  0  0  0  0  0
    8.0664  -14.1302   24.8370 C   0  0  2  0  0  0  0  0  0  0  0  0
    7.5147  -14.1442   23.4594 N   0  0  0  0  0  0  0  0  0  0  0  0
    8.6983  -15.4320   25.1261 C   0  0  0  0  0  0  0  0  0  0  0  0
    8.9546  -15.7988   26.3272 O   0  0  0  0  0  0  0  0  0  0  0  0
    9.0642  -16.3683   24.1280 N   0  0  0  0  0  0  0  0  0  0  0  0
    9.6789  -17.6604   24.4973 C   0  0  1  0  0  0  0  0  0  0  0  0
    9.7527  -18.5413   23.2538 C   0  0  0  0  0  0  0  0  0  0  0  0
    8.4056  -18.9079   22.7183 C   0  0  0  0  0  0  0  0  0  0  0  0
    8.5101  -19.8565   21.5515 C   0  0  0  0  0  0  0  0  0  0  0  0
    7.1599  -20.2856   21.0312 C   0  0  0  0  0  0  0  0  0  0  0  0
    7.4050  -21.3115   20.0007 N   0  0  0  0  0  0  0  0  0  0  0  0
   11.0059  -17.3387   25.0565 C   0  0  0  0  0  0  0  0  0  0  0  0
   11.7615  -18.2648   25.7607 O   0  0  0  0  0  0  0  0  0  0  0  0
   11.5424  -16.1832   24.9275 O   0  0  0  0  0  0  0  0  0  0  0  0
  2  1  1  1
  3  2  1  0
  4  2  1  0
  4  6  1  0
  4  5  1  6
  6  7  2  0
  9  8  1  1
 10  9  1  0
 11  9  1  0
 12 11  1  1
 13  6  1  0
 13 12  1  0
 14 12  1  0
 14 15  2  0
 16 14  1  0
 17 16  1  0
 18 19  1  0
 17 18  1  6
 20 19  1  0
 21 22  1  0
 21 20  1  0
 23 17  1  0
 24 23  1  0
 25 23  2  0
M  END
$$$$
