VLK.pdb
     RDKit          3D

 25 24  0  0  1  0  0  0  0  0999 V2000
    7.8681  -19.1415   20.8508 C   0  0  0  0  0  0  0  0  0  0  0  0
    8.3509  -18.1952   21.8988 C   0  0  1  0  0  0  0  0  0  0  0  0
    9.8282  -18.4177   22.1206 C   0  0  0  0  0  0  0  0  0  0  0  0
    8.1532  -16.7377   21.5671 C   0  0  2  0  0  0  0  0  0  0  0  0
    8.9468  -16.4930   20.3669 N   0  0  0  0  0  0  0  0  0  0  0  0
    8.5394  -15.8004   22.6108 C   0  0  0  0  0  0  0  0  0  0  0  0
    9.7426  -15.3671   22.6003 O   0  0  0  0  0  0  0  0  0  0  0  0
    5.6101  -12.5859   26.9159 C   0  0  0  0  0  0  0  0  0  0  0  0
    7.0269  -12.8181   26.3434 C   0  0  2  0  0  0  0  0  0  0  0  0
    7.5042  -11.4658   25.8708 C   0  0  0  0  0  0  0  0  0  0  0  0
    6.9333  -13.7818   25.2296 C   0  0  0  0  0  0  0  0  0  0  0  0
    8.1838  -14.3054   24.6291 C   0  0  2  0  0  0  0  0  0  0  0  0
    7.7290  -15.3134   23.6394 N   0  0  0  0  0  0  0  0  0  0  0  0
    9.1449  -14.9292   25.5590 C   0  0  0  0  0  0  0  0  0  0  0  0
    9.8135  -14.2288   26.3988 O   0  0  0  0  0  0  0  0  0  0  0  0
    9.4035  -16.3211   25.6071 N   0  0  0  0  0  0  0  0  0  0  0  0
   10.3249  -16.8809   26.6177 C   0  0  1  0  0  0  0  0  0  0  0  0
    9.7118  -18.1569   27.1866 C   0  0  0  0  0  0  0  0  0  0  0  0
   10.5623  -18.7934   28.2389 C   0  0  0  0  0  0  0  0  0  0  0  0
    9.9629  -20.0854   28.7324 C   0  0  0  0  0  0  0  0  0  0  0  0
   10.7772  -20.7180   29.8346 C   0  0  0  0  0  0  0  0  0  0  0  0
   10.0566  -21.9341   30.2546 N   0  0  0  0  0  0  0  0  0  0  0  0
   11.6043  -17.1159   25.9213 C   0  0  0  0  0  0  0  0  0  0  0  0
   11.6764  -17.3512   24.5560 O   0  0  0  0  0  0  0  0  0  0  0  0
   12.7283  -17.1185   26.5345 O   0  0  0  0  0  0  0  0  0  0  0  0
  2  1  1  6
  3  2  1  0
  4  2  1  0
  4  6  1  0
  4  5  1  6
  6  7  2  0
  9  8  1  6
 10  9  1  0
 11  9  1  0
 12 11  1  1
 13  6  1  0
 13 12  1  0
 14 12  1  0
 14 15  2  0
 16 14  1  0
 17 16  1  0
 18 19  1  0
 17 18  1  6
 20 19  1  0
 21 22  1  0
 21 20  1  0
 23 17  1  0
 24 23  1  0
 25 23  2  0
M  END
$$$$
