VLK.pdb
     RDKit          3D

 25 24  0  0  1  0  0  0  0  0999 V2000
    7.0751  -21.0194   19.0659 C   0  0  0  0  0  0  0  0  0  0  0  0
    7.8000  -19.9497   19.8123 C   0  0  1  0  0  0  0  0  0  0  0  0
    9.1385  -20.4844   20.2636 C   0  0  0  0  0  0  0  0  0  0  0  0
    8.0541  -18.6930   19.0188 C   0  0  2  0  0  0  0  0  0  0  0  0
    8.7742  -19.1183   17.8226 N   0  0  0  0  0  0  0  0  0  0  0  0
    8.8131  -17.6605   19.7079 C   0  0  0  0  0  0  0  0  0  0  0  0
   10.0883  -17.7554   19.6934 O   0  0  0  0  0  0  0  0  0  0  0  0
    8.8051  -13.0448   19.1851 C   0  0  0  0  0  0  0  0  0  0  0  0
    7.6684  -13.7267   19.9802 C   0  0  2  0  0  0  0  0  0  0  0  0
    6.6979  -12.6251   20.3334 C   0  0  0  0  0  0  0  0  0  0  0  0
    8.2454  -14.3508   21.1866 C   0  0  0  0  0  0  0  0  0  0  0  0
    9.1439  -15.5197   21.0278 C   0  0  2  0  0  0  0  0  0  0  0  0
    8.2953  -16.5594   20.3944 N   0  0  0  0  0  0  0  0  0  0  0  0
    9.7402  -16.0592   22.2651 C   0  0  0  0  0  0  0  0  0  0  0  0
    9.0534  -16.7642   23.0861 O   0  0  0  0  0  0  0  0  0  0  0  0
   11.0900  -15.8542   22.6427 N   0  0  0  0  0  0  0  0  0  0  0  0
   11.7368  -16.7388   23.6342 C   0  0  1  0  0  0  0  0  0  0  0  0
   11.7981  -18.1524   23.0635 C   0  0  0  0  0  0  0  0  0  0  0  0
   12.4029  -19.1380   24.0115 C   0  0  0  0  0  0  0  0  0  0  0  0
   12.5517  -20.4984   23.3796 C   0  0  0  0  0  0  0  0  0  0  0  0
   13.1410  -21.5155   24.3264 C   0  0  0  0  0  0  0  0  0  0  0  0
   13.3722  -22.7441   23.5444 N   0  0  0  0  0  0  0  0  0  0  0  0
   13.0702  -16.1616   23.8910 C   0  0  0  0  0  0  0  0  0  0  0  0
   13.7392  -16.3391   25.0933 O   0  0  0  0  0  0  0  0  0  0  0  0
   13.6926  -15.4592   23.0199 O   0  0  0  0  0  0  0  0  0  0  0  0
  2  1  1  6
  3  2  1  0
  4  2  1  0
  4  6  1  0
  4  5  1  6
  6  7  2  0
  9  8  1  6
 10  9  1  0
 11  9  1  0
 12 11  1  1
 13  6  1  0
 13 12  1  0
 14 12  1  0
 14 15  2  0
 16 14  1  0
 17 16  1  0
 18 19  1  0
 17 18  1  6
 20 19  1  0
 21 22  1  0
 21 20  1  0
 23 17  1  0
 24 23  1  0
 25 23  2  0
M  END
$$$$
