VLK.pdb
     RDKit          3D

 25 24  0  0  1  0  0  0  0  0999 V2000
    6.7172  -19.4061   24.7843 C   0  0  0  0  0  0  0  0  0  0  0  0
    7.0993  -19.1835   23.3591 C   0  0  1  0  0  0  0  0  0  0  0  0
    6.3398  -20.1558   22.4878 C   0  0  0  0  0  0  0  0  0  0  0  0
    6.8198  -17.7942   22.8442 C   0  0  2  0  0  0  0  0  0  0  0  0
    7.2866  -17.7825   21.4614 N   0  0  0  0  0  0  0  0  0  0  0  0
    7.4520  -16.7133   23.5852 C   0  0  0  0  0  0  0  0  0  0  0  0
    8.6922  -16.4924   23.3653 O   0  0  0  0  0  0  0  0  0  0  0  0
    5.5939  -12.1874   27.2491 C   0  0  0  0  0  0  0  0  0  0  0  0
    6.8881  -12.8325   26.7034 C   0  0  2  0  0  0  0  0  0  0  0  0
    7.6347  -11.7227   26.0026 C   0  0  0  0  0  0  0  0  0  0  0  0
    6.5185  -13.9137   25.7695 C   0  0  0  0  0  0  0  0  0  0  0  0
    7.5772  -14.8281   25.2779 C   0  0  2  0  0  0  0  0  0  0  0  0
    6.8449  -15.8765   24.5249 N   0  0  0  0  0  0  0  0  0  0  0  0
    8.4229  -15.4630   26.3071 C   0  0  0  0  0  0  0  0  0  0  0  0
    7.9244  -16.2401   27.1960 O   0  0  0  0  0  0  0  0  0  0  0  0
    9.8243  -15.2775   26.3984 N   0  0  0  0  0  0  0  0  0  0  0  0
   10.6202  -16.0311   27.3896 C   0  0  1  0  0  0  0  0  0  0  0  0
   11.8913  -16.5376   26.7147 C   0  0  0  0  0  0  0  0  0  0  0  0
   11.6160  -17.4670   25.5761 C   0  0  0  0  0  0  0  0  0  0  0  0
   12.8906  -17.9611   24.9408 C   0  0  0  0  0  0  0  0  0  0  0  0
   12.6369  -18.9243   23.8068 C   0  0  0  0  0  0  0  0  0  0  0  0
   13.9562  -19.3508   23.3048 N   0  0  0  0  0  0  0  0  0  0  0  0
   10.8888  -15.0947   28.4978 C   0  0  0  0  0  0  0  0  0  0  0  0
   10.5684  -13.7467   28.4276 O   0  0  0  0  0  0  0  0  0  0  0  0
   11.4360  -15.4681   29.5936 O   0  0  0  0  0  0  0  0  0  0  0  0
  2  1  1  1
  3  2  1  0
  4  2  1  0
  4  6  1  0
  4  5  1  6
  6  7  2  0
  9  8  1  6
 10  9  1  0
 11  9  1  0
 12 11  1  1
 13  6  1  0
 13 12  1  0
 14 12  1  0
 14 15  2  0
 16 14  1  0
 17 16  1  0
 18 19  1  0
 17 18  1  6
 20 19  1  0
 21 22  1  0
 21 20  1  0
 23 17  1  0
 24 23  1  0
 25 23  2  0
M  END
$$$$
