VLK.pdb
     RDKit          3D

 25 24  0  0  1  0  0  0  0  0999 V2000
    8.8778  -20.1607   19.1769 C   0  0  0  0  0  0  0  0  0  0  0  0
    9.4718  -19.6356   17.9127 C   0  0  1  0  0  0  0  0  0  0  0  0
    8.9940  -20.4807   16.7557 C   0  0  0  0  0  0  0  0  0  0  0  0
    9.1243  -18.2011   17.6047 C   0  0  2  0  0  0  0  0  0  0  0  0
    9.7934  -17.8928   16.3447 N   0  0  0  0  0  0  0  0  0  0  0  0
    9.5134  -17.2316   18.6174 C   0  0  0  0  0  0  0  0  0  0  0  0
   10.7633  -17.0136   18.7776 O   0  0  0  0  0  0  0  0  0  0  0  0
    8.8073  -12.6899   19.4278 C   0  0  0  0  0  0  0  0  0  0  0  0
    7.6453  -13.6898   19.6254 C   0  0  2  0  0  0  0  0  0  0  0  0
    6.4442  -12.8536   19.9968 C   0  0  0  0  0  0  0  0  0  0  0  0
    8.0094  -14.6285   20.7044 C   0  0  0  0  0  0  0  0  0  0  0  0
    9.1420  -15.5612   20.4900 C   0  0  2  0  0  0  0  0  0  0  0  0
    8.6597  -16.5007   19.4473 N   0  0  0  0  0  0  0  0  0  0  0  0
    9.5922  -16.3255   21.6693 C   0  0  0  0  0  0  0  0  0  0  0  0
    8.8746  -17.2595   22.1746 O   0  0  0  0  0  0  0  0  0  0  0  0
   10.8268  -16.1027   22.3273 N   0  0  0  0  0  0  0  0  0  0  0  0
   11.2635  -16.9872   23.4276 C   0  0  1  0  0  0  0  0  0  0  0  0
   12.7647  -17.2266   23.2978 C   0  0  0  0  0  0  0  0  0  0  0  0
   13.1112  -18.1666   22.1878 C   0  0  0  0  0  0  0  0  0  0  0  0
   14.5976  -18.4017   22.1015 C   0  0  0  0  0  0  0  0  0  0  0  0
   14.9581  -19.4663   21.0942 C   0  0  0  0  0  0  0  0  0  0  0  0
   16.4272  -19.4546   20.9668 N   0  0  0  0  0  0  0  0  0  0  0  0
   10.8949  -16.2978   24.6791 C   0  0  0  0  0  0  0  0  0  0  0  0
   10.9912  -16.9079   25.9213 O   0  0  0  0  0  0  0  0  0  0  0  0
   10.4618  -15.0929   24.6962 O   0  0  0  0  0  0  0  0  0  0  0  0
  2  1  1  1
  3  2  1  0
  4  2  1  0
  4  6  1  0
  4  5  1  6
  6  7  2  0
  9  8  1  1
 10  9  1  0
 11  9  1  0
 12 11  1  1
 13  6  1  0
 13 12  1  0
 14 12  1  0
 14 15  2  0
 16 14  1  0
 17 16  1  0
 18 19  1  0
 17 18  1  1
 20 19  1  0
 21 22  1  0
 21 20  1  0
 23 17  1  0
 24 23  1  0
 25 23  2  0
M  END
$$$$
