VLK.pdb
     RDKit          3D

 25 24  0  0  1  0  0  0  0  0999 V2000
    7.3037  -18.2047   21.7103 C   0  0  0  0  0  0  0  0  0  0  0  0
    8.0381  -17.3820   20.7051 C   0  0  1  0  0  0  0  0  0  0  0  0
    7.6012  -17.7922   19.3187 C   0  0  0  0  0  0  0  0  0  0  0  0
    7.8204  -15.8953   20.8315 C   0  0  2  0  0  0  0  0  0  0  0  0
    8.5851  -15.2890   19.7462 N   0  0  0  0  0  0  0  0  0  0  0  0
    8.2214  -15.3099   22.1016 C   0  0  0  0  0  0  0  0  0  0  0  0
    9.4744  -15.2124   22.3382 O   0  0  0  0  0  0  0  0  0  0  0  0
    5.4596  -12.4354   26.7412 C   0  0  0  0  0  0  0  0  0  0  0  0
    6.8201  -13.0595   26.3558 C   0  0  2  0  0  0  0  0  0  0  0  0
    7.8324  -11.9466   26.4850 C   0  0  0  0  0  0  0  0  0  0  0  0
    6.7341  -13.5585   24.9696 C   0  0  0  0  0  0  0  0  0  0  0  0
    7.8649  -14.3449   24.4204 C   0  0  2  0  0  0  0  0  0  0  0  0
    7.3762  -14.8346   23.1075 N   0  0  0  0  0  0  0  0  0  0  0  0
    8.3210  -15.4895   25.2325 C   0  0  0  0  0  0  0  0  0  0  0  0
    7.5212  -16.4340   25.5655 O   0  0  0  0  0  0  0  0  0  0  0  0
    9.6494  -15.6432   25.7001 N   0  0  0  0  0  0  0  0  0  0  0  0
   10.0625  -16.8768   26.4010 C   0  0  1  0  0  0  0  0  0  0  0  0
   11.1992  -17.5277   25.6188 C   0  0  0  0  0  0  0  0  0  0  0  0
   10.9906  -18.9916   25.3970 C   0  0  0  0  0  0  0  0  0  0  0  0
   12.1369  -19.6080   24.6365 C   0  0  0  0  0  0  0  0  0  0  0  0
   11.9636  -21.0931   24.4307 C   0  0  0  0  0  0  0  0  0  0  0  0
   13.1090  -21.5493   23.6218 N   0  0  0  0  0  0  0  0  0  0  0  0
   10.4601  -16.4629   27.7604 C   0  0  0  0  0  0  0  0  0  0  0  0
   10.8162  -17.3759   28.7423 O   0  0  0  0  0  0  0  0  0  0  0  0
   10.5000  -15.2342   28.1188 O   0  0  0  0  0  0  0  0  0  0  0  0
  2  1  1  1
  3  2  1  0
  4  2  1  0
  4  6  1  0
  4  5  1  6
  6  7  2  0
  9  8  1  6
 10  9  1  0
 11  9  1  0
 12 11  1  1
 13  6  1  0
 13 12  1  0
 14 12  1  0
 14 15  2  0
 16 14  1  0
 17 16  1  0
 18 19  1  0
 17 18  1  6
 20 19  1  0
 21 22  1  0
 21 20  1  0
 23 17  1  0
 24 23  1  0
 25 23  2  0
M  END
$$$$
