FAP.pdb
     RDKit          3D

 24 25  0  0  1  0  0  0  0  0999 V2000
    6.3437  -16.7879   25.8909 N   0  0  0  0  0  0  0  0  0  0  0  0
    6.8225  -15.7006   25.0811 C   0  0  1  0  0  0  0  0  0  0  0  0
    7.9844  -14.9896   25.7231 C   0  0  0  0  0  0  0  0  0  0  0  0
    7.4488  -13.7117   26.2883 C   0  0  0  0  0  0  0  0  0  0  0  0
    7.7937  -13.2737   27.5478 C   0  0  0  0  0  0  0  0  0  0  0  0
    7.2905  -12.0843   28.0643 C   0  0  0  0  0  0  0  0  0  0  0  0
    6.4243  -11.3196   27.3021 C   0  0  0  0  0  0  0  0  0  0  0  0
    6.0686  -11.7397   26.0439 C   0  0  0  0  0  0  0  0  0  0  0  0
    6.5849  -12.9314   25.5509 C   0  0  0  0  0  0  0  0  0  0  0  0
    7.1262  -16.1913   23.7183 C   0  0  0  0  0  0  0  0  0  0  0  0
    7.5925  -17.3467   23.6144 O   0  0  0  0  0  0  0  0  0  0  0  0
    7.3632  -14.4378   20.3655 C   0  0  0  0  0  0  0  0  0  0  0  0
    7.4087  -15.6426   21.2467 C   0  0  2  0  0  0  0  0  0  0  0  0
    6.9107  -15.4142   22.5610 N   0  0  0  0  0  0  0  0  0  0  0  0
    8.7249  -16.3649   21.2084 C   0  0  0  0  0  0  0  0  0  0  0  0
    9.5435  -16.2029   22.1416 O   0  0  0  0  0  0  0  0  0  0  0  0
    9.0916  -17.2355   20.1521 N   0  0  0  0  0  0  0  0  0  0  0  0
    8.4150  -17.4967   18.9045 C   0  0  0  0  0  0  0  0  0  0  0  0
    8.6176  -19.0002   18.7373 C   0  0  0  0  0  0  0  0  0  0  0  0
    9.7336  -19.3883   19.6429 C   0  0  0  0  0  0  0  0  0  0  0  0
   10.2786  -18.0665   20.1337 C   0  0  1  0  0  0  0  0  0  0  0  0
   11.2768  -17.5905   19.1507 C   0  0  0  0  0  0  0  0  0  0  0  0
   11.0258  -16.6242   18.1889 O   0  0  0  0  0  0  0  0  0  0  0  0
   12.4335  -18.0776   19.1687 O   0  0  0  0  0  0  0  0  0  0  0  0
  2  1  1  1
  2 10  1  0
  3  2  1  0
  4  3  1  0
  5  4  2  0
  6  5  1  0
  7  6  2  0
  7  8  1  0
  8  9  2  0
  9  4  1  0
 10 11  2  0
 13 12  1  1
 13 15  1  0
 14 13  1  0
 14 10  1  0
 15 16  2  0
 15 17  1  0
 17 18  1  0
 17 21  1  0
 18 19  1  0
 20 19  1  0
 20 21  1  0
 21 22  1  6
 22 24  2  0
 22 23  1  0
M  END
$$$$
