FAP.pdb
     RDKit          3D

 24 25  0  0  1  0  0  0  0  0999 V2000
    6.5978  -18.2408   20.3303 N   0  0  0  0  0  0  0  0  0  0  0  0
    6.9919  -16.9084   20.7001 C   0  0  1  0  0  0  0  0  0  0  0  0
    6.4331  -15.8744   19.7587 C   0  0  0  0  0  0  0  0  0  0  0  0
    7.1845  -14.6061   20.0163 C   0  0  0  0  0  0  0  0  0  0  0  0
    8.3103  -14.2701   19.2974 C   0  0  0  0  0  0  0  0  0  0  0  0
    9.0019  -13.0888   19.5444 C   0  0  0  0  0  0  0  0  0  0  0  0
    8.5549  -12.2280   20.5319 C   0  0  0  0  0  0  0  0  0  0  0  0
    7.4343  -12.5456   21.2594 C   0  0  0  0  0  0  0  0  0  0  0  0
    6.7614  -13.7314   20.9934 C   0  0  0  0  0  0  0  0  0  0  0  0
    6.6331  -16.6576   22.1138 C   0  0  0  0  0  0  0  0  0  0  0  0
    5.4188  -16.5366   22.3854 O   0  0  0  0  0  0  0  0  0  0  0  0
    7.2268  -17.6871   25.2739 C   0  0  0  0  0  0  0  0  0  0  0  0
    7.3743  -16.3965   24.5369 C   0  0  2  0  0  0  0  0  0  0  0  0
    7.5960  -16.5534   23.1392 N   0  0  0  0  0  0  0  0  0  0  0  0
    8.3132  -15.4302   25.2005 C   0  0  0  0  0  0  0  0  0  0  0  0
    9.3898  -15.1317   24.6357 O   0  0  0  0  0  0  0  0  0  0  0  0
    8.0359  -14.8291   26.4535 N   0  0  0  0  0  0  0  0  0  0  0  0
    6.9364  -15.0640   27.3581 C   0  0  0  0  0  0  0  0  0  0  0  0
    6.6255  -13.6560   27.8588 C   0  0  0  0  0  0  0  0  0  0  0  0
    7.8161  -12.8166   27.5524 C   0  0  0  0  0  0  0  0  0  0  0  0
    8.8527  -13.8138   27.0873 C   0  0  1  0  0  0  0  0  0  0  0  0
    9.5573  -14.3307   28.2813 C   0  0  0  0  0  0  0  0  0  0  0  0
    9.4139  -15.6178   28.7759 O   0  0  0  0  0  0  0  0  0  0  0  0
   10.3417  -13.5741   28.9041 O   0  0  0  0  0  0  0  0  0  0  0  0
  2  1  1  6
  2 10  1  0
  3  2  1  0
  4  3  1  0
  5  4  2  0
  6  5  1  0
  7  6  2  0
  7  8  1  0
  8  9  2  0
  9  4  1  0
 10 11  2  0
 13 12  1  1
 13 15  1  0
 14 13  1  0
 14 10  1  0
 15 16  2  0
 15 17  1  0
 17 18  1  0
 17 21  1  0
 18 19  1  0
 20 19  1  0
 20 21  1  0
 21 22  1  1
 22 24  2  0
 22 23  1  0
M  END
$$$$
