FAP.pdb
     RDKit          3D

 24 25  0  0  1  0  0  0  0  0999 V2000
    5.6404  -17.6131   25.8714 N   0  0  0  0  0  0  0  0  0  0  0  0
    6.2976  -16.3622   25.6057 C   0  0  1  0  0  0  0  0  0  0  0  0
    7.0075  -15.8296   26.8223 C   0  0  0  0  0  0  0  0  0  0  0  0
    7.1913  -14.3604   26.6055 C   0  0  0  0  0  0  0  0  0  0  0  0
    8.4325  -13.8102   26.3738 C   0  0  0  0  0  0  0  0  0  0  0  0
    8.5932  -12.4431   26.1733 C   0  0  0  0  0  0  0  0  0  0  0  0
    7.4866  -11.6122   26.2061 C   0  0  0  0  0  0  0  0  0  0  0  0
    6.2406  -12.1421   26.4357 C   0  0  0  0  0  0  0  0  0  0  0  0
    6.1068  -13.5106   26.6329 C   0  0  0  0  0  0  0  0  0  0  0  0
    7.1890  -16.5075   24.4333 C   0  0  0  0  0  0  0  0  0  0  0  0
    8.0258  -17.4360   24.4595 O   0  0  0  0  0  0  0  0  0  0  0  0
    7.7096  -14.4973   21.2394 C   0  0  0  0  0  0  0  0  0  0  0  0
    7.9917  -15.6181   22.1852 C   0  0  2  0  0  0  0  0  0  0  0  0
    7.1248  -15.6511   23.3143 N   0  0  0  0  0  0  0  0  0  0  0  0
    9.4469  -15.7633   22.5270 C   0  0  0  0  0  0  0  0  0  0  0  0
    9.8694  -15.3235   23.6202 O   0  0  0  0  0  0  0  0  0  0  0  0
   10.3802  -16.3844   21.6600 N   0  0  0  0  0  0  0  0  0  0  0  0
   10.1865  -16.9050   20.3282 C   0  0  0  0  0  0  0  0  0  0  0  0
   11.0361  -18.1727   20.3517 C   0  0  0  0  0  0  0  0  0  0  0  0
   11.9679  -18.0462   21.5057 C   0  0  0  0  0  0  0  0  0  0  0  0
   11.7752  -16.6213   21.9726 C   0  0  1  0  0  0  0  0  0  0  0  0
   12.6781  -15.7555   21.1825 C   0  0  0  0  0  0  0  0  0  0  0  0
   13.9772  -15.4410   21.5501 O   0  0  0  0  0  0  0  0  0  0  0  0
   12.2644  -15.2618   20.1050 O   0  0  0  0  0  0  0  0  0  0  0  0
  2  1  1  1
  2 10  1  0
  3  2  1  0
  4  3  1  0
  5  4  2  0
  6  5  1  0
  7  6  2  0
  7  8  1  0
  8  9  2  0
  9  4  1  0
 10 11  2  0
 13 12  1  1
 13 15  1  0
 14 13  1  0
 14 10  1  0
 15 16  2  0
 15 17  1  0
 17 18  1  0
 17 21  1  0
 18 19  1  0
 20 19  1  0
 20 21  1  0
 21 22  1  6
 22 24  2  0
 22 23  1  0
M  END
$$$$
