FAP.pdb
     RDKit          3D

 24 25  0  0  1  0  0  0  0  0999 V2000
    6.6575  -17.0797   19.8544 N   0  0  0  0  0  0  0  0  0  0  0  0
    7.7008  -16.9811   20.8388 C   0  0  1  0  0  0  0  0  0  0  0  0
    8.8766  -16.1863   20.3354 C   0  0  0  0  0  0  0  0  0  0  0  0
    8.3810  -14.7972   20.0815 C   0  0  0  0  0  0  0  0  0  0  0  0
    7.8440  -14.4282   18.8681 C   0  0  0  0  0  0  0  0  0  0  0  0
    7.3859  -13.1344   18.6419 C   0  0  0  0  0  0  0  0  0  0  0  0
    7.4686  -12.1928   19.6531 C   0  0  0  0  0  0  0  0  0  0  0  0
    8.0010  -12.5417   20.8700 C   0  0  0  0  0  0  0  0  0  0  0  0
    8.4514  -13.8404   21.0707 C   0  0  0  0  0  0  0  0  0  0  0  0
    7.1435  -16.4515   22.1033 C   0  0  0  0  0  0  0  0  0  0  0  0
    6.1555  -15.6897   22.0211 O   0  0  0  0  0  0  0  0  0  0  0  0
    6.5785  -17.3228   25.4803 C   0  0  0  0  0  0  0  0  0  0  0  0
    7.2642  -16.2937   24.6430 C   0  0  2  0  0  0  0  0  0  0  0  0
    7.6798  -16.7722   23.3679 N   0  0  0  0  0  0  0  0  0  0  0  0
    8.3219  -15.5257   25.3825 C   0  0  0  0  0  0  0  0  0  0  0  0
    9.5124  -15.5945   25.0016 O   0  0  0  0  0  0  0  0  0  0  0  0
    8.0344  -14.7129   26.5073 N   0  0  0  0  0  0  0  0  0  0  0  0
    6.7848  -14.5226   27.2037 C   0  0  0  0  0  0  0  0  0  0  0  0
    6.8172  -13.0298   27.5202 C   0  0  0  0  0  0  0  0  0  0  0  0
    8.2319  -12.5892   27.3772 C   0  0  0  0  0  0  0  0  0  0  0  0
    8.9975  -13.8805   27.1994 C   0  0  1  0  0  0  0  0  0  0  0  0
    9.3248  -14.4063   28.5431 C   0  0  0  0  0  0  0  0  0  0  0  0
    8.7379  -15.5289   29.1062 O   0  0  0  0  0  0  0  0  0  0  0  0
   10.1871  -13.8154   29.2380 O   0  0  0  0  0  0  0  0  0  0  0  0
  2  1  1  6
  2 10  1  0
  3  2  1  0
  4  3  1  0
  5  4  2  0
  6  5  1  0
  7  6  2  0
  7  8  1  0
  8  9  2  0
  9  4  1  0
 10 11  2  0
 13 12  1  1
 13 15  1  0
 14 13  1  0
 14 10  1  0
 15 16  2  0
 15 17  1  0
 17 18  1  0
 17 21  1  0
 18 19  1  0
 20 19  1  0
 20 21  1  0
 21 22  1  1
 22 24  2  0
 22 23  1  0
M  END
$$$$
