FAP.pdb
     RDKit          3D

 24 25  0  0  1  0  0  0  0  0999 V2000
    6.2748  -15.3237   22.6266 N   0  0  0  0  0  0  0  0  0  0  0  0
    7.6934  -15.1379   22.7690 C   0  0  1  0  0  0  0  0  0  0  0  0
    8.0731  -13.6806   22.7690 C   0  0  0  0  0  0  0  0  0  0  0  0
    7.4076  -13.0618   23.9580 C   0  0  0  0  0  0  0  0  0  0  0  0
    6.2314  -13.5601   24.4730 C   0  0  0  0  0  0  0  0  0  0  0  0
    5.6204  -12.9779   25.5788 C   0  0  0  0  0  0  0  0  0  0  0  0
    6.2012  -11.8741   26.1791 C   0  0  0  0  0  0  0  0  0  0  0  0
    7.3740  -11.3628   25.6801 C   0  0  0  0  0  0  0  0  0  0  0  0
    7.9642  -11.9625   24.5748 C   0  0  0  0  0  0  0  0  0  0  0  0
    8.1721  -15.8603   23.9687 C   0  0  0  0  0  0  0  0  0  0  0  0
    7.4759  -15.7789   25.0040 O   0  0  0  0  0  0  0  0  0  0  0  0
   10.5384  -18.6583   24.6386 C   0  0  0  0  0  0  0  0  0  0  0  0
    9.9125  -17.3686   25.0573 C   0  0  2  0  0  0  0  0  0  0  0  0
    9.3609  -16.6193   23.9794 N   0  0  0  0  0  0  0  0  0  0  0  0
   10.7692  -16.5601   25.9889 C   0  0  0  0  0  0  0  0  0  0  0  0
   11.6095  -15.7619   25.5157 O   0  0  0  0  0  0  0  0  0  0  0  0
   10.6713  -16.6567   27.3993 N   0  0  0  0  0  0  0  0  0  0  0  0
    9.7026  -17.3619   28.2035 C   0  0  0  0  0  0  0  0  0  0  0  0
    9.4775  -16.3919   29.3602 C   0  0  0  0  0  0  0  0  0  0  0  0
   10.6242  -15.4426   29.3563 C   0  0  0  0  0  0  0  0  0  0  0  0
   11.5773  -16.0296   28.3404 C   0  0  1  0  0  0  0  0  0  0  0  0
   12.4323  -17.0182   29.0339 C   0  0  0  0  0  0  0  0  0  0  0  0
   12.2878  -18.3921   28.9189 O   0  0  0  0  0  0  0  0  0  0  0  0
   13.3558  -16.6114   29.7805 O   0  0  0  0  0  0  0  0  0  0  0  0
  2  1  1  1
  2 10  1  0
  3  2  1  0
  4  3  1  0
  5  4  2  0
  6  5  1  0
  7  6  2  0
  7  8  1  0
  8  9  2  0
  9  4  1  0
 10 11  2  0
 13 12  1  6
 13 15  1  0
 14 13  1  0
 14 10  1  0
 15 16  2  0
 15 17  1  0
 17 18  1  0
 17 21  1  0
 18 19  1  0
 20 19  1  0
 20 21  1  0
 21 22  1  1
 22 24  2  0
 22 23  1  0
M  END
$$$$
