FAP.pdb
     RDKit          3D

 24 25  0  0  1  0  0  0  0  0999 V2000
    7.1398  -17.5651   25.3577 N   0  0  0  0  0  0  0  0  0  0  0  0
    6.9031  -16.1611   25.5582 C   0  0  1  0  0  0  0  0  0  0  0  0
    7.2808  -15.7193   26.9474 C   0  0  0  0  0  0  0  0  0  0  0  0
    7.0880  -14.2361   26.9954 C   0  0  0  0  0  0  0  0  0  0  0  0
    5.8346  -13.6656   26.9739 C   0  0  0  0  0  0  0  0  0  0  0  0
    5.6657  -12.2856   27.0189 C   0  0  0  0  0  0  0  0  0  0  0  0
    6.7764  -11.4623   27.0868 C   0  0  0  0  0  0  0  0  0  0  0  0
    8.0344  -12.0124   27.1092 C   0  0  0  0  0  0  0  0  0  0  0  0
    8.1763  -13.3935   27.0632 C   0  0  0  0  0  0  0  0  0  0  0  0
    7.5855  -15.3850   24.4989 C   0  0  0  0  0  0  0  0  0  0  0  0
    7.2356  -14.1950   24.3428 O   0  0  0  0  0  0  0  0  0  0  0  0
   10.5908  -15.8004   22.2746 C   0  0  0  0  0  0  0  0  0  0  0  0
    9.1824  -15.3653   22.5142 C   0  0  2  0  0  0  0  0  0  0  0  0
    8.5942  -15.9338   23.6798 N   0  0  0  0  0  0  0  0  0  0  0  0
    8.3140  -15.4423   21.2913 C   0  0  0  0  0  0  0  0  0  0  0  0
    7.3758  -16.2703   21.2536 O   0  0  0  0  0  0  0  0  0  0  0  0
    8.5062  -14.6102   20.1604 N   0  0  0  0  0  0  0  0  0  0  0  0
    9.4632  -13.5496   19.9565 C   0  0  0  0  0  0  0  0  0  0  0  0
    8.6376  -12.5125   19.1999 C   0  0  0  0  0  0  0  0  0  0  0  0
    7.4443  -13.2209   18.6610 C   0  0  0  0  0  0  0  0  0  0  0  0
    7.7332  -14.6789   18.9367 C   0  0  1  0  0  0  0  0  0  0  0  0
    8.5260  -15.2094   17.8058 C   0  0  0  0  0  0  0  0  0  0  0  0
    7.9847  -15.6171   16.5964 O   0  0  0  0  0  0  0  0  0  0  0  0
    9.7719  -15.3061   17.9242 O   0  0  0  0  0  0  0  0  0  0  0  0
  2  1  1  1
  2 10  1  0
  3  2  1  0
  4  3  1  0
  5  4  2  0
  6  5  1  0
  7  6  2  0
  7  8  1  0
  8  9  2  0
  9  4  1  0
 10 11  2  0
 13 12  1  6
 13 15  1  0
 14 13  1  0
 14 10  1  0
 15 16  2  0
 15 17  1  0
 17 18  1  0
 17 21  1  0
 18 19  1  0
 20 19  1  0
 20 21  1  0
 21 22  1  6
 22 24  2  0
 22 23  1  0
M  END
$$$$
