FAP.pdb
     RDKit          3D

 24 25  0  0  1  0  0  0  0  0999 V2000
    6.4568  -16.6921   21.4031 N   0  0  0  0  0  0  0  0  0  0  0  0
    6.9022  -15.6591   22.2985 C   0  0  1  0  0  0  0  0  0  0  0  0
    6.0771  -14.4062   22.1677 C   0  0  0  0  0  0  0  0  0  0  0  0
    6.5790  -13.4494   23.2031 C   0  0  0  0  0  0  0  0  0  0  0  0
    7.6612  -12.6298   22.9707 C   0  0  0  0  0  0  0  0  0  0  0  0
    8.1203  -11.7436   23.9397 C   0  0  0  0  0  0  0  0  0  0  0  0
    7.4807  -11.6788   25.1656 C   0  0  0  0  0  0  0  0  0  0  0  0
    6.3999  -12.4881   25.4161 C   0  0  0  0  0  0  0  0  0  0  0  0
    5.9610  -13.3647   24.4318 C   0  0  0  0  0  0  0  0  0  0  0  0
    6.9428  -16.1831   23.6820 C   0  0  0  0  0  0  0  0  0  0  0  0
    5.8639  -16.5698   24.1816 O   0  0  0  0  0  0  0  0  0  0  0  0
    7.7962  -18.1195   25.9849 C   0  0  0  0  0  0  0  0  0  0  0  0
    8.2969  -16.7291   25.7695 C   0  0  2  0  0  0  0  0  0  0  0  0
    8.1326  -16.2579   24.4359 N   0  0  0  0  0  0  0  0  0  0  0  0
    9.6659  -16.4892   26.3386 C   0  0  0  0  0  0  0  0  0  0  0  0
   10.6668  -16.5749   25.5917 O   0  0  0  0  0  0  0  0  0  0  0  0
    9.8842  -16.1642   27.7006 N   0  0  0  0  0  0  0  0  0  0  0  0
    8.9277  -16.0159   28.7709 C   0  0  0  0  0  0  0  0  0  0  0  0
    9.4899  -14.8245   29.5418 C   0  0  0  0  0  0  0  0  0  0  0  0
   10.9105  -14.6720   29.1240 C   0  0  0  0  0  0  0  0  0  0  0  0
   11.1798  -15.9083   28.2969 C   0  0  1  0  0  0  0  0  0  0  0  0
   11.5940  -16.9915   29.2157 C   0  0  0  0  0  0  0  0  0  0  0  0
   12.8612  -17.1062   29.7660 O   0  0  0  0  0  0  0  0  0  0  0  0
   10.7619  -17.8760   29.5333 O   0  0  0  0  0  0  0  0  0  0  0  0
  2  1  1  6
  2 10  1  0
  3  2  1  0
  4  3  1  0
  5  4  2  0
  6  5  1  0
  7  6  2  0
  7  8  1  0
  8  9  2  0
  9  4  1  0
 10 11  2  0
 13 12  1  6
 13 15  1  0
 14 13  1  0
 14 10  1  0
 15 16  2  0
 15 17  1  0
 17 18  1  0
 17 21  1  0
 18 19  1  0
 20 19  1  0
 20 21  1  0
 21 22  1  1
 22 24  2  0
 22 23  1  0
M  END
$$$$
