FAP.pdb
     RDKit          3D

 24 25  0  0  1  0  0  0  0  0999 V2000
    5.7476  -17.5094   25.6528 N   0  0  0  0  0  0  0  0  0  0  0  0
    6.4201  -16.2693   25.3746 C   0  0  1  0  0  0  0  0  0  0  0  0
    7.2471  -15.8028   26.5434 C   0  0  0  0  0  0  0  0  0  0  0  0
    7.0562  -14.3218   26.6427 C   0  0  0  0  0  0  0  0  0  0  0  0
    8.0946  -13.4404   26.4378 C   0  0  0  0  0  0  0  0  0  0  0  0
    7.9071  -12.0653   26.5322 C   0  0  0  0  0  0  0  0  0  0  0  0
    6.6532  -11.5653   26.8384 C   0  0  0  0  0  0  0  0  0  0  0  0
    5.6053  -12.4282   27.0462 C   0  0  0  0  0  0  0  0  0  0  0  0
    5.8186  -13.7973   26.9460 C   0  0  0  0  0  0  0  0  0  0  0  0
    7.2041  -16.3976   24.1259 C   0  0  0  0  0  0  0  0  0  0  0  0
    7.9475  -17.3966   24.0145 O   0  0  0  0  0  0  0  0  0  0  0  0
    7.7597  -14.1645   21.0978 C   0  0  0  0  0  0  0  0  0  0  0  0
    7.8622  -15.4471   21.8560 C   0  0  2  0  0  0  0  0  0  0  0  0
    7.1397  -15.4501   23.0830 N   0  0  0  0  0  0  0  0  0  0  0  0
    9.2670  -15.9652   21.9721 C   0  0  0  0  0  0  0  0  0  0  0  0
    9.8922  -15.8137   23.0460 O   0  0  0  0  0  0  0  0  0  0  0  0
    9.9301  -16.6286   20.9098 N   0  0  0  0  0  0  0  0  0  0  0  0
    9.4789  -16.8761   19.5616 C   0  0  0  0  0  0  0  0  0  0  0  0
   10.0032  -18.2856   19.3007 C   0  0  0  0  0  0  0  0  0  0  0  0
   11.0556  -18.5499   20.3199 C   0  0  0  0  0  0  0  0  0  0  0  0
   11.2549  -17.2100   20.9909 C   0  0  1  0  0  0  0  0  0  0  0  0
   12.2475  -16.4472   20.2022 C   0  0  0  0  0  0  0  0  0  0  0  0
   11.9217  -15.5298   19.2153 O   0  0  0  0  0  0  0  0  0  0  0  0
   13.4705  -16.6242   20.4224 O   0  0  0  0  0  0  0  0  0  0  0  0
  2  1  1  1
  2 10  1  0
  3  2  1  0
  4  3  1  0
  5  4  2  0
  6  5  1  0
  7  6  2  0
  7  8  1  0
  8  9  2  0
  9  4  1  0
 10 11  2  0
 13 12  1  1
 13 15  1  0
 14 13  1  0
 14 10  1  0
 15 16  2  0
 15 17  1  0
 17 18  1  0
 17 21  1  0
 18 19  1  0
 20 19  1  0
 20 21  1  0
 21 22  1  6
 22 24  2  0
 22 23  1  0
M  END
$$$$
