FAP.pdb
     RDKit          3D

 24 25  0  0  1  0  0  0  0  0999 V2000
    9.5479  -15.2303   22.0831 N   0  0  0  0  0  0  0  0  0  0  0  0
    9.0195  -14.6216   23.2737 C   0  0  1  0  0  0  0  0  0  0  0  0
    7.5143  -14.6564   23.3034 C   0  0  0  0  0  0  0  0  0  0  0  0
    7.0824  -13.7097   24.3789 C   0  0  0  0  0  0  0  0  0  0  0  0
    7.3334  -12.3578   24.3002 C   0  0  0  0  0  0  0  0  0  0  0  0
    6.9277  -11.4858   25.3052 C   0  0  0  0  0  0  0  0  0  0  0  0
    6.2572  -11.9804   26.4106 C   0  0  0  0  0  0  0  0  0  0  0  0
    5.9977  -13.3254   26.5071 C   0  0  0  0  0  0  0  0  0  0  0  0
    6.4133  -14.1754   25.4899 C   0  0  0  0  0  0  0  0  0  0  0  0
    9.6360  -15.2440   24.4665 C   0  0  0  0  0  0  0  0  0  0  0  0
    9.8528  -16.4746   24.4250 O   0  0  0  0  0  0  0  0  0  0  0  0
   10.6113  -13.9938   27.9256 C   0  0  0  0  0  0  0  0  0  0  0  0
   10.6084  -14.9828   26.8065 C   0  0  2  0  0  0  0  0  0  0  0  0
    9.9783  -14.5090   25.6208 N   0  0  0  0  0  0  0  0  0  0  0  0
   10.1731  -16.3587   27.2225 C   0  0  0  0  0  0  0  0  0  0  0  0
    9.0108  -16.7423   26.9601 O   0  0  0  0  0  0  0  0  0  0  0  0
   11.0269  -17.2590   27.9072 N   0  0  0  0  0  0  0  0  0  0  0  0
   12.3685  -17.0545   28.3977 C   0  0  0  0  0  0  0  0  0  0  0  0
   13.0320  -18.3936   28.0877 C   0  0  0  0  0  0  0  0  0  0  0  0
   11.9363  -19.3748   27.8579 C   0  0  0  0  0  0  0  0  0  0  0  0
   10.6870  -18.6233   28.2576 C   0  0  1  0  0  0  0  0  0  0  0  0
   10.4981  -18.7937   29.7152 C   0  0  0  0  0  0  0  0  0  0  0  0
    9.9824  -19.9362   30.3071 O   0  0  0  0  0  0  0  0  0  0  0  0
   10.8183  -17.8571   30.4872 O   0  0  0  0  0  0  0  0  0  0  0  0
  2  1  1  6
  2 10  1  0
  3  2  1  0
  4  3  1  0
  5  4  2  0
  6  5  1  0
  7  6  2  0
  7  8  1  0
  8  9  2  0
  9  4  1  0
 10 11  2  0
 13 12  1  1
 13 15  1  0
 14 13  1  0
 14 10  1  0
 15 16  2  0
 15 17  1  0
 17 18  1  0
 17 21  1  0
 18 19  1  0
 20 19  1  0
 20 21  1  0
 21 22  1  1
 22 24  2  0
 22 23  1  0
M  END
$$$$
