FAP.pdb
     RDKit          3D

 24 25  0  0  1  0  0  0  0  0999 V2000
    5.9699  -17.3683   25.8626 N   0  0  0  0  0  0  0  0  0  0  0  0
    6.5927  -16.1684   25.3731 C   0  0  1  0  0  0  0  0  0  0  0  0
    7.5882  -15.6099   26.3553 C   0  0  0  0  0  0  0  0  0  0  0  0
    7.2462  -14.1649   26.5410 C   0  0  0  0  0  0  0  0  0  0  0  0
    5.9442  -13.7395   26.6857 C   0  0  0  0  0  0  0  0  0  0  0  0
    5.6364  -12.3940   26.8579 C   0  0  0  0  0  0  0  0  0  0  0  0
    6.6551  -11.4572   26.8854 C   0  0  0  0  0  0  0  0  0  0  0  0
    7.9596  -11.8619   26.7428 C   0  0  0  0  0  0  0  0  0  0  0  0
    8.2407  -13.2115   26.5722 C   0  0  0  0  0  0  0  0  0  0  0  0
    7.1774  -16.4207   24.0371 C   0  0  0  0  0  0  0  0  0  0  0  0
    7.7458  -17.5195   23.8571 O   0  0  0  0  0  0  0  0  0  0  0  0
    7.6751  -14.2617   20.9429 C   0  0  0  0  0  0  0  0  0  0  0  0
    7.7845  -15.5257   21.7306 C   0  0  2  0  0  0  0  0  0  0  0  0
    7.1144  -15.4819   22.9863 N   0  0  0  0  0  0  0  0  0  0  0  0
    9.1828  -16.0692   21.8023 C   0  0  0  0  0  0  0  0  0  0  0  0
    9.8161  -15.9991   22.8798 O   0  0  0  0  0  0  0  0  0  0  0  0
    9.8307  -16.6680   20.6932 N   0  0  0  0  0  0  0  0  0  0  0  0
    9.4128  -16.7309   19.3134 C   0  0  0  0  0  0  0  0  0  0  0  0
    9.8323  -18.1432   18.9145 C   0  0  0  0  0  0  0  0  0  0  0  0
   10.8206  -18.6023   19.9286 C   0  0  0  0  0  0  0  0  0  0  0  0
   11.1007  -17.3635   20.7485 C   0  0  1  0  0  0  0  0  0  0  0  0
   12.1804  -16.6061   20.0777 C   0  0  0  0  0  0  0  0  0  0  0  0
   13.5154  -16.6568   20.4477 O   0  0  0  0  0  0  0  0  0  0  0  0
   11.8945  -15.8626   19.1076 O   0  0  0  0  0  0  0  0  0  0  0  0
  2  1  1  1
  2 10  1  0
  3  2  1  0
  4  3  1  0
  5  4  2  0
  6  5  1  0
  7  6  2  0
  7  8  1  0
  8  9  2  0
  9  4  1  0
 10 11  2  0
 13 12  1  1
 13 15  1  0
 14 13  1  0
 14 10  1  0
 15 16  2  0
 15 17  1  0
 17 18  1  0
 17 21  1  0
 18 19  1  0
 20 19  1  0
 20 21  1  0
 21 22  1  6
 22 24  2  0
 22 23  1  0
M  END
$$$$
