FAP.pdb
     RDKit          3D

 24 25  0  0  1  0  0  0  0  0999 V2000
    5.8658  -17.7718   25.7485 N   0  0  0  0  0  0  0  0  0  0  0  0
    6.4585  -16.4849   25.5037 C   0  0  1  0  0  0  0  0  0  0  0  0
    7.2689  -16.0055   26.6789 C   0  0  0  0  0  0  0  0  0  0  0  0
    7.1215  -14.5170   26.7257 C   0  0  0  0  0  0  0  0  0  0  0  0
    5.8857  -13.9107   26.7725 C   0  0  0  0  0  0  0  0  0  0  0  0
    5.7590  -12.5262   26.8159 C   0  0  0  0  0  0  0  0  0  0  0  0
    6.8947  -11.7349   26.8122 C   0  0  0  0  0  0  0  0  0  0  0  0
    8.1358  -12.3209   26.7658 C   0  0  0  0  0  0  0  0  0  0  0  0
    8.2354  -13.7058   26.7231 C   0  0  0  0  0  0  0  0  0  0  0  0
    7.2344  -16.5258   24.2441 C   0  0  0  0  0  0  0  0  0  0  0  0
    7.9714  -17.5179   24.0555 O   0  0  0  0  0  0  0  0  0  0  0  0
    7.7488  -14.0922   21.3634 C   0  0  0  0  0  0  0  0  0  0  0  0
    7.8922  -15.4105   22.0503 C   0  0  2  0  0  0  0  0  0  0  0  0
    7.1693  -15.5044   23.2735 N   0  0  0  0  0  0  0  0  0  0  0  0
    9.3129  -15.8886   22.1413 C   0  0  0  0  0  0  0  0  0  0  0  0
    9.8992  -15.8699   23.2472 O   0  0  0  0  0  0  0  0  0  0  0  0
   10.0340  -16.3686   21.0197 N   0  0  0  0  0  0  0  0  0  0  0  0
    9.6369  -16.4290   19.6337 C   0  0  0  0  0  0  0  0  0  0  0  0
   10.2191  -17.7685   19.1904 C   0  0  0  0  0  0  0  0  0  0  0  0
   11.2457  -18.1477   20.1995 C   0  0  0  0  0  0  0  0  0  0  0  0
   11.3751  -16.9155   21.0656 C   0  0  1  0  0  0  0  0  0  0  0  0
   12.3657  -16.0156   20.4347 C   0  0  0  0  0  0  0  0  0  0  0  0
   13.6789  -15.8811   20.8580 O   0  0  0  0  0  0  0  0  0  0  0  0
   12.0191  -15.3183   19.4502 O   0  0  0  0  0  0  0  0  0  0  0  0
  2  1  1  1
  2 10  1  0
  3  2  1  0
  4  3  1  0
  5  4  2  0
  6  5  1  0
  7  6  2  0
  7  8  1  0
  8  9  2  0
  9  4  1  0
 10 11  2  0
 13 12  1  1
 13 15  1  0
 14 13  1  0
 14 10  1  0
 15 16  2  0
 15 17  1  0
 17 18  1  0
 17 21  1  0
 18 19  1  0
 20 19  1  0
 20 21  1  0
 21 22  1  6
 22 24  2  0
 22 23  1  0
M  END
$$$$
