ASA.pdb
     RDKit          3D

 17 16  0  0  1  0  0  0  0  0999 V2000
   30.1208   -9.5073  -18.3769 C   0  0  0  0  0  0  0  0  0  0  0  0
   31.2130   -8.5075  -18.4491 C   0  0  2  0  0  0  0  0  0  0  0  0
   32.3092   -9.0322  -19.2346 N   0  0  0  0  0  0  0  0  0  0  0  0
   31.7090   -7.9762  -17.1976 C   0  0  0  0  0  0  0  0  0  0  0  0
   30.8517   -7.4473  -16.4058 O   0  0  0  0  0  0  0  0  0  0  0  0
   35.6025   -8.4605  -16.1116 O   0  0  0  0  0  0  0  0  0  0  0  0
   34.7845   -8.1056  -15.0413 C   0  0  0  0  0  0  0  0  0  0  0  0
   33.5488   -7.4005  -15.5619 C   0  0  2  0  0  0  0  0  0  0  0  0
   33.0682   -7.9966  -16.7827 N   0  0  0  0  0  0  0  0  0  0  0  0
   33.9405   -5.9652  -15.7691 C   0  0  0  0  0  0  0  0  0  0  0  0
   34.4293   -5.6685  -16.8730 O   0  0  0  0  0  0  0  0  0  0  0  0
   33.6358   -2.6989  -13.9041 C   0  0  0  0  0  0  0  0  0  0  0  0
   34.2405   -3.6404  -14.9291 C   0  0  2  0  0  0  0  0  0  0  0  0
   33.7620   -4.9932  -14.7553 N   0  0  0  0  0  0  0  0  0  0  0  0
   35.7182   -3.5905  -14.7985 C   0  0  0  0  0  0  0  0  0  0  0  0
   36.4331   -4.6751  -14.3424 O   0  0  0  0  0  0  0  0  0  0  0  0
   36.3213   -2.5350  -15.1119 O   0  0  0  0  0  0  0  0  0  0  0  0
  2  1  1  1
  2  3  1  0
  4  5  2  0
  4  2  1  0
  6  7  1  0
  8  7  1  6
  8  9  1  0
  9  4  1  0
 10  8  1  0
 11 10  2  0
 13 12  1  1
 13 15  1  0
 13 14  1  0
 14 10  1  0
 15 16  1  0
 17 15  2  0
M  END
$$$$
