ASA.pdb
     RDKit          3D

 17 16  0  0  1  0  0  0  0  0999 V2000
   18.8649  -12.5993  -15.5877 C   0  0  0  0  0  0  0  0  0  0  0  0
   18.8088  -11.2988  -16.2970 C   0  0  2  0  0  0  0  0  0  0  0  0
   19.8558  -11.2366  -17.2940 N   0  0  0  0  0  0  0  0  0  0  0  0
   18.8240  -10.1002  -15.4861 C   0  0  0  0  0  0  0  0  0  0  0  0
   17.9131   -9.9872  -14.5922 O   0  0  0  0  0  0  0  0  0  0  0  0
   21.5769   -8.0110  -13.2319 O   0  0  0  0  0  0  0  0  0  0  0  0
   21.1837   -7.4279  -14.4344 C   0  0  0  0  0  0  0  0  0  0  0  0
   19.7744   -7.8687  -14.7727 C   0  0  2  0  0  0  0  0  0  0  0  0
   19.7680   -9.0445  -15.6058 N   0  0  0  0  0  0  0  0  0  0  0  0
   19.1244   -6.7035  -15.4629 C   0  0  0  0  0  0  0  0  0  0  0  0
   19.3656   -6.5603  -16.6740 O   0  0  0  0  0  0  0  0  0  0  0  0
   16.4549   -4.1724  -14.6559 C   0  0  0  0  0  0  0  0  0  0  0  0
   17.6250   -4.7155  -15.4549 C   0  0  2  0  0  0  0  0  0  0  0  0
   18.2758   -5.8083  -14.7680 N   0  0  0  0  0  0  0  0  0  0  0  0
   18.5834   -3.6081  -15.6960 C   0  0  0  0  0  0  0  0  0  0  0  0
   19.8493   -3.6271  -15.1552 O   0  0  0  0  0  0  0  0  0  0  0  0
   18.2256   -2.6381  -16.4082 O   0  0  0  0  0  0  0  0  0  0  0  0
  2  1  1  1
  2  3  1  0
  4  5  2  0
  4  2  1  0
  6  7  1  0
  8  7  1  6
  8  9  1  0
  9  4  1  0
 10  8  1  0
 11 10  2  0
 13 12  1  1
 13 15  1  0
 13 14  1  0
 14 10  1  0
 15 16  1  0
 17 15  2  0
M  END
$$$$
