ASA.pdb
     RDKit          3D

 17 16  0  0  1  0  0  0  0  0999 V2000
   22.8421  -12.4238  -15.8436 C   0  0  0  0  0  0  0  0  0  0  0  0
   21.7422  -12.1661  -16.8034 C   0  0  2  0  0  0  0  0  0  0  0  0
   21.9005  -13.0067  -17.9706 N   0  0  0  0  0  0  0  0  0  0  0  0
   21.5219  -10.7937  -17.2064 C   0  0  0  0  0  0  0  0  0  0  0  0
   22.0067  -10.4306  -18.3355 O   0  0  0  0  0  0  0  0  0  0  0  0
   19.1370   -6.7430  -17.4471 O   0  0  0  0  0  0  0  0  0  0  0  0
   19.2313   -7.9992  -16.8525 C   0  0  0  0  0  0  0  0  0  0  0  0
   20.6806   -8.4397  -16.8290 C   0  0  2  0  0  0  0  0  0  0  0  0
   20.8122   -9.8232  -16.4484 N   0  0  0  0  0  0  0  0  0  0  0  0
   21.3789   -7.5338  -15.8552 C   0  0  0  0  0  0  0  0  0  0  0  0
   21.2665   -7.8105  -14.6484 O   0  0  0  0  0  0  0  0  0  0  0  0
   23.7705   -4.6091  -16.0594 C   0  0  0  0  0  0  0  0  0  0  0  0
   22.8809   -5.6131  -15.3499 C   0  0  2  0  0  0  0  0  0  0  0  0
   22.1309   -6.4156  -16.2895 N   0  0  0  0  0  0  0  0  0  0  0  0
   21.9626   -4.8727  -14.4491 C   0  0  0  0  0  0  0  0  0  0  0  0
   22.3980   -4.3600  -13.2479 O   0  0  0  0  0  0  0  0  0  0  0  0
   20.7664   -4.7146  -14.7959 O   0  0  0  0  0  0  0  0  0  0  0  0
  2  1  1  1
  2  3  1  0
  4  5  2  0
  4  2  1  0
  6  7  1  0
  8  7  1  1
  8  9  1  0
  9  4  1  0
 10  8  1  0
 11 10  2  0
 13 12  1  6
 13 15  1  0
 13 14  1  0
 14 10  1  0
 15 16  1  0
 17 15  2  0
M  END
$$$$
