ASA.pdb
     RDKit          3D

 17 16  0  0  1  0  0  0  0  0999 V2000
   12.1998  -10.4824  -12.2408 C   0  0  0  0  0  0  0  0  0  0  0  0
   13.4025  -10.6341  -11.3877 C   0  0  2  0  0  0  0  0  0  0  0  0
   13.0553  -10.4027  -10.0020 N   0  0  0  0  0  0  0  0  0  0  0  0
   14.5700   -9.8563  -11.7433 C   0  0  0  0  0  0  0  0  0  0  0  0
   14.6041   -8.6381  -11.3475 O   0  0  0  0  0  0  0  0  0  0  0  0
   19.0249   -9.5675  -13.7295 O   0  0  0  0  0  0  0  0  0  0  0  0
   17.9108  -10.3691  -13.4913 C   0  0  0  0  0  0  0  0  0  0  0  0
   16.8114   -9.5341  -12.8677 C   0  0  2  0  0  0  0  0  0  0  0  0
   15.6759  -10.3389  -12.4944 N   0  0  0  0  0  0  0  0  0  0  0  0
   16.4382   -8.4997  -13.8910 C   0  0  0  0  0  0  0  0  0  0  0  0
   15.7576   -8.8838  -14.8579 O   0  0  0  0  0  0  0  0  0  0  0  0
   15.7509   -4.9638  -13.9629 C   0  0  0  0  0  0  0  0  0  0  0  0
   16.3752   -6.1415  -14.6882 C   0  0  2  0  0  0  0  0  0  0  0  0
   16.8419   -7.1488  -13.7624 N   0  0  0  0  0  0  0  0  0  0  0  0
   17.4973   -5.6396  -15.5200 C   0  0  0  0  0  0  0  0  0  0  0  0
   17.2900   -4.7136  -16.5174 O   0  0  0  0  0  0  0  0  0  0  0  0
   18.6558   -6.0726  -15.3040 O   0  0  0  0  0  0  0  0  0  0  0  0
  2  1  1  6
  2  3  1  0
  4  5  2  0
  4  2  1  0
  6  7  1  0
  8  7  1  6
  8  9  1  0
  9  4  1  0
 10  8  1  0
 11 10  2  0
 13 12  1  1
 13 15  1  0
 13 14  1  0
 14 10  1  0
 15 16  1  0
 17 15  2  0
M  END
$$$$
