ASA.pdb
     RDKit          3D

 17 16  0  0  1  0  0  0  0  0999 V2000
   24.5649  -10.8500  -14.9844 C   0  0  0  0  0  0  0  0  0  0  0  0
   23.0884  -10.9746  -14.9412 C   0  0  2  0  0  0  0  0  0  0  0  0
   22.6743  -12.1674  -15.6482 N   0  0  0  0  0  0  0  0  0  0  0  0
   22.3137   -9.8375  -15.3902 C   0  0  0  0  0  0  0  0  0  0  0  0
   22.2190   -9.6570  -16.6552 O   0  0  0  0  0  0  0  0  0  0  0  0
   19.5372   -8.0673  -13.0700 O   0  0  0  0  0  0  0  0  0  0  0  0
   19.4786   -7.7935  -14.4346 C   0  0  0  0  0  0  0  0  0  0  0  0
   20.8800   -7.7902  -15.0100 C   0  0  2  0  0  0  0  0  0  0  0  0
   21.6535   -8.9109  -14.5385 N   0  0  0  0  0  0  0  0  0  0  0  0
   21.4991   -6.4845  -14.5997 C   0  0  0  0  0  0  0  0  0  0  0  0
   22.0533   -6.4489  -13.4874 O   0  0  0  0  0  0  0  0  0  0  0  0
   22.0755   -3.0946  -16.1826 C   0  0  0  0  0  0  0  0  0  0  0  0
   22.1149   -4.1164  -15.0614 C   0  0  2  0  0  0  0  0  0  0  0  0
   21.4548   -5.3456  -15.4394 N   0  0  0  0  0  0  0  0  0  0  0  0
   21.4672   -3.5250  -13.8641 C   0  0  0  0  0  0  0  0  0  0  0  0
   22.1653   -2.7086  -13.0029 O   0  0  0  0  0  0  0  0  0  0  0  0
   20.2585   -3.7787  -13.6384 O   0  0  0  0  0  0  0  0  0  0  0  0
  2  1  1  6
  2  3  1  0
  4  5  2  0
  4  2  1  0
  6  7  1  0
  8  7  1  1
  8  9  1  0
  9  4  1  0
 10  8  1  0
 11 10  2  0
 13 12  1  6
 13 15  1  0
 13 14  1  0
 14 10  1  0
 15 16  1  0
 17 15  2  0
M  END
$$$$
