ASA.pdb
     RDKit          3D

 17 16  0  0  1  0  0  0  0  0999 V2000
   16.6003  -11.0162  -17.0746 C   0  0  0  0  0  0  0  0  0  0  0  0
   18.0205  -11.3526  -17.3339 C   0  0  2  0  0  0  0  0  0  0  0  0
   18.1853  -12.7896  -17.3795 N   0  0  0  0  0  0  0  0  0  0  0  0
   19.0114  -10.7671  -16.4565 C   0  0  0  0  0  0  0  0  0  0  0  0
   18.9168  -11.0337  -15.2069 O   0  0  0  0  0  0  0  0  0  0  0  0
   23.4639   -9.2069  -15.7085 O   0  0  0  0  0  0  0  0  0  0  0  0
   22.4946   -9.6793  -16.5904 C   0  0  0  0  0  0  0  0  0  0  0  0
   21.1186   -9.4466  -16.0009 C   0  0  2  0  0  0  0  0  0  0  0  0
   20.0759   -9.9231  -16.8741 N   0  0  0  0  0  0  0  0  0  0  0  0
   21.0063   -7.9667  -15.7688 C   0  0  0  0  0  0  0  0  0  0  0  0
   20.8487   -7.2496  -16.7720 O   0  0  0  0  0  0  0  0  0  0  0  0
   20.8419   -5.6056  -12.8290 C   0  0  0  0  0  0  0  0  0  0  0  0
   21.1267   -5.9807  -14.2715 C   0  0  2  0  0  0  0  0  0  0  0  0
   21.0764   -7.4119  -14.4681 N   0  0  0  0  0  0  0  0  0  0  0  0
   22.4639   -5.4518  -14.6391 C   0  0  0  0  0  0  0  0  0  0  0  0
   23.5030   -6.2954  -14.9615 O   0  0  0  0  0  0  0  0  0  0  0  0
   22.6437   -4.2094  -14.6540 O   0  0  0  0  0  0  0  0  0  0  0  0
  2  1  1  1
  2  3  1  0
  4  5  2  0
  4  2  1  0
  6  7  1  0
  8  7  1  6
  8  9  1  0
  9  4  1  0
 10  8  1  0
 11 10  2  0
 13 12  1  1
 13 15  1  0
 13 14  1  0
 14 10  1  0
 15 16  1  0
 17 15  2  0
M  END
$$$$
