ASA.pdb
     RDKit          3D

 17 16  0  0  1  0  0  0  0  0999 V2000
   18.1532  -10.9779  -18.8783 C   0  0  0  0  0  0  0  0  0  0  0  0
   18.9066   -9.7015  -18.9074 C   0  0  2  0  0  0  0  0  0  0  0  0
   20.0766   -9.8398  -19.7477 N   0  0  0  0  0  0  0  0  0  0  0  0
   19.2758   -9.1204  -17.6344 C   0  0  0  0  0  0  0  0  0  0  0  0
   18.3335   -8.9103  -16.7920 O   0  0  0  0  0  0  0  0  0  0  0  0
   22.1695  -10.0902  -14.9437 O   0  0  0  0  0  0  0  0  0  0  0  0
   22.3155   -8.8249  -15.5078 C   0  0  0  0  0  0  0  0  0  0  0  0
   20.9592   -8.3024  -15.9348 C   0  0  2  0  0  0  0  0  0  0  0  0
   20.5977   -8.7671  -17.2501 N   0  0  0  0  0  0  0  0  0  0  0  0
   21.0532   -6.8039  -15.8888 C   0  0  0  0  0  0  0  0  0  0  0  0
   21.5496   -6.2400  -16.8793 O   0  0  0  0  0  0  0  0  0  0  0  0
   19.6928   -4.0324  -13.7444 C   0  0  0  0  0  0  0  0  0  0  0  0
   20.6569   -4.6213  -14.7575 C   0  0  2  0  0  0  0  0  0  0  0  0
   20.5980   -6.0656  -14.7698 N   0  0  0  0  0  0  0  0  0  0  0  0
   22.0277   -4.1594  -14.4250 C   0  0  0  0  0  0  0  0  0  0  0  0
   22.5165   -2.9654  -14.9052 O   0  0  0  0  0  0  0  0  0  0  0  0
   22.7501   -4.8771  -13.6906 O   0  0  0  0  0  0  0  0  0  0  0  0
  2  1  1  1
  2  3  1  0
  4  5  2  0
  4  2  1  0
  6  7  1  0
  8  7  1  6
  8  9  1  0
  9  4  1  0
 10  8  1  0
 11 10  2  0
 13 12  1  1
 13 15  1  0
 13 14  1  0
 14 10  1  0
 15 16  1  0
 17 15  2  0
M  END
$$$$
