ASA.pdb
     RDKit          3D

 17 16  0  0  1  0  0  0  0  0999 V2000
   17.7909  -12.4819  -16.7009 C   0  0  0  0  0  0  0  0  0  0  0  0
   18.2256  -11.4836  -15.6950 C   0  0  2  0  0  0  0  0  0  0  0  0
   17.1576  -11.2409  -14.7492 N   0  0  0  0  0  0  0  0  0  0  0  0
   18.7451  -10.2268  -16.1900 C   0  0  0  0  0  0  0  0  0  0  0  0
   19.3623  -10.2504  -17.3126 O   0  0  0  0  0  0  0  0  0  0  0  0
   17.3302   -6.6282  -14.9817 O   0  0  0  0  0  0  0  0  0  0  0  0
   18.0639   -6.6788  -16.1649 C   0  0  0  0  0  0  0  0  0  0  0  0
   19.1438   -7.7344  -16.0451 C   0  0  2  0  0  0  0  0  0  0  0  0
   18.6232   -8.9748  -15.5284 N   0  0  0  0  0  0  0  0  0  0  0  0
   20.1939   -7.1596  -15.1377 C   0  0  0  0  0  0  0  0  0  0  0  0
   20.0865   -7.4073  -13.9242 O   0  0  0  0  0  0  0  0  0  0  0  0
   23.4507   -5.2811  -15.5590 C   0  0  0  0  0  0  0  0  0  0  0  0
   22.3206   -5.9173  -14.7711 C   0  0  2  0  0  0  0  0  0  0  0  0
   21.2578   -6.3716  -15.6393 N   0  0  0  0  0  0  0  0  0  0  0  0
   21.8074   -4.9209  -13.7981 C   0  0  0  0  0  0  0  0  0  0  0  0
   22.4416   -4.7026  -12.5958 O   0  0  0  0  0  0  0  0  0  0  0  0
   20.7739   -4.2679  -14.0839 O   0  0  0  0  0  0  0  0  0  0  0  0
  2  1  1  6
  2  3  1  0
  4  5  2  0
  4  2  1  0
  6  7  1  0
  8  7  1  1
  8  9  1  0
  9  4  1  0
 10  8  1  0
 11 10  2  0
 13 12  1  6
 13 15  1  0
 13 14  1  0
 14 10  1  0
 15 16  1  0
 17 15  2  0
M  END
$$$$
