ASA.pdb
     RDKit          3D

 17 16  0  0  1  0  0  0  0  0999 V2000
   21.3616  -12.2346  -19.6017 C   0  0  0  0  0  0  0  0  0  0  0  0
   21.8094  -11.6635  -18.3092 C   0  0  2  0  0  0  0  0  0  0  0  0
   21.5061  -12.5828  -17.2336 N   0  0  0  0  0  0  0  0  0  0  0  0
   21.3418  -10.3356  -17.9736 C   0  0  0  0  0  0  0  0  0  0  0  0
   21.6821   -9.3803  -18.7568 O   0  0  0  0  0  0  0  0  0  0  0  0
   19.1218   -9.4815  -14.5207 O   0  0  0  0  0  0  0  0  0  0  0  0
   18.8164   -8.7408  -15.6603 C   0  0  0  0  0  0  0  0  0  0  0  0
   20.0255   -8.6943  -16.5718 C   0  0  2  0  0  0  0  0  0  0  0  0
   20.5379  -10.0128  -16.8469 N   0  0  0  0  0  0  0  0  0  0  0  0
   21.0466   -7.8438  -15.8715 C   0  0  0  0  0  0  0  0  0  0  0  0
   21.7835   -8.4123  -15.0474 O   0  0  0  0  0  0  0  0  0  0  0  0
   22.2970   -4.2844  -16.1557 C   0  0  0  0  0  0  0  0  0  0  0  0
   22.2450   -5.6824  -15.5676 C   0  0  2  0  0  0  0  0  0  0  0  0
   21.1661   -6.4582  -16.1364 N   0  0  0  0  0  0  0  0  0  0  0  0
   22.0838   -5.5674  -14.0967 C   0  0  0  0  0  0  0  0  0  0  0  0
   20.9023   -5.9083  -13.4776 O   0  0  0  0  0  0  0  0  0  0  0  0
   23.0483   -5.1502  -13.4097 O   0  0  0  0  0  0  0  0  0  0  0  0
  2  1  1  6
  2  3  1  0
  4  5  2  0
  4  2  1  0
  6  7  1  0
  8  7  1  1
  8  9  1  0
  9  4  1  0
 10  8  1  0
 11 10  2  0
 13 12  1  6
 13 15  1  0
 13 14  1  0
 14 10  1  0
 15 16  1  0
 17 15  2  0
M  END
$$$$
