ASA.pdb
     RDKit          3D

 17 16  0  0  1  0  0  0  0  0999 V2000
   21.2075  -12.5569  -16.7080 C   0  0  0  0  0  0  0  0  0  0  0  0
   19.8560  -11.9621  -16.8396 C   0  0  2  0  0  0  0  0  0  0  0  0
   19.1817  -12.5226  -17.9908 N   0  0  0  0  0  0  0  0  0  0  0  0
   19.7671  -10.5178  -16.8670 C   0  0  0  0  0  0  0  0  0  0  0  0
   19.8990   -9.9451  -18.0055 O   0  0  0  0  0  0  0  0  0  0  0  0
   18.1763   -6.3317  -15.3020 O   0  0  0  0  0  0  0  0  0  0  0  0
   18.2064   -7.7189  -15.1789 C   0  0  0  0  0  0  0  0  0  0  0  0
   19.4906   -8.2519  -15.7803 C   0  0  2  0  0  0  0  0  0  0  0  0
   19.5458   -9.6911  -15.7323 N   0  0  0  0  0  0  0  0  0  0  0  0
   20.6108   -7.6332  -14.9937 C   0  0  0  0  0  0  0  0  0  0  0  0
   20.9005   -8.1685  -13.9096 O   0  0  0  0  0  0  0  0  0  0  0  0
   23.1695   -4.9018  -15.4974 C   0  0  0  0  0  0  0  0  0  0  0  0
   22.3560   -5.8855  -14.6768 C   0  0  2  0  0  0  0  0  0  0  0  0
   21.3062   -6.4929  -15.4633 N   0  0  0  0  0  0  0  0  0  0  0  0
   21.7831   -5.1649  -13.5126 C   0  0  0  0  0  0  0  0  0  0  0  0
   20.4293   -4.9383  -13.4069 O   0  0  0  0  0  0  0  0  0  0  0  0
   22.5545   -4.7570  -12.6099 O   0  0  0  0  0  0  0  0  0  0  0  0
  2  1  1  6
  2  3  1  0
  4  5  2  0
  4  2  1  0
  6  7  1  0
  8  7  1  1
  8  9  1  0
  9  4  1  0
 10  8  1  0
 11 10  2  0
 13 12  1  6
 13 15  1  0
 13 14  1  0
 14 10  1  0
 15 16  1  0
 17 15  2  0
M  END
$$$$
