ASA.pdb
     RDKit          3D

 17 16  0  0  1  0  0  0  0  0999 V2000
   18.1853  -12.4037  -17.8683 C   0  0  0  0  0  0  0  0  0  0  0  0
   19.2370  -11.7816  -17.0290 C   0  0  2  0  0  0  0  0  0  0  0  0
   19.2523  -12.4000  -15.7208 N   0  0  0  0  0  0  0  0  0  0  0  0
   19.2133  -10.3406  -16.8964 C   0  0  0  0  0  0  0  0  0  0  0  0
   19.4865   -9.6524  -17.9420 O   0  0  0  0  0  0  0  0  0  0  0  0
   17.9174   -8.4249  -13.4253 O   0  0  0  0  0  0  0  0  0  0  0  0
   17.7444   -7.7636  -14.6391 C   0  0  0  0  0  0  0  0  0  0  0  0
   18.8223   -8.1995  -15.6102 C   0  0  2  0  0  0  0  0  0  0  0  0
   18.9114   -9.6349  -15.7002 N   0  0  0  0  0  0  0  0  0  0  0  0
   20.1056   -7.6003  -15.1095 C   0  0  0  0  0  0  0  0  0  0  0  0
   20.7452   -8.2588  -14.2711 O   0  0  0  0  0  0  0  0  0  0  0  0
   22.2993   -4.6866  -16.0790 C   0  0  0  0  0  0  0  0  0  0  0  0
   21.8775   -5.8534  -15.2053 C   0  0  2  0  0  0  0  0  0  0  0  0
   20.5674   -6.3436  -15.5697 N   0  0  0  0  0  0  0  0  0  0  0  0
   21.8913   -5.4088  -13.7893 C   0  0  0  0  0  0  0  0  0  0  0  0
   23.0694   -5.2982  -13.0856 O   0  0  0  0  0  0  0  0  0  0  0  0
   20.8032   -5.1299  -13.2286 O   0  0  0  0  0  0  0  0  0  0  0  0
  2  1  1  1
  2  3  1  0
  4  5  2  0
  4  2  1  0
  6  7  1  0
  8  7  1  1
  8  9  1  0
  9  4  1  0
 10  8  1  0
 11 10  2  0
 13 12  1  6
 13 15  1  0
 13 14  1  0
 14 10  1  0
 15 16  1  0
 17 15  2  0
M  END
$$$$
