ASA.pdb
     RDKit          3D

 17 16  0  0  1  0  0  0  0  0999 V2000
   24.5313  -16.1381  -15.6102 C   0  0  0  0  0  0  0  0  0  0  0  0
   24.0761  -17.4623  -16.0969 C   0  0  2  0  0  0  0  0  0  0  0  0
   22.7424  -17.3523  -16.6476 N   0  0  0  0  0  0  0  0  0  0  0  0
   24.1387  -18.5683  -15.1655 C   0  0  0  0  0  0  0  0  0  0  0  0
   23.0992  -18.7901  -14.4501 O   0  0  0  0  0  0  0  0  0  0  0  0
   27.5076  -21.0340  -14.7564 O   0  0  0  0  0  0  0  0  0  0  0  0
   26.2622  -21.6009  -14.4955 C   0  0  0  0  0  0  0  0  0  0  0  0
   25.2977  -20.5200  -14.0524 C   0  0  2  0  0  0  0  0  0  0  0  0
   25.2603  -19.4224  -14.9854 N   0  0  0  0  0  0  0  0  0  0  0  0
   25.7636  -20.0720  -12.6964 C   0  0  0  0  0  0  0  0  0  0  0  0
   26.6663  -19.2178  -12.6649 O   0  0  0  0  0  0  0  0  0  0  0  0
   24.9608  -20.8869   -9.0864 C   0  0  0  0  0  0  0  0  0  0  0  0
   25.8009  -20.3281  -10.2199 C   0  0  2  0  0  0  0  0  0  0  0  0
   25.2019  -20.5970  -11.5076 N   0  0  0  0  0  0  0  0  0  0  0  0
   27.1557  -20.9291  -10.1407 C   0  0  0  0  0  0  0  0  0  0  0  0
   27.5498  -21.9219  -11.0092 O   0  0  0  0  0  0  0  0  0  0  0  0
   27.9528  -20.5189   -9.2617 O   0  0  0  0  0  0  0  0  0  0  0  0
  2  1  1  1
  2  3  1  0
  4  5  2  0
  4  2  1  0
  6  7  1  0
  8  7  1  6
  8  9  1  0
  9  4  1  0
 10  8  1  0
 11 10  2  0
 13 12  1  1
 13 15  1  0
 13 14  1  0
 14 10  1  0
 15 16  1  0
 17 15  2  0
M  END
$$$$
