ASA.pdb
     RDKit          3D

 17 16  0  0  1  0  0  0  0  0999 V2000
   17.4181  -14.1965  -16.0770 C   0  0  0  0  0  0  0  0  0  0  0  0
   17.1859  -12.8305  -16.6039 C   0  0  2  0  0  0  0  0  0  0  0  0
   18.1494  -12.5331  -17.6418 N   0  0  0  0  0  0  0  0  0  0  0  0
   17.1408  -11.7484  -15.6438 C   0  0  0  0  0  0  0  0  0  0  0  0
   16.3275  -11.8714  -14.6615 O   0  0  0  0  0  0  0  0  0  0  0  0
   20.1995   -9.4428  -14.6222 O   0  0  0  0  0  0  0  0  0  0  0  0
   19.0370   -9.4155  -13.8551 C   0  0  0  0  0  0  0  0  0  0  0  0
   17.8286   -9.4793  -14.7666 C   0  0  2  0  0  0  0  0  0  0  0  0
   17.9265  -10.5658  -15.7080 N   0  0  0  0  0  0  0  0  0  0  0  0
   17.7598   -8.1516  -15.4660 C   0  0  0  0  0  0  0  0  0  0  0  0
   18.3207   -8.0681  -16.5723 O   0  0  0  0  0  0  0  0  0  0  0  0
   15.9187   -4.8949  -15.0183 C   0  0  0  0  0  0  0  0  0  0  0  0
   17.0117   -5.7798  -15.5885 C   0  0  2  0  0  0  0  0  0  0  0  0
   17.0877   -7.0449  -14.8934 N   0  0  0  0  0  0  0  0  0  0  0  0
   18.3026   -5.0539  -15.4902 C   0  0  0  0  0  0  0  0  0  0  0  0
   18.5376   -3.9102  -16.2197 O   0  0  0  0  0  0  0  0  0  0  0  0
   19.1933   -5.4975  -14.7246 O   0  0  0  0  0  0  0  0  0  0  0  0
  2  1  1  1
  2  3  1  0
  4  5  2  0
  4  2  1  0
  6  7  1  0
  8  7  1  1
  8  9  1  0
  9  4  1  0
 10  8  1  0
 11 10  2  0
 13 12  1  1
 13 15  1  0
 13 14  1  0
 14 10  1  0
 15 16  1  0
 17 15  2  0
M  END
$$$$
