FVR.pdb
     RDKit          3D

 30 30  0  0  1  0  0  0  0  0999 V2000
   28.3954  -20.6999  -15.3536 N   0  0  0  0  0  0  0  0  0  0  0  0
   27.6534  -19.9241  -14.3803 C   0  0  1  0  0  0  0  0  0  0  0  0
   26.7548  -18.9680  -15.1271 C   0  0  0  0  0  0  0  0  0  0  0  0
   27.5864  -17.8083  -15.6029 C   0  0  0  0  0  0  0  0  0  0  0  0
   28.0885  -17.8539  -16.8782 C   0  0  0  0  0  0  0  0  0  0  0  0
   28.8548  -16.8039  -17.3442 C   0  0  0  0  0  0  0  0  0  0  0  0
   29.1440  -15.6950  -16.5774 C   0  0  0  0  0  0  0  0  0  0  0  0
   28.6171  -15.6938  -15.3005 C   0  0  0  0  0  0  0  0  0  0  0  0
   27.8499  -16.7223  -14.8035 C   0  0  0  0  0  0  0  0  0  0  0  0
   26.9230  -20.8474  -13.5145 C   0  0  0  0  0  0  0  0  0  0  0  0
   26.5179  -21.9443  -13.9677 O   0  0  0  0  0  0  0  0  0  0  0  0
   24.6526  -21.9550   -9.1905 C   0  0  0  0  0  0  0  0  0  0  0  0
   25.6931  -21.2257  -10.0009 C   0  0  2  0  0  0  0  0  0  0  0  0
   25.8992  -19.8356   -9.4381 C   0  0  0  0  0  0  0  0  0  0  0  0
   25.4995  -21.2762  -11.4752 C   0  0  2  0  0  0  0  0  0  0  0  0
   26.6244  -20.5858  -12.1438 N   0  0  0  0  0  0  0  0  0  0  0  0
   24.2345  -20.6975  -11.9485 C   0  0  0  0  0  0  0  0  0  0  0  0
   24.1032  -19.4443  -12.1738 O   0  0  0  0  0  0  0  0  0  0  0  0
   21.7040  -23.0970  -17.7961 N   0  0  0  0  0  0  0  0  0  0  0  0
   21.2730  -21.8224  -18.2342 C   0  0  0  0  0  0  0  0  0  0  0  0
   21.6056  -21.2891  -19.3361 N   0  0  0  0  0  0  0  0  0  0  0  0
   20.4043  -21.1089  -17.3556 N   0  0  0  0  0  0  0  0  0  0  0  0
   20.0765  -21.6055  -16.0144 C   0  0  0  0  0  0  0  0  0  0  0  0
   20.6714  -20.6791  -15.0036 C   0  0  0  0  0  0  0  0  0  0  0  0
   21.8578  -21.1605  -14.2649 C   0  0  0  0  0  0  0  0  0  0  0  0
   21.9127  -20.9175  -12.7913 C   0  0  2  0  0  0  0  0  0  0  0  0
   23.0978  -21.4984  -12.1857 N   0  0  0  0  0  0  0  0  0  0  0  0
   20.6750  -21.5568  -12.2273 C   0  0  0  0  0  0  0  0  0  0  0  0
   20.8609  -22.5278  -11.4505 O   0  0  0  0  0  0  0  0  0  0  0  0
   19.3961  -21.1611  -12.4977 O   0  0  0  0  0  0  0  0  0  0  0  0
  2 10  1  0
  2  1  1  6
  3  2  1  0
  4  3  1  0
  4  5  2  0
  6  5  1  0
  7  6  2  0
  8  9  2  0
  8  7  1  0
  9  4  1  0
 10 11  2  0
 13 12  1  1
 13 15  1  0
 14 13  1  0
 15 16  1  6
 16 10  1  0
 17 18  2  0
 17 15  1  0
 20 19  1  0
 21 20  2  0
 22 20  1  0
 22 23  1  0
 23 24  1  0
 24 25  1  0
 26 25  1  6
 26 28  1  0
 26 27  1  0
 27 17  1  0
 28 30  1  0
 29 28  2  0
M  END
$$$$
