FVR.pdb
     RDKit          3D

 30 30  0  0  1  0  0  0  0  0999 V2000
   20.4403  -22.3855  -14.2612 N   0  0  0  0  0  0  0  0  0  0  0  0
   20.7110  -23.3979  -13.2605 C   0  0  1  0  0  0  0  0  0  0  0  0
   22.0289  -23.0680  -12.6020 C   0  0  0  0  0  0  0  0  0  0  0  0
   23.1239  -23.2406  -13.6188 C   0  0  0  0  0  0  0  0  0  0  0  0
   23.3654  -24.5019  -14.1000 C   0  0  0  0  0  0  0  0  0  0  0  0
   24.3634  -24.6924  -15.0351 C   0  0  0  0  0  0  0  0  0  0  0  0
   25.1409  -23.6599  -15.5157 C   0  0  0  0  0  0  0  0  0  0  0  0
   24.8613  -22.4085  -15.0023 C   0  0  0  0  0  0  0  0  0  0  0  0
   23.8749  -22.1822  -14.0700 C   0  0  0  0  0  0  0  0  0  0  0  0
   19.5894  -23.4324  -12.3242 C   0  0  0  0  0  0  0  0  0  0  0  0
   19.0485  -22.3632  -11.9542 O   0  0  0  0  0  0  0  0  0  0  0  0
   16.2832  -24.7108  -12.9461 C   0  0  0  0  0  0  0  0  0  0  0  0
   16.7239  -25.3147  -11.6376 C   0  0  2  0  0  0  0  0  0  0  0  0
   15.5146  -25.6041  -10.7739 C   0  0  0  0  0  0  0  0  0  0  0  0
   17.8239  -24.5923  -10.9435 C   0  0  2  0  0  0  0  0  0  0  0  0
   19.0443  -24.6332  -11.7790 N   0  0  0  0  0  0  0  0  0  0  0  0
   18.1447  -25.1034   -9.6038 C   0  0  0  0  0  0  0  0  0  0  0  0
   18.9306  -26.0980   -9.4265 O   0  0  0  0  0  0  0  0  0  0  0  0
   14.2918  -23.6563   -1.7222 N   0  0  0  0  0  0  0  0  0  0  0  0
   14.1017  -23.4861   -3.1140 C   0  0  0  0  0  0  0  0  0  0  0  0
   13.1550  -22.8223   -3.6358 N   0  0  0  0  0  0  0  0  0  0  0  0
   15.0563  -24.1157   -3.9672 N   0  0  0  0  0  0  0  0  0  0  0  0
   16.4749  -24.2162   -3.6056 C   0  0  0  0  0  0  0  0  0  0  0  0
   17.1907  -24.9633   -4.6842 C   0  0  0  0  0  0  0  0  0  0  0  0
   17.1764  -24.3697   -6.0378 C   0  0  0  0  0  0  0  0  0  0  0  0
   17.8369  -25.1283   -7.1432 C   0  0  2  0  0  0  0  0  0  0  0  0
   17.6053  -24.5167   -8.4398 N   0  0  0  0  0  0  0  0  0  0  0  0
   17.2386  -26.5064   -7.1050 C   0  0  0  0  0  0  0  0  0  0  0  0
   16.1633  -26.6586   -7.7385 O   0  0  0  0  0  0  0  0  0  0  0  0
   17.7740  -27.5748   -6.4437 O   0  0  0  0  0  0  0  0  0  0  0  0
  2 10  1  0
  2  1  1  6
  3  2  1  0
  4  3  1  0
  4  5  2  0
  6  5  1  0
  7  6  2  0
  8  9  2  0
  8  7  1  0
  9  4  1  0
 10 11  2  0
 13 12  1  6
 13 15  1  0
 14 13  1  0
 15 16  1  6
 16 10  1  0
 17 18  2  0
 17 15  1  0
 20 19  1  0
 21 20  2  0
 22 20  1  0
 22 23  1  0
 23 24  1  0
 24 25  1  0
 26 25  1  1
 26 28  1  0
 26 27  1  0
 27 17  1  0
 28 30  1  0
 29 28  2  0
M  END
$$$$
