FVR.pdb
     RDKit          3D

 30 30  0  0  1  0  0  0  0  0999 V2000
   28.1309  -22.0783   -8.0517 N   0  0  0  0  0  0  0  0  0  0  0  0
   27.2318  -20.9639   -8.2745 C   0  0  1  0  0  0  0  0  0  0  0  0
   28.0348  -19.6881   -8.1928 C   0  0  0  0  0  0  0  0  0  0  0  0
   28.3569  -19.4216   -6.7478 C   0  0  0  0  0  0  0  0  0  0  0  0
   27.7832  -18.3292   -6.1491 C   0  0  0  0  0  0  0  0  0  0  0  0
   28.0587  -18.0588   -4.8233 C   0  0  0  0  0  0  0  0  0  0  0  0
   28.8955  -18.8459   -4.0607 C   0  0  0  0  0  0  0  0  0  0  0  0
   29.4497  -19.9340   -4.7063 C   0  0  0  0  0  0  0  0  0  0  0  0
   29.1975  -20.2335   -6.0254 C   0  0  0  0  0  0  0  0  0  0  0  0
   26.5753  -21.1523   -9.5665 C   0  0  0  0  0  0  0  0  0  0  0  0
   27.0751  -21.9268  -10.4168 O   0  0  0  0  0  0  0  0  0  0  0  0
   22.4831  -21.1677   -9.8076 C   0  0  0  0  0  0  0  0  0  0  0  0
   23.1846  -20.5684  -10.9992 C   0  0  2  0  0  0  0  0  0  0  0  0
   22.3483  -20.7759  -12.2439 C   0  0  0  0  0  0  0  0  0  0  0  0
   24.6178  -20.9401  -11.1451 C   0  0  2  0  0  0  0  0  0  0  0  0
   25.3659  -20.4977   -9.9477 N   0  0  0  0  0  0  0  0  0  0  0  0
   25.2731  -20.4003  -12.3444 C   0  0  0  0  0  0  0  0  0  0  0  0
   25.6018  -19.1670  -12.4418 O   0  0  0  0  0  0  0  0  0  0  0  0
   31.0988  -23.1986  -17.6353 N   0  0  0  0  0  0  0  0  0  0  0  0
   30.3513  -23.6913  -16.5396 C   0  0  0  0  0  0  0  0  0  0  0  0
   30.8131  -24.4545  -15.6377 N   0  0  0  0  0  0  0  0  0  0  0  0
   28.9852  -23.2857  -16.4687 N   0  0  0  0  0  0  0  0  0  0  0  0
   28.4188  -22.2981  -17.3944 C   0  0  0  0  0  0  0  0  0  0  0  0
   27.7247  -21.2406  -16.5982 C   0  0  0  0  0  0  0  0  0  0  0  0
   27.0255  -21.6728  -15.3697 C   0  0  0  0  0  0  0  0  0  0  0  0
   26.2369  -20.6516  -14.6154 C   0  0  2  0  0  0  0  0  0  0  0  0
   25.5803  -21.2191  -13.4512 N   0  0  0  0  0  0  0  0  0  0  0  0
   25.2143  -20.1295  -15.5852 C   0  0  0  0  0  0  0  0  0  0  0  0
   24.1188  -20.7457  -15.6164 O   0  0  0  0  0  0  0  0  0  0  0  0
   25.3946  -19.0578  -16.4124 O   0  0  0  0  0  0  0  0  0  0  0  0
  2 10  1  0
  2  1  1  6
  3  2  1  0
  4  3  1  0
  4  5  2  0
  6  5  1  0
  7  6  2  0
  8  9  2  0
  8  7  1  0
  9  4  1  0
 10 11  2  0
 13 12  1  1
 13 15  1  0
 14 13  1  0
 15 16  1  1
 16 10  1  0
 17 18  2  0
 17 15  1  0
 20 19  1  0
 21 20  2  0
 22 20  1  0
 22 23  1  0
 23 24  1  0
 24 25  1  0
 26 25  1  6
 26 28  1  0
 26 27  1  0
 27 17  1  0
 28 30  1  0
 29 28  2  0
M  END
$$$$
