FVR.pdb
     RDKit          3D

 30 30  0  0  1  0  0  0  0  0999 V2000
   26.6224  -18.4952   -7.6724 N   0  0  0  0  0  0  0  0  0  0  0  0
   26.9403  -19.8408   -8.1060 C   0  0  1  0  0  0  0  0  0  0  0  0
   26.6300  -20.7864   -6.9707 C   0  0  0  0  0  0  0  0  0  0  0  0
   27.5623  -20.4813   -5.8304 C   0  0  0  0  0  0  0  0  0  0  0  0
   28.9028  -20.7044   -6.0148 C   0  0  0  0  0  0  0  0  0  0  0  0
   29.7841  -20.4330   -4.9869 C   0  0  0  0  0  0  0  0  0  0  0  0
   29.3750  -19.9412   -3.7654 C   0  0  0  0  0  0  0  0  0  0  0  0
   28.0167  -19.7327   -3.6263 C   0  0  0  0  0  0  0  0  0  0  0  0
   27.1104  -19.9920   -4.6287 C   0  0  0  0  0  0  0  0  0  0  0  0
   26.1793  -20.1259   -9.3206 C   0  0  0  0  0  0  0  0  0  0  0  0
   25.0156  -19.6771   -9.4512 O   0  0  0  0  0  0  0  0  0  0  0  0
   28.6769  -20.1814  -12.3823 C   0  0  0  0  0  0  0  0  0  0  0  0
   27.3864  -20.8807  -12.7239 C   0  0  2  0  0  0  0  0  0  0  0  0
   27.0639  -20.6741  -14.1885 C   0  0  0  0  0  0  0  0  0  0  0  0
   26.2549  -20.6141  -11.7954 C   0  0  2  0  0  0  0  0  0  0  0  0
   26.6774  -20.9048  -10.4075 N   0  0  0  0  0  0  0  0  0  0  0  0
   25.0286  -21.3682  -12.0894 C   0  0  0  0  0  0  0  0  0  0  0  0
   24.7990  -22.5182  -11.5764 O   0  0  0  0  0  0  0  0  0  0  0  0
   19.1880  -23.3704   -8.6958 N   0  0  0  0  0  0  0  0  0  0  0  0
   18.4405  -23.5795   -9.8789 C   0  0  0  0  0  0  0  0  0  0  0  0
   17.2053  -23.8669   -9.9092 N   0  0  0  0  0  0  0  0  0  0  0  0
   19.1506  -23.4521  -11.1098 N   0  0  0  0  0  0  0  0  0  0  0  0
   20.5451  -22.9981  -11.1591 C   0  0  0  0  0  0  0  0  0  0  0  0
   20.5645  -21.5575  -11.5569 C   0  0  0  0  0  0  0  0  0  0  0  0
   21.8878  -20.9398  -11.7854 C   0  0  0  0  0  0  0  0  0  0  0  0
   22.7001  -21.4293  -12.9405 C   0  0  2  0  0  0  0  0  0  0  0  0
   24.0349  -20.8575  -12.9507 N   0  0  0  0  0  0  0  0  0  0  0  0
   21.9475  -21.0126  -14.1728 C   0  0  0  0  0  0  0  0  0  0  0  0
   22.2335  -19.8797  -14.6370 O   0  0  0  0  0  0  0  0  0  0  0  0
   20.9982  -21.7656  -14.8030 O   0  0  0  0  0  0  0  0  0  0  0  0
  2 10  1  0
  2  1  1  1
  3  2  1  0
  4  3  1  0
  4  5  2  0
  6  5  1  0
  7  6  2  0
  8  9  2  0
  8  7  1  0
  9  4  1  0
 10 11  2  0
 13 12  1  1
 13 15  1  0
 14 13  1  0
 15 16  1  1
 16 10  1  0
 17 18  2  0
 17 15  1  0
 20 19  1  0
 21 20  2  0
 22 20  1  0
 22 23  1  0
 23 24  1  0
 24 25  1  0
 26 25  1  1
 26 28  1  0
 26 27  1  0
 27 17  1  0
 28 30  1  0
 29 28  2  0
M  END
$$$$
