FVR.pdb
     RDKit          3D

 30 30  0  0  1  0  0  0  0  0999 V2000
   26.9083  -18.6549   -7.8747 N   0  0  0  0  0  0  0  0  0  0  0  0
   27.3902  -19.9031   -8.4310 C   0  0  1  0  0  0  0  0  0  0  0  0
   27.3397  -20.9521   -7.3464 C   0  0  0  0  0  0  0  0  0  0  0  0
   28.2963  -20.5539   -6.2559 C   0  0  0  0  0  0  0  0  0  0  0  0
   29.6333  -20.7870   -6.4528 C   0  0  0  0  0  0  0  0  0  0  0  0
   30.5364  -20.4315   -5.4705 C   0  0  0  0  0  0  0  0  0  0  0  0
   30.1529  -19.8447   -4.2831 C   0  0  0  0  0  0  0  0  0  0  0  0
   28.7971  -19.6298   -4.1299 C   0  0  0  0  0  0  0  0  0  0  0  0
   27.8695  -19.9712   -5.0871 C   0  0  0  0  0  0  0  0  0  0  0  0
   26.5721  -20.2353   -9.5955 C   0  0  0  0  0  0  0  0  0  0  0  0
   25.3601  -19.9143   -9.6224 O   0  0  0  0  0  0  0  0  0  0  0  0
   28.9417  -19.7564  -12.7104 C   0  0  0  0  0  0  0  0  0  0  0  0
   27.7591  -20.6279  -13.0469 C   0  0  2  0  0  0  0  0  0  0  0  0
   27.3894  -20.4495  -14.5041 C   0  0  0  0  0  0  0  0  0  0  0  0
   26.6147  -20.5381  -12.1005 C   0  0  2  0  0  0  0  0  0  0  0  0
   27.0651  -20.9228  -10.7447 N   0  0  0  0  0  0  0  0  0  0  0  0
   25.4495  -21.3550  -12.4667 C   0  0  0  0  0  0  0  0  0  0  0  0
   25.5262  -22.6256  -12.6013 O   0  0  0  0  0  0  0  0  0  0  0  0
   18.1899  -21.0132  -10.2403 N   0  0  0  0  0  0  0  0  0  0  0  0
   17.5669  -21.2853  -11.4813 C   0  0  0  0  0  0  0  0  0  0  0  0
   16.4108  -20.8804  -11.8109 N   0  0  0  0  0  0  0  0  0  0  0  0
   18.3136  -22.0723  -12.4080 N   0  0  0  0  0  0  0  0  0  0  0  0
   19.7393  -22.3589  -12.2123 C   0  0  0  0  0  0  0  0  0  0  0  0
   20.5193  -21.6442  -13.2681 C   0  0  0  0  0  0  0  0  0  0  0  0
   21.7465  -20.9410  -12.8388 C   0  0  0  0  0  0  0  0  0  0  0  0
   23.0597  -21.6137  -13.0763 C   0  0  2  0  0  0  0  0  0  0  0  0
   24.1804  -20.7783  -12.6829 N   0  0  0  0  0  0  0  0  0  0  0  0
   23.1129  -21.8925  -14.5522 C   0  0  0  0  0  0  0  0  0  0  0  0
   23.5652  -20.9664  -15.2724 O   0  0  0  0  0  0  0  0  0  0  0  0
   22.7120  -23.0559  -15.1446 O   0  0  0  0  0  0  0  0  0  0  0  0
  2 10  1  0
  2  1  1  1
  3  2  1  0
  4  3  1  0
  4  5  2  0
  6  5  1  0
  7  6  2  0
  8  9  2  0
  8  7  1  0
  9  4  1  0
 10 11  2  0
 13 12  1  1
 13 15  1  0
 14 13  1  0
 15 16  1  1
 16 10  1  0
 17 18  2  0
 17 15  1  0
 20 19  1  0
 21 20  2  0
 22 20  1  0
 22 23  1  0
 23 24  1  0
 24 25  1  0
 26 25  1  6
 26 28  1  0
 26 27  1  0
 27 17  1  0
 28 30  1  0
 29 28  2  0
M  END
$$$$
