FVR.pdb
     RDKit          3D

 30 30  0  0  1  0  0  0  0  0999 V2000
   28.1242  -21.5728  -15.7942 N   0  0  0  0  0  0  0  0  0  0  0  0
   27.4473  -20.4835  -15.1197 C   0  0  1  0  0  0  0  0  0  0  0  0
   26.6345  -19.7287  -16.1438 C   0  0  0  0  0  0  0  0  0  0  0  0
   27.5758  -18.9231  -16.9969 C   0  0  0  0  0  0  0  0  0  0  0  0
   27.9809  -17.6982  -16.5320 C   0  0  0  0  0  0  0  0  0  0  0  0
   28.8456  -16.9355  -17.2919 C   0  0  0  0  0  0  0  0  0  0  0  0
   29.3286  -17.3524  -18.5143 C   0  0  0  0  0  0  0  0  0  0  0  0
   28.8931  -18.5918  -18.9411 C   0  0  0  0  0  0  0  0  0  0  0  0
   28.0323  -19.3781  -18.2104 C   0  0  0  0  0  0  0  0  0  0  0  0
   26.6394  -21.0421  -14.0376 C   0  0  0  0  0  0  0  0  0  0  0  0
   26.0114  -22.1134  -14.2127 O   0  0  0  0  0  0  0  0  0  0  0  0
   27.1656  -21.0073   -9.9346 C   0  0  0  0  0  0  0  0  0  0  0  0
   25.8344  -20.4978  -10.4242 C   0  0  2  0  0  0  0  0  0  0  0  0
   24.7690  -20.7648   -9.3824 C   0  0  0  0  0  0  0  0  0  0  0  0
   25.4675  -20.9075  -11.8066 C   0  0  2  0  0  0  0  0  0  0  0  0
   26.5053  -20.4390  -12.7513 N   0  0  0  0  0  0  0  0  0  0  0  0
   24.1554  -20.4273  -12.2615 C   0  0  0  0  0  0  0  0  0  0  0  0
   24.0238  -19.3464  -12.9344 O   0  0  0  0  0  0  0  0  0  0  0  0
   20.0598  -18.4743  -17.8108 N   0  0  0  0  0  0  0  0  0  0  0  0
   19.2601  -19.6416  -17.8006 C   0  0  0  0  0  0  0  0  0  0  0  0
   18.2594  -19.8357  -18.5557 N   0  0  0  0  0  0  0  0  0  0  0  0
   19.6272  -20.6550  -16.8659 N   0  0  0  0  0  0  0  0  0  0  0  0
   20.7136  -20.4631  -15.8983 C   0  0  0  0  0  0  0  0  0  0  0  0
   20.8850  -21.7253  -15.1164 C   0  0  0  0  0  0  0  0  0  0  0  0
   21.9885  -21.7640  -14.1337 C   0  0  0  0  0  0  0  0  0  0  0  0
   21.8185  -21.0042  -12.8581 C   0  0  2  0  0  0  0  0  0  0  0  0
   22.9701  -21.1399  -11.9839 N   0  0  0  0  0  0  0  0  0  0  0  0
   20.5966  -21.5814  -12.2004 C   0  0  0  0  0  0  0  0  0  0  0  0
   19.4904  -21.1845  -12.6470 O   0  0  0  0  0  0  0  0  0  0  0  0
   20.6112  -22.4848  -11.1762 O   0  0  0  0  0  0  0  0  0  0  0  0
  2 10  1  0
  2  1  1  6
  3  2  1  0
  4  3  1  0
  4  5  2  0
  6  5  1  0
  7  6  2  0
  8  9  2  0
  8  7  1  0
  9  4  1  0
 10 11  2  0
 13 12  1  1
 13 15  1  0
 14 13  1  0
 15 16  1  6
 16 10  1  0
 17 18  2  0
 17 15  1  0
 20 19  1  0
 21 20  2  0
 22 20  1  0
 22 23  1  0
 23 24  1  0
 24 25  1  0
 26 25  1  6
 26 28  1  0
 26 27  1  0
 27 17  1  0
 28 30  1  0
 29 28  2  0
M  END
$$$$
