FVR.pdb
     RDKit          3D

 30 30  0  0  1  0  0  0  0  0999 V2000
   19.6310   -5.5520   -9.8027 N   0  0  0  0  0  0  0  0  0  0  0  0
   20.5373   -6.0864  -10.7990 C   0  0  1  0  0  0  0  0  0  0  0  0
   21.1056   -7.3818  -10.2714 C   0  0  0  0  0  0  0  0  0  0  0  0
   22.1088   -7.0579   -9.1983 C   0  0  0  0  0  0  0  0  0  0  0  0
   21.7977   -7.3854   -7.9035 C   0  0  0  0  0  0  0  0  0  0  0  0
   22.6986   -7.1018   -6.8962 C   0  0  0  0  0  0  0  0  0  0  0  0
   23.9145   -6.4959   -7.1330 C   0  0  0  0  0  0  0  0  0  0  0  0
   24.1836   -6.1848   -8.4516 C   0  0  0  0  0  0  0  0  0  0  0  0
   23.3096   -6.4527   -9.4801 C   0  0  0  0  0  0  0  0  0  0  0  0
   19.8030   -6.2450  -12.0526 C   0  0  0  0  0  0  0  0  0  0  0  0
   18.5506   -6.3079  -12.0419 O   0  0  0  0  0  0  0  0  0  0  0  0
   21.2830   -5.1587  -15.9214 C   0  0  0  0  0  0  0  0  0  0  0  0
   19.8587   -5.3124  -15.4536 C   0  0  2  0  0  0  0  0  0  0  0  0
   19.3456   -3.9878  -14.9301 C   0  0  0  0  0  0  0  0  0  0  0  0
   19.6065   -6.4735  -14.5581 C   0  0  2  0  0  0  0  0  0  0  0  0
   20.4254   -6.3381  -13.3333 N   0  0  0  0  0  0  0  0  0  0  0  0
   19.8685   -7.7855  -15.1655 C   0  0  0  0  0  0  0  0  0  0  0  0
   21.0329   -8.3170  -15.1581 O   0  0  0  0  0  0  0  0  0  0  0  0
   16.2014  -14.8813  -15.5705 N   0  0  0  0  0  0  0  0  0  0  0  0
   17.1533  -15.3574  -16.5030 C   0  0  0  0  0  0  0  0  0  0  0  0
   17.2161  -16.5533  -16.9214 N   0  0  0  0  0  0  0  0  0  0  0  0
   18.0968  -14.4045  -16.9904 N   0  0  0  0  0  0  0  0  0  0  0  0
   18.4015  -13.1689  -16.2598 C   0  0  0  0  0  0  0  0  0  0  0  0
   18.0320  -12.0029  -17.1188 C   0  0  0  0  0  0  0  0  0  0  0  0
   17.9084  -10.6888  -16.4534 C   0  0  0  0  0  0  0  0  0  0  0  0
   19.1338   -9.8402  -16.3437 C   0  0  2  0  0  0  0  0  0  0  0  0
   18.8438   -8.5319  -15.7844 N   0  0  0  0  0  0  0  0  0  0  0  0
   19.6589   -9.7010  -17.7449 C   0  0  0  0  0  0  0  0  0  0  0  0
   19.2163   -8.7271  -18.4056 O   0  0  0  0  0  0  0  0  0  0  0  0
   20.5616  -10.5423  -18.3304 O   0  0  0  0  0  0  0  0  0  0  0  0
  2 10  1  0
  2  1  1  1
  3  2  1  0
  4  3  1  0
  4  5  2  0
  6  5  1  0
  7  6  2  0
  8  9  2  0
  8  7  1  0
  9  4  1  0
 10 11  2  0
 13 12  1  1
 13 15  1  0
 14 13  1  0
 15 16  1  1
 16 10  1  0
 17 18  2  0
 17 15  1  0
 20 19  1  0
 21 20  2  0
 22 20  1  0
 22 23  1  0
 23 24  1  0
 24 25  1  0
 26 25  1  6
 26 28  1  0
 26 27  1  0
 27 17  1  0
 28 30  1  0
 29 28  2  0
M  END
$$$$
