FVR.pdb
     RDKit          3D

 30 30  0  0  1  0  0  0  0  0999 V2000
   27.3524   -9.1474  -60.1602 N   0  0  0  0  0  0  0  0  0  0  0  0
   27.5774  -10.3468  -60.9415 C   0  0  1  0  0  0  0  0  0  0  0  0
   26.2910  -10.6941  -61.6513 C   0  0  0  0  0  0  0  0  0  0  0  0
   26.6068  -11.6592  -62.7611 C   0  0  0  0  0  0  0  0  0  0  0  0
   27.6185  -11.3368  -63.6289 C   0  0  0  0  0  0  0  0  0  0  0  0
   27.9328  -12.2031  -64.6574 C   0  0  0  0  0  0  0  0  0  0  0  0
   27.2682  -13.3947  -64.8570 C   0  0  0  0  0  0  0  0  0  0  0  0
   26.2575  -13.6764  -63.9586 C   0  0  0  0  0  0  0  0  0  0  0  0
   25.9176  -12.8368  -62.9228 C   0  0  0  0  0  0  0  0  0  0  0  0
   28.6928  -10.1008  -61.8532 C   0  0  0  0  0  0  0  0  0  0  0  0
   29.7874  -10.6870  -61.6773 O   0  0  0  0  0  0  0  0  0  0  0  0
   30.1170   -6.5017  -64.0476 C   0  0  0  0  0  0  0  0  0  0  0  0
   28.7029   -7.0205  -63.9980 C   0  0  2  0  0  0  0  0  0  0  0  0
   27.7378   -5.9128  -64.3633 C   0  0  0  0  0  0  0  0  0  0  0  0
   28.3459   -7.7735  -62.7655 C   0  0  2  0  0  0  0  0  0  0  0  0
   28.6288   -9.2117  -62.9675 N   0  0  0  0  0  0  0  0  0  0  0  0
   26.9503   -7.6173  -62.3331 C   0  0  0  0  0  0  0  0  0  0  0  0
   25.9680   -7.7751  -63.1384 O   0  0  0  0  0  0  0  0  0  0  0  0
   23.2782   -3.4191  -61.1171 N   0  0  0  0  0  0  0  0  0  0  0  0
   23.9466   -2.6655  -62.1109 C   0  0  0  0  0  0  0  0  0  0  0  0
   23.4886   -1.6090  -62.6433 N   0  0  0  0  0  0  0  0  0  0  0  0
   25.2230   -3.1503  -62.5248 N   0  0  0  0  0  0  0  0  0  0  0  0
   26.2554   -3.5435  -61.5590 C   0  0  0  0  0  0  0  0  0  0  0  0
   25.6593   -4.5147  -60.5917 C   0  0  0  0  0  0  0  0  0  0  0  0
   26.5910   -5.2264  -59.6916 C   0  0  0  0  0  0  0  0  0  0  0  0
   27.4228   -6.3252  -60.2698 C   0  0  2  0  0  0  0  0  0  0  0  0
   26.6211   -7.2903  -61.0009 N   0  0  0  0  0  0  0  0  0  0  0  0
   28.0926   -6.9876  -59.0988 C   0  0  0  0  0  0  0  0  0  0  0  0
   29.3456   -6.8935  -59.0545 O   0  0  0  0  0  0  0  0  0  0  0  0
   27.4445   -7.6669  -58.1069 O   0  0  0  0  0  0  0  0  0  0  0  0
  2 10  1  0
  2  1  1  6
  3  2  1  0
  4  3  1  0
  4  5  2  0
  6  5  1  0
  7  6  2  0
  8  9  2  0
  8  7  1  0
  9  4  1  0
 10 11  2  0
 13 12  1  1
 13 15  1  0
 14 13  1  0
 15 16  1  6
 16 10  1  0
 17 18  2  0
 17 15  1  0
 20 19  1  0
 21 20  2  0
 22 20  1  0
 22 23  1  0
 23 24  1  0
 24 25  1  0
 26 25  1  1
 26 28  1  0
 26 27  1  0
 27 17  1  0
 28 30  1  0
 29 28  2  0
M  END
$$$$
