FVR.pdb
     RDKit          3D

 30 30  0  0  1  0  0  0  0  0999 V2000
   27.9038  -21.8675   -9.4907 N   0  0  0  0  0  0  0  0  0  0  0  0
   26.8363  -20.9911   -9.0526 C   0  0  1  0  0  0  0  0  0  0  0  0
   27.4321  -19.6362   -8.7551 C   0  0  0  0  0  0  0  0  0  0  0  0
   27.8438  -19.6059   -7.3086 C   0  0  0  0  0  0  0  0  0  0  0  0
   26.9361  -19.1481   -6.3882 C   0  0  0  0  0  0  0  0  0  0  0  0
   27.2842  -19.1092   -5.0525 C   0  0  0  0  0  0  0  0  0  0  0  0
   28.5193  -19.5145   -4.5924 C   0  0  0  0  0  0  0  0  0  0  0  0
   29.3998  -19.9674   -5.5555 C   0  0  0  0  0  0  0  0  0  0  0  0
   29.0868  -20.0198   -6.8944 C   0  0  0  0  0  0  0  0  0  0  0  0
   25.8116  -20.9563  -10.0939 C   0  0  0  0  0  0  0  0  0  0  0  0
   26.0910  -21.3206  -11.2609 O   0  0  0  0  0  0  0  0  0  0  0  0
   21.9703  -21.7174   -9.0116 C   0  0  0  0  0  0  0  0  0  0  0  0
   22.0872  -20.8093  -10.2086 C   0  0  2  0  0  0  0  0  0  0  0  0
   20.9139  -21.0339  -11.1386 C   0  0  0  0  0  0  0  0  0  0  0  0
   23.4168  -20.8068  -10.8761 C   0  0  2  0  0  0  0  0  0  0  0  0
   24.4696  -20.5227   -9.8760 N   0  0  0  0  0  0  0  0  0  0  0  0
   23.5441  -19.8543  -11.9876 C   0  0  0  0  0  0  0  0  0  0  0  0
   23.2387  -18.6178  -11.8608 O   0  0  0  0  0  0  0  0  0  0  0  0
   28.3369  -21.8531  -15.6948 N   0  0  0  0  0  0  0  0  0  0  0  0
   28.7846  -20.8029  -16.5308 C   0  0  0  0  0  0  0  0  0  0  0  0
   29.3911  -20.9681  -17.6327 N   0  0  0  0  0  0  0  0  0  0  0  0
   28.5226  -19.4753  -16.0786 N   0  0  0  0  0  0  0  0  0  0  0  0
   27.6196  -19.2010  -14.9550 C   0  0  0  0  0  0  0  0  0  0  0  0
   26.3045  -18.7451  -15.4996 C   0  0  0  0  0  0  0  0  0  0  0  0
   25.1543  -19.6585  -15.3347 C   0  0  0  0  0  0  0  0  0  0  0  0
   24.1042  -19.2909  -14.3368 C   0  0  2  0  0  0  0  0  0  0  0  0
   24.0176  -20.2552  -13.2545 N   0  0  0  0  0  0  0  0  0  0  0  0
   22.8114  -19.2522  -15.1022 C   0  0  0  0  0  0  0  0  0  0  0  0
   22.5991  -18.2107  -15.7738 O   0  0  0  0  0  0  0  0  0  0  0  0
   21.8779  -20.2491  -15.1141 O   0  0  0  0  0  0  0  0  0  0  0  0
  2 10  1  0
  2  1  1  6
  3  2  1  0
  4  3  1  0
  4  5  2  0
  6  5  1  0
  7  6  2  0
  8  9  2  0
  8  7  1  0
  9  4  1  0
 10 11  2  0
 13 12  1  1
 13 15  1  0
 14 13  1  0
 15 16  1  1
 16 10  1  0
 17 18  2  0
 17 15  1  0
 20 19  1  0
 21 20  2  0
 22 20  1  0
 22 23  1  0
 23 24  1  0
 24 25  1  0
 26 25  1  6
 26 28  1  0
 26 27  1  0
 27 17  1  0
 28 30  1  0
 29 28  2  0
M  END
$$$$
