FVR.pdb
     RDKit          3D

 30 30  0  0  1  0  0  0  0  0999 V2000
   28.6131  -22.1902   -8.9633 N   0  0  0  0  0  0  0  0  0  0  0  0
   27.5897  -21.2090   -8.6641 C   0  0  1  0  0  0  0  0  0  0  0  0
   28.2602  -19.8672   -8.4926 C   0  0  0  0  0  0  0  0  0  0  0  0
   28.5343  -19.6572   -7.0285 C   0  0  0  0  0  0  0  0  0  0  0  0
   27.7096  -18.8113   -6.3320 C   0  0  0  0  0  0  0  0  0  0  0  0
   27.9350  -18.5988   -4.9863 C   0  0  0  0  0  0  0  0  0  0  0  0
   28.9649  -19.2052   -4.2986 C   0  0  0  0  0  0  0  0  0  0  0  0
   29.7686  -20.0480   -5.0414 C   0  0  0  0  0  0  0  0  0  0  0  0
   29.5735  -20.2828   -6.3831 C   0  0  0  0  0  0  0  0  0  0  0  0
   26.6027  -21.2287   -9.7416 C   0  0  0  0  0  0  0  0  0  0  0  0
   26.8358  -21.8701  -10.7937 O   0  0  0  0  0  0  0  0  0  0  0  0
   22.5959  -21.0651   -8.7748 C   0  0  0  0  0  0  0  0  0  0  0  0
   22.9645  -20.4443  -10.0977 C   0  0  2  0  0  0  0  0  0  0  0  0
   21.8024  -20.5627  -11.0606 C   0  0  0  0  0  0  0  0  0  0  0  0
   24.2775  -20.8685  -10.6540 C   0  0  2  0  0  0  0  0  0  0  0  0
   25.3495  -20.5485   -9.6857 N   0  0  0  0  0  0  0  0  0  0  0  0
   24.6147  -20.2730  -11.9543 C   0  0  0  0  0  0  0  0  0  0  0  0
   24.9052  -19.0325  -12.0783 O   0  0  0  0  0  0  0  0  0  0  0  0
   28.8408  -22.9411  -15.9276 N   0  0  0  0  0  0  0  0  0  0  0  0
   28.6781  -22.7807  -17.3240 C   0  0  0  0  0  0  0  0  0  0  0  0
   28.9488  -23.6697  -18.1875 N   0  0  0  0  0  0  0  0  0  0  0  0
   28.1726  -21.5212  -17.7642 N   0  0  0  0  0  0  0  0  0  0  0  0
   27.6421  -20.5258  -16.8256 C   0  0  0  0  0  0  0  0  0  0  0  0
   26.1896  -20.8022  -16.6069 C   0  0  0  0  0  0  0  0  0  0  0  0
   25.7934  -21.3075  -15.2756 C   0  0  0  0  0  0  0  0  0  0  0  0
   24.9678  -20.4168  -14.4046 C   0  0  2  0  0  0  0  0  0  0  0  0
   24.6418  -21.0432  -13.1358 N   0  0  0  0  0  0  0  0  0  0  0  0
   23.7129  -20.1365  -15.1827 C   0  0  0  0  0  0  0  0  0  0  0  0
   22.7378  -20.8949  -14.9486 O   0  0  0  0  0  0  0  0  0  0  0  0
   23.5685  -19.1378  -16.1030 O   0  0  0  0  0  0  0  0  0  0  0  0
  2 10  1  0
  2  1  1  6
  3  2  1  0
  4  3  1  0
  4  5  2  0
  6  5  1  0
  7  6  2  0
  8  9  2  0
  8  7  1  0
  9  4  1  0
 10 11  2  0
 13 12  1  1
 13 15  1  0
 14 13  1  0
 15 16  1  1
 16 10  1  0
 17 18  2  0
 17 15  1  0
 20 19  1  0
 21 20  2  0
 22 20  1  0
 22 23  1  0
 23 24  1  0
 24 25  1  0
 26 25  1  6
 26 28  1  0
 26 27  1  0
 27 17  1  0
 28 30  1  0
 29 28  2  0
M  END
$$$$
