FVR.pdb
     RDKit          3D

 30 30  0  0  1  0  0  0  0  0999 V2000
   22.0554  -17.3431  -17.5755 N   0  0  0  0  0  0  0  0  0  0  0  0
   22.7924  -16.8751  -16.4190 C   0  0  1  0  0  0  0  0  0  0  0  0
   21.8261  -16.7453  -15.2663 C   0  0  0  0  0  0  0  0  0  0  0  0
   20.9120  -15.5828  -15.5418 C   0  0  0  0  0  0  0  0  0  0  0  0
   19.5881  -15.8458  -15.7847 C   0  0  0  0  0  0  0  0  0  0  0  0
   18.7237  -14.7996  -16.0399 C   0  0  0  0  0  0  0  0  0  0  0  0
   19.1336  -13.4832  -16.0626 C   0  0  0  0  0  0  0  0  0  0  0  0
   20.4748  -13.2676  -15.8125 C   0  0  0  0  0  0  0  0  0  0  0  0
   21.3641  -14.2855  -15.5547 C   0  0  0  0  0  0  0  0  0  0  0  0
   23.8828  -17.8121  -16.1569 C   0  0  0  0  0  0  0  0  0  0  0  0
   23.6941  -19.0452  -16.2846 O   0  0  0  0  0  0  0  0  0  0  0  0
   27.2165  -17.7727  -17.8380 C   0  0  0  0  0  0  0  0  0  0  0  0
   27.4592  -18.0064  -16.3690 C   0  0  2  0  0  0  0  0  0  0  0  0
   28.6742  -18.8906  -16.1848 C   0  0  0  0  0  0  0  0  0  0  0  0
   26.2641  -18.4228  -15.5867 C   0  0  2  0  0  0  0  0  0  0  0  0
   25.1924  -17.4161  -15.7512 N   0  0  0  0  0  0  0  0  0  0  0  0
   26.5102  -18.6287  -14.1528 C   0  0  0  0  0  0  0  0  0  0  0  0
   27.0065  -17.7118  -13.4103 O   0  0  0  0  0  0  0  0  0  0  0  0
   21.4568  -21.0236   -8.2299 N   0  0  0  0  0  0  0  0  0  0  0  0
   21.5278  -20.8802   -9.6358 C   0  0  0  0  0  0  0  0  0  0  0  0
   20.5380  -20.9886  -10.4217 N   0  0  0  0  0  0  0  0  0  0  0  0
   22.8149  -20.5940  -10.1810 N   0  0  0  0  0  0  0  0  0  0  0  0
   23.9878  -20.3699   -9.3282 C   0  0  0  0  0  0  0  0  0  0  0  0
   25.0900  -19.8118  -10.1693 C   0  0  0  0  0  0  0  0  0  0  0  0
   25.5642  -20.6429  -11.2959 C   0  0  0  0  0  0  0  0  0  0  0  0
   26.6549  -20.0972  -12.1597 C   0  0  2  0  0  0  0  0  0  0  0  0
   26.2043  -19.8508  -13.5180 N   0  0  0  0  0  0  0  0  0  0  0  0
   27.7386  -21.1384  -12.1530 C   0  0  0  0  0  0  0  0  0  0  0  0
   27.6696  -22.0119  -13.0547 O   0  0  0  0  0  0  0  0  0  0  0  0
   28.7653  -21.1948  -11.2541 O   0  0  0  0  0  0  0  0  0  0  0  0
  2 10  1  0
  2  1  1  6
  3  2  1  0
  4  3  1  0
  4  5  2  0
  6  5  1  0
  7  6  2  0
  8  9  2  0
  8  7  1  0
  9  4  1  0
 10 11  2  0
 13 12  1  6
 13 15  1  0
 14 13  1  0
 15 16  1  1
 16 10  1  0
 17 18  2  0
 17 15  1  0
 20 19  1  0
 21 20  2  0
 22 20  1  0
 22 23  1  0
 23 24  1  0
 24 25  1  0
 26 25  1  1
 26 28  1  0
 26 27  1  0
 27 17  1  0
 28 30  1  0
 29 28  2  0
M  END
$$$$
