FVR.pdb
     RDKit          3D

 30 30  0  0  1  0  0  0  0  0999 V2000
   28.3801  -19.0698   -8.1400 N   0  0  0  0  0  0  0  0  0  0  0  0
   27.4703  -20.1976   -8.1514 C   0  0  1  0  0  0  0  0  0  0  0  0
   26.6603  -20.1615   -6.8779 C   0  0  0  0  0  0  0  0  0  0  0  0
   27.6098  -20.1621   -5.7112 C   0  0  0  0  0  0  0  0  0  0  0  0
   27.9734  -18.9539   -5.1739 C   0  0  0  0  0  0  0  0  0  0  0  0
   28.8428  -18.9217   -4.1015 C   0  0  0  0  0  0  0  0  0  0  0  0
   29.3710  -20.0632   -3.5363 C   0  0  0  0  0  0  0  0  0  0  0  0
   28.9764  -21.2557   -4.1108 C   0  0  0  0  0  0  0  0  0  0  0  0
   28.1124  -21.3250   -5.1794 C   0  0  0  0  0  0  0  0  0  0  0  0
   26.6521  -20.1179   -9.3597 C   0  0  0  0  0  0  0  0  0  0  0  0
   26.0425  -19.0572   -9.6352 O   0  0  0  0  0  0  0  0  0  0  0  0
   28.6713  -20.6455  -12.1572 C   0  0  0  0  0  0  0  0  0  0  0  0
   27.3726  -21.3108  -12.5343 C   0  0  2  0  0  0  0  0  0  0  0  0
   27.1566  -21.2027  -14.0288 C   0  0  0  0  0  0  0  0  0  0  0  0
   26.1977  -20.9238  -11.7076 C   0  0  2  0  0  0  0  0  0  0  0  0
   26.4878  -21.1942  -10.2822 N   0  0  0  0  0  0  0  0  0  0  0  0
   24.9417  -21.5922  -12.0747 C   0  0  0  0  0  0  0  0  0  0  0  0
   24.7863  -22.8574  -11.9579 O   0  0  0  0  0  0  0  0  0  0  0  0
   17.3305  -20.3124  -12.4955 N   0  0  0  0  0  0  0  0  0  0  0  0
   17.2493  -21.2092  -11.4040 C   0  0  0  0  0  0  0  0  0  0  0  0
   16.2173  -21.8808  -11.0989 N   0  0  0  0  0  0  0  0  0  0  0  0
   18.4247  -21.3485  -10.6074 N   0  0  0  0  0  0  0  0  0  0  0  0
   19.6822  -20.6761  -10.9534 C   0  0  0  0  0  0  0  0  0  0  0  0
   20.1403  -21.1764  -12.2853 C   0  0  0  0  0  0  0  0  0  0  0  0
   21.4147  -20.6372  -12.8051 C   0  0  0  0  0  0  0  0  0  0  0  0
   22.5919  -21.5559  -12.8663 C   0  0  2  0  0  0  0  0  0  0  0  0
   23.8367  -20.8691  -12.5706 N   0  0  0  0  0  0  0  0  0  0  0  0
   22.6161  -22.0931  -14.2697 C   0  0  0  0  0  0  0  0  0  0  0  0
   23.2776  -21.4251  -15.1046 O   0  0  0  0  0  0  0  0  0  0  0  0
   21.9824  -23.2296  -14.6844 O   0  0  0  0  0  0  0  0  0  0  0  0
  2 10  1  0
  2  1  1  1
  3  2  1  0
  4  3  1  0
  4  5  2  0
  6  5  1  0
  7  6  2  0
  8  9  2  0
  8  7  1  0
  9  4  1  0
 10 11  2  0
 13 12  1  1
 13 15  1  0
 14 13  1  0
 15 16  1  1
 16 10  1  0
 17 18  2  0
 17 15  1  0
 20 19  1  0
 21 20  2  0
 22 20  1  0
 22 23  1  0
 23 24  1  0
 24 25  1  0
 26 25  1  6
 26 28  1  0
 26 27  1  0
 27 17  1  0
 28 30  1  0
 29 28  2  0
M  END
$$$$
