FVR.pdb
     RDKit          3D

 30 30  0  0  1  0  0  0  0  0999 V2000
   28.3144  -20.9773   -8.9889 N   0  0  0  0  0  0  0  0  0  0  0  0
   26.9158  -20.6163   -8.8735 C   0  0  1  0  0  0  0  0  0  0  0  0
   26.8347  -19.2342   -8.2714 C   0  0  0  0  0  0  0  0  0  0  0  0
   27.4210  -19.2843   -6.8870 C   0  0  0  0  0  0  0  0  0  0  0  0
   28.6847  -18.7846   -6.7024 C   0  0  0  0  0  0  0  0  0  0  0  0
   29.2498  -18.8156   -5.4427 C   0  0  0  0  0  0  0  0  0  0  0  0
   28.5948  -19.3326   -4.3450 C   0  0  0  0  0  0  0  0  0  0  0  0
   27.3254  -19.8240   -4.5795 C   0  0  0  0  0  0  0  0  0  0  0  0
   26.7317  -19.8094   -5.8207 C   0  0  0  0  0  0  0  0  0  0  0  0
   26.3054  -20.7067  -10.1982 C   0  0  0  0  0  0  0  0  0  0  0  0
   26.8307  -20.1168  -11.1722 O   0  0  0  0  0  0  0  0  0  0  0  0
   26.2377  -23.1494  -12.6146 C   0  0  0  0  0  0  0  0  0  0  0  0
   24.7866  -22.7655  -12.4790 C   0  0  2  0  0  0  0  0  0  0  0  0
   24.0764  -22.9722  -13.7998 C   0  0  0  0  0  0  0  0  0  0  0  0
   24.5364  -21.4456  -11.8394 C   0  0  2  0  0  0  0  0  0  0  0  0
   25.1139  -21.4408  -10.4772 N   0  0  0  0  0  0  0  0  0  0  0  0
   23.1206  -21.0606  -11.7596 C   0  0  0  0  0  0  0  0  0  0  0  0
   22.3780  -21.4037  -10.7750 O   0  0  0  0  0  0  0  0  0  0  0  0
   18.0573  -14.9805  -13.9638 N   0  0  0  0  0  0  0  0  0  0  0  0
   19.3880  -15.1203  -14.4243 C   0  0  0  0  0  0  0  0  0  0  0  0
   20.2156  -14.1654  -14.5360 N   0  0  0  0  0  0  0  0  0  0  0  0
   19.8016  -16.4384  -14.7812 N   0  0  0  0  0  0  0  0  0  0  0  0
   18.8661  -17.5688  -14.7974 C   0  0  0  0  0  0  0  0  0  0  0  0
   19.2669  -18.5355  -13.7302 C   0  0  0  0  0  0  0  0  0  0  0  0
   20.6588  -19.0321  -13.7599 C   0  0  0  0  0  0  0  0  0  0  0  0
   21.0933  -19.9665  -12.6774 C   0  0  2  0  0  0  0  0  0  0  0  0
   22.5074  -20.2845  -12.7653 N   0  0  0  0  0  0  0  0  0  0  0  0
   20.2692  -21.2102  -12.8586 C   0  0  0  0  0  0  0  0  0  0  0  0
   20.6483  -21.9959  -13.7640 O   0  0  0  0  0  0  0  0  0  0  0  0
   19.1647  -21.5322  -12.1226 O   0  0  0  0  0  0  0  0  0  0  0  0
  2 10  1  0
  2  1  1  6
  3  2  1  0
  4  3  1  0
  4  5  2  0
  6  5  1  0
  7  6  2  0
  8  9  2  0
  8  7  1  0
  9  4  1  0
 10 11  2  0
 13 12  1  6
 13 15  1  0
 14 13  1  0
 15 16  1  1
 16 10  1  0
 17 18  2  0
 17 15  1  0
 20 19  1  0
 21 20  2  0
 22 20  1  0
 22 23  1  0
 23 24  1  0
 24 25  1  0
 26 25  1  6
 26 28  1  0
 26 27  1  0
 27 17  1  0
 28 30  1  0
 29 28  2  0
M  END
$$$$
