YVH.pdb
     RDKit          3D

 30 31  0  0  1  0  0  0  0  0999 V2000
   19.7977  -22.8204   -8.1255 O   0  0  0  0  0  0  0  0  0  0  0  0
   20.6742  -22.1271   -8.9593 C   0  0  0  0  0  0  0  0  0  0  0  0
   21.4540  -21.1328   -8.4433 C   0  0  0  0  0  0  0  0  0  0  0  0
   22.3496  -20.3923   -9.1764 C   0  0  0  0  0  0  0  0  0  0  0  0
   22.4626  -20.6819  -10.5266 C   0  0  0  0  0  0  0  0  0  0  0  0
   23.4509  -19.8677  -11.3068 C   0  0  0  0  0  0  0  0  0  0  0  0
   24.6676  -20.7061  -11.4919 C   0  0  2  0  0  0  0  0  0  0  0  0
   25.3456  -21.1590  -10.3269 N   0  0  0  0  0  0  0  0  0  0  0  0
   25.6375  -20.0436  -12.4429 C   0  0  0  0  0  0  0  0  0  0  0  0
   26.6503  -19.4121  -12.0232 O   0  0  0  0  0  0  0  0  0  0  0  0
   21.6965  -21.6718  -11.0736 C   0  0  0  0  0  0  0  0  0  0  0  0
   20.7984  -22.4020  -10.3070 C   0  0  0  0  0  0  0  0  0  0  0  0
   28.8537  -19.2549  -15.2803 C   0  0  0  0  0  0  0  0  0  0  0  0
   27.8196  -19.9997  -14.4324 C   0  0  2  0  0  0  0  0  0  0  0  0
   28.0106  -21.5076  -14.5818 C   0  0  0  0  0  0  0  0  0  0  0  0
   26.4343  -19.6003  -14.7685 C   0  0  2  0  0  0  0  0  0  0  0  0
   25.4314  -20.1049  -13.8511 N   0  0  0  0  0  0  0  0  0  0  0  0
   26.0726  -19.8919  -16.2008 C   0  0  0  0  0  0  0  0  0  0  0  0
   26.1153  -21.0524  -16.6827 O   0  0  0  0  0  0  0  0  0  0  0  0
   25.6726  -18.7946  -17.0016 N   0  0  0  0  0  0  0  0  0  0  0  0
   24.3163  -18.6901  -17.5811 C   0  0  1  0  0  0  0  0  0  0  0  0
   23.3597  -18.3248  -16.4713 C   0  0  0  0  0  0  0  0  0  0  0  0
   22.5786  -19.4684  -15.9856 C   0  0  0  0  0  0  0  0  0  0  0  0
   22.7295  -20.7680  -16.3873 C   0  0  0  0  0  0  0  0  0  0  0  0
   21.7986  -21.4978  -15.7133 N   0  0  0  0  0  0  0  0  0  0  0  0
   21.0816  -20.6943  -14.9101 C   0  0  0  0  0  0  0  0  0  0  0  0
   21.5858  -19.4410  -15.0983 N   0  0  0  0  0  0  0  0  0  0  0  0
   24.3869  -17.4761  -18.4744 C   0  0  0  0  0  0  0  0  0  0  0  0
   23.4575  -17.3392  -19.5260 O   0  0  0  0  0  0  0  0  0  0  0  0
   25.2224  -16.5707  -18.3476 O   0  0  0  0  0  0  0  0  0  0  0  0
  2  3  2  0
  2  1  1  0
  4  3  1  0
  5  4  2  0
  6  5  1  0
  7  6  1  0
  7  8  1  1
  9  7  1  0
  9 10  2  0
 11  5  1  0
 11 12  2  0
 12  2  1  0
 14 16  1  0
 14 13  1  6
 15 14  1  0
 16 17  1  1
 17  9  1  0
 18 16  1  0
 19 18  2  0
 20 18  1  0
 21 20  1  0
 21 22  1  1
 23 24  2  0
 23 22  1  0
 25 24  1  0
 26 27  2  0
 26 25  1  0
 27 23  1  0
 28 21  1  0
 28 29  1  0
 30 28  2  0
M  END
$$$$
