YVH.pdb
     RDKit          3D

 30 31  0  0  1  0  0  0  0  0999 V2000
   32.4683  -23.0260   -9.8695 O   0  0  0  0  0  0  0  0  0  0  0  0
   31.2818  -22.4562  -10.3295 C   0  0  0  0  0  0  0  0  0  0  0  0
   30.9203  -22.6101  -11.6366 C   0  0  0  0  0  0  0  0  0  0  0  0
   29.7734  -22.0924  -12.1885 C   0  0  0  0  0  0  0  0  0  0  0  0
   28.9347  -21.3694  -11.3557 C   0  0  0  0  0  0  0  0  0  0  0  0
   27.6849  -20.8198  -11.9757 C   0  0  0  0  0  0  0  0  0  0  0  0
   28.0301  -19.5001  -12.5732 C   0  0  2  0  0  0  0  0  0  0  0  0
   28.5776  -18.5061  -11.7166 N   0  0  0  0  0  0  0  0  0  0  0  0
   26.8621  -18.9406  -13.3521 C   0  0  0  0  0  0  0  0  0  0  0  0
   26.0537  -18.1168  -12.8337 O   0  0  0  0  0  0  0  0  0  0  0  0
   29.2677  -21.1978  -10.0422 C   0  0  0  0  0  0  0  0  0  0  0  0
   30.4351  -21.7318   -9.5135 C   0  0  0  0  0  0  0  0  0  0  0  0
   24.7030  -18.3092  -17.7646 C   0  0  0  0  0  0  0  0  0  0  0  0
   25.8894  -18.2839  -16.7978 C   0  0  2  0  0  0  0  0  0  0  0  0
   27.0561  -19.0773  -17.3824 C   0  0  0  0  0  0  0  0  0  0  0  0
   25.5218  -18.7853  -15.4543 C   0  0  2  0  0  0  0  0  0  0  0  0
   26.6319  -19.3356  -14.7013 N   0  0  0  0  0  0  0  0  0  0  0  0
   24.3490  -19.7293  -15.4829 C   0  0  0  0  0  0  0  0  0  0  0  0
   24.4101  -20.8622  -16.0249 O   0  0  0  0  0  0  0  0  0  0  0  0
   23.1526  -19.2911  -14.8649 N   0  0  0  0  0  0  0  0  0  0  0  0
   21.9720  -20.1685  -14.7140 C   0  0  1  0  0  0  0  0  0  0  0  0
   21.2357  -19.7520  -13.4632 C   0  0  0  0  0  0  0  0  0  0  0  0
   21.8993  -20.1940  -12.2311 C   0  0  0  0  0  0  0  0  0  0  0  0
   23.0546  -20.9248  -12.1631 C   0  0  0  0  0  0  0  0  0  0  0  0
   23.3074  -21.1376  -10.8425 N   0  0  0  0  0  0  0  0  0  0  0  0
   22.3503  -20.5625  -10.0954 C   0  0  0  0  0  0  0  0  0  0  0  0
   21.4895  -19.9842  -10.9814 N   0  0  0  0  0  0  0  0  0  0  0  0
   21.0737  -19.7828  -15.8633 C   0  0  0  0  0  0  0  0  0  0  0  0
   20.0035  -20.6305  -16.2161 O   0  0  0  0  0  0  0  0  0  0  0  0
   21.2124  -18.7514  -16.5348 O   0  0  0  0  0  0  0  0  0  0  0  0
  2  3  2  0
  2  1  1  0
  4  3  1  0
  5  4  2  0
  6  5  1  0
  7  6  1  0
  7  8  1  1
  9  7  1  0
  9 10  2  0
 11  5  1  0
 11 12  2  0
 12  2  1  0
 14 16  1  0
 14 13  1  6
 15 14  1  0
 16 17  1  6
 17  9  1  0
 18 16  1  0
 19 18  2  0
 20 18  1  0
 21 20  1  0
 21 22  1  1
 23 24  2  0
 23 22  1  0
 25 24  1  0
 26 27  2  0
 26 25  1  0
 27 23  1  0
 28 21  1  0
 28 29  1  0
 30 28  2  0
M  END
$$$$
