YVH.pdb
     RDKit          3D

 30 31  0  0  1  0  0  0  0  0999 V2000
   16.1073  -23.4346  -15.7265 O   0  0  0  0  0  0  0  0  0  0  0  0
   17.2647  -22.7311  -15.3953 C   0  0  0  0  0  0  0  0  0  0  0  0
   17.1650  -21.4838  -14.8500 C   0  0  0  0  0  0  0  0  0  0  0  0
   18.2405  -20.7097  -14.4868 C   0  0  0  0  0  0  0  0  0  0  0  0
   19.5049  -21.2387  -14.6900 C   0  0  0  0  0  0  0  0  0  0  0  0
   20.6646  -20.3812  -14.2799 C   0  0  0  0  0  0  0  0  0  0  0  0
   21.2994  -21.0297  -13.0992 C   0  0  2  0  0  0  0  0  0  0  0  0
   20.5346  -21.1286  -11.9046 N   0  0  0  0  0  0  0  0  0  0  0  0
   22.6508  -20.4175  -12.8115 C   0  0  0  0  0  0  0  0  0  0  0  0
   22.7616  -19.3010  -12.2266 O   0  0  0  0  0  0  0  0  0  0  0  0
   19.6386  -22.4848  -15.2334 C   0  0  0  0  0  0  0  0  0  0  0  0
   18.5323  -23.2428  -15.5923 C   0  0  0  0  0  0  0  0  0  0  0  0
   25.8667  -21.9404  -11.1553 C   0  0  0  0  0  0  0  0  0  0  0  0
   26.1992  -21.3598  -12.5320 C   0  0  2  0  0  0  0  0  0  0  0  0
   27.5543  -20.6568  -12.4884 C   0  0  0  0  0  0  0  0  0  0  0  0
   25.1398  -20.4488  -13.0212 C   0  0  2  0  0  0  0  0  0  0  0  0
   23.8484  -21.0825  -13.2025 N   0  0  0  0  0  0  0  0  0  0  0  0
   25.5536  -19.6736  -14.2439 C   0  0  0  0  0  0  0  0  0  0  0  0
   25.6107  -20.1975  -15.3855 O   0  0  0  0  0  0  0  0  0  0  0  0
   25.8802  -18.3077  -14.0621 N   0  0  0  0  0  0  0  0  0  0  0  0
   26.1891  -17.4098  -15.1956 C   0  0  1  0  0  0  0  0  0  0  0  0
   26.4970  -16.0407  -14.6382 C   0  0  0  0  0  0  0  0  0  0  0  0
   26.8256  -15.0574  -15.6768 C   0  0  0  0  0  0  0  0  0  0  0  0
   26.8608  -15.2985  -17.0236 C   0  0  0  0  0  0  0  0  0  0  0  0
   27.2298  -14.1326  -17.6217 N   0  0  0  0  0  0  0  0  0  0  0  0
   27.4210  -13.1822  -16.6916 C   0  0  0  0  0  0  0  0  0  0  0  0
   27.1638  -13.7822  -15.4941 N   0  0  0  0  0  0  0  0  0  0  0  0
   27.4966  -17.9328  -15.7376 C   0  0  0  0  0  0  0  0  0  0  0  0
   27.6529  -18.0865  -17.1306 O   0  0  0  0  0  0  0  0  0  0  0  0
   28.4643  -18.2443  -15.0304 O   0  0  0  0  0  0  0  0  0  0  0  0
  2  3  2  0
  2  1  1  0
  4  3  1  0
  5  4  2  0
  6  5  1  0
  7  6  1  0
  7  8  1  1
  9  7  1  0
  9 10  2  0
 11  5  1  0
 11 12  2  0
 12  2  1  0
 14 16  1  0
 14 13  1  1
 15 14  1  0
 16 17  1  6
 17  9  1  0
 18 16  1  0
 19 18  2  0
 20 18  1  0
 21 20  1  0
 21 22  1  1
 23 24  2  0
 23 22  1  0
 25 24  1  0
 26 27  2  0
 26 25  1  0
 27 23  1  0
 28 21  1  0
 28 29  1  0
 30 28  2  0
M  END
$$$$
