YVH.pdb
     RDKit          3D

 30 31  0  0  1  0  0  0  0  0999 V2000
   22.1729  -24.3606  -19.1784 O   0  0  0  0  0  0  0  0  0  0  0  0
   22.0800  -23.1560  -18.4824 C   0  0  0  0  0  0  0  0  0  0  0  0
   22.4591  -21.9936  -19.0892 C   0  0  0  0  0  0  0  0  0  0  0  0
   22.4050  -20.7565  -18.4940 C   0  0  0  0  0  0  0  0  0  0  0  0
   21.9322  -20.6945  -17.1931 C   0  0  0  0  0  0  0  0  0  0  0  0
   21.8739  -19.3343  -16.5647 C   0  0  0  0  0  0  0  0  0  0  0  0
   23.2318  -19.0334  -16.0327 C   0  0  2  0  0  0  0  0  0  0  0  0
   23.8095  -19.9615  -15.1234 N   0  0  0  0  0  0  0  0  0  0  0  0
   23.2892  -17.6337  -15.4659 C   0  0  0  0  0  0  0  0  0  0  0  0
   23.0842  -17.4070  -14.2381 O   0  0  0  0  0  0  0  0  0  0  0  0
   21.5442  -21.8399  -16.5580 C   0  0  0  0  0  0  0  0  0  0  0  0
   21.6123  -23.0765  -17.1854 C   0  0  0  0  0  0  0  0  0  0  0  0
   25.5494  -14.3501  -17.0713 C   0  0  0  0  0  0  0  0  0  0  0  0
   24.9288  -14.5643  -15.6886 C   0  0  2  0  0  0  0  0  0  0  0  0
   25.8616  -15.4087  -14.8229 C   0  0  0  0  0  0  0  0  0  0  0  0
   23.5814  -15.1719  -15.7726 C   0  0  2  0  0  0  0  0  0  0  0  0
   23.5696  -16.5193  -16.3078 N   0  0  0  0  0  0  0  0  0  0  0  0
   22.5838  -14.2881  -16.4733 C   0  0  0  0  0  0  0  0  0  0  0  0
   22.3067  -14.4211  -17.6925 O   0  0  0  0  0  0  0  0  0  0  0  0
   21.9541  -13.2844  -15.6978 N   0  0  0  0  0  0  0  0  0  0  0  0
   20.8844  -12.4195  -16.2399 C   0  0  1  0  0  0  0  0  0  0  0  0
   19.7513  -12.3947  -15.2421 C   0  0  0  0  0  0  0  0  0  0  0  0
   19.0565  -13.6824  -15.1286 C   0  0  0  0  0  0  0  0  0  0  0  0
   18.3176  -14.2815  -16.1126 C   0  0  0  0  0  0  0  0  0  0  0  0
   17.8321  -15.4403  -15.5884 N   0  0  0  0  0  0  0  0  0  0  0  0
   18.2472  -15.5768  -14.3181 C   0  0  0  0  0  0  0  0  0  0  0  0
   19.0049  -14.4729  -14.0580 N   0  0  0  0  0  0  0  0  0  0  0  0
   21.4797  -11.0333  -16.2152 C   0  0  0  0  0  0  0  0  0  0  0  0
   20.8472   -9.9987  -16.9348 O   0  0  0  0  0  0  0  0  0  0  0  0
   22.5082  -10.7323  -15.5942 O   0  0  0  0  0  0  0  0  0  0  0  0
  2  3  2  0
  2  1  1  0
  4  3  1  0
  5  4  2  0
  6  5  1  0
  7  6  1  0
  7  8  1  1
  9  7  1  0
  9 10  2  0
 11  5  1  0
 11 12  2  0
 12  2  1  0
 14 16  1  0
 14 13  1  6
 15 14  1  0
 16 17  1  6
 17  9  1  0
 18 16  1  0
 19 18  2  0
 20 18  1  0
 21 20  1  0
 21 22  1  1
 23 24  2  0
 23 22  1  0
 25 24  1  0
 26 27  2  0
 26 25  1  0
 27 23  1  0
 28 21  1  0
 28 29  1  0
 30 28  2  0
M  END
$$$$
