YVH.pdb
     RDKit          3D

 30 31  0  0  1  0  0  0  0  0999 V2000
   28.0675  -21.5223   -7.2597 O   0  0  0  0  0  0  0  0  0  0  0  0
   27.8525  -21.0921   -8.5685 C   0  0  0  0  0  0  0  0  0  0  0  0
   26.5820  -20.8324   -8.9946 C   0  0  0  0  0  0  0  0  0  0  0  0
   26.2628  -20.4028  -10.2600 C   0  0  0  0  0  0  0  0  0  0  0  0
   27.3054  -20.2232  -11.1547 C   0  0  0  0  0  0  0  0  0  0  0  0
   26.9364  -19.7466  -12.5278 C   0  0  0  0  0  0  0  0  0  0  0  0
   26.6141  -20.9505  -13.3429 C   0  0  2  0  0  0  0  0  0  0  0  0
   27.6734  -21.8482  -13.6491 N   0  0  0  0  0  0  0  0  0  0  0  0
   25.8689  -20.5649  -14.5998 C   0  0  0  0  0  0  0  0  0  0  0  0
   26.4778  -20.1723  -15.6371 O   0  0  0  0  0  0  0  0  0  0  0  0
   28.5885  -20.4739  -10.7590 C   0  0  0  0  0  0  0  0  0  0  0  0
   28.8797  -20.9091   -9.4732 C   0  0  0  0  0  0  0  0  0  0  0  0
   23.4619  -20.9313  -18.3187 C   0  0  0  0  0  0  0  0  0  0  0  0
   24.2113  -21.2386  -17.0199 C   0  0  2  0  0  0  0  0  0  0  0  0
   24.0932  -22.7248  -16.6884 C   0  0  0  0  0  0  0  0  0  0  0  0
   23.7391  -20.4007  -15.8946 C   0  0  2  0  0  0  0  0  0  0  0  0
   24.4465  -20.6250  -14.6491 N   0  0  0  0  0  0  0  0  0  0  0  0
   22.2468  -20.4642  -15.7039 C   0  0  0  0  0  0  0  0  0  0  0  0
   21.6666  -21.4932  -15.2731 O   0  0  0  0  0  0  0  0  0  0  0  0
   21.5045  -19.3032  -16.0300 N   0  0  0  0  0  0  0  0  0  0  0  0
   20.0696  -19.1626  -15.7018 C   0  0  1  0  0  0  0  0  0  0  0  0
   19.9130  -17.9720  -14.7864 C   0  0  0  0  0  0  0  0  0  0  0  0
   20.2186  -18.2802  -13.3845 C   0  0  0  0  0  0  0  0  0  0  0  0
   20.5641  -19.5100  -12.8932 C   0  0  0  0  0  0  0  0  0  0  0  0
   20.7375  -19.3621  -11.5511 N   0  0  0  0  0  0  0  0  0  0  0  0
   20.5130  -18.0852  -11.1991 C   0  0  0  0  0  0  0  0  0  0  0  0
   20.1929  -17.4357  -12.3549 N   0  0  0  0  0  0  0  0  0  0  0  0
   19.4280  -18.7606  -17.0069 C   0  0  0  0  0  0  0  0  0  0  0  0
   18.0216  -18.7437  -17.1071 O   0  0  0  0  0  0  0  0  0  0  0  0
   20.0629  -18.4374  -18.0201 O   0  0  0  0  0  0  0  0  0  0  0  0
  2  3  2  0
  2  1  1  0
  4  3  1  0
  5  4  2  0
  6  5  1  0
  7  6  1  0
  7  8  1  6
  9  7  1  0
  9 10  2  0
 11  5  1  0
 11 12  2  0
 12  2  1  0
 14 16  1  0
 14 13  1  6
 15 14  1  0
 16 17  1  1
 17  9  1  0
 18 16  1  0
 19 18  2  0
 20 18  1  0
 21 20  1  0
 21 22  1  1
 23 24  2  0
 23 22  1  0
 25 24  1  0
 26 27  2  0
 26 25  1  0
 27 23  1  0
 28 21  1  0
 28 29  1  0
 30 28  2  0
M  END
$$$$
