YVH.pdb
     RDKit          3D

 30 31  0  0  1  0  0  0  0  0999 V2000
   20.4595  -19.6811  -14.8613 O   0  0  0  0  0  0  0  0  0  0  0  0
   20.6723  -18.3033  -14.8399 C   0  0  0  0  0  0  0  0  0  0  0  0
   19.7085  -17.4782  -14.3364 C   0  0  0  0  0  0  0  0  0  0  0  0
   19.8194  -16.1105  -14.2674 C   0  0  0  0  0  0  0  0  0  0  0  0
   20.9902  -15.5406  -14.7409 C   0  0  0  0  0  0  0  0  0  0  0  0
   21.0944  -14.0476  -14.6494 C   0  0  0  0  0  0  0  0  0  0  0  0
   20.6191  -13.4899  -15.9458 C   0  0  2  0  0  0  0  0  0  0  0  0
   21.4337  -13.6911  -17.0938 N   0  0  0  0  0  0  0  0  0  0  0  0
   20.2596  -12.0290  -15.8032 C   0  0  0  0  0  0  0  0  0  0  0  0
   21.1449  -11.1250  -15.8096 O   0  0  0  0  0  0  0  0  0  0  0  0
   21.9745  -16.3391  -15.2505 C   0  0  0  0  0  0  0  0  0  0  0  0
   21.8324  -17.7189  -15.3087 C   0  0  0  0  0  0  0  0  0  0  0  0
   16.6149  -10.2720  -17.1105 C   0  0  0  0  0  0  0  0  0  0  0  0
   17.9695   -9.6458  -16.7702 C   0  0  2  0  0  0  0  0  0  0  0  0
   18.9235   -9.7903  -17.9541 C   0  0  0  0  0  0  0  0  0  0  0  0
   18.5544  -10.2229  -15.5387 C   0  0  2  0  0  0  0  0  0  0  0  0
   18.9021  -11.6262  -15.6473 N   0  0  0  0  0  0  0  0  0  0  0  0
   17.7231   -9.9507  -14.3131 C   0  0  0  0  0  0  0  0  0  0  0  0
   17.0726  -10.8531  -13.7272 O   0  0  0  0  0  0  0  0  0  0  0  0
   17.7000   -8.6192  -13.8316 N   0  0  0  0  0  0  0  0  0  0  0  0
   16.7449   -8.1678  -12.7971 C   0  0  1  0  0  0  0  0  0  0  0  0
   17.5140   -7.9362  -11.5184 C   0  0  0  0  0  0  0  0  0  0  0  0
   16.6850   -7.3843  -10.4405 C   0  0  0  0  0  0  0  0  0  0  0  0
   16.0915   -8.1048   -9.4396 C   0  0  0  0  0  0  0  0  0  0  0  0
   15.4013   -7.2166   -8.6728 N   0  0  0  0  0  0  0  0  0  0  0  0
   15.5502   -5.9754   -9.1647 C   0  0  0  0  0  0  0  0  0  0  0  0
   16.3508   -6.1077  -10.2610 N   0  0  0  0  0  0  0  0  0  0  0  0
   16.3102   -6.8006  -13.2646 C   0  0  0  0  0  0  0  0  0  0  0  0
   15.0373   -6.3186  -12.8959 O   0  0  0  0  0  0  0  0  0  0  0  0
   17.0072   -6.0544  -13.9655 O   0  0  0  0  0  0  0  0  0  0  0  0
  2  3  2  0
  2  1  1  0
  4  3  1  0
  5  4  2  0
  6  5  1  0
  7  6  1  0
  7  8  1  6
  9  7  1  0
  9 10  2  0
 11  5  1  0
 11 12  2  0
 12  2  1  0
 14 16  1  0
 14 13  1  6
 15 14  1  0
 16 17  1  6
 17  9  1  0
 18 16  1  0
 19 18  2  0
 20 18  1  0
 21 20  1  0
 21 22  1  1
 23 24  2  0
 23 22  1  0
 25 24  1  0
 26 27  2  0
 26 25  1  0
 27 23  1  0
 28 21  1  0
 28 29  1  0
 30 28  2  0
M  END
$$$$
