YVH.pdb
     RDKit          3D

 30 31  0  0  1  0  0  0  0  0999 V2000
   19.6872  -16.5224  -17.4936 O   0  0  0  0  0  0  0  0  0  0  0  0
   19.6699  -15.1305  -17.4145 C   0  0  0  0  0  0  0  0  0  0  0  0
   20.7324  -14.4135  -17.8837 C   0  0  0  0  0  0  0  0  0  0  0  0
   20.8138  -13.0422  -17.8553 C   0  0  0  0  0  0  0  0  0  0  0  0
   19.7419  -12.3505  -17.3145 C   0  0  0  0  0  0  0  0  0  0  0  0
   19.8473  -10.8548  -17.3000 C   0  0  0  0  0  0  0  0  0  0  0  0
   19.1201  -10.3479  -18.4966 C   0  0  2  0  0  0  0  0  0  0  0  0
   19.5140  -10.8403  -19.7711 N   0  0  0  0  0  0  0  0  0  0  0  0
   19.0827   -8.8371  -18.5029 C   0  0  0  0  0  0  0  0  0  0  0  0
   19.6749   -8.1634  -19.3953 O   0  0  0  0  0  0  0  0  0  0  0  0
   18.6631  -13.0389  -16.8368 C   0  0  0  0  0  0  0  0  0  0  0  0
   18.6107  -14.4256  -16.8776 C   0  0  0  0  0  0  0  0  0  0  0  0
   17.4403   -4.6880  -18.8490 C   0  0  0  0  0  0  0  0  0  0  0  0
   17.5437   -6.2143  -18.7974 C   0  0  2  0  0  0  0  0  0  0  0  0
   16.1549   -6.8362  -18.9276 C   0  0  0  0  0  0  0  0  0  0  0  0
   18.2267   -6.6836  -17.5707 C   0  0  2  0  0  0  0  0  0  0  0  0
   18.3805   -8.1229  -17.4899 N   0  0  0  0  0  0  0  0  0  0  0  0
   17.6225   -6.1190  -16.3124 C   0  0  0  0  0  0  0  0  0  0  0  0
   17.4908   -4.8826  -16.1250 O   0  0  0  0  0  0  0  0  0  0  0  0
   17.1970   -7.0448  -15.3290 N   0  0  0  0  0  0  0  0  0  0  0  0
   16.7147   -6.6200  -13.9974 C   0  0  1  0  0  0  0  0  0  0  0  0
   16.6555   -7.8399  -13.1094 C   0  0  0  0  0  0  0  0  0  0  0  0
   16.1508   -7.5472  -11.7628 C   0  0  0  0  0  0  0  0  0  0  0  0
   15.2325   -6.5833  -11.4453 C   0  0  0  0  0  0  0  0  0  0  0  0
   15.0641   -6.6312  -10.0952 N   0  0  0  0  0  0  0  0  0  0  0  0
   15.8442   -7.5910   -9.5709 C   0  0  0  0  0  0  0  0  0  0  0  0
   16.5077   -8.1435  -10.6267 N   0  0  0  0  0  0  0  0  0  0  0  0
   17.8360   -5.7714  -13.4500 C   0  0  0  0  0  0  0  0  0  0  0  0
   19.1708   -6.1284  -13.7312 O   0  0  0  0  0  0  0  0  0  0  0  0
   17.6638   -4.7608  -12.7550 O   0  0  0  0  0  0  0  0  0  0  0  0
  2  3  2  0
  2  1  1  0
  4  3  1  0
  5  4  2  0
  6  5  1  0
  7  6  1  0
  7  8  1  6
  9  7  1  0
  9 10  2  0
 11  5  1  0
 11 12  2  0
 12  2  1  0
 14 16  1  0
 14 13  1  1
 15 14  1  0
 16 17  1  1
 17  9  1  0
 18 16  1  0
 19 18  2  0
 20 18  1  0
 21 20  1  0
 21 22  1  1
 23 24  2  0
 23 22  1  0
 25 24  1  0
 26 27  2  0
 26 25  1  0
 27 23  1  0
 28 21  1  0
 28 29  1  0
 30 28  2  0
M  END
$$$$
