YVH.pdb
     RDKit          3D

 30 31  0  0  1  0  0  0  0  0999 V2000
   18.4127  -25.3716  -12.8365 O   0  0  0  0  0  0  0  0  0  0  0  0
   19.2308  -24.2640  -13.0560 C   0  0  0  0  0  0  0  0  0  0  0  0
   20.3155  -24.3769  -13.8768 C   0  0  0  0  0  0  0  0  0  0  0  0
   21.1816  -23.3487  -14.1606 C   0  0  0  0  0  0  0  0  0  0  0  0
   20.9285  -22.1204  -13.5716 C   0  0  0  0  0  0  0  0  0  0  0  0
   21.8809  -21.0098  -13.9004 C   0  0  0  0  0  0  0  0  0  0  0  0
   23.1413  -21.2708  -13.1516 C   0  0  2  0  0  0  0  0  0  0  0  0
   23.0785  -21.2886  -11.7312 N   0  0  0  0  0  0  0  0  0  0  0  0
   24.2451  -20.3508  -13.6197 C   0  0  0  0  0  0  0  0  0  0  0  0
   24.3747  -19.1812  -13.1547 O   0  0  0  0  0  0  0  0  0  0  0  0
   19.8504  -21.9745  -12.7455 C   0  0  0  0  0  0  0  0  0  0  0  0
   18.9937  -23.0333  -12.4762 C   0  0  0  0  0  0  0  0  0  0  0  0
   28.5688  -19.4014  -15.6675 C   0  0  0  0  0  0  0  0  0  0  0  0
   27.5453  -20.4212  -15.1622 C   0  0  2  0  0  0  0  0  0  0  0  0
   27.6048  -21.6869  -16.0149 C   0  0  0  0  0  0  0  0  0  0  0  0
   26.1746  -19.8628  -15.1292 C   0  0  2  0  0  0  0  0  0  0  0  0
   25.1734  -20.7757  -14.6132 N   0  0  0  0  0  0  0  0  0  0  0  0
   25.7544  -19.2656  -16.4460 C   0  0  0  0  0  0  0  0  0  0  0  0
   25.4195  -19.9735  -17.4297 O   0  0  0  0  0  0  0  0  0  0  0  0
   25.7465  -17.8527  -16.5406 N   0  0  0  0  0  0  0  0  0  0  0  0
   25.2825  -17.1428  -17.7519 C   0  0  1  0  0  0  0  0  0  0  0  0
   24.7805  -15.7815  -17.3336 C   0  0  0  0  0  0  0  0  0  0  0  0
   23.4493  -15.8237  -16.7173 C   0  0  0  0  0  0  0  0  0  0  0  0
   22.6864  -16.9458  -16.5384 C   0  0  0  0  0  0  0  0  0  0  0  0
   21.5238  -16.5414  -15.9570 N   0  0  0  0  0  0  0  0  0  0  0  0
   21.5446  -15.2112  -15.7699 C   0  0  0  0  0  0  0  0  0  0  0  0
   22.7500  -14.7910  -16.2502 N   0  0  0  0  0  0  0  0  0  0  0  0
   26.5444  -16.8879  -18.5389 C   0  0  0  0  0  0  0  0  0  0  0  0
   26.4873  -16.8758  -19.9478 O   0  0  0  0  0  0  0  0  0  0  0  0
   27.6523  -16.6843  -18.0242 O   0  0  0  0  0  0  0  0  0  0  0  0
  2  3  2  0
  2  1  1  0
  4  3  1  0
  5  4  2  0
  6  5  1  0
  7  6  1  0
  7  8  1  1
  9  7  1  0
  9 10  2  0
 11  5  1  0
 11 12  2  0
 12  2  1  0
 14 16  1  0
 14 13  1  6
 15 14  1  0
 16 17  1  6
 17  9  1  0
 18 16  1  0
 19 18  2  0
 20 18  1  0
 21 20  1  0
 21 22  1  1
 23 24  2  0
 23 22  1  0
 25 24  1  0
 26 27  2  0
 26 25  1  0
 27 23  1  0
 28 21  1  0
 28 29  1  0
 30 28  2  0
M  END
$$$$
