YVH.pdb
     RDKit          3D

 30 31  0  0  1  0  0  0  0  0999 V2000
   27.2117  -22.1563   -9.5193 O   0  0  0  0  0  0  0  0  0  0  0  0
   26.1755  -21.6415  -10.2974 C   0  0  0  0  0  0  0  0  0  0  0  0
   25.8801  -22.2198  -11.4980 C   0  0  0  0  0  0  0  0  0  0  0  0
   24.8800  -21.7925  -12.3376 C   0  0  0  0  0  0  0  0  0  0  0  0
   24.1265  -20.7035  -11.9299 C   0  0  0  0  0  0  0  0  0  0  0  0
   23.0353  -20.2581  -12.8568 C   0  0  0  0  0  0  0  0  0  0  0  0
   23.6813  -19.8309  -14.1287 C   0  0  2  0  0  0  0  0  0  0  0  0
   24.7621  -18.9105  -14.0483 N   0  0  0  0  0  0  0  0  0  0  0  0
   22.6485  -19.3469  -15.1202 C   0  0  0  0  0  0  0  0  0  0  0  0
   22.1533  -18.1848  -15.0470 O   0  0  0  0  0  0  0  0  0  0  0  0
   24.3966  -20.1027  -10.7332 C   0  0  0  0  0  0  0  0  0  0  0  0
   25.4156  -20.5565   -9.9067 C   0  0  0  0  0  0  0  0  0  0  0  0
   20.5987  -19.4678  -19.5503 C   0  0  0  0  0  0  0  0  0  0  0  0
   21.6987  -19.8375  -18.5521 C   0  0  2  0  0  0  0  0  0  0  0  0
   22.2157  -21.2449  -18.8429 C   0  0  0  0  0  0  0  0  0  0  0  0
   21.2399  -19.7156  -17.1499 C   0  0  2  0  0  0  0  0  0  0  0  0
   22.1931  -20.1965  -16.1690 N   0  0  0  0  0  0  0  0  0  0  0  0
   19.8718  -20.3044  -16.9287 C   0  0  0  0  0  0  0  0  0  0  0  0
   19.6842  -21.5410  -16.8000 O   0  0  0  0  0  0  0  0  0  0  0  0
   18.7828  -19.4013  -16.8667 N   0  0  0  0  0  0  0  0  0  0  0  0
   17.3818  -19.8576  -16.7433 C   0  0  1  0  0  0  0  0  0  0  0  0
   16.5798  -18.7432  -16.1148 C   0  0  0  0  0  0  0  0  0  0  0  0
   15.1444  -19.0393  -16.0393 C   0  0  0  0  0  0  0  0  0  0  0  0
   14.5203  -19.7187  -15.0283 C   0  0  0  0  0  0  0  0  0  0  0  0
   13.2022  -19.7928  -15.3604 N   0  0  0  0  0  0  0  0  0  0  0  0
   12.9924  -19.1819  -16.5383 C   0  0  0  0  0  0  0  0  0  0  0  0
   14.2133  -18.7235  -16.9377 N   0  0  0  0  0  0  0  0  0  0  0  0
   16.8964  -19.9553  -18.1686 C   0  0  0  0  0  0  0  0  0  0  0  0
   15.8337  -20.8297  -18.4763 O   0  0  0  0  0  0  0  0  0  0  0  0
   17.3759  -19.3081  -19.1094 O   0  0  0  0  0  0  0  0  0  0  0  0
  2  3  2  0
  2  1  1  0
  4  3  1  0
  5  4  2  0
  6  5  1  0
  7  6  1  0
  7  8  1  1
  9  7  1  0
  9 10  2  0
 11  5  1  0
 11 12  2  0
 12  2  1  0
 14 16  1  0
 14 13  1  6
 15 14  1  0
 16 17  1  1
 17  9  1  0
 18 16  1  0
 19 18  2  0
 20 18  1  0
 21 20  1  0
 21 22  1  1
 23 24  2  0
 23 22  1  0
 25 24  1  0
 26 27  2  0
 26 25  1  0
 27 23  1  0
 28 21  1  0
 28 29  1  0
 30 28  2  0
M  END
$$$$
