YVH.pdb
     RDKit          3D

 30 31  0  0  1  0  0  0  0  0999 V2000
   15.2476  -18.7414  -15.4231 O   0  0  0  0  0  0  0  0  0  0  0  0
   15.9973  -17.6147  -15.7587 C   0  0  0  0  0  0  0  0  0  0  0  0
   15.8320  -16.4580  -15.0532 C   0  0  0  0  0  0  0  0  0  0  0  0
   16.5210  -15.2954  -15.3006 C   0  0  0  0  0  0  0  0  0  0  0  0
   17.4428  -15.3079  -16.3351 C   0  0  0  0  0  0  0  0  0  0  0  0
   18.1895  -14.0315  -16.5836 C   0  0  0  0  0  0  0  0  0  0  0  0
   17.3697  -13.2137  -17.5198 C   0  0  2  0  0  0  0  0  0  0  0  0
   17.0129  -13.7919  -18.7689 N   0  0  0  0  0  0  0  0  0  0  0  0
   17.9891  -11.8508  -17.7268 C   0  0  0  0  0  0  0  0  0  0  0  0
   18.8398  -11.6413  -18.6397 O   0  0  0  0  0  0  0  0  0  0  0  0
   17.6321  -16.4501  -17.0599 C   0  0  0  0  0  0  0  0  0  0  0  0
   16.9190  -17.6096  -16.7871 C   0  0  0  0  0  0  0  0  0  0  0  0
   16.3389   -7.7505  -16.9072 C   0  0  0  0  0  0  0  0  0  0  0  0
   17.2500   -8.5296  -17.8590 C   0  0  2  0  0  0  0  0  0  0  0  0
   16.4078   -9.3017  -18.8724 C   0  0  0  0  0  0  0  0  0  0  0  0
   18.1714   -9.4316  -17.1318 C   0  0  2  0  0  0  0  0  0  0  0  0
   17.6355  -10.7562  -16.8864 N   0  0  0  0  0  0  0  0  0  0  0  0
   18.7225   -8.8145  -15.8737 C   0  0  0  0  0  0  0  0  0  0  0  0
   18.1515   -8.9337  -14.7598 O   0  0  0  0  0  0  0  0  0  0  0  0
   19.9298   -8.0835  -15.9886 N   0  0  0  0  0  0  0  0  0  0  0  0
   20.6386   -7.5353  -14.8125 C   0  0  1  0  0  0  0  0  0  0  0  0
   22.0982   -7.3896  -15.1710 C   0  0  0  0  0  0  0  0  0  0  0  0
   22.7981   -8.6760  -15.2669 C   0  0  0  0  0  0  0  0  0  0  0  0
   22.2543   -9.9037  -15.0017 C   0  0  0  0  0  0  0  0  0  0  0  0
   23.2436  -10.8199  -15.1891 N   0  0  0  0  0  0  0  0  0  0  0  0
   24.3759  -10.2004  -15.5618 C   0  0  0  0  0  0  0  0  0  0  0  0
   24.0720   -8.8714  -15.6023 N   0  0  0  0  0  0  0  0  0  0  0  0
   20.1085   -6.1286  -14.6821 C   0  0  0  0  0  0  0  0  0  0  0  0
   20.3730   -5.3988  -13.5049 O   0  0  0  0  0  0  0  0  0  0  0  0
   19.4418   -5.5562  -15.5549 O   0  0  0  0  0  0  0  0  0  0  0  0
  2  3  2  0
  2  1  1  0
  4  3  1  0
  5  4  2  0
  6  5  1  0
  7  6  1  0
  7  8  1  6
  9  7  1  0
  9 10  2  0
 11  5  1  0
 11 12  2  0
 12  2  1  0
 14 16  1  0
 14 13  1  1
 15 14  1  0
 16 17  1  1
 17  9  1  0
 18 16  1  0
 19 18  2  0
 20 18  1  0
 21 20  1  0
 21 22  1  6
 23 24  2  0
 23 22  1  0
 25 24  1  0
 26 27  2  0
 26 25  1  0
 27 23  1  0
 28 21  1  0
 28 29  1  0
 30 28  2  0
M  END
$$$$
