HVP.pdb
     RDKit          3D

 25 26  0  0  1  0  0  0  0  0999 V2000
   10.0346  -15.8427   20.7874 N   0  0  0  0  0  0  0  0  0  0  0  0
    9.2603  -16.4077   21.8558 C   0  0  1  0  0  0  0  0  0  0  0  0
    9.7025  -17.8168   22.1453 C   0  0  0  0  0  0  0  0  0  0  0  0
    9.1729  -18.6805   21.0564 C   0  0  0  0  0  0  0  0  0  0  0  0
    8.1079  -19.5606   21.2184 C   0  0  0  0  0  0  0  0  0  0  0  0
    7.9098  -20.1615   20.0483 N   0  0  0  0  0  0  0  0  0  0  0  0
    8.8030  -19.6968   19.1623 C   0  0  0  0  0  0  0  0  0  0  0  0
    9.5799  -18.7864   19.7808 N   0  0  0  0  0  0  0  0  0  0  0  0
    9.3262  -15.5346   23.0562 C   0  0  0  0  0  0  0  0  0  0  0  0
   10.3887  -14.9367   23.3426 O   0  0  0  0  0  0  0  0  0  0  0  0
    7.0321  -13.4670   26.8664 C   0  0  0  0  0  0  0  0  0  0  0  0
    6.9292  -14.0125   25.4341 C   0  0  1  0  0  0  0  0  0  0  0  0
    6.5214  -12.8884   24.5161 C   0  0  0  0  0  0  0  0  0  0  0  0
    8.3229  -14.5232   25.1098 C   0  0  2  0  0  0  0  0  0  0  0  0
    8.2009  -15.3623   23.8923 N   0  0  0  0  0  0  0  0  0  0  0  0
    8.9278  -15.3207   26.1993 C   0  0  0  0  0  0  0  0  0  0  0  0
    8.6458  -16.5779   26.1905 O   0  0  0  0  0  0  0  0  0  0  0  0
    9.7605  -14.8814   27.2247 N   0  0  0  0  0  0  0  0  0  0  0  0
    9.9342  -13.4485   27.5410 C   0  0  0  0  0  0  0  0  0  0  0  0
   10.1933  -13.5208   29.0275 C   0  0  0  0  0  0  0  0  0  0  0  0
   11.2943  -14.5932   29.0124 C   0  0  0  0  0  0  0  0  0  0  0  0
   10.5561  -15.6452   28.1489 C   0  0  1  0  0  0  0  0  0  0  0  0
    9.7256  -16.4340   29.1069 C   0  0  0  0  0  0  0  0  0  0  0  0
    8.4881  -16.3174   29.1834 O   0  0  0  0  0  0  0  0  0  0  0  0
   10.3231  -17.3477   29.9662 O   0  0  0  0  0  0  0  0  0  0  0  0
  2  9  1  0
  2  1  1  6
  3  2  1  0
  4  3  1  0
  5  4  2  0
  6  7  1  0
  6  5  1  0
  7  8  2  0
  8  4  1  0
  9 10  2  0
 12 11  1  1
 12 14  1  0
 12 13  1  0
 14 15  1  6
 15  9  1  0
 16 14  1  0
 16 17  2  0
 18 16  1  0
 19 18  1  0
 20 19  1  0
 21 20  1  0
 22 21  1  0
 22 18  1  0
 22 23  1  1
 24 23  2  0
 25 23  1  0
M  END
$$$$
