HVP.pdb
     RDKit          3D

 25 26  0  0  1  0  0  0  0  0999 V2000
   12.5904  -17.6413   21.8714 N   0  0  0  0  0  0  0  0  0  0  0  0
   11.6141  -17.6254   22.9234 C   0  0  1  0  0  0  0  0  0  0  0  0
   12.2293  -18.0605   24.2261 C   0  0  0  0  0  0  0  0  0  0  0  0
   12.1456  -19.5445   24.2825 C   0  0  0  0  0  0  0  0  0  0  0  0
   11.6038  -20.3259   23.2671 C   0  0  0  0  0  0  0  0  0  0  0  0
   11.6936  -21.5954   23.6543 N   0  0  0  0  0  0  0  0  0  0  0  0
   12.2670  -21.6426   24.8657 C   0  0  0  0  0  0  0  0  0  0  0  0
   12.5452  -20.3826   25.2529 N   0  0  0  0  0  0  0  0  0  0  0  0
   10.9792  -16.2853   23.0156 C   0  0  0  0  0  0  0  0  0  0  0  0
   11.6852  -15.2634   23.1760 O   0  0  0  0  0  0  0  0  0  0  0  0
    6.9965  -15.6728   22.0285 C   0  0  0  0  0  0  0  0  0  0  0  0
    8.0480  -14.5568   21.9353 C   0  0  1  0  0  0  0  0  0  0  0  0
    7.3501  -13.2244   22.0366 C   0  0  0  0  0  0  0  0  0  0  0  0
    8.9753  -14.7948   23.1150 C   0  0  2  0  0  0  0  0  0  0  0  0
    9.5774  -16.1374   22.9248 N   0  0  0  0  0  0  0  0  0  0  0  0
    8.2895  -14.7435   24.4249 C   0  0  0  0  0  0  0  0  0  0  0  0
    7.8314  -15.8676   24.8570 O   0  0  0  0  0  0  0  0  0  0  0  0
    8.0818  -13.6363   25.2428 N   0  0  0  0  0  0  0  0  0  0  0  0
    8.4514  -12.2675   24.8267 C   0  0  0  0  0  0  0  0  0  0  0  0
    7.4040  -11.4616   25.5584 C   0  0  0  0  0  0  0  0  0  0  0  0
    7.5866  -12.0720   26.9572 C   0  0  0  0  0  0  0  0  0  0  0  0
    7.4921  -13.5637   26.5533 C   0  0  1  0  0  0  0  0  0  0  0  0
    6.0332  -13.8820   26.5456 C   0  0  0  0  0  0  0  0  0  0  0  0
    5.3589  -13.9367   25.4999 O   0  0  0  0  0  0  0  0  0  0  0  0
    5.3637  -14.1341   27.7366 O   0  0  0  0  0  0  0  0  0  0  0  0
  2  9  1  0
  2  1  1  6
  3  2  1  0
  4  3  1  0
  5  4  2  0
  6  7  1  0
  6  5  1  0
  7  8  2  0
  8  4  1  0
  9 10  2  0
 12 11  1  1
 12 14  1  0
 12 13  1  0
 14 15  1  6
 15  9  1  0
 16 14  1  0
 16 17  2  0
 18 16  1  0
 19 18  1  0
 20 19  1  0
 21 20  1  0
 22 21  1  0
 22 18  1  0
 22 23  1  6
 24 23  2  0
 25 23  1  0
M  END
$$$$
