HVP.pdb
     RDKit          3D

 25 26  0  0  1  0  0  0  0  0999 V2000
    9.6598  -15.4992   20.5155 N   0  0  0  0  0  0  0  0  0  0  0  0
    9.3551  -16.2227   21.7171 C   0  0  1  0  0  0  0  0  0  0  0  0
   10.2135  -17.4537   21.8286 C   0  0  0  0  0  0  0  0  0  0  0  0
    9.7681  -18.4023   20.7730 C   0  0  0  0  0  0  0  0  0  0  0  0
    8.4349  -18.6085   20.4337 C   0  0  0  0  0  0  0  0  0  0  0  0
    8.4101  -19.5151   19.4604 N   0  0  0  0  0  0  0  0  0  0  0  0
    9.6676  -19.8846   19.1763 C   0  0  0  0  0  0  0  0  0  0  0  0
   10.5032  -19.2014   19.9824 N   0  0  0  0  0  0  0  0  0  0  0  0
    9.4834  -15.3327   22.8999 C   0  0  0  0  0  0  0  0  0  0  0  0
   10.5611  -14.7357   23.1249 O   0  0  0  0  0  0  0  0  0  0  0  0
    6.6899  -13.1353   24.3195 C   0  0  0  0  0  0  0  0  0  0  0  0
    7.2613  -13.9084   25.5175 C   0  0  1  0  0  0  0  0  0  0  0  0
    6.3368  -15.0549   25.8393 C   0  0  0  0  0  0  0  0  0  0  0  0
    8.6218  -14.3993   25.0524 C   0  0  2  0  0  0  0  0  0  0  0  0
    8.4013  -15.1430   23.7876 N   0  0  0  0  0  0  0  0  0  0  0  0
    9.2977  -15.2799   26.0303 C   0  0  0  0  0  0  0  0  0  0  0  0
    9.3302  -16.5308   25.7227 O   0  0  0  0  0  0  0  0  0  0  0  0
    9.9007  -14.9238   27.2335 N   0  0  0  0  0  0  0  0  0  0  0  0
    9.7788  -13.5671   27.8059 C   0  0  0  0  0  0  0  0  0  0  0  0
    9.8514  -13.8799   29.2820 C   0  0  0  0  0  0  0  0  0  0  0  0
   11.1153  -14.7544   29.2651 C   0  0  0  0  0  0  0  0  0  0  0  0
   10.6907  -15.7218   28.1333 C   0  0  1  0  0  0  0  0  0  0  0  0
    9.8936  -16.7921   28.8032 C   0  0  0  0  0  0  0  0  0  0  0  0
    8.6526  -16.8601   28.7242 O   0  0  0  0  0  0  0  0  0  0  0  0
   10.5281  -17.7725   29.5559 O   0  0  0  0  0  0  0  0  0  0  0  0
  2  9  1  0
  2  1  1  6
  3  2  1  0
  4  3  1  0
  5  4  2  0
  6  7  1  0
  6  5  1  0
  7  8  2  0
  8  4  1  0
  9 10  2  0
 12 11  1  6
 12 14  1  0
 12 13  1  0
 14 15  1  6
 15  9  1  0
 16 14  1  0
 16 17  2  0
 18 16  1  0
 19 18  1  0
 20 19  1  0
 21 20  1  0
 22 21  1  0
 22 18  1  0
 22 23  1  1
 24 23  2  0
 25 23  1  0
M  END
$$$$
