HVP.pdb
     RDKit          3D

 25 26  0  0  1  0  0  0  0  0999 V2000
    9.8538  -15.7443   20.7535 N   0  0  0  0  0  0  0  0  0  0  0  0
    9.0467  -16.2642   21.8206 C   0  0  1  0  0  0  0  0  0  0  0  0
    9.4042  -17.6976   22.1076 C   0  0  0  0  0  0  0  0  0  0  0  0
    8.9583  -18.5078   20.9427 C   0  0  0  0  0  0  0  0  0  0  0  0
    7.6775  -19.0353   20.8145 C   0  0  0  0  0  0  0  0  0  0  0  0
    7.6354  -19.6957   19.6605 N   0  0  0  0  0  0  0  0  0  0  0  0
    8.8320  -19.6048   19.0618 C   0  0  0  0  0  0  0  0  0  0  0  0
    9.6460  -18.8749   19.8489 N   0  0  0  0  0  0  0  0  0  0  0  0
    9.1638  -15.3987   23.0225 C   0  0  0  0  0  0  0  0  0  0  0  0
   10.2509  -14.8378   23.2913 O   0  0  0  0  0  0  0  0  0  0  0  0
    7.0193  -13.3453   26.9263 C   0  0  0  0  0  0  0  0  0  0  0  0
    6.8822  -13.8140   25.4699 C   0  0  1  0  0  0  0  0  0  0  0  0
    6.5435  -12.6243   24.6083 C   0  0  0  0  0  0  0  0  0  0  0  0
    8.2418  -14.3928   25.1166 C   0  0  2  0  0  0  0  0  0  0  0  0
    8.0605  -15.1924   23.8799 N   0  0  0  0  0  0  0  0  0  0  0  0
    8.8125  -15.2503   26.1784 C   0  0  0  0  0  0  0  0  0  0  0  0
    8.3700  -16.4599   26.2142 O   0  0  0  0  0  0  0  0  0  0  0  0
    9.7647  -14.9123   27.1362 N   0  0  0  0  0  0  0  0  0  0  0  0
   10.0846  -13.5088   27.4696 C   0  0  0  0  0  0  0  0  0  0  0  0
   10.4642  -13.6479   28.9251 C   0  0  0  0  0  0  0  0  0  0  0  0
   11.4659  -14.8055   28.7872 C   0  0  0  0  0  0  0  0  0  0  0  0
   10.5702  -15.7666   27.9679 C   0  0  1  0  0  0  0  0  0  0  0  0
    9.7622  -16.5143   28.9768 C   0  0  0  0  0  0  0  0  0  0  0  0
   10.2476  -17.3916   29.7156 O   0  0  0  0  0  0  0  0  0  0  0  0
    8.4070  -16.2479   29.1274 O   0  0  0  0  0  0  0  0  0  0  0  0
  2  9  1  0
  2  1  1  6
  3  2  1  0
  4  3  1  0
  5  4  2  0
  6  7  1  0
  6  5  1  0
  7  8  2  0
  8  4  1  0
  9 10  2  0
 12 11  1  1
 12 14  1  0
 12 13  1  0
 14 15  1  6
 15  9  1  0
 16 14  1  0
 16 17  2  0
 18 16  1  0
 19 18  1  0
 20 19  1  0
 21 20  1  0
 22 21  1  0
 22 18  1  0
 22 23  1  1
 24 23  2  0
 25 23  1  0
M  END
$$$$
