HVP.pdb
     RDKit          3D

 25 26  0  0  1  0  0  0  0  0999 V2000
    9.3253  -15.5997   20.4683 N   0  0  0  0  0  0  0  0  0  0  0  0
    9.3681  -16.3674   21.6804 C   0  0  1  0  0  0  0  0  0  0  0  0
   10.5125  -17.3442   21.6508 C   0  0  0  0  0  0  0  0  0  0  0  0
   10.2253  -18.3316   20.5761 C   0  0  0  0  0  0  0  0  0  0  0  0
    9.2904  -19.3546   20.6979 C   0  0  0  0  0  0  0  0  0  0  0  0
    9.2988  -20.0361   19.5555 N   0  0  0  0  0  0  0  0  0  0  0  0
   10.1967  -19.4853   18.7254 C   0  0  0  0  0  0  0  0  0  0  0  0
   10.7667  -18.4376   19.3516 N   0  0  0  0  0  0  0  0  0  0  0  0
    9.4232  -15.4646   22.8591 C   0  0  0  0  0  0  0  0  0  0  0  0
   10.3366  -14.6136   22.9586 O   0  0  0  0  0  0  0  0  0  0  0  0
    6.7197  -13.3603   24.2943 C   0  0  0  0  0  0  0  0  0  0  0  0
    7.1886  -14.2377   25.4648 C   0  0  1  0  0  0  0  0  0  0  0  0
    6.2499  -15.4097   25.5977 C   0  0  0  0  0  0  0  0  0  0  0  0
    8.5899  -14.6828   25.0821 C   0  0  2  0  0  0  0  0  0  0  0  0
    8.4543  -15.5470   23.8836 N   0  0  0  0  0  0  0  0  0  0  0  0
    9.2849  -15.4308   26.1527 C   0  0  0  0  0  0  0  0  0  0  0  0
    9.2805  -16.7132   26.0279 O   0  0  0  0  0  0  0  0  0  0  0  0
    9.9403  -14.9210   27.2701 N   0  0  0  0  0  0  0  0  0  0  0  0
    9.9358  -13.4804   27.5985 C   0  0  0  0  0  0  0  0  0  0  0  0
   10.0174  -13.5381   29.1058 C   0  0  0  0  0  0  0  0  0  0  0  0
   11.2098  -14.5000   29.2303 C   0  0  0  0  0  0  0  0  0  0  0  0
   10.6868  -15.6117   28.2881 C   0  0  1  0  0  0  0  0  0  0  0  0
    9.8252  -16.4832   29.1411 C   0  0  0  0  0  0  0  0  0  0  0  0
    8.5829  -16.4978   29.0545 O   0  0  0  0  0  0  0  0  0  0  0  0
   10.3974  -17.3282   30.0839 O   0  0  0  0  0  0  0  0  0  0  0  0
  2  9  1  0
  2  1  1  6
  3  2  1  0
  4  3  1  0
  5  4  2  0
  6  7  1  0
  6  5  1  0
  7  8  2  0
  8  4  1  0
  9 10  2  0
 12 11  1  6
 12 14  1  0
 12 13  1  0
 14 15  1  6
 15  9  1  0
 16 14  1  0
 16 17  2  0
 18 16  1  0
 19 18  1  0
 20 19  1  0
 21 20  1  0
 22 21  1  0
 22 18  1  0
 22 23  1  1
 24 23  2  0
 25 23  1  0
M  END
$$$$
