HVP.pdb
     RDKit          3D

 25 26  0  0  1  0  0  0  0  0999 V2000
   11.1117  -16.6924   19.8416 N   0  0  0  0  0  0  0  0  0  0  0  0
   11.2214  -17.1372   21.2019 C   0  0  1  0  0  0  0  0  0  0  0  0
   12.6391  -17.5290   21.5205 C   0  0  0  0  0  0  0  0  0  0  0  0
   12.9410  -18.7658   20.7514 C   0  0  0  0  0  0  0  0  0  0  0  0
   12.2000  -19.9386   20.8543 C   0  0  0  0  0  0  0  0  0  0  0  0
   12.7501  -20.8275   20.0316 N   0  0  0  0  0  0  0  0  0  0  0  0
   13.8014  -20.2632   19.4193 C   0  0  0  0  0  0  0  0  0  0  0  0
   13.9198  -18.9960   19.8608 N   0  0  0  0  0  0  0  0  0  0  0  0
   10.6987  -16.0981   22.1264 C   0  0  0  0  0  0  0  0  0  0  0  0
   11.2543  -14.9778   22.1937 O   0  0  0  0  0  0  0  0  0  0  0  0
    7.3877  -14.6806   22.2976 C   0  0  0  0  0  0  0  0  0  0  0  0
    7.6017  -15.2040   23.7259 C   0  0  1  0  0  0  0  0  0  0  0  0
    6.9408  -16.5530   23.8513 C   0  0  0  0  0  0  0  0  0  0  0  0
    9.1097  -15.3020   23.8837 C   0  0  2  0  0  0  0  0  0  0  0  0
    9.5734  -16.3505   22.9419 N   0  0  0  0  0  0  0  0  0  0  0  0
    9.5383  -15.6485   25.2566 C   0  0  0  0  0  0  0  0  0  0  0  0
    9.8701  -16.8797   25.4415 O   0  0  0  0  0  0  0  0  0  0  0  0
    9.6281  -14.8113   26.3653 N   0  0  0  0  0  0  0  0  0  0  0  0
    9.1652  -13.4085   26.3342 C   0  0  0  0  0  0  0  0  0  0  0  0
    8.7366  -13.2247   27.7711 C   0  0  0  0  0  0  0  0  0  0  0  0
   10.0080  -13.7525   28.4548 C   0  0  0  0  0  0  0  0  0  0  0  0
   10.1231  -15.0920   27.6870 C   0  0  1  0  0  0  0  0  0  0  0  0
    9.2577  -16.0535   28.4327 C   0  0  0  0  0  0  0  0  0  0  0  0
    8.1339  -16.4056   28.0278 O   0  0  0  0  0  0  0  0  0  0  0  0
    9.6904  -16.6006   29.6343 O   0  0  0  0  0  0  0  0  0  0  0  0
  2  9  1  0
  2  1  1  6
  3  2  1  0
  4  3  1  0
  5  4  2  0
  6  7  1  0
  6  5  1  0
  7  8  2  0
  8  4  1  0
  9 10  2  0
 12 11  1  6
 12 14  1  0
 12 13  1  0
 14 15  1  6
 15  9  1  0
 16 14  1  0
 16 17  2  0
 18 16  1  0
 19 18  1  0
 20 19  1  0
 21 20  1  0
 22 21  1  0
 22 18  1  0
 22 23  1  1
 24 23  2  0
 25 23  1  0
M  END
$$$$
