HVP.pdb
     RDKit          3D

 25 26  0  0  1  0  0  0  0  0999 V2000
    8.6340  -17.2698   21.0015 N   0  0  0  0  0  0  0  0  0  0  0  0
    9.6322  -16.2516   21.1660 C   0  0  1  0  0  0  0  0  0  0  0  0
    9.8167  -15.4767   19.8891 C   0  0  0  0  0  0  0  0  0  0  0  0
   10.2682  -16.4383   18.8480 C   0  0  0  0  0  0  0  0  0  0  0  0
   11.5313  -17.0209   18.8315 C   0  0  0  0  0  0  0  0  0  0  0  0
   11.5850  -17.8188   17.7684 N   0  0  0  0  0  0  0  0  0  0  0  0
   10.4125  -17.7611   17.1199 C   0  0  0  0  0  0  0  0  0  0  0  0
    9.6024  -16.9129   17.7825 N   0  0  0  0  0  0  0  0  0  0  0  0
    9.2890  -15.3760   22.3163 C   0  0  0  0  0  0  0  0  0  0  0  0
    8.6574  -14.3106   22.1305 O   0  0  0  0  0  0  0  0  0  0  0  0
    6.9741  -14.9076   25.9956 C   0  0  0  0  0  0  0  0  0  0  0  0
    7.5589  -15.0298   24.5804 C   0  0  1  0  0  0  0  0  0  0  0  0
    7.0775  -13.8637   23.7553 C   0  0  0  0  0  0  0  0  0  0  0  0
    9.0652  -14.9938   24.7761 C   0  0  2  0  0  0  0  0  0  0  0  0
    9.6649  -15.7244   23.6324 N   0  0  0  0  0  0  0  0  0  0  0  0
    9.5108  -15.6123   26.0440 C   0  0  0  0  0  0  0  0  0  0  0  0
    9.4388  -16.8979   26.0910 O   0  0  0  0  0  0  0  0  0  0  0  0
    9.9970  -14.9787   27.1843 N   0  0  0  0  0  0  0  0  0  0  0  0
    9.6855  -13.5685   27.4968 C   0  0  0  0  0  0  0  0  0  0  0  0
    9.7073  -13.6065   29.0068 C   0  0  0  0  0  0  0  0  0  0  0  0
   11.0629  -14.3062   29.1950 C   0  0  0  0  0  0  0  0  0  0  0  0
   10.8201  -15.5021   28.2421 C   0  0  1  0  0  0  0  0  0  0  0  0
   10.1145  -16.5293   29.0648 C   0  0  0  0  0  0  0  0  0  0  0  0
    8.8920  -16.7472   28.9708 O   0  0  0  0  0  0  0  0  0  0  0  0
   10.8184  -17.2951   29.9858 O   0  0  0  0  0  0  0  0  0  0  0  0
  2  9  1  0
  2  1  1  6
  3  2  1  0
  4  3  1  0
  5  4  2  0
  6  7  1  0
  6  5  1  0
  7  8  2  0
  8  4  1  0
  9 10  2  0
 12 11  1  1
 12 14  1  0
 12 13  1  0
 14 15  1  6
 15  9  1  0
 16 14  1  0
 16 17  2  0
 18 16  1  0
 19 18  1  0
 20 19  1  0
 21 20  1  0
 22 21  1  0
 22 18  1  0
 22 23  1  1
 24 23  2  0
 25 23  1  0
M  END
$$$$
