HVP.pdb
     RDKit          3D

 25 26  0  0  1  0  0  0  0  0999 V2000
    9.7944  -15.4674   20.7311 N   0  0  0  0  0  0  0  0  0  0  0  0
    9.1374  -16.1052   21.8364 C   0  0  1  0  0  0  0  0  0  0  0  0
    9.6808  -17.4924   22.0494 C   0  0  0  0  0  0  0  0  0  0  0  0
    9.2523  -18.3194   20.8897 C   0  0  0  0  0  0  0  0  0  0  0  0
    8.0799  -18.0972   20.1747 C   0  0  0  0  0  0  0  0  0  0  0  0
    8.0204  -19.0181   19.2165 N   0  0  0  0  0  0  0  0  0  0  0  0
    9.1027  -19.8057   19.3005 C   0  0  0  0  0  0  0  0  0  0  0  0
    9.8606  -19.3773   20.3285 N   0  0  0  0  0  0  0  0  0  0  0  0
    9.2439  -15.2611   23.0545 C   0  0  0  0  0  0  0  0  0  0  0  0
   10.3316  -14.7146   23.3490 O   0  0  0  0  0  0  0  0  0  0  0  0
    7.0911  -13.2691   26.9866 C   0  0  0  0  0  0  0  0  0  0  0  0
    6.9438  -13.7384   25.5314 C   0  0  1  0  0  0  0  0  0  0  0  0
    6.5861  -12.5514   24.6737 C   0  0  0  0  0  0  0  0  0  0  0  0
    8.3049  -14.3050   25.1643 C   0  0  2  0  0  0  0  0  0  0  0  0
    8.1296  -15.0593   23.8986 N   0  0  0  0  0  0  0  0  0  0  0  0
    8.8698  -15.2007   26.1975 C   0  0  0  0  0  0  0  0  0  0  0  0
    8.4173  -16.4071   26.1951 O   0  0  0  0  0  0  0  0  0  0  0  0
    9.8257  -14.9013   27.1642 N   0  0  0  0  0  0  0  0  0  0  0  0
   10.1394  -13.5127   27.5601 C   0  0  0  0  0  0  0  0  0  0  0  0
   10.5285  -13.7163   29.0055 C   0  0  0  0  0  0  0  0  0  0  0  0
   11.5362  -14.8602   28.8086 C   0  0  0  0  0  0  0  0  0  0  0  0
   10.6412  -15.7880   27.9510 C   0  0  1  0  0  0  0  0  0  0  0  0
    9.8439  -16.5864   28.9290 C   0  0  0  0  0  0  0  0  0  0  0  0
   10.3300  -17.5191   29.5959 O   0  0  0  0  0  0  0  0  0  0  0  0
    8.4981  -16.3066   29.1315 O   0  0  0  0  0  0  0  0  0  0  0  0
  2  9  1  0
  2  1  1  6
  3  2  1  0
  4  3  1  0
  5  4  2  0
  6  7  1  0
  6  5  1  0
  7  8  2  0
  8  4  1  0
  9 10  2  0
 12 11  1  1
 12 14  1  0
 12 13  1  0
 14 15  1  6
 15  9  1  0
 16 14  1  0
 16 17  2  0
 18 16  1  0
 19 18  1  0
 20 19  1  0
 21 20  1  0
 22 21  1  0
 22 18  1  0
 22 23  1  1
 24 23  2  0
 25 23  1  0
M  END
$$$$
