HVP.pdb
     RDKit          3D

 25 26  0  0  1  0  0  0  0  0999 V2000
   10.5068  -15.9196   20.7760 N   0  0  0  0  0  0  0  0  0  0  0  0
   10.1166  -16.6421   21.9533 C   0  0  1  0  0  0  0  0  0  0  0  0
   11.1234  -17.7123   22.2784 C   0  0  0  0  0  0  0  0  0  0  0  0
   10.9447  -18.8057   21.2859 C   0  0  0  0  0  0  0  0  0  0  0  0
    9.7233  -19.1258   20.7020 C   0  0  0  0  0  0  0  0  0  0  0  0
    9.9361  -20.1441   19.8728 N   0  0  0  0  0  0  0  0  0  0  0  0
   11.2353  -20.4747   19.9121 C   0  0  0  0  0  0  0  0  0  0  0  0
   11.8562  -19.6528   20.7803 N   0  0  0  0  0  0  0  0  0  0  0  0
    9.9010  -15.7036   23.0847 C   0  0  0  0  0  0  0  0  0  0  0  0
   10.8120  -14.9186   23.4343 O   0  0  0  0  0  0  0  0  0  0  0  0
    6.9502  -13.8291   26.5193 C   0  0  0  0  0  0  0  0  0  0  0  0
    7.0683  -14.4945   25.1398 C   0  0  1  0  0  0  0  0  0  0  0  0
    6.6082  -13.5160   24.0894 C   0  0  0  0  0  0  0  0  0  0  0  0
    8.5439  -14.8241   24.9905 C   0  0  2  0  0  0  0  0  0  0  0  0
    8.6739  -15.6776   23.7838 N   0  0  0  0  0  0  0  0  0  0  0  0
    9.1118  -15.5325   26.1585 C   0  0  0  0  0  0  0  0  0  0  0  0
    8.9374  -16.8090   26.1733 O   0  0  0  0  0  0  0  0  0  0  0  0
    9.8088  -14.9916   27.2355 N   0  0  0  0  0  0  0  0  0  0  0  0
    9.8209  -13.5416   27.5193 C   0  0  0  0  0  0  0  0  0  0  0  0
    9.9565  -13.5534   29.0238 C   0  0  0  0  0  0  0  0  0  0  0  0
   11.1494  -14.5163   29.1350 C   0  0  0  0  0  0  0  0  0  0  0  0
   10.5891  -15.6540   28.2468 C   0  0  1  0  0  0  0  0  0  0  0  0
    9.7559  -16.4952   29.1566 C   0  0  0  0  0  0  0  0  0  0  0  0
    8.5107  -16.4757   29.1435 O   0  0  0  0  0  0  0  0  0  0  0  0
   10.3594  -17.3493   30.0713 O   0  0  0  0  0  0  0  0  0  0  0  0
  2  9  1  0
  2  1  1  6
  3  2  1  0
  4  3  1  0
  5  4  2  0
  6  7  1  0
  6  5  1  0
  7  8  2  0
  8  4  1  0
  9 10  2  0
 12 11  1  1
 12 14  1  0
 12 13  1  0
 14 15  1  6
 15  9  1  0
 16 14  1  0
 16 17  2  0
 18 16  1  0
 19 18  1  0
 20 19  1  0
 21 20  1  0
 22 21  1  0
 22 18  1  0
 22 23  1  1
 24 23  2  0
 25 23  1  0
M  END
$$$$
