HVP.pdb
     RDKit          3D

 25 26  0  0  1  0  0  0  0  0999 V2000
   10.3304  -17.3953   17.0698 N   0  0  0  0  0  0  0  0  0  0  0  0
    9.2569  -17.6421   17.9902 C   0  0  1  0  0  0  0  0  0  0  0  0
    9.1691  -19.1068   18.3242 C   0  0  0  0  0  0  0  0  0  0  0  0
    8.5612  -19.7932   17.1530 C   0  0  0  0  0  0  0  0  0  0  0  0
    7.2301  -19.6448   16.7770 C   0  0  0  0  0  0  0  0  0  0  0  0
    7.0380  -20.3973   15.6970 N   0  0  0  0  0  0  0  0  0  0  0  0
    8.1888  -21.0092   15.3810 C   0  0  0  0  0  0  0  0  0  0  0  0
    9.1258  -20.6386   16.2752 N   0  0  0  0  0  0  0  0  0  0  0  0
    9.4110  -16.7928   19.1996 C   0  0  0  0  0  0  0  0  0  0  0  0
   10.4858  -16.8010   19.8423 O   0  0  0  0  0  0  0  0  0  0  0  0
    7.9826  -13.2833   19.4447 C   0  0  0  0  0  0  0  0  0  0  0  0
    7.5998  -13.9679   20.7655 C   0  0  1  0  0  0  0  0  0  0  0  0
    6.1591  -14.4043   20.6849 C   0  0  0  0  0  0  0  0  0  0  0  0
    8.5399  -15.1564   20.8760 C   0  0  2  0  0  0  0  0  0  0  0  0
    8.3568  -15.9653   19.6456 N   0  0  0  0  0  0  0  0  0  0  0  0
    8.2862  -16.0014   22.0635 C   0  0  0  0  0  0  0  0  0  0  0  0
    7.5073  -17.0099   21.8722 O   0  0  0  0  0  0  0  0  0  0  0  0
    8.7848  -15.8419   23.3534 N   0  0  0  0  0  0  0  0  0  0  0  0
    9.6756  -14.7221   23.7221 C   0  0  0  0  0  0  0  0  0  0  0  0
    9.2927  -14.5268   25.1703 C   0  0  0  0  0  0  0  0  0  0  0  0
    9.4191  -15.9863   25.6356 C   0  0  0  0  0  0  0  0  0  0  0  0
    8.5547  -16.6389   24.5292 C   0  0  1  0  0  0  0  0  0  0  0  0
    7.1470  -16.5479   25.0188 C   0  0  0  0  0  0  0  0  0  0  0  0
    6.3516  -15.6718   24.6303 O   0  0  0  0  0  0  0  0  0  0  0  0
    6.6668  -17.4622   25.9482 O   0  0  0  0  0  0  0  0  0  0  0  0
  2  9  1  0
  2  1  1  6
  3  2  1  0
  4  3  1  0
  5  4  2  0
  6  7  1  0
  6  5  1  0
  7  8  2  0
  8  4  1  0
  9 10  2  0
 12 11  1  6
 12 14  1  0
 12 13  1  0
 14 15  1  6
 15  9  1  0
 16 14  1  0
 16 17  2  0
 18 16  1  0
 19 18  1  0
 20 19  1  0
 21 20  1  0
 22 21  1  0
 22 18  1  0
 22 23  1  1
 24 23  2  0
 25 23  1  0
M  END
$$$$
