HVP.pdb
     RDKit          3D

 25 26  0  0  1  0  0  0  0  0999 V2000
    9.6450  -15.5524   20.7102 N   0  0  0  0  0  0  0  0  0  0  0  0
    9.0057  -16.1826   21.8303 C   0  0  1  0  0  0  0  0  0  0  0  0
    9.5360  -17.5768   22.0298 C   0  0  0  0  0  0  0  0  0  0  0  0
    9.0485  -18.4037   20.8936 C   0  0  0  0  0  0  0  0  0  0  0  0
    7.8111  -19.0389   20.8767 C   0  0  0  0  0  0  0  0  0  0  0  0
    7.7121  -19.6815   19.7161 N   0  0  0  0  0  0  0  0  0  0  0  0
    8.8317  -19.4764   19.0070 C   0  0  0  0  0  0  0  0  0  0  0  0
    9.6539  -18.6912   19.7296 N   0  0  0  0  0  0  0  0  0  0  0  0
    9.1513  -15.3410   23.0460 C   0  0  0  0  0  0  0  0  0  0  0  0
   10.2613  -14.8379   23.3345 O   0  0  0  0  0  0  0  0  0  0  0  0
    7.1015  -13.3116   27.0167 C   0  0  0  0  0  0  0  0  0  0  0  0
    6.9149  -13.7722   25.5632 C   0  0  1  0  0  0  0  0  0  0  0  0
    6.5469  -12.5779   24.7202 C   0  0  0  0  0  0  0  0  0  0  0  0
    8.2617  -14.3487   25.1605 C   0  0  2  0  0  0  0  0  0  0  0  0
    8.0497  -15.0929   23.8944 N   0  0  0  0  0  0  0  0  0  0  0  0
    8.8424  -15.2564   26.1742 C   0  0  0  0  0  0  0  0  0  0  0  0
    8.3864  -16.4615   26.1678 O   0  0  0  0  0  0  0  0  0  0  0  0
    9.8164  -14.9695   27.1265 N   0  0  0  0  0  0  0  0  0  0  0  0
   10.2125  -13.5850   27.4576 C   0  0  0  0  0  0  0  0  0  0  0  0
   10.5921  -13.7440   28.9111 C   0  0  0  0  0  0  0  0  0  0  0  0
   11.5300  -14.9533   28.7681 C   0  0  0  0  0  0  0  0  0  0  0  0
   10.5799  -15.8655   27.9541 C   0  0  1  0  0  0  0  0  0  0  0  0
    9.7388  -16.5690   28.9677 C   0  0  0  0  0  0  0  0  0  0  0  0
    8.5485  -16.2720   29.1818 O   0  0  0  0  0  0  0  0  0  0  0  0
   10.2718  -17.6052   29.7244 O   0  0  0  0  0  0  0  0  0  0  0  0
  2  9  1  0
  2  1  1  6
  3  2  1  0
  4  3  1  0
  5  4  2  0
  6  7  1  0
  6  5  1  0
  7  8  2  0
  8  4  1  0
  9 10  2  0
 12 11  1  1
 12 14  1  0
 12 13  1  0
 14 15  1  6
 15  9  1  0
 16 14  1  0
 16 17  2  0
 18 16  1  0
 19 18  1  0
 20 19  1  0
 21 20  1  0
 22 21  1  0
 22 18  1  0
 22 23  1  1
 24 23  2  0
 25 23  1  0
M  END
$$$$
