HVP.pdb
     RDKit          3D

 25 26  0  0  1  0  0  0  0  0999 V2000
   11.6755  -17.4357   20.4294 N   0  0  0  0  0  0  0  0  0  0  0  0
   10.6811  -17.5867   21.4536 C   0  0  1  0  0  0  0  0  0  0  0  0
   11.1840  -18.4802   22.5552 C   0  0  0  0  0  0  0  0  0  0  0  0
   11.0263  -19.8853   22.0935 C   0  0  0  0  0  0  0  0  0  0  0  0
    9.7942  -20.4859   21.8564 C   0  0  0  0  0  0  0  0  0  0  0  0
   10.0319  -21.7331   21.4594 N   0  0  0  0  0  0  0  0  0  0  0  0
   11.3570  -21.9390   21.4378 C   0  0  0  0  0  0  0  0  0  0  0  0
   11.9692  -20.8040   21.8273 N   0  0  0  0  0  0  0  0  0  0  0  0
   10.2525  -16.2551   21.9543 C   0  0  0  0  0  0  0  0  0  0  0  0
   11.1057  -15.4193   22.3312 O   0  0  0  0  0  0  0  0  0  0  0  0
    6.7677  -12.9329   22.7810 C   0  0  0  0  0  0  0  0  0  0  0  0
    7.2027  -14.1792   21.9954 C   0  0  1  0  0  0  0  0  0  0  0  0
    7.4335  -13.7890   20.5577 C   0  0  0  0  0  0  0  0  0  0  0  0
    8.4880  -14.6342   22.6658 C   0  0  2  0  0  0  0  0  0  0  0  0
    8.8849  -15.9073   22.0152 N   0  0  0  0  0  0  0  0  0  0  0  0
    8.3502  -14.8477   24.1232 C   0  0  0  0  0  0  0  0  0  0  0  0
    8.1139  -16.0608   24.4876 O   0  0  0  0  0  0  0  0  0  0  0  0
    8.4461  -13.9041   25.1423 N   0  0  0  0  0  0  0  0  0  0  0  0
    8.5494  -12.4557   24.8692 C   0  0  0  0  0  0  0  0  0  0  0  0
    7.8588  -11.8923   26.0890 C   0  0  0  0  0  0  0  0  0  0  0  0
    8.6269  -12.6764   27.1650 C   0  0  0  0  0  0  0  0  0  0  0  0
    8.4433  -14.0934   26.5687 C   0  0  1  0  0  0  0  0  0  0  0  0
    7.1259  -14.5734   27.0823 C   0  0  0  0  0  0  0  0  0  0  0  0
    6.0730  -14.4922   26.4222 O   0  0  0  0  0  0  0  0  0  0  0  0
    7.0304  -15.1410   28.3468 O   0  0  0  0  0  0  0  0  0  0  0  0
  2  9  1  0
  2  1  1  6
  3  2  1  0
  4  3  1  0
  5  4  2  0
  6  7  1  0
  6  5  1  0
  7  8  2  0
  8  4  1  0
  9 10  2  0
 12 11  1  1
 12 14  1  0
 12 13  1  0
 14 15  1  6
 15  9  1  0
 16 14  1  0
 16 17  2  0
 18 16  1  0
 19 18  1  0
 20 19  1  0
 21 20  1  0
 22 21  1  0
 22 18  1  0
 22 23  1  1
 24 23  2  0
 25 23  1  0
M  END
$$$$
