HVP.pdb
     RDKit          3D

 25 26  0  0  1  0  0  0  0  0999 V2000
   11.3200  -16.6039   20.3075 N   0  0  0  0  0  0  0  0  0  0  0  0
   11.0855  -17.1790   21.6016 C   0  0  1  0  0  0  0  0  0  0  0  0
   12.3246  -17.8640   22.1114 C   0  0  0  0  0  0  0  0  0  0  0  0
   12.4204  -19.1785   21.4220 C   0  0  0  0  0  0  0  0  0  0  0  0
   11.3170  -19.9576   21.0894 C   0  0  0  0  0  0  0  0  0  0  0  0
   11.7732  -21.0539   20.4897 N   0  0  0  0  0  0  0  0  0  0  0  0
   13.1118  -20.9951   20.4324 C   0  0  0  0  0  0  0  0  0  0  0  0
   13.5108  -19.8428   21.0051 N   0  0  0  0  0  0  0  0  0  0  0  0
   10.5824  -16.1436   22.5409 C   0  0  0  0  0  0  0  0  0  0  0  0
   11.2397  -15.0950   22.7334 O   0  0  0  0  0  0  0  0  0  0  0  0
    7.0340  -14.3137   25.3323 C   0  0  0  0  0  0  0  0  0  0  0  0
    7.4500  -15.1377   24.1044 C   0  0  1  0  0  0  0  0  0  0  0  0
    7.0977  -14.3635   22.8598 C   0  0  0  0  0  0  0  0  0  0  0  0
    8.9520  -15.3178   24.2458 C   0  0  2  0  0  0  0  0  0  0  0  0
    9.3625  -16.3191   23.2307 N   0  0  0  0  0  0  0  0  0  0  0  0
    9.3675  -15.7789   25.5888 C   0  0  0  0  0  0  0  0  0  0  0  0
    9.3393  -17.0540   25.7723 O   0  0  0  0  0  0  0  0  0  0  0  0
    9.7843  -15.0081   26.6705 N   0  0  0  0  0  0  0  0  0  0  0  0
    9.5580  -13.5494   26.7338 C   0  0  0  0  0  0  0  0  0  0  0  0
    9.4221  -13.3530   28.2254 C   0  0  0  0  0  0  0  0  0  0  0  0
   10.6901  -14.1009   28.6675 C   0  0  0  0  0  0  0  0  0  0  0  0
   10.4498  -15.4125   27.8806 C   0  0  1  0  0  0  0  0  0  0  0  0
    9.5828  -16.2512   28.7607 C   0  0  0  0  0  0  0  0  0  0  0  0
    8.3646  -16.4097   28.5562 O   0  0  0  0  0  0  0  0  0  0  0  0
   10.1221  -16.8988   29.8652 O   0  0  0  0  0  0  0  0  0  0  0  0
  2  9  1  0
  2  1  1  6
  3  2  1  0
  4  3  1  0
  5  4  2  0
  6  7  1  0
  6  5  1  0
  7  8  2  0
  8  4  1  0
  9 10  2  0
 12 11  1  1
 12 14  1  0
 12 13  1  0
 14 15  1  6
 15  9  1  0
 16 14  1  0
 16 17  2  0
 18 16  1  0
 19 18  1  0
 20 19  1  0
 21 20  1  0
 22 21  1  0
 22 18  1  0
 22 23  1  1
 24 23  2  0
 25 23  1  0
M  END
$$$$
