QHN.pdb
     RDKit          3D

 28 28  0  0  1  0  0  0  0  0999 V2000
   22.8076  -32.0323  -10.1296 N   0  0  0  0  0  0  0  0  0  0  0  0
   22.2784  -32.4547  -11.3860 C   0  0  0  0  0  0  0  0  0  0  0  0
   22.6103  -33.5676  -11.8584 O   0  0  0  0  0  0  0  0  0  0  0  0
   21.3428  -31.5983  -12.1355 C   0  0  0  0  0  0  0  0  0  0  0  0
   21.1092  -30.3153  -11.4241 C   0  0  0  0  0  0  0  0  0  0  0  0
   20.6534  -29.2582  -12.3877 C   0  0  2  0  0  0  0  0  0  0  0  0
   21.7590  -29.0443  -13.3258 N   0  0  0  0  0  0  0  0  0  0  0  0
   20.4282  -27.9643  -11.6752 C   0  0  0  0  0  0  0  0  0  0  0  0
   21.4714  -27.2454  -11.5239 O   0  0  0  0  0  0  0  0  0  0  0  0
   19.1605  -27.5743  -11.2092 N   0  0  0  0  0  0  0  0  0  0  0  0
   19.0768  -26.2220  -10.5581 C   0  0  1  0  0  0  0  0  0  0  0  0
   18.5648  -25.3581  -11.6628 C   0  0  0  0  0  0  0  0  0  0  0  0
   18.2238  -23.9924  -11.2756 C   0  0  0  0  0  0  0  0  0  0  0  0
   18.2954  -23.5596   -9.9262 C   0  0  0  0  0  0  0  0  0  0  0  0
   17.9360  -22.2740   -9.8314 N   0  0  0  0  0  0  0  0  0  0  0  0
   17.6372  -21.8702  -11.0737 C   0  0  0  0  0  0  0  0  0  0  0  0
   17.8129  -22.8978  -11.9125 N   0  0  0  0  0  0  0  0  0  0  0  0
   18.2030  -26.3476   -9.3945 C   0  0  0  0  0  0  0  0  0  0  0  0
   17.1071  -26.9858   -9.5566 O   0  0  0  0  0  0  0  0  0  0  0  0
   16.3352  -25.9285   -4.2816 N   0  0  0  0  0  0  0  0  0  0  0  0
   17.7355  -25.9872   -4.4863 C   0  0  0  0  0  0  0  0  0  0  0  0
   18.4967  -26.0745   -3.4582 O   0  0  0  0  0  0  0  0  0  0  0  0
   18.4286  -25.9600   -5.7741 C   0  0  0  0  0  0  0  0  0  0  0  0
   17.5794  -25.9224   -6.9870 C   0  0  2  0  0  0  0  0  0  0  0  0
   18.4907  -25.8281   -8.1362 N   0  0  0  0  0  0  0  0  0  0  0  0
   16.6136  -24.8067   -7.0551 C   0  0  0  0  0  0  0  0  0  0  0  0
   16.9228  -23.5021   -7.3989 O   0  0  0  0  0  0  0  0  0  0  0  0
   15.4081  -25.0373   -6.7828 O   0  0  0  0  0  0  0  0  0  0  0  0
  2  3  2  0
  2  1  1  0
  4  2  1  0
  5  4  1  0
  5  6  1  0
  6  7  1  6
  6  8  1  0
  8  9  2  0
 10  8  1  0
 10 11  1  0
 11 12  1  6
 13 12  1  0
 14 13  2  0
 15 16  1  0
 15 14  1  0
 16 17  2  0
 17 13  1  0
 18 11  1  0
 18 19  2  0
 20 21  1  0
 21 23  1  0
 21 22  2  0
 24 23  1  1
 24 25  1  0
 24 26  1  0
 25 18  1  0
 26 27  1  0
 28 26  2  0
M  END
$$$$
