QHN.pdb
     RDKit          3D

 28 28  0  0  1  0  0  0  0  0999 V2000
   34.0084  -31.8228  -19.8162 N   0  0  0  0  0  0  0  0  0  0  0  0
   35.4221  -31.6482  -19.7258 C   0  0  0  0  0  0  0  0  0  0  0  0
   36.1817  -32.3434  -20.4412 O   0  0  0  0  0  0  0  0  0  0  0  0
   36.0013  -30.6575  -18.8020 C   0  0  0  0  0  0  0  0  0  0  0  0
   34.9421  -30.0000  -17.9943 C   0  0  0  0  0  0  0  0  0  0  0  0
   35.5421  -28.9643  -17.0883 C   0  0  2  0  0  0  0  0  0  0  0  0
   36.4394  -29.6782  -16.1753 N   0  0  0  0  0  0  0  0  0  0  0  0
   34.4822  -28.3269  -16.2498 C   0  0  0  0  0  0  0  0  0  0  0  0
   34.5120  -28.6430  -15.0141 O   0  0  0  0  0  0  0  0  0  0  0  0
   33.5274  -27.4464  -16.7879 N   0  0  0  0  0  0  0  0  0  0  0  0
   33.2777  -26.1812  -16.0155 C   0  0  1  0  0  0  0  0  0  0  0  0
   34.6348  -25.5625  -15.9534 C   0  0  0  0  0  0  0  0  0  0  0  0
   35.3026  -25.6593  -14.6589 C   0  0  0  0  0  0  0  0  0  0  0  0
   34.7625  -26.4296  -13.5966 C   0  0  0  0  0  0  0  0  0  0  0  0
   35.5566  -26.3591  -12.5218 N   0  0  0  0  0  0  0  0  0  0  0  0
   36.5857  -25.5704  -12.8604 C   0  0  0  0  0  0  0  0  0  0  0  0
   36.4185  -25.1668  -14.1252 N   0  0  0  0  0  0  0  0  0  0  0  0
   32.2649  -25.4170  -16.7391 C   0  0  0  0  0  0  0  0  0  0  0  0
   32.4519  -25.2446  -17.9921 O   0  0  0  0  0  0  0  0  0  0  0  0
   27.8275  -22.4039  -17.7551 N   0  0  0  0  0  0  0  0  0  0  0  0
   28.1371  -22.6524  -16.3955 C   0  0  0  0  0  0  0  0  0  0  0  0
   27.4124  -22.0964  -15.4958 O   0  0  0  0  0  0  0  0  0  0  0  0
   29.2196  -23.4964  -15.8898 C   0  0  0  0  0  0  0  0  0  0  0  0
   30.1117  -24.1116  -16.8993 C   0  0  2  0  0  0  0  0  0  0  0  0
   31.1214  -24.8792  -16.1567 N   0  0  0  0  0  0  0  0  0  0  0  0
   30.8028  -23.1667  -17.8002 C   0  0  0  0  0  0  0  0  0  0  0  0
   32.0486  -22.6091  -17.5700 O   0  0  0  0  0  0  0  0  0  0  0  0
   30.2324  -22.8273  -18.8679 O   0  0  0  0  0  0  0  0  0  0  0  0
  2  3  2  0
  2  1  1  0
  4  2  1  0
  5  4  1  0
  5  6  1  0
  6  7  1  1
  6  8  1  0
  8  9  2  0
 10  8  1  0
 10 11  1  0
 11 12  1  6
 13 12  1  0
 14 13  2  0
 15 16  1  0
 15 14  1  0
 16 17  2  0
 17 13  1  0
 18 11  1  0
 18 19  2  0
 20 21  1  0
 21 23  1  0
 21 22  2  0
 24 23  1  1
 24 25  1  0
 24 26  1  0
 25 18  1  0
 26 27  1  0
 28 26  2  0
M  END
$$$$
