QHN.pdb
     RDKit          3D

 28 28  0  0  1  0  0  0  0  0999 V2000
   25.1728   -9.4438  -19.9556 N   0  0  0  0  0  0  0  0  0  0  0  0
   23.9269   -8.9327  -20.4286 C   0  0  0  0  0  0  0  0  0  0  0  0
   23.9149   -7.9956  -21.2614 O   0  0  0  0  0  0  0  0  0  0  0  0
   22.6519   -9.4954  -19.9511 C   0  0  0  0  0  0  0  0  0  0  0  0
   22.8859  -10.6106  -18.9980 C   0  0  0  0  0  0  0  0  0  0  0  0
   21.5795  -11.1990  -18.5502 C   0  0  2  0  0  0  0  0  0  0  0  0
   20.7609  -11.3625  -19.7550 N   0  0  0  0  0  0  0  0  0  0  0  0
   20.8561  -10.2448  -17.6565 C   0  0  0  0  0  0  0  0  0  0  0  0
   20.0431   -9.4620  -18.2516 O   0  0  0  0  0  0  0  0  0  0  0  0
   21.0603  -10.2167  -16.2658 N   0  0  0  0  0  0  0  0  0  0  0  0
   20.1526   -9.3146  -15.4771 C   0  0  1  0  0  0  0  0  0  0  0  0
   19.6720  -10.2095  -14.3831 C   0  0  0  0  0  0  0  0  0  0  0  0
   18.4749  -10.9843  -14.6958 C   0  0  0  0  0  0  0  0  0  0  0  0
   17.7588  -10.7951  -15.9061 C   0  0  0  0  0  0  0  0  0  0  0  0
   16.7067  -11.6206  -15.9569 N   0  0  0  0  0  0  0  0  0  0  0  0
   16.7257  -12.3309  -14.8208 C   0  0  0  0  0  0  0  0  0  0  0  0
   17.7762  -11.9416  -14.0891 N   0  0  0  0  0  0  0  0  0  0  0  0
   20.9408   -8.1606  -15.0521 C   0  0  0  0  0  0  0  0  0  0  0  0
   22.1974   -8.3395  -14.8990 O   0  0  0  0  0  0  0  0  0  0  0  0
   22.9169   -3.2626  -14.7359 N   0  0  0  0  0  0  0  0  0  0  0  0
   22.9445   -4.3029  -15.6967 C   0  0  0  0  0  0  0  0  0  0  0  0
   23.7515   -4.1941  -16.6870 O   0  0  0  0  0  0  0  0  0  0  0  0
   22.1345   -5.5208  -15.6840 C   0  0  0  0  0  0  0  0  0  0  0  0
   21.2368   -5.7118  -14.5216 C   0  0  2  0  0  0  0  0  0  0  0  0
   20.4150   -6.8946  -14.8142 N   0  0  0  0  0  0  0  0  0  0  0  0
   20.3422   -4.5775  -14.2133 C   0  0  0  0  0  0  0  0  0  0  0  0
   20.6238   -3.5573  -13.3212 O   0  0  0  0  0  0  0  0  0  0  0  0
   19.2302   -4.5129  -14.7962 O   0  0  0  0  0  0  0  0  0  0  0  0
  2  3  2  0
  2  1  1  0
  4  2  1  0
  5  4  1  0
  5  6  1  0
  6  7  1  6
  6  8  1  0
  8  9  2  0
 10  8  1  0
 10 11  1  0
 11 12  1  1
 13 12  1  0
 14 13  2  0
 15 16  1  0
 15 14  1  0
 16 17  2  0
 17 13  1  0
 18 11  1  0
 18 19  2  0
 20 21  1  0
 21 23  1  0
 21 22  2  0
 24 23  1  6
 24 25  1  0
 24 26  1  0
 25 18  1  0
 26 27  1  0
 28 26  2  0
M  END
$$$$
