QHN.pdb
     RDKit          3D

 28 28  0  0  1  0  0  0  0  0999 V2000
   18.5785  -10.3665  -23.6322 N   0  0  0  0  0  0  0  0  0  0  0  0
   19.3797   -9.5712  -24.5056 C   0  0  0  0  0  0  0  0  0  0  0  0
   19.0463   -9.4382  -25.7069 O   0  0  0  0  0  0  0  0  0  0  0  0
   20.5951   -8.9012  -24.0115 C   0  0  0  0  0  0  0  0  0  0  0  0
   20.7610   -9.1094  -22.5501 C   0  0  0  0  0  0  0  0  0  0  0  0
   22.0137   -9.8882  -22.2713 C   0  0  2  0  0  0  0  0  0  0  0  0
   21.7285  -11.2799  -22.6319 N   0  0  0  0  0  0  0  0  0  0  0  0
   22.3254   -9.8703  -20.8101 C   0  0  0  0  0  0  0  0  0  0  0  0
   21.4750  -10.4698  -20.0717 O   0  0  0  0  0  0  0  0  0  0  0  0
   23.4707   -9.2390  -20.2943 N   0  0  0  0  0  0  0  0  0  0  0  0
   23.7184   -9.4080  -18.8212 C   0  0  1  0  0  0  0  0  0  0  0  0
   25.1774   -9.7201  -18.7685 C   0  0  0  0  0  0  0  0  0  0  0  0
   25.7040  -10.0019  -17.4364 C   0  0  0  0  0  0  0  0  0  0  0  0
   24.8716   -9.9913  -16.2874 C   0  0  0  0  0  0  0  0  0  0  0  0
   25.5866  -10.2795  -15.1935 N   0  0  0  0  0  0  0  0  0  0  0  0
   26.8474  -10.4741  -15.6038 C   0  0  0  0  0  0  0  0  0  0  0  0
   26.8974  -10.3060  -16.9303 N   0  0  0  0  0  0  0  0  0  0  0  0
   23.3107   -8.1700  -18.1620 C   0  0  0  0  0  0  0  0  0  0  0  0
   23.4178   -7.0895  -18.8369 O   0  0  0  0  0  0  0  0  0  0  0  0
   21.0315   -3.9445  -16.1755 N   0  0  0  0  0  0  0  0  0  0  0  0
   20.5129   -5.1749  -16.6481 C   0  0  0  0  0  0  0  0  0  0  0  0
   19.2411   -5.3370  -16.6514 O   0  0  0  0  0  0  0  0  0  0  0  0
   21.2872   -6.3110  -17.1476 C   0  0  0  0  0  0  0  0  0  0  0  0
   22.3273   -6.8566  -16.2453 C   0  0  2  0  0  0  0  0  0  0  0  0
   22.8129   -8.0977  -16.8647 N   0  0  0  0  0  0  0  0  0  0  0  0
   21.8841   -7.1558  -14.8683 C   0  0  0  0  0  0  0  0  0  0  0  0
   21.9272   -6.2708  -13.8049 O   0  0  0  0  0  0  0  0  0  0  0  0
   21.4277   -8.3003  -14.6187 O   0  0  0  0  0  0  0  0  0  0  0  0
  2  3  2  0
  2  1  1  0
  4  2  1  0
  5  4  1  0
  5  6  1  0
  6  7  1  1
  6  8  1  0
  8  9  2  0
 10  8  1  0
 10 11  1  0
 11 12  1  6
 13 12  1  0
 14 13  2  0
 15 16  1  0
 15 14  1  0
 16 17  2  0
 17 13  1  0
 18 11  1  0
 18 19  2  0
 20 21  1  0
 21 23  1  0
 21 22  2  0
 24 23  1  6
 24 25  1  0
 24 26  1  0
 25 18  1  0
 26 27  1  0
 28 26  2  0
M  END
$$$$
