QHN.pdb
     RDKit          3D

 28 28  0  0  1  0  0  0  0  0999 V2000
   20.4175  -18.0555  -13.6557 N   0  0  0  0  0  0  0  0  0  0  0  0
   20.7009  -18.2332  -15.0432 C   0  0  0  0  0  0  0  0  0  0  0  0
   20.5055  -19.3492  -15.5801 O   0  0  0  0  0  0  0  0  0  0  0  0
   21.2194  -17.1185  -15.8549 C   0  0  0  0  0  0  0  0  0  0  0  0
   21.2948  -15.8684  -15.0560 C   0  0  0  0  0  0  0  0  0  0  0  0
   20.8921  -14.6882  -15.8919 C   0  0  2  0  0  0  0  0  0  0  0  0
   21.0660  -15.0891  -17.2909 N   0  0  0  0  0  0  0  0  0  0  0  0
   21.8140  -13.5376  -15.6491 C   0  0  0  0  0  0  0  0  0  0  0  0
   21.9193  -13.1815  -14.4285 O   0  0  0  0  0  0  0  0  0  0  0  0
   22.5097  -12.8999  -16.6911 N   0  0  0  0  0  0  0  0  0  0  0  0
   23.2029  -11.6131  -16.3399 C   0  0  1  0  0  0  0  0  0  0  0  0
   24.4272  -11.6577  -17.1931 C   0  0  0  0  0  0  0  0  0  0  0  0
   25.4760  -12.5599  -16.7270 C   0  0  0  0  0  0  0  0  0  0  0  0
   25.3770  -13.2414  -15.4864 C   0  0  0  0  0  0  0  0  0  0  0  0
   26.4583  -14.0044  -15.2883 N   0  0  0  0  0  0  0  0  0  0  0  0
   27.2451  -13.8342  -16.3596 C   0  0  0  0  0  0  0  0  0  0  0  0
   26.6490  -12.9783  -17.1978 N   0  0  0  0  0  0  0  0  0  0  0  0
   22.2735  -10.5220  -16.6212 C   0  0  0  0  0  0  0  0  0  0  0  0
   21.1017  -10.8444  -17.0183 O   0  0  0  0  0  0  0  0  0  0  0  0
   19.4003   -6.1889  -15.7714 N   0  0  0  0  0  0  0  0  0  0  0  0
   19.6409   -7.3799  -15.0432 C   0  0  0  0  0  0  0  0  0  0  0  0
   18.8954   -7.6347  -14.0318 O   0  0  0  0  0  0  0  0  0  0  0  0
   20.6716   -8.3788  -15.3250 C   0  0  0  0  0  0  0  0  0  0  0  0
   21.5711   -8.1035  -16.4690 C   0  0  2  0  0  0  0  0  0  0  0  0
   22.5798   -9.1723  -16.4781 N   0  0  0  0  0  0  0  0  0  0  0  0
   22.2632   -6.7989  -16.4367 C   0  0  0  0  0  0  0  0  0  0  0  0
   23.6352   -6.6234  -16.3831 O   0  0  0  0  0  0  0  0  0  0  0  0
   21.5707   -5.7499  -16.4585 O   0  0  0  0  0  0  0  0  0  0  0  0
  2  3  2  0
  2  1  1  0
  4  2  1  0
  5  4  1  0
  5  6  1  0
  6  7  1  6
  6  8  1  0
  8  9  2  0
 10  8  1  0
 10 11  1  0
 11 12  1  6
 13 12  1  0
 14 13  2  0
 15 16  1  0
 15 14  1  0
 16 17  2  0
 17 13  1  0
 18 11  1  0
 18 19  2  0
 20 21  1  0
 21 23  1  0
 21 22  2  0
 24 23  1  1
 24 25  1  0
 24 26  1  0
 25 18  1  0
 26 27  1  0
 28 26  2  0
M  END
$$$$
