QHN.pdb
     RDKit          3D

 28 28  0  0  1  0  0  0  0  0999 V2000
   37.3294  -11.8688  -12.3672 N   0  0  0  0  0  0  0  0  0  0  0  0
   38.4558  -11.1536  -12.8740 C   0  0  0  0  0  0  0  0  0  0  0  0
   39.6122  -11.5996  -12.6851 O   0  0  0  0  0  0  0  0  0  0  0  0
   38.2761   -9.8959  -13.6199 C   0  0  0  0  0  0  0  0  0  0  0  0
   36.8348   -9.5995  -13.8241 C   0  0  0  0  0  0  0  0  0  0  0  0
   36.6652   -8.2748  -14.5096 C   0  0  2  0  0  0  0  0  0  0  0  0
   36.8352   -7.2469  -13.4787 N   0  0  0  0  0  0  0  0  0  0  0  0
   35.2754   -8.1358  -15.0404 C   0  0  0  0  0  0  0  0  0  0  0  0
   34.3791   -7.9364  -14.1545 O   0  0  0  0  0  0  0  0  0  0  0  0
   34.9840   -8.2193  -16.4132 N   0  0  0  0  0  0  0  0  0  0  0  0
   33.5383   -8.0718  -16.7978 C   0  0  1  0  0  0  0  0  0  0  0  0
   33.5174   -6.7499  -17.4911 C   0  0  0  0  0  0  0  0  0  0  0  0
   32.2096   -6.3281  -17.9841 C   0  0  0  0  0  0  0  0  0  0  0  0
   31.0278   -7.0508  -17.6765 C   0  0  0  0  0  0  0  0  0  0  0  0
   29.9654   -6.4651  -18.2414 N   0  0  0  0  0  0  0  0  0  0  0  0
   30.4273   -5.3930  -18.8994 C   0  0  0  0  0  0  0  0  0  0  0  0
   31.7539   -5.3285  -18.7362 N   0  0  0  0  0  0  0  0  0  0  0  0
   33.1823   -9.2250  -17.6204 C   0  0  0  0  0  0  0  0  0  0  0  0
   34.1195   -9.7634  -18.3033 O   0  0  0  0  0  0  0  0  0  0  0  0
   30.3097  -13.3768  -19.6966 N   0  0  0  0  0  0  0  0  0  0  0  0
   29.7022  -12.6223  -18.6632 C   0  0  0  0  0  0  0  0  0  0  0  0
   28.5320  -12.9658  -18.2676 O   0  0  0  0  0  0  0  0  0  0  0  0
   30.2770  -11.4651  -17.9775 C   0  0  0  0  0  0  0  0  0  0  0  0
   31.5742  -10.9649  -18.4879 C   0  0  2  0  0  0  0  0  0  0  0  0
   31.9043   -9.7696  -17.6991 N   0  0  0  0  0  0  0  0  0  0  0  0
   31.6013  -10.6092  -19.9214 C   0  0  0  0  0  0  0  0  0  0  0  0
   30.7150   -9.7506  -20.5485 O   0  0  0  0  0  0  0  0  0  0  0  0
   32.4923  -11.1151  -20.6499 O   0  0  0  0  0  0  0  0  0  0  0  0
  2  3  2  0
  2  1  1  0
  4  2  1  0
  5  4  1  0
  5  6  1  0
  6  7  1  1
  6  8  1  0
  8  9  2  0
 10  8  1  0
 10 11  1  0
 11 12  1  6
 13 12  1  0
 14 13  2  0
 15 16  1  0
 15 14  1  0
 16 17  2  0
 17 13  1  0
 18 11  1  0
 18 19  2  0
 20 21  1  0
 21 23  1  0
 21 22  2  0
 24 23  1  1
 24 25  1  0
 24 26  1  0
 25 18  1  0
 26 27  1  0
 28 26  2  0
M  END
$$$$
