QHN.pdb
     RDKit          3D

 28 28  0  0  1  0  0  0  0  0999 V2000
   30.5848  -16.1207  -18.3552 N   0  0  0  0  0  0  0  0  0  0  0  0
   30.2363  -17.2608  -19.1399 C   0  0  0  0  0  0  0  0  0  0  0  0
   30.9755  -17.6118  -20.0898 O   0  0  0  0  0  0  0  0  0  0  0  0
   29.0170  -18.0336  -18.8457 C   0  0  0  0  0  0  0  0  0  0  0  0
   28.3327  -17.5081  -17.6364 C   0  0  0  0  0  0  0  0  0  0  0  0
   27.9333  -18.6359  -16.7296 C   0  0  2  0  0  0  0  0  0  0  0  0
   27.9080  -19.8463  -17.5557 N   0  0  0  0  0  0  0  0  0  0  0  0
   26.5453  -18.4274  -16.2172 C   0  0  0  0  0  0  0  0  0  0  0  0
   26.3786  -17.3621  -15.5351 O   0  0  0  0  0  0  0  0  0  0  0  0
   25.5062  -19.3396  -16.4710 N   0  0  0  0  0  0  0  0  0  0  0  0
   24.1956  -19.0636  -15.7884 C   0  0  1  0  0  0  0  0  0  0  0  0
   23.2099  -19.2148  -16.8994 C   0  0  0  0  0  0  0  0  0  0  0  0
   21.8228  -18.9339  -16.5410 C   0  0  0  0  0  0  0  0  0  0  0  0
   21.4513  -18.5783  -15.2185 C   0  0  0  0  0  0  0  0  0  0  0  0
   20.1311  -18.3715  -15.1470 N   0  0  0  0  0  0  0  0  0  0  0  0
   19.6460  -18.5826  -16.3781 C   0  0  0  0  0  0  0  0  0  0  0  0
   20.6590  -18.9136  -17.1873 N   0  0  0  0  0  0  0  0  0  0  0  0
   24.0632  -20.0164  -14.6892 C   0  0  0  0  0  0  0  0  0  0  0  0
   24.3869  -21.2297  -14.9295 O   0  0  0  0  0  0  0  0  0  0  0  0
   25.9550  -22.1236  -11.4793 N   0  0  0  0  0  0  0  0  0  0  0  0
   25.5151  -20.9354  -10.8460 C   0  0  0  0  0  0  0  0  0  0  0  0
   26.1961  -20.4861   -9.8570 O   0  0  0  0  0  0  0  0  0  0  0  0
   24.3399  -20.1418  -11.2051 C   0  0  0  0  0  0  0  0  0  0  0  0
   23.5027  -20.6553  -12.3136 C   0  0  2  0  0  0  0  0  0  0  0  0
   23.6190  -19.6864  -13.4126 N   0  0  0  0  0  0  0  0  0  0  0  0
   22.0721  -20.8444  -11.9979 C   0  0  0  0  0  0  0  0  0  0  0  0
   21.5095  -22.0098  -11.5068 O   0  0  0  0  0  0  0  0  0  0  0  0
   21.2833  -19.8831  -12.1824 O   0  0  0  0  0  0  0  0  0  0  0  0
  2  3  2  0
  2  1  1  0
  4  2  1  0
  5  4  1  0
  5  6  1  0
  6  7  1  6
  6  8  1  0
  8  9  2  0
 10  8  1  0
 10 11  1  0
 11 12  1  6
 13 12  1  0
 14 13  2  0
 15 16  1  0
 15 14  1  0
 16 17  2  0
 17 13  1  0
 18 11  1  0
 18 19  2  0
 20 21  1  0
 21 23  1  0
 21 22  2  0
 24 23  1  1
 24 25  1  0
 24 26  1  0
 25 18  1  0
 26 27  1  0
 28 26  2  0
M  END
$$$$
