QHN.pdb
     RDKit          3D

 28 28  0  0  1  0  0  0  0  0999 V2000
   21.0955  -13.7462  -20.6679 N   0  0  0  0  0  0  0  0  0  0  0  0
   22.5201  -13.6678  -20.6288 C   0  0  0  0  0  0  0  0  0  0  0  0
   23.2047  -14.4120  -21.3701 O   0  0  0  0  0  0  0  0  0  0  0  0
   23.1979  -12.7195  -19.7279 C   0  0  0  0  0  0  0  0  0  0  0  0
   22.2125  -11.9536  -18.9223 C   0  0  0  0  0  0  0  0  0  0  0  0
   22.9172  -10.9953  -18.0065 C   0  0  2  0  0  0  0  0  0  0  0  0
   23.4433  -11.7918  -16.8943 N   0  0  0  0  0  0  0  0  0  0  0  0
   21.9466  -10.0196  -17.4246 C   0  0  0  0  0  0  0  0  0  0  0  0
   21.4025   -9.2337  -18.2698 O   0  0  0  0  0  0  0  0  0  0  0  0
   21.6589   -9.9760  -16.0492 N   0  0  0  0  0  0  0  0  0  0  0  0
   20.6278   -8.9718  -15.6156 C   0  0  1  0  0  0  0  0  0  0  0  0
   19.8425   -9.7286  -14.5961 C   0  0  0  0  0  0  0  0  0  0  0  0
   18.7426  -10.5279  -15.1278 C   0  0  0  0  0  0  0  0  0  0  0  0
   18.4047  -10.5090  -16.5057 C   0  0  0  0  0  0  0  0  0  0  0  0
   17.3679  -11.3219  -16.7406 N   0  0  0  0  0  0  0  0  0  0  0  0
   17.0315  -11.8597  -15.5602 C   0  0  0  0  0  0  0  0  0  0  0  0
   17.8538  -11.3793  -14.6202 N   0  0  0  0  0  0  0  0  0  0  0  0
   21.3397   -7.7955  -15.1225 C   0  0  0  0  0  0  0  0  0  0  0  0
   22.4877   -7.9899  -14.5944 O   0  0  0  0  0  0  0  0  0  0  0  0
   23.7465   -3.1561  -15.0456 N   0  0  0  0  0  0  0  0  0  0  0  0
   23.8064   -4.3121  -15.8618 C   0  0  0  0  0  0  0  0  0  0  0  0
   24.7799   -4.4222  -16.6888 O   0  0  0  0  0  0  0  0  0  0  0  0
   22.8569   -5.4249  -15.8654 C   0  0  0  0  0  0  0  0  0  0  0  0
   21.6810   -5.3001  -14.9737 C   0  0  2  0  0  0  0  0  0  0  0  0
   20.8538   -6.4940  -15.1984 N   0  0  0  0  0  0  0  0  0  0  0  0
   20.8466   -4.0992  -15.1826 C   0  0  0  0  0  0  0  0  0  0  0  0
   20.7098   -3.0552  -14.2841 O   0  0  0  0  0  0  0  0  0  0  0  0
   20.1995   -3.9955  -16.2554 O   0  0  0  0  0  0  0  0  0  0  0  0
  2  3  2  0
  2  1  1  0
  4  2  1  0
  5  4  1  0
  5  6  1  0
  6  7  1  1
  6  8  1  0
  8  9  2  0
 10  8  1  0
 10 11  1  0
 11 12  1  1
 13 12  1  0
 14 13  2  0
 15 16  1  0
 15 14  1  0
 16 17  2  0
 17 13  1  0
 18 11  1  0
 18 19  2  0
 20 21  1  0
 21 23  1  0
 21 22  2  0
 24 23  1  6
 24 25  1  0
 24 26  1  0
 25 18  1  0
 26 27  1  0
 28 26  2  0
M  END
$$$$
