QHN.pdb
     RDKit          3D

 28 28  0  0  1  0  0  0  0  0999 V2000
   22.3074  -15.0181  -20.3879 N   0  0  0  0  0  0  0  0  0  0  0  0
   20.9468  -14.6325  -20.5806 C   0  0  0  0  0  0  0  0  0  0  0  0
   20.4792  -14.5601  -21.7417 O   0  0  0  0  0  0  0  0  0  0  0  0
   20.0821  -14.3201  -19.4295 C   0  0  0  0  0  0  0  0  0  0  0  0
   19.7140  -12.8809  -19.4155 C   0  0  0  0  0  0  0  0  0  0  0  0
   20.5829  -12.1280  -18.4502 C   0  0  2  0  0  0  0  0  0  0  0  0
   20.8821  -13.0506  -17.3513 N   0  0  0  0  0  0  0  0  0  0  0  0
   19.8339  -10.9764  -17.8623 C   0  0  0  0  0  0  0  0  0  0  0  0
   19.3947  -10.1313  -18.7112 O   0  0  0  0  0  0  0  0  0  0  0  0
   19.6317  -10.8403  -16.4777 N   0  0  0  0  0  0  0  0  0  0  0  0
   18.8834   -9.6156  -16.0307 C   0  0  1  0  0  0  0  0  0  0  0  0
   17.8445  -10.1813  -15.1200 C   0  0  0  0  0  0  0  0  0  0  0  0
   16.7210  -10.8314  -15.7880 C   0  0  0  0  0  0  0  0  0  0  0  0
   16.4439  -12.2115  -15.6091 C   0  0  0  0  0  0  0  0  0  0  0  0
   15.3685  -12.5653  -16.3227 N   0  0  0  0  0  0  0  0  0  0  0  0
   14.9487  -11.4589  -16.9515 C   0  0  0  0  0  0  0  0  0  0  0  0
   15.7591  -10.4458  -16.6239 N   0  0  0  0  0  0  0  0  0  0  0  0
   19.8488   -8.7132  -15.4084 C   0  0  0  0  0  0  0  0  0  0  0  0
   20.6531   -9.2217  -14.5545 O   0  0  0  0  0  0  0  0  0  0  0  0
   22.8819   -4.2912  -14.4735 N   0  0  0  0  0  0  0  0  0  0  0  0
   22.7497   -4.8942  -15.7483 C   0  0  0  0  0  0  0  0  0  0  0  0
   23.5405   -4.5163  -16.6841 O   0  0  0  0  0  0  0  0  0  0  0  0
   21.7869   -5.9286  -16.1260 C   0  0  0  0  0  0  0  0  0  0  0  0
   20.9203   -6.4577  -15.0478 C   0  0  2  0  0  0  0  0  0  0  0  0
   19.9491   -7.3544  -15.6903 N   0  0  0  0  0  0  0  0  0  0  0  0
   20.1839   -5.4436  -14.2658 C   0  0  0  0  0  0  0  0  0  0  0  0
   18.8905   -5.0221  -14.5211 O   0  0  0  0  0  0  0  0  0  0  0  0
   20.7585   -4.9065  -13.2851 O   0  0  0  0  0  0  0  0  0  0  0  0
  2  3  2  0
  2  1  1  0
  4  2  1  0
  5  4  1  0
  5  6  1  0
  6  7  1  1
  6  8  1  0
  8  9  2  0
 10  8  1  0
 10 11  1  0
 11 12  1  1
 13 12  1  0
 14 13  2  0
 15 16  1  0
 15 14  1  0
 16 17  2  0
 17 13  1  0
 18 11  1  0
 18 19  2  0
 20 21  1  0
 21 23  1  0
 21 22  2  0
 24 23  1  6
 24 25  1  0
 24 26  1  0
 25 18  1  0
 26 27  1  0
 28 26  2  0
M  END
$$$$
