QHN.pdb
     RDKit          3D

 28 28  0  0  1  0  0  0  0  0999 V2000
   21.8963  -10.5679  -20.3076 N   0  0  0  0  0  0  0  0  0  0  0  0
   21.2392  -11.6299  -19.6164 C   0  0  0  0  0  0  0  0  0  0  0  0
   20.6217  -12.5066  -20.2660 O   0  0  0  0  0  0  0  0  0  0  0  0
   21.2795  -11.7102  -18.1460 C   0  0  0  0  0  0  0  0  0  0  0  0
   22.0384  -10.5698  -17.5712 C   0  0  0  0  0  0  0  0  0  0  0  0
   21.9840  -10.6079  -16.0715 C   0  0  2  0  0  0  0  0  0  0  0  0
   21.3279  -11.8677  -15.7098 N   0  0  0  0  0  0  0  0  0  0  0  0
   21.1236   -9.5022  -15.5519 C   0  0  0  0  0  0  0  0  0  0  0  0
   19.9845   -9.3968  -16.1169 O   0  0  0  0  0  0  0  0  0  0  0  0
   21.5433   -8.6463  -14.5186 N   0  0  0  0  0  0  0  0  0  0  0  0
   20.5891   -7.5511  -14.1316 C   0  0  1  0  0  0  0  0  0  0  0  0
   20.3948   -7.7877  -12.6704 C   0  0  0  0  0  0  0  0  0  0  0  0
   19.1999   -8.5490  -12.3184 C   0  0  0  0  0  0  0  0  0  0  0  0
   18.3250   -9.0647  -13.3093 C   0  0  0  0  0  0  0  0  0  0  0  0
   17.3100   -9.7217  -12.7359 N   0  0  0  0  0  0  0  0  0  0  0  0
   17.5060   -9.6438  -11.4126 C   0  0  0  0  0  0  0  0  0  0  0  0
   18.6261   -8.9480  -11.1852 N   0  0  0  0  0  0  0  0  0  0  0  0
   21.2108   -6.2791  -14.4908 C   0  0  0  0  0  0  0  0  0  0  0  0
   22.3954   -6.0685  -14.0584 O   0  0  0  0  0  0  0  0  0  0  0  0
   22.1589   -1.5872  -17.0897 N   0  0  0  0  0  0  0  0  0  0  0  0
   21.3604   -2.5799  -17.7085 C   0  0  0  0  0  0  0  0  0  0  0  0
   21.0234   -2.4117  -18.9341 O   0  0  0  0  0  0  0  0  0  0  0  0
   20.8653   -3.8092  -17.0893 C   0  0  0  0  0  0  0  0  0  0  0  0
   21.2699   -4.0582  -15.6865 C   0  0  2  0  0  0  0  0  0  0  0  0
   20.6028   -5.2998  -15.2700 N   0  0  0  0  0  0  0  0  0  0  0  0
   20.9275   -2.9906  -14.7247 C   0  0  0  0  0  0  0  0  0  0  0  0
   21.7512   -1.9337  -14.3774 O   0  0  0  0  0  0  0  0  0  0  0  0
   19.8028   -3.0242  -14.1641 O   0  0  0  0  0  0  0  0  0  0  0  0
  2  3  2  0
  2  1  1  0
  4  2  1  0
  5  4  1  0
  5  6  1  0
  6  7  1  6
  6  8  1  0
  8  9  2  0
 10  8  1  0
 10 11  1  0
 11 12  1  1
 13 12  1  0
 14 13  2  0
 15 16  1  0
 15 14  1  0
 16 17  2  0
 17 13  1  0
 18 11  1  0
 18 19  2  0
 20 21  1  0
 21 23  1  0
 21 22  2  0
 24 23  1  6
 24 25  1  0
 24 26  1  0
 25 18  1  0
 26 27  1  0
 28 26  2  0
M  END
$$$$
