QHN.pdb
     RDKit          3D

 28 28  0  0  1  0  0  0  0  0999 V2000
   28.4540  -21.0411  -18.8554 N   0  0  0  0  0  0  0  0  0  0  0  0
   29.0610  -19.8102  -18.4634 C   0  0  0  0  0  0  0  0  0  0  0  0
   30.3074  -19.6864  -18.5172 O   0  0  0  0  0  0  0  0  0  0  0  0
   28.2391  -18.6799  -17.9972 C   0  0  0  0  0  0  0  0  0  0  0  0
   26.7916  -19.0017  -18.0870 C   0  0  0  0  0  0  0  0  0  0  0  0
   26.1527  -18.9215  -16.7309 C   0  0  2  0  0  0  0  0  0  0  0  0
   27.0370  -19.6414  -15.8101 N   0  0  0  0  0  0  0  0  0  0  0  0
   24.8418  -19.6386  -16.7282 C   0  0  0  0  0  0  0  0  0  0  0  0
   24.0641  -19.3405  -17.6948 O   0  0  0  0  0  0  0  0  0  0  0  0
   24.4974  -20.5700  -15.7331 N   0  0  0  0  0  0  0  0  0  0  0  0
   23.1513  -21.2249  -15.8705 C   0  0  1  0  0  0  0  0  0  0  0  0
   23.4532  -22.6576  -15.5788 C   0  0  0  0  0  0  0  0  0  0  0  0
   24.2195  -23.3526  -16.6089 C   0  0  0  0  0  0  0  0  0  0  0  0
   25.4433  -24.0075  -16.3140 C   0  0  0  0  0  0  0  0  0  0  0  0
   25.9484  -24.5670  -17.4197 N   0  0  0  0  0  0  0  0  0  0  0  0
   25.0898  -24.2924  -18.4111 C   0  0  0  0  0  0  0  0  0  0  0  0
   24.0757  -23.5749  -17.9137 N   0  0  0  0  0  0  0  0  0  0  0  0
   22.2438  -20.5651  -14.9354 C   0  0  0  0  0  0  0  0  0  0  0  0
   22.7375  -20.1781  -13.8214 O   0  0  0  0  0  0  0  0  0  0  0  0
   18.9584  -16.8288  -12.8563 N   0  0  0  0  0  0  0  0  0  0  0  0
   18.9051  -17.3461  -14.1739 C   0  0  0  0  0  0  0  0  0  0  0  0
   17.9017  -17.0346  -14.9087 O   0  0  0  0  0  0  0  0  0  0  0  0
   19.8942  -18.2181  -14.8070 C   0  0  0  0  0  0  0  0  0  0  0  0
   20.0140  -19.5919  -14.2668 C   0  0  2  0  0  0  0  0  0  0  0  0
   20.8951  -20.3292  -15.1834 N   0  0  0  0  0  0  0  0  0  0  0  0
   18.7453  -20.3357  -14.1281 C   0  0  0  0  0  0  0  0  0  0  0  0
   17.8873  -20.2570  -13.0447 O   0  0  0  0  0  0  0  0  0  0  0  0
   18.3966  -21.1085  -15.0563 O   0  0  0  0  0  0  0  0  0  0  0  0
  2  3  2  0
  2  1  1  0
  4  2  1  0
  5  4  1  0
  5  6  1  0
  6  7  1  1
  6  8  1  0
  8  9  2  0
 10  8  1  0
 10 11  1  0
 11 12  1  1
 13 12  1  0
 14 13  2  0
 15 16  1  0
 15 14  1  0
 16 17  2  0
 17 13  1  0
 18 11  1  0
 18 19  2  0
 20 21  1  0
 21 23  1  0
 21 22  2  0
 24 23  1  6
 24 25  1  0
 24 26  1  0
 25 18  1  0
 26 27  1  0
 28 26  2  0
M  END
$$$$
