QHN.pdb
     RDKit          3D

 28 28  0  0  1  0  0  0  0  0999 V2000
   29.4958  -21.6657  -19.8124 N   0  0  0  0  0  0  0  0  0  0  0  0
   28.8401  -20.3994  -19.7516 C   0  0  0  0  0  0  0  0  0  0  0  0
   29.3001  -19.4290  -20.3986 O   0  0  0  0  0  0  0  0  0  0  0  0
   27.6254  -20.2184  -18.9380 C   0  0  0  0  0  0  0  0  0  0  0  0
   27.2658  -21.4748  -18.2315 C   0  0  0  0  0  0  0  0  0  0  0  0
   27.9836  -21.5591  -16.9158 C   0  0  2  0  0  0  0  0  0  0  0  0
   28.7440  -22.8119  -16.9350 N   0  0  0  0  0  0  0  0  0  0  0  0
   27.0039  -21.6596  -15.7921 C   0  0  0  0  0  0  0  0  0  0  0  0
   26.0054  -22.4216  -16.0161 O   0  0  0  0  0  0  0  0  0  0  0  0
   27.1752  -20.9646  -14.5821 N   0  0  0  0  0  0  0  0  0  0  0  0
   26.1500  -21.2240  -13.5137 C   0  0  1  0  0  0  0  0  0  0  0  0
   26.7650  -20.5912  -12.3095 C   0  0  0  0  0  0  0  0  0  0  0  0
   25.9178  -20.5654  -11.1209 C   0  0  0  0  0  0  0  0  0  0  0  0
   24.5896  -21.0642  -11.1404 C   0  0  0  0  0  0  0  0  0  0  0  0
   24.0254  -20.9295   -9.9344 N   0  0  0  0  0  0  0  0  0  0  0  0
   24.9473  -20.3619   -9.1447 C   0  0  0  0  0  0  0  0  0  0  0  0
   26.0575  -20.1543   -9.8623 N   0  0  0  0  0  0  0  0  0  0  0  0
   24.8891  -20.6393  -13.9631 C   0  0  0  0  0  0  0  0  0  0  0  0
   24.9595  -19.5632  -14.6499 O   0  0  0  0  0  0  0  0  0  0  0  0
   22.2622  -21.1234  -17.9093 N   0  0  0  0  0  0  0  0  0  0  0  0
   22.2236  -20.5426  -16.6179 C   0  0  0  0  0  0  0  0  0  0  0  0
   22.4461  -19.2845  -16.5107 O   0  0  0  0  0  0  0  0  0  0  0  0
   21.9496  -21.2364  -15.3596 C   0  0  0  0  0  0  0  0  0  0  0  0
   22.3722  -20.5522  -14.1160 C   0  0  2  0  0  0  0  0  0  0  0  0
   23.6343  -21.1791  -13.6986 N   0  0  0  0  0  0  0  0  0  0  0  0
   21.4148  -20.6210  -12.9931 C   0  0  0  0  0  0  0  0  0  0  0  0
   20.5172  -19.6260  -12.6463 O   0  0  0  0  0  0  0  0  0  0  0  0
   21.3960  -21.6570  -12.2814 O   0  0  0  0  0  0  0  0  0  0  0  0
  2  3  2  0
  2  1  1  0
  4  2  1  0
  5  4  1  0
  5  6  1  0
  6  7  1  6
  6  8  1  0
  8  9  2  0
 10  8  1  0
 10 11  1  0
 11 12  1  1
 13 12  1  0
 14 13  2  0
 15 16  1  0
 15 14  1  0
 16 17  2  0
 17 13  1  0
 18 11  1  0
 18 19  2  0
 20 21  1  0
 21 23  1  0
 21 22  2  0
 24 23  1  6
 24 25  1  0
 24 26  1  0
 25 18  1  0
 26 27  1  0
 28 26  2  0
M  END
$$$$
