MKD.pdb
     RDKit          3D

 26 25  0  0  1  0  0  0  0  0999 V2000
   27.6645  -19.3530   -4.9522 C   0  0  0  0  0  0  0  0  0  0  0  0
   27.1549  -19.1596   -6.6597 S   0  0  0  0  0  0  0  0  0  0  0  0
   27.2062  -20.6664   -7.6118 C   0  0  0  0  0  0  0  0  0  0  0  0
   27.1538  -20.4725   -9.0806 C   0  0  0  0  0  0  0  0  0  0  0  0
   25.7804  -20.3384   -9.6530 C   0  0  2  0  0  0  0  0  0  0  0  0
   24.9651  -21.5200   -9.4006 N   0  0  0  0  0  0  0  0  0  0  0  0
   25.9272  -20.1909  -11.1182 C   0  0  0  0  0  0  0  0  0  0  0  0
   26.4101  -19.1472  -11.5909 O   0  0  0  0  0  0  0  0  0  0  0  0
   25.5206  -21.2308  -11.9759 N   0  0  0  0  0  0  0  0  0  0  0  0
   25.5601  -20.9887  -13.4200 C   0  0  1  0  0  0  0  0  0  0  0  0
   26.6225  -21.8793  -13.9734 C   0  0  0  0  0  0  0  0  0  0  0  0
   26.8091  -21.7379  -15.4394 C   0  0  0  0  0  0  0  0  0  0  0  0
   28.2720  -21.9381  -15.8237 C   0  0  0  0  0  0  0  0  0  0  0  0
   28.3383  -21.7214  -17.3384 C   0  0  0  0  0  0  0  0  0  0  0  0
   29.7127  -21.7542  -17.8015 N   0  0  0  0  0  0  0  0  0  0  0  0
   24.2543  -21.2663  -14.0256 C   0  0  0  0  0  0  0  0  0  0  0  0
   24.0854  -22.3167  -14.6806 O   0  0  0  0  0  0  0  0  0  0  0  0
   23.1844  -20.3589  -13.8766 N   0  0  0  0  0  0  0  0  0  0  0  0
   21.8128  -20.7917  -13.8522 C   0  0  1  0  0  0  0  0  0  0  0  0
   21.5872  -21.8196  -12.7661 C   0  0  0  0  0  0  0  0  0  0  0  0
   20.1504  -22.1965  -12.7568 C   0  0  0  0  0  0  0  0  0  0  0  0
   19.5181  -22.3878  -13.8257 O   0  0  0  0  0  0  0  0  0  0  0  0
   20.9204  -19.6146  -13.6838 C   0  0  0  0  0  0  0  0  0  0  0  0
   19.6083  -19.6205  -14.1062 O   0  0  0  0  0  0  0  0  0  0  0  0
   19.5306  -22.3298  -11.5233 O   0  0  0  0  0  0  0  0  0  0  0  0
   21.3637  -18.5791  -13.1423 O   0  0  0  0  0  0  0  0  0  0  0  0
  2  1  1  0
  3  4  1  0
  3  2  1  0
  4  5  1  0
  5  6  1  6
  7  5  1  0
  7  8  2  0
  9  7  1  0
 10  9  1  0
 10 11  1  6
 11 12  1  0
 12 13  1  0
 13 14  1  0
 14 15  1  0
 16 10  1  0
 17 16  2  0
 18 16  1  0
 19 20  1  1
 19 18  1  0
 20 21  1  0
 21 25  1  0
 21 22  2  0
 23 19  1  0
 24 23  1  0
 26 23  2  0
M  END
$$$$
