MKD.pdb
     RDKit          3D

 26 25  0  0  1  0  0  0  0  0999 V2000
   27.6514  -18.6541   -5.0772 C   0  0  0  0  0  0  0  0  0  0  0  0
   28.6113  -19.0821   -6.5291 S   0  0  0  0  0  0  0  0  0  0  0  0
   27.8843  -20.3640   -7.5329 C   0  0  0  0  0  0  0  0  0  0  0  0
   26.6771  -19.9495   -8.2871 C   0  0  0  0  0  0  0  0  0  0  0  0
   26.0149  -21.0366   -9.0691 C   0  0  2  0  0  0  0  0  0  0  0  0
   26.9798  -21.9817   -9.6171 N   0  0  0  0  0  0  0  0  0  0  0  0
   25.3104  -20.3965  -10.2024 C   0  0  0  0  0  0  0  0  0  0  0  0
   24.5939  -19.4001  -10.0036 O   0  0  0  0  0  0  0  0  0  0  0  0
   25.4513  -20.9151  -11.5037 N   0  0  0  0  0  0  0  0  0  0  0  0
   24.5740  -20.3914  -12.5534 C   0  0  1  0  0  0  0  0  0  0  0  0
   25.2634  -20.6460  -13.8526 C   0  0  0  0  0  0  0  0  0  0  0  0
   26.7424  -20.5484  -13.7669 C   0  0  0  0  0  0  0  0  0  0  0  0
   27.3872  -20.8577  -15.1146 C   0  0  0  0  0  0  0  0  0  0  0  0
   28.8839  -20.5895  -14.9317 C   0  0  0  0  0  0  0  0  0  0  0  0
   29.6190  -20.9458  -16.1305 N   0  0  0  0  0  0  0  0  0  0  0  0
   23.2620  -21.0433  -12.5021 C   0  0  0  0  0  0  0  0  0  0  0  0
   22.9993  -21.8353  -11.5722 O   0  0  0  0  0  0  0  0  0  0  0  0
   22.2912  -20.7857  -13.4927 N   0  0  0  0  0  0  0  0  0  0  0  0
   20.9042  -20.5830  -13.1693 C   0  0  1  0  0  0  0  0  0  0  0  0
   20.7339  -19.4260  -12.2104 C   0  0  0  0  0  0  0  0  0  0  0  0
   19.3050  -19.3418  -11.8133 C   0  0  0  0  0  0  0  0  0  0  0  0
   18.5946  -18.3565  -12.1345 O   0  0  0  0  0  0  0  0  0  0  0  0
   20.1250  -20.3760  -14.4185 C   0  0  0  0  0  0  0  0  0  0  0  0
   20.5598  -19.5421  -15.4263 O   0  0  0  0  0  0  0  0  0  0  0  0
   18.7824  -20.3921  -11.0736 O   0  0  0  0  0  0  0  0  0  0  0  0
   19.0377  -20.9729  -14.5712 O   0  0  0  0  0  0  0  0  0  0  0  0
  2  1  1  0
  3  4  1  0
  3  2  1  0
  4  5  1  0
  5  6  1  6
  7  5  1  0
  7  8  2  0
  9  7  1  0
 10  9  1  0
 10 11  1  6
 11 12  1  0
 12 13  1  0
 13 14  1  0
 14 15  1  0
 16 10  1  0
 17 16  2  0
 18 16  1  0
 19 20  1  1
 19 18  1  0
 20 21  1  0
 21 25  1  0
 21 22  2  0
 23 19  1  0
 24 23  1  0
 26 23  2  0
M  END
$$$$
