MKD.pdb
     RDKit          3D

 26 25  0  0  1  0  0  0  0  0999 V2000
   27.4496  -28.1757  -17.6153 C   0  0  0  0  0  0  0  0  0  0  0  0
   27.7776  -27.0683  -16.2446 S   0  0  0  0  0  0  0  0  0  0  0  0
   26.5102  -25.8429  -15.9770 C   0  0  0  0  0  0  0  0  0  0  0  0
   26.1327  -25.0693  -17.1839 C   0  0  0  0  0  0  0  0  0  0  0  0
   26.3658  -23.5966  -17.0906 C   0  0  2  0  0  0  0  0  0  0  0  0
   27.3691  -23.2643  -16.0868 N   0  0  0  0  0  0  0  0  0  0  0  0
   25.0873  -22.9743  -16.6799 C   0  0  0  0  0  0  0  0  0  0  0  0
   24.1058  -23.0137  -17.4420 O   0  0  0  0  0  0  0  0  0  0  0  0
   24.9826  -22.3385  -15.4281 N   0  0  0  0  0  0  0  0  0  0  0  0
   23.7254  -21.6613  -15.1017 C   0  0  1  0  0  0  0  0  0  0  0  0
   23.7691  -21.3610  -13.6402 C   0  0  0  0  0  0  0  0  0  0  0  0
   22.5465  -20.6848  -13.1381 C   0  0  0  0  0  0  0  0  0  0  0  0
   21.3467  -21.6263  -13.1825 C   0  0  0  0  0  0  0  0  0  0  0  0
   20.1653  -20.8220  -12.6321 C   0  0  0  0  0  0  0  0  0  0  0  0
   18.9460  -21.6068  -12.6754 N   0  0  0  0  0  0  0  0  0  0  0  0
   23.5748  -20.4404  -15.8990 C   0  0  0  0  0  0  0  0  0  0  0  0
   24.3802  -19.4975  -15.7469 O   0  0  0  0  0  0  0  0  0  0  0  0
   22.5289  -20.3184  -16.8378 N   0  0  0  0  0  0  0  0  0  0  0  0
   22.2957  -19.1015  -17.5685 C   0  0  1  0  0  0  0  0  0  0  0  0
   22.1807  -19.3726  -19.0519 C   0  0  0  0  0  0  0  0  0  0  0  0
   21.9148  -18.0898  -19.7521 C   0  0  0  0  0  0  0  0  0  0  0  0
   21.7867  -17.0131  -19.1173 O   0  0  0  0  0  0  0  0  0  0  0  0
   21.0804  -18.4270  -17.0409 C   0  0  0  0  0  0  0  0  0  0  0  0
   20.2856  -18.9983  -16.0703 O   0  0  0  0  0  0  0  0  0  0  0  0
   21.8130  -18.1235  -21.1349 O   0  0  0  0  0  0  0  0  0  0  0  0
   20.7585  -17.3039  -17.4847 O   0  0  0  0  0  0  0  0  0  0  0  0
  2  1  1  0
  3  4  1  0
  3  2  1  0
  4  5  1  0
  5  6  1  1
  7  5  1  0
  7  8  2  0
  9  7  1  0
 10  9  1  0
 10 11  1  1
 11 12  1  0
 12 13  1  0
 13 14  1  0
 14 15  1  0
 16 10  1  0
 17 16  2  0
 18 16  1  0
 19 20  1  6
 19 18  1  0
 20 21  1  0
 21 25  1  0
 21 22  2  0
 23 19  1  0
 24 23  1  0
 26 23  2  0
M  END
$$$$
