MKD.pdb
     RDKit          3D

 26 25  0  0  1  0  0  0  0  0999 V2000
   27.9694  -21.7318   -4.3914 C   0  0  0  0  0  0  0  0  0  0  0  0
   28.2098  -19.9559   -4.3609 S   0  0  0  0  0  0  0  0  0  0  0  0
   28.2686  -19.1996   -5.9746 C   0  0  0  0  0  0  0  0  0  0  0  0
   27.3906  -19.8331   -6.9873 C   0  0  0  0  0  0  0  0  0  0  0  0
   27.4768  -19.2440   -8.3575 C   0  0  2  0  0  0  0  0  0  0  0  0
   27.3208  -17.7948   -8.3404 N   0  0  0  0  0  0  0  0  0  0  0  0
   26.3645  -19.8123   -9.1512 C   0  0  0  0  0  0  0  0  0  0  0  0
   25.2035  -19.4050   -8.9718 O   0  0  0  0  0  0  0  0  0  0  0  0
   26.6204  -20.8128  -10.1082 N   0  0  0  0  0  0  0  0  0  0  0  0
   26.0422  -20.6528  -11.4446 C   0  0  1  0  0  0  0  0  0  0  0  0
   26.9543  -21.3591  -12.3918 C   0  0  0  0  0  0  0  0  0  0  0  0
   26.4965  -21.3084  -13.8032 C   0  0  0  0  0  0  0  0  0  0  0  0
   27.4189  -22.1238  -14.7042 C   0  0  0  0  0  0  0  0  0  0  0  0
   26.9244  -21.8835  -16.1336 C   0  0  0  0  0  0  0  0  0  0  0  0
   27.2730  -20.5477  -16.5792 N   0  0  0  0  0  0  0  0  0  0  0  0
   24.6851  -21.2053  -11.4892 C   0  0  0  0  0  0  0  0  0  0  0  0
   24.4022  -22.2102  -10.8028 O   0  0  0  0  0  0  0  0  0  0  0  0
   23.6935  -20.6138  -12.2998 N   0  0  0  0  0  0  0  0  0  0  0  0
   22.3626  -21.1513  -12.3942 C   0  0  1  0  0  0  0  0  0  0  0  0
   21.3804  -20.3093  -11.6110 C   0  0  0  0  0  0  0  0  0  0  0  0
   20.0244  -20.8979  -11.7574 C   0  0  0  0  0  0  0  0  0  0  0  0
   19.8391  -21.9591  -12.4042 O   0  0  0  0  0  0  0  0  0  0  0  0
   21.9687  -21.2620  -13.8235 C   0  0  0  0  0  0  0  0  0  0  0  0
   20.9711  -22.1136  -14.2472 O   0  0  0  0  0  0  0  0  0  0  0  0
   18.9681  -20.2325  -11.1533 O   0  0  0  0  0  0  0  0  0  0  0  0
   22.5548  -20.5641  -14.6788 O   0  0  0  0  0  0  0  0  0  0  0  0
  2  1  1  0
  3  4  1  0
  3  2  1  0
  4  5  1  0
  5  6  1  1
  7  5  1  0
  7  8  2  0
  9  7  1  0
 10  9  1  0
 10 11  1  6
 11 12  1  0
 12 13  1  0
 13 14  1  0
 14 15  1  0
 16 10  1  0
 17 16  2  0
 18 16  1  0
 19 20  1  1
 19 18  1  0
 20 21  1  0
 21 25  1  0
 21 22  2  0
 23 19  1  0
 24 23  1  0
 26 23  2  0
M  END
$$$$
