MKD.pdb
     RDKit          3D

 26 25  0  0  1  0  0  0  0  0999 V2000
   26.5342  -16.0424  -14.9780 C   0  0  0  0  0  0  0  0  0  0  0  0
   27.8866  -16.4950  -16.0638 S   0  0  0  0  0  0  0  0  0  0  0  0
   27.7720  -18.1482  -16.7221 C   0  0  0  0  0  0  0  0  0  0  0  0
   26.8619  -19.0497  -15.9759 C   0  0  0  0  0  0  0  0  0  0  0  0
   27.5400  -20.0292  -15.0744 C   0  0  2  0  0  0  0  0  0  0  0  0
   28.2873  -21.0334  -15.8213 N   0  0  0  0  0  0  0  0  0  0  0  0
   26.4832  -20.7253  -14.3071 C   0  0  0  0  0  0  0  0  0  0  0  0
   25.9533  -21.7500  -14.7710 O   0  0  0  0  0  0  0  0  0  0  0  0
   26.0781  -20.2281  -13.0537 N   0  0  0  0  0  0  0  0  0  0  0  0
   24.9251  -20.8550  -12.4031 C   0  0  1  0  0  0  0  0  0  0  0  0
   25.0271  -20.5316  -10.9495 C   0  0  0  0  0  0  0  0  0  0  0  0
   23.9022  -21.0690  -10.1432 C   0  0  0  0  0  0  0  0  0  0  0  0
   24.0958  -20.7562   -8.6626 C   0  0  0  0  0  0  0  0  0  0  0  0
   22.8669  -21.3303   -7.9513 C   0  0  0  0  0  0  0  0  0  0  0  0
   22.8658  -20.9589   -6.5490 N   0  0  0  0  0  0  0  0  0  0  0  0
   23.6730  -20.3565  -12.9801 C   0  0  0  0  0  0  0  0  0  0  0  0
   23.5017  -19.1269  -13.1207 O   0  0  0  0  0  0  0  0  0  0  0  0
   22.6580  -21.2513  -13.3790 N   0  0  0  0  0  0  0  0  0  0  0  0
   21.4373  -20.7989  -13.9909 C   0  0  1  0  0  0  0  0  0  0  0  0
   20.9462  -21.7912  -15.0210 C   0  0  0  0  0  0  0  0  0  0  0  0
   19.6406  -21.3216  -15.5515 C   0  0  0  0  0  0  0  0  0  0  0  0
   18.5911  -21.3967  -14.8647 O   0  0  0  0  0  0  0  0  0  0  0  0
   20.4143  -20.5505  -12.9410 C   0  0  0  0  0  0  0  0  0  0  0  0
   20.3006  -21.3478  -11.8223 O   0  0  0  0  0  0  0  0  0  0  0  0
   19.6217  -20.7962  -16.8349 O   0  0  0  0  0  0  0  0  0  0  0  0
   19.6253  -19.5893  -13.0660 O   0  0  0  0  0  0  0  0  0  0  0  0
  2  1  1  0
  3  4  1  0
  3  2  1  0
  4  5  1  0
  5  6  1  6
  7  5  1  0
  7  8  2  0
  9  7  1  0
 10  9  1  0
 10 11  1  1
 11 12  1  0
 12 13  1  0
 13 14  1  0
 14 15  1  0
 16 10  1  0
 17 16  2  0
 18 16  1  0
 19 20  1  6
 19 18  1  0
 20 21  1  0
 21 25  1  0
 21 22  2  0
 23 19  1  0
 24 23  1  0
 26 23  2  0
M  END
$$$$
