MKD.pdb
     RDKit          3D

 26 25  0  0  1  0  0  0  0  0999 V2000
   18.1787  -19.9270  -17.0327 C   0  0  0  0  0  0  0  0  0  0  0  0
   17.7535  -21.3105  -15.9754 S   0  0  0  0  0  0  0  0  0  0  0  0
   18.6239  -21.3343  -14.4193 C   0  0  0  0  0  0  0  0  0  0  0  0
   19.9129  -20.6020  -14.4200 C   0  0  0  0  0  0  0  0  0  0  0  0
   21.0016  -21.2358  -13.6170 C   0  0  2  0  0  0  0  0  0  0  0  0
   20.8197  -21.0245  -12.1863 N   0  0  0  0  0  0  0  0  0  0  0  0
   22.2733  -20.5913  -14.0144 C   0  0  0  0  0  0  0  0  0  0  0  0
   22.6561  -19.5628  -13.4300 O   0  0  0  0  0  0  0  0  0  0  0  0
   23.0485  -21.1419  -15.0527 N   0  0  0  0  0  0  0  0  0  0  0  0
   24.2777  -20.4451  -15.4394 C   0  0  1  0  0  0  0  0  0  0  0  0
   25.2523  -21.4969  -15.8540 C   0  0  0  0  0  0  0  0  0  0  0  0
   26.5830  -20.9560  -16.2291 C   0  0  0  0  0  0  0  0  0  0  0  0
   27.4846  -22.0590  -16.7753 C   0  0  0  0  0  0  0  0  0  0  0  0
   28.7676  -21.9997  -15.9410 C   0  0  0  0  0  0  0  0  0  0  0  0
   29.6879  -23.0477  -16.3402 N   0  0  0  0  0  0  0  0  0  0  0  0
   24.0133  -19.4965  -16.5253 C   0  0  0  0  0  0  0  0  0  0  0  0
   23.2414  -19.8169  -17.4540 O   0  0  0  0  0  0  0  0  0  0  0  0
   24.6217  -18.2238  -16.5331 N   0  0  0  0  0  0  0  0  0  0  0  0
   24.4232  -17.2882  -17.6076 C   0  0  1  0  0  0  0  0  0  0  0  0
   24.3139  -15.8741  -17.0829 C   0  0  0  0  0  0  0  0  0  0  0  0
   24.2128  -14.9437  -18.2364 C   0  0  0  0  0  0  0  0  0  0  0  0
   24.1784  -15.3692  -19.4181 O   0  0  0  0  0  0  0  0  0  0  0  0
   25.5266  -17.4204  -18.5952 C   0  0  0  0  0  0  0  0  0  0  0  0
   25.3874  -17.0293  -19.9096 O   0  0  0  0  0  0  0  0  0  0  0  0
   24.1578  -13.5854  -17.9614 O   0  0  0  0  0  0  0  0  0  0  0  0
   26.6220  -17.9009  -18.2330 O   0  0  0  0  0  0  0  0  0  0  0  0
  2  1  1  0
  3  4  1  0
  3  2  1  0
  4  5  1  0
  5  6  1  1
  7  5  1  0
  7  8  2  0
  9  7  1  0
 10  9  1  0
 10 11  1  6
 11 12  1  0
 12 13  1  0
 13 14  1  0
 14 15  1  0
 16 10  1  0
 17 16  2  0
 18 16  1  0
 19 20  1  1
 19 18  1  0
 20 21  1  0
 21 25  1  0
 21 22  2  0
 23 19  1  0
 24 23  1  0
 26 23  2  0
M  END
$$$$
