MKD.pdb
     RDKit          3D

 26 25  0  0  1  0  0  0  0  0999 V2000
   22.2533  -26.6203   -1.3333 C   0  0  0  0  0  0  0  0  0  0  0  0
   22.0454  -28.3821   -1.5893 S   0  0  0  0  0  0  0  0  0  0  0  0
   23.5338  -29.2276   -2.0884 C   0  0  0  0  0  0  0  0  0  0  0  0
   23.3433  -30.6511   -2.4559 C   0  0  0  0  0  0  0  0  0  0  0  0
   24.5867  -31.3714   -2.8648 C   0  0  2  0  0  0  0  0  0  0  0  0
   24.4696  -31.9516   -4.1968 N   0  0  0  0  0  0  0  0  0  0  0  0
   24.7908  -32.4773   -1.9027 C   0  0  0  0  0  0  0  0  0  0  0  0
   24.0623  -33.4837   -1.9514 O   0  0  0  0  0  0  0  0  0  0  0  0
   25.8083  -32.3901   -0.9336 N   0  0  0  0  0  0  0  0  0  0  0  0
   25.9047  -33.4592    0.0631 C   0  0  1  0  0  0  0  0  0  0  0  0
   27.3396  -33.8677    0.1137 C   0  0  0  0  0  0  0  0  0  0  0  0
   27.6053  -34.9801    1.0602 C   0  0  0  0  0  0  0  0  0  0  0  0
   29.0713  -35.3994    1.0095 C   0  0  0  0  0  0  0  0  0  0  0  0
   29.1996  -36.5837    1.9721 C   0  0  0  0  0  0  0  0  0  0  0  0
   30.5748  -37.0399    2.0437 N   0  0  0  0  0  0  0  0  0  0  0  0
   25.4307  -32.9915    1.3690 C   0  0  0  0  0  0  0  0  0  0  0  0
   25.4657  -31.7726    1.6409 O   0  0  0  0  0  0  0  0  0  0  0  0
   24.9345  -33.9040    2.3236 N   0  0  0  0  0  0  0  0  0  0  0  0
   24.4205  -33.4746    3.5967 C   0  0  1  0  0  0  0  0  0  0  0  0
   23.3274  -32.4443    3.4212 C   0  0  0  0  0  0  0  0  0  0  0  0
   23.2665  -31.6006    4.6422 C   0  0  0  0  0  0  0  0  0  0  0  0
   24.1272  -31.7043    5.5517 O   0  0  0  0  0  0  0  0  0  0  0  0
   23.9413  -34.6535    4.3654 C   0  0  0  0  0  0  0  0  0  0  0  0
   23.7781  -34.6219    5.7337 O   0  0  0  0  0  0  0  0  0  0  0  0
   22.2232  -30.6923    4.7423 O   0  0  0  0  0  0  0  0  0  0  0  0
   23.6743  -35.7146    3.7613 O   0  0  0  0  0  0  0  0  0  0  0  0
  2  1  1  0
  3  4  1  0
  3  2  1  0
  4  5  1  0
  5  6  1  6
  7  5  1  0
  7  8  2  0
  9  7  1  0
 10  9  1  0
 10 11  1  1
 11 12  1  0
 12 13  1  0
 13 14  1  0
 14 15  1  0
 16 10  1  0
 17 16  2  0
 18 16  1  0
 19 20  1  6
 19 18  1  0
 20 21  1  0
 21 25  1  0
 21 22  2  0
 23 19  1  0
 24 23  1  0
 26 23  2  0
M  END
$$$$
