MKD.pdb
     RDKit          3D

 26 25  0  0  1  0  0  0  0  0999 V2000
   29.4674  -19.0133   -6.2531 C   0  0  0  0  0  0  0  0  0  0  0  0
   27.6999  -19.2861   -6.1334 S   0  0  0  0  0  0  0  0  0  0  0  0
   27.0828  -20.5592   -7.2187 C   0  0  0  0  0  0  0  0  0  0  0  0
   26.7303  -20.0935   -8.5813 C   0  0  0  0  0  0  0  0  0  0  0  0
   25.8278  -21.0043   -9.3480 C   0  0  2  0  0  0  0  0  0  0  0  0
   26.4547  -22.2912   -9.6228 N   0  0  0  0  0  0  0  0  0  0  0  0
   25.5420  -20.3508  -10.6448 C   0  0  0  0  0  0  0  0  0  0  0  0
   25.0542  -19.2074  -10.6685 O   0  0  0  0  0  0  0  0  0  0  0  0
   25.8222  -21.0227  -11.8499 N   0  0  0  0  0  0  0  0  0  0  0  0
   25.1857  -20.5345  -13.0756 C   0  0  1  0  0  0  0  0  0  0  0  0
   26.2040  -20.6503  -14.1608 C   0  0  0  0  0  0  0  0  0  0  0  0
   26.8998  -19.3730  -14.4582 C   0  0  0  0  0  0  0  0  0  0  0  0
   27.8916  -19.5476  -15.6043 C   0  0  0  0  0  0  0  0  0  0  0  0
   28.4714  -18.1551  -15.8694 C   0  0  0  0  0  0  0  0  0  0  0  0
   29.4401  -18.1997  -16.9484 N   0  0  0  0  0  0  0  0  0  0  0  0
   23.9830  -21.3159  -13.3788 C   0  0  0  0  0  0  0  0  0  0  0  0
   23.9500  -22.5344  -13.1048 O   0  0  0  0  0  0  0  0  0  0  0  0
   22.8605  -20.7061  -13.9775 N   0  0  0  0  0  0  0  0  0  0  0  0
   21.5302  -21.2295  -13.8176 C   0  0  1  0  0  0  0  0  0  0  0  0
   21.1710  -21.3617  -12.3546 C   0  0  0  0  0  0  0  0  0  0  0  0
   19.8192  -21.9681  -12.2481 C   0  0  0  0  0  0  0  0  0  0  0  0
   19.1530  -22.2635  -13.2716 O   0  0  0  0  0  0  0  0  0  0  0  0
   20.5624  -20.3635  -14.5414 C   0  0  0  0  0  0  0  0  0  0  0  0
   19.6900  -20.8642  -15.4838 O   0  0  0  0  0  0  0  0  0  0  0  0
   19.3178  -22.1970  -10.9754 O   0  0  0  0  0  0  0  0  0  0  0  0
   20.5295  -19.1386  -14.2953 O   0  0  0  0  0  0  0  0  0  0  0  0
  2  1  1  0
  3  4  1  0
  3  2  1  0
  4  5  1  0
  5  6  1  6
  7  5  1  0
  7  8  2  0
  9  7  1  0
 10  9  1  0
 10 11  1  6
 11 12  1  0
 12 13  1  0
 13 14  1  0
 14 15  1  0
 16 10  1  0
 17 16  2  0
 18 16  1  0
 19 20  1  1
 19 18  1  0
 20 21  1  0
 21 25  1  0
 21 22  2  0
 23 19  1  0
 24 23  1  0
 26 23  2  0
M  END
$$$$
