MKD.pdb
     RDKit          3D

 26 25  0  0  1  0  0  0  0  0999 V2000
   28.0876  -18.9821  -12.1747 C   0  0  0  0  0  0  0  0  0  0  0  0
   28.9565  -19.7390  -13.5477 S   0  0  0  0  0  0  0  0  0  0  0  0
   28.3580  -19.2431  -15.1525 C   0  0  0  0  0  0  0  0  0  0  0  0
   26.9611  -19.6451  -15.4433 C   0  0  0  0  0  0  0  0  0  0  0  0
   26.6379  -21.0729  -15.1451 C   0  0  2  0  0  0  0  0  0  0  0  0
   27.3267  -21.9891  -16.0456 N   0  0  0  0  0  0  0  0  0  0  0  0
   25.1819  -21.2455  -15.3462 C   0  0  0  0  0  0  0  0  0  0  0  0
   24.7461  -21.5877  -16.4592 O   0  0  0  0  0  0  0  0  0  0  0  0
   24.2913  -21.0224  -14.2787 N   0  0  0  0  0  0  0  0  0  0  0  0
   22.8632  -21.2486  -14.5135 C   0  0  1  0  0  0  0  0  0  0  0  0
   22.2747  -21.6572  -13.2040 C   0  0  0  0  0  0  0  0  0  0  0  0
   20.8436  -22.0424  -13.2926 C   0  0  0  0  0  0  0  0  0  0  0  0
   20.2745  -22.3436  -11.9095 C   0  0  0  0  0  0  0  0  0  0  0  0
   18.7925  -22.6618  -12.1290 C   0  0  0  0  0  0  0  0  0  0  0  0
   18.1403  -22.9625  -10.8686 N   0  0  0  0  0  0  0  0  0  0  0  0
   22.2275  -20.0352  -15.0354 C   0  0  0  0  0  0  0  0  0  0  0  0
   22.4605  -18.9325  -14.4964 O   0  0  0  0  0  0  0  0  0  0  0  0
   21.3544  -20.0990  -16.1416 N   0  0  0  0  0  0  0  0  0  0  0  0
   20.7571  -18.9216  -16.7130 C   0  0  1  0  0  0  0  0  0  0  0  0
   20.9238  -18.9032  -18.2159 C   0  0  0  0  0  0  0  0  0  0  0  0
   20.2389  -17.7014  -18.7573 C   0  0  0  0  0  0  0  0  0  0  0  0
   19.6546  -16.8860  -18.0007 O   0  0  0  0  0  0  0  0  0  0  0  0
   19.3247  -18.8479  -16.3215 C   0  0  0  0  0  0  0  0  0  0  0  0
   18.5086  -19.9587  -16.3071 O   0  0  0  0  0  0  0  0  0  0  0  0
   20.2675  -17.5115  -20.1308 O   0  0  0  0  0  0  0  0  0  0  0  0
   18.8328  -17.7471  -15.9925 O   0  0  0  0  0  0  0  0  0  0  0  0
  2  1  1  0
  3  4  1  0
  3  2  1  0
  4  5  1  0
  5  6  1  6
  7  5  1  0
  7  8  2  0
  9  7  1  0
 10  9  1  0
 10 11  1  1
 11 12  1  0
 12 13  1  0
 13 14  1  0
 14 15  1  0
 16 10  1  0
 17 16  2  0
 18 16  1  0
 19 20  1  6
 19 18  1  0
 20 21  1  0
 21 25  1  0
 21 22  2  0
 23 19  1  0
 24 23  1  0
 26 23  2  0
M  END
$$$$
