MKD.pdb
     RDKit          3D

 26 25  0  0  1  0  0  0  0  0999 V2000
   28.0564  -23.9347  -16.6500 C   0  0  0  0  0  0  0  0  0  0  0  0
   28.7162  -22.3894  -16.0258 S   0  0  0  0  0  0  0  0  0  0  0  0
   27.8323  -21.7320  -14.6236 C   0  0  0  0  0  0  0  0  0  0  0  0
   26.3717  -21.9853  -14.6386 C   0  0  0  0  0  0  0  0  0  0  0  0
   25.5179  -20.7624  -14.7243 C   0  0  2  0  0  0  0  0  0  0  0  0
   26.0083  -19.6918  -13.8652 N   0  0  0  0  0  0  0  0  0  0  0  0
   24.1646  -21.1373  -14.2571 C   0  0  0  0  0  0  0  0  0  0  0  0
   23.3898  -21.7393  -15.0208 O   0  0  0  0  0  0  0  0  0  0  0  0
   23.7548  -20.8128  -12.9498 N   0  0  0  0  0  0  0  0  0  0  0  0
   22.3983  -21.1842  -12.5401 C   0  0  1  0  0  0  0  0  0  0  0  0
   22.4345  -21.3669  -11.0591 C   0  0  0  0  0  0  0  0  0  0  0  0
   21.1807  -21.9340  -10.5019 C   0  0  0  0  0  0  0  0  0  0  0  0
   21.2463  -22.0079   -8.9794 C   0  0  0  0  0  0  0  0  0  0  0  0
   19.8773  -22.5250   -8.5279 C   0  0  0  0  0  0  0  0  0  0  0  0
   19.8186  -22.6262   -7.0820 N   0  0  0  0  0  0  0  0  0  0  0  0
   21.4388  -20.1477  -12.9325 C   0  0  0  0  0  0  0  0  0  0  0  0
   21.7893  -18.9485  -12.9374 O   0  0  0  0  0  0  0  0  0  0  0  0
   20.1221  -20.4900  -13.3054 N   0  0  0  0  0  0  0  0  0  0  0  0
   19.2590  -19.5688  -13.9951 C   0  0  1  0  0  0  0  0  0  0  0  0
   19.6736  -19.4155  -15.4414 C   0  0  0  0  0  0  0  0  0  0  0  0
   18.7167  -18.5026  -16.1179 C   0  0  0  0  0  0  0  0  0  0  0  0
   18.8756  -17.2565  -16.0956 O   0  0  0  0  0  0  0  0  0  0  0  0
   17.8479  -20.0220  -13.8767 C   0  0  0  0  0  0  0  0  0  0  0  0
   17.4479  -21.2861  -14.2537 O   0  0  0  0  0  0  0  0  0  0  0  0
   17.6395  -19.0766  -16.7763 O   0  0  0  0  0  0  0  0  0  0  0  0
   16.9866  -19.2393  -13.4214 O   0  0  0  0  0  0  0  0  0  0  0  0
  2  1  1  0
  3  4  1  0
  3  2  1  0
  4  5  1  0
  5  6  1  1
  7  5  1  0
  7  8  2  0
  9  7  1  0
 10  9  1  0
 10 11  1  1
 11 12  1  0
 12 13  1  0
 13 14  1  0
 14 15  1  0
 16 10  1  0
 17 16  2  0
 18 16  1  0
 19 20  1  6
 19 18  1  0
 20 21  1  0
 21 25  1  0
 21 22  2  0
 23 19  1  0
 24 23  1  0
 26 23  2  0
M  END
$$$$
