MKD.pdb
     RDKit          3D

 26 25  0  0  1  0  0  0  0  0999 V2000
   26.4360  -22.1880   -4.5134 C   0  0  0  0  0  0  0  0  0  0  0  0
   27.6539  -20.9333   -4.1196 S   0  0  0  0  0  0  0  0  0  0  0  0
   28.1431  -19.9294   -5.5097 C   0  0  0  0  0  0  0  0  0  0  0  0
   27.3050  -20.0987   -6.7207 C   0  0  0  0  0  0  0  0  0  0  0  0
   27.7104  -19.2658   -7.8928 C   0  0  2  0  0  0  0  0  0  0  0  0
   27.6148  -17.8392   -7.6092 N   0  0  0  0  0  0  0  0  0  0  0  0
   26.7740  -19.5744   -8.9965 C   0  0  0  0  0  0  0  0  0  0  0  0
   25.6418  -19.0609   -9.0107 O   0  0  0  0  0  0  0  0  0  0  0  0
   27.1646  -20.4483  -10.0290 N   0  0  0  0  0  0  0  0  0  0  0  0
   26.3486  -20.4872  -11.2450 C   0  0  1  0  0  0  0  0  0  0  0  0
   27.1459  -21.2219  -12.2709 C   0  0  0  0  0  0  0  0  0  0  0  0
   27.2943  -20.4799  -13.5482 C   0  0  0  0  0  0  0  0  0  0  0  0
   28.0614  -21.3093  -14.5735 C   0  0  0  0  0  0  0  0  0  0  0  0
   28.1483  -20.4402  -15.8315 C   0  0  0  0  0  0  0  0  0  0  0  0
   28.8424  -21.1433  -16.8937 N   0  0  0  0  0  0  0  0  0  0  0  0
   25.0657  -21.1471  -10.9846 C   0  0  0  0  0  0  0  0  0  0  0  0
   24.7670  -21.4833   -9.8190 O   0  0  0  0  0  0  0  0  0  0  0  0
   24.1633  -21.4068  -12.0373 N   0  0  0  0  0  0  0  0  0  0  0  0
   22.7378  -21.3424  -11.8555 C   0  0  1  0  0  0  0  0  0  0  0  0
   22.3247  -20.0099  -11.2716 C   0  0  0  0  0  0  0  0  0  0  0  0
   20.8584  -20.0268  -11.0346 C   0  0  0  0  0  0  0  0  0  0  0  0
   20.2474  -21.0985  -10.7959 O   0  0  0  0  0  0  0  0  0  0  0  0
   22.0566  -21.6057  -13.1505 C   0  0  0  0  0  0  0  0  0  0  0  0
   22.1364  -20.7324  -14.2139 O   0  0  0  0  0  0  0  0  0  0  0  0
   20.1867  -18.8145  -11.0863 O   0  0  0  0  0  0  0  0  0  0  0  0
   21.3861  -22.6510  -13.2914 O   0  0  0  0  0  0  0  0  0  0  0  0
  2  1  1  0
  3  4  1  0
  3  2  1  0
  4  5  1  0
  5  6  1  1
  7  5  1  0
  7  8  2  0
  9  7  1  0
 10  9  1  0
 10 11  1  6
 11 12  1  0
 12 13  1  0
 13 14  1  0
 14 15  1  0
 16 10  1  0
 17 16  2  0
 18 16  1  0
 19 20  1  6
 19 18  1  0
 20 21  1  0
 21 25  1  0
 21 22  2  0
 23 19  1  0
 24 23  1  0
 26 23  2  0
M  END
$$$$
