MKD.pdb
     RDKit          3D

 26 25  0  0  1  0  0  0  0  0999 V2000
   28.7711  -20.2348   -5.3116 C   0  0  0  0  0  0  0  0  0  0  0  0
   27.4405  -20.0906   -6.5038 S   0  0  0  0  0  0  0  0  0  0  0  0
   27.9885  -19.8547   -8.1841 C   0  0  0  0  0  0  0  0  0  0  0  0
   26.9046  -19.5688   -9.1542 C   0  0  0  0  0  0  0  0  0  0  0  0
   26.2497  -20.7744   -9.7454 C   0  0  2  0  0  0  0  0  0  0  0  0
   27.1980  -21.6124  -10.4688 N   0  0  0  0  0  0  0  0  0  0  0  0
   25.2363  -20.2951  -10.7116 C   0  0  0  0  0  0  0  0  0  0  0  0
   24.2580  -19.6410  -10.3104 O   0  0  0  0  0  0  0  0  0  0  0  0
   25.3797  -20.5793  -12.0830 N   0  0  0  0  0  0  0  0  0  0  0  0
   24.3436  -20.0965  -12.9992 C   0  0  1  0  0  0  0  0  0  0  0  0
   24.9530  -20.0790  -14.3617 C   0  0  0  0  0  0  0  0  0  0  0  0
   24.1208  -19.3802  -15.3733 C   0  0  0  0  0  0  0  0  0  0  0  0
   24.7206  -19.5290  -16.7682 C   0  0  0  0  0  0  0  0  0  0  0  0
   25.1495  -18.1205  -17.1897 C   0  0  0  0  0  0  0  0  0  0  0  0
   25.7880  -18.1469  -18.4921 N   0  0  0  0  0  0  0  0  0  0  0  0
   23.1635  -20.9646  -12.9472 C   0  0  0  0  0  0  0  0  0  0  0  0
   23.3054  -22.1936  -12.7730 O   0  0  0  0  0  0  0  0  0  0  0  0
   21.8675  -20.4267  -13.0918 N   0  0  0  0  0  0  0  0  0  0  0  0
   20.6867  -21.2439  -13.0062 C   0  0  1  0  0  0  0  0  0  0  0  0
   19.5259  -20.4622  -12.4333 C   0  0  0  0  0  0  0  0  0  0  0  0
   18.6306  -21.3999  -11.7083 C   0  0  0  0  0  0  0  0  0  0  0  0
   18.8496  -22.6371  -11.6992 O   0  0  0  0  0  0  0  0  0  0  0  0
   20.3635  -21.7968  -14.3479 C   0  0  0  0  0  0  0  0  0  0  0  0
   19.7063  -22.9977  -14.5092 O   0  0  0  0  0  0  0  0  0  0  0  0
   17.5419  -20.8594  -11.0403 O   0  0  0  0  0  0  0  0  0  0  0  0
   20.6938  -21.1602  -15.3714 O   0  0  0  0  0  0  0  0  0  0  0  0
  2  1  1  0
  3  4  1  0
  3  2  1  0
  4  5  1  0
  5  6  1  6
  7  5  1  0
  7  8  2  0
  9  7  1  0
 10  9  1  0
 10 11  1  6
 11 12  1  0
 12 13  1  0
 13 14  1  0
 14 15  1  0
 16 10  1  0
 17 16  2  0
 18 16  1  0
 19 20  1  6
 19 18  1  0
 20 21  1  0
 21 25  1  0
 21 22  2  0
 23 19  1  0
 24 23  1  0
 26 23  2  0
M  END
$$$$
