MKD.pdb
     RDKit          3D

 26 25  0  0  1  0  0  0  0  0999 V2000
   28.4492  -18.2703   -5.0288 C   0  0  0  0  0  0  0  0  0  0  0  0
   27.9804  -19.9350   -5.4997 S   0  0  0  0  0  0  0  0  0  0  0  0
   28.4362  -20.3780   -7.1656 C   0  0  0  0  0  0  0  0  0  0  0  0
   27.4678  -19.9551   -8.2054 C   0  0  0  0  0  0  0  0  0  0  0  0
   26.8129  -21.0711   -8.9521 C   0  0  2  0  0  0  0  0  0  0  0  0
   27.7875  -21.9598   -9.5727 N   0  0  0  0  0  0  0  0  0  0  0  0
   26.0008  -20.4625  -10.0293 C   0  0  0  0  0  0  0  0  0  0  0  0
   25.5891  -19.2953   -9.9110 O   0  0  0  0  0  0  0  0  0  0  0  0
   25.6949  -21.2040  -11.1864 N   0  0  0  0  0  0  0  0  0  0  0  0
   24.8999  -20.5545  -12.2314 C   0  0  1  0  0  0  0  0  0  0  0  0
   25.5954  -20.8215  -13.5249 C   0  0  0  0  0  0  0  0  0  0  0  0
   26.6727  -19.8466  -13.8300 C   0  0  0  0  0  0  0  0  0  0  0  0
   27.3255  -20.1595  -15.1730 C   0  0  0  0  0  0  0  0  0  0  0  0
   28.3375  -19.0360  -15.4162 C   0  0  0  0  0  0  0  0  0  0  0  0
   29.0984  -19.2840  -16.6261 N   0  0  0  0  0  0  0  0  0  0  0  0
   23.5303  -21.0769  -12.2375 C   0  0  0  0  0  0  0  0  0  0  0  0
   23.3027  -22.2246  -11.7992 O   0  0  0  0  0  0  0  0  0  0  0  0
   22.4647  -20.2968  -12.7333 N   0  0  0  0  0  0  0  0  0  0  0  0
   21.1048  -20.7660  -12.7239 C   0  0  1  0  0  0  0  0  0  0  0  0
   20.1668  -19.7009  -12.2016 C   0  0  0  0  0  0  0  0  0  0  0  0
   18.7873  -20.2513  -12.1753 C   0  0  0  0  0  0  0  0  0  0  0  0
   18.5406  -21.4157  -12.5778 O   0  0  0  0  0  0  0  0  0  0  0  0
   20.7202  -21.2104  -14.0895 C   0  0  0  0  0  0  0  0  0  0  0  0
   19.8637  -22.2688  -14.3040 O   0  0  0  0  0  0  0  0  0  0  0  0
   17.7794  -19.4319  -11.6894 O   0  0  0  0  0  0  0  0  0  0  0  0
   21.1828  -20.6116  -15.0843 O   0  0  0  0  0  0  0  0  0  0  0  0
  2  1  1  0
  3  4  1  0
  3  2  1  0
  4  5  1  0
  5  6  1  6
  7  5  1  0
  7  8  2  0
  9  7  1  0
 10  9  1  0
 10 11  1  6
 11 12  1  0
 12 13  1  0
 13 14  1  0
 14 15  1  0
 16 10  1  0
 17 16  2  0
 18 16  1  0
 19 20  1  6
 19 18  1  0
 20 21  1  0
 21 25  1  0
 21 22  2  0
 23 19  1  0
 24 23  1  0
 26 23  2  0
M  END
$$$$
