MKD.pdb
     RDKit          3D

 26 25  0  0  1  0  0  0  0  0999 V2000
   29.0555  -13.5693  -15.3345 C   0  0  0  0  0  0  0  0  0  0  0  0
   27.6533  -12.4755  -15.5586 S   0  0  0  0  0  0  0  0  0  0  0  0
   26.7231  -12.7776  -17.0496 C   0  0  0  0  0  0  0  0  0  0  0  0
   25.5402  -11.9023  -17.2290 C   0  0  0  0  0  0  0  0  0  0  0  0
   24.8013  -11.5710  -15.9736 C   0  0  2  0  0  0  0  0  0  0  0  0
   24.3288  -12.7661  -15.2856 N   0  0  0  0  0  0  0  0  0  0  0  0
   23.6183  -10.7692  -16.3581 C   0  0  0  0  0  0  0  0  0  0  0  0
   23.7614   -9.7447  -17.0478 O   0  0  0  0  0  0  0  0  0  0  0  0
   22.3326  -11.1659  -15.9435 N   0  0  0  0  0  0  0  0  0  0  0  0
   21.1944  -10.3292  -16.3311 C   0  0  1  0  0  0  0  0  0  0  0  0
   19.9887  -11.2088  -16.3033 C   0  0  0  0  0  0  0  0  0  0  0  0
   18.7320  -10.5019  -16.6569 C   0  0  0  0  0  0  0  0  0  0  0  0
   17.5363  -11.4464  -16.5804 C   0  0  0  0  0  0  0  0  0  0  0  0
   16.3305  -10.6315  -17.0576 C   0  0  0  0  0  0  0  0  0  0  0  0
   15.1072  -11.3999  -16.9248 N   0  0  0  0  0  0  0  0  0  0  0  0
   21.0542   -9.1927  -15.4159 C   0  0  0  0  0  0  0  0  0  0  0  0
   21.0923   -9.3825  -14.1816 O   0  0  0  0  0  0  0  0  0  0  0  0
   20.8766   -7.8850  -15.9143 N   0  0  0  0  0  0  0  0  0  0  0  0
   20.6544   -6.7596  -15.0462 C   0  0  1  0  0  0  0  0  0  0  0  0
   21.6486   -5.6547  -15.3246 C   0  0  0  0  0  0  0  0  0  0  0  0
   22.0130   -5.0056  -14.0392 C   0  0  0  0  0  0  0  0  0  0  0  0
   21.4442   -5.3203  -12.9639 O   0  0  0  0  0  0  0  0  0  0  0  0
   19.2536   -6.2837  -15.1937 C   0  0  0  0  0  0  0  0  0  0  0  0
   18.5358   -5.7718  -14.1342 O   0  0  0  0  0  0  0  0  0  0  0  0
   23.0059   -4.0376  -14.0687 O   0  0  0  0  0  0  0  0  0  0  0  0
   18.6978   -6.3449  -16.3114 O   0  0  0  0  0  0  0  0  0  0  0  0
  2  1  1  0
  3  4  1  0
  3  2  1  0
  4  5  1  0
  5  6  1  6
  7  5  1  0
  7  8  2  0
  9  7  1  0
 10  9  1  0
 10 11  1  1
 11 12  1  0
 12 13  1  0
 13 14  1  0
 14 15  1  0
 16 10  1  0
 17 16  2  0
 18 16  1  0
 19 20  1  6
 19 18  1  0
 20 21  1  0
 21 25  1  0
 21 22  2  0
 23 19  1  0
 24 23  1  0
 26 23  2  0
M  END
$$$$
