MKD.pdb
     RDKit          3D

 26 25  0  0  1  0  0  0  0  0999 V2000
   27.1018  -29.1200  -15.5480 C   0  0  0  0  0  0  0  0  0  0  0  0
   28.0663  -28.8352  -17.0317 S   0  0  0  0  0  0  0  0  0  0  0  0
   29.3437  -27.6049  -16.8468 C   0  0  0  0  0  0  0  0  0  0  0  0
   28.8579  -26.2651  -16.4387 C   0  0  0  0  0  0  0  0  0  0  0  0
   27.7591  -25.7059  -17.2824 C   0  0  2  0  0  0  0  0  0  0  0  0
   28.1512  -25.5847  -18.6810 N   0  0  0  0  0  0  0  0  0  0  0  0
   27.4615  -24.3483  -16.7736 C   0  0  0  0  0  0  0  0  0  0  0  0
   27.1383  -24.1894  -15.5836 O   0  0  0  0  0  0  0  0  0  0  0  0
   27.5443  -23.2384  -17.6358 N   0  0  0  0  0  0  0  0  0  0  0  0
   27.2093  -21.9188  -17.0951 C   0  0  1  0  0  0  0  0  0  0  0  0
   27.8481  -20.9138  -17.9951 C   0  0  0  0  0  0  0  0  0  0  0  0
   27.6165  -19.5094  -17.5730 C   0  0  0  0  0  0  0  0  0  0  0  0
   28.2193  -18.5326  -18.5781 C   0  0  0  0  0  0  0  0  0  0  0  0
   27.8322  -17.1354  -18.0848 C   0  0  0  0  0  0  0  0  0  0  0  0
   28.2591  -16.1212  -19.0302 N   0  0  0  0  0  0  0  0  0  0  0  0
   25.7556  -21.7404  -17.0331 C   0  0  0  0  0  0  0  0  0  0  0  0
   25.0388  -22.1651  -17.9641 O   0  0  0  0  0  0  0  0  0  0  0  0
   25.1562  -21.0937  -15.9320 N   0  0  0  0  0  0  0  0  0  0  0  0
   23.7377  -20.8661  -15.8585 C   0  0  1  0  0  0  0  0  0  0  0  0
   23.3099  -20.5595  -14.4407 C   0  0  0  0  0  0  0  0  0  0  0  0
   21.8257  -20.5338  -14.3852 C   0  0  0  0  0  0  0  0  0  0  0  0
   21.1308  -20.6539  -15.4251 O   0  0  0  0  0  0  0  0  0  0  0  0
   23.3582  -19.7728  -16.7918 C   0  0  0  0  0  0  0  0  0  0  0  0
   22.2686  -19.8677  -17.6308 O   0  0  0  0  0  0  0  0  0  0  0  0
   21.2335  -20.3721  -13.1416 O   0  0  0  0  0  0  0  0  0  0  0  0
   24.0426  -18.7276  -16.8256 O   0  0  0  0  0  0  0  0  0  0  0  0
  2  1  1  0
  3  4  1  0
  3  2  1  0
  4  5  1  0
  5  6  1  6
  7  5  1  0
  7  8  2  0
  9  7  1  0
 10  9  1  0
 10 11  1  6
 11 12  1  0
 12 13  1  0
 13 14  1  0
 14 15  1  0
 16 10  1  0
 17 16  2  0
 18 16  1  0
 19 20  1  1
 19 18  1  0
 20 21  1  0
 21 25  1  0
 21 22  2  0
 23 19  1  0
 24 23  1  0
 26 23  2  0
M  END
$$$$
