PAQ.pdb
     RDKit          3D

 22 22  0  0  1  0  0  0  0  0999 V2000
   30.6159  -10.4485  -19.0782 N   0  0  0  0  0  0  0  0  0  0  0  0
   29.3736  -11.1513  -19.4581 C   0  0  0  0  0  0  0  0  0  0  0  0
   28.7142  -11.2109  -18.0745 C   0  0  0  0  0  0  0  0  0  0  0  0
   28.8575   -9.7705  -17.6418 C   0  0  0  0  0  0  0  0  0  0  0  0
   30.1673   -9.3482  -18.2882 C   0  0  1  0  0  0  0  0  0  0  0  0
   31.0903   -8.9134  -17.2356 C   0  0  0  0  0  0  0  0  0  0  0  0
   30.7819   -7.9493  -16.4535 O   0  0  0  0  0  0  0  0  0  0  0  0
   34.4818   -9.8662  -15.7864 C   0  0  0  0  0  0  0  0  0  0  0  0
   33.2840   -8.9659  -15.9872 C   0  0  2  0  0  0  0  0  0  0  0  0
   32.3697   -9.4821  -16.9743 N   0  0  0  0  0  0  0  0  0  0  0  0
   33.7732   -7.6139  -16.3034 C   0  0  0  0  0  0  0  0  0  0  0  0
   34.1211   -7.3659  -17.4865 O   0  0  0  0  0  0  0  0  0  0  0  0
   32.0442   -2.2972  -13.6043 N   0  0  0  0  0  0  0  0  0  0  0  0
   33.3411   -2.6019  -13.0796 C   0  0  0  0  0  0  0  0  0  0  0  0
   33.7550   -2.0355  -12.0541 O   0  0  0  0  0  0  0  0  0  0  0  0
   34.1470   -3.6032  -13.8051 C   0  0  0  0  0  0  0  0  0  0  0  0
   33.5015   -4.1664  -15.0188 C   0  0  0  0  0  0  0  0  0  0  0  0
   34.2921   -5.2007  -15.7597 C   0  0  2  0  0  0  0  0  0  0  0  0
   33.8829   -6.5555  -15.3605 N   0  0  0  0  0  0  0  0  0  0  0  0
   35.7469   -5.0840  -15.5341 C   0  0  0  0  0  0  0  0  0  0  0  0
   36.3714   -4.1285  -16.0405 O   0  0  0  0  0  0  0  0  0  0  0  0
   36.4483   -6.0024  -14.7756 O   0  0  0  0  0  0  0  0  0  0  0  0
  2  1  1  0
  3  2  1  0
  4  3  1  0
  4  5  1  0
  5  1  1  0
  5  6  1  1
  6 10  1  0
  7  6  2  0
  9  8  1  6
  9 10  1  0
  9 11  1  0
 11 19  1  0
 12 11  2  0
 14 13  1  0
 14 16  1  0
 15 14  2  0
 17 16  1  0
 18 20  1  0
 18 17  1  1
 19 18  1  0
 20 22  1  0
 21 20  2  0
M  END
$$$$
