PAQ.pdb
     RDKit          3D

 22 22  0  0  1  0  0  0  0  0999 V2000
   24.6466  -15.1431  -17.4880 N   0  0  0  0  0  0  0  0  0  0  0  0
   24.5890  -16.6114  -17.6375 C   0  0  0  0  0  0  0  0  0  0  0  0
   24.0828  -16.9629  -16.2329 C   0  0  0  0  0  0  0  0  0  0  0  0
   22.9191  -16.0065  -16.1150 C   0  0  0  0  0  0  0  0  0  0  0  0
   23.3858  -14.8003  -16.9145 C   0  0  1  0  0  0  0  0  0  0  0  0
   23.3945  -13.6290  -16.0332 C   0  0  0  0  0  0  0  0  0  0  0  0
   22.3191  -13.2286  -15.4680 O   0  0  0  0  0  0  0  0  0  0  0  0
   25.8553  -11.0416  -14.6962 C   0  0  0  0  0  0  0  0  0  0  0  0
   24.4865  -11.6423  -14.9223 C   0  0  2  0  0  0  0  0  0  0  0  0
   24.5391  -12.8415  -15.7197 N   0  0  0  0  0  0  0  0  0  0  0  0
   23.6179  -10.6027  -15.4985 C   0  0  0  0  0  0  0  0  0  0  0  0
   23.5814  -10.4807  -16.7500 O   0  0  0  0  0  0  0  0  0  0  0  0
   18.1955  -10.7251  -16.3317 N   0  0  0  0  0  0  0  0  0  0  0  0
   18.2507   -9.3196  -16.5992 C   0  0  0  0  0  0  0  0  0  0  0  0
   17.2829   -8.7385  -17.1183 O   0  0  0  0  0  0  0  0  0  0  0  0
   19.4920   -8.6091  -16.2351 C   0  0  0  0  0  0  0  0  0  0  0  0
   20.5608   -9.4685  -15.6637 C   0  0  0  0  0  0  0  0  0  0  0  0
   21.8634   -8.7874  -15.3757 C   0  0  2  0  0  0  0  0  0  0  0  0
   22.8080   -9.7160  -14.7373 N   0  0  0  0  0  0  0  0  0  0  0  0
   21.7164   -7.6143  -14.4907 C   0  0  0  0  0  0  0  0  0  0  0  0
   21.6168   -6.4755  -14.9933 O   0  0  0  0  0  0  0  0  0  0  0  0
   21.6846   -7.7326  -13.1138 O   0  0  0  0  0  0  0  0  0  0  0  0
  2  1  1  0
  3  2  1  0
  4  3  1  0
  4  5  1  0
  5  1  1  0
  5  6  1  1
  6 10  1  0
  7  6  2  0
  9  8  1  6
  9 10  1  0
  9 11  1  0
 11 19  1  0
 12 11  2  0
 14 13  1  0
 14 16  1  0
 15 14  2  0
 17 16  1  0
 18 20  1  0
 18 17  1  1
 19 18  1  0
 20 22  1  0
 21 20  2  0
M  END
$$$$
