PAQ.pdb
     RDKit          3D

 22 22  0  0  1  0  0  0  0  0999 V2000
   23.5520  -18.4361  -15.2853 N   0  0  0  0  0  0  0  0  0  0  0  0
   24.3010  -17.7086  -16.3299 C   0  0  0  0  0  0  0  0  0  0  0  0
   23.8280  -18.5109  -17.5487 C   0  0  0  0  0  0  0  0  0  0  0  0
   22.3350  -18.5037  -17.3173 C   0  0  0  0  0  0  0  0  0  0  0  0
   22.2241  -18.5192  -15.8010 C   0  0  1  0  0  0  0  0  0  0  0  0
   21.4676  -19.7086  -15.3987 C   0  0  0  0  0  0  0  0  0  0  0  0
   20.2273  -19.8234  -15.6898 O   0  0  0  0  0  0  0  0  0  0  0  0
   22.0894  -23.2505  -14.3851 C   0  0  0  0  0  0  0  0  0  0  0  0
   21.2367  -22.0022  -14.3694 C   0  0  2  0  0  0  0  0  0  0  0  0
   21.9957  -20.8161  -14.6755 N   0  0  0  0  0  0  0  0  0  0  0  0
   20.5514  -21.9303  -13.0685 C   0  0  0  0  0  0  0  0  0  0  0  0
   21.1350  -21.3503  -12.1169 O   0  0  0  0  0  0  0  0  0  0  0  0
   14.4969  -21.3737  -11.8880 N   0  0  0  0  0  0  0  0  0  0  0  0
   14.9987  -21.4301  -10.5482 C   0  0  0  0  0  0  0  0  0  0  0  0
   14.2432  -21.2262   -9.5832 O   0  0  0  0  0  0  0  0  0  0  0  0
   16.4321  -21.7360  -10.3742 C   0  0  0  0  0  0  0  0  0  0  0  0
   17.1953  -21.9003  -11.6382 C   0  0  0  0  0  0  0  0  0  0  0  0
   18.6202  -22.3375  -11.4895 C   0  0  2  0  0  0  0  0  0  0  0  0
   19.2643  -22.4736  -12.8044 N   0  0  0  0  0  0  0  0  0  0  0  0
   18.7558  -23.6284  -10.7852 C   0  0  0  0  0  0  0  0  0  0  0  0
   18.9005  -24.6767  -11.4482 O   0  0  0  0  0  0  0  0  0  0  0  0
   18.7284  -23.7188   -9.4061 O   0  0  0  0  0  0  0  0  0  0  0  0
  2  1  1  0
  3  2  1  0
  4  3  1  0
  4  5  1  0
  5  1  1  0
  5  6  1  6
  6 10  1  0
  7  6  2  0
  9  8  1  1
  9 10  1  0
  9 11  1  0
 11 19  1  0
 12 11  2  0
 14 13  1  0
 14 16  1  0
 15 14  2  0
 17 16  1  0
 18 20  1  0
 18 17  1  6
 19 18  1  0
 20 22  1  0
 21 20  2  0
M  END
$$$$
