PAQ.pdb
     RDKit          3D

 22 22  0  0  1  0  0  0  0  0999 V2000
   26.6002  -19.2419  -15.3962 N   0  0  0  0  0  0  0  0  0  0  0  0
   27.6403  -18.3387  -15.9291 C   0  0  0  0  0  0  0  0  0  0  0  0
   28.4870  -18.1930  -14.6584 C   0  0  0  0  0  0  0  0  0  0  0  0
   28.6446  -19.6439  -14.2677 C   0  0  0  0  0  0  0  0  0  0  0  0
   27.3354  -20.2657  -14.7274 C   0  0  1  0  0  0  0  0  0  0  0  0
   26.6674  -20.8624  -13.5670 C   0  0  0  0  0  0  0  0  0  0  0  0
   27.2252  -21.8039  -12.9047 O   0  0  0  0  0  0  0  0  0  0  0  0
   25.6279  -20.7173  -10.6371 C   0  0  0  0  0  0  0  0  0  0  0  0
   24.8082  -21.0328  -11.8676 C   0  0  2  0  0  0  0  0  0  0  0  0
   25.3880  -20.4849  -13.0678 N   0  0  0  0  0  0  0  0  0  0  0  0
   23.4292  -20.5752  -11.6309 C   0  0  0  0  0  0  0  0  0  0  0  0
   23.2493  -19.3865  -11.2608 O   0  0  0  0  0  0  0  0  0  0  0  0
   19.5725  -19.8791  -17.1582 N   0  0  0  0  0  0  0  0  0  0  0  0
   20.3716  -20.6980  -16.2974 C   0  0  0  0  0  0  0  0  0  0  0  0
   21.2079  -21.4840  -16.7734 O   0  0  0  0  0  0  0  0  0  0  0  0
   20.1554  -20.5648  -14.8435 C   0  0  0  0  0  0  0  0  0  0  0  0
   21.2887  -21.0204  -13.9977 C   0  0  0  0  0  0  0  0  0  0  0  0
   21.0860  -20.9092  -12.5177 C   0  0  2  0  0  0  0  0  0  0  0  0
   22.2722  -21.3859  -11.7911 N   0  0  0  0  0  0  0  0  0  0  0  0
   19.9221  -21.6804  -12.0365 C   0  0  0  0  0  0  0  0  0  0  0  0
   20.0731  -22.8741  -11.7022 O   0  0  0  0  0  0  0  0  0  0  0  0
   18.6605  -21.1234  -11.9415 O   0  0  0  0  0  0  0  0  0  0  0  0
  2  1  1  0
  3  2  1  0
  4  3  1  0
  4  5  1  0
  5  1  1  0
  5  6  1  1
  6 10  1  0
  7  6  2  0
  9  8  1  1
  9 10  1  0
  9 11  1  0
 11 19  1  0
 12 11  2  0
 14 13  1  0
 14 16  1  0
 15 14  2  0
 17 16  1  0
 18 20  1  0
 18 17  1  6
 19 18  1  0
 20 22  1  0
 21 20  2  0
M  END
$$$$
