PAQ.pdb
     RDKit          3D

 22 22  0  0  1  0  0  0  0  0999 V2000
   20.2749  -14.3531  -17.0494 N   0  0  0  0  0  0  0  0  0  0  0  0
   19.9551  -15.5127  -17.9065 C   0  0  0  0  0  0  0  0  0  0  0  0
   18.9443  -14.8337  -18.8392 C   0  0  0  0  0  0  0  0  0  0  0  0
   19.7179  -13.5944  -19.2241 C   0  0  0  0  0  0  0  0  0  0  0  0
   20.5285  -13.2953  -17.9729 C   0  0  1  0  0  0  0  0  0  0  0  0
   20.1812  -11.9520  -17.4998 C   0  0  0  0  0  0  0  0  0  0  0  0
   20.5231  -10.9156  -18.1671 O   0  0  0  0  0  0  0  0  0  0  0  0
   18.0464  -10.2996  -14.8332 C   0  0  0  0  0  0  0  0  0  0  0  0
   19.1358  -10.3208  -15.8813 C   0  0  2  0  0  0  0  0  0  0  0  0
   19.4616  -11.6587  -16.3062 N   0  0  0  0  0  0  0  0  0  0  0  0
   20.2955   -9.5833  -15.3537 C   0  0  0  0  0  0  0  0  0  0  0  0
   21.3853  -10.1978  -15.2228 O   0  0  0  0  0  0  0  0  0  0  0  0
   22.9669   -7.4576  -19.0927 N   0  0  0  0  0  0  0  0  0  0  0  0
   23.6326   -6.5632  -18.1943 C   0  0  0  0  0  0  0  0  0  0  0  0
   24.5756   -5.8580  -18.5909 O   0  0  0  0  0  0  0  0  0  0  0  0
   23.1523   -6.5226  -16.7993 C   0  0  0  0  0  0  0  0  0  0  0  0
   22.0241   -7.4412  -16.4985 C   0  0  0  0  0  0  0  0  0  0  0  0
   21.4608   -7.3533  -15.1134 C   0  0  2  0  0  0  0  0  0  0  0  0
   20.2754   -8.2126  -14.9765 N   0  0  0  0  0  0  0  0  0  0  0  0
   21.0683   -5.9801  -14.7376 C   0  0  0  0  0  0  0  0  0  0  0  0
   19.9863   -5.5159  -15.1538 O   0  0  0  0  0  0  0  0  0  0  0  0
   21.8624   -5.1833  -13.9343 O   0  0  0  0  0  0  0  0  0  0  0  0
  2  1  1  0
  3  2  1  0
  4  3  1  0
  4  5  1  0
  5  1  1  0
  5  6  1  1
  6 10  1  0
  7  6  2  0
  9  8  1  1
  9 10  1  0
  9 11  1  0
 11 19  1  0
 12 11  2  0
 14 13  1  0
 14 16  1  0
 15 14  2  0
 17 16  1  0
 18 20  1  0
 18 17  1  6
 19 18  1  0
 20 22  1  0
 21 20  2  0
M  END
$$$$
