PAQ.pdb
     RDKit          3D

 22 22  0  0  1  0  0  0  0  0999 V2000
   23.8216  -22.1915  -15.1122 N   0  0  0  0  0  0  0  0  0  0  0  0
   24.4924  -23.3526  -14.4931 C   0  0  0  0  0  0  0  0  0  0  0  0
   25.1625  -22.6283  -13.3188 C   0  0  0  0  0  0  0  0  0  0  0  0
   23.9888  -21.8489  -12.7735 C   0  0  0  0  0  0  0  0  0  0  0  0
   23.1763  -21.5376  -14.0204 C   0  0  1  0  0  0  0  0  0  0  0  0
   23.0499  -20.0825  -14.1460 C   0  0  0  0  0  0  0  0  0  0  0  0
   22.4149  -19.4037  -13.2673 O   0  0  0  0  0  0  0  0  0  0  0  0
   24.5747  -17.2059  -16.0282 C   0  0  0  0  0  0  0  0  0  0  0  0
   23.4295  -17.8670  -15.2953 C   0  0  2  0  0  0  0  0  0  0  0  0
   23.5896  -19.2963  -15.2038 N   0  0  0  0  0  0  0  0  0  0  0  0
   22.1730  -17.4669  -15.9496 C   0  0  0  0  0  0  0  0  0  0  0  0
   21.8855  -16.2430  -15.9933 O   0  0  0  0  0  0  0  0  0  0  0  0
   18.3743  -20.9516  -19.6856 N   0  0  0  0  0  0  0  0  0  0  0  0
   17.5762  -19.7751  -19.5155 C   0  0  0  0  0  0  0  0  0  0  0  0
   16.4358  -19.7110  -20.0047 O   0  0  0  0  0  0  0  0  0  0  0  0
   18.1653  -18.6625  -18.7452 C   0  0  0  0  0  0  0  0  0  0  0  0
   19.4804  -18.9601  -18.1213 C   0  0  0  0  0  0  0  0  0  0  0  0
   20.0275  -17.9022  -17.2130 C   0  0  2  0  0  0  0  0  0  0  0  0
   21.2497  -18.3708  -16.5428 N   0  0  0  0  0  0  0  0  0  0  0  0
   19.0698  -17.4894  -16.1674 C   0  0  0  0  0  0  0  0  0  0  0  0
   19.0389  -18.1101  -15.0843 O   0  0  0  0  0  0  0  0  0  0  0  0
   18.1989  -16.4309  -16.3461 O   0  0  0  0  0  0  0  0  0  0  0  0
  2  1  1  0
  3  2  1  0
  4  3  1  0
  4  5  1  0
  5  1  1  0
  5  6  1  6
  6 10  1  0
  7  6  2  0
  9  8  1  6
  9 10  1  0
  9 11  1  0
 11 19  1  0
 12 11  2  0
 14 13  1  0
 14 16  1  0
 15 14  2  0
 17 16  1  0
 18 20  1  0
 18 17  1  1
 19 18  1  0
 20 22  1  0
 21 20  2  0
M  END
$$$$
