PAQ.pdb
     RDKit          3D

 22 22  0  0  1  0  0  0  0  0999 V2000
   35.0058  -24.5229    5.7575 N   0  0  0  0  0  0  0  0  0  0  0  0
   36.1146  -25.3880    5.3062 C   0  0  0  0  0  0  0  0  0  0  0  0
   36.8069  -25.5943    6.6593 C   0  0  0  0  0  0  0  0  0  0  0  0
   35.6247  -25.9890    7.5132 C   0  0  0  0  0  0  0  0  0  0  0  0
   34.4811  -25.1955    6.9013 C   0  0  1  0  0  0  0  0  0  0  0  0
   33.9094  -24.3258    7.9337 C   0  0  0  0  0  0  0  0  0  0  0  0
   33.2597  -24.8204    8.9183 O   0  0  0  0  0  0  0  0  0  0  0  0
   33.7960  -20.6269    8.8471 C   0  0  0  0  0  0  0  0  0  0  0  0
   33.4472  -22.0890    9.0092 C   0  0  2  0  0  0  0  0  0  0  0  0
   34.0047  -22.9050    7.9603 N   0  0  0  0  0  0  0  0  0  0  0  0
   31.9834  -22.2034    9.1143 C   0  0  0  0  0  0  0  0  0  0  0  0
   31.3455  -22.6423    8.1229 O   0  0  0  0  0  0  0  0  0  0  0  0
   26.8495  -24.1517   11.0999 N   0  0  0  0  0  0  0  0  0  0  0  0
   27.3170  -24.5453    9.8050 C   0  0  0  0  0  0  0  0  0  0  0  0
   26.5703  -25.1608    9.0257 O   0  0  0  0  0  0  0  0  0  0  0  0
   28.7049  -24.1908    9.4494 C   0  0  0  0  0  0  0  0  0  0  0  0
   29.4823  -23.5389   10.5347 C   0  0  0  0  0  0  0  0  0  0  0  0
   29.7780  -22.0830   10.3434 C   0  0  2  0  0  0  0  0  0  0  0  0
   31.2279  -21.8506   10.2660 N   0  0  0  0  0  0  0  0  0  0  0  0
   29.2434  -21.2392   11.4311 C   0  0  0  0  0  0  0  0  0  0  0  0
   30.0149  -20.8239   12.3209 O   0  0  0  0  0  0  0  0  0  0  0  0
   27.9079  -20.8890   11.5000 O   0  0  0  0  0  0  0  0  0  0  0  0
  2  1  1  0
  3  2  1  0
  4  3  1  0
  4  5  1  0
  5  1  1  0
  5  6  1  1
  6 10  1  0
  7  6  2  0
  9  8  1  6
  9 10  1  0
  9 11  1  0
 11 19  1  0
 12 11  2  0
 14 13  1  0
 14 16  1  0
 15 14  2  0
 17 16  1  0
 18 20  1  0
 18 17  1  1
 19 18  1  0
 20 22  1  0
 21 20  2  0
M  END
$$$$
