PAQ.pdb
     RDKit          3D

 22 22  0  0  1  0  0  0  0  0999 V2000
   24.6520  -15.9028  -15.1727 N   0  0  0  0  0  0  0  0  0  0  0  0
   24.7074  -14.4319  -15.0513 C   0  0  0  0  0  0  0  0  0  0  0  0
   26.0043  -14.1882  -15.8332 C   0  0  0  0  0  0  0  0  0  0  0  0
   25.7273  -14.9959  -17.0796 C   0  0  0  0  0  0  0  0  0  0  0  0
   24.8824  -16.1480  -16.5594 C   0  0  1  0  0  0  0  0  0  0  0  0
   25.5657  -17.4073  -16.8693 C   0  0  0  0  0  0  0  0  0  0  0  0
   25.8096  -17.7374  -18.0808 O   0  0  0  0  0  0  0  0  0  0  0  0
   28.4230  -18.1641  -16.3321 C   0  0  0  0  0  0  0  0  0  0  0  0
   27.2588  -19.0774  -16.0220 C   0  0  2  0  0  0  0  0  0  0  0  0
   26.0141  -18.3599  -15.9101 N   0  0  0  0  0  0  0  0  0  0  0  0
   27.5907  -19.8510  -14.8144 C   0  0  0  0  0  0  0  0  0  0  0  0
   28.4538  -20.7615  -14.9065 O   0  0  0  0  0  0  0  0  0  0  0  0
   25.3831  -19.4053   -8.8340 N   0  0  0  0  0  0  0  0  0  0  0  0
   25.3801  -20.8242   -9.0256 C   0  0  0  0  0  0  0  0  0  0  0  0
   25.0545  -21.5846   -8.0985 O   0  0  0  0  0  0  0  0  0  0  0  0
   25.7766  -21.3291  -10.3546 C   0  0  0  0  0  0  0  0  0  0  0  0
   26.2548  -20.2895  -11.3022 C   0  0  0  0  0  0  0  0  0  0  0  0
   26.5874  -20.7664  -12.6826 C   0  0  2  0  0  0  0  0  0  0  0  0
   27.0017  -19.6436  -13.5370 N   0  0  0  0  0  0  0  0  0  0  0  0
   25.4554  -21.4442  -13.3460 C   0  0  0  0  0  0  0  0  0  0  0  0
   24.5150  -20.7619  -13.8037 O   0  0  0  0  0  0  0  0  0  0  0  0
   25.3990  -22.8188  -13.4799 O   0  0  0  0  0  0  0  0  0  0  0  0
  2  1  1  0
  3  2  1  0
  4  3  1  0
  4  5  1  0
  5  1  1  0
  5  6  1  1
  6 10  1  0
  7  6  2  0
  9  8  1  1
  9 10  1  0
  9 11  1  0
 11 19  1  0
 12 11  2  0
 14 13  1  0
 14 16  1  0
 15 14  2  0
 17 16  1  0
 18 20  1  0
 18 17  1  1
 19 18  1  0
 20 22  1  0
 21 20  2  0
M  END
$$$$
