PAQ.pdb
     RDKit          3D

 22 22  0  0  1  0  0  0  0  0999 V2000
   36.1333  -31.8373    2.7136 N   0  0  0  0  0  0  0  0  0  0  0  0
   36.9844  -31.0192    3.6012 C   0  0  0  0  0  0  0  0  0  0  0  0
   38.3200  -31.2062    2.8705 C   0  0  0  0  0  0  0  0  0  0  0  0
   37.9023  -30.8902    1.4534 C   0  0  0  0  0  0  0  0  0  0  0  0
   36.4679  -31.3915    1.4001 C   0  0  1  0  0  0  0  0  0  0  0  0
   36.3652  -32.4064    0.3474 C   0  0  0  0  0  0  0  0  0  0  0  0
   36.6663  -32.1246   -0.8634 O   0  0  0  0  0  0  0  0  0  0  0  0
   34.6849  -34.5554   -1.4103 C   0  0  0  0  0  0  0  0  0  0  0  0
   35.8936  -34.7303   -0.5192 C   0  0  2  0  0  0  0  0  0  0  0  0
   35.9408  -33.7525    0.5384 N   0  0  0  0  0  0  0  0  0  0  0  0
   37.0959  -34.7215   -1.3686 C   0  0  0  0  0  0  0  0  0  0  0  0
   37.2127  -33.8118   -2.2295 O   0  0  0  0  0  0  0  0  0  0  0  0
   40.6761  -31.7820    0.5160 N   0  0  0  0  0  0  0  0  0  0  0  0
   41.6902  -32.3813   -0.2980 C   0  0  0  0  0  0  0  0  0  0  0  0
   42.8166  -31.8640   -0.3839 O   0  0  0  0  0  0  0  0  0  0  0  0
   41.3368  -33.6207   -1.0173 C   0  0  0  0  0  0  0  0  0  0  0  0
   39.9442  -34.0926   -0.8047 C   0  0  0  0  0  0  0  0  0  0  0  0
   39.5442  -35.3158   -1.5710 C   0  0  2  0  0  0  0  0  0  0  0  0
   38.1469  -35.6756   -1.2876 N   0  0  0  0  0  0  0  0  0  0  0  0
   40.3842  -36.4900   -1.2604 C   0  0  0  0  0  0  0  0  0  0  0  0
   39.8831  -37.4592   -0.6530 O   0  0  0  0  0  0  0  0  0  0  0  0
   41.7170  -36.5556   -1.6214 O   0  0  0  0  0  0  0  0  0  0  0  0
  2  1  1  0
  3  2  1  0
  4  3  1  0
  4  5  1  0
  5  1  1  0
  5  6  1  6
  6 10  1  0
  7  6  2  0
  9  8  1  6
  9 10  1  0
  9 11  1  0
 11 19  1  0
 12 11  2  0
 14 13  1  0
 14 16  1  0
 15 14  2  0
 17 16  1  0
 18 20  1  0
 18 17  1  1
 19 18  1  0
 20 22  1  0
 21 20  2  0
M  END
$$$$
