PAQ.pdb
     RDKit          3D

 22 22  0  0  1  0  0  0  0  0999 V2000
   26.1339  -13.0454  -19.6492 N   0  0  0  0  0  0  0  0  0  0  0  0
   26.6778  -14.3154  -20.1713 C   0  0  0  0  0  0  0  0  0  0  0  0
   26.6669  -15.1208  -18.8660 C   0  0  0  0  0  0  0  0  0  0  0  0
   25.2578  -14.8526  -18.3917 C   0  0  0  0  0  0  0  0  0  0  0  0
   24.9929  -13.4402  -18.8886 C   0  0  1  0  0  0  0  0  0  0  0  0
   24.6812  -12.5891  -17.7365 C   0  0  0  0  0  0  0  0  0  0  0  0
   23.4765  -12.4609  -17.3259 O   0  0  0  0  0  0  0  0  0  0  0  0
   26.4926  -10.4388  -15.1634 C   0  0  0  0  0  0  0  0  0  0  0  0
   25.2782  -11.0060  -15.8628 C   0  0  2  0  0  0  0  0  0  0  0  0
   25.6312  -11.8449  -16.9801 N   0  0  0  0  0  0  0  0  0  0  0  0
   24.3981   -9.8864  -16.2358 C   0  0  0  0  0  0  0  0  0  0  0  0
   24.6427   -9.2633  -17.3008 O   0  0  0  0  0  0  0  0  0  0  0  0
   17.7149   -8.0566  -17.9043 N   0  0  0  0  0  0  0  0  0  0  0  0
   18.7926   -8.8862  -17.4567 C   0  0  0  0  0  0  0  0  0  0  0  0
   18.6918  -10.1241  -17.4924 O   0  0  0  0  0  0  0  0  0  0  0  0
   20.0064   -8.2098  -16.9591 C   0  0  0  0  0  0  0  0  0  0  0  0
   21.0838   -9.1201  -16.4924 C   0  0  0  0  0  0  0  0  0  0  0  0
   22.3288   -8.4560  -15.9898 C   0  0  2  0  0  0  0  0  0  0  0  0
   23.2795   -9.4519  -15.4734 N   0  0  0  0  0  0  0  0  0  0  0  0
   22.0664   -7.4815  -14.9118 C   0  0  0  0  0  0  0  0  0  0  0  0
   22.2650   -7.8123  -13.7241 O   0  0  0  0  0  0  0  0  0  0  0  0
   21.6052   -6.2047  -15.1724 O   0  0  0  0  0  0  0  0  0  0  0  0
  2  1  1  0
  3  2  1  0
  4  3  1  0
  4  5  1  0
  5  1  1  0
  5  6  1  1
  6 10  1  0
  7  6  2  0
  9  8  1  6
  9 10  1  0
  9 11  1  0
 11 19  1  0
 12 11  2  0
 14 13  1  0
 14 16  1  0
 15 14  2  0
 17 16  1  0
 18 20  1  0
 18 17  1  1
 19 18  1  0
 20 22  1  0
 21 20  2  0
M  END
$$$$
