PAQ.pdb
     RDKit          3D

 22 22  0  0  1  0  0  0  0  0999 V2000
   21.9505  -11.8732  -18.2239 N   0  0  0  0  0  0  0  0  0  0  0  0
   22.7449  -12.5029  -19.2981 C   0  0  0  0  0  0  0  0  0  0  0  0
   22.0195  -11.8929  -20.5042 C   0  0  0  0  0  0  0  0  0  0  0  0
   22.0071  -10.4355  -20.1065 C   0  0  0  0  0  0  0  0  0  0  0  0
   21.8957  -10.4955  -18.5913 C   0  0  1  0  0  0  0  0  0  0  0  0
   20.6808   -9.7845  -18.1824 C   0  0  0  0  0  0  0  0  0  0  0  0
   20.5770   -8.5202  -18.3471 O   0  0  0  0  0  0  0  0  0  0  0  0
   17.1296  -10.5452  -17.1320 C   0  0  0  0  0  0  0  0  0  0  0  0
   18.3457   -9.6527  -17.2320 C   0  0  2  0  0  0  0  0  0  0  0  0
   19.5354  -10.3849  -17.5858 N   0  0  0  0  0  0  0  0  0  0  0  0
   18.4775   -8.9122  -15.9666 C   0  0  0  0  0  0  0  0  0  0  0  0
   19.0982   -9.4567  -15.0175 O   0  0  0  0  0  0  0  0  0  0  0  0
   22.3262   -3.9064  -14.4226 N   0  0  0  0  0  0  0  0  0  0  0  0
   21.9604   -5.2497  -14.0882 C   0  0  0  0  0  0  0  0  0  0  0  0
   22.8284   -6.1332  -13.9897 O   0  0  0  0  0  0  0  0  0  0  0  0
   20.5271   -5.5273  -13.8714 C   0  0  0  0  0  0  0  0  0  0  0  0
   19.9167   -6.4667  -14.8472 C   0  0  0  0  0  0  0  0  0  0  0  0
   18.4582   -6.7502  -14.6573 C   0  0  2  0  0  0  0  0  0  0  0  0
   17.9496   -7.6126  -15.7343 N   0  0  0  0  0  0  0  0  0  0  0  0
   17.6323   -5.5262  -14.6317 C   0  0  0  0  0  0  0  0  0  0  0  0
   17.5871   -4.8385  -13.5903 O   0  0  0  0  0  0  0  0  0  0  0  0
   16.9012   -5.1105  -15.7287 O   0  0  0  0  0  0  0  0  0  0  0  0
  2  1  1  0
  3  2  1  0
  4  3  1  0
  4  5  1  0
  5  1  1  0
  5  6  1  6
  6 10  1  0
  7  6  2  0
  9  8  1  1
  9 10  1  0
  9 11  1  0
 11 19  1  0
 12 11  2  0
 14 13  1  0
 14 16  1  0
 15 14  2  0
 17 16  1  0
 18 20  1  0
 18 17  1  6
 19 18  1  0
 20 22  1  0
 21 20  2  0
M  END
$$$$
