PAQ.pdb
     RDKit          3D

 22 22  0  0  1  0  0  0  0  0999 V2000
   16.3654  -13.1378  -16.4302 N   0  0  0  0  0  0  0  0  0  0  0  0
   16.3418  -14.5911  -16.6926 C   0  0  0  0  0  0  0  0  0  0  0  0
   17.4432  -15.0166  -15.7134 C   0  0  0  0  0  0  0  0  0  0  0  0
   16.9867  -14.3028  -14.4626 C   0  0  0  0  0  0  0  0  0  0  0  0
   16.3397  -13.0391  -15.0070 C   0  0  1  0  0  0  0  0  0  0  0  0
   17.0354  -11.8774  -14.4455 C   0  0  0  0  0  0  0  0  0  0  0  0
   16.9703  -11.6187  -13.1944 O   0  0  0  0  0  0  0  0  0  0  0  0
   19.5089   -9.2016  -15.5305 C   0  0  0  0  0  0  0  0  0  0  0  0
   18.5061   -9.8306  -14.5900 C   0  0  2  0  0  0  0  0  0  0  0  0
   17.8227  -10.9503  -15.1865 N   0  0  0  0  0  0  0  0  0  0  0  0
   17.5906   -8.7767  -14.1227 C   0  0  0  0  0  0  0  0  0  0  0  0
   16.4801   -8.6507  -14.7002 O   0  0  0  0  0  0  0  0  0  0  0  0
   15.8583   -7.7048   -8.5053 N   0  0  0  0  0  0  0  0  0  0  0  0
   15.2602   -6.5411   -9.0868 C   0  0  0  0  0  0  0  0  0  0  0  0
   14.4923   -5.8272   -8.4200 O   0  0  0  0  0  0  0  0  0  0  0  0
   15.5944   -6.2382  -10.4921 C   0  0  0  0  0  0  0  0  0  0  0  0
   16.4898   -7.2249  -11.1494 C   0  0  0  0  0  0  0  0  0  0  0  0
   16.8705   -6.9204  -12.5657 C   0  0  2  0  0  0  0  0  0  0  0  0
   17.8710   -7.8805  -13.0552 N   0  0  0  0  0  0  0  0  0  0  0  0
   17.4281   -5.5632  -12.7330 C   0  0  0  0  0  0  0  0  0  0  0  0
   18.6648   -5.4150  -12.8227 O   0  0  0  0  0  0  0  0  0  0  0  0
   16.6231   -4.4411  -12.7948 O   0  0  0  0  0  0  0  0  0  0  0  0
  2  1  1  0
  3  2  1  0
  4  3  1  0
  4  5  1  0
  5  1  1  0
  5  6  1  6
  6 10  1  0
  7  6  2  0
  9  8  1  6
  9 10  1  0
  9 11  1  0
 11 19  1  0
 12 11  2  0
 14 13  1  0
 14 16  1  0
 15 14  2  0
 17 16  1  0
 18 20  1  0
 18 17  1  1
 19 18  1  0
 20 22  1  0
 21 20  2  0
M  END
$$$$
