PAQ.pdb
     RDKit          3D

 22 22  0  0  1  0  0  0  0  0999 V2000
   29.5988  -22.0703  -12.0686 N   0  0  0  0  0  0  0  0  0  0  0  0
   30.7286  -22.1408  -11.1198 C   0  0  0  0  0  0  0  0  0  0  0  0
   30.6961  -20.6910  -10.6199 C   0  0  0  0  0  0  0  0  0  0  0  0
   29.2286  -20.5491  -10.2898 C   0  0  0  0  0  0  0  0  0  0  0  0
   28.5579  -21.4369  -11.3261 C   0  0  1  0  0  0  0  0  0  0  0  0
   27.6322  -20.6188  -12.1151 C   0  0  0  0  0  0  0  0  0  0  0  0
   26.6767  -19.9838  -11.5495 O   0  0  0  0  0  0  0  0  0  0  0  0
   27.2012  -19.3865  -15.6880 C   0  0  0  0  0  0  0  0  0  0  0  0
   26.7531  -19.6283  -14.2645 C   0  0  2  0  0  0  0  0  0  0  0  0
   27.6848  -20.4443  -13.5277 N   0  0  0  0  0  0  0  0  0  0  0  0
   25.3936  -20.1918  -14.3001 C   0  0  0  0  0  0  0  0  0  0  0  0
   25.2663  -21.4390  -14.4040 O   0  0  0  0  0  0  0  0  0  0  0  0
   19.8510  -21.7156  -11.2083 N   0  0  0  0  0  0  0  0  0  0  0  0
   20.2521  -20.4334  -11.7036 C   0  0  0  0  0  0  0  0  0  0  0  0
   19.4079  -19.5456  -11.9105 O   0  0  0  0  0  0  0  0  0  0  0  0
   21.6917  -20.2234  -11.9523 C   0  0  0  0  0  0  0  0  0  0  0  0
   22.0069  -19.4006  -13.1485 C   0  0  0  0  0  0  0  0  0  0  0  0
   22.8726  -20.0538  -14.1817 C   0  0  2  0  0  0  0  0  0  0  0  0
   24.2001  -19.4228  -14.2251 N   0  0  0  0  0  0  0  0  0  0  0  0
   22.2972  -19.9877  -15.5402 C   0  0  0  0  0  0  0  0  0  0  0  0
   21.3780  -20.7718  -15.8558 O   0  0  0  0  0  0  0  0  0  0  0  0
   22.7433  -19.0808  -16.4833 O   0  0  0  0  0  0  0  0  0  0  0  0
  2  1  1  0
  3  2  1  0
  4  3  1  0
  4  5  1  0
  5  1  1  0
  5  6  1  6
  6 10  1  0
  7  6  2  0
  9  8  1  6
  9 10  1  0
  9 11  1  0
 11 19  1  0
 12 11  2  0
 14 13  1  0
 14 16  1  0
 15 14  2  0
 17 16  1  0
 18 20  1  0
 18 17  1  1
 19 18  1  0
 20 22  1  0
 21 20  2  0
M  END
$$$$
