PAQ.pdb
     RDKit          3D

 22 22  0  0  1  0  0  0  0  0999 V2000
   26.2779  -19.5394  -16.1748 N   0  0  0  0  0  0  0  0  0  0  0  0
   27.5589  -18.8912  -16.5216 C   0  0  0  0  0  0  0  0  0  0  0  0
   27.2640  -17.4929  -15.9643 C   0  0  0  0  0  0  0  0  0  0  0  0
   26.7603  -17.8495  -14.5853 C   0  0  0  0  0  0  0  0  0  0  0  0
   26.0636  -19.1822  -14.8100 C   0  0  1  0  0  0  0  0  0  0  0  0
   24.6600  -19.0505  -14.4084 C   0  0  0  0  0  0  0  0  0  0  0  0
   24.3502  -18.7594  -13.2020 O   0  0  0  0  0  0  0  0  0  0  0  0
   21.2653  -18.5153  -15.8668 C   0  0  0  0  0  0  0  0  0  0  0  0
   22.1704  -19.1251  -14.8206 C   0  0  2  0  0  0  0  0  0  0  0  0
   23.5370  -19.2223  -15.2674 N   0  0  0  0  0  0  0  0  0  0  0  0
   21.6000  -20.4214  -14.4187 C   0  0  0  0  0  0  0  0  0  0  0  0
   21.9888  -21.4569  -15.0179 O   0  0  0  0  0  0  0  0  0  0  0  0
   20.2252  -22.2122   -8.7163 N   0  0  0  0  0  0  0  0  0  0  0  0
   19.7895  -23.3827   -9.4164 C   0  0  0  0  0  0  0  0  0  0  0  0
   19.4300  -24.3941   -8.7905 O   0  0  0  0  0  0  0  0  0  0  0  0
   19.7897  -23.3291  -10.8913 C   0  0  0  0  0  0  0  0  0  0  0  0
   20.3308  -22.0733  -11.4722 C   0  0  0  0  0  0  0  0  0  0  0  0
   20.1905  -21.9257  -12.9561 C   0  0  2  0  0  0  0  0  0  0  0  0
   20.6314  -20.5923  -13.3920 N   0  0  0  0  0  0  0  0  0  0  0  0
   18.8034  -22.1178  -13.4252 C   0  0  0  0  0  0  0  0  0  0  0  0
   18.3768  -23.2750  -13.6205 O   0  0  0  0  0  0  0  0  0  0  0  0
   17.9528  -21.0532  -13.6576 O   0  0  0  0  0  0  0  0  0  0  0  0
  2  1  1  0
  3  2  1  0
  4  3  1  0
  4  5  1  0
  5  1  1  0
  5  6  1  6
  6 10  1  0
  7  6  2  0
  9  8  1  6
  9 10  1  0
  9 11  1  0
 11 19  1  0
 12 11  2  0
 14 13  1  0
 14 16  1  0
 15 14  2  0
 17 16  1  0
 18 20  1  0
 18 17  1  1
 19 18  1  0
 20 22  1  0
 21 20  2  0
M  END
$$$$
