PAQ.pdb
     RDKit          3D

 22 22  0  0  1  0  0  0  0  0999 V2000
   19.0457  -13.2915  -16.1743 N   0  0  0  0  0  0  0  0  0  0  0  0
   19.5005  -14.5917  -16.7073 C   0  0  0  0  0  0  0  0  0  0  0  0
   19.7336  -14.1710  -18.1638 C   0  0  0  0  0  0  0  0  0  0  0  0
   20.5611  -12.9238  -17.9585 C   0  0  0  0  0  0  0  0  0  0  0  0
   20.0103  -12.3584  -16.6590 C   0  0  1  0  0  0  0  0  0  0  0  0
   19.5034  -11.0067  -16.9139 C   0  0  0  0  0  0  0  0  0  0  0  0
   20.3051  -10.0509  -17.1968 O   0  0  0  0  0  0  0  0  0  0  0  0
   16.1802   -9.2270  -17.3936 C   0  0  0  0  0  0  0  0  0  0  0  0
   17.6747   -9.2857  -17.1735 C   0  0  2  0  0  0  0  0  0  0  0  0
   18.1333  -10.6196  -16.8782 N   0  0  0  0  0  0  0  0  0  0  0  0
   18.0240   -8.3097  -16.1283 C   0  0  0  0  0  0  0  0  0  0  0  0
   18.5465   -8.7336  -15.0654 O   0  0  0  0  0  0  0  0  0  0  0  0
   22.6255   -6.3916  -15.0724 N   0  0  0  0  0  0  0  0  0  0  0  0
   22.0666   -5.3310  -14.2897 C   0  0  0  0  0  0  0  0  0  0  0  0
   22.8008   -4.5978  -13.6063 O   0  0  0  0  0  0  0  0  0  0  0  0
   20.6017   -5.1562  -14.3336 C   0  0  0  0  0  0  0  0  0  0  0  0
   19.8776   -6.1477  -15.1701 C   0  0  0  0  0  0  0  0  0  0  0  0
   18.3944   -5.9623  -15.2672 C   0  0  2  0  0  0  0  0  0  0  0  0
   17.8123   -6.9075  -16.2316 N   0  0  0  0  0  0  0  0  0  0  0  0
   18.0107   -4.5987  -15.6844 C   0  0  0  0  0  0  0  0  0  0  0  0
   17.8886   -3.7047  -14.8211 O   0  0  0  0  0  0  0  0  0  0  0  0
   17.7802   -4.2733  -17.0079 O   0  0  0  0  0  0  0  0  0  0  0  0
  2  1  1  0
  3  2  1  0
  4  3  1  0
  4  5  1  0
  5  1  1  0
  5  6  1  6
  6 10  1  0
  7  6  2  0
  9  8  1  1
  9 10  1  0
  9 11  1  0
 11 19  1  0
 12 11  2  0
 14 13  1  0
 14 16  1  0
 15 14  2  0
 17 16  1  0
 18 20  1  0
 18 17  1  6
 19 18  1  0
 20 22  1  0
 21 20  2  0
M  END
$$$$
