PAQ.pdb
     RDKit          3D

 22 22  0  0  1  0  0  0  0  0999 V2000
   29.0606  -21.1967  -17.3205 N   0  0  0  0  0  0  0  0  0  0  0  0
   29.7467  -22.4372  -17.7350 C   0  0  0  0  0  0  0  0  0  0  0  0
   28.8874  -23.4425  -16.9581 C   0  0  0  0  0  0  0  0  0  0  0  0
   27.5040  -22.9830  -17.3551 C   0  0  0  0  0  0  0  0  0  0  0  0
   27.6761  -21.4809  -17.5164 C   0  0  1  0  0  0  0  0  0  0  0  0
   26.7594  -20.8027  -16.5952 C   0  0  0  0  0  0  0  0  0  0  0  0
   27.0531  -20.6760  -15.3567 O   0  0  0  0  0  0  0  0  0  0  0  0
   23.6019  -18.7058  -16.6934 C   0  0  0  0  0  0  0  0  0  0  0  0
   24.6296  -19.5797  -16.0109 C   0  0  2  0  0  0  0  0  0  0  0  0
   25.5021  -20.2362  -16.9513 N   0  0  0  0  0  0  0  0  0  0  0  0
   23.9198  -20.5194  -15.1276 C   0  0  0  0  0  0  0  0  0  0  0  0
   23.5525  -21.6247  -15.6028 O   0  0  0  0  0  0  0  0  0  0  0  0
   25.4651  -21.5555   -9.3560 N   0  0  0  0  0  0  0  0  0  0  0  0
   24.7896  -20.3120   -9.5739 C   0  0  0  0  0  0  0  0  0  0  0  0
   24.9221  -19.3736   -8.7704 O   0  0  0  0  0  0  0  0  0  0  0  0
   23.9429  -20.2031  -10.7779 C   0  0  0  0  0  0  0  0  0  0  0  0
   23.9023  -21.4215  -11.6271 C   0  0  0  0  0  0  0  0  0  0  0  0
   23.0866  -21.3189  -12.8792 C   0  0  2  0  0  0  0  0  0  0  0  0
   23.6150  -20.2682  -13.7618 N   0  0  0  0  0  0  0  0  0  0  0  0
   21.6653  -21.0152  -12.6171 C   0  0  0  0  0  0  0  0  0  0  0  0
   20.9330  -21.8933  -12.1150 O   0  0  0  0  0  0  0  0  0  0  0  0
   21.1116  -19.7829  -12.9100 O   0  0  0  0  0  0  0  0  0  0  0  0
  2  1  1  0
  3  2  1  0
  4  3  1  0
  4  5  1  0
  5  1  1  0
  5  6  1  1
  6 10  1  0
  7  6  2  0
  9  8  1  6
  9 10  1  0
  9 11  1  0
 11 19  1  0
 12 11  2  0
 14 13  1  0
 14 16  1  0
 15 14  2  0
 17 16  1  0
 18 20  1  0
 18 17  1  1
 19 18  1  0
 20 22  1  0
 21 20  2  0
M  END
$$$$
