SEL.pdb
     RDKit          3D

 24 23  0  0  1  0  0  0  0  0999 V2000
   25.3823  -24.8464  -17.1385 O   0  0  0  0  0  0  0  0  0  0  0  0
   26.0218  -23.8140  -16.4551 C   0  0  0  0  0  0  0  0  0  0  0  0
   25.8944  -22.5560  -17.2876 C   0  0  2  0  0  0  0  0  0  0  0  0
   27.1768  -21.9021  -17.3611 N   0  0  0  0  0  0  0  0  0  0  0  0
   24.9397  -21.6532  -16.5936 C   0  0  0  0  0  0  0  0  0  0  0  0
   25.4209  -20.6911  -15.9039 O   0  0  0  0  0  0  0  0  0  0  0  0
   23.5509  -21.8676  -16.7050 N   0  0  0  0  0  0  0  0  0  0  0  0
   22.5421  -21.0801  -16.0501 C   0  0  1  0  0  0  0  0  0  0  0  0
   21.2764  -20.8946  -16.8008 C   0  0  0  0  0  0  0  0  0  0  0  0
   21.4055  -19.9677  -17.9871 C   0  0  0  0  0  0  0  0  0  0  0  0
   20.0844  -19.8074  -18.6691 C   0  0  0  0  0  0  0  0  0  0  0  0
   19.5159  -18.6852  -18.6577 O   0  0  0  0  0  0  0  0  0  0  0  0
   22.3428  -21.4544  -14.6090 C   0  0  0  0  0  0  0  0  0  0  0  0
   21.8613  -22.5646  -14.2931 O   0  0  0  0  0  0  0  0  0  0  0  0
   19.4882  -20.8811  -19.3080 O   0  0  0  0  0  0  0  0  0  0  0  0
   25.0190  -22.3580  -11.3988 C   0  0  0  0  0  0  0  0  0  0  0  0
   24.8897  -20.8716  -11.5423 C   0  0  2  0  0  0  0  0  0  0  0  0
   25.9287  -20.0946  -10.7992 C   0  0  0  0  0  0  0  0  0  0  0  0
   23.5150  -20.3571  -11.3698 C   0  0  0  0  0  0  0  0  0  0  0  0
   22.4007  -20.9432  -12.1338 C   0  0  2  0  0  0  0  0  0  0  0  0
   22.6840  -20.5848  -13.5556 N   0  0  0  0  0  0  0  0  0  0  0  0
   21.0907  -20.4343  -11.7528 C   0  0  0  0  0  0  0  0  0  0  0  0
   20.6487  -20.7660  -10.6010 O   0  0  0  0  0  0  0  0  0  0  0  0
   20.2645  -19.6268  -12.4849 O   0  0  0  0  0  0  0  0  0  0  0  0
  2  3  1  0
  2  1  1  0
  3  4  1  1
  5  3  1  0
  5  6  2  0
  7  5  1  0
  8  7  1  0
  8 13  1  0
  8  9  1  6
 10  9  1  0
 10 11  1  0
 11 12  2  0
 13 21  1  0
 14 13  2  0
 15 11  1  0
 17 18  1  1
 17 16  1  0
 19 17  1  0
 20 19  1  1
 21 20  1  0
 22 24  1  0
 22 20  1  0
 23 22  2  0
M  END
$$$$
