SEL.pdb
     RDKit          3D

 24 23  0  0  1  0  0  0  0  0999 V2000
   13.2731  -10.1701  -13.8154 O   0  0  0  0  0  0  0  0  0  0  0  0
   14.5318   -9.7190  -14.2075 C   0  0  0  0  0  0  0  0  0  0  0  0
   14.8014  -10.2455  -15.6010 C   0  0  2  0  0  0  0  0  0  0  0  0
   14.9810  -11.6745  -15.5434 N   0  0  0  0  0  0  0  0  0  0  0  0
   16.0654   -9.6266  -16.0781 C   0  0  0  0  0  0  0  0  0  0  0  0
   16.9638  -10.3975  -16.5591 O   0  0  0  0  0  0  0  0  0  0  0  0
   16.2485   -8.2314  -15.9943 N   0  0  0  0  0  0  0  0  0  0  0  0
   17.4324   -7.5309  -16.4117 C   0  0  1  0  0  0  0  0  0  0  0  0
   17.2196   -6.1708  -16.9639 C   0  0  0  0  0  0  0  0  0  0  0  0
   16.3026   -6.1406  -18.1645 C   0  0  0  0  0  0  0  0  0  0  0  0
   16.1230   -4.7370  -18.6476 C   0  0  0  0  0  0  0  0  0  0  0  0
   15.4903   -3.9151  -17.9356 O   0  0  0  0  0  0  0  0  0  0  0  0
   18.5505   -7.6109  -15.4117 C   0  0  0  0  0  0  0  0  0  0  0  0
   18.3307   -7.4725  -14.1883 O   0  0  0  0  0  0  0  0  0  0  0  0
   16.6458   -4.3407  -19.8667 O   0  0  0  0  0  0  0  0  0  0  0  0
   24.0229  -10.2380  -15.2063 C   0  0  0  0  0  0  0  0  0  0  0  0
   23.0710   -9.3416  -14.4734 C   0  0  2  0  0  0  0  0  0  0  0  0
   22.8270   -9.7419  -13.0536 C   0  0  0  0  0  0  0  0  0  0  0  0
   21.8428   -9.0079  -15.2246 C   0  0  0  0  0  0  0  0  0  0  0  0
   20.9839   -7.8941  -14.7878 C   0  0  2  0  0  0  0  0  0  0  0  0
   19.8846   -7.8429  -15.7973 N   0  0  0  0  0  0  0  0  0  0  0  0
   21.6638   -6.6074  -14.7393 C   0  0  0  0  0  0  0  0  0  0  0  0
   21.6869   -5.9192  -15.8153 O   0  0  0  0  0  0  0  0  0  0  0  0
   22.2850   -6.0324  -13.6651 O   0  0  0  0  0  0  0  0  0  0  0  0
  2  3  1  0
  2  1  1  0
  3  4  1  1
  5  3  1  0
  5  6  2  0
  7  5  1  0
  8  7  1  0
  8 13  1  0
  8  9  1  1
 10  9  1  0
 10 11  1  0
 11 12  2  0
 13 21  1  0
 14 13  2  0
 15 11  1  0
 17 18  1  1
 17 16  1  0
 19 17  1  0
 20 19  1  6
 21 20  1  0
 22 24  1  0
 22 20  1  0
 23 22  2  0
M  END
$$$$
