SEL.pdb
     RDKit          3D

 24 23  0  0  1  0  0  0  0  0999 V2000
   22.4274  -14.4395  -18.2131 O   0  0  0  0  0  0  0  0  0  0  0  0
   21.9607  -13.1359  -18.3696 C   0  0  0  0  0  0  0  0  0  0  0  0
   20.7996  -12.9400  -17.4182 C   0  0  2  0  0  0  0  0  0  0  0  0
   19.7148  -13.8060  -17.8065 N   0  0  0  0  0  0  0  0  0  0  0  0
   20.3497  -11.5293  -17.5434 C   0  0  0  0  0  0  0  0  0  0  0  0
   20.9479  -10.7845  -18.3922 O   0  0  0  0  0  0  0  0  0  0  0  0
   19.2947  -11.0468  -16.7426 N   0  0  0  0  0  0  0  0  0  0  0  0
   18.6943   -9.7467  -16.8694 C   0  0  1  0  0  0  0  0  0  0  0  0
   17.2347   -9.7302  -17.1328 C   0  0  0  0  0  0  0  0  0  0  0  0
   16.6663   -8.3414  -17.3096 C   0  0  0  0  0  0  0  0  0  0  0  0
   15.1779   -8.4004  -17.4401 C   0  0  0  0  0  0  0  0  0  0  0  0
   14.4684   -8.4439  -16.4020 O   0  0  0  0  0  0  0  0  0  0  0  0
   19.1276   -8.7881  -15.7972 C   0  0  0  0  0  0  0  0  0  0  0  0
   19.0327   -9.0902  -14.5872 O   0  0  0  0  0  0  0  0  0  0  0  0
   14.5813   -8.4080  -18.6893 O   0  0  0  0  0  0  0  0  0  0  0  0
   23.4359   -4.6045  -15.4197 C   0  0  0  0  0  0  0  0  0  0  0  0
   22.2247   -5.1422  -14.7192 C   0  0  2  0  0  0  0  0  0  0  0  0
   22.4648   -5.5271  -13.2945 C   0  0  0  0  0  0  0  0  0  0  0  0
   21.4641   -6.1450  -15.4939 C   0  0  0  0  0  0  0  0  0  0  0  0
   20.1504   -6.6111  -15.0188 C   0  0  2  0  0  0  0  0  0  0  0  0
   19.6555   -7.5178  -16.0973 N   0  0  0  0  0  0  0  0  0  0  0  0
   19.1876   -5.5411  -14.7994 C   0  0  0  0  0  0  0  0  0  0  0  0
   18.5892   -5.0752  -15.8275 O   0  0  0  0  0  0  0  0  0  0  0  0
   18.8343   -4.9683  -13.6088 O   0  0  0  0  0  0  0  0  0  0  0  0
  2  3  1  0
  2  1  1  0
  3  4  1  6
  5  3  1  0
  5  6  2  0
  7  5  1  0
  8  7  1  0
  8 13  1  0
  8  9  1  1
 10  9  1  0
 10 11  1  0
 11 12  2  0
 13 21  1  0
 14 13  2  0
 15 11  1  0
 17 18  1  1
 17 16  1  0
 19 17  1  0
 20 19  1  6
 21 20  1  0
 22 24  1  0
 22 20  1  0
 23 22  2  0
M  END
$$$$
