SEL.pdb
     RDKit          3D

 24 23  0  0  1  0  0  0  0  0999 V2000
   12.6774  -13.3066  -13.2005 O   0  0  0  0  0  0  0  0  0  0  0  0
   13.4386  -12.2622  -12.6795 C   0  0  0  0  0  0  0  0  0  0  0  0
   14.8761  -12.4784  -13.1022 C   0  0  2  0  0  0  0  0  0  0  0  0
   15.3980  -13.6447  -12.4353 N   0  0  0  0  0  0  0  0  0  0  0  0
   15.6561  -11.2918  -12.6643 C   0  0  0  0  0  0  0  0  0  0  0  0
   16.0997  -11.2774  -11.4660 O   0  0  0  0  0  0  0  0  0  0  0  0
   15.8887  -10.2260  -13.5572 N   0  0  0  0  0  0  0  0  0  0  0  0
   16.6957   -9.0720  -13.2679 C   0  0  1  0  0  0  0  0  0  0  0  0
   17.5957   -8.6213  -14.3573 C   0  0  0  0  0  0  0  0  0  0  0  0
   18.4224   -7.4086  -13.9979 C   0  0  0  0  0  0  0  0  0  0  0  0
   19.3499   -7.0601  -15.1178 C   0  0  0  0  0  0  0  0  0  0  0  0
   19.3372   -7.7524  -16.1682 O   0  0  0  0  0  0  0  0  0  0  0  0
   15.9241   -7.9583  -12.6193 C   0  0  0  0  0  0  0  0  0  0  0  0
   14.8743   -7.5166  -13.1362 O   0  0  0  0  0  0  0  0  0  0  0  0
   20.2170   -5.9868  -15.0045 O   0  0  0  0  0  0  0  0  0  0  0  0
   13.3317   -7.1957   -8.8397 C   0  0  0  0  0  0  0  0  0  0  0  0
   14.7851   -7.4379   -8.5646 C   0  0  2  0  0  0  0  0  0  0  0  0
   15.1146   -7.5867   -7.1138 C   0  0  0  0  0  0  0  0  0  0  0  0
   15.7048   -6.5471   -9.3027 C   0  0  0  0  0  0  0  0  0  0  0  0
   15.5152   -6.3127  -10.7442 C   0  0  2  0  0  0  0  0  0  0  0  0
   16.3391   -7.3639  -11.4123 N   0  0  0  0  0  0  0  0  0  0  0  0
   15.9470   -4.9957  -11.1906 C   0  0  0  0  0  0  0  0  0  0  0  0
   17.1320   -4.8979  -11.6578 O   0  0  0  0  0  0  0  0  0  0  0  0
   15.2269   -3.8331  -11.1773 O   0  0  0  0  0  0  0  0  0  0  0  0
  2  3  1  0
  2  1  1  0
  3  4  1  1
  5  3  1  0
  5  6  2  0
  7  5  1  0
  8  7  1  0
  8 13  1  0
  8  9  1  6
 10  9  1  0
 10 11  1  0
 11 12  2  0
 13 21  1  0
 14 13  2  0
 15 11  1  0
 17 18  1  1
 17 16  1  0
 19 17  1  0
 20 19  1  1
 21 20  1  0
 22 24  1  0
 22 20  1  0
 23 22  2  0
M  END
$$$$
