SEL.pdb
     RDKit          3D

 24 23  0  0  1  0  0  0  0  0999 V2000
   15.8234  -11.0620  -15.4565 O   0  0  0  0  0  0  0  0  0  0  0  0
   14.9926   -9.9909  -15.7794 C   0  0  0  0  0  0  0  0  0  0  0  0
   15.3537   -9.5262  -17.1743 C   0  0  2  0  0  0  0  0  0  0  0  0
   15.5312  -10.6744  -18.0273 N   0  0  0  0  0  0  0  0  0  0  0  0
   16.6453   -8.7969  -17.0842 C   0  0  0  0  0  0  0  0  0  0  0  0
   17.7029   -9.4057  -17.4634 O   0  0  0  0  0  0  0  0  0  0  0  0
   16.6821   -7.4759  -16.5934 N   0  0  0  0  0  0  0  0  0  0  0  0
   17.8735   -6.6839  -16.4524 C   0  0  1  0  0  0  0  0  0  0  0  0
   17.6691   -5.2180  -16.3552 C   0  0  0  0  0  0  0  0  0  0  0  0
   18.9565   -4.4290  -16.2973 C   0  0  0  0  0  0  0  0  0  0  0  0
   18.6668   -2.9701  -16.1436 C   0  0  0  0  0  0  0  0  0  0  0  0
   19.6219   -2.1527  -16.0960 O   0  0  0  0  0  0  0  0  0  0  0  0
   18.8303   -7.2315  -15.4321 C   0  0  0  0  0  0  0  0  0  0  0  0
   18.4237   -7.6375  -14.3212 O   0  0  0  0  0  0  0  0  0  0  0  0
   17.3614   -2.5182  -16.0535 O   0  0  0  0  0  0  0  0  0  0  0  0
   23.9855   -9.0238  -14.1289 C   0  0  0  0  0  0  0  0  0  0  0  0
   22.7807   -9.8182  -14.5340 C   0  0  2  0  0  0  0  0  0  0  0  0
   23.1024  -11.1365  -15.1617 C   0  0  0  0  0  0  0  0  0  0  0  0
   21.7504   -9.0428  -15.2561 C   0  0  0  0  0  0  0  0  0  0  0  0
   21.1498   -7.8486  -14.6380 C   0  0  2  0  0  0  0  0  0  0  0  0
   20.2151   -7.3138  -15.6727 N   0  0  0  0  0  0  0  0  0  0  0  0
   22.1161   -6.8219  -14.2743 C   0  0  0  0  0  0  0  0  0  0  0  0
   22.4191   -6.7181  -13.0377 O   0  0  0  0  0  0  0  0  0  0  0  0
   22.7545   -5.9450  -15.1074 O   0  0  0  0  0  0  0  0  0  0  0  0
  2  3  1  0
  2  1  1  0
  3  4  1  6
  5  3  1  0
  5  6  2  0
  7  5  1  0
  8  7  1  0
  8 13  1  0
  8  9  1  1
 10  9  1  0
 10 11  1  0
 11 12  2  0
 13 21  1  0
 14 13  2  0
 15 11  1  0
 17 18  1  6
 17 16  1  0
 19 17  1  0
 20 19  1  6
 21 20  1  0
 22 24  1  0
 22 20  1  0
 23 22  2  0
M  END
$$$$
