SEL.pdb
     RDKit          3D

 24 23  0  0  1  0  0  0  0  0999 V2000
   29.1602  -22.9525  -16.7037 O   0  0  0  0  0  0  0  0  0  0  0  0
   28.2479  -22.0580  -16.1475 C   0  0  0  0  0  0  0  0  0  0  0  0
   27.7121  -21.1860  -17.2630 C   0  0  2  0  0  0  0  0  0  0  0  0
   28.6723  -20.1538  -17.5632 N   0  0  0  0  0  0  0  0  0  0  0  0
   26.4640  -20.5459  -16.7724 C   0  0  0  0  0  0  0  0  0  0  0  0
   26.5730  -19.5986  -15.9217 O   0  0  0  0  0  0  0  0  0  0  0  0
   25.2093  -20.9838  -17.2425 N   0  0  0  0  0  0  0  0  0  0  0  0
   23.9419  -20.6006  -16.6826 C   0  0  1  0  0  0  0  0  0  0  0  0
   22.7701  -20.7312  -17.5825 C   0  0  0  0  0  0  0  0  0  0  0  0
   23.0077  -20.1834  -18.9705 C   0  0  0  0  0  0  0  0  0  0  0  0
   21.7408  -20.2086  -19.7644 C   0  0  0  0  0  0  0  0  0  0  0  0
   20.8865  -19.3012  -19.5926 O   0  0  0  0  0  0  0  0  0  0  0  0
   23.7127  -21.1535  -15.3048 C   0  0  0  0  0  0  0  0  0  0  0  0
   23.9207  -22.3608  -15.0531 O   0  0  0  0  0  0  0  0  0  0  0  0
   21.5052  -21.2192  -20.6807 O   0  0  0  0  0  0  0  0  0  0  0  0
   25.1768  -22.4698  -11.1988 C   0  0  0  0  0  0  0  0  0  0  0  0
   25.5494  -21.1729  -11.8516 C   0  0  2  0  0  0  0  0  0  0  0  0
   26.6784  -20.4560  -11.1831 C   0  0  0  0  0  0  0  0  0  0  0  0
   24.4015  -20.3057  -12.1899 C   0  0  0  0  0  0  0  0  0  0  0  0
   23.2093  -20.8719  -12.8434 C   0  0  2  0  0  0  0  0  0  0  0  0
   23.2579  -20.3501  -14.2418 N   0  0  0  0  0  0  0  0  0  0  0  0
   21.9525  -20.4829  -12.2196 C   0  0  0  0  0  0  0  0  0  0  0  0
   21.4493  -19.3625  -12.5710 O   0  0  0  0  0  0  0  0  0  0  0  0
   21.2292  -21.1830  -11.2937 O   0  0  0  0  0  0  0  0  0  0  0  0
  2  3  1  0
  2  1  1  0
  3  4  1  1
  5  3  1  0
  5  6  2  0
  7  5  1  0
  8  7  1  0
  8 13  1  0
  8  9  1  6
 10  9  1  0
 10 11  1  0
 11 12  2  0
 13 21  1  0
 14 13  2  0
 15 11  1  0
 17 18  1  1
 17 16  1  0
 19 17  1  0
 20 19  1  1
 21 20  1  0
 22 24  1  0
 22 20  1  0
 23 22  2  0
M  END
$$$$
