SEL.pdb
     RDKit          3D

 24 23  0  0  1  0  0  0  0  0999 V2000
   20.2387  -12.8006  -17.2592 O   0  0  0  0  0  0  0  0  0  0  0  0
   19.9782  -11.7091  -16.4331 C   0  0  0  0  0  0  0  0  0  0  0  0
   18.4807  -11.4881  -16.4125 C   0  0  2  0  0  0  0  0  0  0  0  0
   18.1832  -10.3162  -15.6279 N   0  0  0  0  0  0  0  0  0  0  0  0
   17.8617  -12.6690  -15.7563 C   0  0  0  0  0  0  0  0  0  0  0  0
   17.7363  -12.6485  -14.4848 O   0  0  0  0  0  0  0  0  0  0  0  0
   17.4327  -13.7671  -16.5291 N   0  0  0  0  0  0  0  0  0  0  0  0
   16.7986  -14.9452  -16.0031 C   0  0  1  0  0  0  0  0  0  0  0  0
   15.3656  -15.1171  -16.3450 C   0  0  0  0  0  0  0  0  0  0  0  0
   14.7180  -16.3012  -15.6655 C   0  0  0  0  0  0  0  0  0  0  0  0
   13.2926  -16.4342  -16.0973 C   0  0  0  0  0  0  0  0  0  0  0  0
   12.8418  -15.6642  -16.9843 O   0  0  0  0  0  0  0  0  0  0  0  0
   17.6190  -16.1902  -16.1865 C   0  0  0  0  0  0  0  0  0  0  0  0
   18.5782  -16.2165  -16.9887 O   0  0  0  0  0  0  0  0  0  0  0  0
   12.4724  -17.3938  -15.5291 O   0  0  0  0  0  0  0  0  0  0  0  0
   21.1506  -18.5361  -16.5356 C   0  0  0  0  0  0  0  0  0  0  0  0
   20.7180  -17.5024  -15.5401 C   0  0  2  0  0  0  0  0  0  0  0  0
   21.8367  -16.9306  -14.7295 C   0  0  0  0  0  0  0  0  0  0  0  0
   19.5291  -17.8768  -14.7460 C   0  0  0  0  0  0  0  0  0  0  0  0
   18.3559  -18.4779  -15.4026 C   0  0  2  0  0  0  0  0  0  0  0  0
   17.3522  -17.3744  -15.4731 N   0  0  0  0  0  0  0  0  0  0  0  0
   17.7896  -19.6087  -14.6810 C   0  0  0  0  0  0  0  0  0  0  0  0
   16.8969  -19.3528  -13.8038 O   0  0  0  0  0  0  0  0  0  0  0  0
   18.0956  -20.9330  -14.8334 O   0  0  0  0  0  0  0  0  0  0  0  0
  2  3  1  0
  2  1  1  0
  3  4  1  1
  5  3  1  0
  5  6  2  0
  7  5  1  0
  8  7  1  0
  8 13  1  0
  8  9  1  6
 10  9  1  0
 10 11  1  0
 11 12  2  0
 13 21  1  0
 14 13  2  0
 15 11  1  0
 17 18  1  1
 17 16  1  0
 19 17  1  0
 20 19  1  1
 21 20  1  0
 22 24  1  0
 22 20  1  0
 23 22  2  0
M  END
$$$$
