SEL.pdb
     RDKit          3D

 24 23  0  0  1  0  0  0  0  0999 V2000
   27.0010  -20.4867  -14.8451 O   0  0  0  0  0  0  0  0  0  0  0  0
   26.1732  -21.5059  -14.3785 C   0  0  0  0  0  0  0  0  0  0  0  0
   26.7846  -22.0568  -13.1078 C   0  0  2  0  0  0  0  0  0  0  0  0
   26.1164  -23.2830  -12.7509 N   0  0  0  0  0  0  0  0  0  0  0  0
   26.5551  -21.0595  -12.0303 C   0  0  0  0  0  0  0  0  0  0  0  0
   27.3118  -20.0303  -11.9977 O   0  0  0  0  0  0  0  0  0  0  0  0
   25.5300  -21.2602  -11.0837 N   0  0  0  0  0  0  0  0  0  0  0  0
   25.1994  -20.3473  -10.0235 C   0  0  1  0  0  0  0  0  0  0  0  0
   23.7593  -20.0267   -9.8702 C   0  0  0  0  0  0  0  0  0  0  0  0
   23.0720  -19.6876  -11.1724 C   0  0  0  0  0  0  0  0  0  0  0  0
   21.6266  -19.3863  -10.9353 C   0  0  0  0  0  0  0  0  0  0  0  0
   21.2155  -18.2030  -11.0514 O   0  0  0  0  0  0  0  0  0  0  0  0
   25.8897  -20.6696   -8.7289 C   0  0  0  0  0  0  0  0  0  0  0  0
   25.7991  -21.8072   -8.2170 O   0  0  0  0  0  0  0  0  0  0  0  0
   20.7452  -20.3966  -10.5904 O   0  0  0  0  0  0  0  0  0  0  0  0
   29.5093  -21.2899   -5.1051 C   0  0  0  0  0  0  0  0  0  0  0  0
   29.7120  -20.6292   -6.4352 C   0  0  2  0  0  0  0  0  0  0  0  0
   31.1051  -20.1378   -6.6661 C   0  0  0  0  0  0  0  0  0  0  0  0
   28.6617  -19.6563   -6.8019 C   0  0  0  0  0  0  0  0  0  0  0  0
   27.2392  -20.0213   -6.6918 C   0  0  2  0  0  0  0  0  0  0  0  0
   26.6635  -19.7190   -8.0361 N   0  0  0  0  0  0  0  0  0  0  0  0
   26.5153  -19.2768   -5.6711 C   0  0  0  0  0  0  0  0  0  0  0  0
   25.9287  -18.2031   -6.0385 O   0  0  0  0  0  0  0  0  0  0  0  0
   26.3783  -19.5934   -4.3477 O   0  0  0  0  0  0  0  0  0  0  0  0
  2  3  1  0
  2  1  1  0
  3  4  1  1
  5  3  1  0
  5  6  2  0
  7  5  1  0
  8  7  1  0
  8 13  1  0
  8  9  1  1
 10  9  1  0
 10 11  1  0
 11 12  2  0
 13 21  1  0
 14 13  2  0
 15 11  1  0
 17 18  1  1
 17 16  1  0
 19 17  1  0
 20 19  1  6
 21 20  1  0
 22 24  1  0
 22 20  1  0
 23 22  2  0
M  END
$$$$
