SEL.pdb
     RDKit          3D

 24 23  0  0  1  0  0  0  0  0999 V2000
   14.6032  -12.4357  -17.6174 O   0  0  0  0  0  0  0  0  0  0  0  0
   15.1739  -13.1187  -16.5452 C   0  0  0  0  0  0  0  0  0  0  0  0
   15.3745  -12.1292  -15.4171 C   0  0  2  0  0  0  0  0  0  0  0  0
   14.1114  -11.5159  -15.0917 N   0  0  0  0  0  0  0  0  0  0  0  0
   16.3029  -11.0759  -15.9037 C   0  0  0  0  0  0  0  0  0  0  0  0
   17.4069  -11.4485  -16.4282 O   0  0  0  0  0  0  0  0  0  0  0  0
   15.9585   -9.7144  -15.7817 N   0  0  0  0  0  0  0  0  0  0  0  0
   16.8123   -8.6149  -16.1407 C   0  0  1  0  0  0  0  0  0  0  0  0
   16.1236   -7.3590  -16.5261 C   0  0  0  0  0  0  0  0  0  0  0  0
   17.0655   -6.2589  -16.9571 C   0  0  0  0  0  0  0  0  0  0  0  0
   16.3009   -5.0146  -17.2780 C   0  0  0  0  0  0  0  0  0  0  0  0
   15.7252   -4.9138  -18.3921 O   0  0  0  0  0  0  0  0  0  0  0  0
   17.9504   -8.4123  -15.1814 C   0  0  0  0  0  0  0  0  0  0  0  0
   17.7530   -8.3772  -13.9468 O   0  0  0  0  0  0  0  0  0  0  0  0
   16.2247   -3.9800  -16.3613 O   0  0  0  0  0  0  0  0  0  0  0  0
   23.5083   -8.9140  -14.6168 C   0  0  0  0  0  0  0  0  0  0  0  0
   22.3640   -9.6730  -14.0157 C   0  0  2  0  0  0  0  0  0  0  0  0
   22.6721  -11.1054  -13.7175 C   0  0  0  0  0  0  0  0  0  0  0  0
   21.0675   -9.4643  -14.6935 C   0  0  0  0  0  0  0  0  0  0  0  0
   20.4070   -8.1489  -14.6458 C   0  0  2  0  0  0  0  0  0  0  0  0
   19.2792   -8.2538  -15.6190 N   0  0  0  0  0  0  0  0  0  0  0  0
   21.2727   -7.0390  -15.0181 C   0  0  0  0  0  0  0  0  0  0  0  0
   22.0786   -6.6038  -14.1276 O   0  0  0  0  0  0  0  0  0  0  0  0
   21.3353   -6.3987  -16.2251 O   0  0  0  0  0  0  0  0  0  0  0  0
  2  3  1  0
  2  1  1  0
  3  4  1  6
  5  3  1  0
  5  6  2  0
  7  5  1  0
  8  7  1  0
  8 13  1  0
  8  9  1  1
 10  9  1  0
 10 11  1  0
 11 12  2  0
 13 21  1  0
 14 13  2  0
 15 11  1  0
 17 18  1  6
 17 16  1  0
 19 17  1  0
 20 19  1  6
 21 20  1  0
 22 24  1  0
 22 20  1  0
 23 22  2  0
M  END
$$$$
