SEL.pdb
     RDKit          3D

 24 23  0  0  1  0  0  0  0  0999 V2000
   31.1371  -24.6248  -18.9486 O   0  0  0  0  0  0  0  0  0  0  0  0
   31.1959  -23.4349  -18.2258 C   0  0  0  0  0  0  0  0  0  0  0  0
   30.8793  -23.7528  -16.7799 C   0  0  2  0  0  0  0  0  0  0  0  0
   31.6935  -24.8605  -16.3469 N   0  0  0  0  0  0  0  0  0  0  0  0
   29.4511  -24.1576  -16.7116 C   0  0  0  0  0  0  0  0  0  0  0  0
   29.1782  -25.3052  -16.2203 O   0  0  0  0  0  0  0  0  0  0  0  0
   28.4439  -23.2891  -17.1791 N   0  0  0  0  0  0  0  0  0  0  0  0
   27.0316  -23.5382  -17.0786 C   0  0  1  0  0  0  0  0  0  0  0  0
   26.1521  -22.3547  -17.2393 C   0  0  0  0  0  0  0  0  0  0  0  0
   24.6867  -22.6552  -17.0263 C   0  0  0  0  0  0  0  0  0  0  0  0
   23.8721  -21.4107  -17.1804 C   0  0  0  0  0  0  0  0  0  0  0  0
   22.9620  -21.3720  -18.0482 O   0  0  0  0  0  0  0  0  0  0  0  0
   26.5850  -24.7367  -17.8663 C   0  0  0  0  0  0  0  0  0  0  0  0
   26.9580  -24.9056  -19.0481 O   0  0  0  0  0  0  0  0  0  0  0  0
   24.1136  -20.3085  -16.3783 O   0  0  0  0  0  0  0  0  0  0  0  0
   27.6624  -28.8167  -18.5808 C   0  0  0  0  0  0  0  0  0  0  0  0
   27.0453  -28.5495  -17.2411 C   0  0  2  0  0  0  0  0  0  0  0  0
   27.2755  -29.6329  -16.2367 C   0  0  0  0  0  0  0  0  0  0  0  0
   25.6502  -28.0651  -17.2954 C   0  0  0  0  0  0  0  0  0  0  0  0
   25.3000  -26.8986  -18.1234 C   0  0  2  0  0  0  0  0  0  0  0  0
   25.7350  -25.7173  -17.3201 N   0  0  0  0  0  0  0  0  0  0  0  0
   23.8789  -26.7908  -18.4217 C   0  0  0  0  0  0  0  0  0  0  0  0
   23.3636  -27.7091  -19.1450 O   0  0  0  0  0  0  0  0  0  0  0  0
   23.0123  -25.8156  -18.0113 O   0  0  0  0  0  0  0  0  0  0  0  0
  2  3  1  0
  2  1  1  0
  3  4  1  6
  5  3  1  0
  5  6  2  0
  7  5  1  0
  8  7  1  0
  8 13  1  0
  8  9  1  6
 10  9  1  0
 10 11  1  0
 11 12  2  0
 13 21  1  0
 14 13  2  0
 15 11  1  0
 17 18  1  1
 17 16  1  0
 19 17  1  0
 20 19  1  1
 21 20  1  0
 22 24  1  0
 22 20  1  0
 23 22  2  0
M  END
$$$$
