SEL.pdb
     RDKit          3D

 24 23  0  0  1  0  0  0  0  0999 V2000
   15.0254  -13.9865  -16.1119 O   0  0  0  0  0  0  0  0  0  0  0  0
   16.0606  -13.0548  -16.1575 C   0  0  0  0  0  0  0  0  0  0  0  0
   16.1789  -12.5602  -17.5834 C   0  0  2  0  0  0  0  0  0  0  0  0
   16.5881  -13.6504  -18.4328 N   0  0  0  0  0  0  0  0  0  0  0  0
   17.2349  -11.5150  -17.6098 C   0  0  0  0  0  0  0  0  0  0  0  0
   18.4537  -11.8978  -17.6420 O   0  0  0  0  0  0  0  0  0  0  0  0
   16.8833  -10.1500  -17.5992 N   0  0  0  0  0  0  0  0  0  0  0  0
   17.8200   -9.0594  -17.5960 C   0  0  1  0  0  0  0  0  0  0  0  0
   17.2752   -7.7363  -17.9868 C   0  0  0  0  0  0  0  0  0  0  0  0
   18.3261   -6.6560  -18.0946 C   0  0  0  0  0  0  0  0  0  0  0  0
   17.6902   -5.3409  -18.4143 C   0  0  0  0  0  0  0  0  0  0  0  0
   17.1424   -4.6802  -17.4944 O   0  0  0  0  0  0  0  0  0  0  0  0
   18.6790   -9.0215  -16.3643 C   0  0  0  0  0  0  0  0  0  0  0  0
   18.1770   -9.1451  -15.2255 O   0  0  0  0  0  0  0  0  0  0  0  0
   17.7010   -4.8510  -19.7090 O   0  0  0  0  0  0  0  0  0  0  0  0
   24.2629  -10.7972  -15.0499 C   0  0  0  0  0  0  0  0  0  0  0  0
   23.0663  -10.0752  -14.5079 C   0  0  2  0  0  0  0  0  0  0  0  0
   22.5579  -10.6238  -13.2133 C   0  0  0  0  0  0  0  0  0  0  0  0
   22.0091   -9.8076  -15.5052 C   0  0  0  0  0  0  0  0  0  0  0  0
   20.9161   -8.8700  -15.1965 C   0  0  2  0  0  0  0  0  0  0  0  0
   20.0746   -8.8470  -16.4299 N   0  0  0  0  0  0  0  0  0  0  0  0
   21.3653   -7.5204  -14.8856 C   0  0  0  0  0  0  0  0  0  0  0  0
   21.6060   -6.7443  -15.8713 O   0  0  0  0  0  0  0  0  0  0  0  0
   21.5583   -6.9699  -13.6485 O   0  0  0  0  0  0  0  0  0  0  0  0
  2  3  1  0
  2  1  1  0
  3  4  1  6
  5  3  1  0
  5  6  2  0
  7  5  1  0
  8  7  1  0
  8 13  1  0
  8  9  1  1
 10  9  1  0
 10 11  1  0
 11 12  2  0
 13 21  1  0
 14 13  2  0
 15 11  1  0
 17 18  1  1
 17 16  1  0
 19 17  1  0
 20 19  1  6
 21 20  1  0
 22 24  1  0
 22 20  1  0
 23 22  2  0
M  END
$$$$
