WYW.pdb
     RDKit          3D

 41 45  0  0  1  0  0  0  0  0999 V2000
   26.9675  -17.5377  -17.8888 N   0  0  0  0  0  0  0  0  0  0  0  0
   27.2912  -16.6764  -16.7614 C   0  0  1  0  0  0  0  0  0  0  0  0
   27.4149  -15.2690  -17.2919 C   0  0  0  0  0  0  0  0  0  0  0  0
   28.5291  -15.0975  -18.2439 C   0  0  0  0  0  0  0  0  0  0  0  0
   28.5648  -14.1933  -19.2827 C   0  0  0  0  0  0  0  0  0  0  0  0
   29.7473  -14.3255  -19.9405 N   0  0  0  0  0  0  0  0  0  0  0  0
   30.4838  -15.2875  -19.3646 C   0  0  0  0  0  0  0  0  0  0  0  0
   31.7334  -15.7916  -19.6450 C   0  0  0  0  0  0  0  0  0  0  0  0
   32.2450  -16.7995  -18.8568 C   0  0  0  0  0  0  0  0  0  0  0  0
   31.4853  -17.2772  -17.8028 C   0  0  0  0  0  0  0  0  0  0  0  0
   30.2257  -16.7751  -17.5135 C   0  0  0  0  0  0  0  0  0  0  0  0
   29.7288  -15.7749  -18.3023 C   0  0  0  0  0  0  0  0  0  0  0  0
   26.1995  -16.8081  -15.7736 C   0  0  0  0  0  0  0  0  0  0  0  0
   26.2164  -16.0977  -14.7279 O   0  0  0  0  0  0  0  0  0  0  0  0
   18.3538  -18.7952  -12.0412 O   0  0  0  0  0  0  0  0  0  0  0  0
   19.4306  -18.6100  -12.8848 C   0  0  0  0  0  0  0  0  0  0  0  0
   19.9333  -17.3588  -13.1706 C   0  0  0  0  0  0  0  0  0  0  0  0
   21.0010  -17.2075  -14.0112 C   0  0  0  0  0  0  0  0  0  0  0  0
   21.6448  -18.2629  -14.6234 C   0  0  0  0  0  0  0  0  0  0  0  0
   22.7498  -18.0801  -15.5629 C   0  0  0  0  0  0  0  0  0  0  0  0
   24.0497  -17.8506  -14.8862 C   0  0  2  0  0  0  0  0  0  0  0  0
   25.1112  -17.6870  -15.9116 N   0  0  0  0  0  0  0  0  0  0  0  0
   24.5312  -18.8988  -13.9722 C   0  0  0  0  0  0  0  0  0  0  0  0
   24.8279  -18.5586  -12.7604 O   0  0  0  0  0  0  0  0  0  0  0  0
   21.1261  -19.5225  -14.3252 C   0  0  0  0  0  0  0  0  0  0  0  0
   20.0555  -19.6846  -13.4850 C   0  0  0  0  0  0  0  0  0  0  0  0
   24.7173  -20.2759  -14.2387 N   0  0  0  0  0  0  0  0  0  0  0  0
   25.3088  -21.1929  -13.3076 C   0  0  1  0  0  0  0  0  0  0  0  0
   24.7311  -21.1060  -11.9210 C   0  0  0  0  0  0  0  0  0  0  0  0
   23.3527  -21.6540  -11.9619 C   0  0  0  0  0  0  0  0  0  0  0  0
   22.8578  -22.6348  -12.8150 C   0  0  0  0  0  0  0  0  0  0  0  0
   21.5581  -22.8610  -12.5598 N   0  0  0  0  0  0  0  0  0  0  0  0
   21.1622  -22.0597  -11.5582 C   0  0  0  0  0  0  0  0  0  0  0  0
   19.9443  -21.9044  -10.9273 C   0  0  0  0  0  0  0  0  0  0  0  0
   19.7795  -20.9929   -9.8978 C   0  0  0  0  0  0  0  0  0  0  0  0
   20.8739  -20.2513   -9.5286 C   0  0  0  0  0  0  0  0  0  0  0  0
   22.0849  -20.4088  -10.1572 C   0  0  0  0  0  0  0  0  0  0  0  0
   22.2606  -21.3118  -11.1830 C   0  0  0  0  0  0  0  0  0  0  0  0
   25.3674  -22.5484  -13.8475 C   0  0  0  0  0  0  0  0  0  0  0  0
   24.8846  -22.8898  -14.9542 O   0  0  0  0  0  0  0  0  0  0  0  0
   25.9928  -23.5949  -13.1380 O   0  0  0  0  0  0  0  0  0  0  0  0
  2  3  1  0
  2  1  1  6
  4  5  2  0
  4  3  1  0
  6  5  1  0
  7 12  2  0
  7  6  1  0
  8  7  1  0
  9 10  1  0
  9  8  2  0
 10 11  2  0
 11 12  1  0
 12  4  1  0
 13  2  1  0
 14 13  2  0
 16 15  1  0
 16 17  2  0
 18 17  1  0
 19 18  2  0
 20 19  1  0
 21 20  1  6
 21 22  1  0
 22 13  1  0
 23 21  1  0
 23 27  1  0
 24 23  2  0
 25 26  2  0
 25 19  1  0
 26 16  1  0
 28 27  1  0
 28 39  1  0
 28 29  1  1
 30 31  2  0
 30 29  1  0
 32 31  1  0
 33 38  2  0
 33 32  1  0
 34 33  1  0
 35 36  1  0
 35 34  2  0
 36 37  2  0
 37 38  1  0
 38 30  1  0
 39 41  1  0
 40 39  2  0
M  END
$$$$
