WYW.pdb
     RDKit          3D

 41 45  0  0  1  0  0  0  0  0999 V2000
   28.1444  -20.0166  -17.8469 N   0  0  0  0  0  0  0  0  0  0  0  0
   27.7435  -19.1724  -16.7313 C   0  0  1  0  0  0  0  0  0  0  0  0
   26.6171  -18.2926  -17.2156 C   0  0  0  0  0  0  0  0  0  0  0  0
   26.7371  -16.8902  -16.7728 C   0  0  0  0  0  0  0  0  0  0  0  0
   26.2665  -16.3818  -15.5820 C   0  0  0  0  0  0  0  0  0  0  0  0
   26.5597  -15.0555  -15.5234 N   0  0  0  0  0  0  0  0  0  0  0  0
   27.2058  -14.6822  -16.6382 C   0  0  0  0  0  0  0  0  0  0  0  0
   27.7122  -13.4724  -17.0554 C   0  0  0  0  0  0  0  0  0  0  0  0
   28.3453  -13.3927  -18.2767 C   0  0  0  0  0  0  0  0  0  0  0  0
   28.4541  -14.5351  -19.0510 C   0  0  0  0  0  0  0  0  0  0  0  0
   27.9467  -15.7576  -18.6384 C   0  0  0  0  0  0  0  0  0  0  0  0
   27.3210  -15.8245  -17.4245 C   0  0  0  0  0  0  0  0  0  0  0  0
   27.3236  -20.0628  -15.6287 C   0  0  0  0  0  0  0  0  0  0  0  0
   26.6888  -21.1240  -15.8919 O   0  0  0  0  0  0  0  0  0  0  0  0
   24.1373  -21.4929   -7.5061 O   0  0  0  0  0  0  0  0  0  0  0  0
   24.9605  -21.1370   -8.5555 C   0  0  0  0  0  0  0  0  0  0  0  0
   25.1853  -19.8213   -8.8994 C   0  0  0  0  0  0  0  0  0  0  0  0
   26.0057  -19.5004   -9.9450 C   0  0  0  0  0  0  0  0  0  0  0  0
   26.6576  -20.4386  -10.7183 C   0  0  0  0  0  0  0  0  0  0  0  0
   27.4874  -20.0806  -11.8674 C   0  0  0  0  0  0  0  0  0  0  0  0
   26.9104  -20.5309  -13.1576 C   0  0  2  0  0  0  0  0  0  0  0  0
   27.5843  -19.8142  -14.2699 N   0  0  0  0  0  0  0  0  0  0  0  0
   25.4675  -20.3252  -13.3621 C   0  0  0  0  0  0  0  0  0  0  0  0
   25.0569  -19.1293  -13.6328 O   0  0  0  0  0  0  0  0  0  0  0  0
   26.4215  -21.7651  -10.3591 C   0  0  0  0  0  0  0  0  0  0  0  0
   25.5999  -22.0972   -9.3137 C   0  0  0  0  0  0  0  0  0  0  0  0
   24.4293  -21.2850  -13.3077 N   0  0  0  0  0  0  0  0  0  0  0  0
   23.0481  -20.9759  -13.5408 C   0  0  1  0  0  0  0  0  0  0  0  0
   22.8179  -20.0935  -14.7376 C   0  0  0  0  0  0  0  0  0  0  0  0
   21.9867  -18.9422  -14.3069 C   0  0  0  0  0  0  0  0  0  0  0  0
   21.3204  -18.7866  -13.0959 C   0  0  0  0  0  0  0  0  0  0  0  0
   20.6615  -17.6157  -13.0743 N   0  0  0  0  0  0  0  0  0  0  0  0
   20.8647  -16.9769  -14.2374 C   0  0  0  0  0  0  0  0  0  0  0  0
   20.4191  -15.7596  -14.7114 C   0  0  0  0  0  0  0  0  0  0  0  0
   20.7712  -15.3069  -15.9720 C   0  0  0  0  0  0  0  0  0  0  0  0
   21.5810  -16.1147  -16.7306 C   0  0  0  0  0  0  0  0  0  0  0  0
   22.0241  -17.3251  -16.2558 C   0  0  0  0  0  0  0  0  0  0  0  0
   21.6798  -17.7861  -15.0039 C   0  0  0  0  0  0  0  0  0  0  0  0
   22.2140  -22.1742  -13.5117 C   0  0  0  0  0  0  0  0  0  0  0  0
   22.3087  -23.1212  -14.3293 O   0  0  0  0  0  0  0  0  0  0  0  0
   21.2173  -22.3512  -12.5293 O   0  0  0  0  0  0  0  0  0  0  0  0
  2  3  1  0
  2  1  1  6
  4  5  2  0
  4  3  1  0
  6  5  1  0
  7 12  2  0
  7  6  1  0
  8  7  1  0
  9 10  1  0
  9  8  2  0
 10 11  2  0
 11 12  1  0
 12  4  1  0
 13  2  1  0
 14 13  2  0
 16 15  1  0
 16 17  2  0
 18 17  1  0
 19 18  2  0
 20 19  1  0
 21 20  1  1
 21 22  1  0
 22 13  1  0
 23 21  1  0
 23 27  1  0
 24 23  2  0
 25 26  2  0
 25 19  1  0
 26 16  1  0
 28 27  1  0
 28 39  1  0
 28 29  1  6
 30 31  2  0
 30 29  1  0
 32 31  1  0
 33 38  2  0
 33 32  1  0
 34 33  1  0
 35 36  1  0
 35 34  2  0
 36 37  2  0
 37 38  1  0
 38 30  1  0
 39 41  1  0
 40 39  2  0
M  END
$$$$
