WYW.pdb
     RDKit          3D

 41 45  0  0  1  0  0  0  0  0999 V2000
   27.6056  -17.7015  -18.3095 N   0  0  0  0  0  0  0  0  0  0  0  0
   26.9277  -18.9576  -18.0260 C   0  0  1  0  0  0  0  0  0  0  0  0
   27.9860  -20.0301  -17.9404 C   0  0  0  0  0  0  0  0  0  0  0  0
   28.6554  -20.2969  -19.2280 C   0  0  0  0  0  0  0  0  0  0  0  0
   29.9926  -20.0985  -19.4933 C   0  0  0  0  0  0  0  0  0  0  0  0
   30.2429  -20.4540  -20.7815 N   0  0  0  0  0  0  0  0  0  0  0  0
   29.1117  -20.8772  -21.3653 C   0  0  0  0  0  0  0  0  0  0  0  0
   28.8393  -21.3402  -22.6324 C   0  0  0  0  0  0  0  0  0  0  0  0
   27.5522  -21.7167  -22.9492 C   0  0  0  0  0  0  0  0  0  0  0  0
   26.5675  -21.6180  -21.9812 C   0  0  0  0  0  0  0  0  0  0  0  0
   26.8333  -21.1524  -20.7026 C   0  0  0  0  0  0  0  0  0  0  0  0
   28.1143  -20.7823  -20.3997 C   0  0  0  0  0  0  0  0  0  0  0  0
   26.1962  -18.7904  -16.7525 C   0  0  0  0  0  0  0  0  0  0  0  0
   26.7550  -18.1965  -15.7863 O   0  0  0  0  0  0  0  0  0  0  0  0
   19.3208  -18.3547  -11.1502 O   0  0  0  0  0  0  0  0  0  0  0  0
   20.1527  -18.3755  -12.2516 C   0  0  0  0  0  0  0  0  0  0  0  0
   20.2222  -19.4600  -13.0994 C   0  0  0  0  0  0  0  0  0  0  0  0
   21.0569  -19.4510  -14.1822 C   0  0  0  0  0  0  0  0  0  0  0  0
   21.8732  -18.3872  -14.5067 C   0  0  0  0  0  0  0  0  0  0  0  0
   22.8006  -18.4153  -15.6364 C   0  0  0  0  0  0  0  0  0  0  0  0
   24.1237  -18.9849  -15.2820 C   0  0  2  0  0  0  0  0  0  0  0  0
   24.8884  -19.2532  -16.5263 N   0  0  0  0  0  0  0  0  0  0  0  0
   24.1362  -20.2452  -14.5221 C   0  0  0  0  0  0  0  0  0  0  0  0
   23.8589  -21.3384  -15.1546 O   0  0  0  0  0  0  0  0  0  0  0  0
   21.7925  -17.2970  -13.6410 C   0  0  0  0  0  0  0  0  0  0  0  0
   20.9600  -17.2968  -12.5523 C   0  0  0  0  0  0  0  0  0  0  0  0
   24.4238  -20.4384  -13.1503 N   0  0  0  0  0  0  0  0  0  0  0  0
   24.0899  -21.6323  -12.4286 C   0  0  1  0  0  0  0  0  0  0  0  0
   25.2512  -22.2375  -11.6874 C   0  0  0  0  0  0  0  0  0  0  0  0
   25.6598  -21.2904  -10.6207 C   0  0  0  0  0  0  0  0  0  0  0  0
   24.8329  -20.4971   -9.8322 C   0  0  0  0  0  0  0  0  0  0  0  0
   25.5676  -19.7606   -8.9817 N   0  0  0  0  0  0  0  0  0  0  0  0
   26.8675  -20.0349   -9.1746 C   0  0  0  0  0  0  0  0  0  0  0  0
   28.0112  -19.5565   -8.5677 C   0  0  0  0  0  0  0  0  0  0  0  0
   29.2663  -20.0011   -8.9485 C   0  0  0  0  0  0  0  0  0  0  0  0
   29.3285  -20.9362   -9.9513 C   0  0  0  0  0  0  0  0  0  0  0  0
   28.1886  -21.4116  -10.5525 C   0  0  0  0  0  0  0  0  0  0  0  0
   26.9348  -20.9762  -10.1826 C   0  0  0  0  0  0  0  0  0  0  0  0
   22.8891  -21.4549  -11.6169 C   0  0  0  0  0  0  0  0  0  0  0  0
   22.4129  -20.3399  -11.2936 O   0  0  0  0  0  0  0  0  0  0  0  0
   22.1619  -22.5613  -11.1300 O   0  0  0  0  0  0  0  0  0  0  0  0
  2  3  1  0
  2  1  1  1
  4  5  2  0
  4  3  1  0
  6  5  1  0
  7 12  2  0
  7  6  1  0
  8  7  1  0
  9 10  1  0
  9  8  2  0
 10 11  2  0
 11 12  1  0
 12  4  1  0
 13  2  1  0
 14 13  2  0
 16 15  1  0
 16 17  2  0
 18 17  1  0
 19 18  2  0
 20 19  1  0
 21 20  1  6
 21 22  1  0
 22 13  1  0
 23 21  1  0
 23 27  1  0
 24 23  2  0
 25 26  2  0
 25 19  1  0
 26 16  1  0
 28 27  1  0
 28 39  1  0
 28 29  1  1
 30 31  2  0
 30 29  1  0
 32 31  1  0
 33 38  2  0
 33 32  1  0
 34 33  1  0
 35 36  1  0
 35 34  2  0
 36 37  2  0
 37 38  1  0
 38 30  1  0
 39 41  1  0
 40 39  2  0
M  END
$$$$
