WYW.pdb
     RDKit          3D

 41 45  0  0  1  0  0  0  0  0999 V2000
   28.6509  -22.8089  -17.7484 N   0  0  0  0  0  0  0  0  0  0  0  0
   29.0427  -22.6348  -16.3578 C   0  0  1  0  0  0  0  0  0  0  0  0
   30.4067  -21.9890  -16.3526 C   0  0  0  0  0  0  0  0  0  0  0  0
   31.5042  -22.9355  -16.6295 C   0  0  0  0  0  0  0  0  0  0  0  0
   32.0070  -23.2386  -17.8758 C   0  0  0  0  0  0  0  0  0  0  0  0
   33.0083  -24.1478  -17.7370 N   0  0  0  0  0  0  0  0  0  0  0  0
   33.1742  -24.4482  -16.4401 C   0  0  0  0  0  0  0  0  0  0  0  0
   34.0424  -25.2938  -15.7879 C   0  0  0  0  0  0  0  0  0  0  0  0
   33.9807  -25.3938  -14.4150 C   0  0  0  0  0  0  0  0  0  0  0  0
   33.0446  -24.6388  -13.7294 C   0  0  0  0  0  0  0  0  0  0  0  0
   32.1663  -23.7847  -14.3786 C   0  0  0  0  0  0  0  0  0  0  0  0
   32.2373  -23.6935  -15.7410 C   0  0  0  0  0  0  0  0  0  0  0  0
   28.0196  -21.7867  -15.7106 C   0  0  0  0  0  0  0  0  0  0  0  0
   27.8213  -20.6136  -16.1381 O   0  0  0  0  0  0  0  0  0  0  0  0
   21.0840  -18.6120  -11.4107 O   0  0  0  0  0  0  0  0  0  0  0  0
   22.0076  -19.3108  -12.1617 C   0  0  0  0  0  0  0  0  0  0  0  0
   22.2402  -20.6564  -11.9740 C   0  0  0  0  0  0  0  0  0  0  0  0
   23.1625  -21.3211  -12.7335 C   0  0  0  0  0  0  0  0  0  0  0  0
   23.9133  -20.7184  -13.7216 C   0  0  0  0  0  0  0  0  0  0  0  0
   24.9349  -21.4309  -14.4869 C   0  0  0  0  0  0  0  0  0  0  0  0
   26.2916  -21.2961  -13.9025 C   0  0  2  0  0  0  0  0  0  0  0  0
   27.2257  -22.1962  -14.6252 N   0  0  0  0  0  0  0  0  0  0  0  0
   26.4481  -21.6163  -12.4746 C   0  0  0  0  0  0  0  0  0  0  0  0
   27.0159  -22.7352  -12.1617 O   0  0  0  0  0  0  0  0  0  0  0  0
   23.6677  -19.3575  -13.9008 C   0  0  0  0  0  0  0  0  0  0  0  0
   22.7462  -18.6819  -13.1439 C   0  0  0  0  0  0  0  0  0  0  0  0
   26.0564  -20.8442  -11.3554 N   0  0  0  0  0  0  0  0  0  0  0  0
   26.1620  -21.2997   -9.9993 C   0  0  1  0  0  0  0  0  0  0  0  0
   27.5795  -21.4274   -9.5112 C   0  0  0  0  0  0  0  0  0  0  0  0
   27.8135  -20.3701   -8.4967 C   0  0  0  0  0  0  0  0  0  0  0  0
   27.2732  -19.0886   -8.4710 C   0  0  0  0  0  0  0  0  0  0  0  0
   27.7262  -18.4139   -7.4008 N   0  0  0  0  0  0  0  0  0  0  0  0
   28.5574  -19.2047   -6.7037 C   0  0  0  0  0  0  0  0  0  0  0  0
   29.2742  -18.9942   -5.5431 C   0  0  0  0  0  0  0  0  0  0  0  0
   30.0806  -19.9843   -5.0072 C   0  0  0  0  0  0  0  0  0  0  0  0
   30.1384  -21.1827   -5.6739 C   0  0  0  0  0  0  0  0  0  0  0  0
   29.4230  -21.3898   -6.8281 C   0  0  0  0  0  0  0  0  0  0  0  0
   28.6181  -20.4121   -7.3709 C   0  0  0  0  0  0  0  0  0  0  0  0
   25.2873  -20.5447   -9.1063 C   0  0  0  0  0  0  0  0  0  0  0  0
   25.0232  -20.8797   -7.9263 O   0  0  0  0  0  0  0  0  0  0  0  0
   24.6647  -19.3503   -9.5253 O   0  0  0  0  0  0  0  0  0  0  0  0
  2  3  1  0
  2  1  1  6
  4  5  2  0
  4  3  1  0
  6  5  1  0
  7 12  2  0
  7  6  1  0
  8  7  1  0
  9 10  1  0
  9  8  2  0
 10 11  2  0
 11 12  1  0
 12  4  1  0
 13  2  1  0
 14 13  2  0
 16 15  1  0
 16 17  2  0
 18 17  1  0
 19 18  2  0
 20 19  1  0
 21 20  1  6
 21 22  1  0
 22 13  1  0
 23 21  1  0
 23 27  1  0
 24 23  2  0
 25 26  2  0
 25 19  1  0
 26 16  1  0
 28 27  1  0
 28 39  1  0
 28 29  1  1
 30 31  2  0
 30 29  1  0
 32 31  1  0
 33 38  2  0
 33 32  1  0
 34 33  1  0
 35 36  1  0
 35 34  2  0
 36 37  2  0
 37 38  1  0
 38 30  1  0
 39 41  1  0
 40 39  2  0
M  END
$$$$
