WYW.pdb
     RDKit          3D

 41 45  0  0  1  0  0  0  0  0999 V2000
   26.8234  -21.2503  -14.3232 N   0  0  0  0  0  0  0  0  0  0  0  0
   26.5725  -19.8768  -13.9129 C   0  0  1  0  0  0  0  0  0  0  0  0
   27.8397  -19.3589  -13.2776 C   0  0  0  0  0  0  0  0  0  0  0  0
   28.2715  -20.1449  -12.1059 C   0  0  0  0  0  0  0  0  0  0  0  0
   29.4803  -20.7927  -11.9756 C   0  0  0  0  0  0  0  0  0  0  0  0
   29.5206  -21.4092  -10.7646 N   0  0  0  0  0  0  0  0  0  0  0  0
   28.3765  -21.1851  -10.1009 C   0  0  0  0  0  0  0  0  0  0  0  0
   27.9325  -21.5786   -8.8591 C   0  0  0  0  0  0  0  0  0  0  0  0
   26.6837  -21.1809   -8.4336 C   0  0  0  0  0  0  0  0  0  0  0  0
   25.9096  -20.3949   -9.2698 C   0  0  0  0  0  0  0  0  0  0  0  0
   26.3491  -19.9942  -10.5223 C   0  0  0  0  0  0  0  0  0  0  0  0
   27.5902  -20.3946  -10.9334 C   0  0  0  0  0  0  0  0  0  0  0  0
   26.2001  -19.1127  -15.1222 C   0  0  0  0  0  0  0  0  0  0  0  0
   25.9939  -17.8685  -15.0341 O   0  0  0  0  0  0  0  0  0  0  0  0
   25.1718  -15.8349  -23.1956 O   0  0  0  0  0  0  0  0  0  0  0  0
   25.4757  -16.6082  -22.0931 C   0  0  0  0  0  0  0  0  0  0  0  0
   26.1091  -16.0897  -20.9841 C   0  0  0  0  0  0  0  0  0  0  0  0
   26.3975  -16.8814  -19.9074 C   0  0  0  0  0  0  0  0  0  0  0  0
   26.0867  -18.2240  -19.8433 C   0  0  0  0  0  0  0  0  0  0  0  0
   26.4516  -19.0689  -18.7075 C   0  0  0  0  0  0  0  0  0  0  0  0
   25.5086  -18.9436  -17.5694 C   0  0  2  0  0  0  0  0  0  0  0  0
   26.0543  -19.6789  -16.4005 N   0  0  0  0  0  0  0  0  0  0  0  0
   24.1419  -19.4540  -17.7637 C   0  0  0  0  0  0  0  0  0  0  0  0
   23.9802  -20.4780  -18.5367 O   0  0  0  0  0  0  0  0  0  0  0  0
   25.4461  -18.7350  -20.9716 C   0  0  0  0  0  0  0  0  0  0  0  0
   25.1538  -17.9501  -22.0564 C   0  0  0  0  0  0  0  0  0  0  0  0
   22.9375  -18.9696  -17.2010 N   0  0  0  0  0  0  0  0  0  0  0  0
   21.6985  -19.6919  -17.2326 C   0  0  1  0  0  0  0  0  0  0  0  0
   21.8027  -21.0979  -16.7072 C   0  0  0  0  0  0  0  0  0  0  0  0
   22.1396  -21.0257  -15.2639 C   0  0  0  0  0  0  0  0  0  0  0  0
   21.5945  -20.1726  -14.3102 C   0  0  0  0  0  0  0  0  0  0  0  0
   22.1585  -20.3941  -13.1108 N   0  0  0  0  0  0  0  0  0  0  0  0
   23.0695  -21.3731  -13.2290 C   0  0  0  0  0  0  0  0  0  0  0  0
   23.9099  -21.9671  -12.3092 C   0  0  0  0  0  0  0  0  0  0  0  0
   24.7799  -22.9790  -12.6796 C   0  0  0  0  0  0  0  0  0  0  0  0
   24.7731  -23.3687  -13.9956 C   0  0  0  0  0  0  0  0  0  0  0  0
   23.9348  -22.7766  -14.9085 C   0  0  0  0  0  0  0  0  0  0  0  0
   23.0656  -21.7688  -14.5519 C   0  0  0  0  0  0  0  0  0  0  0  0
   20.6059  -18.9158  -16.6526 C   0  0  0  0  0  0  0  0  0  0  0  0
   20.7463  -17.7922  -16.1123 O   0  0  0  0  0  0  0  0  0  0  0  0
   19.2787  -19.3937  -16.6649 O   0  0  0  0  0  0  0  0  0  0  0  0
  2  3  1  0
  2  1  1  6
  4  5  2  0
  4  3  1  0
  6  5  1  0
  7 12  2  0
  7  6  1  0
  8  7  1  0
  9 10  1  0
  9  8  2  0
 10 11  2  0
 11 12  1  0
 12  4  1  0
 13  2  1  0
 14 13  2  0
 16 15  1  0
 16 17  2  0
 18 17  1  0
 19 18  2  0
 20 19  1  0
 21 20  1  6
 21 22  1  0
 22 13  1  0
 23 21  1  0
 23 27  1  0
 24 23  2  0
 25 26  2  0
 25 19  1  0
 26 16  1  0
 28 27  1  0
 28 39  1  0
 28 29  1  1
 30 31  2  0
 30 29  1  0
 32 31  1  0
 33 38  2  0
 33 32  1  0
 34 33  1  0
 35 36  1  0
 35 34  2  0
 36 37  2  0
 37 38  1  0
 38 30  1  0
 39 41  1  0
 40 39  2  0
M  END
$$$$
