WYW.pdb
     RDKit          3D

 41 45  0  0  1  0  0  0  0  0999 V2000
   25.9962  -18.1291  -16.7039 N   0  0  0  0  0  0  0  0  0  0  0  0
   26.6253  -18.1173  -15.3917 C   0  0  1  0  0  0  0  0  0  0  0  0
   27.2567  -16.7590  -15.2082 C   0  0  0  0  0  0  0  0  0  0  0  0
   28.2615  -16.4357  -16.2394 C   0  0  0  0  0  0  0  0  0  0  0  0
   28.2833  -15.2925  -17.0078 C   0  0  0  0  0  0  0  0  0  0  0  0
   29.3531  -15.3455  -17.8450 N   0  0  0  0  0  0  0  0  0  0  0  0
   30.0296  -16.4871  -17.6479 C   0  0  0  0  0  0  0  0  0  0  0  0
   31.1651  -17.0041  -18.2288 C   0  0  0  0  0  0  0  0  0  0  0  0
   31.6398  -18.2271  -17.8071 C   0  0  0  0  0  0  0  0  0  0  0  0
   30.9590  -18.9023  -16.8086 C   0  0  0  0  0  0  0  0  0  0  0  0
   29.8143  -18.3887  -16.2184 C   0  0  0  0  0  0  0  0  0  0  0  0
   29.3531  -17.1742  -16.6447 C   0  0  0  0  0  0  0  0  0  0  0  0
   25.5708  -18.3840  -14.3908 C   0  0  0  0  0  0  0  0  0  0  0  0
   24.5876  -17.5949  -14.2962 O   0  0  0  0  0  0  0  0  0  0  0  0
   19.5451  -21.8074   -9.1384 O   0  0  0  0  0  0  0  0  0  0  0  0
   20.4610  -21.4463  -10.1060 C   0  0  0  0  0  0  0  0  0  0  0  0
   21.4414  -22.3085  -10.5478 C   0  0  0  0  0  0  0  0  0  0  0  0
   22.3350  -21.9212  -11.5074 C   0  0  0  0  0  0  0  0  0  0  0  0
   22.3288  -20.6735  -12.0960 C   0  0  0  0  0  0  0  0  0  0  0  0
   23.3257  -20.2564  -13.0805 C   0  0  0  0  0  0  0  0  0  0  0  0
   24.5507  -19.6967  -12.4590 C   0  0  2  0  0  0  0  0  0  0  0  0
   25.5762  -19.4802  -13.5109 N   0  0  0  0  0  0  0  0  0  0  0  0
   25.2078  -20.5002  -11.4156 C   0  0  0  0  0  0  0  0  0  0  0  0
   25.9241  -21.5103  -11.7880 O   0  0  0  0  0  0  0  0  0  0  0  0
   21.3318  -19.8119  -11.6399 C   0  0  0  0  0  0  0  0  0  0  0  0
   20.4322  -20.1900  -10.6776 C   0  0  0  0  0  0  0  0  0  0  0  0
   25.1700  -20.3151  -10.0134 N   0  0  0  0  0  0  0  0  0  0  0  0
   25.8063  -21.1969   -9.0778 C   0  0  1  0  0  0  0  0  0  0  0  0
   27.2917  -20.9876   -8.9611 C   0  0  0  0  0  0  0  0  0  0  0  0
   27.5298  -19.9460   -7.9314 C   0  0  0  0  0  0  0  0  0  0  0  0
   27.1302  -18.6142   -7.9678 C   0  0  0  0  0  0  0  0  0  0  0  0
   27.5380  -17.9754   -6.8581 N   0  0  0  0  0  0  0  0  0  0  0  0
   28.2019  -18.8394   -6.0740 C   0  0  0  0  0  0  0  0  0  0  0  0
   28.8113  -18.6888   -4.8447 C   0  0  0  0  0  0  0  0  0  0  0  0
   29.4462  -19.7508   -4.2227 C   0  0  0  0  0  0  0  0  0  0  0  0
   29.4451  -20.9584   -4.8752 C   0  0  0  0  0  0  0  0  0  0  0  0
   28.8367  -21.1057   -6.0979 C   0  0  0  0  0  0  0  0  0  0  0  0
   28.2026  -20.0563   -6.7266 C   0  0  0  0  0  0  0  0  0  0  0  0
   25.1036  -21.2249   -7.7980 C   0  0  0  0  0  0  0  0  0  0  0  0
   25.5122  -21.8351   -6.7807 O   0  0  0  0  0  0  0  0  0  0  0  0
   23.8817  -20.5438   -7.6163 O   0  0  0  0  0  0  0  0  0  0  0  0
  2  3  1  0
  2  1  1  6
  4  5  2  0
  4  3  1  0
  6  5  1  0
  7 12  2  0
  7  6  1  0
  8  7  1  0
  9 10  1  0
  9  8  2  0
 10 11  2  0
 11 12  1  0
 12  4  1  0
 13  2  1  0
 14 13  2  0
 16 15  1  0
 16 17  2  0
 18 17  1  0
 19 18  2  0
 20 19  1  0
 21 20  1  6
 21 22  1  0
 22 13  1  0
 23 21  1  0
 23 27  1  0
 24 23  2  0
 25 26  2  0
 25 19  1  0
 26 16  1  0
 28 27  1  0
 28 39  1  0
 28 29  1  1
 30 31  2  0
 30 29  1  0
 32 31  1  0
 33 38  2  0
 33 32  1  0
 34 33  1  0
 35 36  1  0
 35 34  2  0
 36 37  2  0
 37 38  1  0
 38 30  1  0
 39 41  1  0
 40 39  2  0
M  END
$$$$
