WYW.pdb
     RDKit          3D

 41 45  0  0  1  0  0  0  0  0999 V2000
   23.2810  -16.1422  -17.9971 N   0  0  0  0  0  0  0  0  0  0  0  0
   24.4225  -16.8416  -17.4264 C   0  0  1  0  0  0  0  0  0  0  0  0
   25.6150  -15.9237  -17.5406 C   0  0  0  0  0  0  0  0  0  0  0  0
   26.1428  -15.8170  -18.9144 C   0  0  0  0  0  0  0  0  0  0  0  0
   26.0608  -14.7032  -19.7211 C   0  0  0  0  0  0  0  0  0  0  0  0
   26.6555  -14.9782  -20.9123 N   0  0  0  0  0  0  0  0  0  0  0  0
   27.1221  -16.2359  -20.9089 C   0  0  0  0  0  0  0  0  0  0  0  0
   27.7934  -16.9785  -21.8535 C   0  0  0  0  0  0  0  0  0  0  0  0
   28.1581  -18.2737  -21.5569 C   0  0  0  0  0  0  0  0  0  0  0  0
   27.8380  -18.7922  -20.3139 C   0  0  0  0  0  0  0  0  0  0  0  0
   27.1619  -18.0512  -19.3568 C   0  0  0  0  0  0  0  0  0  0  0  0
   26.8056  -16.7670  -19.6623 C   0  0  0  0  0  0  0  0  0  0  0  0
   24.0925  -17.1579  -16.0207 C   0  0  0  0  0  0  0  0  0  0  0  0
   23.5106  -16.2915  -15.3071 O   0  0  0  0  0  0  0  0  0  0  0  0
   20.9783  -21.0420   -8.8938 O   0  0  0  0  0  0  0  0  0  0  0  0
   21.3548  -20.6069  -10.1486 C   0  0  0  0  0  0  0  0  0  0  0  0
   21.8845  -21.4594  -11.0934 C   0  0  0  0  0  0  0  0  0  0  0  0
   22.2487  -20.9982  -12.3279 C   0  0  0  0  0  0  0  0  0  0  0  0
   22.1191  -19.6815  -12.7187 C   0  0  0  0  0  0  0  0  0  0  0  0
   22.5648  -19.1940  -14.0228 C   0  0  0  0  0  0  0  0  0  0  0  0
   23.9709  -18.7216  -14.0118 C   0  0  2  0  0  0  0  0  0  0  0  0
   24.3829  -18.3841  -15.3979 N   0  0  0  0  0  0  0  0  0  0  0  0
   24.9928  -19.6505  -13.5031 C   0  0  0  0  0  0  0  0  0  0  0  0
   25.5049  -20.5024  -14.3302 O   0  0  0  0  0  0  0  0  0  0  0  0
   21.5818  -18.8306  -11.7534 C   0  0  0  0  0  0  0  0  0  0  0  0
   21.2148  -19.2828  -10.5127 C   0  0  0  0  0  0  0  0  0  0  0  0
   25.5171  -19.7441  -12.1922 N   0  0  0  0  0  0  0  0  0  0  0  0
   26.5440  -20.6702  -11.8110 C   0  0  1  0  0  0  0  0  0  0  0  0
   27.4255  -20.1736  -10.6973 C   0  0  0  0  0  0  0  0  0  0  0  0
   26.7786  -20.5228   -9.4083 C   0  0  0  0  0  0  0  0  0  0  0  0
   25.7785  -21.4651   -9.1922 C   0  0  0  0  0  0  0  0  0  0  0  0
   25.4379  -21.4926   -7.8926 N   0  0  0  0  0  0  0  0  0  0  0  0
   26.1805  -20.5947   -7.2259 C   0  0  0  0  0  0  0  0  0  0  0  0
   26.2201  -20.2380   -5.8931 C   0  0  0  0  0  0  0  0  0  0  0  0
   27.0904  -19.2625   -5.4360 C   0  0  0  0  0  0  0  0  0  0  0  0
   27.9122  -18.6654   -6.3590 C   0  0  0  0  0  0  0  0  0  0  0  0
   27.8715  -19.0233   -7.6845 C   0  0  0  0  0  0  0  0  0  0  0  0
   27.0096  -19.9917   -8.1509 C   0  0  0  0  0  0  0  0  0  0  0  0
   26.0091  -22.0122  -11.5976 C   0  0  0  0  0  0  0  0  0  0  0  0
   24.7874  -22.2974  -11.6176 O   0  0  0  0  0  0  0  0  0  0  0  0
   26.8589  -23.1104  -11.3494 O   0  0  0  0  0  0  0  0  0  0  0  0
  2  3  1  0
  2  1  1  1
  4  5  2  0
  4  3  1  0
  6  5  1  0
  7 12  2  0
  7  6  1  0
  8  7  1  0
  9 10  1  0
  9  8  2  0
 10 11  2  0
 11 12  1  0
 12  4  1  0
 13  2  1  0
 14 13  2  0
 16 15  1  0
 16 17  2  0
 18 17  1  0
 19 18  2  0
 20 19  1  0
 21 20  1  6
 21 22  1  0
 22 13  1  0
 23 21  1  0
 23 27  1  0
 24 23  2  0
 25 26  2  0
 25 19  1  0
 26 16  1  0
 28 27  1  0
 28 39  1  0
 28 29  1  1
 30 31  2  0
 30 29  1  0
 32 31  1  0
 33 38  2  0
 33 32  1  0
 34 33  1  0
 35 36  1  0
 35 34  2  0
 36 37  2  0
 37 38  1  0
 38 30  1  0
 39 41  1  0
 40 39  2  0
M  END
$$$$
