WYW.pdb
     RDKit          3D

 41 45  0  0  1  0  0  0  0  0999 V2000
   26.8304  -20.7848  -15.4849 N   0  0  0  0  0  0  0  0  0  0  0  0
   25.8559  -19.9040  -14.8585 C   0  0  1  0  0  0  0  0  0  0  0  0
   25.1552  -19.1512  -15.9629 C   0  0  0  0  0  0  0  0  0  0  0  0
   25.9874  -18.0962  -16.5725 C   0  0  0  0  0  0  0  0  0  0  0  0
   26.3800  -18.0464  -17.8921 C   0  0  0  0  0  0  0  0  0  0  0  0
   27.1353  -16.9324  -18.0845 N   0  0  0  0  0  0  0  0  0  0  0  0
   27.2486  -16.2544  -16.9325 C   0  0  0  0  0  0  0  0  0  0  0  0
   27.8934  -15.0832  -16.6055 C   0  0  0  0  0  0  0  0  0  0  0  0
   27.8278  -14.6178  -15.3102 C   0  0  0  0  0  0  0  0  0  0  0  0
   27.1133  -15.3436  -14.3726 C   0  0  0  0  0  0  0  0  0  0  0  0
   26.4611  -16.5242  -14.6935 C   0  0  0  0  0  0  0  0  0  0  0  0
   26.5329  -16.9759  -15.9821 C   0  0  0  0  0  0  0  0  0  0  0  0
   24.9264  -20.7508  -14.0814 C   0  0  0  0  0  0  0  0  0  0  0  0
   24.7879  -21.9692  -14.3894 O   0  0  0  0  0  0  0  0  0  0  0  0
   29.0588  -21.8200   -9.1820 O   0  0  0  0  0  0  0  0  0  0  0  0
   27.7527  -21.5626   -9.5471 C   0  0  0  0  0  0  0  0  0  0  0  0
   26.9632  -20.6614   -8.8655 C   0  0  0  0  0  0  0  0  0  0  0  0
   25.6724  -20.4284   -9.2510 C   0  0  0  0  0  0  0  0  0  0  0  0
   25.0716  -21.0562  -10.3225 C   0  0  0  0  0  0  0  0  0  0  0  0
   23.6731  -20.8369  -10.6876 C   0  0  0  0  0  0  0  0  0  0  0  0
   23.3843  -21.1875  -12.0997 C   0  0  2  0  0  0  0  0  0  0  0  0
   24.1630  -20.2931  -12.9935 N   0  0  0  0  0  0  0  0  0  0  0  0
   21.9864  -21.0879  -12.5493 C   0  0  0  0  0  0  0  0  0  0  0  0
   21.3929  -19.9444  -12.4386 O   0  0  0  0  0  0  0  0  0  0  0  0
   25.8816  -21.9647  -11.0030 C   0  0  0  0  0  0  0  0  0  0  0  0
   27.1762  -22.2063  -10.6237 C   0  0  0  0  0  0  0  0  0  0  0  0
   21.1722  -22.1000  -13.1101 N   0  0  0  0  0  0  0  0  0  0  0  0
   19.8171  -21.8883  -13.5301 C   0  0  1  0  0  0  0  0  0  0  0  0
   19.4364  -22.6624  -14.7629 C   0  0  0  0  0  0  0  0  0  0  0  0
   20.0565  -21.9955  -15.9345 C   0  0  0  0  0  0  0  0  0  0  0  0
   20.8262  -20.8369  -15.9384 C   0  0  0  0  0  0  0  0  0  0  0  0
   21.2039  -20.5333  -17.1917 N   0  0  0  0  0  0  0  0  0  0  0  0
   20.7101  -21.4549  -18.0337 C   0  0  0  0  0  0  0  0  0  0  0  0
   20.8077  -21.6000  -19.4028 C   0  0  0  0  0  0  0  0  0  0  0  0
   20.1975  -22.6562  -20.0586 C   0  0  0  0  0  0  0  0  0  0  0  0
   19.4935  -23.5531  -19.2946 C   0  0  0  0  0  0  0  0  0  0  0  0
   19.3993  -23.4070  -17.9320 C   0  0  0  0  0  0  0  0  0  0  0  0
   20.0014  -22.3601  -17.2688 C   0  0  0  0  0  0  0  0  0  0  0  0
   18.8788  -22.0313  -12.4203 C   0  0  0  0  0  0  0  0  0  0  0  0
   17.6325  -21.9390  -12.5322 O   0  0  0  0  0  0  0  0  0  0  0  0
   19.3275  -22.2934  -11.1088 O   0  0  0  0  0  0  0  0  0  0  0  0
  2  3  1  0
  2  1  1  6
  4  5  2  0
  4  3  1  0
  6  5  1  0
  7 12  2  0
  7  6  1  0
  8  7  1  0
  9 10  1  0
  9  8  2  0
 10 11  2  0
 11 12  1  0
 12  4  1  0
 13  2  1  0
 14 13  2  0
 16 15  1  0
 16 17  2  0
 18 17  1  0
 19 18  2  0
 20 19  1  0
 21 20  1  1
 21 22  1  0
 22 13  1  0
 23 21  1  0
 23 27  1  0
 24 23  2  0
 25 26  2  0
 25 19  1  0
 26 16  1  0
 28 27  1  0
 28 39  1  0
 28 29  1  6
 30 31  2  0
 30 29  1  0
 32 31  1  0
 33 38  2  0
 33 32  1  0
 34 33  1  0
 35 36  1  0
 35 34  2  0
 36 37  2  0
 37 38  1  0
 38 30  1  0
 39 41  1  0
 40 39  2  0
M  END
$$$$
