WYW.pdb
     RDKit          3D

 41 45  0  0  1  0  0  0  0  0999 V2000
   26.3639  -16.7940  -17.9341 N   0  0  0  0  0  0  0  0  0  0  0  0
   27.0742  -17.4099  -16.8233 C   0  0  1  0  0  0  0  0  0  0  0  0
   27.2948  -16.3398  -15.7822 C   0  0  0  0  0  0  0  0  0  0  0  0
   28.2418  -15.2923  -16.2101 C   0  0  0  0  0  0  0  0  0  0  0  0
   28.0144  -13.9346  -16.1562 C   0  0  0  0  0  0  0  0  0  0  0  0
   29.1095  -13.2859  -16.6340 N   0  0  0  0  0  0  0  0  0  0  0  0
   30.0438  -14.1769  -16.9985 C   0  0  0  0  0  0  0  0  0  0  0  0
   31.3063  -14.0329  -17.5271 C   0  0  0  0  0  0  0  0  0  0  0  0
   32.0536  -15.1576  -17.8013 C   0  0  0  0  0  0  0  0  0  0  0  0
   31.5114  -16.4035  -17.5365 C   0  0  0  0  0  0  0  0  0  0  0  0
   30.2404  -16.5575  -17.0044 C   0  0  0  0  0  0  0  0  0  0  0  0
   29.5085  -15.4342  -16.7360 C   0  0  0  0  0  0  0  0  0  0  0  0
   26.2353  -18.5172  -16.3185 C   0  0  0  0  0  0  0  0  0  0  0  0
   24.9759  -18.4155  -16.3637 O   0  0  0  0  0  0  0  0  0  0  0  0
   22.5525  -26.2091  -14.6992 O   0  0  0  0  0  0  0  0  0  0  0  0
   23.4292  -25.2026  -15.0511 C   0  0  0  0  0  0  0  0  0  0  0  0
   24.7295  -25.1682  -14.5951 C   0  0  0  0  0  0  0  0  0  0  0  0
   25.5741  -24.1572  -14.9608 C   0  0  0  0  0  0  0  0  0  0  0  0
   25.2062  -23.1197  -15.7924 C   0  0  0  0  0  0  0  0  0  0  0  0
   26.1048  -22.0168  -16.1291 C   0  0  0  0  0  0  0  0  0  0  0  0
   25.8908  -20.8193  -15.2804 C   0  0  2  0  0  0  0  0  0  0  0  0
   26.7444  -19.7104  -15.7772 N   0  0  0  0  0  0  0  0  0  0  0  0
   26.1898  -20.9451  -13.8448 C   0  0  0  0  0  0  0  0  0  0  0  0
   27.3946  -21.2653  -13.5012 O   0  0  0  0  0  0  0  0  0  0  0  0
   23.8886  -23.1672  -16.2463 C   0  0  0  0  0  0  0  0  0  0  0  0
   23.0338  -24.1756  -15.8845 C   0  0  0  0  0  0  0  0  0  0  0  0
   25.3168  -20.7539  -12.7480 N   0  0  0  0  0  0  0  0  0  0  0  0
   24.8527  -21.8187  -11.9063 C   0  0  1  0  0  0  0  0  0  0  0  0
   25.8847  -22.3130  -10.9293 C   0  0  0  0  0  0  0  0  0  0  0  0
   26.0843  -21.2626   -9.9005 C   0  0  0  0  0  0  0  0  0  0  0  0
   25.1209  -20.4227   -9.3517 C   0  0  0  0  0  0  0  0  0  0  0  0
   25.6823  -19.5930   -8.4561 N   0  0  0  0  0  0  0  0  0  0  0  0
   26.9980  -19.8497   -8.3855 C   0  0  0  0  0  0  0  0  0  0  0  0
   28.0082  -19.2884   -7.6308 C   0  0  0  0  0  0  0  0  0  0  0  0
   29.3156  -19.7330   -7.7361 C   0  0  0  0  0  0  0  0  0  0  0  0
   29.5673  -20.7535   -8.6188 C   0  0  0  0  0  0  0  0  0  0  0  0
   28.5598  -21.3110   -9.3677 C   0  0  0  0  0  0  0  0  0  0  0  0
   27.2558  -20.8767   -9.2719 C   0  0  0  0  0  0  0  0  0  0  0  0
   23.5595  -21.5068  -11.3039 C   0  0  0  0  0  0  0  0  0  0  0  0
   22.9011  -22.3030  -10.5921 O   0  0  0  0  0  0  0  0  0  0  0  0
   22.9484  -20.2487  -11.4875 O   0  0  0  0  0  0  0  0  0  0  0  0
  2  3  1  0
  2  1  1  6
  4  5  2  0
  4  3  1  0
  6  5  1  0
  7 12  2  0
  7  6  1  0
  8  7  1  0
  9 10  1  0
  9  8  2  0
 10 11  2  0
 11 12  1  0
 12  4  1  0
 13  2  1  0
 14 13  2  0
 16 15  1  0
 16 17  2  0
 18 17  1  0
 19 18  2  0
 20 19  1  0
 21 20  1  6
 21 22  1  0
 22 13  1  0
 23 21  1  0
 23 27  1  0
 24 23  2  0
 25 26  2  0
 25 19  1  0
 26 16  1  0
 28 27  1  0
 28 39  1  0
 28 29  1  1
 30 31  2  0
 30 29  1  0
 32 31  1  0
 33 38  2  0
 33 32  1  0
 34 33  1  0
 35 36  1  0
 35 34  2  0
 36 37  2  0
 37 38  1  0
 38 30  1  0
 39 41  1  0
 40 39  2  0
M  END
$$$$
