WYW.pdb
     RDKit          3D

 41 45  0  0  1  0  0  0  0  0999 V2000
   24.5884  -17.6630  -18.7749 N   0  0  0  0  0  0  0  0  0  0  0  0
   24.2273  -18.2004  -17.4716 C   0  0  1  0  0  0  0  0  0  0  0  0
   22.9539  -18.9908  -17.6485 C   0  0  0  0  0  0  0  0  0  0  0  0
   21.7781  -18.1494  -17.9430 C   0  0  0  0  0  0  0  0  0  0  0  0
   21.0902  -18.1214  -19.1363 C   0  0  0  0  0  0  0  0  0  0  0  0
   20.0698  -17.2288  -19.0349 N   0  0  0  0  0  0  0  0  0  0  0  0
   20.0704  -16.6729  -17.8140 C   0  0  0  0  0  0  0  0  0  0  0  0
   19.2567  -15.7338  -17.2223 C   0  0  0  0  0  0  0  0  0  0  0  0
   19.5040  -15.3526  -15.9214 C   0  0  0  0  0  0  0  0  0  0  0  0
   20.5667  -15.9269  -15.2453 C   0  0  0  0  0  0  0  0  0  0  0  0
   21.3914  -16.8734  -15.8339 C   0  0  0  0  0  0  0  0  0  0  0  0
   21.1358  -17.2441  -17.1249 C   0  0  0  0  0  0  0  0  0  0  0  0
   25.3505  -19.0444  -17.0122 C   0  0  0  0  0  0  0  0  0  0  0  0
   25.9557  -19.7819  -17.8418 O   0  0  0  0  0  0  0  0  0  0  0  0
   29.9984  -15.4773  -18.8279 O   0  0  0  0  0  0  0  0  0  0  0  0
   29.5100  -16.3252  -17.8543 C   0  0  0  0  0  0  0  0  0  0  0  0
   28.4977  -15.9527  -16.9961 C   0  0  0  0  0  0  0  0  0  0  0  0
   28.0356  -16.8149  -16.0410 C   0  0  0  0  0  0  0  0  0  0  0  0
   28.5284  -18.0912  -15.8633 C   0  0  0  0  0  0  0  0  0  0  0  0
   28.0614  -18.9807  -14.8014 C   0  0  0  0  0  0  0  0  0  0  0  0
   26.9818  -19.8946  -15.2482 C   0  0  2  0  0  0  0  0  0  0  0  0
   25.8122  -19.0909  -15.6853 N   0  0  0  0  0  0  0  0  0  0  0  0
   26.4625  -20.8597  -14.2659 C   0  0  0  0  0  0  0  0  0  0  0  0
   27.2098  -21.8668  -13.9505 O   0  0  0  0  0  0  0  0  0  0  0  0
   29.5515  -18.4548  -16.7382 C   0  0  0  0  0  0  0  0  0  0  0  0
   30.0227  -17.5974  -17.6981 C   0  0  0  0  0  0  0  0  0  0  0  0
   25.2199  -20.8389  -13.5896 N   0  0  0  0  0  0  0  0  0  0  0  0
   24.8453  -21.7924  -12.5855 C   0  0  1  0  0  0  0  0  0  0  0  0
   25.8493  -21.9272  -11.4729 C   0  0  0  0  0  0  0  0  0  0  0  0
   25.9119  -20.6325  -10.7506 C   0  0  0  0  0  0  0  0  0  0  0  0
   25.2526  -19.4512  -11.0740 C   0  0  0  0  0  0  0  0  0  0  0  0
   25.5649  -18.4872  -10.1915 N   0  0  0  0  0  0  0  0  0  0  0  0
   26.4170  -18.9853   -9.2817 C   0  0  0  0  0  0  0  0  0  0  0  0
   27.0290  -18.4171   -8.1826 C   0  0  0  0  0  0  0  0  0  0  0  0
   27.8864  -19.1498   -7.3790 C   0  0  0  0  0  0  0  0  0  0  0  0
   28.1030  -20.4623   -7.7169 C   0  0  0  0  0  0  0  0  0  0  0  0
   27.4916  -21.0256   -8.8104 C   0  0  0  0  0  0  0  0  0  0  0  0
   26.6373  -20.3064   -9.6175 C   0  0  0  0  0  0  0  0  0  0  0  0
   23.4727  -21.5875  -12.1312 C   0  0  0  0  0  0  0  0  0  0  0  0
   22.7549  -20.6147  -12.4671 O   0  0  0  0  0  0  0  0  0  0  0  0
   22.8439  -22.5008  -11.2592 O   0  0  0  0  0  0  0  0  0  0  0  0
  2  3  1  0
  2  1  1  6
  4  5  2  0
  4  3  1  0
  6  5  1  0
  7 12  2  0
  7  6  1  0
  8  7  1  0
  9 10  1  0
  9  8  2  0
 10 11  2  0
 11 12  1  0
 12  4  1  0
 13  2  1  0
 14 13  2  0
 16 15  1  0
 16 17  2  0
 18 17  1  0
 19 18  2  0
 20 19  1  0
 21 20  1  1
 21 22  1  0
 22 13  1  0
 23 21  1  0
 23 27  1  0
 24 23  2  0
 25 26  2  0
 25 19  1  0
 26 16  1  0
 28 27  1  0
 28 39  1  0
 28 29  1  1
 30 31  2  0
 30 29  1  0
 32 31  1  0
 33 38  2  0
 33 32  1  0
 34 33  1  0
 35 36  1  0
 35 34  2  0
 36 37  2  0
 37 38  1  0
 38 30  1  0
 39 41  1  0
 40 39  2  0
M  END
$$$$
