WYW.pdb
     RDKit          3D

 41 45  0  0  1  0  0  0  0  0999 V2000
   16.0065  -27.8597    5.5887 N   0  0  0  0  0  0  0  0  0  0  0  0
   17.4600  -27.8550    5.5181 C   0  0  1  0  0  0  0  0  0  0  0  0
   17.9086  -26.4156    5.5851 C   0  0  0  0  0  0  0  0  0  0  0  0
   17.7734  -25.6994    4.3021 C   0  0  0  0  0  0  0  0  0  0  0  0
   16.7970  -24.7765    3.9975 C   0  0  0  0  0  0  0  0  0  0  0  0
   16.9934  -24.3312    2.7281 N   0  0  0  0  0  0  0  0  0  0  0  0
   18.0662  -24.9345    2.1945 C   0  0  0  0  0  0  0  0  0  0  0  0
   18.6726  -24.8293    0.9635 C   0  0  0  0  0  0  0  0  0  0  0  0
   19.7907  -25.5891    0.6968 C   0  0  0  0  0  0  0  0  0  0  0  0
   20.2733  -26.4387    1.6775 C   0  0  0  0  0  0  0  0  0  0  0  0
   19.6684  -26.5509    2.9200 C   0  0  0  0  0  0  0  0  0  0  0  0
   18.5598  -25.7916    3.1732 C   0  0  0  0  0  0  0  0  0  0  0  0
   17.9628  -28.6514    6.6574 C   0  0  0  0  0  0  0  0  0  0  0  0
   17.1413  -29.2409    7.4163 O   0  0  0  0  0  0  0  0  0  0  0  0
   21.9125  -33.2096    2.8248 O   0  0  0  0  0  0  0  0  0  0  0  0
   21.3069  -32.7065    3.9586 C   0  0  0  0  0  0  0  0  0  0  0  0
   21.9017  -32.7730    5.2003 C   0  0  0  0  0  0  0  0  0  0  0  0
   21.2761  -32.2662    6.3053 C   0  0  0  0  0  0  0  0  0  0  0  0
   20.0356  -31.6636    6.2699 C   0  0  0  0  0  0  0  0  0  0  0  0
   19.3563  -31.1767    7.4693 C   0  0  0  0  0  0  0  0  0  0  0  0
   19.8392  -29.8432    7.9041 C   0  0  2  0  0  0  0  0  0  0  0  0
   19.3239  -28.8096    6.9707 N   0  0  0  0  0  0  0  0  0  0  0  0
   21.2953  -29.6385    7.9673 C   0  0  0  0  0  0  0  0  0  0  0  0
   21.9304  -29.4470    6.8573 O   0  0  0  0  0  0  0  0  0  0  0  0
   19.4458  -31.6029    5.0078 C   0  0  0  0  0  0  0  0  0  0  0  0
   20.0640  -32.1091    3.8943 C   0  0  0  0  0  0  0  0  0  0  0  0
   22.1280  -29.6155    9.1110 N   0  0  0  0  0  0  0  0  0  0  0  0
   22.0973  -28.5728   10.0957 C   0  0  1  0  0  0  0  0  0  0  0  0
   20.7240  -28.2986   10.6459 C   0  0  0  0  0  0  0  0  0  0  0  0
   20.8226  -27.1457   11.5748 C   0  0  0  0  0  0  0  0  0  0  0  0
   21.5197  -27.0857   12.7769 C   0  0  0  0  0  0  0  0  0  0  0  0
   21.3658  -25.8774   13.3444 N   0  0  0  0  0  0  0  0  0  0  0  0
   20.5838  -25.1205   12.5585 C   0  0  0  0  0  0  0  0  0  0  0  0
   20.1297  -23.8231   12.6842 C   0  0  0  0  0  0  0  0  0  0  0  0
   19.3159  -23.2503   11.7210 C   0  0  0  0  0  0  0  0  0  0  0  0
   18.9798  -24.0220   10.6368 C   0  0  0  0  0  0  0  0  0  0  0  0
   19.4343  -25.3123   10.5137 C   0  0  0  0  0  0  0  0  0  0  0  0
   20.2436  -25.8929   11.4656 C   0  0  0  0  0  0  0  0  0  0  0  0
   23.1238  -28.7637   11.1166 C   0  0  0  0  0  0  0  0  0  0  0  0
   23.6515  -29.8687   11.3904 O   0  0  0  0  0  0  0  0  0  0  0  0
   23.6057  -27.6827   11.8843 O   0  0  0  0  0  0  0  0  0  0  0  0
  2  3  1  0
  2  1  1  1
  4  5  2  0
  4  3  1  0
  6  5  1  0
  7 12  2  0
  7  6  1  0
  8  7  1  0
  9 10  1  0
  9  8  2  0
 10 11  2  0
 11 12  1  0
 12  4  1  0
 13  2  1  0
 14 13  2  0
 16 15  1  0
 16 17  2  0
 18 17  1  0
 19 18  2  0
 20 19  1  0
 21 20  1  6
 21 22  1  0
 22 13  1  0
 23 21  1  0
 23 27  1  0
 24 23  2  0
 25 26  2  0
 25 19  1  0
 26 16  1  0
 28 27  1  0
 28 39  1  0
 28 29  1  1
 30 31  2  0
 30 29  1  0
 32 31  1  0
 33 38  2  0
 33 32  1  0
 34 33  1  0
 35 36  1  0
 35 34  2  0
 36 37  2  0
 37 38  1  0
 38 30  1  0
 39 41  1  0
 40 39  2  0
M  END
$$$$
