WYW.pdb
     RDKit          3D

 41 45  0  0  1  0  0  0  0  0999 V2000
   26.6991  -22.7849  -14.1536 N   0  0  0  0  0  0  0  0  0  0  0  0
   26.0489  -21.9479  -13.1565 C   0  0  1  0  0  0  0  0  0  0  0  0
   26.7537  -20.6134  -13.1611 C   0  0  0  0  0  0  0  0  0  0  0  0
   27.7662  -20.4818  -12.0958 C   0  0  0  0  0  0  0  0  0  0  0  0
   29.1038  -20.7882  -12.2179 C   0  0  0  0  0  0  0  0  0  0  0  0
   29.7219  -20.5399  -11.0328 N   0  0  0  0  0  0  0  0  0  0  0  0
   28.8303  -20.0821  -10.1411 C   0  0  0  0  0  0  0  0  0  0  0  0
   28.9503  -19.6898   -8.8274 C   0  0  0  0  0  0  0  0  0  0  0  0
   27.8331  -19.2496   -8.1515 C   0  0  0  0  0  0  0  0  0  0  0  0
   26.6188  -19.2145   -8.8153 C   0  0  0  0  0  0  0  0  0  0  0  0
   26.4890  -19.6080  -10.1384 C   0  0  0  0  0  0  0  0  0  0  0  0
   27.6046  -20.0425  -10.7988 C   0  0  0  0  0  0  0  0  0  0  0  0
   24.6250  -21.8299  -13.5353 C   0  0  0  0  0  0  0  0  0  0  0  0
   24.3135  -21.6934  -14.7530 O   0  0  0  0  0  0  0  0  0  0  0  0
   15.7810  -21.4714  -13.2460 O   0  0  0  0  0  0  0  0  0  0  0  0
   17.1086  -21.6769  -12.9284 C   0  0  0  0  0  0  0  0  0  0  0  0
   17.7258  -21.0167  -11.8877 C   0  0  0  0  0  0  0  0  0  0  0  0
   19.0430  -21.2411  -11.5981 C   0  0  0  0  0  0  0  0  0  0  0  0
   19.8391  -22.1212  -12.3015 C   0  0  0  0  0  0  0  0  0  0  0  0
   21.2601  -22.3084  -12.0141 C   0  0  0  0  0  0  0  0  0  0  0  0
   22.1411  -21.6342  -12.9988 C   0  0  2  0  0  0  0  0  0  0  0  0
   23.5590  -21.8598  -12.6196 N   0  0  0  0  0  0  0  0  0  0  0  0
   21.9928  -20.1783  -13.1541 C   0  0  0  0  0  0  0  0  0  0  0  0
   22.1718  -19.4350  -12.1112 O   0  0  0  0  0  0  0  0  0  0  0  0
   19.2019  -22.7822  -13.3511 C   0  0  0  0  0  0  0  0  0  0  0  0
   17.8825  -22.5633  -13.6503 C   0  0  0  0  0  0  0  0  0  0  0  0
   21.6760  -19.4497  -14.3249 N   0  0  0  0  0  0  0  0  0  0  0  0
   21.2365  -18.0842  -14.3169 C   0  0  1  0  0  0  0  0  0  0  0  0
   22.2635  -17.1138  -14.8340 C   0  0  0  0  0  0  0  0  0  0  0  0
   22.5959  -17.4958  -16.2288 C   0  0  0  0  0  0  0  0  0  0  0  0
   21.7755  -17.4058  -17.3484 C   0  0  0  0  0  0  0  0  0  0  0  0
   22.4219  -17.8571  -18.4366 N   0  0  0  0  0  0  0  0  0  0  0  0
   23.6558  -18.2493  -18.0821 C   0  0  0  0  0  0  0  0  0  0  0  0
   24.7008  -18.7789  -18.8120 C   0  0  0  0  0  0  0  0  0  0  0  0
   25.9023  -19.1117  -18.2091 C   0  0  0  0  0  0  0  0  0  0  0  0
   26.0139  -18.8937  -16.8586 C   0  0  0  0  0  0  0  0  0  0  0  0
   24.9728  -18.3653  -16.1349 C   0  0  0  0  0  0  0  0  0  0  0  0
   23.7728  -18.0310  -16.7237 C   0  0  0  0  0  0  0  0  0  0  0  0
   19.9163  -17.9380  -14.9235 C   0  0  0  0  0  0  0  0  0  0  0  0
   19.2095  -16.9049  -14.8374 O   0  0  0  0  0  0  0  0  0  0  0  0
   19.3324  -18.9818  -15.6716 O   0  0  0  0  0  0  0  0  0  0  0  0
  2  3  1  0
  2  1  1  6
  4  5  2  0
  4  3  1  0
  6  5  1  0
  7 12  2  0
  7  6  1  0
  8  7  1  0
  9 10  1  0
  9  8  2  0
 10 11  2  0
 11 12  1  0
 12  4  1  0
 13  2  1  0
 14 13  2  0
 16 15  1  0
 16 17  2  0
 18 17  1  0
 19 18  2  0
 20 19  1  0
 21 20  1  1
 21 22  1  0
 22 13  1  0
 23 21  1  0
 23 27  1  0
 24 23  2  0
 25 26  2  0
 25 19  1  0
 26 16  1  0
 28 27  1  0
 28 39  1  0
 28 29  1  6
 30 31  2  0
 30 29  1  0
 32 31  1  0
 33 38  2  0
 33 32  1  0
 34 33  1  0
 35 36  1  0
 35 34  2  0
 36 37  2  0
 37 38  1  0
 38 30  1  0
 39 41  1  0
 40 39  2  0
M  END
$$$$
