WYW.pdb
     RDKit          3D

 41 45  0  0  1  0  0  0  0  0999 V2000
   21.5309  -15.3493  -19.1784 N   0  0  0  0  0  0  0  0  0  0  0  0
   21.8156  -16.7764  -19.1938 C   0  0  1  0  0  0  0  0  0  0  0  0
   22.4107  -17.1014  -20.5421 C   0  0  0  0  0  0  0  0  0  0  0  0
   21.4156  -17.1259  -21.6313 C   0  0  0  0  0  0  0  0  0  0  0  0
   21.2970  -16.1854  -22.6310 C   0  0  0  0  0  0  0  0  0  0  0  0
   20.2713  -16.5405  -23.4496 N   0  0  0  0  0  0  0  0  0  0  0  0
   19.7164  -17.6821  -23.0156 C   0  0  0  0  0  0  0  0  0  0  0  0
   18.6714  -18.4433  -23.4877 C   0  0  0  0  0  0  0  0  0  0  0  0
   18.3233  -19.5970  -22.8195 C   0  0  0  0  0  0  0  0  0  0  0  0
   19.0368  -19.9583  -21.6895 C   0  0  0  0  0  0  0  0  0  0  0  0
   20.0906  -19.1973  -21.2071 C   0  0  0  0  0  0  0  0  0  0  0  0
   20.4270  -18.0548  -21.8788 C   0  0  0  0  0  0  0  0  0  0  0  0
   22.7541  -17.0544  -18.0863 C   0  0  0  0  0  0  0  0  0  0  0  0
   23.8342  -16.4022  -18.0061 O   0  0  0  0  0  0  0  0  0  0  0  0
   18.5318  -21.0042  -13.0186 O   0  0  0  0  0  0  0  0  0  0  0  0
   19.5773  -20.2013  -13.4283 C   0  0  0  0  0  0  0  0  0  0  0  0
   19.4544  -19.3119  -14.4742 C   0  0  0  0  0  0  0  0  0  0  0  0
   20.5088  -18.5303  -14.8573 C   0  0  0  0  0  0  0  0  0  0  0  0
   21.7453  -18.5653  -14.2465 C   0  0  0  0  0  0  0  0  0  0  0  0
   22.8785  -17.7631  -14.7040 C   0  0  0  0  0  0  0  0  0  0  0  0
   23.4725  -18.2707  -15.9649 C   0  0  2  0  0  0  0  0  0  0  0  0
   22.5315  -18.0154  -17.0848 N   0  0  0  0  0  0  0  0  0  0  0  0
   23.7969  -19.7048  -16.0307 C   0  0  0  0  0  0  0  0  0  0  0  0
   23.1064  -20.4474  -16.8332 O   0  0  0  0  0  0  0  0  0  0  0  0
   21.8553  -19.4690  -13.1902 C   0  0  0  0  0  0  0  0  0  0  0  0
   20.8049  -20.2577  -12.7994 C   0  0  0  0  0  0  0  0  0  0  0  0
   24.7956  -20.4107  -15.3193 N   0  0  0  0  0  0  0  0  0  0  0  0
   24.9994  -21.8264  -15.4293 C   0  0  1  0  0  0  0  0  0  0  0  0
   26.2593  -22.3110  -14.7647 C   0  0  0  0  0  0  0  0  0  0  0  0
   26.1428  -22.0458  -13.3094 C   0  0  0  0  0  0  0  0  0  0  0  0
   25.7229  -22.9287  -12.3200 C   0  0  0  0  0  0  0  0  0  0  0  0
   25.7386  -22.3245  -11.1199 N   0  0  0  0  0  0  0  0  0  0  0  0
   26.1572  -21.0582  -11.2721 C   0  0  0  0  0  0  0  0  0  0  0  0
   26.3482  -20.0345  -10.3661 C   0  0  0  0  0  0  0  0  0  0  0  0
   26.7965  -18.7890  -10.7734 C   0  0  0  0  0  0  0  0  0  0  0  0
   27.0444  -18.6127  -12.1117 C   0  0  0  0  0  0  0  0  0  0  0  0
   26.8548  -19.6336  -13.0109 C   0  0  0  0  0  0  0  0  0  0  0  0
   26.4086  -20.8765  -12.6176 C   0  0  0  0  0  0  0  0  0  0  0  0
   23.8015  -22.5750  -15.0590 C   0  0  0  0  0  0  0  0  0  0  0  0
   22.8362  -22.0924  -14.4189 O   0  0  0  0  0  0  0  0  0  0  0  0
   23.6461  -23.9323  -15.4104 O   0  0  0  0  0  0  0  0  0  0  0  0
  2  3  1  0
  2  1  1  6
  4  5  2  0
  4  3  1  0
  6  5  1  0
  7 12  2  0
  7  6  1  0
  8  7  1  0
  9 10  1  0
  9  8  2  0
 10 11  2  0
 11 12  1  0
 12  4  1  0
 13  2  1  0
 14 13  2  0
 16 15  1  0
 16 17  2  0
 18 17  1  0
 19 18  2  0
 20 19  1  0
 21 20  1  1
 21 22  1  0
 22 13  1  0
 23 21  1  0
 23 27  1  0
 24 23  2  0
 25 26  2  0
 25 19  1  0
 26 16  1  0
 28 27  1  0
 28 39  1  0
 28 29  1  1
 30 31  2  0
 30 29  1  0
 32 31  1  0
 33 38  2  0
 33 32  1  0
 34 33  1  0
 35 36  1  0
 35 34  2  0
 36 37  2  0
 37 38  1  0
 38 30  1  0
 39 41  1  0
 40 39  2  0
M  END
$$$$
