NHN.pdb
     RDKit          3D

 27 27  0  0  1  0  0  0  0  0999 V2000
   14.7179  -16.6350   12.6270 N   0  0  0  0  0  0  0  0  0  0  0  0
   14.5374  -17.0266   13.9731 C   0  0  0  0  0  0  0  0  0  0  0  0
   15.0442  -18.1175   14.3262 O   0  0  0  0  0  0  0  0  0  0  0  0
   13.7711  -16.1222   14.8446 C   0  0  0  0  0  0  0  0  0  0  0  0
   13.6468  -16.5672   16.2708 C   0  0  2  0  0  0  0  0  0  0  0  0
   13.0360  -17.8716   16.3749 N   0  0  0  0  0  0  0  0  0  0  0  0
   12.9126  -15.5586   17.0913 C   0  0  0  0  0  0  0  0  0  0  0  0
   13.5699  -14.5192   17.4152 O   0  0  0  0  0  0  0  0  0  0  0  0
   11.5836  -15.6648   17.5231 N   0  0  0  0  0  0  0  0  0  0  0  0
   10.9537  -14.6387   18.3971 C   0  0  1  0  0  0  0  0  0  0  0  0
    9.5161  -14.6471   18.0660 C   0  0  0  0  0  0  0  0  0  0  0  0
    8.6171  -13.8147   18.8578 C   0  0  0  0  0  0  0  0  0  0  0  0
    8.5395  -12.4391   18.8611 C   0  0  0  0  0  0  0  0  0  0  0  0
    7.6134  -12.0388   19.7447 N   0  0  0  0  0  0  0  0  0  0  0  0
    7.0960  -13.1452   20.3083 C   0  0  0  0  0  0  0  0  0  0  0  0
    7.7068  -14.2163   19.7680 N   0  0  0  0  0  0  0  0  0  0  0  0
   11.3715  -14.7978   19.7723 C   0  0  0  0  0  0  0  0  0  0  0  0
   10.9838  -13.9416   20.6376 O   0  0  0  0  0  0  0  0  0  0  0  0
   10.0513  -17.6774   23.3201 N   0  0  0  0  0  0  0  0  0  0  0  0
   10.9278  -17.7412   22.2069 C   0  0  0  0  0  0  0  0  0  0  0  0
   10.4646  -18.2007   21.1493 O   0  0  0  0  0  0  0  0  0  0  0  0
   12.3341  -17.2914   22.2636 C   0  0  0  0  0  0  0  0  0  0  0  0
   12.5538  -15.9105   21.6905 C   0  0  2  0  0  0  0  0  0  0  0  0
   12.1871  -15.8401   20.2729 N   0  0  0  0  0  0  0  0  0  0  0  0
   13.9149  -15.4760   21.9675 C   0  0  0  0  0  0  0  0  0  0  0  0
   14.2637  -15.3459   23.1678 O   0  0  0  0  0  0  0  0  0  0  0  0
   14.8233  -15.2056   20.9878 O   0  0  0  0  0  0  0  0  0  0  0  0
  2  3  2  0
  2  1  1  0
  4  2  1  0
  5  7  1  0
  5  4  1  0
  5  6  1  6
  7  8  2  0
  9 10  1  0
  9  7  1  0
 10 11  1  1
 11 12  1  0
 12 16  1  0
 13 12  2  0
 13 14  1  0
 14 15  1  0
 16 15  2  0
 17 24  1  0
 17 10  1  0
 18 17  2  0
 20 19  1  0
 21 20  2  0
 22 20  1  0
 23 24  1  0
 23 22  1  6
 25 27  1  0
 25 23  1  0
 26 25  2  0
M  END
$$$$
