NHN.pdb
     RDKit          3D

 27 27  0  0  1  0  0  0  0  0999 V2000
   12.9434  -16.6470   15.5163 N   0  0  0  0  0  0  0  0  0  0  0  0
   13.3142  -15.3334   15.8838 C   0  0  0  0  0  0  0  0  0  0  0  0
   13.8740  -14.6297   15.0104 O   0  0  0  0  0  0  0  0  0  0  0  0
   13.0123  -14.9039   17.2582 C   0  0  0  0  0  0  0  0  0  0  0  0
   12.5396  -15.9917   18.1751 C   0  0  2  0  0  0  0  0  0  0  0  0
   11.6451  -16.9069   17.5058 N   0  0  0  0  0  0  0  0  0  0  0  0
   11.9140  -15.4277   19.4080 C   0  0  0  0  0  0  0  0  0  0  0  0
   12.5941  -14.5478   20.0249 O   0  0  0  0  0  0  0  0  0  0  0  0
   10.6621  -15.7838   19.9277 N   0  0  0  0  0  0  0  0  0  0  0  0
   10.1321  -15.1906   21.1849 C   0  0  1  0  0  0  0  0  0  0  0  0
    8.7211  -14.8552   20.9150 C   0  0  0  0  0  0  0  0  0  0  0  0
    8.4105  -14.0654   19.7284 C   0  0  0  0  0  0  0  0  0  0  0  0
    8.4871  -12.6964   19.5935 C   0  0  0  0  0  0  0  0  0  0  0  0
    8.0901  -12.3385   18.3635 N   0  0  0  0  0  0  0  0  0  0  0  0
    7.7596  -13.4656   17.7079 C   0  0  0  0  0  0  0  0  0  0  0  0
    7.9554  -14.5070   18.5383 N   0  0  0  0  0  0  0  0  0  0  0  0
   10.4661  -16.0094   22.3290 C   0  0  0  0  0  0  0  0  0  0  0  0
    9.8898  -17.1413   22.4666 O   0  0  0  0  0  0  0  0  0  0  0  0
   15.0644  -15.2848   23.5826 N   0  0  0  0  0  0  0  0  0  0  0  0
   14.1958  -16.3850   23.7986 C   0  0  0  0  0  0  0  0  0  0  0  0
   14.3133  -17.3560   23.0321 O   0  0  0  0  0  0  0  0  0  0  0  0
   13.1846  -16.4122   24.8756 C   0  0  0  0  0  0  0  0  0  0  0  0
   11.7751  -16.6381   24.3801 C   0  0  2  0  0  0  0  0  0  0  0  0
   11.3986  -15.6763   23.3397 N   0  0  0  0  0  0  0  0  0  0  0  0
   10.8580  -16.6707   25.5096 C   0  0  0  0  0  0  0  0  0  0  0  0
    9.8730  -15.8902   25.4970 O   0  0  0  0  0  0  0  0  0  0  0  0
   11.0190  -17.5059   26.5747 O   0  0  0  0  0  0  0  0  0  0  0  0
  2  3  2  0
  2  1  1  0
  4  2  1  0
  5  7  1  0
  5  4  1  0
  5  6  1  6
  7  8  2  0
  9 10  1  0
  9  7  1  0
 10 11  1  6
 11 12  1  0
 12 16  1  0
 13 12  2  0
 13 14  1  0
 14 15  1  0
 16 15  2  0
 17 24  1  0
 17 10  1  0
 18 17  2  0
 20 19  1  0
 21 20  2  0
 22 20  1  0
 23 24  1  0
 23 22  1  1
 25 27  1  0
 25 23  1  0
 26 25  2  0
M  END
$$$$
