NHN.pdb
     RDKit          3D

 27 27  0  0  1  0  0  0  0  0999 V2000
   12.2746  -17.3510   13.2819 N   0  0  0  0  0  0  0  0  0  0  0  0
   11.1580  -17.1941   14.1343 C   0  0  0  0  0  0  0  0  0  0  0  0
   10.0961  -17.7709   13.8009 O   0  0  0  0  0  0  0  0  0  0  0  0
   11.3362  -16.3683   15.3388 C   0  0  0  0  0  0  0  0  0  0  0  0
   11.4634  -17.1338   16.6216 C   0  0  2  0  0  0  0  0  0  0  0  0
   10.3180  -17.9812   16.8568 N   0  0  0  0  0  0  0  0  0  0  0  0
   11.7064  -16.2194   17.7767 C   0  0  0  0  0  0  0  0  0  0  0  0
   12.7451  -15.4895   17.7002 O   0  0  0  0  0  0  0  0  0  0  0  0
   10.8966  -16.1040   18.9146 N   0  0  0  0  0  0  0  0  0  0  0  0
   11.2235  -15.1683   20.0241 C   0  0  1  0  0  0  0  0  0  0  0  0
    9.9306  -14.7340   20.5864 C   0  0  0  0  0  0  0  0  0  0  0  0
    8.9659  -14.0972   19.6964 C   0  0  0  0  0  0  0  0  0  0  0  0
    8.9985  -12.8059   19.2170 C   0  0  0  0  0  0  0  0  0  0  0  0
    7.9207  -12.5783   18.4521 N   0  0  0  0  0  0  0  0  0  0  0  0
    7.1969  -13.7120   18.4363 C   0  0  0  0  0  0  0  0  0  0  0  0
    7.8339  -14.6273   19.1906 N   0  0  0  0  0  0  0  0  0  0  0  0
   12.2314  -15.7271   20.8974 C   0  0  0  0  0  0  0  0  0  0  0  0
   12.1862  -16.9739   21.1729 O   0  0  0  0  0  0  0  0  0  0  0  0
   17.8092  -16.0727   22.5713 N   0  0  0  0  0  0  0  0  0  0  0  0
   16.6731  -15.4656   23.1649 C   0  0  0  0  0  0  0  0  0  0  0  0
   16.6085  -15.4810   24.4058 O   0  0  0  0  0  0  0  0  0  0  0  0
   15.5950  -14.8334   22.3768 C   0  0  0  0  0  0  0  0  0  0  0  0
   14.3677  -15.7009   22.2208 C   0  0  2  0  0  0  0  0  0  0  0  0
   13.2980  -15.0125   21.4921 N   0  0  0  0  0  0  0  0  0  0  0  0
   13.9590  -16.2099   23.5216 C   0  0  0  0  0  0  0  0  0  0  0  0
   13.1449  -15.5301   24.1958 O   0  0  0  0  0  0  0  0  0  0  0  0
   14.4175  -17.3851   24.0381 O   0  0  0  0  0  0  0  0  0  0  0  0
  2  3  2  0
  2  1  1  0
  4  2  1  0
  5  7  1  0
  5  4  1  0
  5  6  1  1
  7  8  2  0
  9 10  1  0
  9  7  1  0
 10 11  1  1
 11 12  1  0
 12 16  1  0
 13 12  2  0
 13 14  1  0
 14 15  1  0
 16 15  2  0
 17 24  1  0
 17 10  1  0
 18 17  2  0
 20 19  1  0
 21 20  2  0
 22 20  1  0
 23 24  1  0
 23 22  1  1
 25 27  1  0
 25 23  1  0
 26 25  2  0
M  END
$$$$
