NHN.pdb
     RDKit          3D

 27 27  0  0  1  0  0  0  0  0999 V2000
    6.3669  -17.7387   15.1817 N   0  0  0  0  0  0  0  0  0  0  0  0
    7.2499  -17.6158   16.2786 C   0  0  0  0  0  0  0  0  0  0  0  0
    8.4685  -17.4738   16.0211 O   0  0  0  0  0  0  0  0  0  0  0  0
    6.6650  -17.6650   17.6277 C   0  0  0  0  0  0  0  0  0  0  0  0
    7.4058  -18.5200   18.6114 C   0  0  2  0  0  0  0  0  0  0  0  0
    7.5322  -19.8825   18.1498 N   0  0  0  0  0  0  0  0  0  0  0  0
    6.7740  -18.4628   19.9630 C   0  0  0  0  0  0  0  0  0  0  0  0
    6.4525  -17.3047   20.3788 O   0  0  0  0  0  0  0  0  0  0  0  0
    6.5123  -19.5620   20.7921 N   0  0  0  0  0  0  0  0  0  0  0  0
    5.7974  -19.4194   22.0890 C   0  0  1  0  0  0  0  0  0  0  0  0
    4.6511  -20.3459   22.0274 C   0  0  0  0  0  0  0  0  0  0  0  0
    3.5325  -20.0083   21.1539 C   0  0  0  0  0  0  0  0  0  0  0  0
    2.5630  -19.0538   21.3707 C   0  0  0  0  0  0  0  0  0  0  0  0
    1.6849  -19.0602   20.3570 N   0  0  0  0  0  0  0  0  0  0  0  0
    2.0825  -20.0103   19.4917 C   0  0  0  0  0  0  0  0  0  0  0  0
    3.2005  -20.5804   19.9788 N   0  0  0  0  0  0  0  0  0  0  0  0
    6.7175  -19.4934   23.2022 C   0  0  0  0  0  0  0  0  0  0  0  0
    7.7282  -20.2701   23.1164 O   0  0  0  0  0  0  0  0  0  0  0  0
    9.8705  -18.4688   27.3858 N   0  0  0  0  0  0  0  0  0  0  0  0
    8.6137  -17.8202   27.4920 C   0  0  0  0  0  0  0  0  0  0  0  0
    8.3105  -17.3552   28.6037 O   0  0  0  0  0  0  0  0  0  0  0  0
    7.6803  -17.6840   26.3547 C   0  0  0  0  0  0  0  0  0  0  0  0
    7.6014  -18.9154   25.4826 C   0  0  2  0  0  0  0  0  0  0  0  0
    6.6112  -18.7670   24.4117 N   0  0  0  0  0  0  0  0  0  0  0  0
    7.3955  -20.0921   26.3139 C   0  0  0  0  0  0  0  0  0  0  0  0
    8.2962  -20.4054   27.1325 O   0  0  0  0  0  0  0  0  0  0  0  0
    6.2750  -20.8653   26.2444 O   0  0  0  0  0  0  0  0  0  0  0  0
  2  3  2  0
  2  1  1  0
  4  2  1  0
  5  7  1  0
  5  4  1  0
  5  6  1  6
  7  8  2  0
  9 10  1  0
  9  7  1  0
 10 11  1  1
 11 12  1  0
 12 16  1  0
 13 12  2  0
 13 14  1  0
 14 15  1  0
 16 15  2  0
 17 24  1  0
 17 10  1  0
 18 17  2  0
 20 19  1  0
 21 20  2  0
 22 20  1  0
 23 24  1  0
 23 22  1  1
 25 27  1  0
 25 23  1  0
 26 25  2  0
M  END
$$$$
