NHN.pdb
     RDKit          3D

 27 27  0  0  1  0  0  0  0  0999 V2000
   13.5461  -21.5544   15.4911 N   0  0  0  0  0  0  0  0  0  0  0  0
   12.6864  -20.4542   15.2705 C   0  0  0  0  0  0  0  0  0  0  0  0
   12.2883  -20.2633   14.0972 O   0  0  0  0  0  0  0  0  0  0  0  0
   12.3322  -19.6275   16.4348 C   0  0  0  0  0  0  0  0  0  0  0  0
   13.0393  -19.9850   17.7075 C   0  0  2  0  0  0  0  0  0  0  0  0
   12.5789  -21.2453   18.2415 N   0  0  0  0  0  0  0  0  0  0  0  0
   12.9205  -18.8930   18.7188 C   0  0  0  0  0  0  0  0  0  0  0  0
   13.5466  -17.8181   18.4538 O   0  0  0  0  0  0  0  0  0  0  0  0
   12.1883  -18.9575   19.9120 N   0  0  0  0  0  0  0  0  0  0  0  0
   12.1040  -17.8053   20.8493 C   0  0  1  0  0  0  0  0  0  0  0  0
   10.7420  -17.8378   21.4150 C   0  0  0  0  0  0  0  0  0  0  0  0
    9.6092  -17.7170   20.5036 C   0  0  0  0  0  0  0  0  0  0  0  0
    9.2005  -16.5897   19.8252 C   0  0  0  0  0  0  0  0  0  0  0  0
    8.1002  -16.8646   19.1094 N   0  0  0  0  0  0  0  0  0  0  0  0
    7.7993  -18.1582   19.3225 C   0  0  0  0  0  0  0  0  0  0  0  0
    8.7154  -18.6688   20.1666 N   0  0  0  0  0  0  0  0  0  0  0  0
   13.2458  -17.7701   21.7359 C   0  0  0  0  0  0  0  0  0  0  0  0
   13.6577  -18.8625   22.2547 O   0  0  0  0  0  0  0  0  0  0  0  0
   17.2365  -15.4539   24.9543 N   0  0  0  0  0  0  0  0  0  0  0  0
   17.3016  -15.4920   23.5381 C   0  0  0  0  0  0  0  0  0  0  0  0
   18.4332  -15.5224   23.0254 O   0  0  0  0  0  0  0  0  0  0  0  0
   16.1004  -15.4967   22.6776 C   0  0  0  0  0  0  0  0  0  0  0  0
   15.2138  -16.7037   22.8786 C   0  0  2  0  0  0  0  0  0  0  0  0
   13.9785  -16.6139   22.0942 N   0  0  0  0  0  0  0  0  0  0  0  0
   14.9922  -16.9174   24.3010 C   0  0  0  0  0  0  0  0  0  0  0  0
   15.7683  -17.6942   24.9124 O   0  0  0  0  0  0  0  0  0  0  0  0
   13.9857  -16.3155   24.9958 O   0  0  0  0  0  0  0  0  0  0  0  0
  2  3  2  0
  2  1  1  0
  4  2  1  0
  5  7  1  0
  5  4  1  0
  5  6  1  1
  7  8  2  0
  9 10  1  0
  9  7  1  0
 10 11  1  1
 11 12  1  0
 12 16  1  0
 13 12  2  0
 13 14  1  0
 14 15  1  0
 16 15  2  0
 17 24  1  0
 17 10  1  0
 18 17  2  0
 20 19  1  0
 21 20  2  0
 22 20  1  0
 23 24  1  0
 23 22  1  1
 25 27  1  0
 25 23  1  0
 26 25  2  0
M  END
$$$$
