NHN.pdb
     RDKit          3D

 27 27  0  0  1  0  0  0  0  0999 V2000
    6.5526  -19.5123   19.9684 N   0  0  0  0  0  0  0  0  0  0  0  0
    6.6040  -18.8418   18.7251 C   0  0  0  0  0  0  0  0  0  0  0  0
    5.7463  -19.1575   17.8671 O   0  0  0  0  0  0  0  0  0  0  0  0
    7.6582  -17.8317   18.5434 C   0  0  0  0  0  0  0  0  0  0  0  0
    8.5950  -17.6744   19.7032 C   0  0  2  0  0  0  0  0  0  0  0  0
    7.9015  -17.2631   20.9013 N   0  0  0  0  0  0  0  0  0  0  0  0
    9.7110  -16.7383   19.3755 C   0  0  0  0  0  0  0  0  0  0  0  0
   10.3862  -17.0193   18.3350 O   0  0  0  0  0  0  0  0  0  0  0  0
   10.0655  -15.5977   20.1086 N   0  0  0  0  0  0  0  0  0  0  0  0
   11.1617  -14.6902   19.6749 C   0  0  1  0  0  0  0  0  0  0  0  0
   10.5316  -13.3806   19.4215 C   0  0  0  0  0  0  0  0  0  0  0  0
    9.2976  -13.3434   18.6444 C   0  0  0  0  0  0  0  0  0  0  0  0
    8.0301  -13.0595   19.1040 C   0  0  0  0  0  0  0  0  0  0  0  0
    7.1499  -13.1554   18.0968 N   0  0  0  0  0  0  0  0  0  0  0  0
    7.8412  -13.4983   16.9949 C   0  0  0  0  0  0  0  0  0  0  0  0
    9.1397  -13.6106   17.3321 N   0  0  0  0  0  0  0  0  0  0  0  0
   12.2950  -14.7773   20.5689 C   0  0  0  0  0  0  0  0  0  0  0  0
   13.3720  -14.1629   20.2612 O   0  0  0  0  0  0  0  0  0  0  0  0
   15.4105  -15.3228   20.2307 N   0  0  0  0  0  0  0  0  0  0  0  0
   15.5480  -14.7914   21.5385 C   0  0  0  0  0  0  0  0  0  0  0  0
   16.5036  -14.0223   21.7378 O   0  0  0  0  0  0  0  0  0  0  0  0
   14.6174  -15.1142   22.6398 C   0  0  0  0  0  0  0  0  0  0  0  0
   13.5626  -16.1296   22.2660 C   0  0  2  0  0  0  0  0  0  0  0  0
   12.3315  -15.4919   21.7896 N   0  0  0  0  0  0  0  0  0  0  0  0
   13.3561  -17.0517   23.3728 C   0  0  0  0  0  0  0  0  0  0  0  0
   14.3376  -17.7265   23.7741 O   0  0  0  0  0  0  0  0  0  0  0  0
   12.1519  -17.2149   23.9904 O   0  0  0  0  0  0  0  0  0  0  0  0
  2  3  2  0
  2  1  1  0
  4  2  1  0
  5  7  1  0
  5  4  1  0
  5  6  1  1
  7  8  2  0
  9 10  1  0
  9  7  1  0
 10 11  1  1
 11 12  1  0
 12 16  1  0
 13 12  2  0
 13 14  1  0
 14 15  1  0
 16 15  2  0
 17 24  1  0
 17 10  1  0
 18 17  2  0
 20 19  1  0
 21 20  2  0
 22 20  1  0
 23 24  1  0
 23 22  1  1
 25 27  1  0
 25 23  1  0
 26 25  2  0
M  END
$$$$
