NHN.pdb
     RDKit          3D

 27 27  0  0  1  0  0  0  0  0999 V2000
    9.1899  -15.3440   14.1648 N   0  0  0  0  0  0  0  0  0  0  0  0
    8.4797  -15.8717   15.2672 C   0  0  0  0  0  0  0  0  0  0  0  0
    7.5588  -16.6855   15.0200 O   0  0  0  0  0  0  0  0  0  0  0  0
    8.8808  -15.4218   16.6093 C   0  0  0  0  0  0  0  0  0  0  0  0
    7.8870  -14.5442   17.3093 C   0  0  2  0  0  0  0  0  0  0  0  0
    7.6957  -13.2916   16.6167 N   0  0  0  0  0  0  0  0  0  0  0  0
    8.2703  -14.3214   18.7350 C   0  0  0  0  0  0  0  0  0  0  0  0
    9.2908  -13.5877   18.9292 O   0  0  0  0  0  0  0  0  0  0  0  0
    7.6076  -14.8458   19.8530 N   0  0  0  0  0  0  0  0  0  0  0  0
    8.0678  -14.5754   21.2417 C   0  0  1  0  0  0  0  0  0  0  0  0
    6.8505  -14.3053   22.0301 C   0  0  0  0  0  0  0  0  0  0  0  0
    6.9603  -14.2662   23.4842 C   0  0  0  0  0  0  0  0  0  0  0  0
    7.4822  -13.2503   24.2547 C   0  0  0  0  0  0  0  0  0  0  0  0
    7.4397  -13.5951   25.5500 N   0  0  0  0  0  0  0  0  0  0  0  0
    6.8951  -14.8233   25.6176 C   0  0  0  0  0  0  0  0  0  0  0  0
    6.6072  -15.2242   24.3651 N   0  0  0  0  0  0  0  0  0  0  0  0
    8.9991  -15.5874   21.6885 C   0  0  0  0  0  0  0  0  0  0  0  0
    8.9592  -16.7441   21.1475 O   0  0  0  0  0  0  0  0  0  0  0  0
   12.6807  -18.5136   24.0544 N   0  0  0  0  0  0  0  0  0  0  0  0
   13.1649  -17.3773   23.3574 C   0  0  0  0  0  0  0  0  0  0  0  0
   14.3883  -17.3236   23.1461 O   0  0  0  0  0  0  0  0  0  0  0  0
   12.2856  -16.2865   22.8881 C   0  0  0  0  0  0  0  0  0  0  0  0
   10.8171  -16.5394   23.1390 C   0  0  2  0  0  0  0  0  0  0  0  0
    9.9832  -15.4199   22.6912 N   0  0  0  0  0  0  0  0  0  0  0  0
   10.6137  -16.9023   24.5336 C   0  0  0  0  0  0  0  0  0  0  0  0
   10.3719  -15.9838   25.3567 O   0  0  0  0  0  0  0  0  0  0  0  0
   10.6733  -18.1874   24.9842 O   0  0  0  0  0  0  0  0  0  0  0  0
  2  3  2  0
  2  1  1  0
  4  2  1  0
  5  7  1  0
  5  4  1  0
  5  6  1  6
  7  8  2  0
  9 10  1  0
  9  7  1  0
 10 11  1  1
 11 12  1  0
 12 16  1  0
 13 12  2  0
 13 14  1  0
 14 15  1  0
 16 15  2  0
 17 24  1  0
 17 10  1  0
 18 17  2  0
 20 19  1  0
 21 20  2  0
 22 20  1  0
 23 24  1  0
 23 22  1  1
 25 27  1  0
 25 23  1  0
 26 25  2  0
M  END
$$$$
