NHN.pdb
     RDKit          3D

 27 27  0  0  1  0  0  0  0  0999 V2000
   15.0344  -16.1023   16.0521 N   0  0  0  0  0  0  0  0  0  0  0  0
   14.6913  -14.7361   16.1705 C   0  0  0  0  0  0  0  0  0  0  0  0
   15.1225  -13.9577   15.2876 O   0  0  0  0  0  0  0  0  0  0  0  0
   13.8586  -14.3440   17.3183 C   0  0  0  0  0  0  0  0  0  0  0  0
   13.5070  -15.4573   18.2588 C   0  0  2  0  0  0  0  0  0  0  0  0
   12.8040  -16.5253   17.5873 N   0  0  0  0  0  0  0  0  0  0  0  0
   12.7322  -14.9523   19.4309 C   0  0  0  0  0  0  0  0  0  0  0  0
   13.3009  -14.0546   20.1295 O   0  0  0  0  0  0  0  0  0  0  0  0
   11.4537  -15.3803   19.8137 N   0  0  0  0  0  0  0  0  0  0  0  0
   10.8193  -14.9336   21.0831 C   0  0  1  0  0  0  0  0  0  0  0  0
    9.3825  -14.7759   20.7881 C   0  0  0  0  0  0  0  0  0  0  0  0
    8.9922  -13.9023   19.6869 C   0  0  0  0  0  0  0  0  0  0  0  0
    9.8208  -13.1422   18.8908 C   0  0  0  0  0  0  0  0  0  0  0  0
    9.0892  -12.4469   18.0076 N   0  0  0  0  0  0  0  0  0  0  0  0
    7.7986  -12.7542   18.2300 C   0  0  0  0  0  0  0  0  0  0  0  0
    7.7460  -13.6349   19.2468 N   0  0  0  0  0  0  0  0  0  0  0  0
   11.2346  -15.7621   22.1931 C   0  0  0  0  0  0  0  0  0  0  0  0
   10.6348  -15.6372   23.3141 O   0  0  0  0  0  0  0  0  0  0  0  0
   10.8405  -19.1057   21.9046 N   0  0  0  0  0  0  0  0  0  0  0  0
   12.0943  -19.6432   22.2927 C   0  0  0  0  0  0  0  0  0  0  0  0
   12.3329  -20.8165   21.9601 O   0  0  0  0  0  0  0  0  0  0  0  0
   13.0970  -18.8739   23.0583 C   0  0  0  0  0  0  0  0  0  0  0  0
   12.6695  -17.4581   23.3681 C   0  0  2  0  0  0  0  0  0  0  0  0
   12.2661  -16.7301   22.1611 N   0  0  0  0  0  0  0  0  0  0  0  0
   13.7085  -16.7898   24.1373 C   0  0  0  0  0  0  0  0  0  0  0  0
   14.4322  -15.9465   23.5501 O   0  0  0  0  0  0  0  0  0  0  0  0
   13.9303  -17.0364   25.4595 O   0  0  0  0  0  0  0  0  0  0  0  0
  2  3  2  0
  2  1  1  0
  4  2  1  0
  5  7  1  0
  5  4  1  0
  5  6  1  6
  7  8  2  0
  9 10  1  0
  9  7  1  0
 10 11  1  6
 11 12  1  0
 12 16  1  0
 13 12  2  0
 13 14  1  0
 14 15  1  0
 16 15  2  0
 17 24  1  0
 17 10  1  0
 18 17  2  0
 20 19  1  0
 21 20  2  0
 22 20  1  0
 23 24  1  0
 23 22  1  6
 25 27  1  0
 25 23  1  0
 26 25  2  0
M  END
$$$$
