NHN.pdb
     RDKit          3D

 27 27  0  0  1  0  0  0  0  0999 V2000
   13.8563  -16.1340   13.8966 N   0  0  0  0  0  0  0  0  0  0  0  0
   13.8577  -14.7747   14.2845 C   0  0  0  0  0  0  0  0  0  0  0  0
   14.2789  -13.9401   13.4493 O   0  0  0  0  0  0  0  0  0  0  0  0
   13.3654  -14.4550   15.6335 C   0  0  0  0  0  0  0  0  0  0  0  0
   12.9968  -15.6406   16.4737 C   0  0  2  0  0  0  0  0  0  0  0  0
   11.8667  -16.3549   15.9276 N   0  0  0  0  0  0  0  0  0  0  0  0
   12.7526  -15.2448   17.8925 C   0  0  0  0  0  0  0  0  0  0  0  0
   13.6604  -14.5408   18.4383 O   0  0  0  0  0  0  0  0  0  0  0  0
   11.6251  -15.5804   18.6542 N   0  0  0  0  0  0  0  0  0  0  0  0
   11.4545  -15.1169   20.0575 C   0  0  1  0  0  0  0  0  0  0  0  0
   10.0042  -15.1509   20.3254 C   0  0  0  0  0  0  0  0  0  0  0  0
    9.1589  -14.1415   19.6971 C   0  0  0  0  0  0  0  0  0  0  0  0
    9.5657  -13.0753   18.9251 C   0  0  0  0  0  0  0  0  0  0  0  0
    8.4998  -12.3514   18.5530 N   0  0  0  0  0  0  0  0  0  0  0  0
    7.4128  -12.9437   19.0792 C   0  0  0  0  0  0  0  0  0  0  0  0
    7.8174  -14.0259   19.7702 N   0  0  0  0  0  0  0  0  0  0  0  0
   12.3623  -15.8056   20.9479 C   0  0  0  0  0  0  0  0  0  0  0  0
   12.5004  -17.0703   20.8305 O   0  0  0  0  0  0  0  0  0  0  0  0
   15.9105  -17.3536   24.4943 N   0  0  0  0  0  0  0  0  0  0  0  0
   16.1764  -16.0214   24.0869 C   0  0  0  0  0  0  0  0  0  0  0  0
   17.2487  -15.5191   24.4640 O   0  0  0  0  0  0  0  0  0  0  0  0
   15.2453  -15.2345   23.2521 C   0  0  0  0  0  0  0  0  0  0  0  0
   14.0088  -15.9974   22.8367 C   0  0  2  0  0  0  0  0  0  0  0  0
   13.1406  -15.2018   21.9636 N   0  0  0  0  0  0  0  0  0  0  0  0
   13.3357  -16.5192   24.0168 C   0  0  0  0  0  0  0  0  0  0  0  0
   13.6088  -17.6887   24.3874 O   0  0  0  0  0  0  0  0  0  0  0  0
   12.4271  -15.7996   24.7342 O   0  0  0  0  0  0  0  0  0  0  0  0
  2  3  2  0
  2  1  1  0
  4  2  1  0
  5  7  1  0
  5  4  1  0
  5  6  1  6
  7  8  2  0
  9 10  1  0
  9  7  1  0
 10 11  1  1
 11 12  1  0
 12 16  1  0
 13 12  2  0
 13 14  1  0
 14 15  1  0
 16 15  2  0
 17 24  1  0
 17 10  1  0
 18 17  2  0
 20 19  1  0
 21 20  2  0
 22 20  1  0
 23 24  1  0
 23 22  1  1
 25 27  1  0
 25 23  1  0
 26 25  2  0
M  END
$$$$
