NHN.pdb
     RDKit          3D

 27 27  0  0  1  0  0  0  0  0999 V2000
   16.4468  -12.5097   13.3117 N   0  0  0  0  0  0  0  0  0  0  0  0
   15.9247  -13.6773   13.9135 C   0  0  0  0  0  0  0  0  0  0  0  0
   16.0394  -14.7512   13.2770 O   0  0  0  0  0  0  0  0  0  0  0  0
   15.2919  -13.5337   15.2339 C   0  0  0  0  0  0  0  0  0  0  0  0
   14.8159  -14.8131   15.8536 C   0  0  2  0  0  0  0  0  0  0  0  0
   13.8094  -15.4595   15.0444 N   0  0  0  0  0  0  0  0  0  0  0  0
   14.3296  -14.5921   17.2479 C   0  0  0  0  0  0  0  0  0  0  0  0
   15.0706  -13.8709   17.9883 O   0  0  0  0  0  0  0  0  0  0  0  0
   13.1453  -15.1056   17.7935 N   0  0  0  0  0  0  0  0  0  0  0  0
   12.7636  -14.8712   19.2122 C   0  0  1  0  0  0  0  0  0  0  0  0
   11.3125  -15.1248   19.2919 C   0  0  0  0  0  0  0  0  0  0  0  0
   10.6857  -15.1590   20.6088 C   0  0  0  0  0  0  0  0  0  0  0  0
   11.3131  -15.0921   21.8337 C   0  0  0  0  0  0  0  0  0  0  0  0
   10.4040  -15.1869   22.8151 N   0  0  0  0  0  0  0  0  0  0  0  0
    9.1990  -15.3140   22.2309 C   0  0  0  0  0  0  0  0  0  0  0  0
    9.3755  -15.2965   20.8964 N   0  0  0  0  0  0  0  0  0  0  0  0
   13.6603  -15.5598   20.1137 C   0  0  0  0  0  0  0  0  0  0  0  0
   13.9570  -16.7795   19.8762 O   0  0  0  0  0  0  0  0  0  0  0  0
   18.3506  -16.6498   22.6961 N   0  0  0  0  0  0  0  0  0  0  0  0
   17.4314  -15.7116   23.2312 C   0  0  0  0  0  0  0  0  0  0  0  0
   17.4708  -15.5194   24.4583 O   0  0  0  0  0  0  0  0  0  0  0  0
   16.4563  -14.9766   22.3993 C   0  0  0  0  0  0  0  0  0  0  0  0
   15.2095  -15.7690   22.0814 C   0  0  2  0  0  0  0  0  0  0  0  0
   14.2647  -15.0012   21.2647 N   0  0  0  0  0  0  0  0  0  0  0  0
   14.6335  -16.2905   23.3120 C   0  0  0  0  0  0  0  0  0  0  0  0
   13.7750  -15.5923   23.9079 O   0  0  0  0  0  0  0  0  0  0  0  0
   14.9817  -17.4963   23.8438 O   0  0  0  0  0  0  0  0  0  0  0  0
  2  3  2  0
  2  1  1  0
  4  2  1  0
  5  7  1  0
  5  4  1  0
  5  6  1  6
  7  8  2  0
  9 10  1  0
  9  7  1  0
 10 11  1  6
 11 12  1  0
 12 16  1  0
 13 12  2  0
 13 14  1  0
 14 15  1  0
 16 15  2  0
 17 24  1  0
 17 10  1  0
 18 17  2  0
 20 19  1  0
 21 20  2  0
 22 20  1  0
 23 24  1  0
 23 22  1  1
 25 27  1  0
 25 23  1  0
 26 25  2  0
M  END
$$$$
