NHN.pdb
     RDKit          3D

 27 27  0  0  1  0  0  0  0  0999 V2000
   12.1460  -22.8603   16.8110 N   0  0  0  0  0  0  0  0  0  0  0  0
   11.3447  -21.7576   16.4369 C   0  0  0  0  0  0  0  0  0  0  0  0
   10.6616  -21.8729   15.3921 O   0  0  0  0  0  0  0  0  0  0  0  0
   11.3802  -20.5696   17.3040 C   0  0  0  0  0  0  0  0  0  0  0  0
   11.4628  -19.2579   16.5827 C   0  0  2  0  0  0  0  0  0  0  0  0
   12.6965  -19.1289   15.8431 N   0  0  0  0  0  0  0  0  0  0  0  0
   11.2708  -18.1111   17.5194 C   0  0  0  0  0  0  0  0  0  0  0  0
   12.3030  -17.7379   18.1618 O   0  0  0  0  0  0  0  0  0  0  0  0
   10.0677  -17.4274   17.7414 N   0  0  0  0  0  0  0  0  0  0  0  0
    9.9563  -16.3307   18.7405 C   0  0  1  0  0  0  0  0  0  0  0  0
    8.7334  -15.5831   18.3916 C   0  0  0  0  0  0  0  0  0  0  0  0
    8.3476  -14.4538   19.2307 C   0  0  0  0  0  0  0  0  0  0  0  0
    8.9473  -14.0397   20.3999 C   0  0  0  0  0  0  0  0  0  0  0  0
    8.2876  -12.9843   20.8994 N   0  0  0  0  0  0  0  0  0  0  0  0
    7.2700  -12.7175   20.0612 C   0  0  0  0  0  0  0  0  0  0  0  0
    7.3112  -13.6095   19.0537 N   0  0  0  0  0  0  0  0  0  0  0  0
   10.1284  -16.8320   20.0860 C   0  0  0  0  0  0  0  0  0  0  0  0
    9.6955  -18.0002   20.3690 O   0  0  0  0  0  0  0  0  0  0  0  0
   11.5376  -17.8563   25.0450 N   0  0  0  0  0  0  0  0  0  0  0  0
   12.5994  -17.4790   24.1838 C   0  0  0  0  0  0  0  0  0  0  0  0
   13.7556  -17.6934   24.5857 O   0  0  0  0  0  0  0  0  0  0  0  0
   12.3804  -16.8569   22.8616 C   0  0  0  0  0  0  0  0  0  0  0  0
   10.9244  -16.7618   22.4686 C   0  0  2  0  0  0  0  0  0  0  0  0
   10.7509  -16.1406   21.1520 N   0  0  0  0  0  0  0  0  0  0  0  0
   10.1722  -16.1090   23.5298 C   0  0  0  0  0  0  0  0  0  0  0  0
   10.1698  -16.6403   24.6688 O   0  0  0  0  0  0  0  0  0  0  0  0
    9.4742  -14.9530   23.3441 O   0  0  0  0  0  0  0  0  0  0  0  0
  2  3  2  0
  2  1  1  0
  4  2  1  0
  5  7  1  0
  5  4  1  0
  5  6  1  1
  7  8  2  0
  9 10  1  0
  9  7  1  0
 10 11  1  1
 11 12  1  0
 12 16  1  0
 13 12  2  0
 13 14  1  0
 14 15  1  0
 16 15  2  0
 17 24  1  0
 17 10  1  0
 18 17  2  0
 20 19  1  0
 21 20  2  0
 22 20  1  0
 23 24  1  0
 23 22  1  1
 25 27  1  0
 25 23  1  0
 26 25  2  0
M  END
$$$$
