NHN.pdb
     RDKit          3D

 27 27  0  0  1  0  0  0  0  0999 V2000
    9.4358  -17.0069   12.9772 N   0  0  0  0  0  0  0  0  0  0  0  0
    9.3264  -15.6063   13.1337 C   0  0  0  0  0  0  0  0  0  0  0  0
    8.8898  -14.9523   12.1574 O   0  0  0  0  0  0  0  0  0  0  0  0
    9.7336  -15.0356   14.4271 C   0  0  0  0  0  0  0  0  0  0  0  0
   10.2763  -16.0234   15.4156 C   0  0  2  0  0  0  0  0  0  0  0  0
    9.2821  -16.9967   15.8027 N   0  0  0  0  0  0  0  0  0  0  0  0
   10.8534  -15.3354   16.6085 C   0  0  0  0  0  0  0  0  0  0  0  0
   11.7667  -14.4826   16.3718 O   0  0  0  0  0  0  0  0  0  0  0  0
   10.4754  -15.5505   17.9408 N   0  0  0  0  0  0  0  0  0  0  0  0
   11.1318  -14.8407   19.0715 C   0  0  1  0  0  0  0  0  0  0  0  0
   10.0996  -14.6922   20.1149 C   0  0  0  0  0  0  0  0  0  0  0  0
    8.8649  -13.9936   19.7746 C   0  0  0  0  0  0  0  0  0  0  0  0
    8.7402  -12.7206   19.2626 C   0  0  0  0  0  0  0  0  0  0  0  0
    7.4426  -12.4171   19.1117 N   0  0  0  0  0  0  0  0  0  0  0  0
    6.7337  -13.4840   19.5221 C   0  0  0  0  0  0  0  0  0  0  0  0
    7.5991  -14.4345   19.9220 N   0  0  0  0  0  0  0  0  0  0  0  0
   12.4008  -15.4498   19.4029 C   0  0  0  0  0  0  0  0  0  0  0  0
   12.5172  -16.7191   19.3154 O   0  0  0  0  0  0  0  0  0  0  0  0
   15.6652  -15.1103   17.3230 N   0  0  0  0  0  0  0  0  0  0  0  0
   16.0657  -14.2694   18.3926 C   0  0  0  0  0  0  0  0  0  0  0  0
   16.4595  -13.1285   18.0968 O   0  0  0  0  0  0  0  0  0  0  0  0
   16.0306  -14.6952   19.8070 C   0  0  0  0  0  0  0  0  0  0  0  0
   14.7922  -15.4790   20.1750 C   0  0  2  0  0  0  0  0  0  0  0  0
   13.5636  -14.7612   19.8222 N   0  0  0  0  0  0  0  0  0  0  0  0
   14.8603  -15.8745   21.5739 C   0  0  0  0  0  0  0  0  0  0  0  0
   14.5621  -17.0587   21.8710 O   0  0  0  0  0  0  0  0  0  0  0  0
   15.2315  -15.0221   22.5707 O   0  0  0  0  0  0  0  0  0  0  0  0
  2  3  2  0
  2  1  1  0
  4  2  1  0
  5  7  1  0
  5  4  1  0
  5  6  1  1
  7  8  2  0
  9 10  1  0
  9  7  1  0
 10 11  1  1
 11 12  1  0
 12 16  1  0
 13 12  2  0
 13 14  1  0
 14 15  1  0
 16 15  2  0
 17 24  1  0
 17 10  1  0
 18 17  2  0
 20 19  1  0
 21 20  2  0
 22 20  1  0
 23 24  1  0
 23 22  1  1
 25 27  1  0
 25 23  1  0
 26 25  2  0
M  END
$$$$
