NHN.pdb
     RDKit          3D

 27 27  0  0  1  0  0  0  0  0999 V2000
    8.4704  -15.0536   14.1667 N   0  0  0  0  0  0  0  0  0  0  0  0
    8.0676  -13.8823   14.8477 C   0  0  0  0  0  0  0  0  0  0  0  0
    7.0629  -13.2777   14.4044 O   0  0  0  0  0  0  0  0  0  0  0  0
    8.8603  -13.4724   16.0174 C   0  0  0  0  0  0  0  0  0  0  0  0
    9.9970  -14.3853   16.3669 C   0  0  2  0  0  0  0  0  0  0  0  0
    9.6614  -15.7715   16.1400 N   0  0  0  0  0  0  0  0  0  0  0  0
   10.4594  -14.1628   17.7690 C   0  0  0  0  0  0  0  0  0  0  0  0
   10.8775  -12.9923   18.0384 O   0  0  0  0  0  0  0  0  0  0  0  0
   10.4684  -15.1223   18.7906 N   0  0  0  0  0  0  0  0  0  0  0  0
   11.0618  -14.8465   20.1267 C   0  0  1  0  0  0  0  0  0  0  0  0
   10.0923  -15.3529   21.1165 C   0  0  0  0  0  0  0  0  0  0  0  0
    8.7548  -14.7707   21.1381 C   0  0  0  0  0  0  0  0  0  0  0  0
    8.4273  -13.4354   21.2276 C   0  0  0  0  0  0  0  0  0  0  0  0
    7.0937  -13.2957   21.2511 N   0  0  0  0  0  0  0  0  0  0  0  0
    6.5626  -14.5294   21.1773 C   0  0  0  0  0  0  0  0  0  0  0  0
    7.5720  -15.4175   21.1091 N   0  0  0  0  0  0  0  0  0  0  0  0
   12.4387  -15.2844   20.1859 C   0  0  0  0  0  0  0  0  0  0  0  0
   12.7691  -16.3633   19.5867 O   0  0  0  0  0  0  0  0  0  0  0  0
   17.6494  -15.6951   20.3608 N   0  0  0  0  0  0  0  0  0  0  0  0
   17.1825  -14.4032   20.0078 C   0  0  0  0  0  0  0  0  0  0  0  0
   18.0146  -13.6130   19.5308 O   0  0  0  0  0  0  0  0  0  0  0  0
   15.7781  -13.9795   20.1843 C   0  0  0  0  0  0  0  0  0  0  0  0
   14.8811  -15.0636   20.7352 C   0  0  2  0  0  0  0  0  0  0  0  0
   13.4903  -14.6161   20.8564 N   0  0  0  0  0  0  0  0  0  0  0  0
   15.4419  -15.5806   21.9747 C   0  0  0  0  0  0  0  0  0  0  0  0
   16.6070  -16.0510   21.9481 O   0  0  0  0  0  0  0  0  0  0  0  0
   14.7631  -15.5771   23.1568 O   0  0  0  0  0  0  0  0  0  0  0  0
  2  3  2  0
  2  1  1  0
  4  2  1  0
  5  7  1  0
  5  4  1  0
  5  6  1  1
  7  8  2  0
  9 10  1  0
  9  7  1  0
 10 11  1  1
 11 12  1  0
 12 16  1  0
 13 12  2  0
 13 14  1  0
 14 15  1  0
 16 15  2  0
 17 24  1  0
 17 10  1  0
 18 17  2  0
 20 19  1  0
 21 20  2  0
 22 20  1  0
 23 24  1  0
 23 22  1  1
 25 27  1  0
 25 23  1  0
 26 25  2  0
M  END
$$$$
