NHN.pdb
     RDKit          3D

 27 27  0  0  1  0  0  0  0  0999 V2000
   12.0321  -16.3033   14.3739 N   0  0  0  0  0  0  0  0  0  0  0  0
   12.8302  -15.3569   15.0561 C   0  0  0  0  0  0  0  0  0  0  0  0
   13.9437  -15.0764   14.5532 O   0  0  0  0  0  0  0  0  0  0  0  0
   12.2873  -14.7819   16.2968 C   0  0  0  0  0  0  0  0  0  0  0  0
   12.4815  -15.6202   17.5244 C   0  0  2  0  0  0  0  0  0  0  0  0
   11.9141  -16.9390   17.3691 N   0  0  0  0  0  0  0  0  0  0  0  0
   11.9413  -14.9379   18.7377 C   0  0  0  0  0  0  0  0  0  0  0  0
   12.6147  -13.9478   19.1661 O   0  0  0  0  0  0  0  0  0  0  0  0
   10.7744  -15.2949   19.4270 N   0  0  0  0  0  0  0  0  0  0  0  0
   10.3654  -14.6202   20.6882 C   0  0  1  0  0  0  0  0  0  0  0  0
    8.9066  -14.4228   20.5913 C   0  0  0  0  0  0  0  0  0  0  0  0
    8.3539  -13.9435   19.3291 C   0  0  0  0  0  0  0  0  0  0  0  0
    8.0650  -12.6409   18.9857 C   0  0  0  0  0  0  0  0  0  0  0  0
    7.5399  -12.6024   17.7522 N   0  0  0  0  0  0  0  0  0  0  0  0
    7.4894  -13.8687   17.3011 C   0  0  0  0  0  0  0  0  0  0  0  0
    7.9830  -14.6755   18.2591 N   0  0  0  0  0  0  0  0  0  0  0  0
   10.9209  -15.2914   21.8423 C   0  0  0  0  0  0  0  0  0  0  0  0
   10.5402  -14.9316   23.0075 O   0  0  0  0  0  0  0  0  0  0  0  0
   12.2101  -19.1024   25.5185 N   0  0  0  0  0  0  0  0  0  0  0  0
   12.8582  -19.0671   24.2575 C   0  0  0  0  0  0  0  0  0  0  0  0
   13.9766  -19.6036   24.1823 O   0  0  0  0  0  0  0  0  0  0  0  0
   12.2625  -18.4306   23.0645 C   0  0  0  0  0  0  0  0  0  0  0  0
   12.4036  -16.9263   23.0441 C   0  0  2  0  0  0  0  0  0  0  0  0
   11.8685  -16.3416   21.8108 N   0  0  0  0  0  0  0  0  0  0  0  0
   13.7855  -16.5601   23.3164 C   0  0  0  0  0  0  0  0  0  0  0  0
   14.2420  -16.7792   24.4667 O   0  0  0  0  0  0  0  0  0  0  0  0
   14.6024  -15.9931   22.3840 O   0  0  0  0  0  0  0  0  0  0  0  0
  2  3  2  0
  2  1  1  0
  4  2  1  0
  5  7  1  0
  5  4  1  0
  5  6  1  6
  7  8  2  0
  9 10  1  0
  9  7  1  0
 10 11  1  1
 11 12  1  0
 12 16  1  0
 13 12  2  0
 13 14  1  0
 14 15  1  0
 16 15  2  0
 17 24  1  0
 17 10  1  0
 18 17  2  0
 20 19  1  0
 21 20  2  0
 22 20  1  0
 23 24  1  0
 23 22  1  6
 25 27  1  0
 25 23  1  0
 26 25  2  0
M  END
$$$$
