NHN.pdb
     RDKit          3D

 27 27  0  0  1  0  0  0  0  0999 V2000
    7.0172  -12.2942   18.0836 N   0  0  0  0  0  0  0  0  0  0  0  0
    7.5314  -13.3822   18.8252 C   0  0  0  0  0  0  0  0  0  0  0  0
    6.9358  -13.6863   19.8855 O   0  0  0  0  0  0  0  0  0  0  0  0
    8.7202  -14.0645   18.2907 C   0  0  0  0  0  0  0  0  0  0  0  0
    9.9001  -14.1039   19.2148 C   0  0  2  0  0  0  0  0  0  0  0  0
   10.3367  -12.7780   19.5846 N   0  0  0  0  0  0  0  0  0  0  0  0
   11.0203  -14.8992   18.6299 C   0  0  0  0  0  0  0  0  0  0  0  0
   10.7990  -16.1418   18.4739 O   0  0  0  0  0  0  0  0  0  0  0  0
   12.2704  -14.3945   18.2468 N   0  0  0  0  0  0  0  0  0  0  0  0
   13.3700  -15.2814   17.7805 C   0  0  1  0  0  0  0  0  0  0  0  0
   13.7168  -14.8224   16.4221 C   0  0  0  0  0  0  0  0  0  0  0  0
   12.8677  -15.2389   15.3114 C   0  0  0  0  0  0  0  0  0  0  0  0
   12.0518  -16.3477   15.2548 C   0  0  0  0  0  0  0  0  0  0  0  0
   11.4538  -16.4106   14.0560 N   0  0  0  0  0  0  0  0  0  0  0  0
   11.8786  -15.3521   13.3429 C   0  0  0  0  0  0  0  0  0  0  0  0
   12.7336  -14.6469   14.1073 N   0  0  0  0  0  0  0  0  0  0  0  0
   14.4064  -15.3974   18.7823 C   0  0  0  0  0  0  0  0  0  0  0  0
   14.9938  -14.3376   19.1875 O   0  0  0  0  0  0  0  0  0  0  0  0
   14.3241  -14.7471   22.5950 N   0  0  0  0  0  0  0  0  0  0  0  0
   15.5884  -15.2188   22.1585 C   0  0  0  0  0  0  0  0  0  0  0  0
   16.5387  -14.4199   22.2132 O   0  0  0  0  0  0  0  0  0  0  0  0
   15.8049  -16.5910   21.6551 C   0  0  0  0  0  0  0  0  0  0  0  0
   16.0799  -16.6573   20.1707 C   0  0  2  0  0  0  0  0  0  0  0  0
   14.8460  -16.6016   19.3810 N   0  0  0  0  0  0  0  0  0  0  0  0
   16.9131  -17.8141   19.8779 C   0  0  0  0  0  0  0  0  0  0  0  0
   18.0932  -17.8201   20.3100 O   0  0  0  0  0  0  0  0  0  0  0  0
   16.4723  -18.8856   19.1598 O   0  0  0  0  0  0  0  0  0  0  0  0
  2  3  2  0
  2  1  1  0
  4  2  1  0
  5  7  1  0
  5  4  1  0
  5  6  1  6
  7  8  2  0
  9 10  1  0
  9  7  1  0
 10 11  1  6
 11 12  1  0
 12 16  1  0
 13 12  2  0
 13 14  1  0
 14 15  1  0
 16 15  2  0
 17 24  1  0
 17 10  1  0
 18 17  2  0
 20 19  1  0
 21 20  2  0
 22 20  1  0
 23 24  1  0
 23 22  1  1
 25 27  1  0
 25 23  1  0
 26 25  2  0
M  END
$$$$
