IRR.pdb
     RDKit          3D

 31 30  0  0  1  0  0  0  0  0999 V2000
    5.3246  -11.7806   27.1797 C   0  0  0  0  0  0  0  0  0  0  0  0
    6.4223  -12.6763   27.7159 C   0  0  0  0  0  0  0  0  0  0  0  0
    7.2397  -13.3013   26.6325 C   0  0  2  0  0  0  0  0  0  0  0  0
    7.9119  -12.1883   25.8591 C   0  0  0  0  0  0  0  0  0  0  0  0
    6.4811  -14.2408   25.7477 C   0  0  2  0  0  0  0  0  0  0  0  0
    5.9966  -15.3283   26.6058 N   0  0  0  0  0  0  0  0  0  0  0  0
    7.2449  -14.7985   24.6398 C   0  0  0  0  0  0  0  0  0  0  0  0
    7.9998  -15.7791   24.8158 O   0  0  0  0  0  0  0  0  0  0  0  0
    9.7391  -15.0162   17.3383 N   0  0  0  0  0  0  0  0  0  0  0  0
    8.4318  -14.6477   16.9065 C   0  0  0  0  0  0  0  0  0  0  0  0
    7.9380  -15.2324   15.8649 N   0  0  0  0  0  0  0  0  0  0  0  0
    7.7312  -13.6525   17.6420 N   0  0  0  0  0  0  0  0  0  0  0  0
    8.3944  -13.0483   18.7678 C   0  0  0  0  0  0  0  0  0  0  0  0
    8.6820  -14.0742   19.8581 C   0  0  0  0  0  0  0  0  0  0  0  0
    7.8539  -13.7366   21.0560 C   0  0  0  0  0  0  0  0  0  0  0  0
    8.0101  -14.6593   22.2221 C   0  0  2  0  0  0  0  0  0  0  0  0
    7.1539  -14.2483   23.3401 N   0  0  0  0  0  0  0  0  0  0  0  0
    9.4192  -14.8009   22.6881 C   0  0  0  0  0  0  0  0  0  0  0  0
    9.8800  -14.0599   23.6053 O   0  0  0  0  0  0  0  0  0  0  0  0
    6.9669  -15.0115   15.5547 N   0  0  0  0  0  0  0  0  0  0  0  0
    9.6611  -15.4951   27.4819 C   0  0  0  0  0  0  0  0  0  0  0  0
   10.7580  -16.1666   28.0832 N   0  0  0  0  0  0  0  0  0  0  0  0
   11.3397  -15.6040   29.0847 N   0  0  0  0  0  0  0  0  0  0  0  0
   11.2364  -17.4230   27.6316 C   0  0  0  0  0  0  0  0  0  0  0  0
   10.8619  -18.0344   26.3674 C   0  0  0  0  0  0  0  0  0  0  0  0
   11.5215  -17.4243   25.2071 C   0  0  0  0  0  0  0  0  0  0  0  0
   10.8202  -17.0253   24.0056 C   0  0  2  0  0  0  0  0  0  0  0  0
   11.4427  -16.3364   22.8651 N   0  0  0  0  0  0  0  0  0  0  0  0
   10.2705  -15.7707   22.1105 C   0  0  0  0  0  0  0  0  0  0  0  0
   12.0821  -17.2149   21.8335 O   0  0  0  0  0  0  0  0  0  0  0  0
   13.4508  -17.4906   21.8180 O   0  0  0  0  0  0  0  0  0  0  0  0
  2  3  1  0
  2  1  1  0
  3  4  1  6
  5  6  1  1
  5  3  1  0
  7  8  2  0
  7  5  1  0
  9 10  1  0
 10 12  1  0
 11 10  2  0
 12 13  1  0
 13 14  1  0
 14 15  1  0
 16 15  1  6
 16 18  1  0
 16 17  1  0
 17  7  1  0
 18 19  2  0
 20 21  1  0
 21 23  1  0
 21 22  2  0
 23 24  1  0
 24 25  1  0
 26 25  1  0
 27 26  1  1
 28 27  1  0
 28 18  1  0
 29 27  1  0
 30 29  1  0
 31 29  2  0
M  END
$$$$
