IRR.pdb
     RDKit          3D

 31 30  0  0  1  0  0  0  0  0999 V2000
    7.6347  -11.4301   19.0475 C   0  0  0  0  0  0  0  0  0  0  0  0
    8.2120  -12.6950   18.4462 C   0  0  0  0  0  0  0  0  0  0  0  0
    8.3527  -13.7980   19.4443 C   0  0  2  0  0  0  0  0  0  0  0  0
    9.2395  -13.2989   20.5637 C   0  0  0  0  0  0  0  0  0  0  0  0
    8.8263  -15.0966   18.8698 C   0  0  2  0  0  0  0  0  0  0  0  0
    7.8429  -15.4913   17.8545 N   0  0  0  0  0  0  0  0  0  0  0  0
    8.9897  -16.1759   19.8344 C   0  0  0  0  0  0  0  0  0  0  0  0
    7.9946  -16.7789   20.2909 O   0  0  0  0  0  0  0  0  0  0  0  0
   10.3185  -18.7848   15.7931 N   0  0  0  0  0  0  0  0  0  0  0  0
   11.0459  -19.6503   16.6609 C   0  0  0  0  0  0  0  0  0  0  0  0
   12.3325  -19.6990   16.5478 N   0  0  0  0  0  0  0  0  0  0  0  0
   10.3215  -20.4213   17.6112 N   0  0  0  0  0  0  0  0  0  0  0  0
   10.4716  -20.0952   19.0053 C   0  0  0  0  0  0  0  0  0  0  0  0
   11.4184  -18.9165   19.2004 C   0  0  0  0  0  0  0  0  0  0  0  0
   11.5248  -18.6321   20.6641 C   0  0  0  0  0  0  0  0  0  0  0  0
   10.5060  -17.6818   21.2067 C   0  0  2  0  0  0  0  0  0  0  0  0
   10.2733  -16.5695   20.2793 N   0  0  0  0  0  0  0  0  0  0  0  0
   10.8426  -17.1522   22.5592 C   0  0  0  0  0  0  0  0  0  0  0  0
   11.7283  -16.2600   22.7080 O   0  0  0  0  0  0  0  0  0  0  0  0
   12.8947  -20.2549   17.2281 N   0  0  0  0  0  0  0  0  0  0  0  0
    6.9827  -11.4225   27.3313 C   0  0  0  0  0  0  0  0  0  0  0  0
    6.6792  -12.6069   26.6097 N   0  0  0  0  0  0  0  0  0  0  0  0
    5.4469  -12.9714   26.5309 N   0  0  0  0  0  0  0  0  0  0  0  0
    7.6691  -13.4000   25.9751 C   0  0  0  0  0  0  0  0  0  0  0  0
    7.3821  -14.5682   25.1595 C   0  0  0  0  0  0  0  0  0  0  0  0
    8.5866  -15.2788   24.7150 C   0  0  0  0  0  0  0  0  0  0  0  0
    9.1496  -16.4146   25.4132 C   0  0  2  0  0  0  0  0  0  0  0  0
   10.4272  -17.0568   25.0696 N   0  0  0  0  0  0  0  0  0  0  0  0
   10.1749  -17.6401   23.7060 C   0  0  0  0  0  0  0  0  0  0  0  0
   10.7891  -18.2731   25.8661 O   0  0  0  0  0  0  0  0  0  0  0  0
   11.8688  -18.3042   26.7508 O   0  0  0  0  0  0  0  0  0  0  0  0
  2  3  1  0
  2  1  1  0
  3  4  1  1
  5  6  1  6
  5  3  1  0
  7  8  2  0
  7  5  1  0
  9 10  1  0
 10 12  1  0
 11 10  2  0
 12 13  1  0
 13 14  1  0
 14 15  1  0
 16 15  1  6
 16 18  1  0
 16 17  1  0
 17  7  1  0
 18 19  2  0
 20 21  1  0
 21 23  1  0
 21 22  2  0
 23 24  1  0
 24 25  1  0
 26 25  1  0
 27 26  1  6
 28 27  1  0
 28 18  1  0
 29 27  1  0
 30 29  1  0
 31 29  2  0
M  END
$$$$
