IRR.pdb
     RDKit          3D

 31 30  0  0  1  0  0  0  0  0999 V2000
    6.4146  -11.2213   27.8029 C   0  0  0  0  0  0  0  0  0  0  0  0
    5.7603  -12.3166   26.9863 C   0  0  0  0  0  0  0  0  0  0  0  0
    6.7073  -12.9734   26.0354 C   0  0  2  0  0  0  0  0  0  0  0  0
    7.3644  -11.8873   25.2123 C   0  0  0  0  0  0  0  0  0  0  0  0
    6.0924  -14.0446   25.1895 C   0  0  2  0  0  0  0  0  0  0  0  0
    5.6538  -15.1041   26.1052 N   0  0  0  0  0  0  0  0  0  0  0  0
    6.9709  -14.6110   24.1749 C   0  0  0  0  0  0  0  0  0  0  0  0
    7.7795  -15.5185   24.4666 O   0  0  0  0  0  0  0  0  0  0  0  0
    7.6245  -15.5655   15.5018 N   0  0  0  0  0  0  0  0  0  0  0  0
    8.4191  -14.6708   16.2761 C   0  0  0  0  0  0  0  0  0  0  0  0
    8.5114  -13.4393   15.8948 N   0  0  0  0  0  0  0  0  0  0  0  0
    9.0746  -15.1754   17.4327 N   0  0  0  0  0  0  0  0  0  0  0  0
    8.3666  -15.1351   18.6856 C   0  0  0  0  0  0  0  0  0  0  0  0
    8.8678  -13.9988   19.5696 C   0  0  0  0  0  0  0  0  0  0  0  0
    7.8309  -13.7142   20.6079 C   0  0  0  0  0  0  0  0  0  0  0  0
    7.8388  -14.6320   21.7882 C   0  0  2  0  0  0  0  0  0  0  0  0
    6.9335  -14.1519   22.8378 N   0  0  0  0  0  0  0  0  0  0  0  0
    9.1975  -14.8628   22.3572 C   0  0  0  0  0  0  0  0  0  0  0  0
    9.7491  -13.9976   23.0989 O   0  0  0  0  0  0  0  0  0  0  0  0
    9.1255  -12.7770   16.4164 N   0  0  0  0  0  0  0  0  0  0  0  0
   10.6577  -20.1797   28.2308 C   0  0  0  0  0  0  0  0  0  0  0  0
   11.9123  -20.0510   27.5790 N   0  0  0  0  0  0  0  0  0  0  0  0
   12.9603  -19.8782   28.3069 N   0  0  0  0  0  0  0  0  0  0  0  0
   12.0598  -20.1054   26.1695 C   0  0  0  0  0  0  0  0  0  0  0  0
   11.0802  -19.5962   25.2244 C   0  0  0  0  0  0  0  0  0  0  0  0
   11.5268  -18.3923   24.5140 C   0  0  0  0  0  0  0  0  0  0  0  0
   10.7025  -17.6669   23.5712 C   0  0  2  0  0  0  0  0  0  0  0  0
   11.1229  -16.4526   22.8561 N   0  0  0  0  0  0  0  0  0  0  0  0
    9.8978  -16.0585   22.0768 C   0  0  0  0  0  0  0  0  0  0  0  0
   12.1349  -16.6452   21.7681 O   0  0  0  0  0  0  0  0  0  0  0  0
   13.5002  -16.4219   21.9569 O   0  0  0  0  0  0  0  0  0  0  0  0
  2  3  1  0
  2  1  1  0
  3  4  1  6
  5  6  1  1
  5  3  1  0
  7  8  2  0
  7  5  1  0
  9 10  1  0
 10 12  1  0
 11 10  2  0
 12 13  1  0
 13 14  1  0
 14 15  1  0
 16 15  1  6
 16 18  1  0
 16 17  1  0
 17  7  1  0
 18 19  2  0
 20 21  1  0
 21 23  1  0
 21 22  2  0
 23 24  1  0
 24 25  1  0
 26 25  1  0
 27 26  1  1
 28 27  1  0
 28 18  1  0
 29 27  1  0
 30 29  1  0
 31 29  2  0
M  END
$$$$
