IRR.pdb
     RDKit          3D

 31 30  0  0  1  0  0  0  0  0999 V2000
    7.4757  -18.4917   26.8658 C   0  0  0  0  0  0  0  0  0  0  0  0
    7.7229  -18.7861   25.4006 C   0  0  0  0  0  0  0  0  0  0  0  0
    6.5735  -18.3945   24.5299 C   0  0  2  0  0  0  0  0  0  0  0  0
    5.3463  -19.1269   25.0263 C   0  0  0  0  0  0  0  0  0  0  0  0
    6.8098  -18.5937   23.0652 C   0  0  2  0  0  0  0  0  0  0  0  0
    6.9740  -20.0372   22.8579 N   0  0  0  0  0  0  0  0  0  0  0  0
    7.9649  -17.8899   22.5245 C   0  0  0  0  0  0  0  0  0  0  0  0
    9.0695  -18.4651   22.4182 O   0  0  0  0  0  0  0  0  0  0  0  0
    9.3815  -13.9386   17.6348 N   0  0  0  0  0  0  0  0  0  0  0  0
    8.1386  -13.4258   17.1618 C   0  0  0  0  0  0  0  0  0  0  0  0
    7.9114  -13.4342   15.8895 N   0  0  0  0  0  0  0  0  0  0  0  0
    7.2059  -12.9276   18.1126 N   0  0  0  0  0  0  0  0  0  0  0  0
    7.5390  -13.0328   19.5092 C   0  0  0  0  0  0  0  0  0  0  0  0
    8.3504  -14.2919   19.7925 C   0  0  0  0  0  0  0  0  0  0  0  0
    8.6044  -14.3702   21.2635 C   0  0  0  0  0  0  0  0  0  0  0  0
    9.0299  -15.7117   21.7685 C   0  0  2  0  0  0  0  0  0  0  0  0
    7.8689  -16.5421   22.1067 N   0  0  0  0  0  0  0  0  0  0  0  0
    9.9615  -15.6454   22.9306 C   0  0  0  0  0  0  0  0  0  0  0  0
    9.5495  -15.3026   24.0776 O   0  0  0  0  0  0  0  0  0  0  0  0
    7.0070  -13.0697   15.5193 N   0  0  0  0  0  0  0  0  0  0  0  0
   13.5116  -20.3700   29.8697 C   0  0  0  0  0  0  0  0  0  0  0  0
   12.6277  -20.0634   28.8019 N   0  0  0  0  0  0  0  0  0  0  0  0
   11.4979  -20.6789   28.7527 N   0  0  0  0  0  0  0  0  0  0  0  0
   12.9335  -19.1133   27.7943 C   0  0  0  0  0  0  0  0  0  0  0  0
   12.0335  -18.7498   26.7127 C   0  0  0  0  0  0  0  0  0  0  0  0
   12.4912  -17.5902   25.9385 C   0  0  0  0  0  0  0  0  0  0  0  0
   11.8089  -17.0922   24.7633 C   0  0  1  0  0  0  0  0  0  0  0  0
   12.2770  -15.9674   23.9397 N   0  0  0  0  0  0  0  0  0  0  0  0
   11.3293  -15.9656   22.7712 C   0  0  0  0  0  0  0  0  0  0  0  0
   13.6022  -16.1509   23.2651 O   0  0  0  0  0  0  0  0  0  0  0  0
   13.7253  -16.4263   21.9018 O   0  0  0  0  0  0  0  0  0  0  0  0
  2  3  1  0
  2  1  1  0
  3  4  1  1
  5  6  1  1
  5  3  1  0
  7  8  2  0
  7  5  1  0
  9 10  1  0
 10 12  1  0
 11 10  2  0
 12 13  1  0
 13 14  1  0
 14 15  1  0
 16 15  1  1
 16 18  1  0
 16 17  1  0
 17  7  1  0
 18 19  2  0
 20 21  1  0
 21 23  1  0
 21 22  2  0
 23 24  1  0
 24 25  1  0
 26 25  1  0
 27 26  1  1
 28 27  1  0
 28 18  1  0
 29 27  1  0
 30 29  1  0
 31 29  2  0
M  END
$$$$
