IRR.pdb
     RDKit          3D

 31 30  0  0  1  0  0  0  0  0999 V2000
    6.5493  -11.3082   27.4537 C   0  0  0  0  0  0  0  0  0  0  0  0
    5.9088  -12.2975   26.5021 C   0  0  0  0  0  0  0  0  0  0  0  0
    6.8452  -13.3819   26.0783 C   0  0  2  0  0  0  0  0  0  0  0  0
    8.1244  -12.7291   25.6024 C   0  0  0  0  0  0  0  0  0  0  0  0
    6.2762  -14.3341   25.0731 C   0  0  2  0  0  0  0  0  0  0  0  0
    4.9779  -14.7736   25.5977 N   0  0  0  0  0  0  0  0  0  0  0  0
    7.1044  -15.4977   24.7865 C   0  0  0  0  0  0  0  0  0  0  0  0
    6.6127  -16.6469   24.7916 O   0  0  0  0  0  0  0  0  0  0  0  0
    7.4865  -13.0378   17.6170 N   0  0  0  0  0  0  0  0  0  0  0  0
    7.8538  -14.3857   17.3349 C   0  0  0  0  0  0  0  0  0  0  0  0
    7.7407  -14.8153   16.1211 N   0  0  0  0  0  0  0  0  0  0  0  0
    8.3272  -15.1962   18.4031 N   0  0  0  0  0  0  0  0  0  0  0  0
    8.5288  -14.5767   19.6868 C   0  0  0  0  0  0  0  0  0  0  0  0
    8.9782  -15.5941   20.7292 C   0  0  0  0  0  0  0  0  0  0  0  0
    8.4385  -15.1785   22.0598 C   0  0  0  0  0  0  0  0  0  0  0  0
    9.0969  -15.8121   23.2433 C   0  0  2  0  0  0  0  0  0  0  0  0
    8.4816  -15.3600   24.4958 N   0  0  0  0  0  0  0  0  0  0  0  0
   10.5710  -15.5948   23.2953 C   0  0  0  0  0  0  0  0  0  0  0  0
   11.0569  -14.4261   23.3244 O   0  0  0  0  0  0  0  0  0  0  0  0
    8.0762  -15.7713   15.8734 N   0  0  0  0  0  0  0  0  0  0  0  0
   11.3097  -21.2548   29.9891 C   0  0  0  0  0  0  0  0  0  0  0  0
   11.4216  -19.8444   29.8715 N   0  0  0  0  0  0  0  0  0  0  0  0
   12.0736  -19.2087   30.7818 N   0  0  0  0  0  0  0  0  0  0  0  0
   10.8506  -19.1107   28.8004 C   0  0  0  0  0  0  0  0  0  0  0  0
   11.3412  -19.1446   27.4328 C   0  0  0  0  0  0  0  0  0  0  0  0
   11.6329  -17.8147   26.8853 C   0  0  0  0  0  0  0  0  0  0  0  0
   11.3083  -17.4171   25.5322 C   0  0  2  0  0  0  0  0  0  0  0  0
   12.2960  -17.0105   24.5214 N   0  0  0  0  0  0  0  0  0  0  0  0
   11.4571  -16.6963   23.3127 C   0  0  0  0  0  0  0  0  0  0  0  0
   13.1938  -18.0928   24.0041 O   0  0  0  0  0  0  0  0  0  0  0  0
   12.7886  -19.0129   23.0352 O   0  0  0  0  0  0  0  0  0  0  0  0
  2  3  1  0
  2  1  1  0
  3  4  1  6
  5  6  1  1
  5  3  1  0
  7  8  2  0
  7  5  1  0
  9 10  1  0
 10 12  1  0
 11 10  2  0
 12 13  1  0
 13 14  1  0
 14 15  1  0
 16 15  1  6
 16 18  1  0
 16 17  1  0
 17  7  1  0
 18 19  2  0
 20 21  1  0
 21 23  1  0
 21 22  2  0
 23 24  1  0
 24 25  1  0
 26 25  1  0
 27 26  1  1
 28 27  1  0
 28 18  1  0
 29 27  1  0
 30 29  1  0
 31 29  2  0
M  END
$$$$
