IRR.pdb
     RDKit          3D

 31 30  0  0  1  0  0  0  0  0999 V2000
    6.9961  -11.7573   27.8795 C   0  0  0  0  0  0  0  0  0  0  0  0
    6.3305  -12.8568   27.0777 C   0  0  0  0  0  0  0  0  0  0  0  0
    7.1970  -13.3752   25.9763 C   0  0  2  0  0  0  0  0  0  0  0  0
    7.6500  -12.1929   25.1483 C   0  0  0  0  0  0  0  0  0  0  0  0
    6.5680  -14.4515   25.1476 C   0  0  2  0  0  0  0  0  0  0  0  0
    6.3253  -15.5865   26.0456 N   0  0  0  0  0  0  0  0  0  0  0  0
    7.3582  -14.8940   24.0066 C   0  0  0  0  0  0  0  0  0  0  0  0
    8.2700  -15.7367   24.1512 O   0  0  0  0  0  0  0  0  0  0  0  0
    9.5041  -15.1801   15.0180 N   0  0  0  0  0  0  0  0  0  0  0  0
    8.6117  -14.7675   16.0498 C   0  0  0  0  0  0  0  0  0  0  0  0
    7.9338  -13.6800   15.8814 N   0  0  0  0  0  0  0  0  0  0  0  0
    8.5092  -15.5718   17.2180 N   0  0  0  0  0  0  0  0  0  0  0  0
    7.6828  -15.0981   18.2974 C   0  0  0  0  0  0  0  0  0  0  0  0
    8.4167  -14.0662   19.1461 C   0  0  0  0  0  0  0  0  0  0  0  0
    7.6194  -13.8199   20.3863 C   0  0  0  0  0  0  0  0  0  0  0  0
    7.9401  -14.7139   21.5410 C   0  0  2  0  0  0  0  0  0  0  0  0
    7.1167  -14.3846   22.7095 N   0  0  0  0  0  0  0  0  0  0  0  0
    9.3823  -14.7082   21.9193 C   0  0  0  0  0  0  0  0  0  0  0  0
    9.8581  -13.7989   22.6606 O   0  0  0  0  0  0  0  0  0  0  0  0
    8.1272  -13.0674   15.0596 N   0  0  0  0  0  0  0  0  0  0  0  0
    9.9485  -19.7415   27.6611 C   0  0  0  0  0  0  0  0  0  0  0  0
   10.0172  -20.1618   26.3068 N   0  0  0  0  0  0  0  0  0  0  0  0
    9.4747  -21.2861   25.9914 N   0  0  0  0  0  0  0  0  0  0  0  0
   10.6527  -19.4006   25.2929 C   0  0  0  0  0  0  0  0  0  0  0  0
   11.3731  -18.1610   25.5311 C   0  0  0  0  0  0  0  0  0  0  0  0
   11.8687  -17.5297   24.3025 C   0  0  0  0  0  0  0  0  0  0  0  0
   11.0224  -16.8120   23.3734 C   0  0  1  0  0  0  0  0  0  0  0  0
   11.5090  -16.0811   22.1938 N   0  0  0  0  0  0  0  0  0  0  0  0
   10.2488  -15.7237   21.4538 C   0  0  0  0  0  0  0  0  0  0  0  0
   12.2488  -16.8926   21.1744 O   0  0  0  0  0  0  0  0  0  0  0  0
   13.6421  -16.9067   21.0849 O   0  0  0  0  0  0  0  0  0  0  0  0
  2  3  1  0
  2  1  1  0
  3  4  1  6
  5  6  1  1
  5  3  1  0
  7  8  2  0
  7  5  1  0
  9 10  1  0
 10 12  1  0
 11 10  2  0
 12 13  1  0
 13 14  1  0
 14 15  1  0
 16 15  1  6
 16 18  1  0
 16 17  1  0
 17  7  1  0
 18 19  2  0
 20 21  1  0
 21 23  1  0
 21 22  2  0
 23 24  1  0
 24 25  1  0
 26 25  1  0
 27 26  1  1
 28 27  1  0
 28 18  1  0
 29 27  1  0
 30 29  1  0
 31 29  2  0
M  END
$$$$
