IRR.pdb
     RDKit          3D

 31 30  0  0  1  0  0  0  0  0999 V2000
    6.5635  -11.4214   28.0342 C   0  0  0  0  0  0  0  0  0  0  0  0
    5.9807  -12.5189   27.1678 C   0  0  0  0  0  0  0  0  0  0  0  0
    7.0127  -13.2097   26.3370 C   0  0  2  0  0  0  0  0  0  0  0  0
    7.7662  -12.1519   25.5610 C   0  0  0  0  0  0  0  0  0  0  0  0
    6.4751  -14.2954   25.4577 C   0  0  2  0  0  0  0  0  0  0  0  0
    5.8551  -15.2868   26.3445 N   0  0  0  0  0  0  0  0  0  0  0  0
    7.4628  -14.9503   24.6107 C   0  0  0  0  0  0  0  0  0  0  0  0
    8.1687  -15.8804   25.0568 O   0  0  0  0  0  0  0  0  0  0  0  0
    9.5782  -13.5749   17.4121 N   0  0  0  0  0  0  0  0  0  0  0  0
    8.3741  -14.3104   17.2109 C   0  0  0  0  0  0  0  0  0  0  0  0
    8.3097  -15.1280   16.2119 N   0  0  0  0  0  0  0  0  0  0  0  0
    7.2983  -14.1098   18.1190 N   0  0  0  0  0  0  0  0  0  0  0  0
    7.5142  -13.2384   19.2444 C   0  0  0  0  0  0  0  0  0  0  0  0
    7.2961  -13.9714   20.5631 C   0  0  0  0  0  0  0  0  0  0  0  0
    8.6071  -14.5267   21.0186 C   0  0  0  0  0  0  0  0  0  0  0  0
    8.5845  -15.2120   22.3472 C   0  0  2  0  0  0  0  0  0  0  0  0
    7.6497  -14.5536   23.2661 N   0  0  0  0  0  0  0  0  0  0  0  0
    9.9275  -15.3246   22.9850 C   0  0  0  0  0  0  0  0  0  0  0  0
   10.4867  -14.3170   23.5093 O   0  0  0  0  0  0  0  0  0  0  0  0
    7.4260  -15.6477   16.0200 N   0  0  0  0  0  0  0  0  0  0  0  0
    9.3276  -23.4083   23.3002 C   0  0  0  0  0  0  0  0  0  0  0  0
    9.7024  -22.2782   24.0735 N   0  0  0  0  0  0  0  0  0  0  0  0
    8.8768  -21.8506   24.9642 N   0  0  0  0  0  0  0  0  0  0  0  0
   10.9398  -21.6051   23.9085 C   0  0  0  0  0  0  0  0  0  0  0  0
   11.3481  -20.4432   24.6803 C   0  0  0  0  0  0  0  0  0  0  0  0
   11.4080  -19.2093   23.8882 C   0  0  0  0  0  0  0  0  0  0  0  0
   11.8763  -17.9439   24.4116 C   0  0  1  0  0  0  0  0  0  0  0  0
   11.9699  -16.7007   23.6315 N   0  0  0  0  0  0  0  0  0  0  0  0
   10.6041  -16.5656   23.0154 C   0  0  0  0  0  0  0  0  0  0  0  0
   12.8536  -16.7461   22.4224 O   0  0  0  0  0  0  0  0  0  0  0  0
   12.3659  -16.9953   21.1380 O   0  0  0  0  0  0  0  0  0  0  0  0
  2  3  1  0
  2  1  1  0
  3  4  1  6
  5  6  1  1
  5  3  1  0
  7  8  2  0
  7  5  1  0
  9 10  1  0
 10 12  1  0
 11 10  2  0
 12 13  1  0
 13 14  1  0
 14 15  1  0
 16 15  1  6
 16 18  1  0
 16 17  1  0
 17  7  1  0
 18 19  2  0
 20 21  1  0
 21 23  1  0
 21 22  2  0
 23 24  1  0
 24 25  1  0
 26 25  1  0
 27 26  1  1
 28 27  1  0
 28 18  1  0
 29 27  1  0
 30 29  1  0
 31 29  2  0
M  END
$$$$
