IRR.pdb
     RDKit          3D

 31 30  0  0  1  0  0  0  0  0999 V2000
    4.9220  -10.7869   28.1467 C   0  0  0  0  0  0  0  0  0  0  0  0
    5.8805  -10.8775   26.9771 C   0  0  0  0  0  0  0  0  0  0  0  0
    6.2714  -12.2836   26.6570 C   0  0  2  0  0  0  0  0  0  0  0  0
    6.7858  -12.9219   27.9286 C   0  0  0  0  0  0  0  0  0  0  0  0
    7.2325  -12.4152   25.5170 C   0  0  2  0  0  0  0  0  0  0  0  0
    6.7231  -11.5627   24.4365 N   0  0  0  0  0  0  0  0  0  0  0  0
    7.4191  -13.7716   25.0197 C   0  0  0  0  0  0  0  0  0  0  0  0
    7.6029  -14.7212   25.8114 O   0  0  0  0  0  0  0  0  0  0  0  0
    9.3462  -12.7884   17.5803 N   0  0  0  0  0  0  0  0  0  0  0  0
    8.9077  -14.1071   17.2639 C   0  0  0  0  0  0  0  0  0  0  0  0
    8.7952  -14.4384   16.0197 N   0  0  0  0  0  0  0  0  0  0  0  0
    8.6134  -14.9975   18.3329 N   0  0  0  0  0  0  0  0  0  0  0  0
    7.6577  -14.5757   19.3235 C   0  0  0  0  0  0  0  0  0  0  0  0
    8.2615  -14.6012   20.7230 C   0  0  0  0  0  0  0  0  0  0  0  0
    7.3728  -15.4155   21.6072 C   0  0  0  0  0  0  0  0  0  0  0  0
    7.7032  -15.3676   23.0646 C   0  0  2  0  0  0  0  0  0  0  0  0
    7.3977  -14.0504   23.6332 N   0  0  0  0  0  0  0  0  0  0  0  0
    9.1152  -15.7366   23.3702 C   0  0  0  0  0  0  0  0  0  0  0  0
   10.0350  -14.8669   23.3504 O   0  0  0  0  0  0  0  0  0  0  0  0
    8.4708  -15.3958   15.7627 N   0  0  0  0  0  0  0  0  0  0  0  0
   14.0252  -20.5662   30.1354 C   0  0  0  0  0  0  0  0  0  0  0  0
   12.8045  -20.1669   29.5304 N   0  0  0  0  0  0  0  0  0  0  0  0
   11.7206  -20.2824   30.2157 N   0  0  0  0  0  0  0  0  0  0  0  0
   12.7286  -19.6486   28.2125 C   0  0  0  0  0  0  0  0  0  0  0  0
   11.5137  -19.1303   27.6062 C   0  0  0  0  0  0  0  0  0  0  0  0
   11.7238  -18.5726   26.2652 C   0  0  0  0  0  0  0  0  0  0  0  0
   10.6612  -18.0213   25.4518 C   0  0  1  0  0  0  0  0  0  0  0  0
   10.8476  -17.4497   24.1097 N   0  0  0  0  0  0  0  0  0  0  0  0
    9.4535  -17.0718   23.6890 C   0  0  0  0  0  0  0  0  0  0  0  0
   11.2473  -18.4120   23.0330 O   0  0  0  0  0  0  0  0  0  0  0  0
   12.5751  -18.7728   22.7958 O   0  0  0  0  0  0  0  0  0  0  0  0
  2  3  1  0
  2  1  1  0
  3  4  1  1
  5  6  1  6
  5  3  1  0
  7  8  2  0
  7  5  1  0
  9 10  1  0
 10 12  1  0
 11 10  2  0
 12 13  1  0
 13 14  1  0
 14 15  1  0
 16 15  1  6
 16 18  1  0
 16 17  1  0
 17  7  1  0
 18 19  2  0
 20 21  1  0
 21 23  1  0
 21 22  2  0
 23 24  1  0
 24 25  1  0
 26 25  1  0
 27 26  1  1
 28 27  1  0
 28 18  1  0
 29 27  1  0
 30 29  1  0
 31 29  2  0
M  END
$$$$
