IRR.pdb
     RDKit          3D

 31 30  0  0  1  0  0  0  0  0999 V2000
    7.5311  -11.3129   27.6685 C   0  0  0  0  0  0  0  0  0  0  0  0
    6.7220  -12.4848   27.1521 C   0  0  0  0  0  0  0  0  0  0  0  0
    7.4855  -13.3359   26.1902 C   0  0  2  0  0  0  0  0  0  0  0  0
    8.0720  -12.4269   25.1325 C   0  0  0  0  0  0  0  0  0  0  0  0
    6.6995  -14.4677   25.6054 C   0  0  2  0  0  0  0  0  0  0  0  0
    6.2857  -15.3171   26.7283 N   0  0  0  0  0  0  0  0  0  0  0  0
    7.4130  -15.2728   24.6232 C   0  0  0  0  0  0  0  0  0  0  0  0
    8.2771  -16.1007   24.9842 O   0  0  0  0  0  0  0  0  0  0  0  0
    6.8337  -14.4990   15.9558 N   0  0  0  0  0  0  0  0  0  0  0  0
    8.0395  -13.9229   16.4513 C   0  0  0  0  0  0  0  0  0  0  0  0
    8.6200  -13.0062   15.7489 N   0  0  0  0  0  0  0  0  0  0  0  0
    8.5488  -14.3845   17.6961 N   0  0  0  0  0  0  0  0  0  0  0  0
    7.7822  -15.3635   18.4217 C   0  0  0  0  0  0  0  0  0  0  0  0
    8.4718  -15.7540   19.7239 C   0  0  0  0  0  0  0  0  0  0  0  0
    7.7073  -15.1576   20.8616 C   0  0  0  0  0  0  0  0  0  0  0  0
    7.9470  -15.7906   22.1948 C   0  0  2  0  0  0  0  0  0  0  0  0
    7.1490  -15.1405   23.2400 N   0  0  0  0  0  0  0  0  0  0  0  0
    9.3829  -15.8160   22.5954 C   0  0  0  0  0  0  0  0  0  0  0  0
    9.9331  -14.8004   23.1137 O   0  0  0  0  0  0  0  0  0  0  0  0
    9.5201  -12.5920   16.0745 N   0  0  0  0  0  0  0  0  0  0  0  0
   13.5219  -16.4976   18.1606 C   0  0  0  0  0  0  0  0  0  0  0  0
   13.8599  -15.1215   18.0737 N   0  0  0  0  0  0  0  0  0  0  0  0
   14.7886  -14.7747   17.2521 N   0  0  0  0  0  0  0  0  0  0  0  0
   13.2215  -14.1188   18.8475 C   0  0  0  0  0  0  0  0  0  0  0  0
   13.3648  -13.9818   20.2872 C   0  0  0  0  0  0  0  0  0  0  0  0
   13.1634  -15.2400   21.0152 C   0  0  0  0  0  0  0  0  0  0  0  0
   11.8924  -15.6463   21.5755 C   0  0  2  0  0  0  0  0  0  0  0  0
   11.6579  -16.9154   22.2805 N   0  0  0  0  0  0  0  0  0  0  0  0
   10.1598  -16.9813   22.4022 C   0  0  0  0  0  0  0  0  0  0  0  0
   12.0888  -16.9623   23.7147 O   0  0  0  0  0  0  0  0  0  0  0  0
   13.0665  -17.8427   24.1824 O   0  0  0  0  0  0  0  0  0  0  0  0
  2  3  1  0
  2  1  1  0
  3  4  1  6
  5  6  1  1
  5  3  1  0
  7  8  2  0
  7  5  1  0
  9 10  1  0
 10 12  1  0
 11 10  2  0
 12 13  1  0
 13 14  1  0
 14 15  1  0
 16 15  1  6
 16 18  1  0
 16 17  1  0
 17  7  1  0
 18 19  2  0
 20 21  1  0
 21 23  1  0
 21 22  2  0
 23 24  1  0
 24 25  1  0
 26 25  1  0
 27 26  1  6
 28 27  1  0
 28 18  1  0
 29 27  1  0
 30 29  1  0
 31 29  2  0
M  END
$$$$
