IRR.pdb
     RDKit          3D

 31 30  0  0  1  0  0  0  0  0999 V2000
    8.2904  -12.3393   18.8721 C   0  0  0  0  0  0  0  0  0  0  0  0
    8.8483  -13.2652   19.9333 C   0  0  0  0  0  0  0  0  0  0  0  0
    7.9097  -14.3731   20.2859 C   0  0  2  0  0  0  0  0  0  0  0  0
    6.6569  -13.7522   20.8636 C   0  0  0  0  0  0  0  0  0  0  0  0
    8.4968  -15.4220   21.1781 C   0  0  2  0  0  0  0  0  0  0  0  0
    8.8714  -14.7499   22.4277 N   0  0  0  0  0  0  0  0  0  0  0  0
    9.6547  -16.1184   20.6340 C   0  0  0  0  0  0  0  0  0  0  0  0
    9.5121  -17.0296   19.7903 O   0  0  0  0  0  0  0  0  0  0  0  0
   15.6546  -14.4329   16.8963 N   0  0  0  0  0  0  0  0  0  0  0  0
   14.4688  -14.6494   16.1358 C   0  0  0  0  0  0  0  0  0  0  0  0
   13.9984  -13.6714   15.4338 N   0  0  0  0  0  0  0  0  0  0  0  0
   13.8574  -15.9323   16.1855 N   0  0  0  0  0  0  0  0  0  0  0  0
   13.7168  -16.5675   17.4697 C   0  0  0  0  0  0  0  0  0  0  0  0
   12.5732  -15.9543   18.2696 C   0  0  0  0  0  0  0  0  0  0  0  0
   13.0039  -15.8349   19.6960 C   0  0  0  0  0  0  0  0  0  0  0  0
   12.1540  -16.5673   20.6843 C   0  0  2  0  0  0  0  0  0  0  0  0
   10.9666  -15.7844   21.0435 N   0  0  0  0  0  0  0  0  0  0  0  0
   12.8861  -16.9729   21.9182 C   0  0  0  0  0  0  0  0  0  0  0  0
   12.8626  -16.2502   22.9574 O   0  0  0  0  0  0  0  0  0  0  0  0
   13.1215  -13.7994   14.8838 N   0  0  0  0  0  0  0  0  0  0  0  0
   10.3501  -20.9129   28.5079 C   0  0  0  0  0  0  0  0  0  0  0  0
   11.7481  -20.7143   28.6547 N   0  0  0  0  0  0  0  0  0  0  0  0
   12.2452  -20.7479   29.8419 N   0  0  0  0  0  0  0  0  0  0  0  0
   12.6152  -20.4831   27.5564 C   0  0  0  0  0  0  0  0  0  0  0  0
   12.2246  -19.7963   26.3365 C   0  0  0  0  0  0  0  0  0  0  0  0
   13.3499  -19.5258   25.4343 C   0  0  0  0  0  0  0  0  0  0  0  0
   13.1985  -18.9458   24.1170 C   0  0  1  0  0  0  0  0  0  0  0  0
   14.3112  -18.6465   23.2033 N   0  0  0  0  0  0  0  0  0  0  0  0
   13.6239  -18.1786   21.9495 C   0  0  0  0  0  0  0  0  0  0  0  0
   15.0929  -19.8250   22.7081 O   0  0  0  0  0  0  0  0  0  0  0  0
   16.2517  -20.2828   23.3383 O   0  0  0  0  0  0  0  0  0  0  0  0
  2  3  1  0
  2  1  1  0
  3  4  1  1
  5  6  1  1
  5  3  1  0
  7  8  2  0
  7  5  1  0
  9 10  1  0
 10 12  1  0
 11 10  2  0
 12 13  1  0
 13 14  1  0
 14 15  1  0
 16 15  1  6
 16 18  1  0
 16 17  1  0
 17  7  1  0
 18 19  2  0
 20 21  1  0
 21 23  1  0
 21 22  2  0
 23 24  1  0
 24 25  1  0
 26 25  1  0
 27 26  1  1
 28 27  1  0
 28 18  1  0
 29 27  1  0
 30 29  1  0
 31 29  2  0
M  END
$$$$
