IRR.pdb
     RDKit          3D

 31 30  0  0  1  0  0  0  0  0999 V2000
    7.4317  -11.2623   19.4417 C   0  0  0  0  0  0  0  0  0  0  0  0
    7.8525  -12.4172   18.5563 C   0  0  0  0  0  0  0  0  0  0  0  0
    8.6681  -13.4363   19.2835 C   0  0  2  0  0  0  0  0  0  0  0  0
    9.8468  -12.7244   19.9101 C   0  0  0  0  0  0  0  0  0  0  0  0
    9.0805  -14.6093   18.4500 C   0  0  2  0  0  0  0  0  0  0  0  0
    7.8459  -15.2231   17.9471 N   0  0  0  0  0  0  0  0  0  0  0  0
    9.8745  -15.6130   19.1458 C   0  0  0  0  0  0  0  0  0  0  0  0
    9.3352  -16.4157   19.9377 O   0  0  0  0  0  0  0  0  0  0  0  0
   14.0078  -15.8094   14.6089 N   0  0  0  0  0  0  0  0  0  0  0  0
   13.6146  -17.1681   14.4334 C   0  0  0  0  0  0  0  0  0  0  0  0
   12.8602  -17.4675   13.4276 N   0  0  0  0  0  0  0  0  0  0  0  0
   14.0704  -18.1318   15.3745 N   0  0  0  0  0  0  0  0  0  0  0  0
   14.3059  -17.7001   16.7275 C   0  0  0  0  0  0  0  0  0  0  0  0
   12.9965  -17.4214   17.4567 C   0  0  0  0  0  0  0  0  0  0  0  0
   13.3116  -17.0484   18.8695 C   0  0  0  0  0  0  0  0  0  0  0  0
   12.1403  -16.6208   19.6945 C   0  0  2  0  0  0  0  0  0  0  0  0
   11.2715  -15.7063   18.9456 N   0  0  0  0  0  0  0  0  0  0  0  0
   12.5198  -16.0055   20.9985 C   0  0  0  0  0  0  0  0  0  0  0  0
   12.9427  -14.8137   21.0583 O   0  0  0  0  0  0  0  0  0  0  0  0
   12.5427  -18.4513   13.2890 N   0  0  0  0  0  0  0  0  0  0  0  0
   10.5791  -16.8444   29.0407 C   0  0  0  0  0  0  0  0  0  0  0  0
   10.3477  -15.4668   28.7869 N   0  0  0  0  0  0  0  0  0  0  0  0
   10.4986  -14.6363   29.7592 N   0  0  0  0  0  0  0  0  0  0  0  0
    9.9613  -14.9696   27.5161 C   0  0  0  0  0  0  0  0  0  0  0  0
    9.9999  -15.7457   26.2880 C   0  0  0  0  0  0  0  0  0  0  0  0
   11.2758  -15.6387   25.5710 C   0  0  0  0  0  0  0  0  0  0  0  0
   11.5620  -16.3385   24.3370 C   0  0  2  0  0  0  0  0  0  0  0  0
   12.7746  -16.1436   23.5281 N   0  0  0  0  0  0  0  0  0  0  0  0
   12.4138  -16.7465   22.1979 C   0  0  0  0  0  0  0  0  0  0  0  0
   13.9691  -16.9567   23.9244 O   0  0  0  0  0  0  0  0  0  0  0  0
   14.9669  -16.4717   24.7722 O   0  0  0  0  0  0  0  0  0  0  0  0
  2  3  1  0
  2  1  1  0
  3  4  1  6
  5  6  1  1
  5  3  1  0
  7  8  2  0
  7  5  1  0
  9 10  1  0
 10 12  1  0
 11 10  2  0
 12 13  1  0
 13 14  1  0
 14 15  1  0
 16 15  1  6
 16 18  1  0
 16 17  1  0
 17  7  1  0
 18 19  2  0
 20 21  1  0
 21 23  1  0
 21 22  2  0
 23 24  1  0
 24 25  1  0
 26 25  1  0
 27 26  1  6
 28 27  1  0
 28 18  1  0
 29 27  1  0
 30 29  1  0
 31 29  2  0
M  END
$$$$
