IRR.pdb
     RDKit          3D

 31 30  0  0  1  0  0  0  0  0999 V2000
    8.3495  -11.4152   19.3493 C   0  0  0  0  0  0  0  0  0  0  0  0
    8.3023  -12.8755   18.9492 C   0  0  0  0  0  0  0  0  0  0  0  0
    8.2118  -13.7945   20.1238 C   0  0  2  0  0  0  0  0  0  0  0  0
    9.4195  -13.5457   21.0003 C   0  0  0  0  0  0  0  0  0  0  0  0
    8.0458  -15.2392   19.7687 C   0  0  2  0  0  0  0  0  0  0  0  0
    6.8382  -15.3329   18.9401 N   0  0  0  0  0  0  0  0  0  0  0  0
    7.9288  -16.1449   20.9036 C   0  0  0  0  0  0  0  0  0  0  0  0
    6.9889  -16.0267   21.7191 O   0  0  0  0  0  0  0  0  0  0  0  0
    5.7042  -22.1813   23.6905 N   0  0  0  0  0  0  0  0  0  0  0  0
    6.8339  -22.6088   24.4469 C   0  0  0  0  0  0  0  0  0  0  0  0
    6.6874  -23.5916   25.2735 N   0  0  0  0  0  0  0  0  0  0  0  0
    8.0707  -21.9331   24.2573 N   0  0  0  0  0  0  0  0  0  0  0  0
    8.1444  -20.9290   23.2284 C   0  0  0  0  0  0  0  0  0  0  0  0
    9.5432  -20.3302   23.1369 C   0  0  0  0  0  0  0  0  0  0  0  0
    9.5622  -19.3407   22.0166 C   0  0  0  0  0  0  0  0  0  0  0  0
    8.8813  -18.0402   22.3004 C   0  0  2  0  0  0  0  0  0  0  0  0
    8.8712  -17.1784   21.1133 N   0  0  0  0  0  0  0  0  0  0  0  0
    9.4615  -17.3014   23.4582 C   0  0  0  0  0  0  0  0  0  0  0  0
   10.4901  -16.5765   23.3196 O   0  0  0  0  0  0  0  0  0  0  0  0
    7.5036  -23.9349   25.8247 N   0  0  0  0  0  0  0  0  0  0  0  0
    5.6414  -11.1506   26.7370 C   0  0  0  0  0  0  0  0  0  0  0  0
    6.2802  -11.8734   25.6954 N   0  0  0  0  0  0  0  0  0  0  0  0
    6.0826  -11.4921   24.4815 N   0  0  0  0  0  0  0  0  0  0  0  0
    7.1223  -12.9896   25.9333 C   0  0  0  0  0  0  0  0  0  0  0  0
    7.5595  -13.4179   27.2515 C   0  0  0  0  0  0  0  0  0  0  0  0
    8.3468  -14.6561   27.2304 C   0  0  0  0  0  0  0  0  0  0  0  0
    8.3860  -15.5610   26.1016 C   0  0  1  0  0  0  0  0  0  0  0  0
    9.3961  -16.6122   25.9085 N   0  0  0  0  0  0  0  0  0  0  0  0
    8.8700  -17.3983   24.7387 C   0  0  0  0  0  0  0  0  0  0  0  0
    9.4711  -17.6588   26.9781 O   0  0  0  0  0  0  0  0  0  0  0  0
   10.3833  -17.5978   28.0335 O   0  0  0  0  0  0  0  0  0  0  0  0
  2  3  1  0
  2  1  1  0
  3  4  1  6
  5  6  1  6
  5  3  1  0
  7  8  2  0
  7  5  1  0
  9 10  1  0
 10 12  1  0
 11 10  2  0
 12 13  1  0
 13 14  1  0
 14 15  1  0
 16 15  1  6
 16 18  1  0
 16 17  1  0
 17  7  1  0
 18 19  2  0
 20 21  1  0
 21 23  1  0
 21 22  2  0
 23 24  1  0
 24 25  1  0
 26 25  1  0
 27 26  1  6
 28 27  1  0
 28 18  1  0
 29 27  1  0
 30 29  1  0
 31 29  2  0
M  END
$$$$
