IRR.pdb
     RDKit          3D

 31 30  0  0  1  0  0  0  0  0999 V2000
    8.4301  -11.7875   19.3188 C   0  0  0  0  0  0  0  0  0  0  0  0
    7.8089  -13.1207   18.9561 C   0  0  0  0  0  0  0  0  0  0  0  0
    8.2756  -14.2347   19.8357 C   0  0  2  0  0  0  0  0  0  0  0  0
    9.7884  -14.2354   19.8186 C   0  0  0  0  0  0  0  0  0  0  0  0
    7.6953  -15.5733   19.5005 C   0  0  2  0  0  0  0  0  0  0  0  0
    6.2482  -15.3795   19.3522 N   0  0  0  0  0  0  0  0  0  0  0  0
    7.9481  -16.6195   20.4821 C   0  0  0  0  0  0  0  0  0  0  0  0
    7.3956  -16.5891   21.6028 O   0  0  0  0  0  0  0  0  0  0  0  0
   10.9546  -23.3230   19.7436 N   0  0  0  0  0  0  0  0  0  0  0  0
   11.7255  -22.7373   18.6977 C   0  0  0  0  0  0  0  0  0  0  0  0
   12.9111  -23.1996   18.4714 N   0  0  0  0  0  0  0  0  0  0  0  0
   11.1542  -21.6700   17.9516 N   0  0  0  0  0  0  0  0  0  0  0  0
   10.0143  -20.9883   18.5068 C   0  0  0  0  0  0  0  0  0  0  0  0
   10.1797  -20.7605   20.0050 C   0  0  0  0  0  0  0  0  0  0  0  0
    8.9375  -20.1120   20.5252 C   0  0  0  0  0  0  0  0  0  0  0  0
    9.1310  -18.7663   21.1475 C   0  0  2  0  0  0  0  0  0  0  0  0
    8.8221  -17.6940   20.1954 N   0  0  0  0  0  0  0  0  0  0  0  0
   10.4933  -18.5612   21.7175 C   0  0  0  0  0  0  0  0  0  0  0  0
   11.5299  -18.8079   21.0338 O   0  0  0  0  0  0  0  0  0  0  0  0
   13.5470  -22.7023   17.8109 N   0  0  0  0  0  0  0  0  0  0  0  0
   14.5840  -16.1717   19.5875 C   0  0  0  0  0  0  0  0  0  0  0  0
   14.2455  -14.7945   19.5237 N   0  0  0  0  0  0  0  0  0  0  0  0
   14.6216  -14.1236   18.4910 N   0  0  0  0  0  0  0  0  0  0  0  0
   13.5143  -14.1306   20.5416 C   0  0  0  0  0  0  0  0  0  0  0  0
   13.4142  -14.5980   21.9141 C   0  0  0  0  0  0  0  0  0  0  0  0
   12.5986  -15.8093   22.0591 C   0  0  0  0  0  0  0  0  0  0  0  0
   12.2002  -16.3580   23.3376 C   0  0  2  0  0  0  0  0  0  0  0  0
   12.0131  -17.7910   23.6097 N   0  0  0  0  0  0  0  0  0  0  0  0
   10.6524  -18.0851   23.0392 C   0  0  0  0  0  0  0  0  0  0  0  0
   11.8361  -18.1714   25.0481 O   0  0  0  0  0  0  0  0  0  0  0  0
   12.9024  -18.5455   25.8683 O   0  0  0  0  0  0  0  0  0  0  0  0
  2  3  1  0
  2  1  1  0
  3  4  1  6
  5  6  1  1
  5  3  1  0
  7  8  2  0
  7  5  1  0
  9 10  1  0
 10 12  1  0
 11 10  2  0
 12 13  1  0
 13 14  1  0
 14 15  1  0
 16 15  1  6
 16 18  1  0
 16 17  1  0
 17  7  1  0
 18 19  2  0
 20 21  1  0
 21 23  1  0
 21 22  2  0
 23 24  1  0
 24 25  1  0
 26 25  1  0
 27 26  1  6
 28 27  1  0
 28 18  1  0
 29 27  1  0
 30 29  1  0
 31 29  2  0
M  END
$$$$
