IRR.pdb
     RDKit          3D

 31 30  0  0  1  0  0  0  0  0999 V2000
    7.4366  -12.2238   27.7917 C   0  0  0  0  0  0  0  0  0  0  0  0
    6.5810  -13.3366   27.2224 C   0  0  0  0  0  0  0  0  0  0  0  0
    7.2656  -14.0915   26.1297 C   0  0  2  0  0  0  0  0  0  0  0  0
    7.8028  -13.0839   25.1373 C   0  0  0  0  0  0  0  0  0  0  0  0
    6.4220  -15.1447   25.4817 C   0  0  2  0  0  0  0  0  0  0  0  0
    6.0850  -16.1168   26.5282 N   0  0  0  0  0  0  0  0  0  0  0  0
    7.0470  -15.8336   24.3606 C   0  0  0  0  0  0  0  0  0  0  0  0
    7.3940  -17.0302   24.4611 O   0  0  0  0  0  0  0  0  0  0  0  0
   10.0035  -14.7816   17.5835 N   0  0  0  0  0  0  0  0  0  0  0  0
    9.8246  -13.4041   17.9025 C   0  0  0  0  0  0  0  0  0  0  0  0
   10.8735  -12.6731   18.0927 N   0  0  0  0  0  0  0  0  0  0  0  0
    8.4992  -12.8977   17.9975 N   0  0  0  0  0  0  0  0  0  0  0  0
    7.5442  -13.6390   18.7791 C   0  0  0  0  0  0  0  0  0  0  0  0
    8.2164  -14.3494   19.9483 C   0  0  0  0  0  0  0  0  0  0  0  0
    7.1769  -15.1243   20.6923 C   0  0  0  0  0  0  0  0  0  0  0  0
    7.6681  -15.8593   21.8981 C   0  0  2  0  0  0  0  0  0  0  0  0
    7.2777  -15.1704   23.1329 N   0  0  0  0  0  0  0  0  0  0  0  0
    9.1397  -16.0984   21.8945 C   0  0  0  0  0  0  0  0  0  0  0  0
    9.7270  -16.5328   20.8605 O   0  0  0  0  0  0  0  0  0  0  0  0
   10.7684  -11.6648   18.3382 N   0  0  0  0  0  0  0  0  0  0  0  0
   11.5897  -14.3337   28.6755 C   0  0  0  0  0  0  0  0  0  0  0  0
   10.5627  -15.2944   28.8701 N   0  0  0  0  0  0  0  0  0  0  0  0
    9.8526  -15.2162   29.9413 N   0  0  0  0  0  0  0  0  0  0  0  0
   10.2865  -16.3292   27.9403 C   0  0  0  0  0  0  0  0  0  0  0  0
   11.2133  -16.7747   26.9134 C   0  0  0  0  0  0  0  0  0  0  0  0
   10.9161  -16.2293   25.5839 C   0  0  0  0  0  0  0  0  0  0  0  0
   11.6893  -16.5388   24.4002 C   0  0  2  0  0  0  0  0  0  0  0  0
   11.4042  -16.0152   23.0559 N   0  0  0  0  0  0  0  0  0  0  0  0
    9.9096  -15.8431   23.0525 C   0  0  0  0  0  0  0  0  0  0  0  0
   11.6099  -16.9696   21.9194 O   0  0  0  0  0  0  0  0  0  0  0  0
   10.8476  -18.1281   21.7570 O   0  0  0  0  0  0  0  0  0  0  0  0
  2  3  1  0
  2  1  1  0
  3  4  1  6
  5  6  1  1
  5  3  1  0
  7  8  2  0
  7  5  1  0
  9 10  1  0
 10 12  1  0
 11 10  2  0
 12 13  1  0
 13 14  1  0
 14 15  1  0
 16 15  1  6
 16 18  1  0
 16 17  1  0
 17  7  1  0
 18 19  2  0
 20 21  1  0
 21 23  1  0
 21 22  2  0
 23 24  1  0
 24 25  1  0
 26 25  1  0
 27 26  1  1
 28 27  1  0
 28 18  1  0
 29 27  1  0
 30 29  1  0
 31 29  2  0
M  END
$$$$
