IRR.pdb
     RDKit          3D

 31 30  0  0  1  0  0  0  0  0999 V2000
    6.3480  -11.7468   18.5184 C   0  0  0  0  0  0  0  0  0  0  0  0
    7.0483  -13.0876   18.5997 C   0  0  0  0  0  0  0  0  0  0  0  0
    7.5433  -13.3993   19.9746 C   0  0  2  0  0  0  0  0  0  0  0  0
    8.4134  -12.2468   20.4256 C   0  0  0  0  0  0  0  0  0  0  0  0
    8.2304  -14.7232   20.1004 C   0  0  2  0  0  0  0  0  0  0  0  0
    7.3010  -15.7312   19.5769 N   0  0  0  0  0  0  0  0  0  0  0  0
    8.6301  -15.0859   21.4534 C   0  0  0  0  0  0  0  0  0  0  0  0
    9.5660  -14.4853   22.0242 O   0  0  0  0  0  0  0  0  0  0  0  0
    8.8728  -21.6650   26.3044 N   0  0  0  0  0  0  0  0  0  0  0  0
    9.0311  -20.5799   27.2149 C   0  0  0  0  0  0  0  0  0  0  0  0
    9.8612  -20.7138   28.1965 N   0  0  0  0  0  0  0  0  0  0  0  0
    8.2673  -19.3997   27.0011 N   0  0  0  0  0  0  0  0  0  0  0  0
    8.1392  -18.9093   25.6536 C   0  0  0  0  0  0  0  0  0  0  0  0
    7.3675  -17.5953   25.6126 C   0  0  0  0  0  0  0  0  0  0  0  0
    7.1559  -17.2151   24.1825 C   0  0  0  0  0  0  0  0  0  0  0  0
    8.3009  -16.5059   23.5332 C   0  0  2  0  0  0  0  0  0  0  0  0
    7.9732  -16.1230   22.1556 N   0  0  0  0  0  0  0  0  0  0  0  0
    9.5743  -17.2811   23.5546 C   0  0  0  0  0  0  0  0  0  0  0  0
    9.7597  -18.2520   22.7637 O   0  0  0  0  0  0  0  0  0  0  0  0
    9.9960  -19.9332   28.8751 N   0  0  0  0  0  0  0  0  0  0  0  0
   16.1224  -14.2662   19.8182 C   0  0  0  0  0  0  0  0  0  0  0  0
   15.1154  -15.0903   19.2505 N   0  0  0  0  0  0  0  0  0  0  0  0
   15.3057  -15.5519   18.0637 N   0  0  0  0  0  0  0  0  0  0  0  0
   13.9170  -15.4255   19.9309 C   0  0  0  0  0  0  0  0  0  0  0  0
   13.5788  -14.9646   21.2670 C   0  0  0  0  0  0  0  0  0  0  0  0
   13.3895  -16.0560   22.2295 C   0  0  0  0  0  0  0  0  0  0  0  0
   12.4053  -16.0267   23.2901 C   0  0  2  0  0  0  0  0  0  0  0  0
   12.0517  -17.1783   24.1336 N   0  0  0  0  0  0  0  0  0  0  0  0
   10.6029  -16.9437   24.4641 C   0  0  0  0  0  0  0  0  0  0  0  0
   12.6788  -17.2165   25.4938 O   0  0  0  0  0  0  0  0  0  0  0  0
   12.0636  -16.6783   26.6258 O   0  0  0  0  0  0  0  0  0  0  0  0
  2  3  1  0
  2  1  1  0
  3  4  1  6
  5  6  1  1
  5  3  1  0
  7  8  2  0
  7  5  1  0
  9 10  1  0
 10 12  1  0
 11 10  2  0
 12 13  1  0
 13 14  1  0
 14 15  1  0
 16 15  1  6
 16 18  1  0
 16 17  1  0
 17  7  1  0
 18 19  2  0
 20 21  1  0
 21 23  1  0
 21 22  2  0
 23 24  1  0
 24 25  1  0
 26 25  1  0
 27 26  1  6
 28 27  1  0
 28 18  1  0
 29 27  1  0
 30 29  1  0
 31 29  2  0
M  END
$$$$
