IRR.pdb
     RDKit          3D

 31 30  0  0  1  0  0  0  0  0999 V2000
    6.4707  -11.6409   27.7322 C   0  0  0  0  0  0  0  0  0  0  0  0
    5.8114  -12.7343   26.9171 C   0  0  0  0  0  0  0  0  0  0  0  0
    6.7540  -13.3930   25.9632 C   0  0  2  0  0  0  0  0  0  0  0  0
    7.4429  -12.3058   25.1681 C   0  0  0  0  0  0  0  0  0  0  0  0
    6.1252  -14.4341   25.0904 C   0  0  2  0  0  0  0  0  0  0  0  0
    5.6881  -15.5186   25.9772 N   0  0  0  0  0  0  0  0  0  0  0  0
    6.9913  -14.9743   24.0512 C   0  0  0  0  0  0  0  0  0  0  0  0
    7.8629  -15.8267   24.3272 O   0  0  0  0  0  0  0  0  0  0  0  0
    7.7524  -13.4371   15.9839 N   0  0  0  0  0  0  0  0  0  0  0  0
    8.6866  -14.5126   16.0291 C   0  0  0  0  0  0  0  0  0  0  0  0
    9.5493  -14.6216   15.0729 N   0  0  0  0  0  0  0  0  0  0  0  0
    8.6254  -15.4169   17.1249 N   0  0  0  0  0  0  0  0  0  0  0  0
    7.7961  -15.0664   18.2482 C   0  0  0  0  0  0  0  0  0  0  0  0
    8.5951  -14.3348   19.3206 C   0  0  0  0  0  0  0  0  0  0  0  0
    7.6821  -14.0262   20.4632 C   0  0  0  0  0  0  0  0  0  0  0  0
    7.8142  -14.9274   21.6489 C   0  0  2  0  0  0  0  0  0  0  0  0
    6.8706  -14.5510   22.7071 N   0  0  0  0  0  0  0  0  0  0  0  0
    9.1975  -14.9894   22.2018 C   0  0  0  0  0  0  0  0  0  0  0  0
    9.5805  -14.1754   23.0927 O   0  0  0  0  0  0  0  0  0  0  0  0
   10.2707  -15.3743   15.1053 N   0  0  0  0  0  0  0  0  0  0  0  0
   10.5884  -17.8633   29.1610 C   0  0  0  0  0  0  0  0  0  0  0  0
   10.9294  -16.5619   28.7078 N   0  0  0  0  0  0  0  0  0  0  0  0
   11.4072  -15.7265   29.5632 N   0  0  0  0  0  0  0  0  0  0  0  0
   10.7684  -16.1457   27.3615 C   0  0  0  0  0  0  0  0  0  0  0  0
   11.1574  -16.9395   26.2080 C   0  0  0  0  0  0  0  0  0  0  0  0
   10.8194  -16.3097   24.9264 C   0  0  0  0  0  0  0  0  0  0  0  0
   11.0727  -16.9242   23.6408 C   0  0  2  0  0  0  0  0  0  0  0  0
   11.4333  -16.1881   22.4199 N   0  0  0  0  0  0  0  0  0  0  0  0
   10.1111  -15.9636   21.7381 C   0  0  0  0  0  0  0  0  0  0  0  0
   12.1904  -16.9610   21.3834 O   0  0  0  0  0  0  0  0  0  0  0  0
   13.5754  -16.8684   21.2325 O   0  0  0  0  0  0  0  0  0  0  0  0
  2  3  1  0
  2  1  1  0
  3  4  1  6
  5  6  1  1
  5  3  1  0
  7  8  2  0
  7  5  1  0
  9 10  1  0
 10 12  1  0
 11 10  2  0
 12 13  1  0
 13 14  1  0
 14 15  1  0
 16 15  1  6
 16 18  1  0
 16 17  1  0
 17  7  1  0
 18 19  2  0
 20 21  1  0
 21 23  1  0
 21 22  2  0
 23 24  1  0
 24 25  1  0
 26 25  1  0
 27 26  1  1
 28 27  1  0
 28 18  1  0
 29 27  1  0
 30 29  1  0
 31 29  2  0
M  END
$$$$
