IRR.pdb
     RDKit          3D

 31 30  0  0  1  0  0  0  0  0999 V2000
    5.8347  -10.7230   26.2755 C   0  0  0  0  0  0  0  0  0  0  0  0
    6.0634  -11.8748   27.2325 C   0  0  0  0  0  0  0  0  0  0  0  0
    6.9931  -12.9075   26.6830 C   0  0  2  0  0  0  0  0  0  0  0  0
    8.4080  -12.4137   26.8905 C   0  0  0  0  0  0  0  0  0  0  0  0
    6.7204  -13.2937   25.2627 C   0  0  2  0  0  0  0  0  0  0  0  0
    5.3068  -13.6824   25.1963 N   0  0  0  0  0  0  0  0  0  0  0  0
    7.5476  -14.3762   24.7471 C   0  0  0  0  0  0  0  0  0  0  0  0
    8.4219  -14.9077   25.4650 O   0  0  0  0  0  0  0  0  0  0  0  0
   11.0719  -17.1941   18.5100 N   0  0  0  0  0  0  0  0  0  0  0  0
   10.2500  -18.3132   18.1881 C   0  0  0  0  0  0  0  0  0  0  0  0
   10.7967  -19.3377   17.6205 N   0  0  0  0  0  0  0  0  0  0  0  0
    8.8655  -18.2500   18.5060 N   0  0  0  0  0  0  0  0  0  0  0  0
    8.3796  -17.0816   19.1924 C   0  0  0  0  0  0  0  0  0  0  0  0
    8.6858  -17.1473   20.6842 C   0  0  0  0  0  0  0  0  0  0  0  0
    7.9933  -16.0079   21.3602 C   0  0  0  0  0  0  0  0  0  0  0  0
    8.2145  -15.9098   22.8357 C   0  0  2  0  0  0  0  0  0  0  0  0
    7.3851  -14.8535   23.4257 N   0  0  0  0  0  0  0  0  0  0  0  0
    9.6419  -15.7044   23.2142 C   0  0  0  0  0  0  0  0  0  0  0  0
   10.2559  -14.6453   22.8915 O   0  0  0  0  0  0  0  0  0  0  0  0
   10.2118  -20.1587   17.3527 N   0  0  0  0  0  0  0  0  0  0  0  0
   11.3804  -18.8630   30.2847 C   0  0  0  0  0  0  0  0  0  0  0  0
   11.3944  -17.5046   29.8725 N   0  0  0  0  0  0  0  0  0  0  0  0
   11.4222  -16.5938   30.7822 N   0  0  0  0  0  0  0  0  0  0  0  0
   11.3805  -17.1104   28.5101 C   0  0  0  0  0  0  0  0  0  0  0  0
   11.4731  -15.7328   28.0564 C   0  0  0  0  0  0  0  0  0  0  0  0
   11.4665  -15.5989   26.5950 C   0  0  0  0  0  0  0  0  0  0  0  0
   11.8903  -16.6483   25.6930 C   0  0  2  0  0  0  0  0  0  0  0  0
   11.8115  -16.5714   24.2265 N   0  0  0  0  0  0  0  0  0  0  0  0
   10.3389  -16.6945   23.9441 C   0  0  0  0  0  0  0  0  0  0  0  0
   12.3713  -17.7397   23.4739 O   0  0  0  0  0  0  0  0  0  0  0  0
   11.5852  -18.8124   23.0485 O   0  0  0  0  0  0  0  0  0  0  0  0
  2  3  1  0
  2  1  1  0
  3  4  1  6
  5  6  1  1
  5  3  1  0
  7  8  2  0
  7  5  1  0
  9 10  1  0
 10 12  1  0
 11 10  2  0
 12 13  1  0
 13 14  1  0
 14 15  1  0
 16 15  1  6
 16 18  1  0
 16 17  1  0
 17  7  1  0
 18 19  2  0
 20 21  1  0
 21 23  1  0
 21 22  2  0
 23 24  1  0
 24 25  1  0
 26 25  1  0
 27 26  1  1
 28 27  1  0
 28 18  1  0
 29 27  1  0
 30 29  1  0
 31 29  2  0
M  END
$$$$
