IYR.pdb
     RDKit          3D

 32 32  0  0  1  0  0  0  0  0999 V2000
    8.0313  -12.8466   17.5161 C   0  0  0  0  0  0  0  0  0  0  0  0
    7.3351  -13.7197   18.5476 C   0  0  0  0  0  0  0  0  0  0  0  0
    8.0007  -13.6424   19.8822 C   0  0  2  0  0  0  0  0  0  0  0  0
    9.4928  -13.8970   19.8072 C   0  0  0  0  0  0  0  0  0  0  0  0
    7.3193  -14.4207   20.9354 C   0  0  2  0  0  0  0  0  0  0  0  0
    5.8633  -14.2355   20.9160 N   0  0  0  0  0  0  0  0  0  0  0  0
    7.8352  -14.2805   22.3147 C   0  0  0  0  0  0  0  0  0  0  0  0
    7.8448  -13.2120   22.9346 O   0  0  0  0  0  0  0  0  0  0  0  0
   10.7577  -15.1953   30.5155 O   0  0  0  0  0  0  0  0  0  0  0  0
   10.0935  -15.2419   29.2658 C   0  0  0  0  0  0  0  0  0  0  0  0
    9.8923  -14.0972   28.5387 C   0  0  0  0  0  0  0  0  0  0  0  0
    9.2417  -14.1444   27.3141 C   0  0  0  0  0  0  0  0  0  0  0  0
    8.7771  -15.3255   26.7840 C   0  0  0  0  0  0  0  0  0  0  0  0
    8.0947  -15.3466   25.4758 C   0  0  0  0  0  0  0  0  0  0  0  0
    9.0043  -15.3473   24.2853 C   0  0  2  0  0  0  0  0  0  0  0  0
    8.3684  -15.4148   23.0217 N   0  0  0  0  0  0  0  0  0  0  0  0
   10.1148  -16.3460   24.4276 C   0  0  0  0  0  0  0  0  0  0  0  0
    9.9531  -17.5722   24.2107 O   0  0  0  0  0  0  0  0  0  0  0  0
    8.9950  -16.4568   27.5390 C   0  0  0  0  0  0  0  0  0  0  0  0
    9.6383  -16.4324   28.7566 C   0  0  0  0  0  0  0  0  0  0  0  0
   16.2217  -14.1430   19.9653 N   0  0  0  0  0  0  0  0  0  0  0  0
   14.8923  -14.4640   19.5878 C   0  0  0  0  0  0  0  0  0  0  0  0
   14.4790  -14.2049   18.3948 N   0  0  0  0  0  0  0  0  0  0  0  0
   14.0406  -15.0671   20.5416 N   0  0  0  0  0  0  0  0  0  0  0  0
   14.5133  -15.3528   21.8773 C   0  0  0  0  0  0  0  0  0  0  0  0
   13.4824  -16.0823   22.6403 C   0  0  0  0  0  0  0  0  0  0  0  0
   13.6158  -16.3212   24.0749 C   0  0  0  0  0  0  0  0  0  0  0  0
   12.5442  -16.9514   24.8637 C   0  0  2  0  0  0  0  0  0  0  0  0
   11.4077  -15.9326   24.8194 N   0  0  0  0  0  0  0  0  0  0  0  0
   12.7689  -17.1143   26.3175 C   0  0  0  0  0  0  0  0  0  0  0  0
   12.5916  -16.1326   27.1328 O   0  0  0  0  0  0  0  0  0  0  0  0
   13.1627  -18.2948   26.8633 O   0  0  0  0  0  0  0  0  0  0  0  0
  2  1  1  0
  3  5  1  0
  3  2  1  0
  3  4  1  6
  5  6  1  1
  7  5  1  0
  8  7  2  0
  9 10  1  0
 10 11  2  0
 11 12  1  0
 13 12  2  0
 13 14  1  0
 15 14  1  1
 15 16  1  0
 16  7  1  0
 17 15  1  0
 18 17  2  0
 19 13  1  0
 20 10  1  0
 20 19  2  0
 21 22  1  0
 22 23  2  0
 22 24  1  0
 24 25  1  0
 26 25  1  0
 28 27  1  6
 27 26  1  0
 28 29  1  0
 29 17  1  0
 30 28  1  0
 31 30  2  0
 32 30  1  0
M  END
$$$$
