IYR.pdb
     RDKit          3D

 32 32  0  0  1  0  0  0  0  0999 V2000
    4.8907  -22.1035   23.3604 C   0  0  0  0  0  0  0  0  0  0  0  0
    6.3893  -22.3114   23.2123 C   0  0  0  0  0  0  0  0  0  0  0  0
    7.0931  -21.0462   22.8461 C   0  0  2  0  0  0  0  0  0  0  0  0
    7.2656  -20.1104   24.0256 C   0  0  0  0  0  0  0  0  0  0  0  0
    6.5496  -20.3874   21.6420 C   0  0  2  0  0  0  0  0  0  0  0  0
    6.3741  -21.3212   20.5231 N   0  0  0  0  0  0  0  0  0  0  0  0
    7.2331  -19.1590   21.1817 C   0  0  0  0  0  0  0  0  0  0  0  0
    8.3113  -19.1628   20.5788 O   0  0  0  0  0  0  0  0  0  0  0  0
    8.8038  -10.7060   18.9711 O   0  0  0  0  0  0  0  0  0  0  0  0
    8.1922  -11.8805   19.4727 C   0  0  0  0  0  0  0  0  0  0  0  0
    7.9634  -12.9542   18.6515 C   0  0  0  0  0  0  0  0  0  0  0  0
    7.3645  -14.1046   19.1445 C   0  0  0  0  0  0  0  0  0  0  0  0
    6.9801  -14.2161   20.4605 C   0  0  0  0  0  0  0  0  0  0  0  0
    6.3515  -15.4546   20.9588 C   0  0  0  0  0  0  0  0  0  0  0  0
    7.2688  -16.6346   21.0631 C   0  0  2  0  0  0  0  0  0  0  0  0
    6.6594  -17.8614   21.4225 N   0  0  0  0  0  0  0  0  0  0  0  0
    8.4844  -16.3296   21.8878 C   0  0  0  0  0  0  0  0  0  0  0  0
    9.3315  -15.4665   21.5498 O   0  0  0  0  0  0  0  0  0  0  0  0
    7.2239  -13.1203   21.2588 C   0  0  0  0  0  0  0  0  0  0  0  0
    7.8168  -11.9690   20.7900 C   0  0  0  0  0  0  0  0  0  0  0  0
   11.2476  -21.5742   26.0122 N   0  0  0  0  0  0  0  0  0  0  0  0
   11.3406  -20.7689   27.1766 C   0  0  0  0  0  0  0  0  0  0  0  0
   12.1081  -21.1250   28.1488 N   0  0  0  0  0  0  0  0  0  0  0  0
   10.5786  -19.5799   27.2445 N   0  0  0  0  0  0  0  0  0  0  0  0
    9.3038  -19.4805   26.5705 C   0  0  0  0  0  0  0  0  0  0  0  0
    9.1941  -18.1862   25.8707 C   0  0  0  0  0  0  0  0  0  0  0  0
   10.1357  -17.7984   24.8237 C   0  0  0  0  0  0  0  0  0  0  0  0
    9.9115  -16.6195   23.9707 C   0  0  2  0  0  0  0  0  0  0  0  0
    8.7233  -17.0180   23.0983 N   0  0  0  0  0  0  0  0  0  0  0  0
   10.9485  -16.2936   22.9662 C   0  0  0  0  0  0  0  0  0  0  0  0
   11.0160  -16.9302   21.8482 O   0  0  0  0  0  0  0  0  0  0  0  0
   11.8687  -15.3136   23.1647 O   0  0  0  0  0  0  0  0  0  0  0  0
  2  1  1  0
  3  5  1  0
  3  2  1  0
  3  4  1  1
  5  6  1  6
  7  5  1  0
  8  7  2  0
  9 10  1  0
 10 11  2  0
 11 12  1  0
 13 12  2  0
 13 14  1  0
 15 14  1  1
 15 16  1  0
 16  7  1  0
 17 15  1  0
 18 17  2  0
 19 13  1  0
 20 10  1  0
 20 19  2  0
 21 22  1  0
 22 23  2  0
 22 24  1  0
 24 25  1  0
 26 25  1  0
 28 27  1  1
 27 26  1  0
 28 29  1  0
 29 17  1  0
 30 28  1  0
 31 30  2  0
 32 30  1  0
M  END
$$$$
