IYR.pdb
     RDKit          3D

 32 32  0  0  1  0  0  0  0  0999 V2000
    6.5174  -15.3759   17.8264 C   0  0  0  0  0  0  0  0  0  0  0  0
    7.1660  -14.2682   18.6409 C   0  0  0  0  0  0  0  0  0  0  0  0
    7.7216  -14.7778   19.9299 C   0  0  2  0  0  0  0  0  0  0  0  0
    6.7424  -15.6566   20.6821 C   0  0  0  0  0  0  0  0  0  0  0  0
    8.3433  -13.7328   20.7670 C   0  0  2  0  0  0  0  0  0  0  0  0
    9.2641  -12.8795   20.0064 N   0  0  0  0  0  0  0  0  0  0  0  0
    8.9765  -14.1717   22.0298 C   0  0  0  0  0  0  0  0  0  0  0  0
   10.0297  -14.8155   22.0776 O   0  0  0  0  0  0  0  0  0  0  0  0
   10.4341  -15.4432   30.7328 O   0  0  0  0  0  0  0  0  0  0  0  0
    9.8804  -15.0225   29.4993 C   0  0  0  0  0  0  0  0  0  0  0  0
   10.2420  -13.8220   28.9446 C   0  0  0  0  0  0  0  0  0  0  0  0
    9.6989  -13.4113   27.7357 C   0  0  0  0  0  0  0  0  0  0  0  0
    8.7871  -14.1804   27.0508 C   0  0  0  0  0  0  0  0  0  0  0  0
    8.2313  -13.7212   25.7633 C   0  0  0  0  0  0  0  0  0  0  0  0
    8.8453  -14.3459   24.5478 C   0  0  2  0  0  0  0  0  0  0  0  0
    8.3778  -13.8627   23.3014 N   0  0  0  0  0  0  0  0  0  0  0  0
    8.8428  -15.8443   24.6245 C   0  0  0  0  0  0  0  0  0  0  0  0
    7.7868  -16.5219   24.5767 O   0  0  0  0  0  0  0  0  0  0  0  0
    8.4450  -15.3801   27.6347 C   0  0  0  0  0  0  0  0  0  0  0  0
    8.9717  -15.8068   28.8337 C   0  0  0  0  0  0  0  0  0  0  0  0
   12.6136  -19.1920   18.9547 N   0  0  0  0  0  0  0  0  0  0  0  0
   11.8420  -18.0204   19.1670 C   0  0  0  0  0  0  0  0  0  0  0  0
   11.8111  -17.0957   18.2697 N   0  0  0  0  0  0  0  0  0  0  0  0
   11.1168  -17.8924   20.3739 N   0  0  0  0  0  0  0  0  0  0  0  0
   10.7126  -19.0625   21.1200 C   0  0  0  0  0  0  0  0  0  0  0  0
   10.0079  -18.6650   22.3538 C   0  0  0  0  0  0  0  0  0  0  0  0
   10.7096  -18.5281   23.6274 C   0  0  0  0  0  0  0  0  0  0  0  0
   10.0239  -18.0831   24.8519 C   0  0  2  0  0  0  0  0  0  0  0  0
   10.0542  -16.5594   24.7568 N   0  0  0  0  0  0  0  0  0  0  0  0
   10.6988  -18.3346   26.1449 C   0  0  0  0  0  0  0  0  0  0  0  0
   10.5359  -19.4459   26.7759 O   0  0  0  0  0  0  0  0  0  0  0  0
   11.5210  -17.4209   26.7243 O   0  0  0  0  0  0  0  0  0  0  0  0
  2  1  1  0
  3  5  1  0
  3  2  1  0
  3  4  1  1
  5  6  1  6
  7  5  1  0
  8  7  2  0
  9 10  1  0
 10 11  2  0
 11 12  1  0
 13 12  2  0
 13 14  1  0
 15 14  1  1
 15 16  1  0
 16  7  1  0
 17 15  1  0
 18 17  2  0
 19 13  1  0
 20 10  1  0
 20 19  2  0
 21 22  1  0
 22 23  2  0
 22 24  1  0
 24 25  1  0
 26 25  1  0
 28 27  1  6
 27 26  1  0
 28 29  1  0
 29 17  1  0
 30 28  1  0
 31 30  2  0
 32 30  1  0
M  END
$$$$
