IYR.pdb
     RDKit          3D

 32 32  0  0  1  0  0  0  0  0999 V2000
    6.7509  -12.0490   20.9474 C   0  0  0  0  0  0  0  0  0  0  0  0
    8.0479  -12.6179   20.3950 C   0  0  0  0  0  0  0  0  0  0  0  0
    7.8352  -13.9314   19.7173 C   0  0  2  0  0  0  0  0  0  0  0  0
    6.8547  -13.8431   18.5651 C   0  0  0  0  0  0  0  0  0  0  0  0
    7.5587  -15.0450   20.6462 C   0  0  2  0  0  0  0  0  0  0  0  0
    6.1276  -15.1873   20.9403 N   0  0  0  0  0  0  0  0  0  0  0  0
    8.3456  -15.0872   21.8979 C   0  0  0  0  0  0  0  0  0  0  0  0
    9.5776  -15.1730   21.9272 O   0  0  0  0  0  0  0  0  0  0  0  0
   10.5607  -14.5942   30.5035 O   0  0  0  0  0  0  0  0  0  0  0  0
    9.8582  -14.5390   29.2754 C   0  0  0  0  0  0  0  0  0  0  0  0
    9.7630  -13.3628   28.5775 C   0  0  0  0  0  0  0  0  0  0  0  0
    9.0747  -13.3103   27.3739 C   0  0  0  0  0  0  0  0  0  0  0  0
    8.4667  -14.4208   26.8363 C   0  0  0  0  0  0  0  0  0  0  0  0
    7.7472  -14.3369   25.5507 C   0  0  0  0  0  0  0  0  0  0  0  0
    8.3660  -15.1083   24.4253 C   0  0  2  0  0  0  0  0  0  0  0  0
    7.6953  -15.0307   23.1804 N   0  0  0  0  0  0  0  0  0  0  0  0
    8.6877  -16.5191   24.8216 C   0  0  0  0  0  0  0  0  0  0  0  0
    7.7991  -17.3764   25.0498 O   0  0  0  0  0  0  0  0  0  0  0  0
    8.5808  -15.5861   27.5617 C   0  0  0  0  0  0  0  0  0  0  0  0
    9.2590  -15.6603   28.7582 C   0  0  0  0  0  0  0  0  0  0  0  0
    9.7827  -18.9765   19.1321 N   0  0  0  0  0  0  0  0  0  0  0  0
   11.1730  -19.0852   19.3932 C   0  0  0  0  0  0  0  0  0  0  0  0
   12.0281  -18.7716   18.4814 N   0  0  0  0  0  0  0  0  0  0  0  0
   11.5933  -19.5421   20.6635 N   0  0  0  0  0  0  0  0  0  0  0  0
   10.6275  -19.8553   21.6922 C   0  0  0  0  0  0  0  0  0  0  0  0
   10.8362  -18.9921   22.8705 C   0  0  0  0  0  0  0  0  0  0  0  0
   10.0264  -19.1335   24.0777 C   0  0  0  0  0  0  0  0  0  0  0  0
   10.3321  -18.3934   25.3131 C   0  0  2  0  0  0  0  0  0  0  0  0
   10.0297  -16.9401   24.9552 N   0  0  0  0  0  0  0  0  0  0  0  0
   11.7478  -18.3279   25.7400 C   0  0  0  0  0  0  0  0  0  0  0  0
   12.4476  -17.2606   25.5642 O   0  0  0  0  0  0  0  0  0  0  0  0
   12.3746  -19.3746   26.3384 O   0  0  0  0  0  0  0  0  0  0  0  0
  2  1  1  0
  3  5  1  0
  3  2  1  0
  3  4  1  6
  5  6  1  1
  7  5  1  0
  8  7  2  0
  9 10  1  0
 10 11  2  0
 11 12  1  0
 13 12  2  0
 13 14  1  0
 15 14  1  1
 15 16  1  0
 16  7  1  0
 17 15  1  0
 18 17  2  0
 19 13  1  0
 20 10  1  0
 20 19  2  0
 21 22  1  0
 22 23  2  0
 22 24  1  0
 24 25  1  0
 26 25  1  0
 28 27  1  6
 27 26  1  0
 28 29  1  0
 29 17  1  0
 30 28  1  0
 31 30  2  0
 32 30  1  0
M  END
$$$$
