IYR.pdb
     RDKit          3D

 32 32  0  0  1  0  0  0  0  0999 V2000
    6.6158  -12.1791   18.8584 C   0  0  0  0  0  0  0  0  0  0  0  0
    6.9852  -13.6052   19.2335 C   0  0  0  0  0  0  0  0  0  0  0  0
    7.7502  -13.6632   20.5146 C   0  0  2  0  0  0  0  0  0  0  0  0
    8.9269  -12.7083   20.5370 C   0  0  0  0  0  0  0  0  0  0  0  0
    8.0915  -15.0335   20.9450 C   0  0  2  0  0  0  0  0  0  0  0  0
    6.9729  -15.9689   20.7764 N   0  0  0  0  0  0  0  0  0  0  0  0
    8.6889  -15.1864   22.2896 C   0  0  0  0  0  0  0  0  0  0  0  0
    9.7652  -14.6781   22.6201 O   0  0  0  0  0  0  0  0  0  0  0  0
    6.2866  -10.7256   27.1903 O   0  0  0  0  0  0  0  0  0  0  0  0
    6.6223  -12.0540   26.8329 C   0  0  0  0  0  0  0  0  0  0  0  0
    5.6446  -12.9569   26.5035 C   0  0  0  0  0  0  0  0  0  0  0  0
    5.9752  -14.2581   26.1530 C   0  0  0  0  0  0  0  0  0  0  0  0
    7.2799  -14.6922   26.1212 C   0  0  0  0  0  0  0  0  0  0  0  0
    7.6023  -16.0803   25.7379 C   0  0  0  0  0  0  0  0  0  0  0  0
    8.5600  -16.2169   24.5938 C   0  0  2  0  0  0  0  0  0  0  0  0
    8.0270  -15.9589   23.3074 N   0  0  0  0  0  0  0  0  0  0  0  0
    9.3268  -17.5050   24.6542 C   0  0  0  0  0  0  0  0  0  0  0  0
    8.7653  -18.6278   24.6292 O   0  0  0  0  0  0  0  0  0  0  0  0
    8.2376  -13.7611   26.4574 C   0  0  0  0  0  0  0  0  0  0  0  0
    7.9316  -12.4649   26.8083 C   0  0  0  0  0  0  0  0  0  0  0  0
   16.8211  -21.4937   24.4304 N   0  0  0  0  0  0  0  0  0  0  0  0
   16.4468  -21.1330   23.1103 C   0  0  0  0  0  0  0  0  0  0  0  0
   16.7979  -21.8720   22.1144 N   0  0  0  0  0  0  0  0  0  0  0  0
   15.6888  -19.9556   22.9154 N   0  0  0  0  0  0  0  0  0  0  0  0
   15.3036  -19.1312   24.0384 C   0  0  0  0  0  0  0  0  0  0  0  0
   13.9371  -19.4716   24.4787 C   0  0  0  0  0  0  0  0  0  0  0  0
   12.8387  -18.5140   24.3798 C   0  0  0  0  0  0  0  0  0  0  0  0
   11.4895  -18.8200   24.8834 C   0  0  2  0  0  0  0  0  0  0  0  0
   10.7368  -17.4988   24.7437 N   0  0  0  0  0  0  0  0  0  0  0  0
   11.3477  -19.1158   26.3267 C   0  0  0  0  0  0  0  0  0  0  0  0
   11.1556  -18.1733   27.1838 O   0  0  0  0  0  0  0  0  0  0  0  0
   11.4052  -20.3817   26.8172 O   0  0  0  0  0  0  0  0  0  0  0  0
  2  1  1  0
  3  5  1  0
  3  2  1  0
  3  4  1  6
  5  6  1  1
  7  5  1  0
  8  7  2  0
  9 10  1  0
 10 11  2  0
 11 12  1  0
 13 12  2  0
 13 14  1  0
 15 14  1  1
 15 16  1  0
 16  7  1  0
 17 15  1  0
 18 17  2  0
 19 13  1  0
 20 10  1  0
 20 19  2  0
 21 22  1  0
 22 23  2  0
 22 24  1  0
 24 25  1  0
 26 25  1  0
 28 27  1  1
 27 26  1  0
 28 29  1  0
 29 17  1  0
 30 28  1  0
 31 30  2  0
 32 30  1  0
M  END
$$$$
