IYR.pdb
     RDKit          3D

 32 32  0  0  1  0  0  0  0  0999 V2000
    7.4573  -15.8800   16.9164 C   0  0  0  0  0  0  0  0  0  0  0  0
    7.3574  -14.6566   17.8134 C   0  0  0  0  0  0  0  0  0  0  0  0
    8.0874  -14.8500   19.1015 C   0  0  2  0  0  0  0  0  0  0  0  0
    7.7834  -16.1849   19.7515 C   0  0  0  0  0  0  0  0  0  0  0  0
    7.9821  -13.7037   20.0258 C   0  0  2  0  0  0  0  0  0  0  0  0
    8.3246  -12.4304   19.3808 N   0  0  0  0  0  0  0  0  0  0  0  0
    8.6772  -13.8227   21.3260 C   0  0  0  0  0  0  0  0  0  0  0  0
    9.9030  -13.7396   21.4549 O   0  0  0  0  0  0  0  0  0  0  0  0
   10.1183  -15.0736   30.0338 O   0  0  0  0  0  0  0  0  0  0  0  0
    9.5086  -14.8101   28.7832 C   0  0  0  0  0  0  0  0  0  0  0  0
    9.5816  -13.5624   28.2197 C   0  0  0  0  0  0  0  0  0  0  0  0
    8.9841  -13.3059   26.9940 C   0  0  0  0  0  0  0  0  0  0  0  0
    8.3023  -14.2788   26.3009 C   0  0  0  0  0  0  0  0  0  0  0  0
    7.6826  -13.9789   24.9957 C   0  0  0  0  0  0  0  0  0  0  0  0
    8.5259  -14.3080   23.8019 C   0  0  2  0  0  0  0  0  0  0  0  0
    7.9380  -14.0497   22.5397 N   0  0  0  0  0  0  0  0  0  0  0  0
    9.1165  -15.6841   23.8937 C   0  0  0  0  0  0  0  0  0  0  0  0
    8.4350  -16.7249   23.7233 O   0  0  0  0  0  0  0  0  0  0  0  0
    8.2473  -15.5207   26.8940 C   0  0  0  0  0  0  0  0  0  0  0  0
    8.8331  -15.7969   28.1096 C   0  0  0  0  0  0  0  0  0  0  0  0
   14.9107  -14.2741   20.0750 N   0  0  0  0  0  0  0  0  0  0  0  0
   13.8368  -14.8327   19.3350 C   0  0  0  0  0  0  0  0  0  0  0  0
   13.5049  -14.3275   18.1967 N   0  0  0  0  0  0  0  0  0  0  0  0
   13.1463  -15.9440   19.8709 N   0  0  0  0  0  0  0  0  0  0  0  0
   13.4803  -16.4599   21.1791 C   0  0  0  0  0  0  0  0  0  0  0  0
   12.2529  -16.7233   21.9544 C   0  0  0  0  0  0  0  0  0  0  0  0
   12.3039  -17.1270   23.3571 C   0  0  0  0  0  0  0  0  0  0  0  0
   11.0866  -17.2648   24.1739 C   0  0  2  0  0  0  0  0  0  0  0  0
   10.4884  -15.8599   24.1817 N   0  0  0  0  0  0  0  0  0  0  0  0
   11.2581  -17.5456   25.6169 C   0  0  0  0  0  0  0  0  0  0  0  0
   11.4046  -16.5899   26.4684 O   0  0  0  0  0  0  0  0  0  0  0  0
   11.2633  -18.8100   26.1147 O   0  0  0  0  0  0  0  0  0  0  0  0
  2  1  1  0
  3  5  1  0
  3  2  1  0
  3  4  1  1
  5  6  1  6
  7  5  1  0
  8  7  2  0
  9 10  1  0
 10 11  2  0
 11 12  1  0
 13 12  2  0
 13 14  1  0
 15 14  1  1
 15 16  1  0
 16  7  1  0
 17 15  1  0
 18 17  2  0
 19 13  1  0
 20 10  1  0
 20 19  2  0
 21 22  1  0
 22 23  2  0
 22 24  1  0
 24 25  1  0
 26 25  1  0
 28 27  1  6
 27 26  1  0
 28 29  1  0
 29 17  1  0
 30 28  1  0
 31 30  2  0
 32 30  1  0
M  END
$$$$
