IYR.pdb
     RDKit          3D

 32 32  0  0  1  0  0  0  0  0999 V2000
    6.5996  -12.3633   18.1731 C   0  0  0  0  0  0  0  0  0  0  0  0
    7.1316  -13.6853   18.7025 C   0  0  0  0  0  0  0  0  0  0  0  0
    7.8615  -13.5142   19.9940 C   0  0  2  0  0  0  0  0  0  0  0  0
    9.0259  -12.5504   19.8846 C   0  0  0  0  0  0  0  0  0  0  0  0
    8.2065  -14.7866   20.6583 C   0  0  2  0  0  0  0  0  0  0  0  0
    7.0380  -15.6544   20.8486 N   0  0  0  0  0  0  0  0  0  0  0  0
    8.9898  -14.7004   21.9101 C   0  0  0  0  0  0  0  0  0  0  0  0
   10.1564  -14.2970   21.9590 O   0  0  0  0  0  0  0  0  0  0  0  0
   11.0616  -15.0979   30.5877 O   0  0  0  0  0  0  0  0  0  0  0  0
   10.3719  -15.0275   29.3530 C   0  0  0  0  0  0  0  0  0  0  0  0
    9.7922  -16.1459   28.8121 C   0  0  0  0  0  0  0  0  0  0  0  0
    9.1162  -16.0753   27.6025 C   0  0  0  0  0  0  0  0  0  0  0  0
    9.0000  -14.8964   26.9035 C   0  0  0  0  0  0  0  0  0  0  0  0
    8.2691  -14.8496   25.6224 C   0  0  0  0  0  0  0  0  0  0  0  0
    9.1069  -15.0921   24.4043 C   0  0  2  0  0  0  0  0  0  0  0  0
    8.4149  -15.0956   23.1688 N   0  0  0  0  0  0  0  0  0  0  0  0
   10.0040  -16.2835   24.5678 C   0  0  0  0  0  0  0  0  0  0  0  0
   10.9606  -16.3029   25.3809 O   0  0  0  0  0  0  0  0  0  0  0  0
    9.5933  -13.7918   27.4738 C   0  0  0  0  0  0  0  0  0  0  0  0
   10.2689  -13.8397   28.6731 C   0  0  0  0  0  0  0  0  0  0  0  0
   13.3881  -15.4259   17.8605 N   0  0  0  0  0  0  0  0  0  0  0  0
   13.9346  -15.1293   19.1358 C   0  0  0  0  0  0  0  0  0  0  0  0
   14.7730  -14.1596   19.2697 N   0  0  0  0  0  0  0  0  0  0  0  0
   13.5428  -15.9152   20.2438 N   0  0  0  0  0  0  0  0  0  0  0  0
   12.9532  -17.2208   20.0513 C   0  0  0  0  0  0  0  0  0  0  0  0
   12.6313  -17.8344   21.3539 C   0  0  0  0  0  0  0  0  0  0  0  0
   11.3602  -17.5816   22.0274 C   0  0  0  0  0  0  0  0  0  0  0  0
   11.0036  -18.2423   23.2939 C   0  0  2  0  0  0  0  0  0  0  0  0
    9.7993  -17.4489   23.7958 N   0  0  0  0  0  0  0  0  0  0  0  0
   11.9556  -18.1225   24.4208 C   0  0  0  0  0  0  0  0  0  0  0  0
   12.9762  -17.3395   24.3498 O   0  0  0  0  0  0  0  0  0  0  0  0
   11.8017  -18.8180   25.5780 O   0  0  0  0  0  0  0  0  0  0  0  0
  2  1  1  0
  3  5  1  0
  3  2  1  0
  3  4  1  6
  5  6  1  1
  7  5  1  0
  8  7  2  0
  9 10  1  0
 10 11  2  0
 11 12  1  0
 13 12  2  0
 13 14  1  0
 15 14  1  1
 15 16  1  0
 16  7  1  0
 17 15  1  0
 18 17  2  0
 19 13  1  0
 20 10  1  0
 20 19  2  0
 21 22  1  0
 22 23  2  0
 22 24  1  0
 24 25  1  0
 26 25  1  0
 28 27  1  6
 27 26  1  0
 28 29  1  0
 29 17  1  0
 30 28  1  0
 31 30  2  0
 32 30  1  0
M  END
$$$$
