IYR.pdb
     RDKit          3D

 32 32  0  0  1  0  0  0  0  0999 V2000
   10.8550  -18.2476   27.8369 C   0  0  0  0  0  0  0  0  0  0  0  0
    9.5426  -18.9238   27.4743 C   0  0  0  0  0  0  0  0  0  0  0  0
    8.3706  -18.0319   27.7205 C   0  0  2  0  0  0  0  0  0  0  0  0
    7.9345  -18.0262   29.1720 C   0  0  0  0  0  0  0  0  0  0  0  0
    7.2592  -18.2296   26.7691 C   0  0  2  0  0  0  0  0  0  0  0  0
    6.7308  -19.5987   26.8011 N   0  0  0  0  0  0  0  0  0  0  0  0
    7.4864  -17.8007   25.3718 C   0  0  0  0  0  0  0  0  0  0  0  0
    7.6372  -18.5881   24.4320 O   0  0  0  0  0  0  0  0  0  0  0  0
    8.2789  -12.6374   18.1602 O   0  0  0  0  0  0  0  0  0  0  0  0
    8.0628  -13.0911   19.4840 C   0  0  0  0  0  0  0  0  0  0  0  0
    6.9626  -13.8491   19.7917 C   0  0  0  0  0  0  0  0  0  0  0  0
    6.7523  -14.2934   21.0892 C   0  0  0  0  0  0  0  0  0  0  0  0
    7.6267  -13.9969   22.1087 C   0  0  0  0  0  0  0  0  0  0  0  0
    7.3811  -14.4889   23.4780 C   0  0  0  0  0  0  0  0  0  0  0  0
    7.7967  -15.9066   23.7273 C   0  0  2  0  0  0  0  0  0  0  0  0
    7.5465  -16.4042   25.0293 N   0  0  0  0  0  0  0  0  0  0  0  0
    9.2005  -16.1693   23.2679 C   0  0  0  0  0  0  0  0  0  0  0  0
   10.2022  -15.9383   23.9891 O   0  0  0  0  0  0  0  0  0  0  0  0
    8.7214  -13.2340   21.7667 C   0  0  0  0  0  0  0  0  0  0  0  0
    8.9492  -12.7826   20.4855 C   0  0  0  0  0  0  0  0  0  0  0  0
    8.6471  -17.2319   16.2337 N   0  0  0  0  0  0  0  0  0  0  0  0
    9.9896  -16.9333   15.8851 C   0  0  0  0  0  0  0  0  0  0  0  0
   10.2418  -16.1946   14.8595 N   0  0  0  0  0  0  0  0  0  0  0  0
   11.0328  -17.4608   16.6803 N   0  0  0  0  0  0  0  0  0  0  0  0
   10.7388  -18.2507   17.8546 C   0  0  0  0  0  0  0  0  0  0  0  0
   10.8771  -17.4290   19.0723 C   0  0  0  0  0  0  0  0  0  0  0  0
   10.6451  -17.9849   20.4028 C   0  0  0  0  0  0  0  0  0  0  0  0
   10.8493  -17.1915   21.6261 C   0  0  2  0  0  0  0  0  0  0  0  0
    9.4491  -16.6962   21.9808 N   0  0  0  0  0  0  0  0  0  0  0  0
   11.6120  -15.9290   21.5044 C   0  0  0  0  0  0  0  0  0  0  0  0
   11.0362  -14.8357   21.1399 O   0  0  0  0  0  0  0  0  0  0  0  0
   12.9419  -15.8556   21.7738 O   0  0  0  0  0  0  0  0  0  0  0  0
  2  1  1  0
  3  5  1  0
  3  2  1  0
  3  4  1  1
  5  6  1  6
  7  5  1  0
  8  7  2  0
  9 10  1  0
 10 11  2  0
 11 12  1  0
 13 12  2  0
 13 14  1  0
 15 14  1  1
 15 16  1  0
 16  7  1  0
 17 15  1  0
 18 17  2  0
 19 13  1  0
 20 10  1  0
 20 19  2  0
 21 22  1  0
 22 23  2  0
 22 24  1  0
 24 25  1  0
 26 25  1  0
 28 27  1  6
 27 26  1  0
 28 29  1  0
 29 17  1  0
 30 28  1  0
 31 30  2  0
 32 30  1  0
M  END
$$$$
