IYR.pdb
     RDKit          3D

 32 32  0  0  1  0  0  0  0  0999 V2000
   10.0632  -14.4795   29.7435 C   0  0  0  0  0  0  0  0  0  0  0  0
    9.2528  -15.6045   29.1201 C   0  0  0  0  0  0  0  0  0  0  0  0
    9.3432  -15.5955   27.6296 C   0  0  2  0  0  0  0  0  0  0  0  0
    9.5737  -14.2077   27.0659 C   0  0  0  0  0  0  0  0  0  0  0  0
    8.2532  -16.3328   26.9606 C   0  0  2  0  0  0  0  0  0  0  0  0
    8.1038  -17.6999   27.4738 N   0  0  0  0  0  0  0  0  0  0  0  0
    8.2546  -16.3382   25.4814 C   0  0  0  0  0  0  0  0  0  0  0  0
    8.3887  -17.3616   24.8026 O   0  0  0  0  0  0  0  0  0  0  0  0
    7.6418  -13.3645   17.0667 O   0  0  0  0  0  0  0  0  0  0  0  0
    7.6833  -13.4458   18.4798 C   0  0  0  0  0  0  0  0  0  0  0  0
    8.6915  -12.8407   19.1848 C   0  0  0  0  0  0  0  0  0  0  0  0
    8.7307  -12.9207   20.5694 C   0  0  0  0  0  0  0  0  0  0  0  0
    7.7728  -13.6010   21.2846 C   0  0  0  0  0  0  0  0  0  0  0  0
    7.8361  -13.6636   22.7576 C   0  0  0  0  0  0  0  0  0  0  0  0
    8.0127  -15.0379   23.3276 C   0  0  2  0  0  0  0  0  0  0  0  0
    8.0971  -15.1154   24.7391 N   0  0  0  0  0  0  0  0  0  0  0  0
    9.1114  -15.7939   22.6404 C   0  0  0  0  0  0  0  0  0  0  0  0
    8.9545  -16.3502   21.5257 O   0  0  0  0  0  0  0  0  0  0  0  0
    6.7741  -14.1974   20.5469 C   0  0  0  0  0  0  0  0  0  0  0  0
    6.7163  -14.1305   19.1724 C   0  0  0  0  0  0  0  0  0  0  0  0
   15.9530  -14.5813   19.7819 N   0  0  0  0  0  0  0  0  0  0  0  0
   15.3441  -14.8087   18.5208 C   0  0  0  0  0  0  0  0  0  0  0  0
   16.0641  -15.1504   17.5079 N   0  0  0  0  0  0  0  0  0  0  0  0
   13.9439  -14.6519   18.4028 N   0  0  0  0  0  0  0  0  0  0  0  0
   13.1497  -14.2340   19.5358 C   0  0  0  0  0  0  0  0  0  0  0  0
   12.6532  -15.4105   20.2750 C   0  0  0  0  0  0  0  0  0  0  0  0
   11.7745  -15.2733   21.4335 C   0  0  0  0  0  0  0  0  0  0  0  0
   11.5743  -16.3703   22.3949 C   0  0  2  0  0  0  0  0  0  0  0  0
   10.3870  -15.9090   23.2368 N   0  0  0  0  0  0  0  0  0  0  0  0
   12.6237  -16.5863   23.4161 C   0  0  0  0  0  0  0  0  0  0  0  0
   12.4900  -16.1326   24.6144 O   0  0  0  0  0  0  0  0  0  0  0  0
   13.7663  -17.2717   23.1490 O   0  0  0  0  0  0  0  0  0  0  0  0
  2  1  1  0
  3  5  1  0
  3  2  1  0
  3  4  1  6
  5  6  1  1
  7  5  1  0
  8  7  2  0
  9 10  1  0
 10 11  2  0
 11 12  1  0
 13 12  2  0
 13 14  1  0
 15 14  1  1
 15 16  1  0
 16  7  1  0
 17 15  1  0
 18 17  2  0
 19 13  1  0
 20 10  1  0
 20 19  2  0
 21 22  1  0
 22 23  2  0
 22 24  1  0
 24 25  1  0
 26 25  1  0
 28 27  1  6
 27 26  1  0
 28 29  1  0
 29 17  1  0
 30 28  1  0
 31 30  2  0
 32 30  1  0
M  END
$$$$
