IYR.pdb
     RDKit          3D

 32 32  0  0  1  0  0  0  0  0999 V2000
    8.0378  -14.2001   15.6397 C   0  0  0  0  0  0  0  0  0  0  0  0
    8.0924  -15.2520   16.7359 C   0  0  0  0  0  0  0  0  0  0  0  0
    8.4978  -14.6671   18.0486 C   0  0  2  0  0  0  0  0  0  0  0  0
    9.7693  -13.8474   17.9561 C   0  0  0  0  0  0  0  0  0  0  0  0
    8.4990  -15.6381   19.1605 C   0  0  2  0  0  0  0  0  0  0  0  0
    7.2940  -16.4762   19.1740 N   0  0  0  0  0  0  0  0  0  0  0  0
    8.7700  -15.1088   20.5149 C   0  0  0  0  0  0  0  0  0  0  0  0
    9.8801  -14.7108   20.8828 O   0  0  0  0  0  0  0  0  0  0  0  0
    7.5410  -12.5898   28.9892 O   0  0  0  0  0  0  0  0  0  0  0  0
    7.3623  -12.9107   27.6217 C   0  0  0  0  0  0  0  0  0  0  0  0
    6.5813  -13.9744   27.2501 C   0  0  0  0  0  0  0  0  0  0  0  0
    6.4068  -14.2872   25.9096 C   0  0  0  0  0  0  0  0  0  0  0  0
    7.0015  -13.5537   24.9095 C   0  0  0  0  0  0  0  0  0  0  0  0
    6.7924  -13.9056   23.4918 C   0  0  0  0  0  0  0  0  0  0  0  0
    7.9188  -14.6580   22.8517 C   0  0  2  0  0  0  0  0  0  0  0  0
    7.7234  -15.0311   21.4996 N   0  0  0  0  0  0  0  0  0  0  0  0
    8.3876  -15.7999   23.7044 C   0  0  0  0  0  0  0  0  0  0  0  0
    7.6839  -16.8178   23.9174 O   0  0  0  0  0  0  0  0  0  0  0  0
    7.7794  -12.4922   25.3161 C   0  0  0  0  0  0  0  0  0  0  0  0
    7.9661  -12.1643   26.6407 C   0  0  0  0  0  0  0  0  0  0  0  0
   13.0804  -16.6772   20.0134 N   0  0  0  0  0  0  0  0  0  0  0  0
   12.4028  -17.9137   19.8561 C   0  0  0  0  0  0  0  0  0  0  0  0
   11.9631  -18.2667   18.6971 N   0  0  0  0  0  0  0  0  0  0  0  0
   12.2222  -18.7399   20.9891 N   0  0  0  0  0  0  0  0  0  0  0  0
   12.5481  -18.2593   22.3127 C   0  0  0  0  0  0  0  0  0  0  0  0
   11.3159  -17.9533   23.0643 C   0  0  0  0  0  0  0  0  0  0  0  0
   11.3592  -17.4096   24.4192 C   0  0  0  0  0  0  0  0  0  0  0  0
   10.1428  -16.9694   25.1223 C   0  0  2  0  0  0  0  0  0  0  0  0
    9.6634  -15.7683   24.3104 N   0  0  0  0  0  0  0  0  0  0  0  0
   10.3045  -16.3941   26.4763 C   0  0  0  0  0  0  0  0  0  0  0  0
   10.2158  -17.1324   27.5284 O   0  0  0  0  0  0  0  0  0  0  0  0
   10.5586  -15.0746   26.6787 O   0  0  0  0  0  0  0  0  0  0  0  0
  2  1  1  0
  3  5  1  0
  3  2  1  0
  3  4  1  6
  5  6  1  1
  7  5  1  0
  8  7  2  0
  9 10  1  0
 10 11  2  0
 11 12  1  0
 13 12  2  0
 13 14  1  0
 15 14  1  1
 15 16  1  0
 16  7  1  0
 17 15  1  0
 18 17  2  0
 19 13  1  0
 20 10  1  0
 20 19  2  0
 21 22  1  0
 22 23  2  0
 22 24  1  0
 24 25  1  0
 26 25  1  0
 28 27  1  6
 27 26  1  0
 28 29  1  0
 29 17  1  0
 30 28  1  0
 31 30  2  0
 32 30  1  0
M  END
$$$$
