IYR.pdb
     RDKit          3D

 32 32  0  0  1  0  0  0  0  0999 V2000
    6.6269  -12.0848   18.4729 C   0  0  0  0  0  0  0  0  0  0  0  0
    7.1622  -13.4554   18.8549 C   0  0  0  0  0  0  0  0  0  0  0  0
    7.7891  -13.4499   20.2102 C   0  0  2  0  0  0  0  0  0  0  0  0
    8.8788  -12.4054   20.3464 C   0  0  0  0  0  0  0  0  0  0  0  0
    8.1883  -14.7880   20.6891 C   0  0  2  0  0  0  0  0  0  0  0  0
    7.0677  -15.7361   20.7017 N   0  0  0  0  0  0  0  0  0  0  0  0
    8.9270  -14.8509   21.9691 C   0  0  0  0  0  0  0  0  0  0  0  0
   10.0712  -14.4101   22.1194 O   0  0  0  0  0  0  0  0  0  0  0  0
   10.5781  -15.1802   30.6785 O   0  0  0  0  0  0  0  0  0  0  0  0
    9.9583  -15.1402   29.4059 C   0  0  0  0  0  0  0  0  0  0  0  0
    9.7657  -13.9463   28.7601 C   0  0  0  0  0  0  0  0  0  0  0  0
    9.1587  -13.9087   27.5130 C   0  0  0  0  0  0  0  0  0  0  0  0
    8.7302  -15.0519   26.8794 C   0  0  0  0  0  0  0  0  0  0  0  0
    8.0939  -14.9822   25.5498 C   0  0  0  0  0  0  0  0  0  0  0  0
    8.9356  -15.4833   24.4162 C   0  0  2  0  0  0  0  0  0  0  0  0
    8.3321  -15.4480   23.1356 N   0  0  0  0  0  0  0  0  0  0  0  0
    9.5595  -16.8124   24.7248 C   0  0  0  0  0  0  0  0  0  0  0  0
    8.8879  -17.8695   24.8159 O   0  0  0  0  0  0  0  0  0  0  0  0
    8.9383  -16.2343   27.5546 C   0  0  0  0  0  0  0  0  0  0  0  0
    9.5386  -16.2942   28.7929 C   0  0  0  0  0  0  0  0  0  0  0  0
   12.8234  -17.3183   19.4329 N   0  0  0  0  0  0  0  0  0  0  0  0
   11.9596  -18.4421   19.4951 C   0  0  0  0  0  0  0  0  0  0  0  0
   10.8620  -18.4514   18.8196 N   0  0  0  0  0  0  0  0  0  0  0  0
   12.3269  -19.5388   20.3082 N   0  0  0  0  0  0  0  0  0  0  0  0
   13.0164  -19.3306   21.5614 C   0  0  0  0  0  0  0  0  0  0  0  0
   12.2304  -18.4400   22.4365 C   0  0  0  0  0  0  0  0  0  0  0  0
   12.5973  -18.2178   23.8326 C   0  0  0  0  0  0  0  0  0  0  0  0
   11.6098  -18.3011   24.9215 C   0  0  2  0  0  0  0  0  0  0  0  0
   10.9532  -16.9225   24.9283 N   0  0  0  0  0  0  0  0  0  0  0  0
   12.1235  -18.4157   26.3048 C   0  0  0  0  0  0  0  0  0  0  0  0
   12.6154  -17.3957   26.9190 O   0  0  0  0  0  0  0  0  0  0  0  0
   12.0975  -19.5866   26.9940 O   0  0  0  0  0  0  0  0  0  0  0  0
  2  1  1  0
  3  5  1  0
  3  2  1  0
  3  4  1  6
  5  6  1  1
  7  5  1  0
  8  7  2  0
  9 10  1  0
 10 11  2  0
 11 12  1  0
 13 12  2  0
 13 14  1  0
 15 14  1  1
 15 16  1  0
 16  7  1  0
 17 15  1  0
 18 17  2  0
 19 13  1  0
 20 10  1  0
 20 19  2  0
 21 22  1  0
 22 23  2  0
 22 24  1  0
 24 25  1  0
 26 25  1  0
 28 27  1  6
 27 26  1  0
 28 29  1  0
 29 17  1  0
 30 28  1  0
 31 30  2  0
 32 30  1  0
M  END
$$$$
