IYR.pdb
     RDKit          3D

 32 32  0  0  1  0  0  0  0  0999 V2000
    7.2950  -12.5702   16.5119 C   0  0  0  0  0  0  0  0  0  0  0  0
    8.1810  -13.6279   17.1502 C   0  0  0  0  0  0  0  0  0  0  0  0
    8.2961  -13.4400   18.6271 C   0  0  2  0  0  0  0  0  0  0  0  0
    8.7973  -12.0602   19.0039 C   0  0  0  0  0  0  0  0  0  0  0  0
    9.0060  -14.5362   19.3152 C   0  0  2  0  0  0  0  0  0  0  0  0
    8.4075  -15.8488   19.0441 N   0  0  0  0  0  0  0  0  0  0  0  0
    9.2490  -14.3737   20.7653 C   0  0  0  0  0  0  0  0  0  0  0  0
   10.2760  -13.8715   21.2332 O   0  0  0  0  0  0  0  0  0  0  0  0
    7.3391  -12.5404   29.2041 O   0  0  0  0  0  0  0  0  0  0  0  0
    7.2544  -12.9809   27.8610 C   0  0  0  0  0  0  0  0  0  0  0  0
    7.1853  -12.0770   26.8326 C   0  0  0  0  0  0  0  0  0  0  0  0
    7.1028  -12.5101   25.5170 C   0  0  0  0  0  0  0  0  0  0  0  0
    7.0874  -13.8466   25.1923 C   0  0  0  0  0  0  0  0  0  0  0  0
    7.0060  -14.2781   23.7835 C   0  0  0  0  0  0  0  0  0  0  0  0
    8.3257  -14.5121   23.1140 C   0  0  2  0  0  0  0  0  0  0  0  0
    8.2730  -14.8070   21.7299 N   0  0  0  0  0  0  0  0  0  0  0  0
    9.1798  -15.4797   23.8790 C   0  0  0  0  0  0  0  0  0  0  0  0
    9.3229  -15.4164   25.1249 O   0  0  0  0  0  0  0  0  0  0  0  0
    7.1581  -14.7284   26.2481 C   0  0  0  0  0  0  0  0  0  0  0  0
    7.2404  -14.3201   27.5609 C   0  0  0  0  0  0  0  0  0  0  0  0
   14.8190  -17.8737   18.5927 N   0  0  0  0  0  0  0  0  0  0  0  0
   14.2718  -16.5810   18.7986 C   0  0  0  0  0  0  0  0  0  0  0  0
   14.5536  -15.6228   17.9840 N   0  0  0  0  0  0  0  0  0  0  0  0
   13.4202  -16.3711   19.9076 N   0  0  0  0  0  0  0  0  0  0  0  0
   13.1982  -17.4200   20.8769 C   0  0  0  0  0  0  0  0  0  0  0  0
   12.2820  -16.9537   21.9352 C   0  0  0  0  0  0  0  0  0  0  0  0
   11.8055  -17.8490   22.9862 C   0  0  0  0  0  0  0  0  0  0  0  0
   10.8211  -17.4168   23.9921 C   0  0  2  0  0  0  0  0  0  0  0  0
    9.8673  -16.5168   23.2098 N   0  0  0  0  0  0  0  0  0  0  0  0
   11.2925  -16.5194   25.0706 C   0  0  0  0  0  0  0  0  0  0  0  0
   11.2344  -15.2387   24.9441 O   0  0  0  0  0  0  0  0  0  0  0  0
   11.7991  -16.9930   26.2392 O   0  0  0  0  0  0  0  0  0  0  0  0
  2  1  1  0
  3  5  1  0
  3  2  1  0
  3  4  1  6
  5  6  1  1
  7  5  1  0
  8  7  2  0
  9 10  1  0
 10 11  2  0
 11 12  1  0
 13 12  2  0
 13 14  1  0
 15 14  1  1
 15 16  1  0
 16  7  1  0
 17 15  1  0
 18 17  2  0
 19 13  1  0
 20 10  1  0
 20 19  2  0
 21 22  1  0
 22 23  2  0
 22 24  1  0
 24 25  1  0
 26 25  1  0
 28 27  1  6
 27 26  1  0
 28 29  1  0
 29 17  1  0
 30 28  1  0
 31 30  2  0
 32 30  1  0
M  END
$$$$
