IYR.pdb
     RDKit          3D

 32 32  0  0  1  0  0  0  0  0999 V2000
    6.3571  -12.1711   18.5372 C   0  0  0  0  0  0  0  0  0  0  0  0
    6.8241  -13.5468   18.9851 C   0  0  0  0  0  0  0  0  0  0  0  0
    7.6051  -13.4826   20.2562 C   0  0  2  0  0  0  0  0  0  0  0  0
    8.6929  -12.4280   20.2218 C   0  0  0  0  0  0  0  0  0  0  0  0
    8.0706  -14.7980   20.7383 C   0  0  2  0  0  0  0  0  0  0  0  0
    6.9847  -15.7824   20.8174 N   0  0  0  0  0  0  0  0  0  0  0  0
    8.8680  -14.8135   21.9841 C   0  0  0  0  0  0  0  0  0  0  0  0
   10.0893  -14.6307   22.0153 O   0  0  0  0  0  0  0  0  0  0  0  0
   10.9638  -15.4287   30.6383 O   0  0  0  0  0  0  0  0  0  0  0  0
   10.2692  -15.2684   29.4149 C   0  0  0  0  0  0  0  0  0  0  0  0
    9.6941  -16.3457   28.7918 C   0  0  0  0  0  0  0  0  0  0  0  0
    9.0134  -16.1870   27.5933 C   0  0  0  0  0  0  0  0  0  0  0  0
    8.8877  -14.9588   26.9869 C   0  0  0  0  0  0  0  0  0  0  0  0
    8.1519  -14.8187   25.7155 C   0  0  0  0  0  0  0  0  0  0  0  0
    8.9371  -15.1619   24.4865 C   0  0  2  0  0  0  0  0  0  0  0  0
    8.2417  -15.0511   23.2578 N   0  0  0  0  0  0  0  0  0  0  0  0
    9.6569  -16.4707   24.6273 C   0  0  0  0  0  0  0  0  0  0  0  0
    9.0552  -17.5720   24.6688 O   0  0  0  0  0  0  0  0  0  0  0  0
    9.4766  -13.8974   27.6381 C   0  0  0  0  0  0  0  0  0  0  0  0
   10.1568  -14.0327   28.8281 C   0  0  0  0  0  0  0  0  0  0  0  0
   11.2612  -19.4913   17.9472 N   0  0  0  0  0  0  0  0  0  0  0  0
   12.4119  -19.2030   18.7255 C   0  0  0  0  0  0  0  0  0  0  0  0
   13.5618  -19.0780   18.1569 N   0  0  0  0  0  0  0  0  0  0  0  0
   12.2687  -19.0590   20.1247 N   0  0  0  0  0  0  0  0  0  0  0  0
   13.3777  -18.6151   20.9385 C   0  0  0  0  0  0  0  0  0  0  0  0
   13.0322  -18.7086   22.3699 C   0  0  0  0  0  0  0  0  0  0  0  0
   12.2202  -17.6903   23.0308 C   0  0  0  0  0  0  0  0  0  0  0  0
   11.8047  -17.8159   24.4376 C   0  0  2  0  0  0  0  0  0  0  0  0
   11.0661  -16.5098   24.7207 N   0  0  0  0  0  0  0  0  0  0  0  0
   12.8666  -17.8108   25.4686 C   0  0  0  0  0  0  0  0  0  0  0  0
   13.1554  -16.7384   26.1217 O   0  0  0  0  0  0  0  0  0  0  0  0
   13.5795  -18.9244   25.7819 O   0  0  0  0  0  0  0  0  0  0  0  0
  2  1  1  0
  3  5  1  0
  3  2  1  0
  3  4  1  6
  5  6  1  1
  7  5  1  0
  8  7  2  0
  9 10  1  0
 10 11  2  0
 11 12  1  0
 13 12  2  0
 13 14  1  0
 15 14  1  1
 15 16  1  0
 16  7  1  0
 17 15  1  0
 18 17  2  0
 19 13  1  0
 20 10  1  0
 20 19  2  0
 21 22  1  0
 22 23  2  0
 22 24  1  0
 24 25  1  0
 26 25  1  0
 28 27  1  6
 27 26  1  0
 28 29  1  0
 29 17  1  0
 30 28  1  0
 31 30  2  0
 32 30  1  0
M  END
$$$$
