IYR.pdb
     RDKit          3D

 32 32  0  0  1  0  0  0  0  0999 V2000
    6.5394  -15.2708   17.2141 C   0  0  0  0  0  0  0  0  0  0  0  0
    6.5912  -14.0977   18.1796 C   0  0  0  0  0  0  0  0  0  0  0  0
    7.3838  -14.4191   19.4037 C   0  0  2  0  0  0  0  0  0  0  0  0
    6.9882  -15.7433   20.0257 C   0  0  0  0  0  0  0  0  0  0  0  0
    7.4614  -13.3090   20.3737 C   0  0  2  0  0  0  0  0  0  0  0  0
    7.8544  -12.0420   19.7453 N   0  0  0  0  0  0  0  0  0  0  0  0
    8.2568  -13.5415   21.5989 C   0  0  0  0  0  0  0  0  0  0  0  0
    9.4871  -13.6532   21.6032 O   0  0  0  0  0  0  0  0  0  0  0  0
   10.1794  -15.4933   30.1003 O   0  0  0  0  0  0  0  0  0  0  0  0
    9.5265  -15.0613   28.9204 C   0  0  0  0  0  0  0  0  0  0  0  0
    8.7933  -15.9404   28.1660 C   0  0  0  0  0  0  0  0  0  0  0  0
    8.1537  -15.5155   27.0104 C   0  0  0  0  0  0  0  0  0  0  0  0
    8.2264  -14.2118   26.5779 C   0  0  0  0  0  0  0  0  0  0  0  0
    7.5299  -13.7866   25.3484 C   0  0  0  0  0  0  0  0  0  0  0  0
    8.2720  -14.0522   24.0743 C   0  0  2  0  0  0  0  0  0  0  0  0
    7.6174  -13.6543   22.8832 N   0  0  0  0  0  0  0  0  0  0  0  0
    8.7881  -15.4594   24.0078 C   0  0  0  0  0  0  0  0  0  0  0  0
    8.0390  -16.4448   23.7966 O   0  0  0  0  0  0  0  0  0  0  0  0
    8.9704  -13.3543   27.3578 C   0  0  0  0  0  0  0  0  0  0  0  0
    9.6133  -13.7550   28.5081 C   0  0  0  0  0  0  0  0  0  0  0  0
   14.0475  -18.6421   18.4912 N   0  0  0  0  0  0  0  0  0  0  0  0
   13.6756  -19.7708   19.2662 C   0  0  0  0  0  0  0  0  0  0  0  0
   13.8726  -20.9604   18.8111 N   0  0  0  0  0  0  0  0  0  0  0  0
   13.0890  -19.5615   20.5355 N   0  0  0  0  0  0  0  0  0  0  0  0
   12.7821  -18.2262   20.9959 C   0  0  0  0  0  0  0  0  0  0  0  0
   12.2654  -18.2670   22.3773 C   0  0  0  0  0  0  0  0  0  0  0  0
   11.7203  -17.0781   23.0274 C   0  0  0  0  0  0  0  0  0  0  0  0
   10.6724  -17.1640   24.0580 C   0  0  2  0  0  0  0  0  0  0  0  0
   10.1634  -15.7299   24.1849 N   0  0  0  0  0  0  0  0  0  0  0  0
   11.0962  -17.4747   25.4417 C   0  0  0  0  0  0  0  0  0  0  0  0
   11.5014  -16.5467   26.2382 O   0  0  0  0  0  0  0  0  0  0  0  0
   11.0742  -18.7383   25.9410 O   0  0  0  0  0  0  0  0  0  0  0  0
  2  1  1  0
  3  5  1  0
  3  2  1  0
  3  4  1  1
  5  6  1  6
  7  5  1  0
  8  7  2  0
  9 10  1  0
 10 11  2  0
 11 12  1  0
 13 12  2  0
 13 14  1  0
 15 14  1  1
 15 16  1  0
 16  7  1  0
 17 15  1  0
 18 17  2  0
 19 13  1  0
 20 10  1  0
 20 19  2  0
 21 22  1  0
 22 23  2  0
 22 24  1  0
 24 25  1  0
 26 25  1  0
 28 27  1  6
 27 26  1  0
 28 29  1  0
 29 17  1  0
 30 28  1  0
 31 30  2  0
 32 30  1  0
M  END
$$$$
