IYR.pdb
     RDKit          3D

 32 32  0  0  1  0  0  0  0  0999 V2000
    7.2503  -15.5987   16.7861 C   0  0  0  0  0  0  0  0  0  0  0  0
    7.1648  -14.3884   17.7020 C   0  0  0  0  0  0  0  0  0  0  0  0
    7.8437  -14.6311   19.0097 C   0  0  2  0  0  0  0  0  0  0  0  0
    7.4277  -15.9400   19.6506 C   0  0  0  0  0  0  0  0  0  0  0  0
    7.7949  -13.4788   19.9310 C   0  0  2  0  0  0  0  0  0  0  0  0
    8.1951  -12.2246   19.2818 N   0  0  0  0  0  0  0  0  0  0  0  0
    8.4872  -13.6270   21.2298 C   0  0  0  0  0  0  0  0  0  0  0  0
    9.7161  -13.6746   21.3468 O   0  0  0  0  0  0  0  0  0  0  0  0
    9.8370  -14.8967   29.9582 O   0  0  0  0  0  0  0  0  0  0  0  0
    9.2522  -14.5949   28.7044 C   0  0  0  0  0  0  0  0  0  0  0  0
    8.5835  -15.5592   27.9954 C   0  0  0  0  0  0  0  0  0  0  0  0
    8.0105  -15.2619   26.7673 C   0  0  0  0  0  0  0  0  0  0  0  0
    8.0873  -14.0042   26.2157 C   0  0  0  0  0  0  0  0  0  0  0  0
    7.4623  -13.7150   24.9107 C   0  0  0  0  0  0  0  0  0  0  0  0
    8.3058  -14.0417   23.7164 C   0  0  2  0  0  0  0  0  0  0  0  0
    7.7411  -13.7278   22.4562 N   0  0  0  0  0  0  0  0  0  0  0  0
    8.8454  -15.4404   23.7757 C   0  0  0  0  0  0  0  0  0  0  0  0
    8.1226  -16.4518   23.5992 O   0  0  0  0  0  0  0  0  0  0  0  0
    8.7656  -13.0587   26.9528 C   0  0  0  0  0  0  0  0  0  0  0  0
    9.3418  -13.3324   28.1736 C   0  0  0  0  0  0  0  0  0  0  0  0
   15.2795  -14.4899   21.4607 N   0  0  0  0  0  0  0  0  0  0  0  0
   14.5570  -14.9625   20.3348 C   0  0  0  0  0  0  0  0  0  0  0  0
   14.4402  -14.2234   19.2854 N   0  0  0  0  0  0  0  0  0  0  0  0
   13.9734  -16.2490   20.3916 N   0  0  0  0  0  0  0  0  0  0  0  0
   13.7828  -16.9180   21.6586 C   0  0  0  0  0  0  0  0  0  0  0  0
   12.6189  -16.3516   22.3667 C   0  0  0  0  0  0  0  0  0  0  0  0
   11.4376  -17.1564   22.6666 C   0  0  0  0  0  0  0  0  0  0  0  0
   10.7637  -17.0956   23.9741 C   0  0  2  0  0  0  0  0  0  0  0  0
   10.2141  -15.6724   24.0384 N   0  0  0  0  0  0  0  0  0  0  0  0
   11.6113  -17.1643   25.1855 C   0  0  0  0  0  0  0  0  0  0  0  0
   12.4421  -18.1329   25.3627 O   0  0  0  0  0  0  0  0  0  0  0  0
   11.5635  -16.2179   26.1595 O   0  0  0  0  0  0  0  0  0  0  0  0
  2  1  1  0
  3  5  1  0
  3  2  1  0
  3  4  1  1
  5  6  1  6
  7  5  1  0
  8  7  2  0
  9 10  1  0
 10 11  2  0
 11 12  1  0
 13 12  2  0
 13 14  1  0
 15 14  1  1
 15 16  1  0
 16  7  1  0
 17 15  1  0
 18 17  2  0
 19 13  1  0
 20 10  1  0
 20 19  2  0
 21 22  1  0
 22 23  2  0
 22 24  1  0
 24 25  1  0
 26 25  1  0
 28 27  1  6
 27 26  1  0
 28 29  1  0
 29 17  1  0
 30 28  1  0
 31 30  2  0
 32 30  1  0
M  END
$$$$
