DDN.pdb
     RDKit          3D

 25 24  0  0  1  0  0  0  0  0999 V2000
   16.4173  -11.8077  -15.7181 N   0  0  0  0  0  0  0  0  0  0  0  0
   17.3433  -11.3610  -14.7100 C   0  0  1  0  0  0  0  0  0  0  0  0
   18.5753  -10.8440  -15.4662 C   0  0  0  0  0  0  0  0  0  0  0  0
   19.2054  -12.0112  -16.1011 C   0  0  0  0  0  0  0  0  0  0  0  0
   19.3109  -12.1013  -17.3457 O   0  0  0  0  0  0  0  0  0  0  0  0
   16.7875  -10.2301  -13.9051 C   0  0  0  0  0  0  0  0  0  0  0  0
   16.3393   -9.2164  -14.4997 O   0  0  0  0  0  0  0  0  0  0  0  0
   19.6958  -13.0378  -15.3192 O   0  0  0  0  0  0  0  0  0  0  0  0
   16.7384  -10.2388  -12.4986 N   0  0  0  0  0  0  0  0  0  0  0  0
   16.2048   -9.0777  -11.7547 C   0  0  1  0  0  0  0  0  0  0  0  0
   15.2038   -9.5856  -10.7564 C   0  0  0  0  0  0  0  0  0  0  0  0
   13.9607  -10.0865  -11.3541 C   0  0  0  0  0  0  0  0  0  0  0  0
   13.6201  -11.2744  -11.0960 O   0  0  0  0  0  0  0  0  0  0  0  0
   17.3242   -8.3071  -11.1953 C   0  0  0  0  0  0  0  0  0  0  0  0
   18.3645   -8.9878  -10.8561 O   0  0  0  0  0  0  0  0  0  0  0  0
   13.2104   -9.2621  -12.1669 O   0  0  0  0  0  0  0  0  0  0  0  0
   21.7317   -6.2910   -9.8909 N   0  0  0  0  0  0  0  0  0  0  0  0
   20.9336   -5.8178  -10.9531 C   0  0  0  0  0  0  0  0  0  0  0  0
   21.2358   -4.7703  -11.5926 O   0  0  0  0  0  0  0  0  0  0  0  0
   19.7183   -6.5586  -11.3298 C   0  0  0  0  0  0  0  0  0  0  0  0
   18.5139   -6.2322  -10.4678 C   0  0  2  0  0  0  0  0  0  0  0  0
   17.3516   -6.9038  -11.0063 N   0  0  0  0  0  0  0  0  0  0  0  0
   18.3084   -4.7844  -10.2668 C   0  0  0  0  0  0  0  0  0  0  0  0
   18.9916   -4.0659   -9.3027 O   0  0  0  0  0  0  0  0  0  0  0  0
   17.4915   -4.1536  -10.9791 O   0  0  0  0  0  0  0  0  0  0  0  0
  2  1  1  6
  2  6  1  0
  3  2  1  0
  4  3  1  0
  4  8  1  0
  5  4  2  0
  6  7  2  0
  9  6  1  0
  9 10  1  0
 10 14  1  0
 10 11  1  1
 12 16  1  0
 12 11  1  0
 13 12  2  0
 14 15  2  0
 14 22  1  0
 18 19  2  0
 18 17  1  0
 21 20  1  6
 20 18  1  0
 21 23  1  0
 22 21  1  0
 23 24  1  0
 25 23  2  0
M  END
$$$$
