DDN.pdb
     RDKit          3D

 25 24  0  0  1  0  0  0  0  0999 V2000
   18.1040  -11.2061  -15.9462 N   0  0  0  0  0  0  0  0  0  0  0  0
   19.3453  -11.9132  -15.7665 C   0  0  1  0  0  0  0  0  0  0  0  0
   19.2759  -13.1332  -16.6960 C   0  0  0  0  0  0  0  0  0  0  0  0
   18.1744  -13.9769  -16.2089 C   0  0  0  0  0  0  0  0  0  0  0  0
   17.9155  -14.0738  -14.9875 O   0  0  0  0  0  0  0  0  0  0  0  0
   20.5217  -11.0866  -16.1768 C   0  0  0  0  0  0  0  0  0  0  0  0
   21.6552  -11.6270  -16.2503 O   0  0  0  0  0  0  0  0  0  0  0  0
   17.4004  -14.6833  -17.1076 O   0  0  0  0  0  0  0  0  0  0  0  0
   20.4281   -9.7176  -16.4893 N   0  0  0  0  0  0  0  0  0  0  0  0
   21.6424   -8.9232  -16.7730 C   0  0  1  0  0  0  0  0  0  0  0  0
   21.7662   -8.7797  -18.2632 C   0  0  0  0  0  0  0  0  0  0  0  0
   22.8730   -7.9178  -18.6936 C   0  0  0  0  0  0  0  0  0  0  0  0
   23.6312   -7.4437  -17.8025 O   0  0  0  0  0  0  0  0  0  0  0  0
   21.5832   -7.6643  -16.0169 C   0  0  0  0  0  0  0  0  0  0  0  0
   20.5331   -6.9415  -16.2053 O   0  0  0  0  0  0  0  0  0  0  0  0
   23.0534   -7.6529  -20.0355 O   0  0  0  0  0  0  0  0  0  0  0  0
   22.2942   -3.3422  -13.4225 N   0  0  0  0  0  0  0  0  0  0  0  0
   22.1973   -3.4775  -14.8229 C   0  0  0  0  0  0  0  0  0  0  0  0
   22.0266   -2.4758  -15.5746 O   0  0  0  0  0  0  0  0  0  0  0  0
   22.2970   -4.8157  -15.4285 C   0  0  0  0  0  0  0  0  0  0  0  0
   22.4162   -5.9365  -14.4137 C   0  0  2  0  0  0  0  0  0  0  0  0
   22.5667   -7.1933  -15.1133 N   0  0  0  0  0  0  0  0  0  0  0  0
   21.3243   -5.9503  -13.4205 C   0  0  0  0  0  0  0  0  0  0  0  0
   21.4931   -6.4463  -12.1407 O   0  0  0  0  0  0  0  0  0  0  0  0
   20.1904   -5.5040  -13.7164 O   0  0  0  0  0  0  0  0  0  0  0  0
  2  1  1  6
  2  6  1  0
  3  2  1  0
  4  3  1  0
  4  8  1  0
  5  4  2  0
  6  7  2  0
  9  6  1  0
  9 10  1  0
 10 14  1  0
 10 11  1  6
 12 16  1  0
 12 11  1  0
 13 12  2  0
 14 15  2  0
 14 22  1  0
 18 19  2  0
 18 17  1  0
 21 20  1  6
 20 18  1  0
 21 23  1  0
 22 21  1  0
 23 24  1  0
 25 23  2  0
M  END
$$$$
