DDN.pdb
     RDKit          3D

 25 24  0  0  1  0  0  0  0  0999 V2000
   17.8278  -12.6815  -15.1177 N   0  0  0  0  0  0  0  0  0  0  0  0
   16.6957  -11.8650  -14.7648 C   0  0  1  0  0  0  0  0  0  0  0  0
   15.7883  -12.7507  -13.8992 C   0  0  0  0  0  0  0  0  0  0  0  0
   15.2969  -13.8319  -14.7663 C   0  0  0  0  0  0  0  0  0  0  0  0
   14.8030  -13.5940  -15.8922 O   0  0  0  0  0  0  0  0  0  0  0  0
   17.0975  -10.6785  -13.9483 C   0  0  0  0  0  0  0  0  0  0  0  0
   17.9525  -10.8224  -13.0371 O   0  0  0  0  0  0  0  0  0  0  0  0
   15.3758  -15.1431  -14.3418 O   0  0  0  0  0  0  0  0  0  0  0  0
   16.5631   -9.3918  -14.1470 N   0  0  0  0  0  0  0  0  0  0  0  0
   17.0487   -8.2420  -13.3543 C   0  0  1  0  0  0  0  0  0  0  0  0
   17.2273   -7.0774  -14.2862 C   0  0  0  0  0  0  0  0  0  0  0  0
   17.6502   -5.8380  -13.6243 C   0  0  0  0  0  0  0  0  0  0  0  0
   18.4715   -5.9305  -12.6700 O   0  0  0  0  0  0  0  0  0  0  0  0
   16.1376   -8.0161  -12.2235 C   0  0  0  0  0  0  0  0  0  0  0  0
   14.9048   -8.3366  -12.4191 O   0  0  0  0  0  0  0  0  0  0  0  0
   17.1492   -4.6264  -14.0537 O   0  0  0  0  0  0  0  0  0  0  0  0
   13.6093   -7.0586   -7.9215 N   0  0  0  0  0  0  0  0  0  0  0  0
   13.7976   -8.3283   -8.5059 C   0  0  0  0  0  0  0  0  0  0  0  0
   13.1159   -9.3302   -8.1466 O   0  0  0  0  0  0  0  0  0  0  0  0
   14.8113   -8.4955   -9.5604 C   0  0  0  0  0  0  0  0  0  0  0  0
   15.5110   -7.2055   -9.9431 C   0  0  2  0  0  0  0  0  0  0  0  0
   16.4996   -7.4881  -10.9603 N   0  0  0  0  0  0  0  0  0  0  0  0
   16.0588   -6.4674   -8.7882 C   0  0  0  0  0  0  0  0  0  0  0  0
   17.4179   -6.3168   -8.5822 O   0  0  0  0  0  0  0  0  0  0  0  0
   15.2908   -5.9466   -7.9447 O   0  0  0  0  0  0  0  0  0  0  0  0
  2  1  1  1
  2  6  1  0
  3  2  1  0
  4  3  1  0
  4  8  1  0
  5  4  2  0
  6  7  2  0
  9  6  1  0
  9 10  1  0
 10 14  1  0
 10 11  1  6
 12 16  1  0
 12 11  1  0
 13 12  2  0
 14 15  2  0
 14 22  1  0
 18 19  2  0
 18 17  1  0
 21 20  1  1
 20 18  1  0
 21 23  1  0
 22 21  1  0
 23 24  1  0
 25 23  2  0
M  END
$$$$
