DDN.pdb
     RDKit          3D

 25 24  0  0  1  0  0  0  0  0999 V2000
   17.5494  -11.8908  -15.8341 N   0  0  0  0  0  0  0  0  0  0  0  0
   17.2966  -10.4789  -15.7088 C   0  0  1  0  0  0  0  0  0  0  0  0
   15.7707  -10.3271  -15.6345 C   0  0  0  0  0  0  0  0  0  0  0  0
   15.2632  -10.4531  -17.0089 C   0  0  0  0  0  0  0  0  0  0  0  0
   14.7041  -11.5008  -17.4062 O   0  0  0  0  0  0  0  0  0  0  0  0
   17.8782   -9.9185  -14.4505 C   0  0  0  0  0  0  0  0  0  0  0  0
   17.8887  -10.6269  -13.4112 O   0  0  0  0  0  0  0  0  0  0  0  0
   15.4000   -9.4003  -17.8913 O   0  0  0  0  0  0  0  0  0  0  0  0
   18.4217   -8.6231  -14.3649 N   0  0  0  0  0  0  0  0  0  0  0  0
   19.0246   -8.1391  -13.1047 C   0  0  1  0  0  0  0  0  0  0  0  0
   20.2119   -7.2879  -13.4544 C   0  0  0  0  0  0  0  0  0  0  0  0
   20.8593   -6.6563  -12.2989 C   0  0  0  0  0  0  0  0  0  0  0  0
   20.4722   -6.9984  -11.1471 O   0  0  0  0  0  0  0  0  0  0  0  0
   17.9889   -7.4818  -12.2953 C   0  0  0  0  0  0  0  0  0  0  0  0
   17.3132   -6.5569  -12.8858 O   0  0  0  0  0  0  0  0  0  0  0  0
   21.8556   -5.7227  -12.4972 O   0  0  0  0  0  0  0  0  0  0  0  0
   14.7850   -5.8494   -8.5655 N   0  0  0  0  0  0  0  0  0  0  0  0
   14.7194   -7.2507   -8.7116 C   0  0  0  0  0  0  0  0  0  0  0  0
   13.8298   -7.9359   -8.1314 O   0  0  0  0  0  0  0  0  0  0  0  0
   15.7088   -7.9362   -9.5594 C   0  0  0  0  0  0  0  0  0  0  0  0
   16.7173   -7.0002  -10.1974 C   0  0  2  0  0  0  0  0  0  0  0  0
   17.6779   -7.7802  -10.9462 N   0  0  0  0  0  0  0  0  0  0  0  0
   17.3443   -6.0684   -9.2395 C   0  0  0  0  0  0  0  0  0  0  0  0
   16.7046   -4.9286   -8.7878 O   0  0  0  0  0  0  0  0  0  0  0  0
   18.4981   -6.2893   -8.8007 O   0  0  0  0  0  0  0  0  0  0  0  0
  2  1  1  1
  2  6  1  0
  3  2  1  0
  4  3  1  0
  4  8  1  0
  5  4  2  0
  6  7  2  0
  9  6  1  0
  9 10  1  0
 10 14  1  0
 10 11  1  6
 12 16  1  0
 12 11  1  0
 13 12  2  0
 14 15  2  0
 14 22  1  0
 18 19  2  0
 18 17  1  0
 21 20  1  1
 20 18  1  0
 21 23  1  0
 22 21  1  0
 23 24  1  0
 25 23  2  0
M  END
$$$$
