DDN.pdb
     RDKit          3D

 25 24  0  0  1  0  0  0  0  0999 V2000
   22.9477   -7.3149  -20.0013 N   0  0  0  0  0  0  0  0  0  0  0  0
   23.8337   -7.9407  -19.0545 C   0  0  1  0  0  0  0  0  0  0  0  0
   25.2554   -7.5525  -19.4846 C   0  0  0  0  0  0  0  0  0  0  0  0
   25.5176   -8.2406  -20.7574 C   0  0  0  0  0  0  0  0  0  0  0  0
   26.3562   -9.1670  -20.8395 O   0  0  0  0  0  0  0  0  0  0  0  0
   23.6157   -7.4302  -17.6661 C   0  0  0  0  0  0  0  0  0  0  0  0
   24.3434   -7.8587  -16.7339 O   0  0  0  0  0  0  0  0  0  0  0  0
   24.8308   -7.8668  -21.8950 O   0  0  0  0  0  0  0  0  0  0  0  0
   22.6266   -6.4831  -17.3416 N   0  0  0  0  0  0  0  0  0  0  0  0
   22.4945   -5.9725  -15.9603 C   0  0  1  0  0  0  0  0  0  0  0  0
   22.2413   -4.4937  -16.0337 C   0  0  0  0  0  0  0  0  0  0  0  0
   21.9009   -3.8780  -14.7460 C   0  0  0  0  0  0  0  0  0  0  0  0
   22.0435   -4.5756  -13.7036 O   0  0  0  0  0  0  0  0  0  0  0  0
   21.4737   -6.7568  -15.2513 C   0  0  0  0  0  0  0  0  0  0  0  0
   20.2651   -6.6291  -15.6799 O   0  0  0  0  0  0  0  0  0  0  0  0
   21.4426   -2.5772  -14.7082 O   0  0  0  0  0  0  0  0  0  0  0  0
   17.7068   -7.3426  -11.5449 N   0  0  0  0  0  0  0  0  0  0  0  0
   18.9838   -7.9377  -11.6093 C   0  0  0  0  0  0  0  0  0  0  0  0
   19.2605   -8.9838  -10.9561 O   0  0  0  0  0  0  0  0  0  0  0  0
   20.0229   -7.3295  -12.4567 C   0  0  0  0  0  0  0  0  0  0  0  0
   20.6230   -8.2878  -13.4674 C   0  0  2  0  0  0  0  0  0  0  0  0
   21.7080   -7.6270  -14.1587 N   0  0  0  0  0  0  0  0  0  0  0  0
   19.6264   -8.8808  -14.3807 C   0  0  0  0  0  0  0  0  0  0  0  0
   19.6780  -10.2056  -14.7743 O   0  0  0  0  0  0  0  0  0  0  0  0
   18.6869   -8.1851  -14.8342 O   0  0  0  0  0  0  0  0  0  0  0  0
  2  1  1  6
  2  6  1  0
  3  2  1  0
  4  3  1  0
  4  8  1  0
  5  4  2  0
  6  7  2  0
  9  6  1  0
  9 10  1  0
 10 14  1  0
 10 11  1  6
 12 16  1  0
 12 11  1  0
 13 12  2  0
 14 15  2  0
 14 22  1  0
 18 19  2  0
 18 17  1  0
 21 20  1  1
 20 18  1  0
 21 23  1  0
 22 21  1  0
 23 24  1  0
 25 23  2  0
M  END
$$$$
