DDN.pdb
     RDKit          3D

 25 24  0  0  1  0  0  0  0  0999 V2000
   17.0650  -11.9249  -15.9319 N   0  0  0  0  0  0  0  0  0  0  0  0
   17.1448  -10.5280  -16.2718 C   0  0  1  0  0  0  0  0  0  0  0  0
   15.7547   -9.9426  -15.9855 C   0  0  0  0  0  0  0  0  0  0  0  0
   14.8195  -10.5929  -16.9155 C   0  0  0  0  0  0  0  0  0  0  0  0
   14.9531  -10.4894  -18.1564 O   0  0  0  0  0  0  0  0  0  0  0  0
   18.1357   -9.8029  -15.4187 C   0  0  0  0  0  0  0  0  0  0  0  0
   18.5187  -10.3285  -14.3420 O   0  0  0  0  0  0  0  0  0  0  0  0
   13.7663  -11.3370  -16.4229 O   0  0  0  0  0  0  0  0  0  0  0  0
   18.6703   -8.5465  -15.7599 N   0  0  0  0  0  0  0  0  0  0  0  0
   19.7160   -7.9187  -14.9241 C   0  0  1  0  0  0  0  0  0  0  0  0
   20.9053   -8.8360  -14.9011 C   0  0  0  0  0  0  0  0  0  0  0  0
   22.0791   -8.2804  -14.2178 C   0  0  0  0  0  0  0  0  0  0  0  0
   21.8852   -7.6057  -13.1686 O   0  0  0  0  0  0  0  0  0  0  0  0
   19.9736   -6.5576  -15.4149 C   0  0  0  0  0  0  0  0  0  0  0  0
   20.4174   -6.4671  -16.6213 O   0  0  0  0  0  0  0  0  0  0  0  0
   23.3403   -8.5056  -14.7296 O   0  0  0  0  0  0  0  0  0  0  0  0
   18.2621   -0.9131  -15.4643 N   0  0  0  0  0  0  0  0  0  0  0  0
   19.3978   -1.6558  -15.0800 C   0  0  0  0  0  0  0  0  0  0  0  0
   20.5650   -1.1826  -15.1853 O   0  0  0  0  0  0  0  0  0  0  0  0
   19.2244   -3.0154  -14.5424 C   0  0  0  0  0  0  0  0  0  0  0  0
   20.0546   -4.0639  -15.2578 C   0  0  2  0  0  0  0  0  0  0  0  0
   19.7737   -5.3613  -14.6837 N   0  0  0  0  0  0  0  0  0  0  0  0
   21.4954   -3.7460  -15.3006 C   0  0  0  0  0  0  0  0  0  0  0  0
   22.0842   -3.1207  -16.3845 O   0  0  0  0  0  0  0  0  0  0  0  0
   22.2401   -4.0407  -14.3357 O   0  0  0  0  0  0  0  0  0  0  0  0
  2  1  1  1
  2  6  1  0
  3  2  1  0
  4  3  1  0
  4  8  1  0
  5  4  2  0
  6  7  2  0
  9  6  1  0
  9 10  1  0
 10 14  1  0
 10 11  1  6
 12 16  1  0
 12 11  1  0
 13 12  2  0
 14 15  2  0
 14 22  1  0
 18 19  2  0
 18 17  1  0
 21 20  1  1
 20 18  1  0
 21 23  1  0
 22 21  1  0
 23 24  1  0
 25 23  2  0
M  END
$$$$
