DDN.pdb
     RDKit          3D

 25 24  0  0  1  0  0  0  0  0999 V2000
   16.0416  -11.7212  -15.7473 N   0  0  0  0  0  0  0  0  0  0  0  0
   17.1742  -12.0642  -14.9271 C   0  0  1  0  0  0  0  0  0  0  0  0
   18.2912  -12.4736  -15.8975 C   0  0  0  0  0  0  0  0  0  0  0  0
   18.0205  -13.8631  -16.2958 C   0  0  0  0  0  0  0  0  0  0  0  0
   17.0636  -14.1527  -17.0499 O   0  0  0  0  0  0  0  0  0  0  0  0
   17.6597  -10.8954  -14.1310 C   0  0  0  0  0  0  0  0  0  0  0  0
   18.7007  -11.0171  -13.4355 O   0  0  0  0  0  0  0  0  0  0  0  0
   18.8318  -14.8805  -15.8352 O   0  0  0  0  0  0  0  0  0  0  0  0
   17.0057   -9.6493  -14.1174 N   0  0  0  0  0  0  0  0  0  0  0  0
   17.5737   -8.5067  -13.3705 C   0  0  1  0  0  0  0  0  0  0  0  0
   17.9251   -7.4329  -14.3605 C   0  0  0  0  0  0  0  0  0  0  0  0
   18.4706   -6.2128  -13.7547 C   0  0  0  0  0  0  0  0  0  0  0  0
   18.5698   -6.1734  -12.4968 O   0  0  0  0  0  0  0  0  0  0  0  0
   16.6371   -8.1100  -12.3096 C   0  0  0  0  0  0  0  0  0  0  0  0
   15.3858   -8.2712  -12.5720 O   0  0  0  0  0  0  0  0  0  0  0  0
   18.8540   -5.1602  -14.5600 O   0  0  0  0  0  0  0  0  0  0  0  0
   14.1650   -6.7841   -8.0273 N   0  0  0  0  0  0  0  0  0  0  0  0
   14.1158   -8.0269   -8.6922 C   0  0  0  0  0  0  0  0  0  0  0  0
   13.2399   -8.8938   -8.4114 O   0  0  0  0  0  0  0  0  0  0  0  0
   15.1065   -8.3262   -9.7394 C   0  0  0  0  0  0  0  0  0  0  0  0
   15.9933   -7.1480  -10.0938 C   0  0  2  0  0  0  0  0  0  0  0  0
   16.9931   -7.5788  -11.0460 N   0  0  0  0  0  0  0  0  0  0  0  0
   16.5662   -6.4667   -8.9164 C   0  0  0  0  0  0  0  0  0  0  0  0
   17.9299   -6.3629   -8.7113 O   0  0  0  0  0  0  0  0  0  0  0  0
   15.8166   -5.9534   -8.0520 O   0  0  0  0  0  0  0  0  0  0  0  0
  2  1  1  6
  2  6  1  0
  3  2  1  0
  4  3  1  0
  4  8  1  0
  5  4  2  0
  6  7  2  0
  9  6  1  0
  9 10  1  0
 10 14  1  0
 10 11  1  6
 12 16  1  0
 12 11  1  0
 13 12  2  0
 14 15  2  0
 14 22  1  0
 18 19  2  0
 18 17  1  0
 21 20  1  1
 20 18  1  0
 21 23  1  0
 22 21  1  0
 23 24  1  0
 25 23  2  0
M  END
$$$$
