DDN.pdb
     RDKit          3D

 25 24  0  0  1  0  0  0  0  0999 V2000
   24.9896  -15.9969  -17.9021 N   0  0  0  0  0  0  0  0  0  0  0  0
   24.2252  -14.8470  -18.3101 C   0  0  1  0  0  0  0  0  0  0  0  0
   22.7602  -15.3045  -18.3487 C   0  0  0  0  0  0  0  0  0  0  0  0
   22.7185  -16.5296  -19.1610 C   0  0  0  0  0  0  0  0  0  0  0  0
   23.1784  -16.5582  -20.3255 O   0  0  0  0  0  0  0  0  0  0  0  0
   24.3335  -13.7279  -17.3243 C   0  0  0  0  0  0  0  0  0  0  0  0
   24.2535  -13.9834  -16.0953 O   0  0  0  0  0  0  0  0  0  0  0  0
   22.1626  -17.6809  -18.6404 O   0  0  0  0  0  0  0  0  0  0  0  0
   24.5224  -12.3856  -17.7027 N   0  0  0  0  0  0  0  0  0  0  0  0
   24.6900  -11.3297  -16.6813 C   0  0  1  0  0  0  0  0  0  0  0  0
   25.9853  -10.6199  -16.9549 C   0  0  0  0  0  0  0  0  0  0  0  0
   26.2360   -9.4691  -16.0797 C   0  0  0  0  0  0  0  0  0  0  0  0
   26.7122   -9.6943  -14.9324 O   0  0  0  0  0  0  0  0  0  0  0  0
   23.4914  -10.4794  -16.6648 C   0  0  0  0  0  0  0  0  0  0  0  0
   23.0954  -10.0397  -17.8096 O   0  0  0  0  0  0  0  0  0  0  0  0
   25.9505   -8.1948  -16.5247 O   0  0  0  0  0  0  0  0  0  0  0  0
   18.2334   -9.2051  -13.8903 N   0  0  0  0  0  0  0  0  0  0  0  0
   19.2309   -9.0060  -14.8672 C   0  0  0  0  0  0  0  0  0  0  0  0
   19.1017   -8.1397  -15.7785 O   0  0  0  0  0  0  0  0  0  0  0  0
   20.4541   -9.8246  -14.8287 C   0  0  0  0  0  0  0  0  0  0  0  0
   21.6159   -9.2205  -15.5938 C   0  0  2  0  0  0  0  0  0  0  0  0
   22.7497  -10.1149  -15.5148 N   0  0  0  0  0  0  0  0  0  0  0  0
   21.9352   -7.8384  -15.1853 C   0  0  0  0  0  0  0  0  0  0  0  0
   21.2156   -6.7473  -15.6371 O   0  0  0  0  0  0  0  0  0  0  0  0
   22.8876   -7.6114  -14.4018 O   0  0  0  0  0  0  0  0  0  0  0  0
  2  1  1  1
  2  6  1  0
  3  2  1  0
  4  3  1  0
  4  8  1  0
  5  4  2  0
  6  7  2  0
  9  6  1  0
  9 10  1  0
 10 14  1  0
 10 11  1  6
 12 16  1  0
 12 11  1  0
 13 12  2  0
 14 15  2  0
 14 22  1  0
 18 19  2  0
 18 17  1  0
 21 20  1  1
 20 18  1  0
 21 23  1  0
 22 21  1  0
 23 24  1  0
 25 23  2  0
M  END
$$$$
