DDN.pdb
     RDKit          3D

 25 24  0  0  1  0  0  0  0  0999 V2000
   27.0319  -18.3539  -15.9459 N   0  0  0  0  0  0  0  0  0  0  0  0
   26.8167  -19.7334  -16.2980 C   0  0  1  0  0  0  0  0  0  0  0  0
   28.2103  -20.3316  -16.5372 C   0  0  0  0  0  0  0  0  0  0  0  0
   28.7913  -19.6124  -17.6807 C   0  0  0  0  0  0  0  0  0  0  0  0
   28.0814  -18.9259  -18.4508 O   0  0  0  0  0  0  0  0  0  0  0  0
   26.1708  -20.4976  -15.1870 C   0  0  0  0  0  0  0  0  0  0  0  0
   25.9690  -21.7311  -15.3275 O   0  0  0  0  0  0  0  0  0  0  0  0
   30.1484  -19.6872  -17.9221 O   0  0  0  0  0  0  0  0  0  0  0  0
   25.7707  -19.9029  -13.9758 N   0  0  0  0  0  0  0  0  0  0  0  0
   25.0767  -20.6957  -12.9385 C   0  0  1  0  0  0  0  0  0  0  0  0
   25.8193  -20.5197  -11.6447 C   0  0  0  0  0  0  0  0  0  0  0  0
   25.2042  -21.2037  -10.5014 C   0  0  0  0  0  0  0  0  0  0  0  0
   24.1841  -21.9146  -10.7195 O   0  0  0  0  0  0  0  0  0  0  0  0
   23.6567  -20.3178  -12.9118 C   0  0  0  0  0  0  0  0  0  0  0  0
   23.4098  -19.0575  -12.8051 O   0  0  0  0  0  0  0  0  0  0  0  0
   25.7464  -21.0553   -9.2414 O   0  0  0  0  0  0  0  0  0  0  0  0
   19.6035  -18.2313  -15.4106 N   0  0  0  0  0  0  0  0  0  0  0  0
   20.0802  -18.8527  -14.2377 C   0  0  0  0  0  0  0  0  0  0  0  0
   19.7919  -18.4094  -13.0896 O   0  0  0  0  0  0  0  0  0  0  0  0
   20.9342  -20.0468  -14.3482 C   0  0  0  0  0  0  0  0  0  0  0  0
   21.1942  -20.7348  -13.0218 C   0  0  2  0  0  0  0  0  0  0  0  0
   22.5600  -21.2100  -12.9958 N   0  0  0  0  0  0  0  0  0  0  0  0
   20.2069  -21.7835  -12.6987 C   0  0  0  0  0  0  0  0  0  0  0  0
   18.8543  -21.5184  -12.5866 O   0  0  0  0  0  0  0  0  0  0  0  0
   20.5755  -22.9676  -12.5128 O   0  0  0  0  0  0  0  0  0  0  0  0
  2  1  1  1
  2  6  1  0
  3  2  1  0
  4  3  1  0
  4  8  1  0
  5  4  2  0
  6  7  2  0
  9  6  1  0
  9 10  1  0
 10 14  1  0
 10 11  1  1
 12 16  1  0
 12 11  1  0
 13 12  2  0
 14 15  2  0
 14 22  1  0
 18 19  2  0
 18 17  1  0
 21 20  1  6
 20 18  1  0
 21 23  1  0
 22 21  1  0
 23 24  1  0
 25 23  2  0
M  END
$$$$
