DDN.pdb
     RDKit          3D

 25 24  0  0  1  0  0  0  0  0999 V2000
   17.9869  -11.4020  -15.1734 N   0  0  0  0  0  0  0  0  0  0  0  0
   17.3203  -10.2402  -15.7015 C   0  0  1  0  0  0  0  0  0  0  0  0
   15.8236  -10.5820  -15.7184 C   0  0  0  0  0  0  0  0  0  0  0  0
   15.6535  -11.7008  -16.6575 C   0  0  0  0  0  0  0  0  0  0  0  0
   16.3840  -11.8242  -17.6671 O   0  0  0  0  0  0  0  0  0  0  0  0
   17.5104   -9.0429  -14.8263 C   0  0  0  0  0  0  0  0  0  0  0  0
   17.0406   -7.9350  -15.1922 O   0  0  0  0  0  0  0  0  0  0  0  0
   14.6701  -12.6432  -16.4329 O   0  0  0  0  0  0  0  0  0  0  0  0
   18.1963   -9.0893  -13.5982 N   0  0  0  0  0  0  0  0  0  0  0  0
   18.4116   -7.8591  -12.8068 C   0  0  1  0  0  0  0  0  0  0  0  0
   18.3181   -8.2204  -11.3517 C   0  0  0  0  0  0  0  0  0  0  0  0
   16.9646   -8.5700  -10.9054 C   0  0  0  0  0  0  0  0  0  0  0  0
   15.9936   -7.9671  -11.4415 O   0  0  0  0  0  0  0  0  0  0  0  0
   19.6725   -7.2305  -13.2249 C   0  0  0  0  0  0  0  0  0  0  0  0
   20.6488   -8.0342  -13.4732 O   0  0  0  0  0  0  0  0  0  0  0  0
   16.7913   -9.5306   -9.9304 O   0  0  0  0  0  0  0  0  0  0  0  0
   22.3454   -5.0625  -17.4038 N   0  0  0  0  0  0  0  0  0  0  0  0
   22.4854   -5.4321  -16.0500 C   0  0  0  0  0  0  0  0  0  0  0  0
   23.5891   -5.3208  -15.4440 O   0  0  0  0  0  0  0  0  0  0  0  0
   21.3208   -5.9607  -15.3207 C   0  0  0  0  0  0  0  0  0  0  0  0
   21.1144   -5.3249  -13.9594 C   0  0  2  0  0  0  0  0  0  0  0  0
   19.8947   -5.8402  -13.3773 N   0  0  0  0  0  0  0  0  0  0  0  0
   21.1699   -3.8501  -13.9835 C   0  0  0  0  0  0  0  0  0  0  0  0
   22.3143   -3.1463  -13.6554 O   0  0  0  0  0  0  0  0  0  0  0  0
   20.1600   -3.1814  -14.3083 O   0  0  0  0  0  0  0  0  0  0  0  0
  2  1  1  1
  2  6  1  0
  3  2  1  0
  4  3  1  0
  4  8  1  0
  5  4  2  0
  6  7  2  0
  9  6  1  0
  9 10  1  0
 10 14  1  0
 10 11  1  1
 12 16  1  0
 12 11  1  0
 13 12  2  0
 14 15  2  0
 14 22  1  0
 18 19  2  0
 18 17  1  0
 21 20  1  6
 20 18  1  0
 21 23  1  0
 22 21  1  0
 23 24  1  0
 25 23  2  0
M  END
$$$$
