DDN.pdb
     RDKit          3D

 25 24  0  0  1  0  0  0  0  0999 V2000
   15.7791  -14.2330  -14.6688 N   0  0  0  0  0  0  0  0  0  0  0  0
   15.1287  -12.9494  -14.6201 C   0  0  1  0  0  0  0  0  0  0  0  0
   13.9149  -13.1246  -13.6965 C   0  0  0  0  0  0  0  0  0  0  0  0
   12.9835  -14.0303  -14.3854 C   0  0  0  0  0  0  0  0  0  0  0  0
   12.7060  -13.8847  -15.5979 O   0  0  0  0  0  0  0  0  0  0  0  0
   16.0124  -11.8993  -14.0267 C   0  0  0  0  0  0  0  0  0  0  0  0
   16.7018  -12.1794  -13.0126 O   0  0  0  0  0  0  0  0  0  0  0  0
   12.3948  -15.0686  -13.6917 O   0  0  0  0  0  0  0  0  0  0  0  0
   16.1159  -10.5965  -14.5488 N   0  0  0  0  0  0  0  0  0  0  0  0
   17.0571   -9.6199  -13.9603 C   0  0  1  0  0  0  0  0  0  0  0  0
   17.6768   -8.8371  -15.0828 C   0  0  0  0  0  0  0  0  0  0  0  0
   18.5521   -7.7451  -14.6417 C   0  0  0  0  0  0  0  0  0  0  0  0
   19.4308   -8.0083  -13.7744 O   0  0  0  0  0  0  0  0  0  0  0  0
   16.3543   -8.8242  -12.9440 C   0  0  0  0  0  0  0  0  0  0  0  0
   15.2044   -8.3562  -13.2893 O   0  0  0  0  0  0  0  0  0  0  0  0
   18.3954   -6.4829  -15.1762 O   0  0  0  0  0  0  0  0  0  0  0  0
   14.6712   -7.1020   -7.8548 N   0  0  0  0  0  0  0  0  0  0  0  0
   15.9685   -6.9186   -8.3767 C   0  0  0  0  0  0  0  0  0  0  0  0
   16.6841   -5.9325   -8.0404 O   0  0  0  0  0  0  0  0  0  0  0  0
   16.5066   -7.8968   -9.3365 C   0  0  0  0  0  0  0  0  0  0  0  0
   16.1626   -7.5862  -10.7805 C   0  0  2  0  0  0  0  0  0  0  0  0
   16.8289   -8.5394  -11.6404 N   0  0  0  0  0  0  0  0  0  0  0  0
   16.4194   -6.1827  -11.1585 C   0  0  0  0  0  0  0  0  0  0  0  0
   15.4930   -5.1775  -10.9489 O   0  0  0  0  0  0  0  0  0  0  0  0
   17.5069   -5.8569  -11.6913 O   0  0  0  0  0  0  0  0  0  0  0  0
  2  1  1  1
  2  6  1  0
  3  2  1  0
  4  3  1  0
  4  8  1  0
  5  4  2  0
  6  7  2  0
  9  6  1  0
  9 10  1  0
 10 14  1  0
 10 11  1  6
 12 16  1  0
 12 11  1  0
 13 12  2  0
 14 15  2  0
 14 22  1  0
 18 19  2  0
 18 17  1  0
 21 20  1  1
 20 18  1  0
 21 23  1  0
 22 21  1  0
 23 24  1  0
 25 23  2  0
M  END
$$$$
