DDN.pdb
     RDKit          3D

 25 24  0  0  1  0  0  0  0  0999 V2000
   27.5027  -33.3254   -4.2122 N   0  0  0  0  0  0  0  0  0  0  0  0
   26.3253  -33.6207   -3.4378 C   0  0  1  0  0  0  0  0  0  0  0  0
   25.5712  -34.7105   -4.2129 C   0  0  0  0  0  0  0  0  0  0  0  0
   25.0124  -34.0698   -5.4127 C   0  0  0  0  0  0  0  0  0  0  0  0
   25.3060  -32.8924   -5.7223 O   0  0  0  0  0  0  0  0  0  0  0  0
   26.6683  -34.1669   -2.0889 C   0  0  0  0  0  0  0  0  0  0  0  0
   25.7553  -34.6556   -1.3749 O   0  0  0  0  0  0  0  0  0  0  0  0
   24.1436  -34.7707   -6.2247 O   0  0  0  0  0  0  0  0  0  0  0  0
   27.9756  -34.1636   -1.5676 N   0  0  0  0  0  0  0  0  0  0  0  0
   28.2310  -34.5641   -0.1675 C   0  0  1  0  0  0  0  0  0  0  0  0
   29.7170  -34.6824    0.0183 C   0  0  0  0  0  0  0  0  0  0  0  0
   30.1252  -35.0405    1.3815 C   0  0  0  0  0  0  0  0  0  0  0  0
   30.0485  -36.2544    1.7196 O   0  0  0  0  0  0  0  0  0  0  0  0
   27.5514  -33.6241    0.7351 C   0  0  0  0  0  0  0  0  0  0  0  0
   27.6396  -32.3772    0.4221 O   0  0  0  0  0  0  0  0  0  0  0  0
   30.5739  -34.0602    2.2423 O   0  0  0  0  0  0  0  0  0  0  0  0
   24.8498  -30.2539    3.1040 N   0  0  0  0  0  0  0  0  0  0  0  0
   24.8589  -30.9879    1.8998 C   0  0  0  0  0  0  0  0  0  0  0  0
   24.7978  -30.4151    0.7747 O   0  0  0  0  0  0  0  0  0  0  0  0
   24.9417  -32.4570    1.9493 C   0  0  0  0  0  0  0  0  0  0  0  0
   26.1524  -32.9740    2.7023 C   0  0  2  0  0  0  0  0  0  0  0  0
   26.8191  -33.9727    1.8961 N   0  0  0  0  0  0  0  0  0  0  0  0
   25.8417  -33.4408    4.0677 C   0  0  0  0  0  0  0  0  0  0  0  0
   26.0112  -34.7569    4.4573 O   0  0  0  0  0  0  0  0  0  0  0  0
   25.4062  -32.6403    4.9292 O   0  0  0  0  0  0  0  0  0  0  0  0
  2  1  1  6
  2  6  1  0
  3  2  1  0
  4  3  1  0
  4  8  1  0
  5  4  2  0
  6  7  2  0
  9  6  1  0
  9 10  1  0
 10 14  1  0
 10 11  1  1
 12 16  1  0
 12 11  1  0
 13 12  2  0
 14 15  2  0
 14 22  1  0
 18 19  2  0
 18 17  1  0
 21 20  1  6
 20 18  1  0
 21 23  1  0
 22 21  1  0
 23 24  1  0
 25 23  2  0
M  END
$$$$
