QWQ.pdb
     RDKit          3D

 33 34  0  0  1  0  0  0  0  0999 V2000
   13.8173  -16.1681   19.6315 N   0  0  0  0  0  0  0  0  0  0  0  0
   12.9891  -16.9243   18.7320 C   0  0  0  0  0  0  0  0  0  0  0  0
   13.4608  -17.2860   17.6287 O   0  0  0  0  0  0  0  0  0  0  0  0
   11.6169  -17.2458   19.1492 C   0  0  0  0  0  0  0  0  0  0  0  0
   11.2221  -16.8586   20.5260 C   0  0  0  0  0  0  0  0  0  0  0  0
   10.5222  -17.8856   21.3446 C   0  0  2  0  0  0  0  0  0  0  0  0
    9.2581  -18.3091   20.8416 N   0  0  0  0  0  0  0  0  0  0  0  0
   10.3344  -17.3933   22.7454 C   0  0  0  0  0  0  0  0  0  0  0  0
   11.3063  -16.9662   23.4264 O   0  0  0  0  0  0  0  0  0  0  0  0
    9.0678  -17.3907   23.3444 N   0  0  0  0  0  0  0  0  0  0  0  0
    8.8327  -16.9322   24.7290 C   0  0  1  0  0  0  0  0  0  0  0  0
    7.4495  -16.4338   24.8876 C   0  0  0  0  0  0  0  0  0  0  0  0
    7.2799  -15.0568   24.4055 C   0  0  0  0  0  0  0  0  0  0  0  0
    7.1853  -14.6205   23.0756 C   0  0  0  0  0  0  0  0  0  0  0  0
    7.0784  -13.3057   22.9984 N   0  0  0  0  0  0  0  0  0  0  0  0
    7.0957  -12.8129   24.2512 C   0  0  0  0  0  0  0  0  0  0  0  0
    6.9990  -11.5416   24.7567 C   0  0  0  0  0  0  0  0  0  0  0  0
    7.0195  -11.2924   26.1198 C   0  0  0  0  0  0  0  0  0  0  0  0
    7.1396  -12.3351   27.0154 C   0  0  0  0  0  0  0  0  0  0  0  0
    7.2359  -13.5986   26.4897 C   0  0  0  0  0  0  0  0  0  0  0  0
    7.2193  -13.8799   25.1297 C   0  0  0  0  0  0  0  0  0  0  0  0
    9.2541  -17.9343   25.7067 C   0  0  0  0  0  0  0  0  0  0  0  0
    8.7499  -19.0991   25.7688 O   0  0  0  0  0  0  0  0  0  0  0  0
   14.1941  -19.6176   24.6201 N   0  0  0  0  0  0  0  0  0  0  0  0
   14.0675  -19.4823   26.0577 C   0  0  0  0  0  0  0  0  0  0  0  0
   14.9553  -20.0051   26.7471 O   0  0  0  0  0  0  0  0  0  0  0  0
   12.9412  -18.7675   26.6187 C   0  0  0  0  0  0  0  0  0  0  0  0
   11.7480  -19.5217   27.0609 C   0  0  0  0  0  0  0  0  0  0  0  0
   10.6365  -18.7408   27.6818 C   0  0  2  0  0  0  0  0  0  0  0  0
   10.2722  -17.6980   26.6835 N   0  0  0  0  0  0  0  0  0  0  0  0
   10.9569  -18.0043   28.9005 C   0  0  0  0  0  0  0  0  0  0  0  0
   10.8969  -16.6330   28.9791 O   0  0  0  0  0  0  0  0  0  0  0  0
   11.3084  -18.6462   29.9416 O   0  0  0  0  0  0  0  0  0  0  0  0
  1  2  1  0
  2  4  1  0
  2  3  2  0
  4  5  1  0
  5  6  1  0
  6  7  1  6
  6  8  1  0
  8 10  1  0
  8  9  2  0
 10 11  1  0
 11 22  1  0
 11 12  1  6
 12 13  1  0
 13 14  2  0
 13 21  1  0
 14 15  1  0
 15 16  1  0
 16 17  2  0
 17 18  1  0
 19 18  2  0
 20 19  1  0
 21 20  2  0
 21 16  1  0
 22 23  2  0
 24 25  1  0
 25 27  1  0
 26 25  2  0
 27 28  1  0
 29 31  1  0
 29 28  1  6
 30 22  1  0
 30 29  1  0
 31 32  1  0
 33 31  2  0
M  END
$$$$
