QWQ.pdb
     RDKit          3D

 33 34  0  0  1  0  0  0  0  0999 V2000
    7.4594  -13.9396   15.2131 N   0  0  0  0  0  0  0  0  0  0  0  0
    8.5962  -13.9455   16.0931 C   0  0  0  0  0  0  0  0  0  0  0  0
    9.3555  -12.9486   16.1137 O   0  0  0  0  0  0  0  0  0  0  0  0
    8.8189  -15.1268   16.9388 C   0  0  0  0  0  0  0  0  0  0  0  0
    9.5577  -14.9180   18.2085 C   0  0  0  0  0  0  0  0  0  0  0  0
    9.6904  -16.0899   19.1161 C   0  0  2  0  0  0  0  0  0  0  0  0
    8.7321  -17.1258   18.9189 N   0  0  0  0  0  0  0  0  0  0  0  0
    9.6257  -15.6498   20.5450 C   0  0  0  0  0  0  0  0  0  0  0  0
   10.5052  -14.8924   21.0386 O   0  0  0  0  0  0  0  0  0  0  0  0
    8.5809  -16.0664   21.3805 N   0  0  0  0  0  0  0  0  0  0  0  0
    8.4853  -15.6811   22.8036 C   0  0  1  0  0  0  0  0  0  0  0  0
    7.0784  -15.4328   23.1853 C   0  0  0  0  0  0  0  0  0  0  0  0
    6.9296  -15.0372   24.5919 C   0  0  0  0  0  0  0  0  0  0  0  0
    6.6610  -15.8665   25.6910 C   0  0  0  0  0  0  0  0  0  0  0  0
    6.5508  -15.1740   26.8111 N   0  0  0  0  0  0  0  0  0  0  0  0
    6.7382  -13.8739   26.5162 C   0  0  0  0  0  0  0  0  0  0  0  0
    6.7539  -12.7351   27.2806 C   0  0  0  0  0  0  0  0  0  0  0  0
    6.9991  -11.4873   26.7299 C   0  0  0  0  0  0  0  0  0  0  0  0
    7.2374  -11.3592   25.3769 C   0  0  0  0  0  0  0  0  0  0  0  0
    7.2166  -12.5097   24.6299 C   0  0  0  0  0  0  0  0  0  0  0  0
    6.9730  -13.7733   25.1523 C   0  0  0  0  0  0  0  0  0  0  0  0
    9.2133  -16.6130   23.6636 C   0  0  0  0  0  0  0  0  0  0  0  0
    9.0801  -17.8746   23.5900 O   0  0  0  0  0  0  0  0  0  0  0  0
   14.6941  -16.6881   22.0149 N   0  0  0  0  0  0  0  0  0  0  0  0
   14.1974  -16.4877   23.3619 C   0  0  0  0  0  0  0  0  0  0  0  0
   14.9386  -15.8745   24.1438 O   0  0  0  0  0  0  0  0  0  0  0  0
   12.8959  -16.9991   23.7345 C   0  0  0  0  0  0  0  0  0  0  0  0
   12.3989  -16.7895   25.1119 C   0  0  0  0  0  0  0  0  0  0  0  0
   10.9854  -17.1796   25.3958 C   0  0  2  0  0  0  0  0  0  0  0  0
   10.1425  -16.1925   24.6666 N   0  0  0  0  0  0  0  0  0  0  0  0
   10.5514  -17.0956   26.7868 C   0  0  0  0  0  0  0  0  0  0  0  0
   10.9745  -17.9775   27.7531 O   0  0  0  0  0  0  0  0  0  0  0  0
    9.7474  -16.1722   27.1335 O   0  0  0  0  0  0  0  0  0  0  0  0
  1  2  1  0
  2  4  1  0
  2  3  2  0
  4  5  1  0
  5  6  1  0
  6  7  1  6
  6  8  1  0
  8 10  1  0
  8  9  2  0
 10 11  1  0
 11 22  1  0
 11 12  1  1
 12 13  1  0
 13 14  2  0
 13 21  1  0
 14 15  1  0
 15 16  1  0
 16 17  2  0
 17 18  1  0
 19 18  2  0
 20 19  1  0
 21 20  2  0
 21 16  1  0
 22 23  2  0
 24 25  1  0
 25 27  1  0
 26 25  2  0
 27 28  1  0
 29 31  1  0
 29 28  1  1
 30 22  1  0
 30 29  1  0
 31 32  1  0
 33 31  2  0
M  END
$$$$
