QWQ.pdb
     RDKit          3D

 33 34  0  0  1  0  0  0  0  0999 V2000
    7.1336  -12.7458   18.6315 N   0  0  0  0  0  0  0  0  0  0  0  0
    8.4325  -13.3085   18.3805 C   0  0  0  0  0  0  0  0  0  0  0  0
    9.1750  -12.7693   17.5269 O   0  0  0  0  0  0  0  0  0  0  0  0
    8.8380  -14.4977   19.1431 C   0  0  0  0  0  0  0  0  0  0  0  0
    7.7952  -15.1601   19.9650 C   0  0  0  0  0  0  0  0  0  0  0  0
    8.2038  -16.3661   20.7352 C   0  0  2  0  0  0  0  0  0  0  0  0
    7.1379  -17.0966   21.3356 N   0  0  0  0  0  0  0  0  0  0  0  0
    9.1833  -15.9926   21.8033 C   0  0  0  0  0  0  0  0  0  0  0  0
   10.2922  -15.4624   21.5201 O   0  0  0  0  0  0  0  0  0  0  0  0
    8.8962  -16.2201   23.1556 N   0  0  0  0  0  0  0  0  0  0  0  0
    9.8042  -15.8196   24.2502 C   0  0  1  0  0  0  0  0  0  0  0  0
    9.1278  -15.9352   25.5601 C   0  0  0  0  0  0  0  0  0  0  0  0
    7.8571  -15.2007   25.6134 C   0  0  0  0  0  0  0  0  0  0  0  0
    6.5728  -15.6894   25.3311 C   0  0  0  0  0  0  0  0  0  0  0  0
    5.6550  -14.7449   25.4395 N   0  0  0  0  0  0  0  0  0  0  0  0
    6.2737  -13.6028   25.7935 C   0  0  0  0  0  0  0  0  0  0  0  0
    5.8180  -12.3366   26.0587 C   0  0  0  0  0  0  0  0  0  0  0  0
    6.6744  -11.3146   26.4363 C   0  0  0  0  0  0  0  0  0  0  0  0
    8.0285  -11.5510   26.5564 C   0  0  0  0  0  0  0  0  0  0  0  0
    8.4642  -12.8235   26.2860 C   0  0  0  0  0  0  0  0  0  0  0  0
    7.6313  -13.8675   25.9049 C   0  0  0  0  0  0  0  0  0  0  0  0
   11.0976  -16.4942   24.1506 C   0  0  0  0  0  0  0  0  0  0  0  0
   12.1715  -15.8937   23.8328 O   0  0  0  0  0  0  0  0  0  0  0  0
   11.9582  -18.5578   29.5562 N   0  0  0  0  0  0  0  0  0  0  0  0
   10.8169  -19.1263   28.8667 C   0  0  0  0  0  0  0  0  0  0  0  0
   10.0547  -19.8347   29.5407 O   0  0  0  0  0  0  0  0  0  0  0  0
   10.6174  -18.8582   27.4588 C   0  0  0  0  0  0  0  0  0  0  0  0
   11.5117  -17.9051   26.7658 C   0  0  0  0  0  0  0  0  0  0  0  0
   12.1576  -18.3687   25.5015 C   0  0  2  0  0  0  0  0  0  0  0  0
   11.2752  -17.8913   24.4014 N   0  0  0  0  0  0  0  0  0  0  0  0
   12.2566  -19.8122   25.3097 C   0  0  0  0  0  0  0  0  0  0  0  0
   13.3053  -20.5573   25.7947 O   0  0  0  0  0  0  0  0  0  0  0  0
   11.3404  -20.4193   24.6682 O   0  0  0  0  0  0  0  0  0  0  0  0
  1  2  1  0
  2  4  1  0
  2  3  2  0
  4  5  1  0
  5  6  1  0
  6  7  1  1
  6  8  1  0
  8 10  1  0
  8  9  2  0
 10 11  1  0
 11 22  1  0
 11 12  1  1
 12 13  1  0
 13 14  2  0
 13 21  1  0
 14 15  1  0
 15 16  1  0
 16 17  2  0
 17 18  1  0
 19 18  2  0
 20 19  1  0
 21 20  2  0
 21 16  1  0
 22 23  2  0
 24 25  1  0
 25 27  1  0
 26 25  2  0
 27 28  1  0
 29 31  1  0
 29 28  1  1
 30 22  1  0
 30 29  1  0
 31 32  1  0
 33 31  2  0
M  END
$$$$
