QWQ.pdb
     RDKit          3D

 33 34  0  0  1  0  0  0  0  0999 V2000
   11.8815  -21.3912   19.3221 N   0  0  0  0  0  0  0  0  0  0  0  0
   12.3051  -20.1399   19.8892 C   0  0  0  0  0  0  0  0  0  0  0  0
   13.4856  -20.0232   20.2934 O   0  0  0  0  0  0  0  0  0  0  0  0
   11.3301  -19.0428   19.9680 C   0  0  0  0  0  0  0  0  0  0  0  0
   10.6076  -18.8733   21.2529 C   0  0  0  0  0  0  0  0  0  0  0  0
    9.6501  -17.7379   21.3474 C   0  0  2  0  0  0  0  0  0  0  0  0
    9.8722  -16.6742   20.4257 N   0  0  0  0  0  0  0  0  0  0  0  0
    9.6505  -17.1726   22.7331 C   0  0  0  0  0  0  0  0  0  0  0  0
   10.6163  -16.4826   23.1598 O   0  0  0  0  0  0  0  0  0  0  0  0
    8.5729  -17.3925   23.6011 N   0  0  0  0  0  0  0  0  0  0  0  0
    8.5124  -16.8337   24.9675 C   0  0  1  0  0  0  0  0  0  0  0  0
    7.2062  -16.1845   25.2102 C   0  0  0  0  0  0  0  0  0  0  0  0
    7.1567  -14.8005   24.7210 C   0  0  0  0  0  0  0  0  0  0  0  0
    7.3288  -14.3512   23.4032 C   0  0  0  0  0  0  0  0  0  0  0  0
    7.2614  -13.0339   23.3227 N   0  0  0  0  0  0  0  0  0  0  0  0
    7.0444  -12.5522   24.5610 C   0  0  0  0  0  0  0  0  0  0  0  0
    6.8735  -11.2836   25.0535 C   0  0  0  0  0  0  0  0  0  0  0  0
    6.6341  -11.0464   26.3977 C   0  0  0  0  0  0  0  0  0  0  0  0
    6.5606  -12.0988   27.2870 C   0  0  0  0  0  0  0  0  0  0  0  0
    6.7352  -13.3595   26.7747 C   0  0  0  0  0  0  0  0  0  0  0  0
    6.9773  -13.6288   25.4339 C   0  0  0  0  0  0  0  0  0  0  0  0
    8.9196  -17.8174   25.9697 C   0  0  0  0  0  0  0  0  0  0  0  0
    8.2846  -18.8977   26.1806 O   0  0  0  0  0  0  0  0  0  0  0  0
   13.7885  -20.9380   25.9122 N   0  0  0  0  0  0  0  0  0  0  0  0
   13.9232  -19.5216   26.1897 C   0  0  0  0  0  0  0  0  0  0  0  0
   14.9941  -18.9891   25.8634 O   0  0  0  0  0  0  0  0  0  0  0  0
   12.8376  -18.8039   26.8224 C   0  0  0  0  0  0  0  0  0  0  0  0
   11.5522  -19.4948   27.0649 C   0  0  0  0  0  0  0  0  0  0  0  0
   10.4806  -18.7215   27.7608 C   0  0  2  0  0  0  0  0  0  0  0  0
   10.0695  -17.6563   26.8053 N   0  0  0  0  0  0  0  0  0  0  0  0
   10.8707  -18.0123   28.9753 C   0  0  0  0  0  0  0  0  0  0  0  0
   10.8773  -16.6405   29.0668 O   0  0  0  0  0  0  0  0  0  0  0  0
   11.2221  -18.6797   30.0004 O   0  0  0  0  0  0  0  0  0  0  0  0
  1  2  1  0
  2  4  1  0
  2  3  2  0
  4  5  1  0
  5  6  1  0
  6  7  1  6
  6  8  1  0
  8 10  1  0
  8  9  2  0
 10 11  1  0
 11 22  1  0
 11 12  1  1
 12 13  1  0
 13 14  2  0
 13 21  1  0
 14 15  1  0
 15 16  1  0
 16 17  2  0
 17 18  1  0
 19 18  2  0
 20 19  1  0
 21 20  2  0
 21 16  1  0
 22 23  2  0
 24 25  1  0
 25 27  1  0
 26 25  2  0
 27 28  1  0
 29 31  1  0
 29 28  1  6
 30 22  1  0
 30 29  1  0
 31 32  1  0
 33 31  2  0
M  END
$$$$
