QWQ.pdb
     RDKit          3D

 33 34  0  0  1  0  0  0  0  0999 V2000
    9.3279  -13.1823   18.1001 N   0  0  0  0  0  0  0  0  0  0  0  0
    7.9765  -13.6728   18.0973 C   0  0  0  0  0  0  0  0  0  0  0  0
    7.3720  -13.7856   17.0053 O   0  0  0  0  0  0  0  0  0  0  0  0
    7.3590  -14.0264   19.3833 C   0  0  0  0  0  0  0  0  0  0  0  0
    8.2323  -13.9947   20.5825 C   0  0  0  0  0  0  0  0  0  0  0  0
    8.7163  -15.3021   21.1032 C   0  0  2  0  0  0  0  0  0  0  0  0
    7.7420  -16.3411   21.1437 N   0  0  0  0  0  0  0  0  0  0  0  0
    9.2881  -15.1344   22.4760 C   0  0  0  0  0  0  0  0  0  0  0  0
   10.1041  -14.2092   22.7382 O   0  0  0  0  0  0  0  0  0  0  0  0
    8.9314  -16.0030   23.5160 N   0  0  0  0  0  0  0  0  0  0  0  0
    9.5787  -15.9780   24.8439 C   0  0  1  0  0  0  0  0  0  0  0  0
    8.5812  -16.1823   25.9163 C   0  0  0  0  0  0  0  0  0  0  0  0
    7.4560  -15.2418   25.8363 C   0  0  0  0  0  0  0  0  0  0  0  0
    6.1562  -15.4986   25.3752 C   0  0  0  0  0  0  0  0  0  0  0  0
    5.4038  -14.4126   25.4024 N   0  0  0  0  0  0  0  0  0  0  0  0
    6.1535  -13.3992   25.8752 C   0  0  0  0  0  0  0  0  0  0  0  0
    5.8860  -12.0781   26.1286 C   0  0  0  0  0  0  0  0  0  0  0  0
    6.8447  -11.2241   26.6501 C   0  0  0  0  0  0  0  0  0  0  0  0
    8.1123  -11.6909   26.9316 C   0  0  0  0  0  0  0  0  0  0  0  0
    8.3599  -13.0148   26.6703 C   0  0  0  0  0  0  0  0  0  0  0  0
    7.4209  -13.8944   26.1473 C   0  0  0  0  0  0  0  0  0  0  0  0
   10.7418  -16.8626   24.8925 C   0  0  0  0  0  0  0  0  0  0  0  0
   11.2941  -17.2248   25.9781 O   0  0  0  0  0  0  0  0  0  0  0  0
   12.9396  -20.2563   19.8818 N   0  0  0  0  0  0  0  0  0  0  0  0
   13.8572  -20.5800   20.9562 C   0  0  0  0  0  0  0  0  0  0  0  0
   14.7825  -21.3587   20.6834 O   0  0  0  0  0  0  0  0  0  0  0  0
   13.6629  -20.0035   22.2693 C   0  0  0  0  0  0  0  0  0  0  0  0
   12.5589  -19.0432   22.4862 C   0  0  0  0  0  0  0  0  0  0  0  0
   12.4644  -18.4021   23.8319 C   0  0  2  0  0  0  0  0  0  0  0  0
   11.3660  -17.4029   23.7242 N   0  0  0  0  0  0  0  0  0  0  0  0
   13.6279  -17.6412   24.2761 C   0  0  0  0  0  0  0  0  0  0  0  0
   14.5995  -18.1741   25.0899 O   0  0  0  0  0  0  0  0  0  0  0  0
   13.7611  -16.4322   23.9019 O   0  0  0  0  0  0  0  0  0  0  0  0
  1  2  1  0
  2  4  1  0
  2  3  2  0
  4  5  1  0
  5  6  1  0
  6  7  1  1
  6  8  1  0
  8 10  1  0
  8  9  2  0
 10 11  1  0
 11 22  1  0
 11 12  1  1
 12 13  1  0
 13 14  2  0
 13 21  1  0
 14 15  1  0
 15 16  1  0
 16 17  2  0
 17 18  1  0
 19 18  2  0
 20 19  1  0
 21 20  2  0
 21 16  1  0
 22 23  2  0
 24 25  1  0
 25 27  1  0
 26 25  2  0
 27 28  1  0
 29 31  1  0
 29 28  1  6
 30 22  1  0
 30 29  1  0
 31 32  1  0
 33 31  2  0
M  END
$$$$
