QWQ.pdb
     RDKit          3D

 33 34  0  0  1  0  0  0  0  0999 V2000
    9.0084  -12.6343   16.0077 N   0  0  0  0  0  0  0  0  0  0  0  0
    8.0450  -13.6758   15.7754 C   0  0  0  0  0  0  0  0  0  0  0  0
    7.5458  -13.7996   14.6325 O   0  0  0  0  0  0  0  0  0  0  0  0
    7.6871  -14.5587   16.8946 C   0  0  0  0  0  0  0  0  0  0  0  0
    8.4238  -14.3663   18.1681 C   0  0  0  0  0  0  0  0  0  0  0  0
    8.9553  -15.5861   18.8346 C   0  0  2  0  0  0  0  0  0  0  0  0
    8.1844  -16.7695   18.6459 N   0  0  0  0  0  0  0  0  0  0  0  0
    9.1087  -15.3494   20.3044 C   0  0  0  0  0  0  0  0  0  0  0  0
   10.1299  -14.7770   20.7736 O   0  0  0  0  0  0  0  0  0  0  0  0
    8.1175  -15.7569   21.2069 N   0  0  0  0  0  0  0  0  0  0  0  0
    8.1807  -15.4719   22.6552 C   0  0  1  0  0  0  0  0  0  0  0  0
    6.8214  -15.3623   23.2269 C   0  0  0  0  0  0  0  0  0  0  0  0
    6.8267  -14.9608   24.6397 C   0  0  0  0  0  0  0  0  0  0  0  0
    6.8359  -15.7954   25.7673 C   0  0  0  0  0  0  0  0  0  0  0  0
    6.7971  -15.1007   26.8906 N   0  0  0  0  0  0  0  0  0  0  0  0
    6.7616  -13.7936   26.5701 C   0  0  0  0  0  0  0  0  0  0  0  0
    6.7339  -12.6473   27.3226 C   0  0  0  0  0  0  0  0  0  0  0  0
    6.7248  -11.3896   26.7406 C   0  0  0  0  0  0  0  0  0  0  0  0
    6.7440  -11.2591   25.3671 C   0  0  0  0  0  0  0  0  0  0  0  0
    6.7708  -12.4174   24.6325 C   0  0  0  0  0  0  0  0  0  0  0  0
    6.7795  -13.6911   25.1863 C   0  0  0  0  0  0  0  0  0  0  0  0
    9.0793  -16.3950   23.3468 C   0  0  0  0  0  0  0  0  0  0  0  0
    9.1070  -17.6437   23.1125 O   0  0  0  0  0  0  0  0  0  0  0  0
   15.0123  -17.9221   22.2562 N   0  0  0  0  0  0  0  0  0  0  0  0
   14.3020  -16.7819   22.8008 C   0  0  0  0  0  0  0  0  0  0  0  0
   14.9675  -15.7560   23.0044 O   0  0  0  0  0  0  0  0  0  0  0  0
   12.8862  -16.8814   23.0827 C   0  0  0  0  0  0  0  0  0  0  0  0
   12.3584  -16.3448   24.3562 C   0  0  0  0  0  0  0  0  0  0  0  0
   11.0647  -16.9043   24.8504 C   0  0  2  0  0  0  0  0  0  0  0  0
   10.0104  -15.9797   24.3502 N   0  0  0  0  0  0  0  0  0  0  0  0
   10.8804  -16.9432   26.2977 C   0  0  0  0  0  0  0  0  0  0  0  0
   10.4061  -15.8716   27.0168 O   0  0  0  0  0  0  0  0  0  0  0  0
   11.1670  -18.0077   26.9335 O   0  0  0  0  0  0  0  0  0  0  0  0
  1  2  1  0
  2  4  1  0
  2  3  2  0
  4  5  1  0
  5  6  1  0
  6  7  1  1
  6  8  1  0
  8 10  1  0
  8  9  2  0
 10 11  1  0
 11 22  1  0
 11 12  1  1
 12 13  1  0
 13 14  2  0
 13 21  1  0
 14 15  1  0
 15 16  1  0
 16 17  2  0
 17 18  1  0
 19 18  2  0
 20 19  1  0
 21 20  2  0
 21 16  1  0
 22 23  2  0
 24 25  1  0
 25 27  1  0
 26 25  2  0
 27 28  1  0
 29 31  1  0
 29 28  1  1
 30 22  1  0
 30 29  1  0
 31 32  1  0
 33 31  2  0
M  END
$$$$
