QWQ.pdb
     RDKit          3D

 33 34  0  0  1  0  0  0  0  0999 V2000
   10.1472  -15.5473   15.9821 N   0  0  0  0  0  0  0  0  0  0  0  0
    8.8124  -15.1191   15.6632 C   0  0  0  0  0  0  0  0  0  0  0  0
    8.3480  -15.3692   14.5263 O   0  0  0  0  0  0  0  0  0  0  0  0
    8.0433  -14.4048   16.6920 C   0  0  0  0  0  0  0  0  0  0  0  0
    8.6657  -14.2777   18.0329 C   0  0  0  0  0  0  0  0  0  0  0  0
    8.8806  -15.5334   18.8022 C   0  0  2  0  0  0  0  0  0  0  0  0
    7.8699  -16.5255   18.6454 N   0  0  0  0  0  0  0  0  0  0  0  0
    9.0255  -15.2304   20.2606 C   0  0  0  0  0  0  0  0  0  0  0  0
    9.9527  -14.4896   20.6877 O   0  0  0  0  0  0  0  0  0  0  0  0
    8.1309  -15.7614   21.1991 N   0  0  0  0  0  0  0  0  0  0  0  0
    8.2339  -15.4973   22.6491 C   0  0  1  0  0  0  0  0  0  0  0  0
    6.9151  -15.1324   23.2096 C   0  0  0  0  0  0  0  0  0  0  0  0
    6.9648  -14.8522   24.6506 C   0  0  0  0  0  0  0  0  0  0  0  0
    6.8391  -15.7679   25.7059 C   0  0  0  0  0  0  0  0  0  0  0  0
    6.8914  -15.1686   26.8825 N   0  0  0  0  0  0  0  0  0  0  0  0
    7.0524  -13.8490   26.6701 C   0  0  0  0  0  0  0  0  0  0  0  0
    7.1861  -12.7761   27.5141 C   0  0  0  0  0  0  0  0  0  0  0  0
    7.3686  -11.4879   27.0371 C   0  0  0  0  0  0  0  0  0  0  0  0
    7.4212  -11.2504   25.6789 C   0  0  0  0  0  0  0  0  0  0  0  0
    7.2846  -12.3364   24.8518 C   0  0  0  0  0  0  0  0  0  0  0  0
    7.0996  -13.6381   25.2994 C   0  0  0  0  0  0  0  0  0  0  0  0
    8.9339  -16.5765   23.3442 C   0  0  0  0  0  0  0  0  0  0  0  0
    8.5997  -17.7985   23.2447 O   0  0  0  0  0  0  0  0  0  0  0  0
   14.1346  -17.0264   21.7907 N   0  0  0  0  0  0  0  0  0  0  0  0
   14.1467  -16.3615   23.0786 C   0  0  0  0  0  0  0  0  0  0  0  0
   15.2055  -15.8086   23.4105 O   0  0  0  0  0  0  0  0  0  0  0  0
   12.9600  -16.3710   23.9067 C   0  0  0  0  0  0  0  0  0  0  0  0
   12.0860  -17.5645   23.9121 C   0  0  0  0  0  0  0  0  0  0  0  0
   10.8458  -17.5004   24.7418 C   0  0  2  0  0  0  0  0  0  0  0  0
   10.0592  -16.3583   24.2001 N   0  0  0  0  0  0  0  0  0  0  0  0
   11.0230  -17.2013   26.1593 C   0  0  0  0  0  0  0  0  0  0  0  0
   10.5103  -16.0713   26.7513 O   0  0  0  0  0  0  0  0  0  0  0  0
   11.6778  -18.0121   26.8896 O   0  0  0  0  0  0  0  0  0  0  0  0
  1  2  1  0
  2  4  1  0
  2  3  2  0
  4  5  1  0
  5  6  1  0
  6  7  1  1
  6  8  1  0
  8 10  1  0
  8  9  2  0
 10 11  1  0
 11 22  1  0
 11 12  1  1
 12 13  1  0
 13 14  2  0
 13 21  1  0
 14 15  1  0
 15 16  1  0
 16 17  2  0
 17 18  1  0
 19 18  2  0
 20 19  1  0
 21 20  2  0
 21 16  1  0
 22 23  2  0
 24 25  1  0
 25 27  1  0
 26 25  2  0
 27 28  1  0
 29 31  1  0
 29 28  1  6
 30 22  1  0
 30 29  1  0
 31 32  1  0
 33 31  2  0
M  END
$$$$
