QWQ.pdb
     RDKit          3D

 33 34  0  0  1  0  0  0  0  0999 V2000
   10.2245  -15.9084   17.3963 N   0  0  0  0  0  0  0  0  0  0  0  0
    8.8912  -15.5355   17.7836 C   0  0  0  0  0  0  0  0  0  0  0  0
    8.0500  -15.2708   16.8930 O   0  0  0  0  0  0  0  0  0  0  0  0
    8.5687  -15.4836   19.2166 C   0  0  0  0  0  0  0  0  0  0  0  0
    9.6501  -15.8476   20.1651 C   0  0  0  0  0  0  0  0  0  0  0  0
    9.3028  -16.7977   21.2567 C   0  0  2  0  0  0  0  0  0  0  0  0
    7.9215  -16.8516   21.6020 N   0  0  0  0  0  0  0  0  0  0  0  0
   10.0880  -16.4803   22.4905 C   0  0  0  0  0  0  0  0  0  0  0  0
   11.3351  -16.2967   22.4453 O   0  0  0  0  0  0  0  0  0  0  0  0
    9.4587  -16.3757   23.7379 N   0  0  0  0  0  0  0  0  0  0  0  0
   10.1959  -16.1239   24.9933 C   0  0  1  0  0  0  0  0  0  0  0  0
    9.7720  -14.8445   25.6017 C   0  0  0  0  0  0  0  0  0  0  0  0
    8.3713  -14.5109   25.3120 C   0  0  0  0  0  0  0  0  0  0  0  0
    7.2229  -15.0177   25.9383 C   0  0  0  0  0  0  0  0  0  0  0  0
    6.1177  -14.5317   25.4012 N   0  0  0  0  0  0  0  0  0  0  0  0
    6.4715  -13.6925   24.4098 C   0  0  0  0  0  0  0  0  0  0  0  0
    5.7491  -12.9103   23.5452 C   0  0  0  0  0  0  0  0  0  0  0  0
    6.3637  -12.0958   22.6074 C   0  0  0  0  0  0  0  0  0  0  0  0
    7.7401  -12.0519   22.5203 C   0  0  0  0  0  0  0  0  0  0  0  0
    8.4442  -12.8421   23.3932 C   0  0  0  0  0  0  0  0  0  0  0  0
    7.8573  -13.6688   24.3424 C   0  0  0  0  0  0  0  0  0  0  0  0
   10.1572  -17.2842   25.8821 C   0  0  0  0  0  0  0  0  0  0  0  0
   10.6129  -17.2661   27.0682 O   0  0  0  0  0  0  0  0  0  0  0  0
   13.9151  -20.1284   22.3997 N   0  0  0  0  0  0  0  0  0  0  0  0
   13.5502  -20.5077   23.7503 C   0  0  0  0  0  0  0  0  0  0  0  0
   14.0628  -21.5448   24.1958 O   0  0  0  0  0  0  0  0  0  0  0  0
   12.6254  -19.6893   24.5046 C   0  0  0  0  0  0  0  0  0  0  0  0
   11.1744  -19.9649   24.4207 C   0  0  0  0  0  0  0  0  0  0  0  0
   10.3749  -19.8083   25.6725 C   0  0  2  0  0  0  0  0  0  0  0  0
    9.6032  -18.5467   25.5005 N   0  0  0  0  0  0  0  0  0  0  0  0
   11.1274  -19.6276   26.9099 C   0  0  0  0  0  0  0  0  0  0  0  0
   11.9399  -18.5416   27.1351 O   0  0  0  0  0  0  0  0  0  0  0  0
   11.0370  -20.5049   27.8274 O   0  0  0  0  0  0  0  0  0  0  0  0
  1  2  1  0
  2  4  1  0
  2  3  2  0
  4  5  1  0
  5  6  1  0
  6  7  1  1
  6  8  1  0
  8 10  1  0
  8  9  2  0
 10 11  1  0
 11 22  1  0
 11 12  1  1
 12 13  1  0
 13 14  2  0
 13 21  1  0
 14 15  1  0
 15 16  1  0
 16 17  2  0
 17 18  1  0
 19 18  2  0
 20 19  1  0
 21 20  2  0
 21 16  1  0
 22 23  2  0
 24 25  1  0
 25 27  1  0
 26 25  2  0
 27 28  1  0
 29 31  1  0
 29 28  1  6
 30 22  1  0
 30 29  1  0
 31 32  1  0
 33 31  2  0
M  END
$$$$
