QWQ.pdb
     RDKit          3D

 33 34  0  0  1  0  0  0  0  0999 V2000
    8.7909  -12.4175   16.4040 N   0  0  0  0  0  0  0  0  0  0  0  0
    7.8065  -13.4652   16.3928 C   0  0  0  0  0  0  0  0  0  0  0  0
    6.7477  -13.2990   15.7432 O   0  0  0  0  0  0  0  0  0  0  0  0
    8.0873  -14.6957   17.1460 C   0  0  0  0  0  0  0  0  0  0  0  0
    9.3543  -14.7406   17.9169 C   0  0  0  0  0  0  0  0  0  0  0  0
    9.5762  -15.9268   18.7878 C   0  0  2  0  0  0  0  0  0  0  0  0
    8.6861  -17.0180   18.5707 N   0  0  0  0  0  0  0  0  0  0  0  0
    9.5012  -15.5333   20.2298 C   0  0  0  0  0  0  0  0  0  0  0  0
   10.3639  -14.7731   20.7481 O   0  0  0  0  0  0  0  0  0  0  0  0
    8.4651  -15.9982   21.0505 N   0  0  0  0  0  0  0  0  0  0  0  0
    8.3823  -15.6932   22.4937 C   0  0  1  0  0  0  0  0  0  0  0  0
    6.9988  -15.3364   22.8748 C   0  0  0  0  0  0  0  0  0  0  0  0
    6.8718  -14.9768   24.2931 C   0  0  0  0  0  0  0  0  0  0  0  0
    6.4844  -15.8067   25.3558 C   0  0  0  0  0  0  0  0  0  0  0  0
    6.4370  -15.1470   26.4997 N   0  0  0  0  0  0  0  0  0  0  0  0
    6.7851  -13.8693   26.2575 C   0  0  0  0  0  0  0  0  0  0  0  0
    6.9231  -12.7692   27.0649 C   0  0  0  0  0  0  0  0  0  0  0  0
    7.3272  -11.5411   26.5659 C   0  0  0  0  0  0  0  0  0  0  0  0
    7.6049  -11.3939   25.2224 C   0  0  0  0  0  0  0  0  0  0  0  0
    7.4601  -12.5057   24.4318 C   0  0  0  0  0  0  0  0  0  0  0  0
    7.0563  -13.7486   24.9020 C   0  0  0  0  0  0  0  0  0  0  0  0
    9.0050  -16.7407   23.3017 C   0  0  0  0  0  0  0  0  0  0  0  0
    9.0147  -17.9655   22.9633 O   0  0  0  0  0  0  0  0  0  0  0  0
   14.1442  -17.6588   22.5456 N   0  0  0  0  0  0  0  0  0  0  0  0
   14.1656  -18.2858   23.8524 C   0  0  0  0  0  0  0  0  0  0  0  0
   15.2067  -18.8801   24.1685 O   0  0  0  0  0  0  0  0  0  0  0  0
   13.0047  -18.2017   24.7121 C   0  0  0  0  0  0  0  0  0  0  0  0
   11.8341  -17.4079   24.2786 C   0  0  0  0  0  0  0  0  0  0  0  0
   10.6103  -17.4717   25.1323 C   0  0  2  0  0  0  0  0  0  0  0  0
    9.6609  -16.4853   24.5471 N   0  0  0  0  0  0  0  0  0  0  0  0
   10.7648  -17.0690   26.5266 C   0  0  0  0  0  0  0  0  0  0  0  0
   11.2899  -17.9003   27.4877 O   0  0  0  0  0  0  0  0  0  0  0  0
   10.4019  -15.9020   26.8816 O   0  0  0  0  0  0  0  0  0  0  0  0
  1  2  1  0
  2  4  1  0
  2  3  2  0
  4  5  1  0
  5  6  1  0
  6  7  1  6
  6  8  1  0
  8 10  1  0
  8  9  2  0
 10 11  1  0
 11 22  1  0
 11 12  1  1
 12 13  1  0
 13 14  2  0
 13 21  1  0
 14 15  1  0
 15 16  1  0
 16 17  2  0
 17 18  1  0
 19 18  2  0
 20 19  1  0
 21 20  2  0
 21 16  1  0
 22 23  2  0
 24 25  1  0
 25 27  1  0
 26 25  2  0
 27 28  1  0
 29 31  1  0
 29 28  1  6
 30 22  1  0
 30 29  1  0
 31 32  1  0
 33 31  2  0
M  END
$$$$
