QWQ.pdb
     RDKit          3D

 33 34  0  0  1  0  0  0  0  0999 V2000
    9.4700  -13.9767   15.2337 N   0  0  0  0  0  0  0  0  0  0  0  0
    8.0662  -13.7464   15.4411 C   0  0  0  0  0  0  0  0  0  0  0  0
    7.2823  -13.8477   14.4685 O   0  0  0  0  0  0  0  0  0  0  0  0
    7.6070  -13.4030   16.7944 C   0  0  0  0  0  0  0  0  0  0  0  0
    8.5748  -13.5909   17.9033 C   0  0  0  0  0  0  0  0  0  0  0  0
    8.6579  -14.9482   18.5078 C   0  0  2  0  0  0  0  0  0  0  0  0
    7.5277  -15.7864   18.2829 N   0  0  0  0  0  0  0  0  0  0  0  0
    8.8865  -14.8462   19.9833 C   0  0  0  0  0  0  0  0  0  0  0  0
    9.9245  -14.3028   20.4502 O   0  0  0  0  0  0  0  0  0  0  0  0
    7.9497  -15.3521   20.8941 N   0  0  0  0  0  0  0  0  0  0  0  0
    8.1072  -15.2372   22.3587 C   0  0  1  0  0  0  0  0  0  0  0  0
    6.7989  -15.0097   23.0095 C   0  0  0  0  0  0  0  0  0  0  0  0
    6.9056  -14.8504   24.4656 C   0  0  0  0  0  0  0  0  0  0  0  0
    6.8728  -15.8572   25.4420 C   0  0  0  0  0  0  0  0  0  0  0  0
    6.9548  -15.3579   26.6627 N   0  0  0  0  0  0  0  0  0  0  0  0
    7.0451  -14.0186   26.5588 C   0  0  0  0  0  0  0  0  0  0  0  0
    7.1706  -13.0158   27.4861 C   0  0  0  0  0  0  0  0  0  0  0  0
    7.2711  -11.6843   27.1151 C   0  0  0  0  0  0  0  0  0  0  0  0
    7.2470  -11.3304   25.7817 C   0  0  0  0  0  0  0  0  0  0  0  0
    7.1200  -12.3479   24.8703 C   0  0  0  0  0  0  0  0  0  0  0  0
    7.0163  -13.6904   25.2109 C   0  0  0  0  0  0  0  0  0  0  0  0
    8.8949  -16.3419   22.9036 C   0  0  0  0  0  0  0  0  0  0  0  0
    8.6586  -17.5616   22.6364 O   0  0  0  0  0  0  0  0  0  0  0  0
   13.4767  -14.1630   21.6532 N   0  0  0  0  0  0  0  0  0  0  0  0
   13.4268  -15.5835   21.9376 C   0  0  0  0  0  0  0  0  0  0  0  0
   13.8738  -16.3427   21.0654 O   0  0  0  0  0  0  0  0  0  0  0  0
   12.8698  -16.0496   23.1892 C   0  0  0  0  0  0  0  0  0  0  0  0
   12.0227  -17.2623   23.2019 C   0  0  0  0  0  0  0  0  0  0  0  0
   10.8847  -17.2918   24.1688 C   0  0  2  0  0  0  0  0  0  0  0  0
   10.0042  -16.1535   23.7870 N   0  0  0  0  0  0  0  0  0  0  0  0
   11.2139  -17.0632   25.5722 C   0  0  0  0  0  0  0  0  0  0  0  0
   11.9641  -17.9449   26.3139 O   0  0  0  0  0  0  0  0  0  0  0  0
   10.7950  -16.0074   26.1460 O   0  0  0  0  0  0  0  0  0  0  0  0
  1  2  1  0
  2  4  1  0
  2  3  2  0
  4  5  1  0
  5  6  1  0
  6  7  1  1
  6  8  1  0
  8 10  1  0
  8  9  2  0
 10 11  1  0
 11 22  1  0
 11 12  1  1
 12 13  1  0
 13 14  2  0
 13 21  1  0
 14 15  1  0
 15 16  1  0
 16 17  2  0
 17 18  1  0
 19 18  2  0
 20 19  1  0
 21 20  2  0
 21 16  1  0
 22 23  2  0
 24 25  1  0
 25 27  1  0
 26 25  2  0
 27 28  1  0
 29 31  1  0
 29 28  1  6
 30 22  1  0
 30 29  1  0
 31 32  1  0
 33 31  2  0
M  END
$$$$
