QWQ.pdb
     RDKit          3D

 33 34  0  0  1  0  0  0  0  0999 V2000
    7.4684  -14.0696   15.8595 N   0  0  0  0  0  0  0  0  0  0  0  0
    8.4202  -15.0652   15.4478 C   0  0  0  0  0  0  0  0  0  0  0  0
    8.4491  -15.4198   14.2460 O   0  0  0  0  0  0  0  0  0  0  0  0
    9.3267  -15.6259   16.4597 C   0  0  0  0  0  0  0  0  0  0  0  0
    9.1444  -15.1652   17.8583 C   0  0  0  0  0  0  0  0  0  0  0  0
    9.2453  -16.1935   18.9294 C   0  0  2  0  0  0  0  0  0  0  0  0
    8.5629  -17.4165   18.6671 N   0  0  0  0  0  0  0  0  0  0  0  0
    8.7467  -15.6413   20.2278 C   0  0  0  0  0  0  0  0  0  0  0  0
    7.6767  -14.9765   20.2903 O   0  0  0  0  0  0  0  0  0  0  0  0
    9.4558  -15.8483   21.4184 N   0  0  0  0  0  0  0  0  0  0  0  0
    9.0004  -15.3346   22.7267 C   0  0  1  0  0  0  0  0  0  0  0  0
    7.6444  -15.8334   23.0416 C   0  0  0  0  0  0  0  0  0  0  0  0
    7.1222  -15.3066   24.3093 C   0  0  0  0  0  0  0  0  0  0  0  0
    6.5114  -16.0244   25.3483 C   0  0  0  0  0  0  0  0  0  0  0  0
    6.1224  -15.2293   26.3296 N   0  0  0  0  0  0  0  0  0  0  0  0
    6.4507  -13.9669   25.9966 C   0  0  0  0  0  0  0  0  0  0  0  0
    6.3055  -12.7634   26.6383 C   0  0  0  0  0  0  0  0  0  0  0  0
    6.7591  -11.5779   26.0821 C   0  0  0  0  0  0  0  0  0  0  0  0
    7.3780  -11.5807   24.8488 C   0  0  0  0  0  0  0  0  0  0  0  0
    7.5126  -12.7942   24.2231 C   0  0  0  0  0  0  0  0  0  0  0  0
    7.0678  -13.9980   24.7542 C   0  0  0  0  0  0  0  0  0  0  0  0
   10.0045  -15.5480   23.7679 C   0  0  0  0  0  0  0  0  0  0  0  0
   10.2615  -14.6917   24.6709 O   0  0  0  0  0  0  0  0  0  0  0  0
    8.0528  -18.4892   27.7986 N   0  0  0  0  0  0  0  0  0  0  0  0
    9.3612  -18.1625   28.3301 C   0  0  0  0  0  0  0  0  0  0  0  0
    9.4643  -18.1101   29.5644 O   0  0  0  0  0  0  0  0  0  0  0  0
   10.4646  -17.9124   27.4278 C   0  0  0  0  0  0  0  0  0  0  0  0
   10.1933  -17.3648   26.0807 C   0  0  0  0  0  0  0  0  0  0  0  0
   11.3626  -17.1757   25.1709 C   0  0  2  0  0  0  0  0  0  0  0  0
   10.7904  -16.7391   23.8675 N   0  0  0  0  0  0  0  0  0  0  0  0
   12.1483  -18.3660   24.8611 C   0  0  0  0  0  0  0  0  0  0  0  0
   13.3942  -18.5953   25.3955 O   0  0  0  0  0  0  0  0  0  0  0  0
   11.6722  -19.2364   24.0641 O   0  0  0  0  0  0  0  0  0  0  0  0
  1  2  1  0
  2  4  1  0
  2  3  2  0
  4  5  1  0
  5  6  1  0
  6  7  1  6
  6  8  1  0
  8 10  1  0
  8  9  2  0
 10 11  1  0
 11 22  1  0
 11 12  1  1
 12 13  1  0
 13 14  2  0
 13 21  1  0
 14 15  1  0
 15 16  1  0
 16 17  2  0
 17 18  1  0
 19 18  2  0
 20 19  1  0
 21 20  2  0
 21 16  1  0
 22 23  2  0
 24 25  1  0
 25 27  1  0
 26 25  2  0
 27 28  1  0
 29 31  1  0
 29 28  1  1
 30 22  1  0
 30 29  1  0
 31 32  1  0
 33 31  2  0
M  END
$$$$
