QWQ.pdb
     RDKit          3D

 33 34  0  0  1  0  0  0  0  0999 V2000
   11.7682  -18.9464   16.9804 N   0  0  0  0  0  0  0  0  0  0  0  0
   10.6578  -18.0369   16.8984 C   0  0  0  0  0  0  0  0  0  0  0  0
   10.5815  -17.2557   15.9215 O   0  0  0  0  0  0  0  0  0  0  0  0
    9.6514  -18.0649   17.9692 C   0  0  0  0  0  0  0  0  0  0  0  0
   10.0812  -18.5982   19.2854 C   0  0  0  0  0  0  0  0  0  0  0  0
    9.0525  -18.6639   20.3588 C   0  0  2  0  0  0  0  0  0  0  0  0
    7.7197  -18.3766   19.9449 N   0  0  0  0  0  0  0  0  0  0  0  0
    9.4111  -17.7384   21.4788 C   0  0  0  0  0  0  0  0  0  0  0  0
   10.5822  -17.6961   21.9454 O   0  0  0  0  0  0  0  0  0  0  0  0
    8.4532  -16.8864   22.0442 N   0  0  0  0  0  0  0  0  0  0  0  0
    8.7422  -15.9948   23.1862 C   0  0  1  0  0  0  0  0  0  0  0  0
    7.9867  -14.7292   23.0666 C   0  0  0  0  0  0  0  0  0  0  0  0
    8.2415  -13.8047   24.1790 C   0  0  0  0  0  0  0  0  0  0  0  0
    9.4233  -13.1009   24.4542 C   0  0  0  0  0  0  0  0  0  0  0  0
    9.3209  -12.3864   25.5611 N   0  0  0  0  0  0  0  0  0  0  0  0
    8.0876  -12.5768   26.0661 C   0  0  0  0  0  0  0  0  0  0  0  0
    7.4417  -12.0772   27.1682 C   0  0  0  0  0  0  0  0  0  0  0  0
    6.1314  -12.4169   27.4652 C   0  0  0  0  0  0  0  0  0  0  0  0
    5.4340  -13.2800   26.6451 C   0  0  0  0  0  0  0  0  0  0  0  0
    6.0979  -13.7691   25.5487 C   0  0  0  0  0  0  0  0  0  0  0  0
    7.4100  -13.4484   25.2254 C   0  0  0  0  0  0  0  0  0  0  0  0
    8.5990  -16.6923   24.4633 C   0  0  0  0  0  0  0  0  0  0  0  0
    7.4858  -17.1252   24.8972 O   0  0  0  0  0  0  0  0  0  0  0  0
   10.5557  -21.8831   25.4789 N   0  0  0  0  0  0  0  0  0  0  0  0
   11.5851  -20.8653   25.5539 C   0  0  0  0  0  0  0  0  0  0  0  0
   12.7416  -21.2212   25.2841 O   0  0  0  0  0  0  0  0  0  0  0  0
   11.2366  -19.5131   25.9339 C   0  0  0  0  0  0  0  0  0  0  0  0
    9.8198  -19.1705   26.1864 C   0  0  0  0  0  0  0  0  0  0  0  0
    9.5162  -17.7619   26.5791 C   0  0  2  0  0  0  0  0  0  0  0  0
    9.6969  -16.9527   25.3425 N   0  0  0  0  0  0  0  0  0  0  0  0
   10.4038  -17.1529   27.5647 C   0  0  0  0  0  0  0  0  0  0  0  0
   11.3033  -16.1632   27.2454 O   0  0  0  0  0  0  0  0  0  0  0  0
   10.3537  -17.5451   28.7743 O   0  0  0  0  0  0  0  0  0  0  0  0
  1  2  1  0
  2  4  1  0
  2  3  2  0
  4  5  1  0
  5  6  1  0
  6  7  1  6
  6  8  1  0
  8 10  1  0
  8  9  2  0
 10 11  1  0
 11 22  1  0
 11 12  1  1
 12 13  1  0
 13 14  2  0
 13 21  1  0
 14 15  1  0
 15 16  1  0
 16 17  2  0
 17 18  1  0
 19 18  2  0
 20 19  1  0
 21 20  2  0
 21 16  1  0
 22 23  2  0
 24 25  1  0
 25 27  1  0
 26 25  2  0
 27 28  1  0
 29 31  1  0
 29 28  1  6
 30 22  1  0
 30 29  1  0
 31 32  1  0
 33 31  2  0
M  END
$$$$
