QWQ.pdb
     RDKit          3D

 33 34  0  0  1  0  0  0  0  0999 V2000
    8.0292  -12.5528   17.8962 N   0  0  0  0  0  0  0  0  0  0  0  0
    7.1110  -13.6173   17.5953 C   0  0  0  0  0  0  0  0  0  0  0  0
    6.5421  -13.6333   16.4787 O   0  0  0  0  0  0  0  0  0  0  0  0
    6.8798  -14.6499   18.6154 C   0  0  0  0  0  0  0  0  0  0  0  0
    7.7238  -14.5947   19.8346 C   0  0  0  0  0  0  0  0  0  0  0  0
    8.0968  -15.8925   20.4601 C   0  0  2  0  0  0  0  0  0  0  0  0
    7.0031  -16.7211   20.8443 N   0  0  0  0  0  0  0  0  0  0  0  0
    8.9608  -15.6611   21.6599 C   0  0  0  0  0  0  0  0  0  0  0  0
    9.9561  -14.8878   21.6122 O   0  0  0  0  0  0  0  0  0  0  0  0
    8.6882  -16.2981   22.8777 N   0  0  0  0  0  0  0  0  0  0  0  0
    9.5349  -16.1376   24.0778 C   0  0  1  0  0  0  0  0  0  0  0  0
    8.7401  -16.3343   25.3092 C   0  0  0  0  0  0  0  0  0  0  0  0
    7.6018  -15.4113   25.4077 C   0  0  0  0  0  0  0  0  0  0  0  0
    6.2516  -15.6853   25.1432 C   0  0  0  0  0  0  0  0  0  0  0  0
    5.4959  -14.6118   25.2935 N   0  0  0  0  0  0  0  0  0  0  0  0
    6.2929  -13.5903   25.6595 C   0  0  0  0  0  0  0  0  0  0  0  0
    6.0469  -12.2757   25.9635 C   0  0  0  0  0  0  0  0  0  0  0  0
    7.0601  -11.4106   26.3449 C   0  0  0  0  0  0  0  0  0  0  0  0
    8.3622  -11.8593   26.4292 C   0  0  0  0  0  0  0  0  0  0  0  0
    8.5874  -13.1769   26.1203 C   0  0  0  0  0  0  0  0  0  0  0  0
    7.5938  -14.0673   25.7343 C   0  0  0  0  0  0  0  0  0  0  0  0
   10.7562  -16.9362   23.9854 C   0  0  0  0  0  0  0  0  0  0  0  0
   10.7716  -18.1358   23.5666 O   0  0  0  0  0  0  0  0  0  0  0  0
   16.2117  -14.7019   22.1155 N   0  0  0  0  0  0  0  0  0  0  0  0
   16.6044  -15.9959   22.6376 C   0  0  0  0  0  0  0  0  0  0  0  0
   17.7983  -16.3071   22.5160 O   0  0  0  0  0  0  0  0  0  0  0  0
   15.6176  -16.8531   23.2586 C   0  0  0  0  0  0  0  0  0  0  0  0
   14.2321  -16.3634   23.4284 C   0  0  0  0  0  0  0  0  0  0  0  0
   13.2729  -17.2586   24.1420 C   0  0  2  0  0  0  0  0  0  0  0  0
   12.0463  -16.4425   24.3571 N   0  0  0  0  0  0  0  0  0  0  0  0
   13.6670  -17.7098   25.4729 C   0  0  0  0  0  0  0  0  0  0  0  0
   14.5113  -18.7754   25.6779 O   0  0  0  0  0  0  0  0  0  0  0  0
   13.2173  -17.1003   26.4955 O   0  0  0  0  0  0  0  0  0  0  0  0
  1  2  1  0
  2  4  1  0
  2  3  2  0
  4  5  1  0
  5  6  1  0
  6  7  1  1
  6  8  1  0
  8 10  1  0
  8  9  2  0
 10 11  1  0
 11 22  1  0
 11 12  1  1
 12 13  1  0
 13 14  2  0
 13 21  1  0
 14 15  1  0
 15 16  1  0
 16 17  2  0
 17 18  1  0
 19 18  2  0
 20 19  1  0
 21 20  2  0
 21 16  1  0
 22 23  2  0
 24 25  1  0
 25 27  1  0
 26 25  2  0
 27 28  1  0
 29 31  1  0
 29 28  1  1
 30 22  1  0
 30 29  1  0
 31 32  1  0
 33 31  2  0
M  END
$$$$
