REL.pdb
     RDKit          3D

 29 28  0  0  1  0  0  0  0  0999 V2000
    9.4762  -14.4357   17.1326 N   0  0  0  0  0  0  0  0  0  0  0  0
    8.4348  -13.5934   16.6722 C   0  0  0  0  0  0  0  0  0  0  0  0
    8.2676  -13.3950   15.4010 N   0  0  0  0  0  0  0  0  0  0  0  0
    7.5421  -12.9408   17.5928 N   0  0  0  0  0  0  0  0  0  0  0  0
    7.5540  -13.2487   18.9998 C   0  0  0  0  0  0  0  0  0  0  0  0
    7.5086  -14.7402   19.2310 C   0  0  0  0  0  0  0  0  0  0  0  0
    7.3923  -15.0111   20.6939 C   0  0  0  0  0  0  0  0  0  0  0  0
    7.2055  -16.4848   20.9995 C   0  0  2  0  0  0  0  0  0  0  0  0
    5.8996  -16.9484   20.6491 N   0  0  0  0  0  0  0  0  0  0  0  0
    7.5093  -16.6906   22.4509 C   0  0  0  0  0  0  0  0  0  0  0  0
    6.5953  -16.5296   23.2990 O   0  0  0  0  0  0  0  0  0  0  0  0
    7.5864  -12.6856   15.0581 N   0  0  0  0  0  0  0  0  0  0  0  0
    8.7896  -17.0624   22.9269 C   0  0  2  0  0  0  0  0  0  0  0  0
    9.0725  -17.2887   24.3359 C   0  0  0  0  0  0  0  0  0  0  0  0
   10.2271  -18.2872   24.4858 C   0  0  0  0  0  0  0  0  0  0  0  0
   10.4688  -18.5822   25.9412 C   0  0  0  0  0  0  0  0  0  0  0  0
   11.6161  -19.5061   26.0571 O   0  0  0  0  0  0  0  0  0  0  0  0
   11.4107  -20.6945   26.4027 C   0  0  0  0  0  0  0  0  0  0  0  0
    9.4701  -16.0087   24.9718 O   0  0  0  0  0  0  0  0  0  0  0  0
   10.3605  -15.3029   24.4604 O   0  0  0  0  0  0  0  0  0  0  0  0
   12.8859  -19.0412   25.7828 C   0  0  0  0  0  0  0  0  0  0  0  0
    6.0251  -12.3870   26.9432 C   0  0  2  0  0  0  0  0  0  0  0  0
    7.2006  -13.0962   26.1951 C   0  0  0  0  0  0  0  0  0  0  0  0
    7.7947  -11.9911   25.3486 C   0  0  0  0  0  0  0  0  0  0  0  0
    8.0582  -13.6124   27.2852 C   0  0  2  0  0  0  0  0  0  0  0  0
    9.2425  -14.3873   26.9033 N   0  0  0  0  0  0  0  0  0  0  0  0
    8.8299  -15.6000   26.1601 C   0  0  0  0  0  0  0  0  0  0  0  0
   10.1523  -14.8248   27.9300 O   0  0  0  0  0  0  0  0  0  0  0  0
   10.2968  -16.0130   28.3147 O   0  0  0  0  0  0  0  0  0  0  0  0
  2  1  1  0
  2  3  2  0
  4  2  1  0
  5  4  1  0
  6  5  1  0
  7  6  1  0
  8  7  1  0
  8  9  1  1
 10  8  1  0
 10 12  1  0
 11 10  2  0
 13 12  1  0
 13 14  1  6
 15 14  1  0
 16 15  1  0
 17 16  2  0
 18 19  2  0
 18 13  1  0
 20 16  1  0
 22 21  1  6
 22 24  1  0
 23 22  1  0
 25 24  1  6
 25 26  1  0
 25 27  1  0
 26 18  1  0
 27 29  1  0
 28 27  2  0
M  END
$$$$
