REL.pdb
     RDKit          3D

 29 28  0  0  1  0  0  0  0  0999 V2000
    8.3538  -12.4478   16.8286 N   0  0  0  0  0  0  0  0  0  0  0  0
    8.7992  -12.6657   18.1553 C   0  0  0  0  0  0  0  0  0  0  0  0
    9.3667  -11.7072   18.8205 N   0  0  0  0  0  0  0  0  0  0  0  0
    8.6361  -13.9437   18.7957 N   0  0  0  0  0  0  0  0  0  0  0  0
    8.0654  -15.0679   18.0991 C   0  0  0  0  0  0  0  0  0  0  0  0
    6.7757  -15.5120   18.7469 C   0  0  0  0  0  0  0  0  0  0  0  0
    7.0449  -15.9207   20.1567 C   0  0  0  0  0  0  0  0  0  0  0  0
    8.4022  -16.5765   20.3230 C   0  0  2  0  0  0  0  0  0  0  0  0
    8.5068  -17.7972   19.5867 N   0  0  0  0  0  0  0  0  0  0  0  0
    8.6342  -16.7771   21.7884 C   0  0  0  0  0  0  0  0  0  0  0  0
    7.6970  -16.5513   22.5955 O   0  0  0  0  0  0  0  0  0  0  0  0
    9.7982  -11.8881   19.7511 N   0  0  0  0  0  0  0  0  0  0  0  0
    9.8705  -17.2137   22.3221 C   0  0  2  0  0  0  0  0  0  0  0  0
   10.0723  -17.4670   23.7404 C   0  0  0  0  0  0  0  0  0  0  0  0
   11.4808  -18.0252   23.9788 C   0  0  0  0  0  0  0  0  0  0  0  0
   11.6484  -18.4027   25.4255 C   0  0  0  0  0  0  0  0  0  0  0  0
   13.0044  -18.9562   25.6207 O   0  0  0  0  0  0  0  0  0  0  0  0
   13.8510  -18.2870   26.2606 C   0  0  0  0  0  0  0  0  0  0  0  0
    9.9345  -16.1964   24.4937 O   0  0  0  0  0  0  0  0  0  0  0  0
   10.5558  -15.1796   24.1299 O   0  0  0  0  0  0  0  0  0  0  0  0
   13.3084  -20.1952   25.0952 C   0  0  0  0  0  0  0  0  0  0  0  0
    8.4254  -11.9628   26.3786 C   0  0  2  0  0  0  0  0  0  0  0  0
    7.3458  -13.0083   26.8094 C   0  0  0  0  0  0  0  0  0  0  0  0
    6.0416  -12.3456   26.4214 C   0  0  0  0  0  0  0  0  0  0  0  0
    7.7061  -14.2273   26.0515 C   0  0  1  0  0  0  0  0  0  0  0  0
    8.9326  -14.9281   26.4429 N   0  0  0  0  0  0  0  0  0  0  0  0
    9.0933  -16.1522   25.6249 C   0  0  0  0  0  0  0  0  0  0  0  0
    9.1016  -15.3270   27.8160 O   0  0  0  0  0  0  0  0  0  0  0  0
    9.1710  -14.5437   28.7971 O   0  0  0  0  0  0  0  0  0  0  0  0
  2  1  1  0
  2  3  2  0
  4  2  1  0
  5  4  1  0
  6  5  1  0
  7  6  1  0
  8  7  1  0
  8  9  1  6
 10  8  1  0
 10 12  1  0
 11 10  2  0
 13 12  1  0
 13 14  1  6
 15 14  1  0
 16 15  1  0
 17 16  2  0
 18 19  2  0
 18 13  1  0
 20 16  1  0
 22 21  1  1
 22 24  1  0
 23 22  1  0
 25 24  1  6
 25 26  1  0
 25 27  1  0
 26 18  1  0
 27 29  1  0
 28 27  2  0
M  END
$$$$
