REL.pdb
     RDKit          3D

 29 28  0  0  1  0  0  0  0  0999 V2000
    8.4024  -14.4486   16.2075 N   0  0  0  0  0  0  0  0  0  0  0  0
    8.5994  -13.5401   17.2761 C   0  0  0  0  0  0  0  0  0  0  0  0
    8.1585  -12.3230   17.1896 N   0  0  0  0  0  0  0  0  0  0  0  0
    9.2872  -13.9382   18.4755 N   0  0  0  0  0  0  0  0  0  0  0  0
    8.6827  -14.8329   19.4287 C   0  0  0  0  0  0  0  0  0  0  0  0
    7.2487  -14.4478   19.7033 C   0  0  0  0  0  0  0  0  0  0  0  0
    6.6767  -15.3680   20.7295 C   0  0  0  0  0  0  0  0  0  0  0  0
    7.4029  -16.6982   20.7872 C   0  0  2  0  0  0  0  0  0  0  0  0
    6.6318  -17.7602   20.2210 N   0  0  0  0  0  0  0  0  0  0  0  0
    7.7622  -16.9588   22.2170 C   0  0  0  0  0  0  0  0  0  0  0  0
    6.9090  -16.7416   23.1145 O   0  0  0  0  0  0  0  0  0  0  0  0
    8.2931  -11.6512   17.9740 N   0  0  0  0  0  0  0  0  0  0  0  0
    9.0300  -17.4438   22.6187 C   0  0  2  0  0  0  0  0  0  0  0  0
    9.3924  -17.6445   24.0133 C   0  0  0  0  0  0  0  0  0  0  0  0
   10.7237  -18.4002   24.1063 C   0  0  0  0  0  0  0  0  0  0  0  0
   11.0927  -18.6204   25.5482 C   0  0  0  0  0  0  0  0  0  0  0  0
   12.4180  -19.2711   25.6081 O   0  0  0  0  0  0  0  0  0  0  0  0
   13.4008  -18.7056   25.0712 C   0  0  0  0  0  0  0  0  0  0  0  0
    9.5502  -16.3271   24.6773 O   0  0  0  0  0  0  0  0  0  0  0  0
   10.2062  -15.4213   24.1282 O   0  0  0  0  0  0  0  0  0  0  0  0
   12.5442  -20.4846   26.2524 C   0  0  0  0  0  0  0  0  0  0  0  0
    8.7697  -11.8007   26.2293 C   0  0  2  0  0  0  0  0  0  0  0  0
    7.7843  -12.6875   27.0581 C   0  0  0  0  0  0  0  0  0  0  0  0
    6.4642  -11.9582   26.9301 C   0  0  0  0  0  0  0  0  0  0  0  0
    7.8604  -14.0131   26.4045 C   0  0  1  0  0  0  0  0  0  0  0  0
    9.0587  -14.8203   26.6519 N   0  0  0  0  0  0  0  0  0  0  0  0
    8.9501  -16.1117   25.9352 C   0  0  0  0  0  0  0  0  0  0  0  0
    9.4221  -15.1337   28.0095 O   0  0  0  0  0  0  0  0  0  0  0  0
    9.1384  -16.2013   28.6098 O   0  0  0  0  0  0  0  0  0  0  0  0
  2  1  1  0
  2  3  2  0
  4  2  1  0
  5  4  1  0
  6  5  1  0
  7  6  1  0
  8  7  1  0
  8  9  1  1
 10  8  1  0
 10 12  1  0
 11 10  2  0
 13 12  1  0
 13 14  1  6
 15 14  1  0
 16 15  1  0
 17 16  2  0
 18 19  2  0
 18 13  1  0
 20 16  1  0
 22 21  1  1
 22 24  1  0
 23 22  1  0
 25 24  1  6
 25 26  1  0
 25 27  1  0
 26 18  1  0
 27 29  1  0
 28 27  2  0
M  END
$$$$
