REL.pdb
     RDKit          3D

 29 28  0  0  1  0  0  0  0  0999 V2000
    8.1633  -15.3198   15.7270 N   0  0  0  0  0  0  0  0  0  0  0  0
    8.0787  -13.9573   15.3493 C   0  0  0  0  0  0  0  0  0  0  0  0
    7.9489  -13.6317   14.1001 N   0  0  0  0  0  0  0  0  0  0  0  0
    8.1336  -12.9070   16.3311 N   0  0  0  0  0  0  0  0  0  0  0  0
    8.4077  -13.1854   17.7175 C   0  0  0  0  0  0  0  0  0  0  0  0
    7.3024  -14.0071   18.3365 C   0  0  0  0  0  0  0  0  0  0  0  0
    7.7422  -14.5004   19.6746 C   0  0  0  0  0  0  0  0  0  0  0  0
    8.3896  -15.8701   19.6055 C   0  0  2  0  0  0  0  0  0  0  0  0
    7.6518  -16.7760   18.7821 N   0  0  0  0  0  0  0  0  0  0  0  0
    8.5405  -16.3732   21.0074 C   0  0  0  0  0  0  0  0  0  0  0  0
    7.5113  -16.6259   21.6839 O   0  0  0  0  0  0  0  0  0  0  0  0
    7.9614  -12.6325   13.8066 N   0  0  0  0  0  0  0  0  0  0  0  0
    9.7986  -16.5830   21.6216 C   0  0  2  0  0  0  0  0  0  0  0  0
    9.9395  -17.0395   22.9958 C   0  0  0  0  0  0  0  0  0  0  0  0
   11.3209  -17.6742   23.1990 C   0  0  0  0  0  0  0  0  0  0  0  0
   11.5041  -18.0608   24.6415 C   0  0  0  0  0  0  0  0  0  0  0  0
   12.8335  -18.6852   24.8034 O   0  0  0  0  0  0  0  0  0  0  0  0
   13.4772  -19.0252   23.7816 C   0  0  0  0  0  0  0  0  0  0  0  0
    9.8115  -15.8830   23.9162 O   0  0  0  0  0  0  0  0  0  0  0  0
   10.4111  -14.8180   23.6742 O   0  0  0  0  0  0  0  0  0  0  0  0
   13.3362  -18.8799   26.0735 C   0  0  0  0  0  0  0  0  0  0  0  0
    8.1154  -11.7821   26.0944 C   0  0  2  0  0  0  0  0  0  0  0  0
    7.3277  -13.0063   26.6645 C   0  0  0  0  0  0  0  0  0  0  0  0
    5.8881  -12.5398   26.6385 C   0  0  0  0  0  0  0  0  0  0  0  0
    7.6693  -14.1121   25.7421 C   0  0  1  0  0  0  0  0  0  0  0  0
    8.8635  -14.9043   26.0504 N   0  0  0  0  0  0  0  0  0  0  0  0
    9.0045  -16.0023   25.0666 C   0  0  0  0  0  0  0  0  0  0  0  0
    8.9877  -15.5028   27.3540 O   0  0  0  0  0  0  0  0  0  0  0  0
    8.4037  -16.5503   27.7314 O   0  0  0  0  0  0  0  0  0  0  0  0
  2  1  1  0
  2  3  2  0
  4  2  1  0
  5  4  1  0
  6  5  1  0
  7  6  1  0
  8  7  1  0
  8  9  1  6
 10  8  1  0
 10 12  1  0
 11 10  2  0
 13 12  1  0
 13 14  1  6
 15 14  1  0
 16 15  1  0
 17 16  2  0
 18 19  2  0
 18 13  1  0
 20 16  1  0
 22 21  1  1
 22 24  1  0
 23 22  1  0
 25 24  1  6
 25 26  1  0
 25 27  1  0
 26 18  1  0
 27 29  1  0
 28 27  2  0
M  END
$$$$
