REL.pdb
     RDKit          3D

 29 28  0  0  1  0  0  0  0  0999 V2000
    9.9773  -13.2159   19.5982 N   0  0  0  0  0  0  0  0  0  0  0  0
    8.7843  -12.5488   19.9695 C   0  0  0  0  0  0  0  0  0  0  0  0
    8.8106  -11.6126   20.8673 N   0  0  0  0  0  0  0  0  0  0  0  0
    7.5224  -12.8878   19.3670 N   0  0  0  0  0  0  0  0  0  0  0  0
    7.4211  -13.9059   18.3532 C   0  0  0  0  0  0  0  0  0  0  0  0
    7.1483  -15.2588   18.9658 C   0  0  0  0  0  0  0  0  0  0  0  0
    8.4158  -16.0451   19.0141 C   0  0  0  0  0  0  0  0  0  0  0  0
    8.2162  -17.4356   19.5855 C   0  0  2  0  0  0  0  0  0  0  0  0
    7.0205  -18.0522   19.1025 N   0  0  0  0  0  0  0  0  0  0  0  0
    8.2314  -17.3208   21.0781 C   0  0  0  0  0  0  0  0  0  0  0  0
    7.1693  -17.0254   21.6826 O   0  0  0  0  0  0  0  0  0  0  0  0
    7.9395  -11.1096   21.1374 N   0  0  0  0  0  0  0  0  0  0  0  0
    9.3947  -17.5301   21.8571 C   0  0  2  0  0  0  0  0  0  0  0  0
    9.3799  -17.5349   23.3119 C   0  0  0  0  0  0  0  0  0  0  0  0
   10.5871  -18.3152   23.8467 C   0  0  0  0  0  0  0  0  0  0  0  0
   10.5049  -18.4306   25.3445 C   0  0  0  0  0  0  0  0  0  0  0  0
   11.6962  -19.1549   25.8339 O   0  0  0  0  0  0  0  0  0  0  0  0
   12.5593  -19.5391   25.0084 C   0  0  0  0  0  0  0  0  0  0  0  0
    9.4605  -16.1403   23.8115 O   0  0  0  0  0  0  0  0  0  0  0  0
   10.2782  -15.3415   23.3157 O   0  0  0  0  0  0  0  0  0  0  0  0
   11.8321  -19.3920   27.1863 C   0  0  0  0  0  0  0  0  0  0  0  0
    8.3301  -11.3956   25.0852 C   0  0  2  0  0  0  0  0  0  0  0  0
    7.4403  -12.3090   25.9897 C   0  0  0  0  0  0  0  0  0  0  0  0
    6.0911  -11.6239   25.9601 C   0  0  0  0  0  0  0  0  0  0  0  0
    7.5101  -13.6354   25.3370 C   0  0  1  0  0  0  0  0  0  0  0  0
    8.7401  -14.4125   25.5165 N   0  0  0  0  0  0  0  0  0  0  0  0
    8.6025  -15.7291   24.8525 C   0  0  0  0  0  0  0  0  0  0  0  0
    9.2133  -14.6733   26.8511 O   0  0  0  0  0  0  0  0  0  0  0  0
    8.7537  -15.5495   27.6269 O   0  0  0  0  0  0  0  0  0  0  0  0
  2  1  1  0
  2  3  2  0
  4  2  1  0
  5  4  1  0
  6  5  1  0
  7  6  1  0
  8  7  1  0
  8  9  1  6
 10  8  1  0
 10 12  1  0
 11 10  2  0
 13 12  1  0
 13 14  1  6
 15 14  1  0
 16 15  1  0
 17 16  2  0
 18 19  2  0
 18 13  1  0
 20 16  1  0
 22 21  1  1
 22 24  1  0
 23 22  1  0
 25 24  1  6
 25 26  1  0
 25 27  1  0
 26 18  1  0
 27 29  1  0
 28 27  2  0
M  END
$$$$
