REL.pdb
     RDKit          3D

 29 28  0  0  1  0  0  0  0  0999 V2000
    8.9480  -15.1665   15.5975 N   0  0  0  0  0  0  0  0  0  0  0  0
    8.5582  -14.0139   16.3226 C   0  0  0  0  0  0  0  0  0  0  0  0
    7.5104  -13.3385   15.9633 N   0  0  0  0  0  0  0  0  0  0  0  0
    9.3063  -13.5648   17.4666 N   0  0  0  0  0  0  0  0  0  0  0  0
    8.6529  -13.0029   18.6206 C   0  0  0  0  0  0  0  0  0  0  0  0
    7.3634  -13.7282   18.9229 C   0  0  0  0  0  0  0  0  0  0  0  0
    7.4532  -14.3553   20.2741 C   0  0  0  0  0  0  0  0  0  0  0  0
    8.2234  -15.6616   20.2590 C   0  0  2  0  0  0  0  0  0  0  0  0
    7.6052  -16.6442   19.4250 N   0  0  0  0  0  0  0  0  0  0  0  0
    8.3600  -16.1258   21.6757 C   0  0  0  0  0  0  0  0  0  0  0  0
    7.3362  -16.5031   22.3003 O   0  0  0  0  0  0  0  0  0  0  0  0
    7.1356  -12.5767   16.5666 N   0  0  0  0  0  0  0  0  0  0  0  0
    9.5986  -16.1633   22.3602 C   0  0  1  0  0  0  0  0  0  0  0  0
    9.7515  -16.7488   23.6833 C   0  0  0  0  0  0  0  0  0  0  0  0
   11.0386  -17.5806   23.7437 C   0  0  0  0  0  0  0  0  0  0  0  0
   10.9320  -18.7645   22.8215 C   0  0  0  0  0  0  0  0  0  0  0  0
   12.2078  -19.5092   22.8507 O   0  0  0  0  0  0  0  0  0  0  0  0
   12.7786  -19.7857   21.7682 C   0  0  0  0  0  0  0  0  0  0  0  0
    9.8407  -15.6672   24.6948 O   0  0  0  0  0  0  0  0  0  0  0  0
   10.7445  -14.8126   24.6230 O   0  0  0  0  0  0  0  0  0  0  0  0
   12.7420  -19.8832   24.0667 C   0  0  0  0  0  0  0  0  0  0  0  0
    5.9100  -12.4503   26.2569 C   0  0  2  0  0  0  0  0  0  0  0  0
    7.3100  -13.0017   25.8323 C   0  0  0  0  0  0  0  0  0  0  0  0
    8.1489  -11.7507   25.6833 C   0  0  0  0  0  0  0  0  0  0  0  0
    7.6874  -13.9092   26.9387 C   0  0  2  0  0  0  0  0  0  0  0  0
    8.9668  -14.6158   26.8261 N   0  0  0  0  0  0  0  0  0  0  0  0
    8.8923  -15.6171   25.7375 C   0  0  0  0  0  0  0  0  0  0  0  0
    9.4903  -15.3013   27.9790 O   0  0  0  0  0  0  0  0  0  0  0  0
    9.5006  -16.5481   28.1407 O   0  0  0  0  0  0  0  0  0  0  0  0
  2  1  1  0
  2  3  2  0
  4  2  1  0
  5  4  1  0
  6  5  1  0
  7  6  1  0
  8  7  1  0
  8  9  1  6
 10  8  1  0
 10 12  1  0
 11 10  2  0
 13 12  1  0
 13 14  1  6
 15 14  1  0
 16 15  1  0
 17 16  2  0
 18 19  2  0
 18 13  1  0
 20 16  1  0
 22 21  1  6
 22 24  1  0
 23 22  1  0
 25 24  1  6
 25 26  1  0
 25 27  1  0
 26 18  1  0
 27 29  1  0
 28 27  2  0
M  END
$$$$
