REL.pdb
     RDKit          3D

 29 28  0  0  1  0  0  0  0  0999 V2000
   11.0225  -13.6033   19.4611 N   0  0  0  0  0  0  0  0  0  0  0  0
    9.7223  -13.1286   19.1605 C   0  0  0  0  0  0  0  0  0  0  0  0
    9.5560  -12.1906   18.2796 N   0  0  0  0  0  0  0  0  0  0  0  0
    8.5616  -13.6682   19.8173 N   0  0  0  0  0  0  0  0  0  0  0  0
    7.5768  -14.4343   19.0976 C   0  0  0  0  0  0  0  0  0  0  0  0
    6.4703  -14.8970   20.0149 C   0  0  0  0  0  0  0  0  0  0  0  0
    7.0419  -15.2252   21.3538 C   0  0  0  0  0  0  0  0  0  0  0  0
    7.5710  -16.6445   21.4282 C   0  0  2  0  0  0  0  0  0  0  0  0
    6.5905  -17.6083   21.0373 N   0  0  0  0  0  0  0  0  0  0  0  0
    8.0658  -16.8731   22.8226 C   0  0  0  0  0  0  0  0  0  0  0  0
    7.2460  -17.1911   23.7212 O   0  0  0  0  0  0  0  0  0  0  0  0
    8.6018  -11.8488   18.0399 N   0  0  0  0  0  0  0  0  0  0  0  0
    9.4275  -16.7488   23.1891 C   0  0  2  0  0  0  0  0  0  0  0  0
    9.9104  -17.0193   24.5345 C   0  0  0  0  0  0  0  0  0  0  0  0
   11.3641  -17.5054   24.4827 C   0  0  0  0  0  0  0  0  0  0  0  0
   11.4481  -18.8020   23.7243 C   0  0  0  0  0  0  0  0  0  0  0  0
   12.8576  -19.2443   23.6892 O   0  0  0  0  0  0  0  0  0  0  0  0
   13.2618  -20.0648   24.5479 C   0  0  0  0  0  0  0  0  0  0  0  0
    9.8578  -15.7734   25.3382 O   0  0  0  0  0  0  0  0  0  0  0  0
   10.5192  -14.7752   24.9940 O   0  0  0  0  0  0  0  0  0  0  0  0
   13.6961  -18.7454   22.7137 C   0  0  0  0  0  0  0  0  0  0  0  0
    5.5746  -13.3385   27.1679 C   0  0  1  0  0  0  0  0  0  0  0  0
    6.9537  -13.7400   26.5505 C   0  0  0  0  0  0  0  0  0  0  0  0
    7.3717  -12.4998   25.7902 C   0  0  0  0  0  0  0  0  0  0  0  0
    7.7823  -14.0923   27.7250 C   0  0  2  0  0  0  0  0  0  0  0  0
    9.1262  -14.6192   27.4699 N   0  0  0  0  0  0  0  0  0  0  0  0
    9.0519  -15.7314   26.4948 C   0  0  0  0  0  0  0  0  0  0  0  0
    9.9116  -15.0968   28.5781 O   0  0  0  0  0  0  0  0  0  0  0  0
   10.2158  -16.2983   28.7889 O   0  0  0  0  0  0  0  0  0  0  0  0
  2  1  1  0
  2  3  2  0
  4  2  1  0
  5  4  1  0
  6  5  1  0
  7  6  1  0
  8  7  1  0
  8  9  1  1
 10  8  1  0
 10 12  1  0
 11 10  2  0
 13 12  1  0
 13 14  1  6
 15 14  1  0
 16 15  1  0
 17 16  2  0
 18 19  2  0
 18 13  1  0
 20 16  1  0
 22 21  1  6
 22 24  1  0
 23 22  1  0
 25 24  1  6
 25 26  1  0
 25 27  1  0
 26 18  1  0
 27 29  1  0
 28 27  2  0
M  END
$$$$
