REL.pdb
     RDKit          3D

 29 28  0  0  1  0  0  0  0  0999 V2000
    9.5169  -16.2148   15.4245 N   0  0  0  0  0  0  0  0  0  0  0  0
    8.4285  -15.5210   14.8413 C   0  0  0  0  0  0  0  0  0  0  0  0
    7.8624  -15.9771   13.7667 N   0  0  0  0  0  0  0  0  0  0  0  0
    7.9255  -14.3031   15.4190 N   0  0  0  0  0  0  0  0  0  0  0  0
    8.5634  -13.6886   16.5549 C   0  0  0  0  0  0  0  0  0  0  0  0
    8.0801  -14.3010   17.8477 C   0  0  0  0  0  0  0  0  0  0  0  0
    7.6174  -13.2190   18.7655 C   0  0  0  0  0  0  0  0  0  0  0  0
    8.6281  -12.9061   19.8519 C   0  0  2  0  0  0  0  0  0  0  0  0
    9.9457  -12.7241   19.3285 N   0  0  0  0  0  0  0  0  0  0  0  0
    8.5671  -14.0096   20.8618 C   0  0  0  0  0  0  0  0  0  0  0  0
    7.4725  -14.2689   21.4233 O   0  0  0  0  0  0  0  0  0  0  0  0
    7.0669  -15.4683   13.3273 N   0  0  0  0  0  0  0  0  0  0  0  0
    9.6923  -14.7885   21.2239 C   0  0  1  0  0  0  0  0  0  0  0  0
    9.6371  -15.8317   22.2364 C   0  0  0  0  0  0  0  0  0  0  0  0
   10.8512  -16.7591   22.1014 C   0  0  0  0  0  0  0  0  0  0  0  0
   10.7169  -17.9255   23.0422 C   0  0  0  0  0  0  0  0  0  0  0  0
   11.8941  -18.8045   22.8842 O   0  0  0  0  0  0  0  0  0  0  0  0
   12.6323  -18.6620   21.8799 C   0  0  0  0  0  0  0  0  0  0  0  0
    9.6631  -15.2134   23.5848 O   0  0  0  0  0  0  0  0  0  0  0  0
   10.0496  -14.0379   23.7296 O   0  0  0  0  0  0  0  0  0  0  0  0
   12.1543  -19.7610   23.8440 C   0  0  0  0  0  0  0  0  0  0  0  0
    7.8383  -12.6011   27.0768 C   0  0  2  0  0  0  0  0  0  0  0  0
    6.8794  -13.7676   26.6717 C   0  0  0  0  0  0  0  0  0  0  0  0
    5.5977  -13.0541   26.2989 C   0  0  0  0  0  0  0  0  0  0  0  0
    7.5903  -14.4471   25.5657 C   0  0  1  0  0  0  0  0  0  0  0  0
    8.6972  -15.3397   25.9219 N   0  0  0  0  0  0  0  0  0  0  0  0
    9.2460  -15.9701   24.6994 C   0  0  0  0  0  0  0  0  0  0  0  0
    8.4615  -16.4043   26.8623 O   0  0  0  0  0  0  0  0  0  0  0  0
    7.7936  -17.4440   26.6306 O   0  0  0  0  0  0  0  0  0  0  0  0
  2  1  1  0
  2  3  2  0
  4  2  1  0
  5  4  1  0
  6  5  1  0
  7  6  1  0
  8  7  1  0
  8  9  1  6
 10  8  1  0
 10 12  1  0
 11 10  2  0
 13 12  1  0
 13 14  1  1
 15 14  1  0
 16 15  1  0
 17 16  2  0
 18 19  2  0
 18 13  1  0
 20 16  1  0
 22 21  1  1
 22 24  1  0
 23 22  1  0
 25 24  1  6
 25 26  1  0
 25 27  1  0
 26 18  1  0
 27 29  1  0
 28 27  2  0
M  END
$$$$
