REL.pdb
     RDKit          3D

 29 28  0  0  1  0  0  0  0  0999 V2000
    7.0342  -14.5836   15.7738 N   0  0  0  0  0  0  0  0  0  0  0  0
    8.3709  -14.2973   16.1445 C   0  0  0  0  0  0  0  0  0  0  0  0
    9.3584  -14.8445   15.5052 N   0  0  0  0  0  0  0  0  0  0  0  0
    8.6675  -13.4004   17.2297 N   0  0  0  0  0  0  0  0  0  0  0  0
    7.6638  -13.0245   18.1920 C   0  0  0  0  0  0  0  0  0  0  0  0
    7.3853  -14.1523   19.1567 C   0  0  0  0  0  0  0  0  0  0  0  0
    7.7783  -13.7339   20.5342 C   0  0  0  0  0  0  0  0  0  0  0  0
    9.1906  -14.1569   20.8898 C   0  0  2  0  0  0  0  0  0  0  0  0
    9.8461  -14.8185   19.8055 N   0  0  0  0  0  0  0  0  0  0  0  0
    9.1140  -15.0151   22.1141 C   0  0  0  0  0  0  0  0  0  0  0  0
    8.3923  -14.6496   23.0765 O   0  0  0  0  0  0  0  0  0  0  0  0
   10.3442  -14.6316   15.7657 N   0  0  0  0  0  0  0  0  0  0  0  0
    9.8210  -16.2341   22.2484 C   0  0  1  0  0  0  0  0  0  0  0  0
    9.8293  -17.0100   23.4790 C   0  0  0  0  0  0  0  0  0  0  0  0
   10.5872  -18.3261   23.2648 C   0  0  0  0  0  0  0  0  0  0  0  0
   11.3230  -18.2904   21.9529 C   0  0  0  0  0  0  0  0  0  0  0  0
   12.4148  -19.2853   21.9905 O   0  0  0  0  0  0  0  0  0  0  0  0
   12.6045  -19.9446   23.0408 C   0  0  0  0  0  0  0  0  0  0  0  0
   10.5150  -16.2387   24.5448 O   0  0  0  0  0  0  0  0  0  0  0  0
   11.2064  -15.2438   24.2545 O   0  0  0  0  0  0  0  0  0  0  0  0
   13.2000  -19.4664   20.8705 C   0  0  0  0  0  0  0  0  0  0  0  0
    9.5020  -12.9614   27.8019 C   0  0  2  0  0  0  0  0  0  0  0  0
    8.3006  -13.9142   27.4970 C   0  0  0  0  0  0  0  0  0  0  0  0
    7.2371  -12.9779   26.9648 C   0  0  0  0  0  0  0  0  0  0  0  0
    8.8531  -14.8876   26.5288 C   0  0  2  0  0  0  0  0  0  0  0  0
    9.9942  -15.6987   26.9632 N   0  0  0  0  0  0  0  0  0  0  0  0
   10.3756  -16.6437   25.8885 C   0  0  0  0  0  0  0  0  0  0  0  0
    9.8807  -16.4747   28.1707 O   0  0  0  0  0  0  0  0  0  0  0  0
   10.1894  -16.0761   29.3225 O   0  0  0  0  0  0  0  0  0  0  0  0
  2  1  1  0
  2  3  2  0
  4  2  1  0
  5  4  1  0
  6  5  1  0
  7  6  1  0
  8  7  1  0
  8  9  1  6
 10  8  1  0
 10 12  1  0
 11 10  2  0
 13 12  1  0
 13 14  1  6
 15 14  1  0
 16 15  1  0
 17 16  2  0
 18 19  2  0
 18 13  1  0
 20 16  1  0
 22 21  1  1
 22 24  1  0
 23 22  1  0
 25 24  1  6
 25 26  1  0
 25 27  1  0
 26 18  1  0
 27 29  1  0
 28 27  2  0
M  END
$$$$
