REL.pdb
     RDKit          3D

 29 28  0  0  1  0  0  0  0  0999 V2000
    7.7395  -13.4445   16.6361 N   0  0  0  0  0  0  0  0  0  0  0  0
    8.3654  -12.8927   17.7805 C   0  0  0  0  0  0  0  0  0  0  0  0
    8.6224  -11.6222   17.8368 N   0  0  0  0  0  0  0  0  0  0  0  0
    8.7299  -13.7179   18.9013 N   0  0  0  0  0  0  0  0  0  0  0  0
    8.3582  -15.1080   18.9657 C   0  0  0  0  0  0  0  0  0  0  0  0
    7.6117  -15.4132   20.2423 C   0  0  0  0  0  0  0  0  0  0  0  0
    8.5272  -16.1020   21.1986 C   0  0  0  0  0  0  0  0  0  0  0  0
    7.9614  -17.4162   21.7012 C   0  0  2  0  0  0  0  0  0  0  0  0
    6.6279  -17.6429   21.2390 N   0  0  0  0  0  0  0  0  0  0  0  0
    8.0493  -17.4076   23.1957 C   0  0  0  0  0  0  0  0  0  0  0  0
    7.0818  -16.9653   23.8657 O   0  0  0  0  0  0  0  0  0  0  0  0
    9.1573  -11.2224   18.6361 N   0  0  0  0  0  0  0  0  0  0  0  0
    9.1802  -17.8777   23.9056 C   0  0  2  0  0  0  0  0  0  0  0  0
    9.3068  -17.7671   25.3507 C   0  0  0  0  0  0  0  0  0  0  0  0
   10.4352  -18.6778   25.8502 C   0  0  0  0  0  0  0  0  0  0  0  0
   10.5734  -18.5570   27.3435 C   0  0  0  0  0  0  0  0  0  0  0  0
   10.6064  -19.9123   27.9313 O   0  0  0  0  0  0  0  0  0  0  0  0
   10.5524  -20.9091   27.1714 C   0  0  0  0  0  0  0  0  0  0  0  0
    9.6361  -16.3663   25.7120 O   0  0  0  0  0  0  0  0  0  0  0  0
   10.3808  -15.6871   24.9798 O   0  0  0  0  0  0  0  0  0  0  0  0
   10.6957  -20.0505   29.3012 C   0  0  0  0  0  0  0  0  0  0  0  0
    6.0186  -12.7910   27.1822 C   0  0  2  0  0  0  0  0  0  0  0  0
    7.2501  -13.4817   26.5109 C   0  0  0  0  0  0  0  0  0  0  0  0
    7.6889  -12.4778   25.4667 C   0  0  0  0  0  0  0  0  0  0  0  0
    8.1896  -13.7058   27.6322 C   0  0  2  0  0  0  0  0  0  0  0  0
    9.4245  -14.4403   27.3421 N   0  0  0  0  0  0  0  0  0  0  0  0
    9.0974  -15.8128   26.8921 C   0  0  0  0  0  0  0  0  0  0  0  0
   10.4178  -14.5733   28.3760 O   0  0  0  0  0  0  0  0  0  0  0  0
   11.0153  -13.6196   28.9367 O   0  0  0  0  0  0  0  0  0  0  0  0
  2  1  1  0
  2  3  2  0
  4  2  1  0
  5  4  1  0
  6  5  1  0
  7  6  1  0
  8  7  1  0
  8  9  1  1
 10  8  1  0
 10 12  1  0
 11 10  2  0
 13 12  1  0
 13 14  1  6
 15 14  1  0
 16 15  1  0
 17 16  2  0
 18 19  2  0
 18 13  1  0
 20 16  1  0
 22 21  1  6
 22 24  1  0
 23 22  1  0
 25 24  1  6
 25 26  1  0
 25 27  1  0
 26 18  1  0
 27 29  1  0
 28 27  2  0
M  END
$$$$
