REL.pdb
     RDKit          3D

 29 28  0  0  1  0  0  0  0  0999 V2000
    9.0045  -11.5905   19.6354 N   0  0  0  0  0  0  0  0  0  0  0  0
    8.9173  -12.9826   19.3890 C   0  0  0  0  0  0  0  0  0  0  0  0
    9.8766  -13.7737   19.7596 N   0  0  0  0  0  0  0  0  0  0  0  0
    7.7738  -13.5522   18.7274 N   0  0  0  0  0  0  0  0  0  0  0  0
    6.7345  -14.2242   19.4643 C   0  0  0  0  0  0  0  0  0  0  0  0
    7.1651  -15.6139   19.8683 C   0  0  0  0  0  0  0  0  0  0  0  0
    6.0281  -16.3089   20.5400 C   0  0  0  0  0  0  0  0  0  0  0  0
    6.3724  -17.7290   20.9458 C   0  0  2  0  0  0  0  0  0  0  0  0
    5.3261  -18.6503   20.6302 N   0  0  0  0  0  0  0  0  0  0  0  0
    6.6967  -17.7188   22.4073 C   0  0  0  0  0  0  0  0  0  0  0  0
    5.7671  -17.5787   23.2421 O   0  0  0  0  0  0  0  0  0  0  0  0
    9.8112  -14.8008   19.5997 N   0  0  0  0  0  0  0  0  0  0  0  0
    8.0135  -17.8604   22.9073 C   0  0  2  0  0  0  0  0  0  0  0  0
    8.3352  -17.7596   24.3226 C   0  0  0  0  0  0  0  0  0  0  0  0
    9.5965  -18.5748   24.6336 C   0  0  0  0  0  0  0  0  0  0  0  0
   10.8245  -17.7450   24.3743 C   0  0  0  0  0  0  0  0  0  0  0  0
   12.0218  -18.5839   24.5888 O   0  0  0  0  0  0  0  0  0  0  0  0
   11.8747  -19.7870   24.9124 C   0  0  0  0  0  0  0  0  0  0  0  0
    8.5926  -16.3407   24.6709 O   0  0  0  0  0  0  0  0  0  0  0  0
    9.1665  -15.5887   23.8600 O   0  0  0  0  0  0  0  0  0  0  0  0
   13.2732  -18.0253   24.4285 C   0  0  0  0  0  0  0  0  0  0  0  0
    7.6656  -11.5373   25.6716 C   0  0  2  0  0  0  0  0  0  0  0  0
    7.0340  -12.3623   26.8398 C   0  0  0  0  0  0  0  0  0  0  0  0
    5.6618  -11.7449   27.0032 C   0  0  0  0  0  0  0  0  0  0  0  0
    7.0643  -13.7581   26.3489 C   0  0  1  0  0  0  0  0  0  0  0  0
    8.3629  -14.4378   26.3255 N   0  0  0  0  0  0  0  0  0  0  0  0
    8.1810  -15.8529   25.9286 C   0  0  0  0  0  0  0  0  0  0  0  0
    9.1686  -14.4465   27.5187 O   0  0  0  0  0  0  0  0  0  0  0  0
    9.6161  -13.4260   28.1010 O   0  0  0  0  0  0  0  0  0  0  0  0
  2  1  1  0
  2  3  2  0
  4  2  1  0
  5  4  1  0
  6  5  1  0
  7  6  1  0
  8  7  1  0
  8  9  1  1
 10  8  1  0
 10 12  1  0
 11 10  2  0
 13 12  1  0
 13 14  1  6
 15 14  1  0
 16 15  1  0
 17 16  2  0
 18 19  2  0
 18 13  1  0
 20 16  1  0
 22 21  1  1
 22 24  1  0
 23 22  1  0
 25 24  1  6
 25 26  1  0
 25 27  1  0
 26 18  1  0
 27 29  1  0
 28 27  2  0
M  END
$$$$
