REL.pdb
     RDKit          3D

 29 28  0  0  1  0  0  0  0  0999 V2000
    8.2028  -14.0073   13.0281 N   0  0  0  0  0  0  0  0  0  0  0  0
    8.4549  -14.3625   14.3758 C   0  0  0  0  0  0  0  0  0  0  0  0
    9.0599  -15.4753   14.6567 N   0  0  0  0  0  0  0  0  0  0  0  0
    8.0510  -13.5072   15.4600 N   0  0  0  0  0  0  0  0  0  0  0  0
    8.3576  -13.8314   16.8295 C   0  0  0  0  0  0  0  0  0  0  0  0
    7.2013  -14.5408   17.4928 C   0  0  0  0  0  0  0  0  0  0  0  0
    7.0209  -14.0081   18.8751 C   0  0  0  0  0  0  0  0  0  0  0  0
    8.3378  -13.8283   19.6056 C   0  0  2  0  0  0  0  0  0  0  0  0
    9.4629  -13.9802   18.7372 N   0  0  0  0  0  0  0  0  0  0  0  0
    8.3641  -14.8018   20.7426 C   0  0  0  0  0  0  0  0  0  0  0  0
    7.3264  -14.9690   21.4325 O   0  0  0  0  0  0  0  0  0  0  0  0
    9.1562  -15.7943   15.6435 N   0  0  0  0  0  0  0  0  0  0  0  0
    9.5116  -15.5553   21.0880 C   0  0  1  0  0  0  0  0  0  0  0  0
    9.5801  -16.3871   22.2796 C   0  0  0  0  0  0  0  0  0  0  0  0
   10.8418  -17.2583   22.2398 C   0  0  0  0  0  0  0  0  0  0  0  0
   10.6938  -18.3340   21.1984 C   0  0  0  0  0  0  0  0  0  0  0  0
   11.9308  -19.1415   21.1666 O   0  0  0  0  0  0  0  0  0  0  0  0
   12.0239  -20.1458   21.9127 C   0  0  0  0  0  0  0  0  0  0  0  0
    9.6419  -15.5219   23.4832 O   0  0  0  0  0  0  0  0  0  0  0  0
   10.4557  -14.5802   23.5391 O   0  0  0  0  0  0  0  0  0  0  0  0
   12.9543  -18.7730   20.3179 C   0  0  0  0  0  0  0  0  0  0  0  0
    8.4529  -11.9880   26.6880 C   0  0  2  0  0  0  0  0  0  0  0  0
    7.3550  -13.0924   26.8272 C   0  0  0  0  0  0  0  0  0  0  0  0
    6.0617  -12.3067   26.7974 C   0  0  0  0  0  0  0  0  0  0  0  0
    7.5991  -13.9865   25.6735 C   0  0  1  0  0  0  0  0  0  0  0  0
    8.7295  -14.9152   25.7659 N   0  0  0  0  0  0  0  0  0  0  0  0
    8.7702  -15.7769   24.5622 C   0  0  0  0  0  0  0  0  0  0  0  0
    8.8208  -15.7939   26.9029 O   0  0  0  0  0  0  0  0  0  0  0  0
    8.2724  -16.9214   26.9959 O   0  0  0  0  0  0  0  0  0  0  0  0
  2  1  1  0
  2  3  2  0
  4  2  1  0
  5  4  1  0
  6  5  1  0
  7  6  1  0
  8  7  1  0
  8  9  1  6
 10  8  1  0
 10 12  1  0
 11 10  2  0
 13 12  1  0
 13 14  1  1
 15 14  1  0
 16 15  1  0
 17 16  2  0
 18 19  2  0
 18 13  1  0
 20 16  1  0
 22 21  1  1
 22 24  1  0
 23 22  1  0
 25 24  1  6
 25 26  1  0
 25 27  1  0
 26 18  1  0
 27 29  1  0
 28 27  2  0
M  END
$$$$
