REL.pdb
     RDKit          3D

 29 28  0  0  1  0  0  0  0  0999 V2000
   11.2925  -12.9118   19.6248 N   0  0  0  0  0  0  0  0  0  0  0  0
   10.3999  -13.0762   18.5375 C   0  0  0  0  0  0  0  0  0  0  0  0
   10.6631  -13.9324   17.5989 N   0  0  0  0  0  0  0  0  0  0  0  0
    9.1884  -12.3056   18.4447 N   0  0  0  0  0  0  0  0  0  0  0  0
    8.0095  -12.6628   19.1911 C   0  0  0  0  0  0  0  0  0  0  0  0
    7.8427  -14.1619   19.2606 C   0  0  0  0  0  0  0  0  0  0  0  0
    7.8029  -14.5899   20.6897 C   0  0  0  0  0  0  0  0  0  0  0  0
    7.5743  -16.0812   20.8440 C   0  0  2  0  0  0  0  0  0  0  0  0
    6.2754  -16.4781   20.3987 N   0  0  0  0  0  0  0  0  0  0  0  0
    7.8128  -16.4319   22.2798 C   0  0  0  0  0  0  0  0  0  0  0  0
    6.8525  -16.3904   23.0902 O   0  0  0  0  0  0  0  0  0  0  0  0
   10.0836  -13.9690   16.7342 N   0  0  0  0  0  0  0  0  0  0  0  0
    9.0803  -16.8136   22.7814 C   0  0  2  0  0  0  0  0  0  0  0  0
    9.3081  -17.1465   24.1792 C   0  0  0  0  0  0  0  0  0  0  0  0
   10.5422  -18.0477   24.3099 C   0  0  0  0  0  0  0  0  0  0  0  0
   10.7062  -18.4948   25.7371 C   0  0  0  0  0  0  0  0  0  0  0  0
   11.8946  -19.3678   25.8306 O   0  0  0  0  0  0  0  0  0  0  0  0
   12.7002  -19.2034   26.7782 C   0  0  0  0  0  0  0  0  0  0  0  0
    9.5486  -15.9022   24.9507 O   0  0  0  0  0  0  0  0  0  0  0  0
   10.4654  -15.1258   24.6209 O   0  0  0  0  0  0  0  0  0  0  0  0
   12.0911  -20.3429   24.8744 C   0  0  0  0  0  0  0  0  0  0  0  0
    6.3771  -11.9861   25.5134 C   0  0  1  0  0  0  0  0  0  0  0  0
    7.7247  -12.7730   25.4184 C   0  0  0  0  0  0  0  0  0  0  0  0
    8.7486  -11.6861   25.1715 C   0  0  0  0  0  0  0  0  0  0  0  0
    7.8217  -13.4740   26.7182 C   0  0  2  0  0  0  0  0  0  0  0  0
    8.9375  -14.4071   26.9006 N   0  0  0  0  0  0  0  0  0  0  0  0
    8.7289  -15.6084   26.0601 C   0  0  0  0  0  0  0  0  0  0  0  0
    9.2424  -14.8812   28.2256 O   0  0  0  0  0  0  0  0  0  0  0  0
    9.5599  -14.1555   29.2019 O   0  0  0  0  0  0  0  0  0  0  0  0
  2  1  1  0
  2  3  2  0
  4  2  1  0
  5  4  1  0
  6  5  1  0
  7  6  1  0
  8  7  1  0
  8  9  1  1
 10  8  1  0
 10 12  1  0
 11 10  2  0
 13 12  1  0
 13 14  1  6
 15 14  1  0
 16 15  1  0
 17 16  2  0
 18 19  2  0
 18 13  1  0
 20 16  1  0
 22 21  1  6
 22 24  1  0
 23 22  1  0
 25 24  1  6
 25 26  1  0
 25 27  1  0
 26 18  1  0
 27 29  1  0
 28 27  2  0
M  END
$$$$
