REL.pdb
     RDKit          3D

 29 28  0  0  1  0  0  0  0  0999 V2000
    9.8420  -13.2907   19.7017 N   0  0  0  0  0  0  0  0  0  0  0  0
    8.8866  -12.6840   18.8502 C   0  0  0  0  0  0  0  0  0  0  0  0
    9.1777  -11.5912   18.2143 N   0  0  0  0  0  0  0  0  0  0  0  0
    7.5795  -13.2574   18.6686 N   0  0  0  0  0  0  0  0  0  0  0  0
    7.2489  -14.5589   19.1895 C   0  0  0  0  0  0  0  0  0  0  0  0
    6.9709  -14.4970   20.6724 C   0  0  0  0  0  0  0  0  0  0  0  0
    6.6804  -15.8703   21.1793 C   0  0  0  0  0  0  0  0  0  0  0  0
    7.8725  -16.7997   21.0569 C   0  0  2  0  0  0  0  0  0  0  0  0
    7.5894  -17.9374   20.2392 N   0  0  0  0  0  0  0  0  0  0  0  0
    8.2917  -17.1869   22.4409 C   0  0  0  0  0  0  0  0  0  0  0  0
    7.5318  -17.9106   23.1334 O   0  0  0  0  0  0  0  0  0  0  0  0
    8.4682  -11.1188   17.6156 N   0  0  0  0  0  0  0  0  0  0  0  0
    9.5160  -16.7758   23.0206 C   0  0  2  0  0  0  0  0  0  0  0  0
    9.8868  -17.0949   24.3907 C   0  0  0  0  0  0  0  0  0  0  0  0
   11.2249  -17.8439   24.4116 C   0  0  0  0  0  0  0  0  0  0  0  0
   11.6236  -18.2277   23.0126 C   0  0  0  0  0  0  0  0  0  0  0  0
   12.9089  -18.9548   23.0647 O   0  0  0  0  0  0  0  0  0  0  0  0
   13.9687  -18.3423   22.7896 C   0  0  0  0  0  0  0  0  0  0  0  0
   10.0365  -15.8395   25.1671 O   0  0  0  0  0  0  0  0  0  0  0  0
   10.9320  -15.0237   24.8759 O   0  0  0  0  0  0  0  0  0  0  0  0
   12.9142  -20.2895   23.4143 C   0  0  0  0  0  0  0  0  0  0  0  0
    6.2769  -12.4104   26.0817 C   0  0  1  0  0  0  0  0  0  0  0  0
    7.6264  -13.1349   25.7686 C   0  0  0  0  0  0  0  0  0  0  0  0
    8.4522  -12.0613   25.0932 C   0  0  0  0  0  0  0  0  0  0  0  0
    8.1059  -13.5861   27.0941 C   0  0  2  0  0  0  0  0  0  0  0  0
    9.3182  -14.4095   27.1294 N   0  0  0  0  0  0  0  0  0  0  0  0
    9.1551  -15.5802   26.2371 C   0  0  0  0  0  0  0  0  0  0  0  0
    9.7804  -14.9187   28.3943 O   0  0  0  0  0  0  0  0  0  0  0  0
   10.1216  -14.2163   29.3796 O   0  0  0  0  0  0  0  0  0  0  0  0
  2  1  1  0
  2  3  2  0
  4  2  1  0
  5  4  1  0
  6  5  1  0
  7  6  1  0
  8  7  1  0
  8  9  1  6
 10  8  1  0
 10 12  1  0
 11 10  2  0
 13 12  1  0
 13 14  1  6
 15 14  1  0
 16 15  1  0
 17 16  2  0
 18 19  2  0
 18 13  1  0
 20 16  1  0
 22 21  1  6
 22 24  1  0
 23 22  1  0
 25 24  1  6
 25 26  1  0
 25 27  1  0
 26 18  1  0
 27 29  1  0
 28 27  2  0
M  END
$$$$
