REL.pdb
     RDKit          3D

 29 28  0  0  1  0  0  0  0  0999 V2000
    8.2820  -12.6418   17.2717 N   0  0  0  0  0  0  0  0  0  0  0  0
    8.9653  -12.7400   18.5084 C   0  0  0  0  0  0  0  0  0  0  0  0
    9.8364  -11.8403   18.8476 N   0  0  0  0  0  0  0  0  0  0  0  0
    8.7146  -13.8297   19.4138 N   0  0  0  0  0  0  0  0  0  0  0  0
    7.9675  -14.9915   19.0056 C   0  0  0  0  0  0  0  0  0  0  0  0
    6.5456  -14.9291   19.5099 C   0  0  0  0  0  0  0  0  0  0  0  0
    6.4843  -15.4944   20.8897 C   0  0  0  0  0  0  0  0  0  0  0  0
    6.9841  -16.9247   20.9548 C   0  0  2  0  0  0  0  0  0  0  0  0
    5.9602  -17.8703   20.6375 N   0  0  0  0  0  0  0  0  0  0  0  0
    7.5555  -17.1453   22.3209 C   0  0  0  0  0  0  0  0  0  0  0  0
    6.8023  -17.0572   23.3237 O   0  0  0  0  0  0  0  0  0  0  0  0
   10.3825  -11.9342   19.7295 N   0  0  0  0  0  0  0  0  0  0  0  0
    8.9187  -17.4524   22.5476 C   0  0  2  0  0  0  0  0  0  0  0  0
    9.4972  -17.5378   23.8797 C   0  0  0  0  0  0  0  0  0  0  0  0
   10.9415  -18.0466   23.7932 C   0  0  0  0  0  0  0  0  0  0  0  0
   11.4945  -18.2682   25.1747 C   0  0  0  0  0  0  0  0  0  0  0  0
   12.9067  -18.6882   25.0623 O   0  0  0  0  0  0  0  0  0  0  0  0
   13.4586  -18.6797   23.9357 C   0  0  0  0  0  0  0  0  0  0  0  0
    9.5079  -16.1907   24.5011 O   0  0  0  0  0  0  0  0  0  0  0  0
    9.9313  -15.2078   23.8632 O   0  0  0  0  0  0  0  0  0  0  0  0
   13.5855  -19.0798   26.1979 C   0  0  0  0  0  0  0  0  0  0  0  0
    8.0564  -11.7408   26.1276 C   0  0  2  0  0  0  0  0  0  0  0  0
    7.3903  -12.8423   27.0149 C   0  0  0  0  0  0  0  0  0  0  0  0
    5.9385  -12.4180   27.0694 C   0  0  0  0  0  0  0  0  0  0  0  0
    7.6724  -14.1026   26.2920 C   0  0  1  0  0  0  0  0  0  0  0  0
    8.9881  -14.7166   26.4932 N   0  0  0  0  0  0  0  0  0  0  0  0
    9.0342  -16.0351   25.8204 C   0  0  0  0  0  0  0  0  0  0  0  0
    9.4643  -14.9243   27.8361 O   0  0  0  0  0  0  0  0  0  0  0  0
    9.8040  -14.0153   28.6355 O   0  0  0  0  0  0  0  0  0  0  0  0
  2  1  1  0
  2  3  2  0
  4  2  1  0
  5  4  1  0
  6  5  1  0
  7  6  1  0
  8  7  1  0
  8  9  1  1
 10  8  1  0
 10 12  1  0
 11 10  2  0
 13 12  1  0
 13 14  1  6
 15 14  1  0
 16 15  1  0
 17 16  2  0
 18 19  2  0
 18 13  1  0
 20 16  1  0
 22 21  1  1
 22 24  1  0
 23 22  1  0
 25 24  1  6
 25 26  1  0
 25 27  1  0
 26 18  1  0
 27 29  1  0
 28 27  2  0
M  END
$$$$
