PDG.pdb
     RDKit          3D

 20 20  0  0  1  0  0  0  0  0999 V2000
    9.1980  -14.5868   18.8397 N   0  0  0  0  0  0  0  0  0  0  0  0
    8.8908  -13.6737   17.7454 C   0  0  0  0  0  0  0  0  0  0  0  0
    7.9083  -12.6611   18.2680 C   0  0  0  0  0  0  0  0  0  0  0  0
    7.5341  -13.2471   19.6223 C   0  0  0  0  0  0  0  0  0  0  0  0
    8.9053  -13.8130   20.0370 C   0  0  1  0  0  0  0  0  0  0  0  0
    8.8291  -14.6317   21.2410 C   0  0  0  0  0  0  0  0  0  0  0  0
    8.3524  -14.1585   22.2958 O   0  0  0  0  0  0  0  0  0  0  0  0
    9.2916  -15.9633   21.2256 N   0  0  0  0  0  0  0  0  0  0  0  0
    9.1102  -16.7832   22.4813 C   0  0  1  0  0  0  0  0  0  0  0  0
    8.8362  -18.1905   21.9946 C   0  0  0  0  0  0  0  0  0  0  0  0
    7.6873  -18.3390   21.1373 C   0  0  0  0  0  0  0  0  0  0  0  0
    6.5718  -17.8434   21.3453 O   0  0  0  0  0  0  0  0  0  0  0  0
   10.4336  -16.7070   23.1175 C   0  0  0  0  0  0  0  0  0  0  0  0
   10.5539  -17.1834   24.2966 O   0  0  0  0  0  0  0  0  0  0  0  0
    7.8248  -19.1064   19.9612 O   0  0  0  0  0  0  0  0  0  0  0  0
   11.6151  -16.1603   22.5616 N   0  0  0  0  0  0  0  0  0  0  0  0
   12.8763  -16.2839   23.3184 C   0  0  0  0  0  0  0  0  0  0  0  0
   14.0155  -15.7504   22.5669 C   0  0  0  0  0  0  0  0  0  0  0  0
   15.0528  -15.4051   23.1782 O   0  0  0  0  0  0  0  0  0  0  0  0
   13.9599  -15.6245   21.2001 O   0  0  0  0  0  0  0  0  0  0  0  0
  1  5  1  0
  2  1  1  0
  2  3  1  0
  3  4  1  0
  5  4  1  0
  6  7  2  0
  5  6  1  1
  8  6  1  0
  9  8  1  0
  9 10  1  6
 10 11  1  0
 11 12  2  0
 11 15  1  0
 13  9  1  0
 14 13  2  0
 16 13  1  0
 17 16  1  0
 18 20  1  0
 18 17  1  0
 19 18  2  0
M  END
$$$$
