PDG.pdb
     RDKit          3D

 20 20  0  0  1  0  0  0  0  0999 V2000
    9.2660  -14.2895   18.2353 N   0  0  0  0  0  0  0  0  0  0  0  0
    8.5795  -13.4883   17.2291 C   0  0  0  0  0  0  0  0  0  0  0  0
    7.4091  -12.8264   17.9043 C   0  0  0  0  0  0  0  0  0  0  0  0
    7.3827  -13.5245   19.2569 C   0  0  0  0  0  0  0  0  0  0  0  0
    8.8980  -13.6627   19.4962 C   0  0  1  0  0  0  0  0  0  0  0  0
    9.2055  -14.4907   20.6562 C   0  0  0  0  0  0  0  0  0  0  0  0
    8.7383  -14.2006   21.7792 O   0  0  0  0  0  0  0  0  0  0  0  0
   10.0316  -15.6250   20.5209 N   0  0  0  0  0  0  0  0  0  0  0  0
   10.3114  -16.4407   21.7613 C   0  0  1  0  0  0  0  0  0  0  0  0
   10.3824  -17.8744   21.2800 C   0  0  0  0  0  0  0  0  0  0  0  0
    9.1970  -18.3703   20.6273 C   0  0  0  0  0  0  0  0  0  0  0  0
    8.0659  -18.4044   21.1298 O   0  0  0  0  0  0  0  0  0  0  0  0
   11.6422  -15.9688   22.1714 C   0  0  0  0  0  0  0  0  0  0  0  0
   12.1385  -16.4515   23.2450 O   0  0  0  0  0  0  0  0  0  0  0  0
    9.3142  -18.8598   19.3090 O   0  0  0  0  0  0  0  0  0  0  0  0
   12.4560  -15.0262   21.4983 N   0  0  0  0  0  0  0  0  0  0  0  0
   13.7688  -14.6822   22.0788 C   0  0  0  0  0  0  0  0  0  0  0  0
   14.8292  -15.5647   21.5852 C   0  0  0  0  0  0  0  0  0  0  0  0
   16.0226  -15.3218   21.8781 O   0  0  0  0  0  0  0  0  0  0  0  0
   14.5307  -16.6554   20.8051 O   0  0  0  0  0  0  0  0  0  0  0  0
  1  5  1  0
  2  1  1  0
  2  3  1  0
  3  4  1  0
  5  4  1  0
  6  7  2  0
  5  6  1  1
  8  6  1  0
  9  8  1  0
  9 10  1  6
 10 11  1  0
 11 12  2  0
 11 15  1  0
 13  9  1  0
 14 13  2  0
 16 13  1  0
 17 16  1  0
 18 20  1  0
 18 17  1  0
 19 18  2  0
M  END
$$$$
