PDG.pdb
     RDKit          3D

 20 20  0  0  1  0  0  0  0  0999 V2000
    8.7745  -14.3991   18.2001 N   0  0  0  0  0  0  0  0  0  0  0  0
    7.8612  -13.4963   17.5098 C   0  0  0  0  0  0  0  0  0  0  0  0
    6.9851  -12.8591   18.5540 C   0  0  0  0  0  0  0  0  0  0  0  0
    7.3293  -13.6672   19.7975 C   0  0  0  0  0  0  0  0  0  0  0  0
    8.8367  -13.8698   19.5544 C   0  0  1  0  0  0  0  0  0  0  0  0
    9.4339  -14.8009   20.5041 C   0  0  0  0  0  0  0  0  0  0  0  0
    9.3364  -14.5960   21.7338 O   0  0  0  0  0  0  0  0  0  0  0  0
   10.1255  -15.9398   20.0438 N   0  0  0  0  0  0  0  0  0  0  0  0
   10.5259  -16.9777   21.0657 C   0  0  1  0  0  0  0  0  0  0  0  0
   10.8659  -18.2125   20.2582 C   0  0  0  0  0  0  0  0  0  0  0  0
    9.7701  -19.1159   20.0132 C   0  0  0  0  0  0  0  0  0  0  0  0
    8.6354  -18.7806   19.6485 O   0  0  0  0  0  0  0  0  0  0  0  0
   11.7406  -16.4012   21.6608 C   0  0  0  0  0  0  0  0  0  0  0  0
   12.3606  -15.5050   20.9942 O   0  0  0  0  0  0  0  0  0  0  0  0
    9.9884  -20.4978   20.1973 O   0  0  0  0  0  0  0  0  0  0  0  0
   12.3117  -16.7272   22.9144 N   0  0  0  0  0  0  0  0  0  0  0  0
   13.4570  -15.9319   23.3987 C   0  0  0  0  0  0  0  0  0  0  0  0
   13.8538  -16.3206   24.7546 C   0  0  0  0  0  0  0  0  0  0  0  0
   13.1884  -17.1852   25.3700 O   0  0  0  0  0  0  0  0  0  0  0  0
   14.9466  -15.7484   25.3592 O   0  0  0  0  0  0  0  0  0  0  0  0
  1  5  1  0
  2  1  1  0
  2  3  1  0
  3  4  1  0
  5  4  1  0
  6  7  2  0
  5  6  1  1
  8  6  1  0
  9  8  1  0
  9 10  1  6
 10 11  1  0
 11 12  2  0
 11 15  1  0
 13  9  1  0
 14 13  2  0
 16 13  1  0
 17 16  1  0
 18 20  1  0
 18 17  1  0
 19 18  2  0
M  END
$$$$
