PDG.pdb
     RDKit          3D

 20 20  0  0  1  0  0  0  0  0999 V2000
    7.7370  -14.6828   19.3106 N   0  0  0  0  0  0  0  0  0  0  0  0
    7.3290  -13.3334   18.9387 C   0  0  0  0  0  0  0  0  0  0  0  0
    7.7544  -12.4133   20.0506 C   0  0  0  0  0  0  0  0  0  0  0  0
    8.1846  -13.3949   21.1318 C   0  0  0  0  0  0  0  0  0  0  0  0
    8.8331  -14.4746   20.2451 C   0  0  1  0  0  0  0  0  0  0  0  0
    9.1801  -15.6762   20.9944 C   0  0  0  0  0  0  0  0  0  0  0  0
    8.2827  -16.4438   21.4053 O   0  0  0  0  0  0  0  0  0  0  0  0
   10.5302  -15.9824   21.2611 N   0  0  0  0  0  0  0  0  0  0  0  0
   10.8278  -17.2857   21.9645 C   0  0  1  0  0  0  0  0  0  0  0  0
   12.1381  -17.7603   21.3727 C   0  0  0  0  0  0  0  0  0  0  0  0
   12.0525  -18.3347   20.0538 C   0  0  0  0  0  0  0  0  0  0  0  0
   11.2487  -19.2103   19.7065 O   0  0  0  0  0  0  0  0  0  0  0  0
   11.0150  -16.8694   23.3622 C   0  0  0  0  0  0  0  0  0  0  0  0
   11.4115  -15.6743   23.5778 O   0  0  0  0  0  0  0  0  0  0  0  0
   12.9473  -17.8748   19.0644 O   0  0  0  0  0  0  0  0  0  0  0  0
   10.7977  -17.6537   24.5205 N   0  0  0  0  0  0  0  0  0  0  0  0
   10.9717  -17.0243   25.8442 C   0  0  0  0  0  0  0  0  0  0  0  0
   10.8104  -17.9930   26.9318 C   0  0  0  0  0  0  0  0  0  0  0  0
   11.0819  -17.6546   28.1069 O   0  0  0  0  0  0  0  0  0  0  0  0
   10.3652  -19.2676   26.6786 O   0  0  0  0  0  0  0  0  0  0  0  0
  1  5  1  0
  2  1  1  0
  2  3  1  0
  3  4  1  0
  5  4  1  0
  6  7  2  0
  5  6  1  1
  8  6  1  0
  9  8  1  0
  9 10  1  6
 10 11  1  0
 11 12  2  0
 11 15  1  0
 13  9  1  0
 14 13  2  0
 16 13  1  0
 17 16  1  0
 18 20  1  0
 18 17  1  0
 19 18  2  0
M  END
$$$$
