PDG.pdb
     RDKit          3D

 20 20  0  0  1  0  0  0  0  0999 V2000
    9.0671  -14.3614   18.4125 N   0  0  0  0  0  0  0  0  0  0  0  0
    8.3059  -13.5166   17.5000 C   0  0  0  0  0  0  0  0  0  0  0  0
    7.1644  -12.9256   18.2822 C   0  0  0  0  0  0  0  0  0  0  0  0
    7.2327  -13.7057   19.5876 C   0  0  0  0  0  0  0  0  0  0  0  0
    8.7620  -13.8221   19.7294 C   0  0  1  0  0  0  0  0  0  0  0  0
    9.1547  -14.7120   20.8154 C   0  0  0  0  0  0  0  0  0  0  0  0
    8.8060  -14.4644   21.9904 O   0  0  0  0  0  0  0  0  0  0  0  0
    9.9302  -15.8589   20.5495 N   0  0  0  0  0  0  0  0  0  0  0  0
   10.2389  -16.7803   21.7060 C   0  0  1  0  0  0  0  0  0  0  0  0
   10.3605  -18.1574   21.0886 C   0  0  0  0  0  0  0  0  0  0  0  0
   10.5230  -19.2443   22.0208 C   0  0  0  0  0  0  0  0  0  0  0  0
    9.6266  -20.0210   22.3763 O   0  0  0  0  0  0  0  0  0  0  0  0
   11.5522  -16.3038   22.1643 C   0  0  0  0  0  0  0  0  0  0  0  0
   12.3938  -15.9371   21.2760 O   0  0  0  0  0  0  0  0  0  0  0  0
   11.7992  -19.4575   22.5840 O   0  0  0  0  0  0  0  0  0  0  0  0
   11.9995  -16.1975   23.5031 N   0  0  0  0  0  0  0  0  0  0  0  0
   13.2558  -15.4715   23.7740 C   0  0  0  0  0  0  0  0  0  0  0  0
   14.3612  -16.3883   24.0652 C   0  0  0  0  0  0  0  0  0  0  0  0
   14.1639  -17.6248   24.0339 O   0  0  0  0  0  0  0  0  0  0  0  0
   15.6112  -15.9083   24.3719 O   0  0  0  0  0  0  0  0  0  0  0  0
  1  5  1  0
  2  1  1  0
  2  3  1  0
  3  4  1  0
  5  4  1  0
  6  7  2  0
  5  6  1  1
  8  6  1  0
  9  8  1  0
  9 10  1  6
 10 11  1  0
 11 12  2  0
 11 15  1  0
 13  9  1  0
 14 13  2  0
 16 13  1  0
 17 16  1  0
 18 20  1  0
 18 17  1  0
 19 18  2  0
M  END
$$$$
