PDG.pdb
     RDKit          3D

 20 20  0  0  1  0  0  0  0  0999 V2000
   11.2327  -20.8575   23.5971 N   0  0  0  0  0  0  0  0  0  0  0  0
   10.5812  -20.8296   22.2931 C   0  0  0  0  0  0  0  0  0  0  0  0
   10.2914  -22.2543   21.9056 C   0  0  0  0  0  0  0  0  0  0  0  0
   11.0513  -23.0363   22.9679 C   0  0  0  0  0  0  0  0  0  0  0  0
   10.8010  -22.1193   24.1798 C   0  0  1  0  0  0  0  0  0  0  0  0
   11.5869  -22.5084   25.3446 C   0  0  0  0  0  0  0  0  0  0  0  0
   11.1758  -23.4072   26.1106 O   0  0  0  0  0  0  0  0  0  0  0  0
   12.8166  -21.8749   25.6162 N   0  0  0  0  0  0  0  0  0  0  0  0
   13.6274  -22.3885   26.7827 C   0  0  1  0  0  0  0  0  0  0  0  0
   15.0680  -22.3109   26.3234 C   0  0  0  0  0  0  0  0  0  0  0  0
   16.0298  -22.9540   27.1826 C   0  0  0  0  0  0  0  0  0  0  0  0
   16.0189  -22.9179   28.4203 O   0  0  0  0  0  0  0  0  0  0  0  0
   13.3663  -21.3895   27.8295 C   0  0  0  0  0  0  0  0  0  0  0  0
   13.7067  -20.1809   27.5950 O   0  0  0  0  0  0  0  0  0  0  0  0
   17.0751  -23.6893   26.5844 O   0  0  0  0  0  0  0  0  0  0  0  0
   12.7647  -21.6156   29.0908 N   0  0  0  0  0  0  0  0  0  0  0  0
   12.6137  -20.4763   30.0172 C   0  0  0  0  0  0  0  0  0  0  0  0
   12.0115  -20.8861   31.2887 C   0  0  0  0  0  0  0  0  0  0  0  0
   11.5816  -22.0550   31.4213 O   0  0  0  0  0  0  0  0  0  0  0  0
   11.9128  -20.0039   32.3371 O   0  0  0  0  0  0  0  0  0  0  0  0
  1  5  1  0
  2  1  1  0
  2  3  1  0
  3  4  1  0
  5  4  1  0
  6  7  2  0
  5  6  1  1
  8  6  1  0
  9  8  1  0
  9 10  1  6
 10 11  1  0
 11 12  2  0
 11 15  1  0
 13  9  1  0
 14 13  2  0
 16 13  1  0
 17 16  1  0
 18 20  1  0
 18 17  1  0
 19 18  2  0
M  END
$$$$
