PDG.pdb
     RDKit          3D

 20 20  0  0  1  0  0  0  0  0999 V2000
    8.4082  -13.8143   20.1201 N   0  0  0  0  0  0  0  0  0  0  0  0
    7.2657  -12.9461   19.8617 C   0  0  0  0  0  0  0  0  0  0  0  0
    7.3376  -12.5274   18.4182 C   0  0  0  0  0  0  0  0  0  0  0  0
    8.7159  -13.0268   18.0080 C   0  0  0  0  0  0  0  0  0  0  0  0
    8.7535  -14.3422   18.8086 C   0  0  1  0  0  0  0  0  0  0  0  0
   10.0657  -14.9767   18.7763 C   0  0  0  0  0  0  0  0  0  0  0  0
   10.3470  -15.7972   17.8757 O   0  0  0  0  0  0  0  0  0  0  0  0
   11.0280  -14.6699   19.7599 N   0  0  0  0  0  0  0  0  0  0  0  0
   12.3721  -15.3526   19.6630 C   0  0  1  0  0  0  0  0  0  0  0  0
   13.2772  -14.3426   18.9899 C   0  0  0  0  0  0  0  0  0  0  0  0
   13.9881  -14.8205   17.8309 C   0  0  0  0  0  0  0  0  0  0  0  0
   15.0929  -15.3793   17.8504 O   0  0  0  0  0  0  0  0  0  0  0  0
   12.7540  -15.5276   21.0721 C   0  0  0  0  0  0  0  0  0  0  0  0
   12.6912  -14.5054   21.8356 O   0  0  0  0  0  0  0  0  0  0  0  0
   13.3934  -14.6477   16.5630 O   0  0  0  0  0  0  0  0  0  0  0  0
   13.1872  -16.7230   21.6944 N   0  0  0  0  0  0  0  0  0  0  0  0
   13.4125  -16.7198   23.1532 C   0  0  0  0  0  0  0  0  0  0  0  0
   14.8096  -16.4297   23.4866 C   0  0  0  0  0  0  0  0  0  0  0  0
   15.6430  -16.2612   22.5667 O   0  0  0  0  0  0  0  0  0  0  0  0
   15.2167  -16.3402   24.7955 O   0  0  0  0  0  0  0  0  0  0  0  0
  1  5  1  0
  2  1  1  0
  2  3  1  0
  3  4  1  0
  5  4  1  0
  6  7  2  0
  5  6  1  1
  8  6  1  0
  9  8  1  0
  9 10  1  6
 10 11  1  0
 11 12  2  0
 11 15  1  0
 13  9  1  0
 14 13  2  0
 16 13  1  0
 17 16  1  0
 18 20  1  0
 18 17  1  0
 19 18  2  0
M  END
$$$$
