PDG.pdb
     RDKit          3D

 20 20  0  0  1  0  0  0  0  0999 V2000
    9.0321  -13.5750   20.0890 N   0  0  0  0  0  0  0  0  0  0  0  0
    8.3506  -12.3925   19.5762 C   0  0  0  0  0  0  0  0  0  0  0  0
    6.9220  -12.7796   19.3059 C   0  0  0  0  0  0  0  0  0  0  0  0
    6.9627  -14.2921   19.4733 C   0  0  0  0  0  0  0  0  0  0  0  0
    7.9594  -14.3871   20.6437 C   0  0  1  0  0  0  0  0  0  0  0  0
    8.3667  -15.7598   20.9186 C   0  0  0  0  0  0  0  0  0  0  0  0
    7.5364  -16.5890   21.3505 O   0  0  0  0  0  0  0  0  0  0  0  0
    9.6996  -16.1632   20.6992 N   0  0  0  0  0  0  0  0  0  0  0  0
   10.0635  -17.5914   21.0306 C   0  0  1  0  0  0  0  0  0  0  0  0
   10.9636  -18.0395   19.8986 C   0  0  0  0  0  0  0  0  0  0  0  0
   11.4539  -19.3914   19.9924 C   0  0  0  0  0  0  0  0  0  0  0  0
   10.7817  -20.3731   20.3353 O   0  0  0  0  0  0  0  0  0  0  0  0
   10.8326  -17.4538   22.2762 C   0  0  0  0  0  0  0  0  0  0  0  0
   11.2277  -18.5239   22.8514 O   0  0  0  0  0  0  0  0  0  0  0  0
   12.8058  -19.6367   19.6708 O   0  0  0  0  0  0  0  0  0  0  0  0
   11.1975  -16.2485   22.9226 N   0  0  0  0  0  0  0  0  0  0  0  0
   11.8978  -16.3250   24.2197 C   0  0  0  0  0  0  0  0  0  0  0  0
   13.3530  -16.2732   24.0555 C   0  0  0  0  0  0  0  0  0  0  0  0
   13.8474  -16.3105   22.9052 O   0  0  0  0  0  0  0  0  0  0  0  0
   14.1816  -16.1842   25.1475 O   0  0  0  0  0  0  0  0  0  0  0  0
  1  5  1  0
  2  1  1  0
  2  3  1  0
  3  4  1  0
  5  4  1  0
  6  7  2  0
  5  6  1  6
  8  6  1  0
  9  8  1  0
  9 10  1  6
 10 11  1  0
 11 12  2  0
 11 15  1  0
 13  9  1  0
 14 13  2  0
 16 13  1  0
 17 16  1  0
 18 20  1  0
 18 17  1  0
 19 18  2  0
M  END
$$$$
