PDG.pdb
     RDKit          3D

 20 20  0  0  1  0  0  0  0  0999 V2000
    9.4917  -13.4078   19.6168 N   0  0  0  0  0  0  0  0  0  0  0  0
    8.8617  -12.1953   19.1083 C   0  0  0  0  0  0  0  0  0  0  0  0
    7.4089  -12.5087   18.8739 C   0  0  0  0  0  0  0  0  0  0  0  0
    7.3738  -14.0198   19.0548 C   0  0  0  0  0  0  0  0  0  0  0  0
    8.3908  -14.1575   20.2033 C   0  0  1  0  0  0  0  0  0  0  0  0
    8.7315  -15.5475   20.4820 C   0  0  0  0  0  0  0  0  0  0  0  0
    7.8537  -16.3438   20.8805 O   0  0  0  0  0  0  0  0  0  0  0  0
   10.0531  -16.0048   20.3039 N   0  0  0  0  0  0  0  0  0  0  0  0
   10.3460  -17.4491   20.6361 C   0  0  1  0  0  0  0  0  0  0  0  0
   11.1832  -17.9552   19.4805 C   0  0  0  0  0  0  0  0  0  0  0  0
   10.4977  -18.0643   18.2175 C   0  0  0  0  0  0  0  0  0  0  0  0
    9.5311  -18.8043   17.9907 O   0  0  0  0  0  0  0  0  0  0  0  0
   11.1606  -17.3469   21.8559 C   0  0  0  0  0  0  0  0  0  0  0  0
   11.5463  -18.4338   22.4051 O   0  0  0  0  0  0  0  0  0  0  0  0
   10.9488  -17.2717   17.1407 O   0  0  0  0  0  0  0  0  0  0  0  0
   11.5797  -16.1595   22.5027 N   0  0  0  0  0  0  0  0  0  0  0  0
   12.4112  -16.2708   23.7171 C   0  0  0  0  0  0  0  0  0  0  0  0
   13.8332  -16.0763   23.4217 C   0  0  0  0  0  0  0  0  0  0  0  0
   14.2282  -16.1082   22.2334 O   0  0  0  0  0  0  0  0  0  0  0  0
   14.7386  -15.8593   24.4318 O   0  0  0  0  0  0  0  0  0  0  0  0
  1  5  1  0
  2  1  1  0
  2  3  1  0
  3  4  1  0
  5  4  1  0
  6  7  2  0
  5  6  1  6
  8  6  1  0
  9  8  1  0
  9 10  1  6
 10 11  1  0
 11 12  2  0
 11 15  1  0
 13  9  1  0
 14 13  2  0
 16 13  1  0
 17 16  1  0
 18 20  1  0
 18 17  1  0
 19 18  2  0
M  END
$$$$
