PDG.pdb
     RDKit          3D

 20 20  0  0  1  0  0  0  0  0999 V2000
    7.4554  -14.6735   19.7940 N   0  0  0  0  0  0  0  0  0  0  0  0
    6.9845  -13.8312   18.7011 C   0  0  0  0  0  0  0  0  0  0  0  0
    7.8479  -12.5991   18.6799 C   0  0  0  0  0  0  0  0  0  0  0  0
    8.6326  -12.7354   19.9772 C   0  0  0  0  0  0  0  0  0  0  0  0
    8.8381  -14.2619   19.9857 C   0  0  1  0  0  0  0  0  0  0  0  0
    9.4073  -14.7404   21.2398 C   0  0  0  0  0  0  0  0  0  0  0  0
    8.9603  -14.3286   22.3325 O   0  0  0  0  0  0  0  0  0  0  0  0
   10.4659  -15.6714   21.2304 N   0  0  0  0  0  0  0  0  0  0  0  0
   11.0736  -16.0557   22.5589 C   0  0  1  0  0  0  0  0  0  0  0  0
   10.5178  -17.4312   22.8611 C   0  0  0  0  0  0  0  0  0  0  0  0
   11.0306  -18.0609   24.0517 C   0  0  0  0  0  0  0  0  0  0  0  0
   11.7357  -19.0785   24.0747 O   0  0  0  0  0  0  0  0  0  0  0  0
   12.5094  -16.1365   22.2524 C   0  0  0  0  0  0  0  0  0  0  0  0
   12.8455  -16.4089   21.0505 O   0  0  0  0  0  0  0  0  0  0  0  0
   10.7154  -17.4861   25.3013 O   0  0  0  0  0  0  0  0  0  0  0  0
   13.5843  -15.9385   23.1520 N   0  0  0  0  0  0  0  0  0  0  0  0
   14.9644  -16.0265   22.6358 C   0  0  0  0  0  0  0  0  0  0  0  0
   15.9506  -15.6632   23.6569 C   0  0  0  0  0  0  0  0  0  0  0  0
   15.5620  -15.3050   24.7925 O   0  0  0  0  0  0  0  0  0  0  0  0
   17.2961  -15.7106   23.3840 O   0  0  0  0  0  0  0  0  0  0  0  0
  1  5  1  0
  2  1  1  0
  2  3  1  0
  3  4  1  0
  5  4  1  0
  6  7  2  0
  5  6  1  1
  8  6  1  0
  9  8  1  0
  9 10  1  6
 10 11  1  0
 11 12  2  0
 11 15  1  0
 13  9  1  0
 14 13  2  0
 16 13  1  0
 17 16  1  0
 18 20  1  0
 18 17  1  0
 19 18  2  0
M  END
$$$$
