PDG.pdb
     RDKit          3D

 20 20  0  0  1  0  0  0  0  0999 V2000
    9.3191  -12.8554   19.0467 N   0  0  0  0  0  0  0  0  0  0  0  0
    8.0464  -12.2042   18.7604 C   0  0  0  0  0  0  0  0  0  0  0  0
    6.9761  -13.2593   18.8328 C   0  0  0  0  0  0  0  0  0  0  0  0
    7.7942  -14.5395   18.9284 C   0  0  0  0  0  0  0  0  0  0  0  0
    8.9471  -14.0336   19.8157 C   0  0  1  0  0  0  0  0  0  0  0  0
   10.0285  -15.0046   19.9312 C   0  0  0  0  0  0  0  0  0  0  0  0
    9.7885  -16.1739   20.3035 O   0  0  0  0  0  0  0  0  0  0  0  0
   11.3532  -14.6331   19.6235 N   0  0  0  0  0  0  0  0  0  0  0  0
   12.4274  -15.6859   19.7641 C   0  0  1  0  0  0  0  0  0  0  0  0
   13.5988  -15.1604   18.9615 C   0  0  0  0  0  0  0  0  0  0  0  0
   13.5062  -15.3421   17.5349 C   0  0  0  0  0  0  0  0  0  0  0  0
   13.3099  -14.4391   16.7108 O   0  0  0  0  0  0  0  0  0  0  0  0
   12.7327  -15.6536   21.2021 C   0  0  0  0  0  0  0  0  0  0  0  0
   13.2516  -14.5865   21.6751 O   0  0  0  0  0  0  0  0  0  0  0  0
   13.6488  -16.6466   17.0159 O   0  0  0  0  0  0  0  0  0  0  0  0
   12.5093  -16.6873   22.1431 N   0  0  0  0  0  0  0  0  0  0  0  0
   12.7469  -16.4065   23.5726 C   0  0  0  0  0  0  0  0  0  0  0  0
   14.0568  -16.8947   24.0118 C   0  0  0  0  0  0  0  0  0  0  0  0
   14.8106  -17.4670   23.1912 O   0  0  0  0  0  0  0  0  0  0  0  0
   14.4684  -16.7326   25.3123 O   0  0  0  0  0  0  0  0  0  0  0  0
  1  5  1  0
  2  1  1  0
  2  3  1  0
  3  4  1  0
  5  4  1  0
  6  7  2  0
  5  6  1  6
  8  6  1  0
  9  8  1  0
  9 10  1  6
 10 11  1  0
 11 12  2  0
 11 15  1  0
 13  9  1  0
 14 13  2  0
 16 13  1  0
 17 16  1  0
 18 20  1  0
 18 17  1  0
 19 18  2  0
M  END
$$$$
