PDG.pdb
     RDKit          3D

 20 20  0  0  1  0  0  0  0  0999 V2000
    9.4617  -13.8884   19.1683 N   0  0  0  0  0  0  0  0  0  0  0  0
    8.7432  -12.8354   18.4608 C   0  0  0  0  0  0  0  0  0  0  0  0
    7.3210  -12.8546   18.9517 C   0  0  0  0  0  0  0  0  0  0  0  0
    7.2821  -14.1370   19.7710 C   0  0  0  0  0  0  0  0  0  0  0  0
    8.6923  -14.0818   20.3883 C   0  0  1  0  0  0  0  0  0  0  0  0
    9.0400  -15.3095   21.0937 C   0  0  0  0  0  0  0  0  0  0  0  0
    8.2899  -15.7560   21.9889 O   0  0  0  0  0  0  0  0  0  0  0  0
   10.2244  -16.0031   20.7718 N   0  0  0  0  0  0  0  0  0  0  0  0
   10.4602  -17.3365   21.4414 C   0  0  1  0  0  0  0  0  0  0  0  0
   11.5937  -17.9709   20.6635 C   0  0  0  0  0  0  0  0  0  0  0  0
   11.2684  -18.3938   19.3248 C   0  0  0  0  0  0  0  0  0  0  0  0
   10.2953  -19.0930   19.0128 O   0  0  0  0  0  0  0  0  0  0  0  0
   10.9108  -16.9531   22.7874 C   0  0  0  0  0  0  0  0  0  0  0  0
   11.7532  -15.9974   22.8818 O   0  0  0  0  0  0  0  0  0  0  0  0
   12.1143  -17.9878   18.2708 O   0  0  0  0  0  0  0  0  0  0  0  0
   10.5075  -17.5286   24.0163 N   0  0  0  0  0  0  0  0  0  0  0  0
   11.0701  -16.9881   25.2693 C   0  0  0  0  0  0  0  0  0  0  0  0
   11.6255  -18.0467   26.1167 C   0  0  0  0  0  0  0  0  0  0  0  0
   11.6728  -19.2222   25.6868 O   0  0  0  0  0  0  0  0  0  0  0  0
   12.0950  -17.7657   27.3767 O   0  0  0  0  0  0  0  0  0  0  0  0
  1  5  1  0
  2  1  1  0
  2  3  1  0
  3  4  1  0
  5  4  1  0
  6  7  2  0
  5  6  1  6
  8  6  1  0
  9  8  1  0
  9 10  1  6
 10 11  1  0
 11 12  2  0
 11 15  1  0
 13  9  1  0
 14 13  2  0
 16 13  1  0
 17 16  1  0
 18 20  1  0
 18 17  1  0
 19 18  2  0
M  END
$$$$
