PDG.pdb
     RDKit          3D

 20 20  0  0  1  0  0  0  0  0999 V2000
    8.5743  -14.6039   18.3717 N   0  0  0  0  0  0  0  0  0  0  0  0
    8.0567  -13.7309   17.3250 C   0  0  0  0  0  0  0  0  0  0  0  0
    7.2662  -12.6422   17.9986 C   0  0  0  0  0  0  0  0  0  0  0  0
    7.1963  -13.1394   19.4358 C   0  0  0  0  0  0  0  0  0  0  0  0
    8.6022  -13.7571   19.5550 C   0  0  1  0  0  0  0  0  0  0  0  0
    8.7769  -14.5099   20.7913 C   0  0  0  0  0  0  0  0  0  0  0  0
    8.6631  -13.9392   21.8981 O   0  0  0  0  0  0  0  0  0  0  0  0
    9.0750  -15.8871   20.7489 N   0  0  0  0  0  0  0  0  0  0  0  0
    9.1874  -16.6211   22.0644 C   0  0  1  0  0  0  0  0  0  0  0  0
    8.8694  -18.0646   21.7365 C   0  0  0  0  0  0  0  0  0  0  0  0
    8.9820  -18.9908   22.8348 C   0  0  0  0  0  0  0  0  0  0  0  0
    8.3826  -18.8957   23.9141 O   0  0  0  0  0  0  0  0  0  0  0  0
   10.6103  -16.4717   22.4034 C   0  0  0  0  0  0  0  0  0  0  0  0
   11.4557  -16.5082   21.4464 O   0  0  0  0  0  0  0  0  0  0  0  0
    9.8386  -20.1025   22.6874 O   0  0  0  0  0  0  0  0  0  0  0  0
   11.1630  -16.2832   23.6930 N   0  0  0  0  0  0  0  0  0  0  0  0
   12.5738  -15.8636   23.8040 C   0  0  0  0  0  0  0  0  0  0  0  0
   13.4388  -16.9707   24.2203 C   0  0  0  0  0  0  0  0  0  0  0  0
   14.6203  -16.7370   24.5642 O   0  0  0  0  0  0  0  0  0  0  0  0
   12.9698  -18.2618   24.2380 O   0  0  0  0  0  0  0  0  0  0  0  0
  1  5  1  0
  2  1  1  0
  2  3  1  0
  3  4  1  0
  5  4  1  0
  6  7  2  0
  5  6  1  1
  8  6  1  0
  9  8  1  0
  9 10  1  6
 10 11  1  0
 11 12  2  0
 11 15  1  0
 13  9  1  0
 14 13  2  0
 16 13  1  0
 17 16  1  0
 18 20  1  0
 18 17  1  0
 19 18  2  0
M  END
$$$$
