PDG.pdb
     RDKit          3D

 20 20  0  0  1  0  0  0  0  0999 V2000
    9.1257  -13.9655   18.1923 N   0  0  0  0  0  0  0  0  0  0  0  0
    8.1612  -13.0523   17.5910 C   0  0  0  0  0  0  0  0  0  0  0  0
    6.8871  -13.1590   18.3842 C   0  0  0  0  0  0  0  0  0  0  0  0
    7.1653  -14.3599   19.2774 C   0  0  0  0  0  0  0  0  0  0  0  0
    8.6596  -14.1182   19.5625 C   0  0  1  0  0  0  0  0  0  0  0  0
    9.2829  -15.2392   20.2557 C   0  0  0  0  0  0  0  0  0  0  0  0
    8.8166  -15.6462   21.3422 O   0  0  0  0  0  0  0  0  0  0  0  0
   10.4158  -15.8734   19.7064 N   0  0  0  0  0  0  0  0  0  0  0  0
   10.9443  -17.0998   20.4127 C   0  0  1  0  0  0  0  0  0  0  0  0
   11.9446  -17.7055   19.4511 C   0  0  0  0  0  0  0  0  0  0  0  0
   11.3849  -18.2909   18.2591 C   0  0  0  0  0  0  0  0  0  0  0  0
   10.4793  -19.1350   18.2350 O   0  0  0  0  0  0  0  0  0  0  0  0
   11.6322  -16.5341   21.5826 C   0  0  0  0  0  0  0  0  0  0  0  0
   12.1787  -15.3868   21.4528 O   0  0  0  0  0  0  0  0  0  0  0  0
   11.8962  -17.8817   17.0091 O   0  0  0  0  0  0  0  0  0  0  0  0
   11.7574  -17.1233   22.8637 N   0  0  0  0  0  0  0  0  0  0  0  0
   12.3491  -16.3249   23.9551 C   0  0  0  0  0  0  0  0  0  0  0  0
   12.5424  -17.1227   25.1688 C   0  0  0  0  0  0  0  0  0  0  0  0
   12.0831  -18.2868   25.2236 O   0  0  0  0  0  0  0  0  0  0  0  0
   13.2213  -16.6099   26.2473 O   0  0  0  0  0  0  0  0  0  0  0  0
  1  5  1  0
  2  1  1  0
  2  3  1  0
  3  4  1  0
  5  4  1  0
  6  7  2  0
  5  6  1  6
  8  6  1  0
  9  8  1  0
  9 10  1  6
 10 11  1  0
 11 12  2  0
 11 15  1  0
 13  9  1  0
 14 13  2  0
 16 13  1  0
 17 16  1  0
 18 20  1  0
 18 17  1  0
 19 18  2  0
M  END
$$$$
