PDG.pdb
     RDKit          3D

 20 20  0  0  1  0  0  0  0  0999 V2000
    9.5491  -13.5218   18.6074 N   0  0  0  0  0  0  0  0  0  0  0  0
    8.5056  -12.6611   18.0633 C   0  0  0  0  0  0  0  0  0  0  0  0
    7.2013  -13.0954   18.6751 C   0  0  0  0  0  0  0  0  0  0  0  0
    7.5916  -14.3885   19.3771 C   0  0  0  0  0  0  0  0  0  0  0  0
    8.9962  -13.9916   19.8689 C   0  0  1  0  0  0  0  0  0  0  0  0
    9.7301  -15.1204   20.4284 C   0  0  0  0  0  0  0  0  0  0  0  0
    9.2296  -15.8040   21.3481 O   0  0  0  0  0  0  0  0  0  0  0  0
   11.0095  -15.4504   19.9368 N   0  0  0  0  0  0  0  0  0  0  0  0
   11.6427  -16.7293   20.4322 C   0  0  1  0  0  0  0  0  0  0  0  0
   12.7753  -17.0059   19.4663 C   0  0  0  0  0  0  0  0  0  0  0  0
   12.3775  -17.4151   18.1429 C   0  0  0  0  0  0  0  0  0  0  0  0
   11.6868  -18.4084   17.8796 O   0  0  0  0  0  0  0  0  0  0  0  0
   12.1716  -16.3451   21.7493 C   0  0  0  0  0  0  0  0  0  0  0  0
   12.8333  -15.2553   21.8286 O   0  0  0  0  0  0  0  0  0  0  0  0
   12.7984  -16.6334   17.0461 O   0  0  0  0  0  0  0  0  0  0  0  0
   12.0254  -17.0549   22.9653 N   0  0  0  0  0  0  0  0  0  0  0  0
   12.5586  -16.4544   24.2038 C   0  0  0  0  0  0  0  0  0  0  0  0
   13.7399  -17.1718   24.6907 C   0  0  0  0  0  0  0  0  0  0  0  0
   14.1714  -18.1588   24.0514 O   0  0  0  0  0  0  0  0  0  0  0  0
   14.3800  -16.7753   25.8397 O   0  0  0  0  0  0  0  0  0  0  0  0
  1  5  1  0
  2  1  1  0
  2  3  1  0
  3  4  1  0
  5  4  1  0
  6  7  2  0
  5  6  1  6
  8  6  1  0
  9  8  1  0
  9 10  1  6
 10 11  1  0
 11 12  2  0
 11 15  1  0
 13  9  1  0
 14 13  2  0
 16 13  1  0
 17 16  1  0
 18 20  1  0
 18 17  1  0
 19 18  2  0
M  END
$$$$
