ICD.pdb
     RDKit          3D

 23 22  0  0  1  0  0  0  0  0999 V2000
    6.4135  -11.7745   27.2421 C   0  0  0  0  0  0  0  0  0  0  0  0
    5.9350  -13.0364   26.5931 C   0  0  0  0  0  0  0  0  0  0  0  0
    7.0255  -13.8162   25.8996 C   0  0  2  0  0  0  0  0  0  0  0  0
    7.5945  -13.0202   24.7439 C   0  0  0  0  0  0  0  0  0  0  0  0
    6.5074  -15.1192   25.3287 C   0  0  2  0  0  0  0  0  0  0  0  0
    5.9496  -15.8745   26.4225 N   0  0  0  0  0  0  0  0  0  0  0  0
    7.5706  -15.8747   24.6183 C   0  0  0  0  0  0  0  0  0  0  0  0
    8.2153  -16.7125   25.2990 O   0  0  0  0  0  0  0  0  0  0  0  0
    7.8923  -15.7177   23.2737 N   0  0  0  0  0  0  0  0  0  0  0  0
    8.7773  -16.6006   22.5027 C   0  0  1  0  0  0  0  0  0  0  0  0
    8.5882  -16.3483   21.0298 C   0  0  0  0  0  0  0  0  0  0  0  0
    8.9409  -14.6266   20.6511 S   0  0  0  0  0  0  0  0  0  0  0  0
   10.1305  -16.3267   23.0089 C   0  0  0  0  0  0  0  0  0  0  0  0
   10.4532  -15.1779   23.4227 O   0  0  0  0  0  0  0  0  0  0  0  0
   11.1026  -17.3280   23.0519 N   0  0  0  0  0  0  0  0  0  0  0  0
   12.4271  -17.1387   23.6321 C   0  0  1  0  0  0  0  0  0  0  0  0
   12.8331  -18.4487   24.2600 C   0  0  0  0  0  0  0  0  0  0  0  0
   14.1823  -18.4197   24.8720 C   0  0  0  0  0  0  0  0  0  0  0  0
   15.1737  -18.8440   24.2083 O   0  0  0  0  0  0  0  0  0  0  0  0
   13.4001  -16.6621   22.6532 C   0  0  0  0  0  0  0  0  0  0  0  0
   13.2271  -16.8583   21.4308 O   0  0  0  0  0  0  0  0  0  0  0  0
   14.4637  -17.9568   26.1448 O   0  0  0  0  0  0  0  0  0  0  0  0
   14.5311  -15.9841   23.0689 O   0  0  0  0  0  0  0  0  0  0  0  0
  2  1  1  0
  2  3  1  0
  3  4  1  6
  5  3  1  0
  5  6  1  1
  7  5  1  0
  7  8  2  0
  9 10  1  0
  9  7  1  0
 11 12  1  0
 10 11  1  6
 13 10  1  0
 13 14  2  0
 15 13  1  0
 16 15  1  0
 16 20  1  0
 16 17  1  6
 18 17  1  0
 18 22  1  0
 19 18  2  0
 20 21  2  0
 20 23  1  0
M  END
$$$$
