ICD.pdb
     RDKit          3D

 23 22  0  0  1  0  0  0  0  0999 V2000
    7.7429  -12.3827   18.5051 C   0  0  0  0  0  0  0  0  0  0  0  0
    7.3163  -13.5228   19.3773 C   0  0  0  0  0  0  0  0  0  0  0  0
    8.2848  -13.8318   20.4930 C   0  0  2  0  0  0  0  0  0  0  0  0
    9.6515  -14.1651   19.9324 C   0  0  0  0  0  0  0  0  0  0  0  0
    7.8371  -15.0251   21.3102 C   0  0  2  0  0  0  0  0  0  0  0  0
    6.3981  -15.0753   21.2422 N   0  0  0  0  0  0  0  0  0  0  0  0
    8.3239  -14.9513   22.7114 C   0  0  0  0  0  0  0  0  0  0  0  0
    9.0466  -13.9649   23.0042 O   0  0  0  0  0  0  0  0  0  0  0  0
    8.0366  -15.8857   23.7016 N   0  0  0  0  0  0  0  0  0  0  0  0
    8.5986  -15.8864   25.0586 C   0  0  1  0  0  0  0  0  0  0  0  0
    7.5148  -15.5742   26.0569 C   0  0  0  0  0  0  0  0  0  0  0  0
    6.8869  -13.9121   25.7825 S   0  0  0  0  0  0  0  0  0  0  0  0
    9.2232  -17.2083   25.2160 C   0  0  0  0  0  0  0  0  0  0  0  0
    8.5300  -18.2639   25.2045 O   0  0  0  0  0  0  0  0  0  0  0  0
   10.6034  -17.3406   25.3804 N   0  0  0  0  0  0  0  0  0  0  0  0
   11.2575  -18.6035   25.7032 C   0  0  1  0  0  0  0  0  0  0  0  0
   12.7009  -18.4812   25.2830 C   0  0  0  0  0  0  0  0  0  0  0  0
   12.8752  -17.9782   23.9002 C   0  0  0  0  0  0  0  0  0  0  0  0
   13.8364  -17.1956   23.6413 O   0  0  0  0  0  0  0  0  0  0  0  0
   11.1129  -18.9606   27.1116 C   0  0  0  0  0  0  0  0  0  0  0  0
   11.4849  -20.0783   27.5301 O   0  0  0  0  0  0  0  0  0  0  0  0
   12.0542  -18.2967   22.8334 O   0  0  0  0  0  0  0  0  0  0  0  0
   10.5595  -18.0616   28.0045 O   0  0  0  0  0  0  0  0  0  0  0  0
  2  1  1  0
  2  3  1  0
  3  4  1  6
  5  3  1  0
  5  6  1  1
  7  5  1  0
  7  8  2  0
  9 10  1  0
  9  7  1  0
 11 12  1  0
 10 11  1  1
 13 10  1  0
 13 14  2  0
 15 13  1  0
 16 15  1  0
 16 20  1  0
 16 17  1  1
 18 17  1  0
 18 22  1  0
 19 18  2  0
 20 21  2  0
 20 23  1  0
M  END
$$$$
