ICD.pdb
     RDKit          3D

 23 22  0  0  1  0  0  0  0  0999 V2000
    7.1539  -10.7696   25.9246 C   0  0  0  0  0  0  0  0  0  0  0  0
    7.3793  -12.2432   26.0676 C   0  0  0  0  0  0  0  0  0  0  0  0
    6.1117  -13.0609   26.0182 C   0  0  2  0  0  0  0  0  0  0  0  0
    5.2490  -12.7766   27.2299 C   0  0  0  0  0  0  0  0  0  0  0  0
    6.4020  -14.5468   26.0189 C   0  0  2  0  0  0  0  0  0  0  0  0
    7.2972  -14.8079   27.1182 N   0  0  0  0  0  0  0  0  0  0  0  0
    6.9676  -15.0016   24.7231 C   0  0  0  0  0  0  0  0  0  0  0  0
    6.1619  -15.5210   23.9094 O   0  0  0  0  0  0  0  0  0  0  0  0
    8.3061  -14.8916   24.3591 N   0  0  0  0  0  0  0  0  0  0  0  0
    8.9619  -15.6559   23.2899 C   0  0  1  0  0  0  0  0  0  0  0  0
    8.9149  -14.8727   22.0041 C   0  0  0  0  0  0  0  0  0  0  0  0
    7.9822  -13.3545   22.2432 S   0  0  0  0  0  0  0  0  0  0  0  0
   10.3142  -15.9394   23.7930 C   0  0  0  0  0  0  0  0  0  0  0  0
   10.8246  -15.2494   24.7196 O   0  0  0  0  0  0  0  0  0  0  0  0
   11.0778  -16.9825   23.2654 N   0  0  0  0  0  0  0  0  0  0  0  0
   12.4425  -17.2742   23.6889 C   0  0  1  0  0  0  0  0  0  0  0  0
   12.5416  -18.7663   23.8860 C   0  0  0  0  0  0  0  0  0  0  0  0
   12.5134  -19.1795   25.3087 C   0  0  0  0  0  0  0  0  0  0  0  0
   11.7355  -18.5852   26.1119 O   0  0  0  0  0  0  0  0  0  0  0  0
   13.4372  -16.7667   22.7481 C   0  0  0  0  0  0  0  0  0  0  0  0
   14.4664  -16.1862   23.1559 O   0  0  0  0  0  0  0  0  0  0  0  0
   13.2867  -20.1879   25.8550 O   0  0  0  0  0  0  0  0  0  0  0  0
   13.2515  -16.9229   21.3869 O   0  0  0  0  0  0  0  0  0  0  0  0
  2  1  1  0
  2  3  1  0
  3  4  1  1
  5  3  1  0
  5  6  1  1
  7  5  1  0
  7  8  2  0
  9 10  1  0
  9  7  1  0
 11 12  1  0
 10 11  1  6
 13 10  1  0
 13 14  2  0
 15 13  1  0
 16 15  1  0
 16 20  1  0
 16 17  1  6
 18 17  1  0
 18 22  1  0
 19 18  2  0
 20 21  2  0
 20 23  1  0
M  END
$$$$
