ICD.pdb
     RDKit          3D

 23 22  0  0  1  0  0  0  0  0999 V2000
    7.7191  -11.7619   19.6800 C   0  0  0  0  0  0  0  0  0  0  0  0
    7.7363  -13.0851   20.3810 C   0  0  0  0  0  0  0  0  0  0  0  0
    8.6437  -14.1044   19.7363 C   0  0  2  0  0  0  0  0  0  0  0  0
    8.1701  -14.4253   18.3343 C   0  0  0  0  0  0  0  0  0  0  0  0
    8.6620  -15.4070   20.5078 C   0  0  2  0  0  0  0  0  0  0  0  0
    7.3274  -15.9499   20.4634 N   0  0  0  0  0  0  0  0  0  0  0  0
    9.1381  -15.2188   21.9020 C   0  0  0  0  0  0  0  0  0  0  0  0
   10.3496  -14.9145   22.0460 O   0  0  0  0  0  0  0  0  0  0  0  0
    8.3445  -15.3550   23.0367 N   0  0  0  0  0  0  0  0  0  0  0  0
    8.8325  -15.3416   24.4220 C   0  0  1  0  0  0  0  0  0  0  0  0
    7.7044  -14.9852   25.3542 C   0  0  0  0  0  0  0  0  0  0  0  0
    6.3272  -16.1152   25.1124 S   0  0  0  0  0  0  0  0  0  0  0  0
    9.4161  -16.6740   24.6375 C   0  0  0  0  0  0  0  0  0  0  0  0
    9.2582  -17.6007   23.7940 O   0  0  0  0  0  0  0  0  0  0  0  0
   10.1666  -16.9582   25.7800 N   0  0  0  0  0  0  0  0  0  0  0  0
   10.9612  -18.1708   25.9394 C   0  0  1  0  0  0  0  0  0  0  0  0
   11.9444  -18.2161   24.7964 C   0  0  0  0  0  0  0  0  0  0  0  0
   12.8897  -19.3546   24.8725 C   0  0  0  0  0  0  0  0  0  0  0  0
   12.8056  -20.1671   25.8401 O   0  0  0  0  0  0  0  0  0  0  0  0
   11.6151  -18.2398   27.2431 C   0  0  0  0  0  0  0  0  0  0  0  0
   11.7983  -17.2069   27.9230 O   0  0  0  0  0  0  0  0  0  0  0  0
   13.8884  -19.6163   23.9518 O   0  0  0  0  0  0  0  0  0  0  0  0
   12.0424  -19.4555   27.7442 O   0  0  0  0  0  0  0  0  0  0  0  0
  2  1  1  0
  2  3  1  0
  3  4  1  6
  5  3  1  0
  5  6  1  1
  7  5  1  0
  7  8  2  0
  9 10  1  0
  9  7  1  0
 11 12  1  0
 10 11  1  1
 13 10  1  0
 13 14  2  0
 15 13  1  0
 16 15  1  0
 16 20  1  0
 16 17  1  6
 18 17  1  0
 18 22  1  0
 19 18  2  0
 20 21  2  0
 20 23  1  0
M  END
$$$$
