ICD.pdb
     RDKit          3D

 23 22  0  0  1  0  0  0  0  0999 V2000
    7.1062  -11.9133   19.7634 C   0  0  0  0  0  0  0  0  0  0  0  0
    7.2500  -13.2737   20.3728 C   0  0  0  0  0  0  0  0  0  0  0  0
    8.1642  -14.1935   19.6007 C   0  0  2  0  0  0  0  0  0  0  0  0
    7.5069  -14.6339   18.3094 C   0  0  0  0  0  0  0  0  0  0  0  0
    8.4896  -15.4479   20.3834 C   0  0  2  0  0  0  0  0  0  0  0  0
    7.2463  -16.1351   20.6278 N   0  0  0  0  0  0  0  0  0  0  0  0
    9.2116  -15.1424   21.6448 C   0  0  0  0  0  0  0  0  0  0  0  0
   10.3607  -14.6453   21.5286 O   0  0  0  0  0  0  0  0  0  0  0  0
    8.7074  -15.3667   22.9222 N   0  0  0  0  0  0  0  0  0  0  0  0
    9.4469  -15.1663   24.1753 C   0  0  1  0  0  0  0  0  0  0  0  0
    8.5085  -15.3019   25.3456 C   0  0  0  0  0  0  0  0  0  0  0  0
    7.5838  -16.8383   25.2169 S   0  0  0  0  0  0  0  0  0  0  0  0
   10.5385  -16.1509   24.1398 C   0  0  0  0  0  0  0  0  0  0  0  0
   10.3656  -17.3006   23.6465 O   0  0  0  0  0  0  0  0  0  0  0  0
   11.8031  -15.8466   24.6473 N   0  0  0  0  0  0  0  0  0  0  0  0
   12.8991  -16.8071   24.7050 C   0  0  1  0  0  0  0  0  0  0  0  0
   14.1520  -16.0843   24.2774 C   0  0  0  0  0  0  0  0  0  0  0  0
   15.3607  -16.9413   24.2793 C   0  0  0  0  0  0  0  0  0  0  0  0
   15.2638  -18.1512   23.9185 O   0  0  0  0  0  0  0  0  0  0  0  0
   13.0303  -17.4226   26.0226 C   0  0  0  0  0  0  0  0  0  0  0  0
   12.3967  -18.4612   26.3099 O   0  0  0  0  0  0  0  0  0  0  0  0
   16.6254  -16.5241   24.6533 O   0  0  0  0  0  0  0  0  0  0  0  0
   13.8615  -16.8608   26.9739 O   0  0  0  0  0  0  0  0  0  0  0  0
  2  1  1  0
  2  3  1  0
  3  4  1  6
  5  3  1  0
  5  6  1  1
  7  5  1  0
  7  8  2  0
  9 10  1  0
  9  7  1  0
 11 12  1  0
 10 11  1  1
 13 10  1  0
 13 14  2  0
 15 13  1  0
 16 15  1  0
 16 20  1  0
 16 17  1  1
 18 17  1  0
 18 22  1  0
 19 18  2  0
 20 21  2  0
 20 23  1  0
M  END
$$$$
