ICD.pdb
     RDKit          3D

 23 22  0  0  1  0  0  0  0  0999 V2000
    6.6383  -11.2708   27.1486 C   0  0  0  0  0  0  0  0  0  0  0  0
    6.8701  -12.7390   26.9658 C   0  0  0  0  0  0  0  0  0  0  0  0
    6.6668  -13.2159   25.5483 C   0  0  2  0  0  0  0  0  0  0  0  0
    5.1986  -13.4715   25.2796 C   0  0  0  0  0  0  0  0  0  0  0  0
    7.3993  -14.5140   25.2824 C   0  0  2  0  0  0  0  0  0  0  0  0
    6.9339  -15.4746   26.2512 N   0  0  0  0  0  0  0  0  0  0  0  0
    8.8732  -14.3401   25.3377 C   0  0  0  0  0  0  0  0  0  0  0  0
    9.3855  -13.6016   24.4584 O   0  0  0  0  0  0  0  0  0  0  0  0
    9.7071  -14.9306   26.2822 N   0  0  0  0  0  0  0  0  0  0  0  0
   11.1605  -14.7380   26.3718 C   0  0  1  0  0  0  0  0  0  0  0  0
   11.5758  -14.6748   27.8183 C   0  0  0  0  0  0  0  0  0  0  0  0
   10.3055  -15.4119   28.8551 S   0  0  0  0  0  0  0  0  0  0  0  0
   11.7441  -15.8509   25.6082 C   0  0  0  0  0  0  0  0  0  0  0  0
   11.2412  -17.0086   25.6529 O   0  0  0  0  0  0  0  0  0  0  0  0
   12.8716  -15.6643   24.8061 N   0  0  0  0  0  0  0  0  0  0  0  0
   13.5350  -16.7458   24.0869 C   0  0  1  0  0  0  0  0  0  0  0  0
   13.8531  -16.2356   22.7036 C   0  0  0  0  0  0  0  0  0  0  0  0
   14.5759  -17.2173   21.8614 C   0  0  0  0  0  0  0  0  0  0  0  0
   14.1006  -18.3825   21.7203 O   0  0  0  0  0  0  0  0  0  0  0  0
   14.7180  -17.2364   24.7882 C   0  0  0  0  0  0  0  0  0  0  0  0
   15.3093  -16.5201   25.6248 O   0  0  0  0  0  0  0  0  0  0  0  0
   15.7621  -16.9664   21.1955 O   0  0  0  0  0  0  0  0  0  0  0  0
   15.2015  -18.5065   24.5337 O   0  0  0  0  0  0  0  0  0  0  0  0
  2  1  1  0
  2  3  1  0
  3  4  1  1
  5  3  1  0
  5  6  1  1
  7  5  1  0
  7  8  2  0
  9 10  1  0
  9  7  1  0
 11 12  1  0
 10 11  1  1
 13 10  1  0
 13 14  2  0
 15 13  1  0
 16 15  1  0
 16 20  1  0
 16 17  1  6
 18 17  1  0
 18 22  1  0
 19 18  2  0
 20 21  2  0
 20 23  1  0
M  END
$$$$
