ICD.pdb
     RDKit          3D

 23 22  0  0  1  0  0  0  0  0999 V2000
    7.8309  -11.9397   19.5204 C   0  0  0  0  0  0  0  0  0  0  0  0
    7.8116  -13.2457   20.2531 C   0  0  0  0  0  0  0  0  0  0  0  0
    8.6818  -14.3083   19.6272 C   0  0  2  0  0  0  0  0  0  0  0  0
    8.1411  -14.7055   18.2697 C   0  0  0  0  0  0  0  0  0  0  0  0
    8.7285  -15.5642   20.4713 C   0  0  2  0  0  0  0  0  0  0  0  0
    7.3848  -16.0810   20.5450 N   0  0  0  0  0  0  0  0  0  0  0  0
    9.2980  -15.3059   21.8185 C   0  0  0  0  0  0  0  0  0  0  0  0
   10.4944  -14.9212   21.8586 O   0  0  0  0  0  0  0  0  0  0  0  0
    8.6054  -15.4591   23.0155 N   0  0  0  0  0  0  0  0  0  0  0  0
    9.1851  -15.3155   24.3574 C   0  0  1  0  0  0  0  0  0  0  0  0
    8.0857  -15.1072   25.3657 C   0  0  0  0  0  0  0  0  0  0  0  0
    7.1437  -13.6329   24.9517 S   0  0  0  0  0  0  0  0  0  0  0  0
    9.9900  -16.5292   24.5610 C   0  0  0  0  0  0  0  0  0  0  0  0
    9.5235  -17.6737   24.3015 O   0  0  0  0  0  0  0  0  0  0  0  0
   11.2977  -16.4565   25.0450 N   0  0  0  0  0  0  0  0  0  0  0  0
   12.1511  -17.6238   25.2347 C   0  0  1  0  0  0  0  0  0  0  0  0
   13.5813  -17.1523   25.1498 C   0  0  0  0  0  0  0  0  0  0  0  0
   13.9502  -16.6144   23.8193 C   0  0  0  0  0  0  0  0  0  0  0  0
   13.6267  -17.2587   22.7783 O   0  0  0  0  0  0  0  0  0  0  0  0
   11.8660  -18.3240   26.4838 C   0  0  0  0  0  0  0  0  0  0  0  0
   11.0401  -17.8639   27.3016 O   0  0  0  0  0  0  0  0  0  0  0  0
   14.6394  -15.4341   23.6067 O   0  0  0  0  0  0  0  0  0  0  0  0
   12.5099  -19.5114   26.7791 O   0  0  0  0  0  0  0  0  0  0  0  0
  2  1  1  0
  2  3  1  0
  3  4  1  6
  5  3  1  0
  5  6  1  1
  7  5  1  0
  7  8  2  0
  9 10  1  0
  9  7  1  0
 11 12  1  0
 10 11  1  1
 13 10  1  0
 13 14  2  0
 15 13  1  0
 16 15  1  0
 16 20  1  0
 16 17  1  1
 18 17  1  0
 18 22  1  0
 19 18  2  0
 20 21  2  0
 20 23  1  0
M  END
$$$$
