ICD.pdb
     RDKit          3D

 23 22  0  0  1  0  0  0  0  0999 V2000
    6.9837  -11.8122   27.8356 C   0  0  0  0  0  0  0  0  0  0  0  0
    6.3266  -12.9536   27.1229 C   0  0  0  0  0  0  0  0  0  0  0  0
    7.2522  -13.7106   26.2019 C   0  0  2  0  0  0  0  0  0  0  0  0
    7.8198  -12.7878   25.1439 C   0  0  0  0  0  0  0  0  0  0  0  0
    6.5320  -14.8275   25.4766 C   0  0  2  0  0  0  0  0  0  0  0  0
    6.0612  -15.7536   26.4759 N   0  0  0  0  0  0  0  0  0  0  0  0
    7.4044  -15.4901   24.4737 C   0  0  0  0  0  0  0  0  0  0  0  0
    8.0683  -16.4805   24.8730 O   0  0  0  0  0  0  0  0  0  0  0  0
    7.5313  -15.0927   23.1462 N   0  0  0  0  0  0  0  0  0  0  0  0
    8.2846  -15.8131   22.1115 C   0  0  1  0  0  0  0  0  0  0  0  0
    7.8603  -15.3335   20.7482 C   0  0  0  0  0  0  0  0  0  0  0  0
    6.2024  -15.9223   20.3783 S   0  0  0  0  0  0  0  0  0  0  0  0
    9.7004  -15.5832   22.4357 C   0  0  0  0  0  0  0  0  0  0  0  0
   10.0476  -14.6676   23.2333 O   0  0  0  0  0  0  0  0  0  0  0  0
   10.7075  -16.3711   21.8750 N   0  0  0  0  0  0  0  0  0  0  0  0
   12.1043  -16.3060   22.2895 C   0  0  1  0  0  0  0  0  0  0  0  0
   12.1414  -16.5408   23.7790 C   0  0  0  0  0  0  0  0  0  0  0  0
   13.5131  -16.5884   24.3375 C   0  0  0  0  0  0  0  0  0  0  0  0
   14.2964  -15.6128   24.1427 O   0  0  0  0  0  0  0  0  0  0  0  0
   12.9470  -17.2444   21.5539 C   0  0  0  0  0  0  0  0  0  0  0  0
   12.4396  -18.1395   20.8438 O   0  0  0  0  0  0  0  0  0  0  0  0
   14.0306  -17.6380   25.0751 O   0  0  0  0  0  0  0  0  0  0  0  0
   14.3243  -17.1540   21.6343 O   0  0  0  0  0  0  0  0  0  0  0  0
  2  1  1  0
  2  3  1  0
  3  4  1  6
  5  3  1  0
  5  6  1  1
  7  5  1  0
  7  8  2  0
  9 10  1  0
  9  7  1  0
 11 12  1  0
 10 11  1  6
 13 10  1  0
 13 14  2  0
 15 13  1  0
 16 15  1  0
 16 20  1  0
 16 17  1  1
 18 17  1  0
 18 22  1  0
 19 18  2  0
 20 21  2  0
 20 23  1  0
M  END
$$$$
