ICD.pdb
     RDKit          3D

 23 22  0  0  1  0  0  0  0  0999 V2000
    7.2756  -12.3001   18.7329 C   0  0  0  0  0  0  0  0  0  0  0  0
    7.1396  -13.5939   19.4746 C   0  0  0  0  0  0  0  0  0  0  0  0
    8.0497  -13.7075   20.6733 C   0  0  2  0  0  0  0  0  0  0  0  0
    9.5012  -13.6600   20.2442 C   0  0  0  0  0  0  0  0  0  0  0  0
    7.8471  -15.0146   21.4099 C   0  0  2  0  0  0  0  0  0  0  0  0
    6.4543  -15.3646   21.2862 N   0  0  0  0  0  0  0  0  0  0  0  0
    8.2716  -14.9220   22.8301 C   0  0  0  0  0  0  0  0  0  0  0  0
    9.5015  -14.7656   23.0402 O   0  0  0  0  0  0  0  0  0  0  0  0
    7.4120  -14.9958   23.9218 N   0  0  0  0  0  0  0  0  0  0  0  0
    7.8269  -15.0150   25.3307 C   0  0  1  0  0  0  0  0  0  0  0  0
    6.6628  -14.6348   26.2077 C   0  0  0  0  0  0  0  0  0  0  0  0
    6.0424  -13.0145   25.7370 S   0  0  0  0  0  0  0  0  0  0  0  0
    8.3570  -16.3677   25.5575 C   0  0  0  0  0  0  0  0  0  0  0  0
    7.6316  -17.3891   25.3975 O   0  0  0  0  0  0  0  0  0  0  0  0
    9.6805  -16.5682   25.9543 N   0  0  0  0  0  0  0  0  0  0  0  0
   10.2586  -17.8862   26.1902 C   0  0  1  0  0  0  0  0  0  0  0  0
   11.4121  -18.0481   25.2320 C   0  0  0  0  0  0  0  0  0  0  0  0
   12.2091  -19.2752   25.4657 C   0  0  0  0  0  0  0  0  0  0  0  0
   11.6263  -20.3274   25.8614 O   0  0  0  0  0  0  0  0  0  0  0  0
   10.6562  -18.0780   27.5820 C   0  0  0  0  0  0  0  0  0  0  0  0
   11.0672  -19.1883   27.9833 O   0  0  0  0  0  0  0  0  0  0  0  0
   13.5769  -19.3763   25.2854 O   0  0  0  0  0  0  0  0  0  0  0  0
   10.5824  -17.0278   28.4783 O   0  0  0  0  0  0  0  0  0  0  0  0
  2  1  1  0
  2  3  1  0
  3  4  1  6
  5  3  1  0
  5  6  1  1
  7  5  1  0
  7  8  2  0
  9 10  1  0
  9  7  1  0
 11 12  1  0
 10 11  1  1
 13 10  1  0
 13 14  2  0
 15 13  1  0
 16 15  1  0
 16 20  1  0
 16 17  1  6
 18 17  1  0
 18 22  1  0
 19 18  2  0
 20 21  2  0
 20 23  1  0
M  END
$$$$
