ICD.pdb
     RDKit          3D

 23 22  0  0  1  0  0  0  0  0999 V2000
    8.2255  -15.6052   16.1436 C   0  0  0  0  0  0  0  0  0  0  0  0
    7.8911  -14.4721   17.0639 C   0  0  0  0  0  0  0  0  0  0  0  0
    8.4311  -14.6438   18.4628 C   0  0  2  0  0  0  0  0  0  0  0  0
    7.8898  -15.9120   19.0888 C   0  0  0  0  0  0  0  0  0  0  0  0
    8.0279  -13.4965   19.3647 C   0  0  2  0  0  0  0  0  0  0  0  0
    8.5894  -12.2931   18.8040 N   0  0  0  0  0  0  0  0  0  0  0  0
    8.4676  -13.7127   20.7667 C   0  0  0  0  0  0  0  0  0  0  0  0
    9.7081  -13.7208   20.9719 O   0  0  0  0  0  0  0  0  0  0  0  0
    7.6111  -13.9031   21.8467 N   0  0  0  0  0  0  0  0  0  0  0  0
    8.0317  -14.1585   23.2306 C   0  0  1  0  0  0  0  0  0  0  0  0
    6.8366  -14.0914   24.1449 C   0  0  0  0  0  0  0  0  0  0  0  0
    7.2951  -14.6349   25.7961 S   0  0  0  0  0  0  0  0  0  0  0  0
    8.7095  -15.4629   23.1924 C   0  0  0  0  0  0  0  0  0  0  0  0
    8.3364  -16.3700   22.3969 O   0  0  0  0  0  0  0  0  0  0  0  0
    9.7899  -15.7408   24.0320 N   0  0  0  0  0  0  0  0  0  0  0  0
   10.5031  -17.0130   24.0305 C   0  0  1  0  0  0  0  0  0  0  0  0
   11.5157  -16.9582   22.9140 C   0  0  0  0  0  0  0  0  0  0  0  0
   12.4219  -18.1300   22.8776 C   0  0  0  0  0  0  0  0  0  0  0  0
   11.9351  -19.2942   22.9832 O   0  0  0  0  0  0  0  0  0  0  0  0
   11.1119  -17.3107   25.3239 C   0  0  0  0  0  0  0  0  0  0  0  0
   11.0103  -16.5102   26.2788 O   0  0  0  0  0  0  0  0  0  0  0  0
   13.7962  -18.0629   22.7351 O   0  0  0  0  0  0  0  0  0  0  0  0
   11.8123  -18.4883   25.5093 O   0  0  0  0  0  0  0  0  0  0  0  0
  2  1  1  0
  2  3  1  0
  3  4  1  1
  5  3  1  0
  5  6  1  6
  7  5  1  0
  7  8  2  0
  9 10  1  0
  9  7  1  0
 11 12  1  0
 10 11  1  1
 13 10  1  0
 13 14  2  0
 15 13  1  0
 16 15  1  0
 16 20  1  0
 16 17  1  6
 18 17  1  0
 18 22  1  0
 19 18  2  0
 20 21  2  0
 20 23  1  0
M  END
$$$$
