ICD.pdb
     RDKit          3D

 23 22  0  0  1  0  0  0  0  0999 V2000
    8.2045  -16.6934   15.8205 C   0  0  0  0  0  0  0  0  0  0  0  0
    7.7490  -15.4681   16.5512 C   0  0  0  0  0  0  0  0  0  0  0  0
    8.4067  -15.2815   17.8969 C   0  0  2  0  0  0  0  0  0  0  0  0
    8.2326  -16.5211   18.7492 C   0  0  0  0  0  0  0  0  0  0  0  0
    7.7981  -14.1266   18.6636 C   0  0  2  0  0  0  0  0  0  0  0  0
    8.0584  -12.9266   17.9085 N   0  0  0  0  0  0  0  0  0  0  0  0
    8.3308  -14.0378   20.0471 C   0  0  0  0  0  0  0  0  0  0  0  0
    9.5519  -13.7612   20.1626 O   0  0  0  0  0  0  0  0  0  0  0  0
    7.5793  -14.2370   21.2012 N   0  0  0  0  0  0  0  0  0  0  0  0
    8.1044  -14.2101   22.5726 C   0  0  1  0  0  0  0  0  0  0  0  0
    6.9871  -13.9130   23.5381 C   0  0  0  0  0  0  0  0  0  0  0  0
    7.5965  -13.9958   25.2274 S   0  0  0  0  0  0  0  0  0  0  0  0
    8.7551  -15.5152   22.7614 C   0  0  0  0  0  0  0  0  0  0  0  0
    8.1958  -16.5842   22.3883 O   0  0  0  0  0  0  0  0  0  0  0  0
   10.0141  -15.6157   23.3567 N   0  0  0  0  0  0  0  0  0  0  0  0
   10.6555  -16.8870   23.6719 C   0  0  1  0  0  0  0  0  0  0  0  0
   12.1219  -16.7415   23.3502 C   0  0  0  0  0  0  0  0  0  0  0  0
   12.4554  -17.0676   21.9438 C   0  0  0  0  0  0  0  0  0  0  0  0
   11.5625  -17.5589   21.1924 O   0  0  0  0  0  0  0  0  0  0  0  0
   10.4239  -17.2993   25.0534 C   0  0  0  0  0  0  0  0  0  0  0  0
    9.8471  -16.5385   25.8604 O   0  0  0  0  0  0  0  0  0  0  0  0
   13.6954  -16.8780   21.3606 O   0  0  0  0  0  0  0  0  0  0  0  0
   10.8424  -18.5432   25.4883 O   0  0  0  0  0  0  0  0  0  0  0  0
  2  1  1  0
  2  3  1  0
  3  4  1  1
  5  3  1  0
  5  6  1  6
  7  5  1  0
  7  8  2  0
  9 10  1  0
  9  7  1  0
 11 12  1  0
 10 11  1  1
 13 10  1  0
 13 14  2  0
 15 13  1  0
 16 15  1  0
 16 20  1  0
 16 17  1  1
 18 17  1  0
 18 22  1  0
 19 18  2  0
 20 21  2  0
 20 23  1  0
M  END
$$$$
