ICD.pdb
     RDKit          3D

 23 22  0  0  1  0  0  0  0  0999 V2000
    7.5865  -12.9189   18.7219 C   0  0  0  0  0  0  0  0  0  0  0  0
    7.1375  -13.8243   19.8271 C   0  0  0  0  0  0  0  0  0  0  0  0
    7.8842  -13.6205   21.1229 C   0  0  2  0  0  0  0  0  0  0  0  0
    9.3666  -13.8572   20.9243 C   0  0  0  0  0  0  0  0  0  0  0  0
    7.4206  -14.5836   22.1951 C   0  0  2  0  0  0  0  0  0  0  0  0
    5.9822  -14.5054   22.2484 N   0  0  0  0  0  0  0  0  0  0  0  0
    8.0412  -14.2880   23.5117 C   0  0  0  0  0  0  0  0  0  0  0  0
    7.9233  -13.1106   23.9370 O   0  0  0  0  0  0  0  0  0  0  0  0
    8.7312  -15.2128   24.2893 N   0  0  0  0  0  0  0  0  0  0  0  0
    9.4062  -14.9193   25.5604 C   0  0  1  0  0  0  0  0  0  0  0  0
    8.4467  -14.2350   26.4984 C   0  0  0  0  0  0  0  0  0  0  0  0
    9.2612  -13.8846   28.0624 S   0  0  0  0  0  0  0  0  0  0  0  0
    9.9166  -16.2148   26.0334 C   0  0  0  0  0  0  0  0  0  0  0  0
    9.1454  -17.2022   26.1921 O   0  0  0  0  0  0  0  0  0  0  0  0
   11.2709  -16.3971   26.3198 N   0  0  0  0  0  0  0  0  0  0  0  0
   11.8248  -17.6482   26.8246 C   0  0  1  0  0  0  0  0  0  0  0  0
   13.3063  -17.6292   26.5418 C   0  0  0  0  0  0  0  0  0  0  0  0
   13.6351  -17.3692   25.1206 C   0  0  0  0  0  0  0  0  0  0  0  0
   13.1256  -18.1015   24.2220 O   0  0  0  0  0  0  0  0  0  0  0  0
   11.5278  -17.8573   28.2389 C   0  0  0  0  0  0  0  0  0  0  0  0
   11.0062  -16.9512   28.9243 O   0  0  0  0  0  0  0  0  0  0  0  0
   14.4769  -16.3664   24.6743 O   0  0  0  0  0  0  0  0  0  0  0  0
   11.8216  -19.0669   28.8407 O   0  0  0  0  0  0  0  0  0  0  0  0
  2  1  1  0
  2  3  1  0
  3  4  1  6
  5  3  1  0
  5  6  1  1
  7  5  1  0
  7  8  2  0
  9 10  1  0
  9  7  1  0
 11 12  1  0
 10 11  1  1
 13 10  1  0
 13 14  2  0
 15 13  1  0
 16 15  1  0
 16 20  1  0
 16 17  1  1
 18 17  1  0
 18 22  1  0
 19 18  2  0
 20 21  2  0
 20 23  1  0
M  END
$$$$
