ICD.pdb
     RDKit          3D

 23 22  0  0  1  0  0  0  0  0999 V2000
    7.6703  -12.0141   18.8132 C   0  0  0  0  0  0  0  0  0  0  0  0
    7.2247  -13.3711   19.2636 C   0  0  0  0  0  0  0  0  0  0  0  0
    7.5686  -13.6793   20.7006 C   0  0  2  0  0  0  0  0  0  0  0  0
    9.0690  -13.7837   20.8767 C   0  0  0  0  0  0  0  0  0  0  0  0
    6.9762  -14.9985   21.1487 C   0  0  2  0  0  0  0  0  0  0  0  0
    5.5669  -14.9593   20.8483 N   0  0  0  0  0  0  0  0  0  0  0  0
    7.2292  -15.2590   22.5889 C   0  0  0  0  0  0  0  0  0  0  0  0
    6.6965  -14.4653   23.4057 O   0  0  0  0  0  0  0  0  0  0  0  0
    8.0029  -16.3050   23.0822 N   0  0  0  0  0  0  0  0  0  0  0  0
    8.3478  -16.5146   24.4944 C   0  0  1  0  0  0  0  0  0  0  0  0
    7.1318  -16.9832   25.2498 C   0  0  0  0  0  0  0  0  0  0  0  0
    6.3377  -18.3294   24.3614 S   0  0  0  0  0  0  0  0  0  0  0  0
    9.4711  -17.4635   24.4796 C   0  0  0  0  0  0  0  0  0  0  0  0
    9.7153  -18.1711   23.4625 O   0  0  0  0  0  0  0  0  0  0  0  0
   10.3069  -17.6115   25.5882 N   0  0  0  0  0  0  0  0  0  0  0  0
   11.7290  -17.9193   25.4880 C   0  0  1  0  0  0  0  0  0  0  0  0
   12.3684  -16.8244   24.6711 C   0  0  0  0  0  0  0  0  0  0  0  0
   13.8061  -17.0531   24.3955 C   0  0  0  0  0  0  0  0  0  0  0  0
   14.6708  -16.3270   24.9685 O   0  0  0  0  0  0  0  0  0  0  0  0
   12.3566  -18.0804   26.7966 C   0  0  0  0  0  0  0  0  0  0  0  0
   11.8206  -17.6147   27.8254 O   0  0  0  0  0  0  0  0  0  0  0  0
   14.3034  -18.0194   23.5396 O   0  0  0  0  0  0  0  0  0  0  0  0
   13.5584  -18.7539   26.9141 O   0  0  0  0  0  0  0  0  0  0  0  0
  2  1  1  0
  2  3  1  0
  3  4  1  6
  5  3  1  0
  5  6  1  1
  7  5  1  0
  7  8  2  0
  9 10  1  0
  9  7  1  0
 11 12  1  0
 10 11  1  1
 13 10  1  0
 13 14  2  0
 15 13  1  0
 16 15  1  0
 16 20  1  0
 16 17  1  1
 18 17  1  0
 18 22  1  0
 19 18  2  0
 20 21  2  0
 20 23  1  0
M  END
$$$$
