LIG.pdb
     RDKit          3D

 21 20  0  0  1  0  0  0  0  0999 V2000
   14.5761  -25.2753   -1.8241 C   0  0  0  0  0  0  0  0  0  0  0  0
   14.7467  -26.6235   -2.5452 C   0  0  2  0  0  0  0  0  0  0  0  0
   13.4402  -27.3843   -2.4996 C   0  0  0  0  0  0  0  0  0  0  0  0
   15.8600  -27.4095   -1.9117 C   0  0  0  0  0  0  0  0  0  0  0  0
   17.1444  -26.6762   -1.9867 C   0  0  2  0  0  0  0  0  0  0  0  0
   17.5849  -26.4135   -3.3330 N   0  0  0  0  0  0  0  0  0  0  0  0
   18.2574  -27.3806   -1.2947 C   0  0  0  0  0  0  0  0  0  0  0  0
   19.0656  -28.0673   -1.9506 O   0  0  0  0  0  0  0  0  0  0  0  0
   21.4013  -24.6229    1.6323 C   0  0  0  0  0  0  0  0  0  0  0  0
   20.8210  -25.7362    0.7841 C   0  0  0  0  0  0  0  0  0  0  0  0
   20.0868  -26.7309    1.6181 C   0  0  2  0  0  0  0  0  0  0  0  0
   20.8845  -27.1695    2.8048 C   0  0  0  0  0  0  0  0  0  0  0  0
   19.4724  -27.8805    0.8615 C   0  0  2  0  0  0  0  0  0  0  0  0
   18.3768  -27.2574    0.0929 N   0  0  0  0  0  0  0  0  0  0  0  0
   18.8608  -28.9119    1.7321 C   0  0  0  0  0  0  0  0  0  0  0  0
   19.5734  -29.5774    2.5278 O   0  0  0  0  0  0  0  0  0  0  0  0
   17.4739  -29.2304    1.7497 N   0  0  0  0  0  0  0  0  0  0  0  0
   16.9292  -30.2121    2.6693 C   0  0  0  0  0  0  0  0  0  0  0  0
   17.1852  -31.5954    2.2067 C   0  0  0  0  0  0  0  0  0  0  0  0
   16.7513  -32.7150    2.8923 O   0  0  0  0  0  0  0  0  0  0  0  0
   17.8291  -31.7467    1.1376 O   0  0  0  0  0  0  0  0  0  0  0  0
  2  1  1  1
  3  2  1  0
  4  5  1  0
  4  2  1  0
  5  7  1  0
  5  6  1  6
  7 14  1  0
  7  8  2  0
  9 10  1  0
 10 11  1  0
 11 12  1  1
 13 15  1  0
 13 11  1  0
 13 14  1  6
 15 16  2  0
 17 18  1  0
 17 15  1  0
 19 18  1  0
 20 19  1  0
 21 19  2  0
M  END
$$$$
