LIG.pdb
     RDKit          3D

 21 20  0  0  1  0  0  0  0  0999 V2000
   29.1348  -20.6943   -4.9613 C   0  0  0  0  0  0  0  0  0  0  0  0
   27.7662  -20.0258   -4.7451 C   0  0  2  0  0  0  0  0  0  0  0  0
   27.0315  -20.7383   -3.6314 C   0  0  0  0  0  0  0  0  0  0  0  0
   26.9752  -20.0460   -6.0228 C   0  0  0  0  0  0  0  0  0  0  0  0
   27.7171  -19.3890   -7.1233 C   0  0  2  0  0  0  0  0  0  0  0  0
   28.1377  -18.0452   -6.8185 N   0  0  0  0  0  0  0  0  0  0  0  0
   26.9407  -19.3247   -8.3909 C   0  0  0  0  0  0  0  0  0  0  0  0
   26.2203  -18.3360   -8.6326 O   0  0  0  0  0  0  0  0  0  0  0  0
   29.7166  -21.7804  -10.9889 C   0  0  0  0  0  0  0  0  0  0  0  0
   28.7680  -20.7388  -11.5467 C   0  0  0  0  0  0  0  0  0  0  0  0
   27.3513  -21.1999  -11.4793 C   0  0  2  0  0  0  0  0  0  0  0  0
   26.7946  -21.5096  -12.8324 C   0  0  0  0  0  0  0  0  0  0  0  0
   26.4329  -20.3457  -10.6437 C   0  0  2  0  0  0  0  0  0  0  0  0
   27.0350  -20.3858   -9.2965 N   0  0  0  0  0  0  0  0  0  0  0  0
   25.0584  -20.8857  -10.5219 C   0  0  0  0  0  0  0  0  0  0  0  0
   24.8497  -21.9618   -9.9036 O   0  0  0  0  0  0  0  0  0  0  0  0
   23.8992  -20.2654  -11.0667 N   0  0  0  0  0  0  0  0  0  0  0  0
   22.5827  -20.8618  -10.9348 C   0  0  0  0  0  0  0  0  0  0  0  0
   22.1855  -21.5864  -12.1637 C   0  0  0  0  0  0  0  0  0  0  0  0
   20.8980  -22.0346  -12.3950 O   0  0  0  0  0  0  0  0  0  0  0  0
   23.0700  -21.7985  -13.0315 O   0  0  0  0  0  0  0  0  0  0  0  0
  2  1  1  6
  3  2  1  0
  4  5  1  0
  4  2  1  0
  5  7  1  0
  5  6  1  1
  7 14  1  0
  7  8  2  0
  9 10  1  0
 10 11  1  0
 11 12  1  6
 13 15  1  0
 13 11  1  0
 13 14  1  1
 15 16  2  0
 17 18  1  0
 17 15  1  0
 19 18  1  0
 20 19  1  0
 21 19  2  0
M  END
$$$$
