LIG.pdb
     RDKit          3D

 21 20  0  0  1  0  0  0  0  0999 V2000
   27.0097  -17.1988  -17.4583 C   0  0  0  0  0  0  0  0  0  0  0  0
   27.8479  -17.1010  -16.1721 C   0  0  2  0  0  0  0  0  0  0  0  0
   29.3115  -16.9856  -16.5360 C   0  0  0  0  0  0  0  0  0  0  0  0
   27.5939  -18.2977  -15.2992 C   0  0  0  0  0  0  0  0  0  0  0  0
   26.1438  -18.5041  -15.0807 C   0  0  2  0  0  0  0  0  0  0  0  0
   25.5031  -17.4220  -14.3777 N   0  0  0  0  0  0  0  0  0  0  0  0
   25.8408  -19.7513  -14.3281 C   0  0  0  0  0  0  0  0  0  0  0  0
   26.2905  -20.8447  -14.7242 O   0  0  0  0  0  0  0  0  0  0  0  0
   26.7730  -19.8132   -9.3383 C   0  0  0  0  0  0  0  0  0  0  0  0
   26.4874  -20.4782  -10.6695 C   0  0  0  0  0  0  0  0  0  0  0  0
   25.0273  -20.4860  -10.9729 C   0  0  2  0  0  0  0  0  0  0  0  0
   24.2428  -21.2415   -9.9480 C   0  0  0  0  0  0  0  0  0  0  0  0
   24.6634  -20.8574  -12.3875 C   0  0  2  0  0  0  0  0  0  0  0  0
   25.0488  -19.6720  -13.1785 N   0  0  0  0  0  0  0  0  0  0  0  0
   23.2115  -21.0666  -12.5972 C   0  0  0  0  0  0  0  0  0  0  0  0
   22.6026  -21.9746  -11.9739 O   0  0  0  0  0  0  0  0  0  0  0  0
   22.4070  -20.2945  -13.4816 N   0  0  0  0  0  0  0  0  0  0  0  0
   20.9657  -20.4553  -13.5368 C   0  0  0  0  0  0  0  0  0  0  0  0
   20.5695  -21.5043  -14.5040 C   0  0  0  0  0  0  0  0  0  0  0  0
   19.2521  -21.8274  -14.7724 O   0  0  0  0  0  0  0  0  0  0  0  0
   21.4837  -22.1245  -15.1041 O   0  0  0  0  0  0  0  0  0  0  0  0
  2  1  1  6
  3  2  1  0
  4  5  1  0
  4  2  1  0
  5  7  1  0
  5  6  1  1
  7 14  1  0
  7  8  2  0
  9 10  1  0
 10 11  1  0
 11 12  1  1
 13 15  1  0
 13 11  1  0
 13 14  1  6
 15 16  2  0
 17 18  1  0
 17 15  1  0
 19 18  1  0
 20 19  1  0
 21 19  2  0
M  END
$$$$
