LIG.pdb
     RDKit          3D

 21 20  0  0  1  0  0  0  0  0999 V2000
   28.6890  -17.6828  -15.1440 C   0  0  0  0  0  0  0  0  0  0  0  0
   27.8278  -18.5788  -16.0506 C   0  0  2  0  0  0  0  0  0  0  0  0
   27.1433  -17.7244  -17.0943 C   0  0  0  0  0  0  0  0  0  0  0  0
   26.8285  -19.3389  -15.2246 C   0  0  0  0  0  0  0  0  0  0  0  0
   27.5025  -20.2053  -14.2306 C   0  0  2  0  0  0  0  0  0  0  0  0
   28.4279  -21.1441  -14.8118 N   0  0  0  0  0  0  0  0  0  0  0  0
   26.5485  -20.9912  -13.4024 C   0  0  0  0  0  0  0  0  0  0  0  0
   26.1729  -22.1180  -13.7822 O   0  0  0  0  0  0  0  0  0  0  0  0
   26.9287  -20.4341   -8.1024 C   0  0  0  0  0  0  0  0  0  0  0  0
   26.6488  -21.0539   -9.4564 C   0  0  0  0  0  0  0  0  0  0  0  0
   25.3207  -20.6302   -9.9859 C   0  0  2  0  0  0  0  0  0  0  0  0
   24.2112  -20.9280   -9.0282 C   0  0  0  0  0  0  0  0  0  0  0  0
   25.0177  -21.0681  -11.3959 C   0  0  2  0  0  0  0  0  0  0  0  0
   26.0867  -20.4450  -12.2009 N   0  0  0  0  0  0  0  0  0  0  0  0
   23.7276  -20.5585  -11.9172 C   0  0  0  0  0  0  0  0  0  0  0  0
   23.5535  -19.3240  -12.0891 O   0  0  0  0  0  0  0  0  0  0  0  0
   22.6167  -21.3803  -12.2578 N   0  0  0  0  0  0  0  0  0  0  0  0
   21.3502  -20.8120  -12.6813 C   0  0  0  0  0  0  0  0  0  0  0  0
   20.7168  -21.6220  -13.7469 C   0  0  0  0  0  0  0  0  0  0  0  0
   19.4340  -21.3934  -14.2097 O   0  0  0  0  0  0  0  0  0  0  0  0
   21.3873  -22.5602  -14.2475 O   0  0  0  0  0  0  0  0  0  0  0  0
  2  1  1  1
  3  2  1  0
  4  5  1  0
  4  2  1  0
  5  7  1  0
  5  6  1  6
  7 14  1  0
  7  8  2  0
  9 10  1  0
 10 11  1  0
 11 12  1  1
 13 15  1  0
 13 11  1  0
 13 14  1  6
 15 16  2  0
 17 18  1  0
 17 15  1  0
 19 18  1  0
 20 19  1  0
 21 19  2  0
M  END
$$$$
