LIG.pdb
     RDKit          3D

 21 20  0  0  1  0  0  0  0  0999 V2000
   26.2915  -19.7091   -4.6537 C   0  0  0  0  0  0  0  0  0  0  0  0
   27.5191  -20.2214   -5.4265 C   0  0  2  0  0  0  0  0  0  0  0  0
   28.7723  -19.9098   -4.6390 C   0  0  0  0  0  0  0  0  0  0  0  0
   27.5635  -19.5996   -6.7940 C   0  0  0  0  0  0  0  0  0  0  0  0
   26.3699  -19.9677   -7.5896 C   0  0  2  0  0  0  0  0  0  0  0  0
   26.1881  -21.3890   -7.7394 N   0  0  0  0  0  0  0  0  0  0  0  0
   26.3806  -19.3841   -8.9582 C   0  0  0  0  0  0  0  0  0  0  0  0
   26.6026  -18.1673   -9.1166 O   0  0  0  0  0  0  0  0  0  0  0  0
   29.7902  -21.4645  -11.9648 C   0  0  0  0  0  0  0  0  0  0  0  0
   28.8099  -20.3907  -11.5385 C   0  0  0  0  0  0  0  0  0  0  0  0
   27.4186  -20.7246  -11.9590 C   0  0  2  0  0  0  0  0  0  0  0  0
   27.3206  -20.9820  -13.4290 C   0  0  0  0  0  0  0  0  0  0  0  0
   26.3486  -19.7934  -11.4495 C   0  0  2  0  0  0  0  0  0  0  0  0
   26.1389  -20.2207  -10.0522 N   0  0  0  0  0  0  0  0  0  0  0  0
   25.0490  -19.9355  -12.1473 C   0  0  0  0  0  0  0  0  0  0  0  0
   24.8796  -19.4291  -13.2869 O   0  0  0  0  0  0  0  0  0  0  0  0
   23.9235  -20.6273  -11.6183 N   0  0  0  0  0  0  0  0  0  0  0  0
   22.6622  -20.6894  -12.3336 C   0  0  0  0  0  0  0  0  0  0  0  0
   22.5330  -21.9464  -13.1056 C   0  0  0  0  0  0  0  0  0  0  0  0
   21.3351  -22.3890  -13.6359 O   0  0  0  0  0  0  0  0  0  0  0  0
   23.5693  -22.6362  -13.2811 O   0  0  0  0  0  0  0  0  0  0  0  0
  2  1  1  1
  3  2  1  0
  4  5  1  0
  4  2  1  0
  5  7  1  0
  5  6  1  6
  7 14  1  0
  7  8  2  0
  9 10  1  0
 10 11  1  0
 11 12  1  6
 13 15  1  0
 13 11  1  0
 13 14  1  1
 15 16  2  0
 17 18  1  0
 17 15  1  0
 19 18  1  0
 20 19  1  0
 21 19  2  0
M  END
$$$$
