LIG.pdb
     RDKit          3D

 21 20  0  0  1  0  0  0  0  0999 V2000
   16.9841  -10.0536  -19.4888 C   0  0  0  0  0  0  0  0  0  0  0  0
   15.9226  -10.1281  -18.3779 C   0  0  2  0  0  0  0  0  0  0  0  0
   14.7421   -9.2607  -18.7546 C   0  0  0  0  0  0  0  0  0  0  0  0
   16.5187   -9.7012  -17.0661 C   0  0  0  0  0  0  0  0  0  0  0  0
   17.7269  -10.4941  -16.7426 C   0  0  2  0  0  0  0  0  0  0  0  0
   17.4518  -11.8776  -16.4497 N   0  0  0  0  0  0  0  0  0  0  0  0
   18.4885   -9.9481  -15.5869 C   0  0  0  0  0  0  0  0  0  0  0  0
   18.0972  -10.1641  -14.4228 O   0  0  0  0  0  0  0  0  0  0  0  0
   23.2123  -11.3195  -15.1432 C   0  0  0  0  0  0  0  0  0  0  0  0
   21.8314  -10.7615  -14.8650 C   0  0  0  0  0  0  0  0  0  0  0  0
   21.8183   -9.2725  -14.9475 C   0  0  2  0  0  0  0  0  0  0  0  0
   22.8932   -8.6524  -14.1128 C   0  0  0  0  0  0  0  0  0  0  0  0
   20.4709   -8.6264  -14.7511 C   0  0  2  0  0  0  0  0  0  0  0  0
   19.6411   -9.1952  -15.8314 N   0  0  0  0  0  0  0  0  0  0  0  0
   20.4788   -7.1563  -14.9371 C   0  0  0  0  0  0  0  0  0  0  0  0
   20.7884   -6.6570  -16.0500 O   0  0  0  0  0  0  0  0  0  0  0  0
   20.1504   -6.2152  -13.9212 N   0  0  0  0  0  0  0  0  0  0  0  0
   20.2605   -4.7852  -14.1431 C   0  0  0  0  0  0  0  0  0  0  0  0
   21.6140   -4.2835  -13.8125 C   0  0  0  0  0  0  0  0  0  0  0  0
   22.0127   -2.9785  -14.0361 O   0  0  0  0  0  0  0  0  0  0  0  0
   22.4315   -5.0921  -13.3044 O   0  0  0  0  0  0  0  0  0  0  0  0
  2  1  1  6
  3  2  1  0
  4  5  1  0
  4  2  1  0
  5  7  1  0
  5  6  1  1
  7 14  1  0
  7  8  2  0
  9 10  1  0
 10 11  1  0
 11 12  1  1
 13 15  1  0
 13 11  1  0
 13 14  1  6
 15 16  2  0
 17 18  1  0
 17 15  1  0
 19 18  1  0
 20 19  1  0
 21 19  2  0
M  END
$$$$
