LIG.pdb
     RDKit          3D

 21 20  0  0  1  0  0  0  0  0999 V2000
   17.4950   -8.2003  -19.3877 C   0  0  0  0  0  0  0  0  0  0  0  0
   16.5738   -8.2013  -18.1557 C   0  0  2  0  0  0  0  0  0  0  0  0
   15.6909   -6.9736  -18.1898 C   0  0  0  0  0  0  0  0  0  0  0  0
   17.3951   -8.2498  -16.8981 C   0  0  0  0  0  0  0  0  0  0  0  0
   18.2405   -9.4650  -16.8561 C   0  0  2  0  0  0  0  0  0  0  0  0
   17.4891  -10.6932  -16.8061 N   0  0  0  0  0  0  0  0  0  0  0  0
   19.1781   -9.4815  -15.7009 C   0  0  0  0  0  0  0  0  0  0  0  0
   18.7986   -9.9140  -14.5946 O   0  0  0  0  0  0  0  0  0  0  0  0
   23.3774  -12.0564  -15.9699 C   0  0  0  0  0  0  0  0  0  0  0  0
   22.2117  -11.2529  -15.4304 C   0  0  0  0  0  0  0  0  0  0  0  0
   22.5845   -9.8241  -15.2216 C   0  0  2  0  0  0  0  0  0  0  0  0
   23.8163   -9.6795  -14.3858 C   0  0  0  0  0  0  0  0  0  0  0  0
   21.4614   -8.9212  -14.7801 C   0  0  2  0  0  0  0  0  0  0  0  0
   20.4809   -9.0065  -15.8803 N   0  0  0  0  0  0  0  0  0  0  0  0
   21.8516   -7.4972  -14.6549 C   0  0  0  0  0  0  0  0  0  0  0  0
   22.3148   -6.8746  -15.6457 O   0  0  0  0  0  0  0  0  0  0  0  0
   21.7425   -6.7355  -13.4577 N   0  0  0  0  0  0  0  0  0  0  0  0
   22.1347   -5.3392  -13.4047 C   0  0  0  0  0  0  0  0  0  0  0  0
   21.0197   -4.4434  -13.7883 C   0  0  0  0  0  0  0  0  0  0  0  0
   21.1242   -3.0646  -13.7932 O   0  0  0  0  0  0  0  0  0  0  0  0
   19.9302   -4.9734  -14.1238 O   0  0  0  0  0  0  0  0  0  0  0  0
  2  1  1  6
  3  2  1  0
  4  5  1  0
  4  2  1  0
  5  7  1  0
  5  6  1  1
  7 14  1  0
  7  8  2  0
  9 10  1  0
 10 11  1  0
 11 12  1  1
 13 15  1  0
 13 11  1  0
 13 14  1  6
 15 16  2  0
 17 18  1  0
 17 15  1  0
 19 18  1  0
 20 19  1  0
 21 19  2  0
M  END
$$$$
