LIG.pdb
     RDKit          3D

 21 20  0  0  1  0  0  0  0  0999 V2000
   26.1284  -12.2509  -14.7625 C   0  0  0  0  0  0  0  0  0  0  0  0
   26.2024  -11.6769  -16.1879 C   0  0  2  0  0  0  0  0  0  0  0  0
   27.6266  -11.2659  -16.4887 C   0  0  0  0  0  0  0  0  0  0  0  0
   25.2573  -10.5166  -16.3259 C   0  0  0  0  0  0  0  0  0  0  0  0
   23.8534  -10.9410  -16.1209 C   0  0  2  0  0  0  0  0  0  0  0  0
   23.4568  -12.0528  -16.9469 N   0  0  0  0  0  0  0  0  0  0  0  0
   22.8740   -9.8477  -16.3638 C   0  0  0  0  0  0  0  0  0  0  0  0
   22.6473   -9.4591  -17.5268 O   0  0  0  0  0  0  0  0  0  0  0  0
   18.9963  -10.9926  -15.9978 C   0  0  0  0  0  0  0  0  0  0  0  0
   19.4272   -9.5981  -16.4048 C   0  0  0  0  0  0  0  0  0  0  0  0
   19.9135   -8.8141  -15.2331 C   0  0  2  0  0  0  0  0  0  0  0  0
   18.8700   -7.8805  -14.7076 C   0  0  0  0  0  0  0  0  0  0  0  0
   21.2591   -8.1582  -15.4082 C   0  0  2  0  0  0  0  0  0  0  0  0
   22.2195   -9.2709  -15.2711 N   0  0  0  0  0  0  0  0  0  0  0  0
   21.5855   -7.1698  -14.3535 C   0  0  0  0  0  0  0  0  0  0  0  0
   21.8374   -7.5500  -13.1806 O   0  0  0  0  0  0  0  0  0  0  0  0
   21.6432   -5.7628  -14.5598 N   0  0  0  0  0  0  0  0  0  0  0  0
   21.9409   -4.8454  -13.4754 C   0  0  0  0  0  0  0  0  0  0  0  0
   22.0212   -3.4452  -13.9505 C   0  0  0  0  0  0  0  0  0  0  0  0
   22.2283   -2.3702  -13.1059 O   0  0  0  0  0  0  0  0  0  0  0  0
   21.8933   -3.2359  -15.1835 O   0  0  0  0  0  0  0  0  0  0  0  0
  2  1  1  1
  3  2  1  0
  4  5  1  0
  4  2  1  0
  5  7  1  0
  5  6  1  6
  7 14  1  0
  7  8  2  0
  9 10  1  0
 10 11  1  0
 11 12  1  6
 13 15  1  0
 13 11  1  0
 13 14  1  1
 15 16  2  0
 17 18  1  0
 17 15  1  0
 19 18  1  0
 20 19  1  0
 21 19  2  0
M  END
$$$$
