LIG.pdb
     RDKit          3D

 21 20  0  0  1  0  0  0  0  0999 V2000
   19.4975  -19.4502  -14.5799 C   0  0  0  0  0  0  0  0  0  0  0  0
   20.1465  -19.1825  -15.9487 C   0  0  2  0  0  0  0  0  0  0  0  0
   19.2610  -19.7411  -17.0404 C   0  0  0  0  0  0  0  0  0  0  0  0
   21.5207  -19.7892  -15.9949 C   0  0  0  0  0  0  0  0  0  0  0  0
   22.3545  -19.3152  -14.8666 C   0  0  2  0  0  0  0  0  0  0  0  0
   22.6636  -17.9092  -14.9240 N   0  0  0  0  0  0  0  0  0  0  0  0
   23.6487  -20.0406  -14.7550 C   0  0  0  0  0  0  0  0  0  0  0  0
   23.7139  -21.2507  -15.0490 O   0  0  0  0  0  0  0  0  0  0  0  0
   28.0392  -17.5340  -16.4660 C   0  0  0  0  0  0  0  0  0  0  0  0
   27.0755  -18.6470  -16.1076 C   0  0  0  0  0  0  0  0  0  0  0  0
   27.0674  -18.9095  -14.6396 C   0  0  2  0  0  0  0  0  0  0  0  0
   28.4474  -19.0879  -14.0915 C   0  0  0  0  0  0  0  0  0  0  0  0
   26.1063  -19.9753  -14.1792 C   0  0  2  0  0  0  0  0  0  0  0  0
   24.7793  -19.3437  -14.3177 N   0  0  0  0  0  0  0  0  0  0  0  0
   26.2636  -20.3483  -12.7537 C   0  0  0  0  0  0  0  0  0  0  0  0
   27.0112  -21.3058  -12.4250 O   0  0  0  0  0  0  0  0  0  0  0  0
   25.6145  -19.6878  -11.6731 N   0  0  0  0  0  0  0  0  0  0  0  0
   25.8419  -20.0790  -10.2942 C   0  0  0  0  0  0  0  0  0  0  0  0
   24.7343  -20.9124   -9.7728 C   0  0  0  0  0  0  0  0  0  0  0  0
   23.7191  -21.4069  -10.5708 O   0  0  0  0  0  0  0  0  0  0  0  0
   24.7273  -21.1766   -8.5438 O   0  0  0  0  0  0  0  0  0  0  0  0
  2  1  1  1
  3  2  1  0
  4  5  1  0
  4  2  1  0
  5  7  1  0
  5  6  1  6
  7 14  1  0
  7  8  2  0
  9 10  1  0
 10 11  1  0
 11 12  1  6
 13 15  1  0
 13 11  1  0
 13 14  1  1
 15 16  2  0
 17 18  1  0
 17 15  1  0
 19 18  1  0
 20 19  1  0
 21 19  2  0
M  END
$$$$
