LIG.pdb
     RDKit          3D

 21 20  0  0  1  0  0  0  0  0999 V2000
   16.5293  -12.0006  -14.6082 C   0  0  0  0  0  0  0  0  0  0  0  0
   17.3505  -12.3003  -15.8741 C   0  0  2  0  0  0  0  0  0  0  0  0
   17.2508  -13.7744  -16.1981 C   0  0  0  0  0  0  0  0  0  0  0  0
   18.7792  -11.8797  -15.6730 C   0  0  0  0  0  0  0  0  0  0  0  0
   18.8760  -10.4307  -15.3829 C   0  0  2  0  0  0  0  0  0  0  0  0
   18.0998   -9.6072  -16.2746 N   0  0  0  0  0  0  0  0  0  0  0  0
   20.2732   -9.9210  -15.4261 C   0  0  0  0  0  0  0  0  0  0  0  0
   21.1780  -10.5265  -14.8181 O   0  0  0  0  0  0  0  0  0  0  0  0
   22.3370   -9.3612  -19.9065 C   0  0  0  0  0  0  0  0  0  0  0  0
   22.1571   -9.4925  -18.4078 C   0  0  0  0  0  0  0  0  0  0  0  0
   22.1805   -8.1606  -17.7372 C   0  0  2  0  0  0  0  0  0  0  0  0
   23.3997   -7.3714  -18.0941 C   0  0  0  0  0  0  0  0  0  0  0  0
   21.9002   -8.1778  -16.2564 C   0  0  2  0  0  0  0  0  0  0  0  0
   20.5475   -8.7602  -16.1557 N   0  0  0  0  0  0  0  0  0  0  0  0
   21.8404   -6.8305  -15.6424 C   0  0  0  0  0  0  0  0  0  0  0  0
   21.0133   -5.9778  -16.0578 O   0  0  0  0  0  0  0  0  0  0  0  0
   22.6737   -6.3959  -14.5737 N   0  0  0  0  0  0  0  0  0  0  0  0
   22.6114   -5.0391  -14.0625 C   0  0  0  0  0  0  0  0  0  0  0  0
   21.5292   -4.8803  -13.0641 C   0  0  0  0  0  0  0  0  0  0  0  0
   20.6225   -5.8807  -12.7656 O   0  0  0  0  0  0  0  0  0  0  0  0
   21.4404   -3.7785  -12.4654 O   0  0  0  0  0  0  0  0  0  0  0  0
  2  1  1  1
  3  2  1  0
  4  5  1  0
  4  2  1  0
  5  7  1  0
  5  6  1  6
  7 14  1  0
  7  8  2  0
  9 10  1  0
 10 11  1  0
 11 12  1  1
 13 15  1  0
 13 11  1  0
 13 14  1  6
 15 16  2  0
 17 18  1  0
 17 15  1  0
 19 18  1  0
 20 19  1  0
 21 19  2  0
M  END
$$$$
