LIG.pdb
     RDKit          3D

 21 20  0  0  1  0  0  0  0  0999 V2000
   17.6155  -22.8518  -12.7302 C   0  0  0  0  0  0  0  0  0  0  0  0
   18.6765  -23.2334  -11.6836 C   0  0  2  0  0  0  0  0  0  0  0  0
   17.9934  -23.5574  -10.3735 C   0  0  0  0  0  0  0  0  0  0  0  0
   19.6670  -22.1147  -11.5222 C   0  0  0  0  0  0  0  0  0  0  0  0
   20.2882  -21.7573  -12.8182 C   0  0  2  0  0  0  0  0  0  0  0  0
   20.8430  -22.8829  -13.5258 N   0  0  0  0  0  0  0  0  0  0  0  0
   21.3746  -20.7497  -12.6840 C   0  0  0  0  0  0  0  0  0  0  0  0
   21.2030  -19.7363  -11.9779 O   0  0  0  0  0  0  0  0  0  0  0  0
   26.2085  -22.2792  -11.3829 C   0  0  0  0  0  0  0  0  0  0  0  0
   24.9885  -21.4034  -11.5838 C   0  0  0  0  0  0  0  0  0  0  0  0
   24.9009  -20.9040  -12.9863 C   0  0  2  0  0  0  0  0  0  0  0  0
   26.1965  -20.3273  -13.4610 C   0  0  0  0  0  0  0  0  0  0  0  0
   23.7164  -20.0212  -13.2849 C   0  0  2  0  0  0  0  0  0  0  0  0
   22.5804  -20.9609  -13.3597 N   0  0  0  0  0  0  0  0  0  0  0  0
   23.7977  -19.3324  -14.5944 C   0  0  0  0  0  0  0  0  0  0  0  0
   24.5773  -18.3573  -14.7534 O   0  0  0  0  0  0  0  0  0  0  0  0
   23.0376  -19.6937  -15.7420 N   0  0  0  0  0  0  0  0  0  0  0  0
   23.2560  -19.0622  -17.0303 C   0  0  0  0  0  0  0  0  0  0  0  0
   22.2208  -18.0444  -17.3225 C   0  0  0  0  0  0  0  0  0  0  0  0
   22.1713  -17.3343  -18.5079 O   0  0  0  0  0  0  0  0  0  0  0  0
   21.3502  -17.8239  -16.4429 O   0  0  0  0  0  0  0  0  0  0  0  0
  2  1  1  6
  3  2  1  0
  4  5  1  0
  4  2  1  0
  5  7  1  0
  5  6  1  1
  7 14  1  0
  7  8  2  0
  9 10  1  0
 10 11  1  0
 11 12  1  1
 13 15  1  0
 13 11  1  0
 13 14  1  6
 15 16  2  0
 17 18  1  0
 17 15  1  0
 19 18  1  0
 20 19  1  0
 21 19  2  0
M  END
$$$$
