LIG.pdb
     RDKit          3D

 21 20  0  0  1  0  0  0  0  0999 V2000
   21.3389  -22.3226  -17.0323 C   0  0  0  0  0  0  0  0  0  0  0  0
   21.6137  -22.3726  -15.5196 C   0  0  2  0  0  0  0  0  0  0  0  0
   20.9461  -23.5949  -14.9296 C   0  0  0  0  0  0  0  0  0  0  0  0
   21.1236  -21.1118  -14.8648 C   0  0  0  0  0  0  0  0  0  0  0  0
   21.3044  -21.1650  -13.3959 C   0  0  2  0  0  0  0  0  0  0  0  0
   20.2069  -20.5974  -12.6551 N   0  0  0  0  0  0  0  0  0  0  0  0
   22.5410  -20.4766  -12.9369 C   0  0  0  0  0  0  0  0  0  0  0  0
   22.5877  -19.2308  -12.9064 O   0  0  0  0  0  0  0  0  0  0  0  0
   24.3101  -20.7242   -8.4085 C   0  0  0  0  0  0  0  0  0  0  0  0
   24.0999  -20.3248   -9.8549 C   0  0  0  0  0  0  0  0  0  0  0  0
   25.1225  -20.9449  -10.7459 C   0  0  2  0  0  0  0  0  0  0  0  0
   26.5156  -20.7031  -10.2584 C   0  0  0  0  0  0  0  0  0  0  0  0
   24.9539  -20.6632  -12.2169 C   0  0  2  0  0  0  0  0  0  0  0  0
   23.6388  -21.2484  -12.5442 N   0  0  0  0  0  0  0  0  0  0  0  0
   25.9559  -21.3383  -13.0747 C   0  0  0  0  0  0  0  0  0  0  0  0
   26.4470  -22.4446  -12.7301 O   0  0  0  0  0  0  0  0  0  0  0  0
   26.4332  -20.8228  -14.3124 N   0  0  0  0  0  0  0  0  0  0  0  0
   27.4376  -21.5221  -15.0924 C   0  0  0  0  0  0  0  0  0  0  0  0
   27.7371  -20.8143  -16.3582 C   0  0  0  0  0  0  0  0  0  0  0  0
   28.7596  -21.1882  -17.2106 O   0  0  0  0  0  0  0  0  0  0  0  0
   27.0203  -19.8272  -16.6621 O   0  0  0  0  0  0  0  0  0  0  0  0
  2  1  1  6
  3  2  1  0
  4  5  1  0
  4  2  1  0
  5  7  1  0
  5  6  1  1
  7 14  1  0
  7  8  2  0
  9 10  1  0
 10 11  1  0
 11 12  1  1
 13 15  1  0
 13 11  1  0
 13 14  1  6
 15 16  2  0
 17 18  1  0
 17 15  1  0
 19 18  1  0
 20 19  1  0
 21 19  2  0
M  END
$$$$
