VIT.pdb
     RDKit          3D

 23 22  0  0  1  0  0  0  0  0999 V2000
    6.6102  -16.4382   19.0757 C   0  0  0  0  0  0  0  0  0  0  0  0
    7.2498  -16.1960   20.3952 C   0  0  2  0  0  0  0  0  0  0  0  0
    6.5483  -17.0426   21.4346 C   0  0  0  0  0  0  0  0  0  0  0  0
    7.3248  -14.7483   20.8176 C   0  0  2  0  0  0  0  0  0  0  0  0
    8.1099  -14.0768   19.7690 N   0  0  0  0  0  0  0  0  0  0  0  0
    8.0417  -14.5330   22.0922 C   0  0  0  0  0  0  0  0  0  0  0  0
    9.2823  -14.5268   22.1377 O   0  0  0  0  0  0  0  0  0  0  0  0
    7.3071  -11.5334   27.2886 C   0  0  0  0  0  0  0  0  0  0  0  0
    8.0881  -12.6762   26.6273 C   0  0  0  0  0  0  0  0  0  0  0  0
    7.3727  -13.0135   25.3686 C   0  0  2  0  0  0  0  0  0  0  0  0
    5.9273  -13.3404   25.6388 C   0  0  0  0  0  0  0  0  0  0  0  0
    8.0418  -14.0671   24.5317 C   0  0  2  0  0  0  0  0  0  0  0  0
    7.3283  -14.3273   23.2922 N   0  0  0  0  0  0  0  0  0  0  0  0
    8.2548  -15.3294   25.2989 C   0  0  0  0  0  0  0  0  0  0  0  0
    7.2715  -16.0756   25.6173 O   0  0  0  0  0  0  0  0  0  0  0  0
   11.0843  -19.1643   26.2907 C   0  0  0  0  0  0  0  0  0  0  0  0
   10.8623  -17.8249   25.6186 C   0  0  1  0  0  0  0  0  0  0  0  0
   10.5832  -18.0162   24.2659 O   0  0  0  0  0  0  0  0  0  0  0  0
    9.7432  -17.0954   26.3221 C   0  0  2  0  0  0  0  0  0  0  0  0
    9.5274  -15.7719   25.7139 N   0  0  0  0  0  0  0  0  0  0  0  0
   10.0006  -16.9807   27.7603 C   0  0  0  0  0  0  0  0  0  0  0  0
    9.6912  -17.9845   28.6830 O   0  0  0  0  0  0  0  0  0  0  0  0
   10.5258  -15.9362   28.2139 O   0  0  0  0  0  0  0  0  0  0  0  0
  2  1  1  6
  2  3  1  0
  4  2  1  0
  4  5  1  6
  6  4  1  0
  6 13  1  0
  7  6  2  0
  9 10  1  0
  9  8  1  0
 10 12  1  0
 10 11  1  1
 12 13  1  6
 14 12  1  0
 15 14  2  0
 17 16  1  1
 17 18  1  0
 17 19  1  0
 19 21  1  0
 19 20  1  6
 20 14  1  0
 21 22  1  0
 23 21  2  0
M  END
$$$$
