VIT.pdb
     RDKit          3D

 23 22  0  0  1  0  0  0  0  0999 V2000
    7.6885  -17.1443   21.1852 C   0  0  0  0  0  0  0  0  0  0  0  0
    6.7726  -15.9837   21.0341 C   0  0  2  0  0  0  0  0  0  0  0  0
    6.1044  -16.0688   19.6793 C   0  0  0  0  0  0  0  0  0  0  0  0
    7.4061  -14.6311   21.2562 C   0  0  2  0  0  0  0  0  0  0  0  0
    8.4414  -14.5105   20.2170 N   0  0  0  0  0  0  0  0  0  0  0  0
    8.0909  -14.4976   22.5593 C   0  0  0  0  0  0  0  0  0  0  0  0
    9.3249  -14.5991   22.6492 O   0  0  0  0  0  0  0  0  0  0  0  0
    5.8018  -11.3885   26.4060 C   0  0  0  0  0  0  0  0  0  0  0  0
    6.8436  -11.9527   25.4315 C   0  0  0  0  0  0  0  0  0  0  0  0
    7.2862  -13.2594   25.9850 C   0  0  2  0  0  0  0  0  0  0  0  0
    8.0409  -13.0727   27.2753 C   0  0  0  0  0  0  0  0  0  0  0  0
    8.0356  -14.1284   25.0147 C   0  0  2  0  0  0  0  0  0  0  0  0
    7.3537  -14.2492   23.7366 N   0  0  0  0  0  0  0  0  0  0  0  0
    8.3301  -15.4734   25.5908 C   0  0  0  0  0  0  0  0  0  0  0  0
    7.3870  -16.2530   25.9481 O   0  0  0  0  0  0  0  0  0  0  0  0
   10.3796  -18.0346   23.9028 C   0  0  0  0  0  0  0  0  0  0  0  0
   10.9256  -17.9965   25.3154 C   0  0  1  0  0  0  0  0  0  0  0  0
   12.1473  -17.3244   25.3310 O   0  0  0  0  0  0  0  0  0  0  0  0
    9.9139  -17.3374   26.2216 C   0  0  2  0  0  0  0  0  0  0  0  0
    9.6398  -15.9614   25.7745 N   0  0  0  0  0  0  0  0  0  0  0  0
   10.3525  -17.3615   27.6197 C   0  0  0  0  0  0  0  0  0  0  0  0
   10.6858  -16.2137   28.3448 O   0  0  0  0  0  0  0  0  0  0  0  0
   10.4422  -18.4581   28.2217 O   0  0  0  0  0  0  0  0  0  0  0  0
  2  1  1  6
  2  3  1  0
  4  2  1  0
  4  5  1  6
  6  4  1  0
  6 13  1  0
  7  6  2  0
  9 10  1  0
  9  8  1  0
 10 12  1  0
 10 11  1  1
 12 13  1  6
 14 12  1  0
 15 14  2  0
 17 16  1  6
 17 18  1  0
 17 19  1  0
 19 21  1  0
 19 20  1  6
 20 14  1  0
 21 22  1  0
 23 21  2  0
M  END
$$$$
