VIT.pdb
     RDKit          3D

 23 22  0  0  1  0  0  0  0  0999 V2000
    7.1592  -13.4767   21.0524 C   0  0  0  0  0  0  0  0  0  0  0  0
    7.7424  -14.7650   20.5953 C   0  0  2  0  0  0  0  0  0  0  0  0
    6.9564  -15.2534   19.3982 C   0  0  0  0  0  0  0  0  0  0  0  0
    7.8559  -15.8325   21.6572 C   0  0  2  0  0  0  0  0  0  0  0  0
    6.4702  -16.1591   22.0310 N   0  0  0  0  0  0  0  0  0  0  0  0
    8.5359  -15.3809   22.8896 C   0  0  0  0  0  0  0  0  0  0  0  0
    9.7316  -15.0477   22.8776 O   0  0  0  0  0  0  0  0  0  0  0  0
    6.2048  -12.1113   26.4468 C   0  0  0  0  0  0  0  0  0  0  0  0
    7.1973  -12.7892   25.4936 C   0  0  0  0  0  0  0  0  0  0  0  0
    7.6970  -14.0053   26.1875 C   0  0  2  0  0  0  0  0  0  0  0  0
    8.3972  -13.6460   27.4719 C   0  0  0  0  0  0  0  0  0  0  0  0
    8.5268  -14.9186   25.3298 C   0  0  2  0  0  0  0  0  0  0  0  0
    7.8370  -15.3168   24.1138 N   0  0  0  0  0  0  0  0  0  0  0  0
    8.9989  -16.1129   26.0901 C   0  0  0  0  0  0  0  0  0  0  0  0
    8.1768  -16.8505   26.7266 O   0  0  0  0  0  0  0  0  0  0  0  0
   12.4677  -19.5820   26.6844 C   0  0  0  0  0  0  0  0  0  0  0  0
   12.0780  -18.2381   26.1040 C   0  0  1  0  0  0  0  0  0  0  0  0
   11.9730  -18.3357   24.7170 O   0  0  0  0  0  0  0  0  0  0  0  0
   10.7827  -17.7826   26.7315 C   0  0  2  0  0  0  0  0  0  0  0  0
   10.3536  -16.4975   26.1546 N   0  0  0  0  0  0  0  0  0  0  0  0
   10.8966  -17.6956   28.1900 C   0  0  0  0  0  0  0  0  0  0  0  0
   10.5991  -18.7547   29.0527 O   0  0  0  0  0  0  0  0  0  0  0  0
   11.2794  -16.6246   28.7184 O   0  0  0  0  0  0  0  0  0  0  0  0
  2  1  1  1
  2  3  1  0
  4  2  1  0
  4  5  1  1
  6  4  1  0
  6 13  1  0
  7  6  2  0
  9 10  1  0
  9  8  1  0
 10 12  1  0
 10 11  1  1
 12 13  1  6
 14 12  1  0
 15 14  2  0
 17 16  1  1
 17 18  1  0
 17 19  1  0
 19 21  1  0
 19 20  1  6
 20 14  1  0
 21 22  1  0
 23 21  2  0
M  END
$$$$
