VIT.pdb
     RDKit          3D

 23 22  0  0  1  0  0  0  0  0999 V2000
    8.2184  -17.8415   21.9936 C   0  0  0  0  0  0  0  0  0  0  0  0
    7.1883  -16.8265   21.6509 C   0  0  2  0  0  0  0  0  0  0  0  0
    6.5516  -17.2102   20.3331 C   0  0  0  0  0  0  0  0  0  0  0  0
    7.6737  -15.3967   21.6369 C   0  0  2  0  0  0  0  0  0  0  0  0
    8.7448  -15.3589   20.6280 N   0  0  0  0  0  0  0  0  0  0  0  0
    8.2735  -14.9556   22.9138 C   0  0  0  0  0  0  0  0  0  0  0  0
    9.5019  -14.8235   23.0341 O   0  0  0  0  0  0  0  0  0  0  0  0
    5.5845  -11.5018   26.1934 C   0  0  0  0  0  0  0  0  0  0  0  0
    6.6762  -12.1493   25.3319 C   0  0  0  0  0  0  0  0  0  0  0  0
    7.1590  -13.3425   26.0755 C   0  0  2  0  0  0  0  0  0  0  0  0
    7.7717  -12.9471   27.3936 C   0  0  0  0  0  0  0  0  0  0  0  0
    8.0590  -14.2502   25.2855 C   0  0  2  0  0  0  0  0  0  0  0  0
    7.4588  -14.6721   24.0305 N   0  0  0  0  0  0  0  0  0  0  0  0
    8.4983  -15.4289   26.0889 C   0  0  0  0  0  0  0  0  0  0  0  0
    9.0623  -15.2751   27.2217 O   0  0  0  0  0  0  0  0  0  0  0  0
    6.5525  -19.0333   26.0225 C   0  0  0  0  0  0  0  0  0  0  0  0
    8.0596  -19.1770   25.9692 C   0  0  1  0  0  0  0  0  0  0  0  0
    8.4613  -19.4530   24.6627 O   0  0  0  0  0  0  0  0  0  0  0  0
    8.6981  -17.9140   26.4949 C   0  0  2  0  0  0  0  0  0  0  0  0
    8.3236  -16.7603   25.6600 N   0  0  0  0  0  0  0  0  0  0  0  0
   10.1544  -18.0494   26.5871 C   0  0  0  0  0  0  0  0  0  0  0  0
   10.7936  -18.9628   27.4306 O   0  0  0  0  0  0  0  0  0  0  0  0
   10.8901  -17.3184   25.8819 O   0  0  0  0  0  0  0  0  0  0  0  0
  2  1  1  6
  2  3  1  0
  4  2  1  0
  4  5  1  6
  6  4  1  0
  6 13  1  0
  7  6  2  0
  9 10  1  0
  9  8  1  0
 10 12  1  0
 10 11  1  1
 12 13  1  6
 14 12  1  0
 15 14  2  0
 17 16  1  6
 17 18  1  0
 17 19  1  0
 19 21  1  0
 19 20  1  6
 20 14  1  0
 21 22  1  0
 23 21  2  0
M  END
$$$$
