VIT.pdb
     RDKit          3D

 23 22  0  0  1  0  0  0  0  0999 V2000
    8.2902  -17.6035   21.4580 C   0  0  0  0  0  0  0  0  0  0  0  0
    7.0677  -16.7677   21.3331 C   0  0  2  0  0  0  0  0  0  0  0  0
    6.3575  -17.1394   20.0499 C   0  0  0  0  0  0  0  0  0  0  0  0
    7.2944  -15.2780   21.4302 C   0  0  2  0  0  0  0  0  0  0  0  0
    8.1564  -14.9397   20.2861 N   0  0  0  0  0  0  0  0  0  0  0  0
    8.0189  -14.8609   22.6493 C   0  0  0  0  0  0  0  0  0  0  0  0
    9.2452  -14.6690   22.6330 O   0  0  0  0  0  0  0  0  0  0  0  0
    5.9700  -11.5505   26.3843 C   0  0  0  0  0  0  0  0  0  0  0  0
    6.9419  -12.2215   25.4054 C   0  0  0  0  0  0  0  0  0  0  0  0
    7.3624  -13.5039   26.0287 C   0  0  2  0  0  0  0  0  0  0  0  0
    8.1500  -13.2600   27.2893 C   0  0  0  0  0  0  0  0  0  0  0  0
    8.0671  -14.4504   25.0982 C   0  0  2  0  0  0  0  0  0  0  0  0
    7.3290  -14.6692   23.8652 N   0  0  0  0  0  0  0  0  0  0  0  0
    8.3857  -15.7468   25.7657 C   0  0  0  0  0  0  0  0  0  0  0  0
    7.4592  -16.4880   26.2317 O   0  0  0  0  0  0  0  0  0  0  0  0
   10.3011  -18.5695   24.2772 C   0  0  0  0  0  0  0  0  0  0  0  0
   10.9540  -18.3127   25.6199 C   0  0  1  0  0  0  0  0  0  0  0  0
   12.1498  -17.6190   25.4381 O   0  0  0  0  0  0  0  0  0  0  0  0
    9.9943  -17.5501   26.5013 C   0  0  2  0  0  0  0  0  0  0  0  0
    9.7014  -16.2282   25.9225 N   0  0  0  0  0  0  0  0  0  0  0  0
   10.5069  -17.4268   27.8687 C   0  0  0  0  0  0  0  0  0  0  0  0
   10.6391  -18.5082   28.7447 O   0  0  0  0  0  0  0  0  0  0  0  0
   10.8528  -16.3015   28.3011 O   0  0  0  0  0  0  0  0  0  0  0  0
  2  1  1  6
  2  3  1  0
  4  2  1  0
  4  5  1  6
  6  4  1  0
  6 13  1  0
  7  6  2  0
  9 10  1  0
  9  8  1  0
 10 12  1  0
 10 11  1  1
 12 13  1  6
 14 12  1  0
 15 14  2  0
 17 16  1  6
 17 18  1  0
 17 19  1  0
 19 21  1  0
 19 20  1  6
 20 14  1  0
 21 22  1  0
 23 21  2  0
M  END
$$$$
