VIT.pdb
     RDKit          3D

 23 22  0  0  1  0  0  0  0  0999 V2000
    7.7316  -17.4957   21.0707 C   0  0  0  0  0  0  0  0  0  0  0  0
    6.6029  -16.5290   21.0483 C   0  0  2  0  0  0  0  0  0  0  0  0
    5.7785  -16.7777   19.8042 C   0  0  0  0  0  0  0  0  0  0  0  0
    6.9974  -15.0767   21.1712 C   0  0  2  0  0  0  0  0  0  0  0  0
    7.8448  -14.8027   19.9993 N   0  0  0  0  0  0  0  0  0  0  0  0
    7.8124  -14.7769   22.3674 C   0  0  0  0  0  0  0  0  0  0  0  0
    9.0474  -14.6756   22.2936 O   0  0  0  0  0  0  0  0  0  0  0  0
    5.8647  -11.6479   26.4111 C   0  0  0  0  0  0  0  0  0  0  0  0
    6.8188  -12.1986   25.3436 C   0  0  0  0  0  0  0  0  0  0  0  0
    7.2951  -13.5190   25.8331 C   0  0  2  0  0  0  0  0  0  0  0  0
    8.0971  -13.3693   27.0995 C   0  0  0  0  0  0  0  0  0  0  0  0
    8.0149  -14.3451   24.8047 C   0  0  2  0  0  0  0  0  0  0  0  0
    7.2015  -14.5970   23.6266 N   0  0  0  0  0  0  0  0  0  0  0  0
    8.5270  -15.6227   25.3819 C   0  0  0  0  0  0  0  0  0  0  0  0
    7.7320  -16.4656   25.9134 O   0  0  0  0  0  0  0  0  0  0  0  0
   12.1100  -19.0239   25.6107 C   0  0  0  0  0  0  0  0  0  0  0  0
   11.6337  -17.6777   25.1049 C   0  0  1  0  0  0  0  0  0  0  0  0
   11.4403  -17.7335   23.7252 O   0  0  0  0  0  0  0  0  0  0  0  0
   10.3671  -17.2938   25.8314 C   0  0  2  0  0  0  0  0  0  0  0  0
    9.8917  -15.9757   25.3786 N   0  0  0  0  0  0  0  0  0  0  0  0
   10.5560  -17.3171   27.2845 C   0  0  0  0  0  0  0  0  0  0  0  0
   10.2769  -18.4308   28.0821 O   0  0  0  0  0  0  0  0  0  0  0  0
   10.9904  -16.2960   27.8688 O   0  0  0  0  0  0  0  0  0  0  0  0
  2  1  1  6
  2  3  1  0
  4  2  1  0
  4  5  1  6
  6  4  1  0
  6 13  1  0
  7  6  2  0
  9 10  1  0
  9  8  1  0
 10 12  1  0
 10 11  1  1
 12 13  1  6
 14 12  1  0
 15 14  2  0
 17 16  1  1
 17 18  1  0
 17 19  1  0
 19 21  1  0
 19 20  1  6
 20 14  1  0
 21 22  1  0
 23 21  2  0
M  END
$$$$
