VIT.pdb
     RDKit          3D

 23 22  0  0  1  0  0  0  0  0999 V2000
    6.2728  -16.9785   19.8520 C   0  0  0  0  0  0  0  0  0  0  0  0
    7.0309  -16.6235   21.0800 C   0  0  2  0  0  0  0  0  0  0  0  0
    6.5354  -17.4862   22.2199 C   0  0  0  0  0  0  0  0  0  0  0  0
    7.0142  -15.1584   21.4452 C   0  0  2  0  0  0  0  0  0  0  0  0
    7.6623  -14.4685   20.3180 N   0  0  0  0  0  0  0  0  0  0  0  0
    7.8006  -14.8338   22.6540 C   0  0  0  0  0  0  0  0  0  0  0  0
    9.0408  -14.7912   22.6207 O   0  0  0  0  0  0  0  0  0  0  0  0
    5.8957  -11.4050   26.3943 C   0  0  0  0  0  0  0  0  0  0  0  0
    6.8042  -12.1076   25.3774 C   0  0  0  0  0  0  0  0  0  0  0  0
    7.2794  -13.3611   26.0199 C   0  0  2  0  0  0  0  0  0  0  0  0
    8.1394  -13.0616   27.2198 C   0  0  0  0  0  0  0  0  0  0  0  0
    7.9385  -14.3336   25.0828 C   0  0  2  0  0  0  0  0  0  0  0  0
    7.1557  -14.5624   23.8795 N   0  0  0  0  0  0  0  0  0  0  0  0
    8.2613  -15.6229   25.7617 C   0  0  0  0  0  0  0  0  0  0  0  0
    7.3377  -16.3594   26.2409 O   0  0  0  0  0  0  0  0  0  0  0  0
   10.0285  -18.4761   24.2868 C   0  0  0  0  0  0  0  0  0  0  0  0
   10.7598  -18.2245   25.5894 C   0  0  1  0  0  0  0  0  0  0  0  0
   11.9673  -17.5752   25.3348 O   0  0  0  0  0  0  0  0  0  0  0  0
    9.8747  -17.4175   26.5083 C   0  0  2  0  0  0  0  0  0  0  0  0
    9.5779  -16.1026   25.9156 N   0  0  0  0  0  0  0  0  0  0  0  0
   10.4734  -17.2749   27.8384 C   0  0  0  0  0  0  0  0  0  0  0  0
   10.6464  -18.3410   28.7260 O   0  0  0  0  0  0  0  0  0  0  0  0
   10.8598  -16.1465   28.2257 O   0  0  0  0  0  0  0  0  0  0  0  0
  2  1  1  6
  2  3  1  0
  4  2  1  0
  4  5  1  6
  6  4  1  0
  6 13  1  0
  7  6  2  0
  9 10  1  0
  9  8  1  0
 10 12  1  0
 10 11  1  1
 12 13  1  6
 14 12  1  0
 15 14  2  0
 17 16  1  6
 17 18  1  0
 17 19  1  0
 19 21  1  0
 19 20  1  6
 20 14  1  0
 21 22  1  0
 23 21  2  0
M  END
$$$$
