VIT.pdb
     RDKit          3D

 23 22  0  0  1  0  0  0  0  0999 V2000
    6.7758  -14.9563   18.6951 C   0  0  0  0  0  0  0  0  0  0  0  0
    7.3868  -15.0096   20.0488 C   0  0  2  0  0  0  0  0  0  0  0  0
    6.8023  -16.1879   20.7966 C   0  0  0  0  0  0  0  0  0  0  0  0
    7.2821  -13.7354   20.8524 C   0  0  2  0  0  0  0  0  0  0  0  0
    7.9637  -12.7096   20.0464 N   0  0  0  0  0  0  0  0  0  0  0  0
    7.9802  -13.7897   22.1542 C   0  0  0  0  0  0  0  0  0  0  0  0
    9.2105  -13.6423   22.2293 O   0  0  0  0  0  0  0  0  0  0  0  0
    5.9382  -11.4937   26.5442 C   0  0  0  0  0  0  0  0  0  0  0  0
    6.8832  -11.9622   25.4303 C   0  0  0  0  0  0  0  0  0  0  0  0
    7.2221  -13.3798   25.7224 C   0  0  2  0  0  0  0  0  0  0  0  0
    7.9307  -13.5050   27.0458 C   0  0  0  0  0  0  0  0  0  0  0  0
    7.9585  -14.0870   24.6198 C   0  0  2  0  0  0  0  0  0  0  0  0
    7.2599  -14.0101   23.3473 N   0  0  0  0  0  0  0  0  0  0  0  0
    8.2602  -15.5043   24.9772 C   0  0  0  0  0  0  0  0  0  0  0  0
    7.3241  -16.3197   25.2671 O   0  0  0  0  0  0  0  0  0  0  0  0
   10.1376  -17.9427   22.8602 C   0  0  0  0  0  0  0  0  0  0  0  0
   10.8007  -17.9890   24.2215 C   0  0  1  0  0  0  0  0  0  0  0  0
   11.9906  -17.2626   24.1917 O   0  0  0  0  0  0  0  0  0  0  0  0
    9.8442  -17.4518   25.2587 C   0  0  2  0  0  0  0  0  0  0  0  0
    9.5695  -16.0253   25.0177 N   0  0  0  0  0  0  0  0  0  0  0  0
   10.3497  -17.6708   26.6167 C   0  0  0  0  0  0  0  0  0  0  0  0
   10.5105  -18.9374   27.1863 O   0  0  0  0  0  0  0  0  0  0  0  0
   10.6621  -16.6859   27.3274 O   0  0  0  0  0  0  0  0  0  0  0  0
  2  1  1  6
  2  3  1  0
  4  2  1  0
  4  5  1  6
  6  4  1  0
  6 13  1  0
  7  6  2  0
  9 10  1  0
  9  8  1  0
 10 12  1  0
 10 11  1  1
 12 13  1  6
 14 12  1  0
 15 14  2  0
 17 16  1  6
 17 18  1  0
 17 19  1  0
 19 21  1  0
 19 20  1  6
 20 14  1  0
 21 22  1  0
 23 21  2  0
M  END
$$$$
