VIT.pdb
     RDKit          3D

 23 22  0  0  1  0  0  0  0  0999 V2000
    4.8758  -19.6241   22.3626 C   0  0  0  0  0  0  0  0  0  0  0  0
    5.9461  -18.8786   23.0750 C   0  0  2  0  0  0  0  0  0  0  0  0
    5.8738  -19.2189   24.5475 C   0  0  0  0  0  0  0  0  0  0  0  0
    5.9487  -17.3854   22.8502 C   0  0  2  0  0  0  0  0  0  0  0  0
    6.1741  -17.2093   21.4064 N   0  0  0  0  0  0  0  0  0  0  0  0
    7.0458  -16.6777   23.5435 C   0  0  0  0  0  0  0  0  0  0  0  0
    8.2106  -16.7250   23.1170 O   0  0  0  0  0  0  0  0  0  0  0  0
    6.1207  -12.1390   26.5169 C   0  0  0  0  0  0  0  0  0  0  0  0
    6.7382  -13.0984   25.4916 C   0  0  0  0  0  0  0  0  0  0  0  0
    7.4625  -14.1429   26.2625 C   0  0  2  0  0  0  0  0  0  0  0  0
    8.6063  -13.5459   27.0400 C   0  0  0  0  0  0  0  0  0  0  0  0
    7.8926  -15.3332   25.4523 C   0  0  2  0  0  0  0  0  0  0  0  0
    6.7921  -15.9272   24.7112 N   0  0  0  0  0  0  0  0  0  0  0  0
    8.5811  -16.3553   26.2943 C   0  0  0  0  0  0  0  0  0  0  0  0
    7.9994  -16.8700   27.3051 O   0  0  0  0  0  0  0  0  0  0  0  0
   10.2174  -19.4892   24.8836 C   0  0  0  0  0  0  0  0  0  0  0  0
   11.2205  -18.8576   25.8270 C   0  0  1  0  0  0  0  0  0  0  0  0
   12.1991  -18.1863   25.0948 O   0  0  0  0  0  0  0  0  0  0  0  0
   10.4968  -17.9304   26.7735 C   0  0  2  0  0  0  0  0  0  0  0  0
    9.8900  -16.8101   26.0353 N   0  0  0  0  0  0  0  0  0  0  0  0
   11.3869  -17.4457   27.8321 C   0  0  0  0  0  0  0  0  0  0  0  0
   11.9219  -18.2678   28.8282 O   0  0  0  0  0  0  0  0  0  0  0  0
   11.7012  -16.2322   27.8693 O   0  0  0  0  0  0  0  0  0  0  0  0
  2  1  1  6
  2  3  1  0
  4  2  1  0
  4  5  1  6
  6  4  1  0
  6 13  1  0
  7  6  2  0
  9 10  1  0
  9  8  1  0
 10 12  1  0
 10 11  1  6
 12 13  1  1
 14 12  1  0
 15 14  2  0
 17 16  1  6
 17 18  1  0
 17 19  1  0
 19 21  1  0
 19 20  1  6
 20 14  1  0
 21 22  1  0
 23 21  2  0
M  END
$$$$
