VIT.pdb
     RDKit          3D

 23 22  0  0  1  0  0  0  0  0999 V2000
    7.9088  -17.6157   21.3719 C   0  0  0  0  0  0  0  0  0  0  0  0
    6.8405  -16.5924   21.2296 C   0  0  2  0  0  0  0  0  0  0  0  0
    6.0995  -16.8444   19.9347 C   0  0  0  0  0  0  0  0  0  0  0  0
    7.3047  -15.1592   21.3332 C   0  0  2  0  0  0  0  0  0  0  0  0
    8.2505  -14.9748   20.2205 N   0  0  0  0  0  0  0  0  0  0  0  0
    8.0442  -14.8580   22.5771 C   0  0  0  0  0  0  0  0  0  0  0  0
    9.2848  -14.8163   22.5922 O   0  0  0  0  0  0  0  0  0  0  0  0
    5.9285  -11.6095   26.3783 C   0  0  0  0  0  0  0  0  0  0  0  0
    6.9298  -12.2240   25.3919 C   0  0  0  0  0  0  0  0  0  0  0  0
    7.3778  -13.5130   25.9815 C   0  0  2  0  0  0  0  0  0  0  0  0
    8.1748  -13.2846   27.2392 C   0  0  0  0  0  0  0  0  0  0  0  0
    8.0878  -14.4265   25.0225 C   0  0  2  0  0  0  0  0  0  0  0  0
    7.3528  -14.6084   23.7816 N   0  0  0  0  0  0  0  0  0  0  0  0
    8.4102  -15.7423   25.6487 C   0  0  0  0  0  0  0  0  0  0  0  0
    7.4911  -16.4747   26.1427 O   0  0  0  0  0  0  0  0  0  0  0  0
   10.3842  -18.6020   24.1076 C   0  0  0  0  0  0  0  0  0  0  0  0
   11.0094  -18.3193   25.4582 C   0  0  1  0  0  0  0  0  0  0  0  0
   12.1918  -17.5998   25.2895 O   0  0  0  0  0  0  0  0  0  0  0  0
   10.0185  -17.5717   26.3177 C   0  0  2  0  0  0  0  0  0  0  0  0
    9.7215  -16.2526   25.7345 N   0  0  0  0  0  0  0  0  0  0  0  0
   10.4964  -17.4444   27.6972 C   0  0  0  0  0  0  0  0  0  0  0  0
   10.6125  -18.5243   28.5774 O   0  0  0  0  0  0  0  0  0  0  0  0
   10.8254  -16.3169   28.1369 O   0  0  0  0  0  0  0  0  0  0  0  0
  2  1  1  6
  2  3  1  0
  4  2  1  0
  4  5  1  6
  6  4  1  0
  6 13  1  0
  7  6  2  0
  9 10  1  0
  9  8  1  0
 10 12  1  0
 10 11  1  1
 12 13  1  6
 14 12  1  0
 15 14  2  0
 17 16  1  6
 17 18  1  0
 17 19  1  0
 19 21  1  0
 19 20  1  6
 20 14  1  0
 21 22  1  0
 23 21  2  0
M  END
$$$$
