VIT.pdb
     RDKit          3D

 23 22  0  0  1  0  0  0  0  0999 V2000
    5.1835  -21.0667   24.9169 C   0  0  0  0  0  0  0  0  0  0  0  0
    6.0325  -19.9153   24.5143 C   0  0  2  0  0  0  0  0  0  0  0  0
    7.2454  -19.8702   25.4176 C   0  0  0  0  0  0  0  0  0  0  0  0
    5.3266  -18.5813   24.4665 C   0  0  2  0  0  0  0  0  0  0  0  0
    4.3647  -18.6891   23.3576 N   0  0  0  0  0  0  0  0  0  0  0  0
    6.2166  -17.4440   24.1512 C   0  0  0  0  0  0  0  0  0  0  0  0
    6.6180  -17.2449   22.9935 O   0  0  0  0  0  0  0  0  0  0  0  0
    5.9753  -12.7358   26.9505 C   0  0  0  0  0  0  0  0  0  0  0  0
    6.0516  -13.6838   25.7469 C   0  0  0  0  0  0  0  0  0  0  0  0
    7.4038  -14.3008   25.7711 C   0  0  2  0  0  0  0  0  0  0  0  0
    8.4751  -13.2651   25.5503 C   0  0  0  0  0  0  0  0  0  0  0  0
    7.5679  -15.4844   24.8598 C   0  0  2  0  0  0  0  0  0  0  0  0
    6.6313  -16.5536   25.1643 N   0  0  0  0  0  0  0  0  0  0  0  0
    8.9721  -15.9904   24.8585 C   0  0  0  0  0  0  0  0  0  0  0  0
    9.5185  -16.4071   25.9322 O   0  0  0  0  0  0  0  0  0  0  0  0
   10.4170  -17.9743   21.6319 C   0  0  0  0  0  0  0  0  0  0  0  0
   11.4577  -17.0559   22.2389 C   0  0  1  0  0  0  0  0  0  0  0  0
   11.5781  -15.9025   21.4648 O   0  0  0  0  0  0  0  0  0  0  0  0
   11.0682  -16.7355   23.6619 C   0  0  2  0  0  0  0  0  0  0  0  0
    9.7704  -16.0407   23.6977 N   0  0  0  0  0  0  0  0  0  0  0  0
   12.1063  -15.9517   24.3370 C   0  0  0  0  0  0  0  0  0  0  0  0
   13.3848  -16.4426   24.6179 O   0  0  0  0  0  0  0  0  0  0  0  0
   11.8605  -14.7744   24.6923 O   0  0  0  0  0  0  0  0  0  0  0  0
  2  1  1  1
  2  3  1  0
  4  2  1  0
  4  5  1  6
  6  4  1  0
  6 13  1  0
  7  6  2  0
  9 10  1  0
  9  8  1  0
 10 12  1  0
 10 11  1  6
 12 13  1  1
 14 12  1  0
 15 14  2  0
 17 16  1  6
 17 18  1  0
 17 19  1  0
 19 21  1  0
 19 20  1  6
 20 14  1  0
 21 22  1  0
 23 21  2  0
M  END
$$$$
