VIT.pdb
     RDKit          3D

 23 22  0  0  1  0  0  0  0  0999 V2000
    6.9582  -13.5542   19.1103 C   0  0  0  0  0  0  0  0  0  0  0  0
    7.5850  -13.3757   20.4460 C   0  0  2  0  0  0  0  0  0  0  0  0
    8.8120  -12.5041   20.2912 C   0  0  0  0  0  0  0  0  0  0  0  0
    7.9022  -14.6544   21.1838 C   0  0  2  0  0  0  0  0  0  0  0  0
    6.6064  -15.3261   21.3740 N   0  0  0  0  0  0  0  0  0  0  0  0
    8.4754  -14.4425   22.5297 C   0  0  0  0  0  0  0  0  0  0  0  0
    9.6305  -14.0114   22.6748 O   0  0  0  0  0  0  0  0  0  0  0  0
    5.9034  -11.8156   26.1213 C   0  0  0  0  0  0  0  0  0  0  0  0
    7.0088  -12.3976   25.2311 C   0  0  0  0  0  0  0  0  0  0  0  0
    7.4693  -13.6519   25.8827 C   0  0  2  0  0  0  0  0  0  0  0  0
    8.1461  -13.3618   27.1969 C   0  0  0  0  0  0  0  0  0  0  0  0
    8.3015  -14.5438   25.0051 C   0  0  2  0  0  0  0  0  0  0  0  0
    7.7181  -14.7257   23.6862 N   0  0  0  0  0  0  0  0  0  0  0  0
    8.5727  -15.8603   25.6540 C   0  0  0  0  0  0  0  0  0  0  0  0
    7.6159  -16.6083   26.0415 O   0  0  0  0  0  0  0  0  0  0  0  0
   10.4670  -18.5797   24.0815 C   0  0  0  0  0  0  0  0  0  0  0  0
   11.0907  -18.4392   25.4549 C   0  0  1  0  0  0  0  0  0  0  0  0
   12.3068  -17.7645   25.3541 O   0  0  0  0  0  0  0  0  0  0  0  0
   10.1266  -17.7197   26.3671 C   0  0  2  0  0  0  0  0  0  0  0  0
    9.8740  -16.3542   25.8771 N   0  0  0  0  0  0  0  0  0  0  0  0
   10.6100  -17.7040   27.7506 C   0  0  0  0  0  0  0  0  0  0  0  0
   10.7126  -18.8489   28.5461 O   0  0  0  0  0  0  0  0  0  0  0  0
   10.9566  -16.6178   28.2730 O   0  0  0  0  0  0  0  0  0  0  0  0
  2  1  1  6
  2  3  1  0
  4  2  1  0
  4  5  1  1
  6  4  1  0
  6 13  1  0
  7  6  2  0
  9 10  1  0
  9  8  1  0
 10 12  1  0
 10 11  1  1
 12 13  1  6
 14 12  1  0
 15 14  2  0
 17 16  1  6
 17 18  1  0
 17 19  1  0
 19 21  1  0
 19 20  1  6
 20 14  1  0
 21 22  1  0
 23 21  2  0
M  END
$$$$
