VIT.pdb
     RDKit          3D

 23 22  0  0  1  0  0  0  0  0999 V2000
    7.8954  -17.2394   21.0202 C   0  0  0  0  0  0  0  0  0  0  0  0
    6.6595  -16.4144   21.0475 C   0  0  2  0  0  0  0  0  0  0  0  0
    5.8217  -16.7592   19.8357 C   0  0  0  0  0  0  0  0  0  0  0  0
    6.8825  -14.9254   21.1622 C   0  0  2  0  0  0  0  0  0  0  0  0
    7.6395  -14.5509   19.9567 N   0  0  0  0  0  0  0  0  0  0  0  0
    7.7069  -14.5314   22.3242 C   0  0  0  0  0  0  0  0  0  0  0  0
    8.9237  -14.3169   22.2046 O   0  0  0  0  0  0  0  0  0  0  0  0
    5.8379  -11.4924   26.4402 C   0  0  0  0  0  0  0  0  0  0  0  0
    6.7727  -12.0265   25.3475 C   0  0  0  0  0  0  0  0  0  0  0  0
    7.2790  -13.3417   25.8204 C   0  0  2  0  0  0  0  0  0  0  0  0
    8.1272  -13.1827   27.0551 C   0  0  0  0  0  0  0  0  0  0  0  0
    7.9665  -14.1633   24.7665 C   0  0  2  0  0  0  0  0  0  0  0  0
    7.1259  -14.3883   23.6021 N   0  0  0  0  0  0  0  0  0  0  0  0
    8.4728  -15.4553   25.3160 C   0  0  0  0  0  0  0  0  0  0  0  0
    7.6743  -16.3053   25.8307 O   0  0  0  0  0  0  0  0  0  0  0  0
   12.0573  -18.8638   25.4918 C   0  0  0  0  0  0  0  0  0  0  0  0
   11.5949  -17.4985   25.0259 C   0  0  1  0  0  0  0  0  0  0  0  0
   11.4459  -17.4985   23.6395 O   0  0  0  0  0  0  0  0  0  0  0  0
   10.3050  -17.1452   25.7263 C   0  0  2  0  0  0  0  0  0  0  0  0
    9.8358  -15.8149   25.3035 N   0  0  0  0  0  0  0  0  0  0  0  0
   10.4505  -17.2161   27.1829 C   0  0  0  0  0  0  0  0  0  0  0  0
   10.2629  -18.3879   27.9218 O   0  0  0  0  0  0  0  0  0  0  0  0
   10.7593  -16.1842   27.8253 O   0  0  0  0  0  0  0  0  0  0  0  0
  2  1  1  6
  2  3  1  0
  4  2  1  0
  4  5  1  6
  6  4  1  0
  6 13  1  0
  7  6  2  0
  9 10  1  0
  9  8  1  0
 10 12  1  0
 10 11  1  1
 12 13  1  6
 14 12  1  0
 15 14  2  0
 17 16  1  1
 17 18  1  0
 17 19  1  0
 19 21  1  0
 19 20  1  1
 20 14  1  0
 21 22  1  0
 23 21  2  0
M  END
$$$$
