EGE.pdb
     RDKit          3D

 23 22  0  0  1  0  0  0  0  0999 V2000
   19.7072   -9.5923  -15.9017 N   0  0  0  0  0  0  0  0  0  0  0  0
   20.9510   -9.9608  -15.1854 C   0  0  1  0  0  0  0  0  0  0  0  0
   21.8519  -10.5074  -16.2723 C   0  0  0  0  0  0  0  0  0  0  0  0
   21.3633  -11.8244  -16.7625 C   0  0  0  0  0  0  0  0  0  0  0  0
   22.1780  -12.3177  -17.9283 C   0  0  0  0  0  0  0  0  0  0  0  0
   23.1326  -11.6929  -18.4065 O   0  0  0  0  0  0  0  0  0  0  0  0
   21.5343   -8.7309  -14.6547 C   0  0  0  0  0  0  0  0  0  0  0  0
   22.5357   -8.8060  -13.8688 O   0  0  0  0  0  0  0  0  0  0  0  0
   21.8035  -13.5416  -18.4631 O   0  0  0  0  0  0  0  0  0  0  0  0
   21.0648   -7.4228  -14.9538 N   0  0  0  0  0  0  0  0  0  0  0  0
   21.8217   -6.3011  -14.4879 C   0  0  0  0  0  0  0  0  0  0  0  0
   21.2519   -5.0018  -14.9290 C   0  0  0  0  0  0  0  0  0  0  0  0
   20.4894   -4.9210  -15.9432 O   0  0  0  0  0  0  0  0  0  0  0  0
   21.5360   -3.8076  -14.2386 N   0  0  0  0  0  0  0  0  0  0  0  0
   20.8418   -2.5462  -14.4733 C   0  0  1  0  0  0  0  0  0  0  0  0
   19.3656   -2.6755  -14.2491 C   0  0  0  0  0  0  0  0  0  0  0  0
   18.5687   -1.4412  -14.4730 C   0  0  0  0  0  0  0  0  0  0  0  0
   17.1346   -1.5616  -14.2320 C   0  0  0  0  0  0  0  0  0  0  0  0
   16.4081   -2.0422  -15.1339 O   0  0  0  0  0  0  0  0  0  0  0  0
   21.4445   -1.4380  -13.7108 C   0  0  0  0  0  0  0  0  0  0  0  0
   21.2450   -0.1281  -14.1649 O   0  0  0  0  0  0  0  0  0  0  0  0
   16.5279   -1.1738  -13.0615 O   0  0  0  0  0  0  0  0  0  0  0  0
   22.1269   -1.5760  -12.6801 O   0  0  0  0  0  0  0  0  0  0  0  0
  2  1  1  6
  2  7  1  0
  2  3  1  0
  4  3  1  0
  4  5  1  0
  5  6  2  0
  7  8  2  0
  9  5  1  0
 10 11  1  0
 10  7  1  0
 11 12  1  0
 12 13  2  0
 12 14  1  0
 14 15  1  0
 15 16  1  1
 17 16  1  0
 17 18  1  0
 18 22  1  0
 18 19  2  0
 20 21  1  0
 20 15  1  0
 23 20  2  0
M  END
$$$$
