EGE.pdb
     RDKit          3D

 23 22  0  0  1  0  0  0  0  0999 V2000
   18.5955  -24.8915  -11.4027 N   0  0  0  0  0  0  0  0  0  0  0  0
   18.8393  -24.2928  -10.0692 C   0  0  1  0  0  0  0  0  0  0  0  0
   18.2586  -22.8992  -10.1813 C   0  0  0  0  0  0  0  0  0  0  0  0
   17.8306  -22.6067  -11.5758 C   0  0  0  0  0  0  0  0  0  0  0  0
   17.0842  -21.3024  -11.6633 C   0  0  0  0  0  0  0  0  0  0  0  0
   17.6401  -20.1973  -11.6710 O   0  0  0  0  0  0  0  0  0  0  0  0
   18.0635  -25.0569   -9.0950 C   0  0  0  0  0  0  0  0  0  0  0  0
   17.0822  -25.7643   -9.4984 O   0  0  0  0  0  0  0  0  0  0  0  0
   15.7019  -21.3915  -11.7374 O   0  0  0  0  0  0  0  0  0  0  0  0
   18.3230  -25.0778   -7.6975 N   0  0  0  0  0  0  0  0  0  0  0  0
   17.4806  -25.8730   -6.8571 C   0  0  0  0  0  0  0  0  0  0  0  0
   17.8849  -25.8233   -5.4283 C   0  0  0  0  0  0  0  0  0  0  0  0
   18.9621  -25.2559   -5.0621 O   0  0  0  0  0  0  0  0  0  0  0  0
   17.0880  -26.4047   -4.4231 N   0  0  0  0  0  0  0  0  0  0  0  0
   17.4353  -26.4040   -3.0062 C   0  0  1  0  0  0  0  0  0  0  0  0
   16.2809  -26.8330   -2.1521 C   0  0  0  0  0  0  0  0  0  0  0  0
   16.5166  -26.8000   -0.6851 C   0  0  0  0  0  0  0  0  0  0  0  0
   15.5822  -27.5760    0.1235 C   0  0  0  0  0  0  0  0  0  0  0  0
   14.3782  -27.2276    0.1579 O   0  0  0  0  0  0  0  0  0  0  0  0
   18.6638  -27.1745   -2.7420 C   0  0  0  0  0  0  0  0  0  0  0  0
   19.5549  -26.6994   -1.7714 O   0  0  0  0  0  0  0  0  0  0  0  0
   15.9498  -28.6779    0.8578 O   0  0  0  0  0  0  0  0  0  0  0  0
   18.9767  -28.2296   -3.3217 O   0  0  0  0  0  0  0  0  0  0  0  0
  2  1  1  6
  2  7  1  0
  2  3  1  0
  4  3  1  0
  4  5  1  0
  5  6  2  0
  7  8  2  0
  9  5  1  0
 10 11  1  0
 10  7  1  0
 11 12  1  0
 12 13  2  0
 12 14  1  0
 14 15  1  0
 15 16  1  1
 17 16  1  0
 17 18  1  0
 18 22  1  0
 18 19  2  0
 20 21  1  0
 20 15  1  0
 23 20  2  0
M  END
$$$$
