EGE.pdb
     RDKit          3D

 23 22  0  0  1  0  0  0  0  0999 V2000
   20.4114  -12.1123  -18.5851 N   0  0  0  0  0  0  0  0  0  0  0  0
   19.8799  -11.9219  -17.2150 C   0  0  1  0  0  0  0  0  0  0  0  0
   20.1384  -13.2488  -16.5336 C   0  0  0  0  0  0  0  0  0  0  0  0
   19.0068  -14.1909  -16.7465 C   0  0  0  0  0  0  0  0  0  0  0  0
   18.2482  -14.4415  -15.4707 C   0  0  0  0  0  0  0  0  0  0  0  0
   17.3613  -13.6912  -15.0455 O   0  0  0  0  0  0  0  0  0  0  0  0
   20.6861  -10.8882  -16.5697 C   0  0  0  0  0  0  0  0  0  0  0  0
   20.4284  -10.5603  -15.3646 O   0  0  0  0  0  0  0  0  0  0  0  0
   18.5945  -15.5856  -14.7668 O   0  0  0  0  0  0  0  0  0  0  0  0
   21.7643  -10.2024  -17.1926 N   0  0  0  0  0  0  0  0  0  0  0  0
   22.5339   -9.2837  -16.4103 C   0  0  0  0  0  0  0  0  0  0  0  0
   21.7569   -8.0836  -16.0061 C   0  0  0  0  0  0  0  0  0  0  0  0
   20.8671   -7.5824  -16.7634 O   0  0  0  0  0  0  0  0  0  0  0  0
   21.9774   -7.4545  -14.7655 N   0  0  0  0  0  0  0  0  0  0  0  0
   21.0987   -6.4357  -14.2013 C   0  0  1  0  0  0  0  0  0  0  0  0
   19.9374   -7.0451  -13.4758 C   0  0  0  0  0  0  0  0  0  0  0  0
   18.9394   -6.0856  -12.9352 C   0  0  0  0  0  0  0  0  0  0  0  0
   17.8377   -6.6759  -12.1822 C   0  0  0  0  0  0  0  0  0  0  0  0
   17.9670   -6.8342  -10.9451 O   0  0  0  0  0  0  0  0  0  0  0  0
   21.8425   -5.4625  -13.3815 C   0  0  0  0  0  0  0  0  0  0  0  0
   21.2984   -4.1840  -13.2039 O   0  0  0  0  0  0  0  0  0  0  0  0
   16.6544   -7.0733  -12.7571 O   0  0  0  0  0  0  0  0  0  0  0  0
   22.9320   -5.6899  -12.8262 O   0  0  0  0  0  0  0  0  0  0  0  0
  2  1  1  6
  2  7  1  0
  2  3  1  0
  4  3  1  0
  4  5  1  0
  5  6  2  0
  7  8  2  0
  9  5  1  0
 10 11  1  0
 10  7  1  0
 11 12  1  0
 12 13  2  0
 12 14  1  0
 14 15  1  0
 15 16  1  1
 17 16  1  0
 17 18  1  0
 18 22  1  0
 18 19  2  0
 20 21  1  0
 20 15  1  0
 23 20  2  0
M  END
$$$$
