EGE.pdb
     RDKit          3D

 23 22  0  0  1  0  0  0  0  0999 V2000
   17.9975  -14.9957  -15.3265 N   0  0  0  0  0  0  0  0  0  0  0  0
   17.1323  -13.9562  -15.9322 C   0  0  1  0  0  0  0  0  0  0  0  0
   15.9316  -14.7273  -16.4376 C   0  0  0  0  0  0  0  0  0  0  0  0
   14.9654  -13.8271  -17.1229 C   0  0  0  0  0  0  0  0  0  0  0  0
   13.8220  -14.5989  -17.7255 C   0  0  0  0  0  0  0  0  0  0  0  0
   12.8914  -14.0681  -18.3439 O   0  0  0  0  0  0  0  0  0  0  0  0
   16.7073  -13.0581  -14.8610 C   0  0  0  0  0  0  0  0  0  0  0  0
   16.1661  -13.5489  -13.8158 O   0  0  0  0  0  0  0  0  0  0  0  0
   13.8541  -15.9750  -17.5541 O   0  0  0  0  0  0  0  0  0  0  0  0
   16.8546  -11.6445  -14.8897 N   0  0  0  0  0  0  0  0  0  0  0  0
   16.2824  -10.8753  -13.8271 C   0  0  0  0  0  0  0  0  0  0  0  0
   16.6531   -9.4382  -13.8954 C   0  0  0  0  0  0  0  0  0  0  0  0
   17.4243   -8.9936  -14.8031 O   0  0  0  0  0  0  0  0  0  0  0  0
   16.1628   -8.5119  -12.9546 N   0  0  0  0  0  0  0  0  0  0  0  0
   16.4754   -7.0871  -12.9752 C   0  0  1  0  0  0  0  0  0  0  0  0
   15.2772   -6.2517  -12.6398 C   0  0  0  0  0  0  0  0  0  0  0  0
   14.1160   -6.3919  -13.5568 C   0  0  0  0  0  0  0  0  0  0  0  0
   12.9469   -5.5843  -13.2252 C   0  0  0  0  0  0  0  0  0  0  0  0
   12.6081   -5.4757  -12.0229 O   0  0  0  0  0  0  0  0  0  0  0  0
   17.6489   -6.7707  -12.1413 C   0  0  0  0  0  0  0  0  0  0  0  0
   18.3198   -5.5612  -12.3630 O   0  0  0  0  0  0  0  0  0  0  0  0
   12.1873   -4.9295  -14.1648 O   0  0  0  0  0  0  0  0  0  0  0  0
   18.0977   -7.5039  -11.2424 O   0  0  0  0  0  0  0  0  0  0  0  0
  2  1  1  1
  2  7  1  0
  2  3  1  0
  4  3  1  0
  4  5  1  0
  5  6  2  0
  7  8  2  0
  9  5  1  0
 10 11  1  0
 10  7  1  0
 11 12  1  0
 12 13  2  0
 12 14  1  0
 14 15  1  0
 15 16  1  1
 17 16  1  0
 17 18  1  0
 18 22  1  0
 18 19  2  0
 20 21  1  0
 20 15  1  0
 23 20  2  0
M  END
$$$$
