EGE.pdb
     RDKit          3D

 23 22  0  0  1  0  0  0  0  0999 V2000
   19.3935  -13.0697  -15.6639 N   0  0  0  0  0  0  0  0  0  0  0  0
   18.2790  -12.6484  -16.5450 C   0  0  1  0  0  0  0  0  0  0  0  0
   17.0579  -13.2950  -15.9264 C   0  0  0  0  0  0  0  0  0  0  0  0
   17.4321  -14.4911  -15.1247 C   0  0  0  0  0  0  0  0  0  0  0  0
   16.2272  -15.1269  -14.4843 C   0  0  0  0  0  0  0  0  0  0  0  0
   15.1344  -15.2433  -15.0522 O   0  0  0  0  0  0  0  0  0  0  0  0
   18.1573  -11.1964  -16.4373 C   0  0  0  0  0  0  0  0  0  0  0  0
   17.2881  -10.5907  -17.1471 O   0  0  0  0  0  0  0  0  0  0  0  0
   16.3963  -15.5927  -13.1887 O   0  0  0  0  0  0  0  0  0  0  0  0
   18.9487  -10.3835  -15.5806 N   0  0  0  0  0  0  0  0  0  0  0  0
   18.7766   -8.9637  -15.6335 C   0  0  0  0  0  0  0  0  0  0  0  0
   20.0121   -8.2224  -15.2712 C   0  0  0  0  0  0  0  0  0  0  0  0
   21.0151   -8.8129  -14.7596 O   0  0  0  0  0  0  0  0  0  0  0  0
   20.1189   -6.8339  -15.4815 N   0  0  0  0  0  0  0  0  0  0  0  0
   21.2545   -6.0290  -15.0446 C   0  0  1  0  0  0  0  0  0  0  0  0
   21.2611   -4.6796  -15.6967 C   0  0  0  0  0  0  0  0  0  0  0  0
   22.3540   -3.7649  -15.2750 C   0  0  0  0  0  0  0  0  0  0  0  0
   22.3530   -2.4470  -15.9014 C   0  0  0  0  0  0  0  0  0  0  0  0
   21.4797   -2.1875  -16.7629 O   0  0  0  0  0  0  0  0  0  0  0  0
   21.3439   -5.9582  -13.5751 C   0  0  0  0  0  0  0  0  0  0  0  0
   20.1728   -6.1270  -12.8254 O   0  0  0  0  0  0  0  0  0  0  0  0
   23.2643   -1.4638  -15.5989 O   0  0  0  0  0  0  0  0  0  0  0  0
   22.3931   -5.7572  -12.9380 O   0  0  0  0  0  0  0  0  0  0  0  0
  2  1  1  1
  2  7  1  0
  2  3  1  0
  4  3  1  0
  4  5  1  0
  5  6  2  0
  7  8  2  0
  9  5  1  0
 10 11  1  0
 10  7  1  0
 11 12  1  0
 12 13  2  0
 12 14  1  0
 14 15  1  0
 15 16  1  6
 17 16  1  0
 17 18  1  0
 18 22  1  0
 18 19  2  0
 20 21  1  0
 20 15  1  0
 23 20  2  0
M  END
$$$$
