EGE.pdb
     RDKit          3D

 23 22  0  0  1  0  0  0  0  0999 V2000
   17.5430  -13.3039  -18.6341 N   0  0  0  0  0  0  0  0  0  0  0  0
   17.3176  -13.1908  -17.1738 C   0  0  1  0  0  0  0  0  0  0  0  0
   17.3842  -14.6206  -16.6806 C   0  0  0  0  0  0  0  0  0  0  0  0
   18.6333  -15.2879  -17.1368 C   0  0  0  0  0  0  0  0  0  0  0  0
   18.6938  -16.7207  -16.6792 C   0  0  0  0  0  0  0  0  0  0  0  0
   18.2560  -17.6681  -17.3432 O   0  0  0  0  0  0  0  0  0  0  0  0
   18.4374  -12.4389  -16.6123 C   0  0  0  0  0  0  0  0  0  0  0  0
   18.5501  -12.3439  -15.3456 O   0  0  0  0  0  0  0  0  0  0  0  0
   19.2795  -16.9443  -15.4418 O   0  0  0  0  0  0  0  0  0  0  0  0
   19.4390  -11.7897  -17.3845 N   0  0  0  0  0  0  0  0  0  0  0  0
   20.4674  -11.0658  -16.7014 C   0  0  0  0  0  0  0  0  0  0  0  0
   20.0200   -9.7232  -16.2492 C   0  0  0  0  0  0  0  0  0  0  0  0
   18.7889   -9.4566  -16.0766 O   0  0  0  0  0  0  0  0  0  0  0  0
   20.9452   -8.6926  -15.9940 N   0  0  0  0  0  0  0  0  0  0  0  0
   20.5704   -7.3484  -15.5685 C   0  0  1  0  0  0  0  0  0  0  0  0
   21.6915   -6.6618  -14.8489 C   0  0  0  0  0  0  0  0  0  0  0  0
   21.3903   -5.2997  -14.3361 C   0  0  0  0  0  0  0  0  0  0  0  0
   22.4554   -4.6628  -13.5687 C   0  0  0  0  0  0  0  0  0  0  0  0
   22.1465   -3.9098  -12.6148 O   0  0  0  0  0  0  0  0  0  0  0  0
   20.0289   -6.5509  -16.6837 C   0  0  0  0  0  0  0  0  0  0  0  0
   18.9109   -5.7416  -16.4453 O   0  0  0  0  0  0  0  0  0  0  0  0
   23.7918   -4.8420  -13.8344 O   0  0  0  0  0  0  0  0  0  0  0  0
   20.4933   -6.5396  -17.8375 O   0  0  0  0  0  0  0  0  0  0  0  0
  2  1  1  6
  2  7  1  0
  2  3  1  0
  4  3  1  0
  4  5  1  0
  5  6  2  0
  7  8  2  0
  9  5  1  0
 10 11  1  0
 10  7  1  0
 11 12  1  0
 12 13  2  0
 12 14  1  0
 14 15  1  0
 15 16  1  6
 17 16  1  0
 17 18  1  0
 18 22  1  0
 18 19  2  0
 20 21  1  0
 20 15  1  0
 23 20  2  0
M  END
$$$$
