EGE.pdb
     RDKit          3D

 23 22  0  0  1  0  0  0  0  0999 V2000
   27.9344  -20.3190  -14.8321 N   0  0  0  0  0  0  0  0  0  0  0  0
   26.5872  -20.2026  -15.4384 C   0  0  1  0  0  0  0  0  0  0  0  0
   26.6891  -21.0085  -16.7159 C   0  0  0  0  0  0  0  0  0  0  0  0
   27.5928  -22.1775  -16.5423 C   0  0  0  0  0  0  0  0  0  0  0  0
   28.6634  -22.2109  -17.6000 C   0  0  0  0  0  0  0  0  0  0  0  0
   29.8655  -22.0450  -17.3595 O   0  0  0  0  0  0  0  0  0  0  0  0
   25.6406  -20.8544  -14.5363 C   0  0  0  0  0  0  0  0  0  0  0  0
   24.4183  -20.9564  -14.8851 O   0  0  0  0  0  0  0  0  0  0  0  0
   28.2345  -22.4427  -18.8986 O   0  0  0  0  0  0  0  0  0  0  0  0
   25.9819  -21.4006  -13.2690 N   0  0  0  0  0  0  0  0  0  0  0  0
   24.9442  -21.9805  -12.4721 C   0  0  0  0  0  0  0  0  0  0  0  0
   23.7672  -21.0861  -12.3239 C   0  0  0  0  0  0  0  0  0  0  0  0
   23.6486  -20.3036  -11.3289 O   0  0  0  0  0  0  0  0  0  0  0  0
   22.7357  -21.0715  -13.2827 N   0  0  0  0  0  0  0  0  0  0  0  0
   21.5256  -20.2653  -13.1649 C   0  0  1  0  0  0  0  0  0  0  0  0
   21.0025  -19.8511  -14.5069 C   0  0  0  0  0  0  0  0  0  0  0  0
   19.7865  -18.9966  -14.4895 C   0  0  0  0  0  0  0  0  0  0  0  0
   19.1714  -18.7451  -15.7885 C   0  0  0  0  0  0  0  0  0  0  0  0
   19.4936  -19.4686  -16.7605 O   0  0  0  0  0  0  0  0  0  0  0  0
   20.5063  -20.9245  -12.3287 C   0  0  0  0  0  0  0  0  0  0  0  0
   19.6548  -20.1236  -11.5572 O   0  0  0  0  0  0  0  0  0  0  0  0
   18.2501  -17.7498  -16.0104 O   0  0  0  0  0  0  0  0  0  0  0  0
   20.3398  -22.1548  -12.2527 O   0  0  0  0  0  0  0  0  0  0  0  0
  2  1  1  1
  2  7  1  0
  2  3  1  0
  4  3  1  0
  4  5  1  0
  5  6  2  0
  7  8  2  0
  9  5  1  0
 10 11  1  0
 10  7  1  0
 11 12  1  0
 12 13  2  0
 12 14  1  0
 14 15  1  0
 15 16  1  6
 17 16  1  0
 17 18  1  0
 18 22  1  0
 18 19  2  0
 20 21  1  0
 20 15  1  0
 23 20  2  0
M  END
$$$$
