EGE.pdb
     RDKit          3D

 23 22  0  0  1  0  0  0  0  0999 V2000
   28.9175  -33.3612   -3.9665 N   0  0  0  0  0  0  0  0  0  0  0  0
   28.5042  -34.7719   -3.7793 C   0  0  1  0  0  0  0  0  0  0  0  0
   28.8582  -35.4352   -5.0933 C   0  0  0  0  0  0  0  0  0  0  0  0
   27.9456  -34.9916   -6.1813 C   0  0  0  0  0  0  0  0  0  0  0  0
   27.1185  -36.1331   -6.7094 C   0  0  0  0  0  0  0  0  0  0  0  0
   27.5059  -36.9032   -7.5965 O   0  0  0  0  0  0  0  0  0  0  0  0
   29.3357  -35.3373   -2.7192 C   0  0  0  0  0  0  0  0  0  0  0  0
   29.1467  -36.5456   -2.3582 O   0  0  0  0  0  0  0  0  0  0  0  0
   25.8623  -36.2927   -6.1429 O   0  0  0  0  0  0  0  0  0  0  0  0
   30.3670  -34.6313   -2.0419 N   0  0  0  0  0  0  0  0  0  0  0  0
   31.1277  -35.3211   -1.0451 C   0  0  0  0  0  0  0  0  0  0  0  0
   30.4644  -35.3209    0.2844 C   0  0  0  0  0  0  0  0  0  0  0  0
   29.3954  -34.6652    0.4933 O   0  0  0  0  0  0  0  0  0  0  0  0
   30.9964  -36.0492    1.3661 N   0  0  0  0  0  0  0  0  0  0  0  0
   30.4046  -36.0766    2.6992 C   0  0  1  0  0  0  0  0  0  0  0  0
   30.0450  -37.4700    3.1177 C   0  0  0  0  0  0  0  0  0  0  0  0
   29.3722  -37.5938    4.4372 C   0  0  0  0  0  0  0  0  0  0  0  0
   29.0297  -38.9514    4.8478 C   0  0  0  0  0  0  0  0  0  0  0  0
   29.3343  -39.3285    6.0043 O   0  0  0  0  0  0  0  0  0  0  0  0
   31.2461  -35.3782    3.6876 C   0  0  0  0  0  0  0  0  0  0  0  0
   30.6564  -34.9500    4.8837 O   0  0  0  0  0  0  0  0  0  0  0  0
   28.3865  -39.8503    4.0313 O   0  0  0  0  0  0  0  0  0  0  0  0
   32.4571  -35.1352    3.5413 O   0  0  0  0  0  0  0  0  0  0  0  0
  2  1  1  6
  2  7  1  0
  2  3  1  0
  4  3  1  0
  4  5  1  0
  5  6  2  0
  7  8  2  0
  9  5  1  0
 10 11  1  0
 10  7  1  0
 11 12  1  0
 12 13  2  0
 12 14  1  0
 14 15  1  0
 15 16  1  1
 17 16  1  0
 17 18  1  0
 18 22  1  0
 18 19  2  0
 20 21  1  0
 20 15  1  0
 23 20  2  0
M  END
$$$$
