EGE.pdb
     RDKit          3D

 23 22  0  0  1  0  0  0  0  0999 V2000
   18.6364  -11.5884  -17.4915 N   0  0  0  0  0  0  0  0  0  0  0  0
   18.1313  -10.8797  -16.2921 C   0  0  1  0  0  0  0  0  0  0  0  0
   17.5899  -11.9867  -15.4128 C   0  0  0  0  0  0  0  0  0  0  0  0
   16.3556  -12.5792  -15.9949 C   0  0  0  0  0  0  0  0  0  0  0  0
   15.8851  -13.7683  -15.2007 C   0  0  0  0  0  0  0  0  0  0  0  0
   14.7852  -14.3088  -15.3684 O   0  0  0  0  0  0  0  0  0  0  0  0
   19.2780  -10.2614  -15.6306 C   0  0  0  0  0  0  0  0  0  0  0  0
   19.0902   -9.5766  -14.5714 O   0  0  0  0  0  0  0  0  0  0  0  0
   16.7633  -14.2502  -14.2411 O   0  0  0  0  0  0  0  0  0  0  0  0
   20.6215  -10.3666  -16.0830 N   0  0  0  0  0  0  0  0  0  0  0  0
   21.6592   -9.7861  -15.2864 C   0  0  0  0  0  0  0  0  0  0  0  0
   21.7681   -8.3157  -15.4694 C   0  0  0  0  0  0  0  0  0  0  0  0
   22.1291   -7.8093  -16.5784 O   0  0  0  0  0  0  0  0  0  0  0  0
   21.4747   -7.4252  -14.4186 N   0  0  0  0  0  0  0  0  0  0  0  0
   21.6354   -5.9780  -14.5085 C   0  0  1  0  0  0  0  0  0  0  0  0
   20.4058   -5.3164  -15.0529 C   0  0  0  0  0  0  0  0  0  0  0  0
   20.4709   -3.8368  -15.1774 C   0  0  0  0  0  0  0  0  0  0  0  0
   19.2640   -3.1907  -15.6823 C   0  0  0  0  0  0  0  0  0  0  0  0
   18.2432   -3.8900  -15.8851 O   0  0  0  0  0  0  0  0  0  0  0  0
   22.0844   -5.3954  -13.2312 C   0  0  0  0  0  0  0  0  0  0  0  0
   22.6048   -4.0949  -13.2361 O   0  0  0  0  0  0  0  0  0  0  0  0
   19.1811   -1.8457  -15.9521 O   0  0  0  0  0  0  0  0  0  0  0  0
   22.0373   -5.9759  -12.1322 O   0  0  0  0  0  0  0  0  0  0  0  0
  2  1  1  6
  2  7  1  0
  2  3  1  0
  4  3  1  0
  4  5  1  0
  5  6  2  0
  7  8  2  0
  9  5  1  0
 10 11  1  0
 10  7  1  0
 11 12  1  0
 12 13  2  0
 12 14  1  0
 14 15  1  0
 15 16  1  1
 17 16  1  0
 17 18  1  0
 18 22  1  0
 18 19  2  0
 20 21  1  0
 20 15  1  0
 23 20  2  0
M  END
$$$$
