EGE.pdb
     RDKit          3D

 23 22  0  0  1  0  0  0  0  0999 V2000
   19.3477  -13.4040  -15.3499 N   0  0  0  0  0  0  0  0  0  0  0  0
   19.4183  -13.0608  -16.7897 C   0  0  1  0  0  0  0  0  0  0  0  0
   17.9957  -12.6870  -17.1478 C   0  0  0  0  0  0  0  0  0  0  0  0
   17.0280  -13.6809  -16.6099 C   0  0  0  0  0  0  0  0  0  0  0  0
   16.3428  -13.1710  -15.3704 C   0  0  0  0  0  0  0  0  0  0  0  0
   15.5597  -13.8502  -14.6954 O   0  0  0  0  0  0  0  0  0  0  0  0
   20.2697  -11.8806  -16.9198 C   0  0  0  0  0  0  0  0  0  0  0  0
   20.6330  -11.5007  -18.0816 O   0  0  0  0  0  0  0  0  0  0  0  0
   16.6339  -11.8656  -15.0026 O   0  0  0  0  0  0  0  0  0  0  0  0
   20.7360  -11.0998  -15.8271 N   0  0  0  0  0  0  0  0  0  0  0  0
   21.4491   -9.8906  -16.1053 C   0  0  0  0  0  0  0  0  0  0  0  0
   21.1308   -8.8031  -15.1444 C   0  0  0  0  0  0  0  0  0  0  0  0
   20.5698   -9.0450  -14.0294 O   0  0  0  0  0  0  0  0  0  0  0  0
   21.4392   -7.4597  -15.4335 N   0  0  0  0  0  0  0  0  0  0  0  0
   21.2052   -6.3537  -14.5113 C   0  0  1  0  0  0  0  0  0  0  0  0
   21.7685   -5.0671  -15.0343 C   0  0  0  0  0  0  0  0  0  0  0  0
   21.7307   -3.9170  -14.0937 C   0  0  0  0  0  0  0  0  0  0  0  0
   22.2070   -2.6460  -14.6291 C   0  0  0  0  0  0  0  0  0  0  0  0
   22.9514   -2.6556  -15.6381 O   0  0  0  0  0  0  0  0  0  0  0  0
   19.7851   -6.2474  -14.1311 C   0  0  0  0  0  0  0  0  0  0  0  0
   19.4698   -5.9781  -12.7932 O   0  0  0  0  0  0  0  0  0  0  0  0
   21.8840   -1.4260  -14.0850 O   0  0  0  0  0  0  0  0  0  0  0  0
   18.8296   -6.3800  -14.9163 O   0  0  0  0  0  0  0  0  0  0  0  0
  2  1  1  1
  2  7  1  0
  2  3  1  0
  4  3  1  0
  4  5  1  0
  5  6  2  0
  7  8  2  0
  9  5  1  0
 10 11  1  0
 10  7  1  0
 11 12  1  0
 12 13  2  0
 12 14  1  0
 14 15  1  0
 15 16  1  6
 17 16  1  0
 17 18  1  0
 18 22  1  0
 18 19  2  0
 20 21  1  0
 20 15  1  0
 23 20  2  0
M  END
$$$$
