EGE.pdb
     RDKit          3D

 23 22  0  0  1  0  0  0  0  0999 V2000
   20.3689  -12.1853  -16.3871 N   0  0  0  0  0  0  0  0  0  0  0  0
   19.1540  -11.7870  -17.1364 C   0  0  1  0  0  0  0  0  0  0  0  0
   18.0277  -12.4903  -16.4095 C   0  0  0  0  0  0  0  0  0  0  0  0
   18.3852  -13.9017  -16.1036 C   0  0  0  0  0  0  0  0  0  0  0  0
   17.3203  -14.5762  -15.2807 C   0  0  0  0  0  0  0  0  0  0  0  0
   17.4848  -14.9245  -14.1052 O   0  0  0  0  0  0  0  0  0  0  0  0
   18.9948  -10.3429  -16.9813 C   0  0  0  0  0  0  0  0  0  0  0  0
   17.9686   -9.7732  -17.4798 O   0  0  0  0  0  0  0  0  0  0  0  0
   16.1065  -14.7993  -15.9139 O   0  0  0  0  0  0  0  0  0  0  0  0
   19.9144   -9.5001  -16.2994 N   0  0  0  0  0  0  0  0  0  0  0  0
   19.6651   -8.0911  -16.2783 C   0  0  0  0  0  0  0  0  0  0  0  0
   20.6960   -7.3375  -15.5190 C   0  0  0  0  0  0  0  0  0  0  0  0
   21.5635   -7.9336  -14.8057 O   0  0  0  0  0  0  0  0  0  0  0  0
   20.7513   -5.9309  -15.5608 N   0  0  0  0  0  0  0  0  0  0  0  0
   21.6998   -5.1299  -14.7946 C   0  0  1  0  0  0  0  0  0  0  0  0
   21.7409   -3.7104  -15.2737 C   0  0  0  0  0  0  0  0  0  0  0  0
   22.6591   -2.8062  -14.5334 C   0  0  0  0  0  0  0  0  0  0  0  0
   22.7212   -1.4317  -15.0192 C   0  0  0  0  0  0  0  0  0  0  0  0
   22.0654   -1.1214  -16.0419 O   0  0  0  0  0  0  0  0  0  0  0  0
   21.4652   -5.2407  -13.3436 C   0  0  0  0  0  0  0  0  0  0  0  0
   20.1998   -5.6457  -12.9002 O   0  0  0  0  0  0  0  0  0  0  0  0
   23.4654   -0.4473  -14.4143 O   0  0  0  0  0  0  0  0  0  0  0  0
   22.3150   -4.9992  -12.4681 O   0  0  0  0  0  0  0  0  0  0  0  0
  2  1  1  1
  2  7  1  0
  2  3  1  0
  4  3  1  0
  4  5  1  0
  5  6  2  0
  7  8  2  0
  9  5  1  0
 10 11  1  0
 10  7  1  0
 11 12  1  0
 12 13  2  0
 12 14  1  0
 14 15  1  0
 15 16  1  6
 17 16  1  0
 17 18  1  0
 18 22  1  0
 18 19  2  0
 20 21  1  0
 20 15  1  0
 23 20  2  0
M  END
$$$$
