EGE.pdb
     RDKit          3D

 23 22  0  0  1  0  0  0  0  0999 V2000
   14.1604  -12.2239  -13.9527 N   0  0  0  0  0  0  0  0  0  0  0  0
   15.5766  -12.6468  -14.0601 C   0  0  1  0  0  0  0  0  0  0  0  0
   15.5205  -13.9072  -14.8968 C   0  0  0  0  0  0  0  0  0  0  0  0
   14.8955  -15.0258  -14.1408 C   0  0  0  0  0  0  0  0  0  0  0  0
   14.6707  -16.2286  -15.0176 C   0  0  0  0  0  0  0  0  0  0  0  0
   15.5485  -17.0632  -15.2691 O   0  0  0  0  0  0  0  0  0  0  0  0
   16.2903  -11.6110  -14.8035 C   0  0  0  0  0  0  0  0  0  0  0  0
   17.5115  -11.8006  -15.1177 O   0  0  0  0  0  0  0  0  0  0  0  0
   13.3977  -16.3689  -15.5503 O   0  0  0  0  0  0  0  0  0  0  0  0
   15.7172  -10.3778  -15.2177 N   0  0  0  0  0  0  0  0  0  0  0  0
   16.5104   -9.4856  -16.0069 C   0  0  0  0  0  0  0  0  0  0  0  0
   17.0954   -8.3785  -15.2073 C   0  0  0  0  0  0  0  0  0  0  0  0
   16.7477   -8.1743  -14.0015 O   0  0  0  0  0  0  0  0  0  0  0  0
   18.0596   -7.5112  -15.7564 N   0  0  0  0  0  0  0  0  0  0  0  0
   18.6632   -6.3995  -15.0297 C   0  0  1  0  0  0  0  0  0  0  0  0
   20.1510   -6.3642  -15.2062 C   0  0  0  0  0  0  0  0  0  0  0  0
   20.8716   -7.6167  -14.8583 C   0  0  0  0  0  0  0  0  0  0  0  0
   22.3223   -7.5748  -15.0094 C   0  0  0  0  0  0  0  0  0  0  0  0
   22.8444   -6.5771  -15.5610 O   0  0  0  0  0  0  0  0  0  0  0  0
   18.0150   -5.1158  -15.3535 C   0  0  0  0  0  0  0  0  0  0  0  0
   17.9853   -4.1160  -14.3730 O   0  0  0  0  0  0  0  0  0  0  0  0
   23.1581   -8.5768  -14.5782 O   0  0  0  0  0  0  0  0  0  0  0  0
   17.4840   -4.8459  -16.4454 O   0  0  0  0  0  0  0  0  0  0  0  0
  2  1  1  6
  2  7  1  0
  2  3  1  0
  4  3  1  0
  4  5  1  0
  5  6  2  0
  7  8  2  0
  9  5  1  0
 10 11  1  0
 10  7  1  0
 11 12  1  0
 12 13  2  0
 12 14  1  0
 14 15  1  0
 15 16  1  6
 17 16  1  0
 17 18  1  0
 18 22  1  0
 18 19  2  0
 20 21  1  0
 20 15  1  0
 23 20  2  0
M  END
$$$$
