EGE.pdb
     RDKit          3D

 23 22  0  0  1  0  0  0  0  0999 V2000
   21.3999  -14.0064  -19.7582 N   0  0  0  0  0  0  0  0  0  0  0  0
   21.4381  -14.6794  -18.4386 C   0  0  1  0  0  0  0  0  0  0  0  0
   22.8741  -15.1391  -18.3027 C   0  0  0  0  0  0  0  0  0  0  0  0
   23.2804  -15.9797  -19.4611 C   0  0  0  0  0  0  0  0  0  0  0  0
   24.7425  -16.3327  -19.4025 C   0  0  0  0  0  0  0  0  0  0  0  0
   25.4917  -15.9861  -18.4812 O   0  0  0  0  0  0  0  0  0  0  0  0
   21.1614  -13.6685  -17.4206 C   0  0  0  0  0  0  0  0  0  0  0  0
   20.8301  -14.0419  -16.2472 O   0  0  0  0  0  0  0  0  0  0  0  0
   25.2332  -17.0875  -20.4579 O   0  0  0  0  0  0  0  0  0  0  0  0
   21.2365  -12.2656  -17.6378 N   0  0  0  0  0  0  0  0  0  0  0  0
   20.8465  -11.3873  -16.5774 C   0  0  0  0  0  0  0  0  0  0  0  0
   21.0503   -9.9549  -16.9150 C   0  0  0  0  0  0  0  0  0  0  0  0
   21.5701   -9.6002  -18.0197 O   0  0  0  0  0  0  0  0  0  0  0  0
   20.6743   -8.9332  -16.0214 N   0  0  0  0  0  0  0  0  0  0  0  0
   20.7392   -7.5104  -16.3371 C   0  0  1  0  0  0  0  0  0  0  0  0
   19.8036   -6.7098  -15.4829 C   0  0  0  0  0  0  0  0  0  0  0  0
   18.3583   -7.0132  -15.6499 C   0  0  0  0  0  0  0  0  0  0  0  0
   17.6145   -7.2479  -14.4167 C   0  0  0  0  0  0  0  0  0  0  0  0
   16.6795   -6.4682  -14.1166 O   0  0  0  0  0  0  0  0  0  0  0  0
   22.1231   -7.0039  -16.3053 C   0  0  0  0  0  0  0  0  0  0  0  0
   22.3625   -5.6875  -16.7195 O   0  0  0  0  0  0  0  0  0  0  0  0
   17.8830   -8.2849  -13.5558 O   0  0  0  0  0  0  0  0  0  0  0  0
   23.1104   -7.6630  -15.9341 O   0  0  0  0  0  0  0  0  0  0  0  0
  2  1  1  6
  2  7  1  0
  2  3  1  0
  4  3  1  0
  4  5  1  0
  5  6  2  0
  7  8  2  0
  9  5  1  0
 10 11  1  0
 10  7  1  0
 11 12  1  0
 12 13  2  0
 12 14  1  0
 14 15  1  0
 15 16  1  1
 17 16  1  0
 17 18  1  0
 18 22  1  0
 18 19  2  0
 20 21  1  0
 20 15  1  0
 23 20  2  0
M  END
$$$$
