EGE.pdb
     RDKit          3D

 23 22  0  0  1  0  0  0  0  0999 V2000
   26.4960  -21.7701  -13.2389 N   0  0  0  0  0  0  0  0  0  0  0  0
   26.5020  -20.5146  -14.0261 C   0  0  1  0  0  0  0  0  0  0  0  0
   27.1727  -20.9007  -15.3272 C   0  0  0  0  0  0  0  0  0  0  0  0
   27.3326  -22.3762  -15.4313 C   0  0  0  0  0  0  0  0  0  0  0  0
   27.9468  -22.7746  -16.7467 C   0  0  0  0  0  0  0  0  0  0  0  0
   27.3533  -22.6940  -17.8290 O   0  0  0  0  0  0  0  0  0  0  0  0
   25.1111  -20.1558  -14.2934 C   0  0  0  0  0  0  0  0  0  0  0  0
   24.8267  -19.5218  -15.3627 O   0  0  0  0  0  0  0  0  0  0  0  0
   29.2483  -23.2517  -16.6954 O   0  0  0  0  0  0  0  0  0  0  0  0
   24.0205  -20.4669  -13.4363 N   0  0  0  0  0  0  0  0  0  0  0  0
   22.7371  -20.7079  -14.0220 C   0  0  0  0  0  0  0  0  0  0  0  0
   21.7190  -21.1214  -13.0222 C   0  0  0  0  0  0  0  0  0  0  0  0
   22.0479  -21.4721  -11.8452 O   0  0  0  0  0  0  0  0  0  0  0  0
   20.3474  -21.1404  -13.3415 N   0  0  0  0  0  0  0  0  0  0  0  0
   19.2988  -21.5330  -12.4063 C   0  0  1  0  0  0  0  0  0  0  0  0
   17.9356  -21.1892  -12.9255 C   0  0  0  0  0  0  0  0  0  0  0  0
   17.5443  -21.8505  -14.1977 C   0  0  0  0  0  0  0  0  0  0  0  0
   16.2121  -21.5251  -14.6962 C   0  0  0  0  0  0  0  0  0  0  0  0
   15.8547  -21.9801  -15.8086 O   0  0  0  0  0  0  0  0  0  0  0  0
   19.4220  -22.9461  -12.0054 C   0  0  0  0  0  0  0  0  0  0  0  0
   18.8944  -23.3383  -10.7686 O   0  0  0  0  0  0  0  0  0  0  0  0
   15.3174  -20.7397  -14.0097 O   0  0  0  0  0  0  0  0  0  0  0  0
   19.9659  -23.8316  -12.6889 O   0  0  0  0  0  0  0  0  0  0  0  0
  2  1  1  1
  2  7  1  0
  2  3  1  0
  4  3  1  0
  4  5  1  0
  5  6  2  0
  7  8  2  0
  9  5  1  0
 10 11  1  0
 10  7  1  0
 11 12  1  0
 12 13  2  0
 12 14  1  0
 14 15  1  0
 15 16  1  6
 17 16  1  0
 17 18  1  0
 18 22  1  0
 18 19  2  0
 20 21  1  0
 20 15  1  0
 23 20  2  0
M  END
$$$$
