EGE.pdb
     RDKit          3D

 23 22  0  0  1  0  0  0  0  0999 V2000
   19.0671  -12.8723  -14.7651 N   0  0  0  0  0  0  0  0  0  0  0  0
   18.5377  -12.5532  -16.1119 C   0  0  1  0  0  0  0  0  0  0  0  0
   17.0793  -12.9522  -16.0368 C   0  0  0  0  0  0  0  0  0  0  0  0
   16.9329  -14.4258  -15.8931 C   0  0  0  0  0  0  0  0  0  0  0  0
   15.4861  -14.8318  -15.8039 C   0  0  0  0  0  0  0  0  0  0  0  0
   14.7750  -15.0451  -16.7934 O   0  0  0  0  0  0  0  0  0  0  0  0
   18.6287  -11.1057  -16.2891 C   0  0  0  0  0  0  0  0  0  0  0  0
   18.6013  -10.6205  -17.4681 O   0  0  0  0  0  0  0  0  0  0  0  0
   14.9641  -14.9618  -14.5253 O   0  0  0  0  0  0  0  0  0  0  0  0
   18.7456  -10.1702  -15.2252 N   0  0  0  0  0  0  0  0  0  0  0  0
   18.6938   -8.7736  -15.5334 C   0  0  0  0  0  0  0  0  0  0  0  0
   19.9320   -8.0531  -15.1398 C   0  0  0  0  0  0  0  0  0  0  0  0
   20.9157   -8.6620  -14.6125 O   0  0  0  0  0  0  0  0  0  0  0  0
   20.0630   -6.6647  -15.3364 N   0  0  0  0  0  0  0  0  0  0  0  0
   21.2463   -5.8973  -14.9633 C   0  0  1  0  0  0  0  0  0  0  0  0
   21.2171   -4.5159  -15.5439 C   0  0  0  0  0  0  0  0  0  0  0  0
   22.3301   -3.6204  -15.1340 C   0  0  0  0  0  0  0  0  0  0  0  0
   22.2695   -2.2578  -15.6525 C   0  0  0  0  0  0  0  0  0  0  0  0
   22.1082   -1.3107  -14.8468 O   0  0  0  0  0  0  0  0  0  0  0  0
   21.4678   -5.9042  -13.5061 C   0  0  0  0  0  0  0  0  0  0  0  0
   22.7844   -5.8607  -13.0300 O   0  0  0  0  0  0  0  0  0  0  0  0
   22.3796   -1.9496  -16.9872 O   0  0  0  0  0  0  0  0  0  0  0  0
   20.5643   -5.9463  -12.6523 O   0  0  0  0  0  0  0  0  0  0  0  0
  2  1  1  1
  2  7  1  0
  2  3  1  0
  4  3  1  0
  4  5  1  0
  5  6  2  0
  7  8  2  0
  9  5  1  0
 10 11  1  0
 10  7  1  0
 11 12  1  0
 12 13  2  0
 12 14  1  0
 14 15  1  0
 15 16  1  1
 17 16  1  0
 17 18  1  0
 18 22  1  0
 18 19  2  0
 20 21  1  0
 20 15  1  0
 23 20  2  0
M  END
$$$$
