EGE.pdb
     RDKit          3D

 23 22  0  0  1  0  0  0  0  0999 V2000
   17.1115  -12.3730  -14.1881 N   0  0  0  0  0  0  0  0  0  0  0  0
   18.1391  -12.7769  -15.1765 C   0  0  1  0  0  0  0  0  0  0  0  0
   17.4068  -13.7280  -16.0990 C   0  0  0  0  0  0  0  0  0  0  0  0
   16.6504  -14.7497  -15.3259 C   0  0  0  0  0  0  0  0  0  0  0  0
   15.9790  -15.7450  -16.2339 C   0  0  0  0  0  0  0  0  0  0  0  0
   16.3705  -15.9952  -17.3804 O   0  0  0  0  0  0  0  0  0  0  0  0
   18.5218  -11.5831  -15.9267 C   0  0  0  0  0  0  0  0  0  0  0  0
   19.4068  -11.6793  -16.8397 O   0  0  0  0  0  0  0  0  0  0  0  0
   14.8664  -16.3925  -15.7169 O   0  0  0  0  0  0  0  0  0  0  0  0
   17.9707  -10.2895  -15.7172 N   0  0  0  0  0  0  0  0  0  0  0  0
   18.5364   -9.1819  -16.4252 C   0  0  0  0  0  0  0  0  0  0  0  0
   19.6756   -8.5604  -15.7019 C   0  0  0  0  0  0  0  0  0  0  0  0
   20.1379   -9.0662  -14.6310 O   0  0  0  0  0  0  0  0  0  0  0  0
   20.2879   -7.3843  -16.1766 N   0  0  0  0  0  0  0  0  0  0  0  0
   21.3423   -6.6704  -15.4646 C   0  0  1  0  0  0  0  0  0  0  0  0
   21.9531   -5.5951  -16.3111 C   0  0  0  0  0  0  0  0  0  0  0  0
   23.0606   -4.8297  -15.6815 C   0  0  0  0  0  0  0  0  0  0  0  0
   23.6111   -3.7402  -16.4809 C   0  0  0  0  0  0  0  0  0  0  0  0
   22.8274   -2.8905  -16.9667 O   0  0  0  0  0  0  0  0  0  0  0  0
   20.8829   -6.1788  -14.1531 C   0  0  0  0  0  0  0  0  0  0  0  0
   21.7769   -6.2144  -13.0754 O   0  0  0  0  0  0  0  0  0  0  0  0
   24.9533   -3.5907  -16.7355 O   0  0  0  0  0  0  0  0  0  0  0  0
   19.7466   -5.7277  -13.9239 O   0  0  0  0  0  0  0  0  0  0  0  0
  2  1  1  1
  2  7  1  0
  2  3  1  0
  4  3  1  0
  4  5  1  0
  5  6  2  0
  7  8  2  0
  9  5  1  0
 10 11  1  0
 10  7  1  0
 11 12  1  0
 12 13  2  0
 12 14  1  0
 14 15  1  0
 15 16  1  6
 17 16  1  0
 17 18  1  0
 18 22  1  0
 18 19  2  0
 20 21  1  0
 20 15  1  0
 23 20  2  0
M  END
$$$$
