GWY.pdb
     RDKit          3D

 31 33  0  0  1  0  0  0  0  0999 V2000
   29.0684  -21.6278  -14.3031 N   0  0  0  0  0  0  0  0  0  0  0  0
   28.7069  -20.5659  -13.3948 C   0  0  0  0  0  0  0  0  0  0  0  0
   27.7576  -20.9955  -12.3572 C   0  0  0  0  0  0  0  0  0  0  0  0
   27.0705  -22.0227  -12.5773 O   0  0  0  0  0  0  0  0  0  0  0  0
   27.5625  -20.3349  -11.1276 N   0  0  0  0  0  0  0  0  0  0  0  0
   26.4638  -20.6194  -10.2067 C   0  0  1  0  0  0  0  0  0  0  0  0
   26.7082  -20.0307   -8.8690 C   0  0  0  0  0  0  0  0  0  0  0  0
   27.9077  -20.4984   -8.1513 C   0  0  0  0  0  0  0  0  0  0  0  0
   28.9110  -21.3181   -8.6611 C   0  0  0  0  0  0  0  0  0  0  0  0
   29.8467  -21.4762   -7.7266 N   0  0  0  0  0  0  0  0  0  0  0  0
   29.5214  -20.8030   -6.6116 C   0  0  0  0  0  0  0  0  0  0  0  0
   30.1489  -20.6661   -5.3868 C   0  0  0  0  0  0  0  0  0  0  0  0
   29.5636  -19.9110   -4.4060 C   0  0  0  0  0  0  0  0  0  0  0  0
   28.3530  -19.2775   -4.6091 C   0  0  0  0  0  0  0  0  0  0  0  0
   27.7461  -19.4295   -5.8425 C   0  0  0  0  0  0  0  0  0  0  0  0
   28.2985  -20.1871   -6.8799 C   0  0  0  0  0  0  0  0  0  0  0  0
   25.1917  -20.2556  -10.8143 C   0  0  0  0  0  0  0  0  0  0  0  0
   24.9682  -19.1025  -11.3158 O   0  0  0  0  0  0  0  0  0  0  0  0
   18.4917  -21.0279  -16.4254 O   0  0  0  0  0  0  0  0  0  0  0  0
   19.5829  -21.1945  -15.5734 C   0  0  0  0  0  0  0  0  0  0  0  0
   20.7225  -20.4473  -15.7261 C   0  0  0  0  0  0  0  0  0  0  0  0
   21.8187  -20.6035  -14.8829 C   0  0  0  0  0  0  0  0  0  0  0  0
   21.7985  -21.5273  -13.8500 C   0  0  0  0  0  0  0  0  0  0  0  0
   22.9213  -21.7481  -12.9269 C   0  0  0  0  0  0  0  0  0  0  0  0
   22.8921  -20.7809  -11.7217 C   0  0  2  0  0  0  0  0  0  0  0  0
   24.0604  -21.1524  -10.9231 N   0  0  0  0  0  0  0  0  0  0  0  0
   21.6530  -20.9995  -10.9709 C   0  0  0  0  0  0  0  0  0  0  0  0
   20.5131  -20.2406  -11.1252 O   0  0  0  0  0  0  0  0  0  0  0  0
   20.6436  -22.2721  -13.7084 C   0  0  0  0  0  0  0  0  0  0  0  0
   19.5486  -22.1222  -14.5436 C   0  0  0  0  0  0  0  0  0  0  0  0
   21.6090  -21.9325  -10.1273 O   0  0  0  0  0  0  0  0  0  0  0  0
  2  1  1  0
  3  4  2  0
  3  2  1  0
  5  3  1  0
  6  5  1  0
  6  7  1  1
  8 16  1  0
  8  7  1  0
  9  8  2  0
 10  9  1  0
 10 11  1  0
 11 16  2  0
 12 11  1  0
 12 13  2  0
 13 14  1  0
 14 15  2  0
 16 15  1  0
 17 26  1  0
 17  6  1  0
 18 17  2  0
 19 20  1  0
 20 21  2  0
 21 22  1  0
 23 22  2  0
 23 24  1  0
 25 24  1  6
 25 27  1  0
 25 26  1  0
 27 28  1  0
 29 23  1  0
 30 20  1  0
 30 29  2  0
 31 27  2  0
M  END
$$$$
