GWY.pdb
     RDKit          3D

 31 33  0  0  1  0  0  0  0  0999 V2000
   27.6188  -25.2953  -16.4101 N   0  0  0  0  0  0  0  0  0  0  0  0
   27.0806  -23.9615  -16.5319 C   0  0  0  0  0  0  0  0  0  0  0  0
   26.6436  -23.3985  -15.2456 C   0  0  0  0  0  0  0  0  0  0  0  0
   26.0922  -24.1696  -14.4228 O   0  0  0  0  0  0  0  0  0  0  0  0
   26.8002  -22.0499  -14.8674 N   0  0  0  0  0  0  0  0  0  0  0  0
   26.3005  -21.4835  -13.6162 C   0  0  1  0  0  0  0  0  0  0  0  0
   27.1723  -20.3898  -13.1269 C   0  0  0  0  0  0  0  0  0  0  0  0
   28.0249  -20.6957  -11.9640 C   0  0  0  0  0  0  0  0  0  0  0  0
   29.3747  -21.0358  -11.9931 C   0  0  0  0  0  0  0  0  0  0  0  0
   29.8017  -21.1888  -10.7408 N   0  0  0  0  0  0  0  0  0  0  0  0
   28.8041  -20.9691   -9.8698 C   0  0  0  0  0  0  0  0  0  0  0  0
   28.7428  -21.0153   -8.4890 C   0  0  0  0  0  0  0  0  0  0  0  0
   27.5584  -20.7531   -7.8539 C   0  0  0  0  0  0  0  0  0  0  0  0
   26.4140  -20.4413   -8.5616 C   0  0  0  0  0  0  0  0  0  0  0  0
   26.5014  -20.4011   -9.9413 C   0  0  0  0  0  0  0  0  0  0  0  0
   27.6840  -20.6587  -10.6418 C   0  0  0  0  0  0  0  0  0  0  0  0
   24.8935  -21.1338  -13.7494 C   0  0  0  0  0  0  0  0  0  0  0  0
   24.3518  -20.8569  -14.8725 O   0  0  0  0  0  0  0  0  0  0  0  0
   16.3462  -19.6804  -11.4962 O   0  0  0  0  0  0  0  0  0  0  0  0
   17.7220  -19.9067  -11.4875 C   0  0  0  0  0  0  0  0  0  0  0  0
   18.2321  -21.1778  -11.5537 C   0  0  0  0  0  0  0  0  0  0  0  0
   19.6031  -21.4178  -11.5458 C   0  0  0  0  0  0  0  0  0  0  0  0
   20.5099  -20.3726  -11.4701 C   0  0  0  0  0  0  0  0  0  0  0  0
   21.9689  -20.5541  -11.4516 C   0  0  0  0  0  0  0  0  0  0  0  0
   22.5553  -20.7561  -12.8672 C   0  0  2  0  0  0  0  0  0  0  0  0
   23.9658  -21.0721  -12.6397 N   0  0  0  0  0  0  0  0  0  0  0  0
   22.4128  -19.5072  -13.6199 C   0  0  0  0  0  0  0  0  0  0  0  0
   21.4399  -19.2857  -14.5704 O   0  0  0  0  0  0  0  0  0  0  0  0
   19.9812  -19.0979  -11.4046 C   0  0  0  0  0  0  0  0  0  0  0  0
   18.6180  -18.8513  -11.4120 C   0  0  0  0  0  0  0  0  0  0  0  0
   23.2210  -18.5679  -13.3993 O   0  0  0  0  0  0  0  0  0  0  0  0
  2  1  1  0
  3  4  2  0
  3  2  1  0
  5  3  1  0
  6  5  1  0
  6  7  1  6
  8 16  1  0
  8  7  1  0
  9  8  2  0
 10  9  1  0
 10 11  1  0
 11 16  2  0
 12 11  1  0
 12 13  2  0
 13 14  1  0
 14 15  2  0
 16 15  1  0
 17 26  1  0
 17  6  1  0
 18 17  2  0
 19 20  1  0
 20 21  2  0
 21 22  1  0
 23 22  2  0
 23 24  1  0
 25 24  1  1
 25 27  1  0
 25 26  1  0
 27 28  1  0
 29 23  1  0
 30 20  1  0
 30 29  2  0
 31 27  2  0
M  END
$$$$
