GWY.pdb
     RDKit          3D

 31 33  0  0  1  0  0  0  0  0999 V2000
   27.3830  -21.8495  -15.5953 N   0  0  0  0  0  0  0  0  0  0  0  0
   27.0323  -20.8095  -14.6578 C   0  0  0  0  0  0  0  0  0  0  0  0
   26.1489  -21.2808  -13.5808 C   0  0  0  0  0  0  0  0  0  0  0  0
   25.6704  -22.4374  -13.6760 O   0  0  0  0  0  0  0  0  0  0  0  0
   25.7993  -20.5250  -12.4438 N   0  0  0  0  0  0  0  0  0  0  0  0
   24.8626  -20.9727  -11.4150 C   0  0  1  0  0  0  0  0  0  0  0  0
   25.2847  -20.5315  -10.0649 C   0  0  0  0  0  0  0  0  0  0  0  0
   26.6526  -20.8921   -9.6506 C   0  0  0  0  0  0  0  0  0  0  0  0
   27.5979  -21.5706  -10.4151 C   0  0  0  0  0  0  0  0  0  0  0  0
   28.7258  -21.6629   -9.7127 N   0  0  0  0  0  0  0  0  0  0  0  0
   28.5852  -21.0800   -8.5116 C   0  0  0  0  0  0  0  0  0  0  0  0
   29.4474  -20.9269   -7.4412 C   0  0  0  0  0  0  0  0  0  0  0  0
   29.0169  -20.2861   -6.3103 C   0  0  0  0  0  0  0  0  0  0  0  0
   27.7338  -19.7847   -6.2095 C   0  0  0  0  0  0  0  0  0  0  0  0
   26.8911  -19.9501   -7.2937 C   0  0  0  0  0  0  0  0  0  0  0  0
   27.2776  -20.5947   -8.4729 C   0  0  0  0  0  0  0  0  0  0  0  0
   23.5015  -20.6087  -11.7820 C   0  0  0  0  0  0  0  0  0  0  0  0
   23.1141  -19.3966  -11.8912 O   0  0  0  0  0  0  0  0  0  0  0  0
   23.5609  -19.3018  -18.1161 O   0  0  0  0  0  0  0  0  0  0  0  0
   22.9031  -19.9250  -17.0564 C   0  0  0  0  0  0  0  0  0  0  0  0
   23.3972  -21.0726  -16.4914 C   0  0  0  0  0  0  0  0  0  0  0  0
   22.7506  -21.7048  -15.4334 C   0  0  0  0  0  0  0  0  0  0  0  0
   21.5744  -21.1937  -14.9082 C   0  0  0  0  0  0  0  0  0  0  0  0
   20.8371  -21.8124  -13.7968 C   0  0  0  0  0  0  0  0  0  0  0  0
   21.1161  -21.1167  -12.4451 C   0  0  2  0  0  0  0  0  0  0  0  0
   22.4559  -21.5682  -12.0683 N   0  0  0  0  0  0  0  0  0  0  0  0
   20.1187  -21.5637  -11.4693 C   0  0  0  0  0  0  0  0  0  0  0  0
   20.3953  -22.4041  -10.4128 O   0  0  0  0  0  0  0  0  0  0  0  0
   21.0892  -20.0370  -15.4873 C   0  0  0  0  0  0  0  0  0  0  0  0
   21.7272  -19.4021  -16.5404 C   0  0  0  0  0  0  0  0  0  0  0  0
   18.9301  -21.1673  -11.5886 O   0  0  0  0  0  0  0  0  0  0  0  0
  2  1  1  0
  3  4  2  0
  3  2  1  0
  5  3  1  0
  6  5  1  0
  6  7  1  1
  8 16  1  0
  8  7  1  0
  9  8  2  0
 10  9  1  0
 10 11  1  0
 11 16  2  0
 12 11  1  0
 12 13  2  0
 13 14  1  0
 14 15  2  0
 16 15  1  0
 17 26  1  0
 17  6  1  0
 18 17  2  0
 19 20  1  0
 20 21  2  0
 21 22  1  0
 23 22  2  0
 23 24  1  0
 25 24  1  6
 25 27  1  0
 25 26  1  0
 27 28  1  0
 29 23  1  0
 30 20  1  0
 30 29  2  0
 31 27  2  0
M  END
$$$$
