GWY.pdb
     RDKit          3D

 31 33  0  0  1  0  0  0  0  0999 V2000
   25.3542  -25.1532  -21.5336 N   0  0  0  0  0  0  0  0  0  0  0  0
   25.0996  -24.8313  -20.1498 C   0  0  0  0  0  0  0  0  0  0  0  0
   25.2071  -25.9968  -19.2596 C   0  0  0  0  0  0  0  0  0  0  0  0
   25.1421  -27.1392  -19.7755 O   0  0  0  0  0  0  0  0  0  0  0  0
   25.3791  -25.9240  -17.8626 N   0  0  0  0  0  0  0  0  0  0  0  0
   25.4142  -27.0860  -16.9769 C   0  0  1  0  0  0  0  0  0  0  0  0
   26.6078  -27.0658  -16.0990 C   0  0  0  0  0  0  0  0  0  0  0  0
   27.9076  -27.3181  -16.7467 C   0  0  0  0  0  0  0  0  0  0  0  0
   28.7368  -26.3686  -17.3377 C   0  0  0  0  0  0  0  0  0  0  0  0
   29.8410  -26.9770  -17.7675 N   0  0  0  0  0  0  0  0  0  0  0  0
   29.7949  -28.2907  -17.4951 C   0  0  0  0  0  0  0  0  0  0  0  0
   30.6748  -29.3278  -17.7453 C   0  0  0  0  0  0  0  0  0  0  0  0
   30.3506  -30.6004  -17.3578 C   0  0  0  0  0  0  0  0  0  0  0  0
   29.1580  -30.8779  -16.7186 C   0  0  0  0  0  0  0  0  0  0  0  0
   28.2954  -29.8236  -16.4795 C   0  0  0  0  0  0  0  0  0  0  0  0
   28.5754  -28.5052  -16.8519 C   0  0  0  0  0  0  0  0  0  0  0  0
   24.1430  -27.2263  -16.2812 C   0  0  0  0  0  0  0  0  0  0  0  0
   23.6176  -26.2815  -15.6010 O   0  0  0  0  0  0  0  0  0  0  0  0
   15.6725  -27.5686  -15.0263 O   0  0  0  0  0  0  0  0  0  0  0  0
   17.0155  -27.5582  -15.4012 C   0  0  0  0  0  0  0  0  0  0  0  0
   17.8571  -26.5543  -14.9961 C   0  0  0  0  0  0  0  0  0  0  0  0
   19.1995  -26.5317  -15.3631 C   0  0  0  0  0  0  0  0  0  0  0  0
   19.7388  -27.5308  -16.1578 C   0  0  0  0  0  0  0  0  0  0  0  0
   21.1445  -27.5663  -16.5872 C   0  0  0  0  0  0  0  0  0  0  0  0
   22.0185  -28.4513  -15.6697 C   0  0  2  0  0  0  0  0  0  0  0  0
   23.3424  -28.4324  -16.2925 N   0  0  0  0  0  0  0  0  0  0  0  0
   21.4651  -29.8079  -15.6559 C   0  0  0  0  0  0  0  0  0  0  0  0
   20.7476  -30.3380  -14.6055 O   0  0  0  0  0  0  0  0  0  0  0  0
   18.8789  -28.5355  -16.5576 C   0  0  0  0  0  0  0  0  0  0  0  0
   17.5418  -28.5648  -16.1963 C   0  0  0  0  0  0  0  0  0  0  0  0
   21.6477  -30.5500  -16.6559 O   0  0  0  0  0  0  0  0  0  0  0  0
  2  1  1  0
  3  4  2  0
  3  2  1  0
  5  3  1  0
  6  5  1  0
  6  7  1  1
  8 16  1  0
  8  7  1  0
  9  8  2  0
 10  9  1  0
 10 11  1  0
 11 16  2  0
 12 11  1  0
 12 13  2  0
 13 14  1  0
 14 15  2  0
 16 15  1  0
 17 26  1  0
 17  6  1  0
 18 17  2  0
 19 20  1  0
 20 21  2  0
 21 22  1  0
 23 22  2  0
 23 24  1  0
 25 24  1  6
 25 27  1  0
 25 26  1  0
 27 28  1  0
 29 23  1  0
 30 20  1  0
 30 29  2  0
 31 27  2  0
M  END
$$$$
