GWY.pdb
     RDKit          3D

 31 33  0  0  1  0  0  0  0  0999 V2000
   29.2979  -19.6077  -14.3689 N   0  0  0  0  0  0  0  0  0  0  0  0
   28.3089  -19.0990  -13.4488 C   0  0  0  0  0  0  0  0  0  0  0  0
   27.2707  -20.0863  -13.1175 C   0  0  0  0  0  0  0  0  0  0  0  0
   26.9543  -20.9249  -13.9964 O   0  0  0  0  0  0  0  0  0  0  0  0
   26.6023  -20.1602  -11.8790 N   0  0  0  0  0  0  0  0  0  0  0  0
   25.5334  -21.1101  -11.5769 C   0  0  1  0  0  0  0  0  0  0  0  0
   25.5547  -21.5192  -10.1528 C   0  0  0  0  0  0  0  0  0  0  0  0
   26.5712  -20.8801   -9.2979 C   0  0  0  0  0  0  0  0  0  0  0  0
   26.3394  -19.9433   -8.2943 C   0  0  0  0  0  0  0  0  0  0  0  0
   27.5014  -19.6421   -7.7172 N   0  0  0  0  0  0  0  0  0  0  0  0
   28.5048  -20.3303   -8.2845 C   0  0  0  0  0  0  0  0  0  0  0  0
   29.8676  -20.3570   -8.0515 C   0  0  0  0  0  0  0  0  0  0  0  0
   30.6699  -21.1640   -8.8130 C   0  0  0  0  0  0  0  0  0  0  0  0
   30.1496  -21.9585   -9.8161 C   0  0  0  0  0  0  0  0  0  0  0  0
   28.7838  -21.9143  -10.0289 C   0  0  0  0  0  0  0  0  0  0  0  0
   27.9176  -21.1103   -9.2813 C   0  0  0  0  0  0  0  0  0  0  0  0
   24.2557  -20.5955  -12.0485 C   0  0  0  0  0  0  0  0  0  0  0  0
   23.7452  -19.5073  -11.6167 O   0  0  0  0  0  0  0  0  0  0  0  0
   19.7588  -17.4002  -18.7935 O   0  0  0  0  0  0  0  0  0  0  0  0
   20.5945  -18.0394  -17.8785 C   0  0  0  0  0  0  0  0  0  0  0  0
   21.0554  -17.3878  -16.7635 C   0  0  0  0  0  0  0  0  0  0  0  0
   21.8901  -18.0139  -15.8423 C   0  0  0  0  0  0  0  0  0  0  0  0
   22.2891  -19.3292  -16.0198 C   0  0  0  0  0  0  0  0  0  0  0  0
   23.1725  -20.0492  -15.0909 C   0  0  0  0  0  0  0  0  0  0  0  0
   22.4398  -20.4899  -13.8033 C   0  0  2  0  0  0  0  0  0  0  0  0
   23.4404  -21.2477  -13.0514 N   0  0  0  0  0  0  0  0  0  0  0  0
   21.3063  -21.3416  -14.1731 C   0  0  0  0  0  0  0  0  0  0  0  0
   21.4253  -22.6574  -14.5647 O   0  0  0  0  0  0  0  0  0  0  0  0
   21.8162  -19.9726  -17.1472 C   0  0  0  0  0  0  0  0  0  0  0  0
   20.9853  -19.3561  -18.0683 C   0  0  0  0  0  0  0  0  0  0  0  0
   20.1449  -20.8579  -14.1386 O   0  0  0  0  0  0  0  0  0  0  0  0
  2  1  1  0
  3  4  2  0
  3  2  1  0
  5  3  1  0
  6  5  1  0
  6  7  1  1
  8 16  1  0
  8  7  1  0
  9  8  2  0
 10  9  1  0
 10 11  1  0
 11 16  2  0
 12 11  1  0
 12 13  2  0
 13 14  1  0
 14 15  2  0
 16 15  1  0
 17 26  1  0
 17  6  1  0
 18 17  2  0
 19 20  1  0
 20 21  2  0
 21 22  1  0
 23 22  2  0
 23 24  1  0
 25 24  1  6
 25 27  1  0
 25 26  1  0
 27 28  1  0
 29 23  1  0
 30 20  1  0
 30 29  2  0
 31 27  2  0
M  END
$$$$
