GWY.pdb
     RDKit          3D

 31 33  0  0  1  0  0  0  0  0999 V2000
   29.5075  -23.2842  -16.3791 N   0  0  0  0  0  0  0  0  0  0  0  0
   29.0830  -22.1926  -17.2227 C   0  0  0  0  0  0  0  0  0  0  0  0
   28.4024  -21.1223  -16.4786 C   0  0  0  0  0  0  0  0  0  0  0  0
   28.4901  -21.1286  -15.2265 O   0  0  0  0  0  0  0  0  0  0  0  0
   27.6556  -20.0847  -17.0720 N   0  0  0  0  0  0  0  0  0  0  0  0
   27.0584  -18.9747  -16.3322 C   0  0  1  0  0  0  0  0  0  0  0  0
   26.8197  -17.8028  -17.2072 C   0  0  0  0  0  0  0  0  0  0  0  0
   26.2097  -16.6199  -16.5739 C   0  0  0  0  0  0  0  0  0  0  0  0
   26.6729  -15.9550  -15.4417 C   0  0  0  0  0  0  0  0  0  0  0  0
   25.8822  -14.9085  -15.2099 N   0  0  0  0  0  0  0  0  0  0  0  0
   24.9082  -14.8372  -16.1311 C   0  0  0  0  0  0  0  0  0  0  0  0
   23.8563  -13.9579  -16.3117 C   0  0  0  0  0  0  0  0  0  0  0  0
   22.9896  -14.1431  -17.3554 C   0  0  0  0  0  0  0  0  0  0  0  0
   23.1394  -15.1935  -18.2398 C   0  0  0  0  0  0  0  0  0  0  0  0
   24.1996  -16.0585  -18.0379 C   0  0  0  0  0  0  0  0  0  0  0  0
   25.1151  -15.9168  -16.9904 C   0  0  0  0  0  0  0  0  0  0  0  0
   25.8928  -19.4343  -15.5906 C   0  0  0  0  0  0  0  0  0  0  0  0
   25.0620  -20.2822  -16.0618 O   0  0  0  0  0  0  0  0  0  0  0  0
   29.8342  -22.1649  -11.2518 O   0  0  0  0  0  0  0  0  0  0  0  0
   28.6026  -21.5415  -11.4483 C   0  0  0  0  0  0  0  0  0  0  0  0
   27.4412  -22.2681  -11.5069 C   0  0  0  0  0  0  0  0  0  0  0  0
   26.2054  -21.6585  -11.7027 C   0  0  0  0  0  0  0  0  0  0  0  0
   26.1026  -20.2840  -11.8468 C   0  0  0  0  0  0  0  0  0  0  0  0
   24.8321  -19.5759  -12.0617 C   0  0  0  0  0  0  0  0  0  0  0  0
   24.4094  -19.5625  -13.5483 C   0  0  2  0  0  0  0  0  0  0  0  0
   25.5586  -18.9934  -14.2528 N   0  0  0  0  0  0  0  0  0  0  0  0
   23.2286  -18.7076  -13.6956 C   0  0  0  0  0  0  0  0  0  0  0  0
   23.2403  -17.4748  -14.3113 O   0  0  0  0  0  0  0  0  0  0  0  0
   27.2810  -19.5654  -11.7850 C   0  0  0  0  0  0  0  0  0  0  0  0
   28.5145  -20.1651  -11.5904 C   0  0  0  0  0  0  0  0  0  0  0  0
   22.1270  -19.1068  -13.2359 O   0  0  0  0  0  0  0  0  0  0  0  0
  2  1  1  0
  3  4  2  0
  3  2  1  0
  5  3  1  0
  6  5  1  0
  6  7  1  6
  8 16  1  0
  8  7  1  0
  9  8  2  0
 10  9  1  0
 10 11  1  0
 11 16  2  0
 12 11  1  0
 12 13  2  0
 13 14  1  0
 14 15  2  0
 16 15  1  0
 17 26  1  0
 17  6  1  0
 18 17  2  0
 19 20  1  0
 20 21  2  0
 21 22  1  0
 23 22  2  0
 23 24  1  0
 25 24  1  1
 25 27  1  0
 25 26  1  0
 27 28  1  0
 29 23  1  0
 30 20  1  0
 30 29  2  0
 31 27  2  0
M  END
$$$$
