GWY.pdb
     RDKit          3D

 31 33  0  0  1  0  0  0  0  0999 V2000
   28.3600  -20.2914  -17.7175 N   0  0  0  0  0  0  0  0  0  0  0  0
   28.1977  -19.4351  -16.5669 C   0  0  0  0  0  0  0  0  0  0  0  0
   27.4471  -20.0747  -15.4760 C   0  0  0  0  0  0  0  0  0  0  0  0
   26.6854  -21.0291  -15.7665 O   0  0  0  0  0  0  0  0  0  0  0  0
   27.5217  -19.6924  -14.1215 N   0  0  0  0  0  0  0  0  0  0  0  0
   26.7668  -20.3299  -13.0445 C   0  0  1  0  0  0  0  0  0  0  0  0
   27.4136  -20.1203  -11.7279 C   0  0  0  0  0  0  0  0  0  0  0  0
   26.7208  -20.6838  -10.5553 C   0  0  0  0  0  0  0  0  0  0  0  0
   26.0460  -21.9002  -10.4973 C   0  0  0  0  0  0  0  0  0  0  0  0
   25.5973  -22.0788   -9.2560 N   0  0  0  0  0  0  0  0  0  0  0  0
   25.9367  -21.0406   -8.4755 C   0  0  0  0  0  0  0  0  0  0  0  0
   25.6988  -20.7571   -7.1430 C   0  0  0  0  0  0  0  0  0  0  0  0
   26.1637  -19.5867   -6.6055 C   0  0  0  0  0  0  0  0  0  0  0  0
   26.8696  -18.6743   -7.3653 C   0  0  0  0  0  0  0  0  0  0  0  0
   27.0948  -18.9814   -8.6949 C   0  0  0  0  0  0  0  0  0  0  0  0
   26.6447  -20.1613   -9.2955 C   0  0  0  0  0  0  0  0  0  0  0  0
   25.3669  -19.9355  -13.1103 C   0  0  0  0  0  0  0  0  0  0  0  0
   24.9946  -18.7195  -13.2283 O   0  0  0  0  0  0  0  0  0  0  0  0
   23.6248  -26.4174  -15.3406 O   0  0  0  0  0  0  0  0  0  0  0  0
   23.3457  -25.0625  -15.1659 C   0  0  0  0  0  0  0  0  0  0  0  0
   24.2174  -24.0972  -15.6003 C   0  0  0  0  0  0  0  0  0  0  0  0
   23.9512  -22.7414  -15.4322 C   0  0  0  0  0  0  0  0  0  0  0  0
   22.7864  -22.3141  -14.8148 C   0  0  0  0  0  0  0  0  0  0  0  0
   22.4448  -20.9003  -14.5996 C   0  0  0  0  0  0  0  0  0  0  0  0
   22.8832  -20.3938  -13.2068 C   0  0  2  0  0  0  0  0  0  0  0  0
   24.2598  -20.8671  -13.0594 N   0  0  0  0  0  0  0  0  0  0  0  0
   22.0120  -20.9913  -12.1915 C   0  0  0  0  0  0  0  0  0  0  0  0
   20.6761  -20.6866  -12.0448 O   0  0  0  0  0  0  0  0  0  0  0  0
   21.9179  -23.2980  -14.3832 C   0  0  0  0  0  0  0  0  0  0  0  0
   22.1759  -24.6492  -14.5470 C   0  0  0  0  0  0  0  0  0  0  0  0
   22.4968  -21.8358  -11.3941 O   0  0  0  0  0  0  0  0  0  0  0  0
  2  1  1  0
  3  4  2  0
  3  2  1  0
  5  3  1  0
  6  5  1  0
  6  7  1  1
  8 16  1  0
  8  7  1  0
  9  8  2  0
 10  9  1  0
 10 11  1  0
 11 16  2  0
 12 11  1  0
 12 13  2  0
 13 14  1  0
 14 15  2  0
 16 15  1  0
 17 26  1  0
 17  6  1  0
 18 17  2  0
 19 20  1  0
 20 21  2  0
 21 22  1  0
 23 22  2  0
 23 24  1  0
 25 24  1  6
 25 27  1  0
 25 26  1  0
 27 28  1  0
 29 23  1  0
 30 20  1  0
 30 29  2  0
 31 27  2  0
M  END
$$$$
