GWY.pdb
     RDKit          3D

 31 33  0  0  1  0  0  0  0  0999 V2000
   30.4783  -22.6488  -16.8174 N   0  0  0  0  0  0  0  0  0  0  0  0
   29.0562  -22.7289  -17.0509 C   0  0  0  0  0  0  0  0  0  0  0  0
   28.3081  -21.6285  -16.4248 C   0  0  0  0  0  0  0  0  0  0  0  0
   28.9252  -20.8714  -15.6364 O   0  0  0  0  0  0  0  0  0  0  0  0
   26.9424  -21.3605  -16.6471 N   0  0  0  0  0  0  0  0  0  0  0  0
   26.1969  -20.2895  -15.9889 C   0  0  1  0  0  0  0  0  0  0  0  0
   25.5537  -19.3886  -16.9740 C   0  0  0  0  0  0  0  0  0  0  0  0
   26.3713  -18.2701  -17.4774 C   0  0  0  0  0  0  0  0  0  0  0  0
   26.8549  -18.1153  -18.7737 C   0  0  0  0  0  0  0  0  0  0  0  0
   27.5068  -16.9563  -18.8487 N   0  0  0  0  0  0  0  0  0  0  0  0
   27.4863  -16.3235  -17.6649 C   0  0  0  0  0  0  0  0  0  0  0  0
   28.0209  -15.1213  -17.2392 C   0  0  0  0  0  0  0  0  0  0  0  0
   27.8508  -14.7262  -15.9393 C   0  0  0  0  0  0  0  0  0  0  0  0
   27.1538  -15.5031  -15.0346 C   0  0  0  0  0  0  0  0  0  0  0  0
   26.6285  -16.7006  -15.4850 C   0  0  0  0  0  0  0  0  0  0  0  0
   26.7705  -17.1527  -16.8006 C   0  0  0  0  0  0  0  0  0  0  0  0
   25.2984  -20.8449  -14.9870 C   0  0  0  0  0  0  0  0  0  0  0  0
   24.6398  -21.9240  -15.1692 O   0  0  0  0  0  0  0  0  0  0  0  0
   21.0173  -21.9722   -7.2138 O   0  0  0  0  0  0  0  0  0  0  0  0
   21.8248  -21.5029   -8.2492 C   0  0  0  0  0  0  0  0  0  0  0  0
   21.3303  -20.6524   -9.2044 C   0  0  0  0  0  0  0  0  0  0  0  0
   22.1253  -20.1767  -10.2431 C   0  0  0  0  0  0  0  0  0  0  0  0
   23.4561  -20.5481  -10.3508 C   0  0  0  0  0  0  0  0  0  0  0  0
   24.3502  -20.0886  -11.4237 C   0  0  0  0  0  0  0  0  0  0  0  0
   24.1415  -20.8712  -12.7401 C   0  0  2  0  0  0  0  0  0  0  0  0
   25.0641  -20.2477  -13.6893 N   0  0  0  0  0  0  0  0  0  0  0  0
   22.7518  -20.7042  -13.1732 C   0  0  0  0  0  0  0  0  0  0  0  0
   21.7646  -21.6459  -12.9792 O   0  0  0  0  0  0  0  0  0  0  0  0
   23.9400  -21.4047   -9.3809 C   0  0  0  0  0  0  0  0  0  0  0  0
   23.1549  -21.8823   -8.3442 C   0  0  0  0  0  0  0  0  0  0  0  0
   22.4212  -19.6422  -13.7621 O   0  0  0  0  0  0  0  0  0  0  0  0
  2  1  1  0
  3  4  2  0
  3  2  1  0
  5  3  1  0
  6  5  1  0
  6  7  1  6
  8 16  1  0
  8  7  1  0
  9  8  2  0
 10  9  1  0
 10 11  1  0
 11 16  2  0
 12 11  1  0
 12 13  2  0
 13 14  1  0
 14 15  2  0
 16 15  1  0
 17 26  1  0
 17  6  1  0
 18 17  2  0
 19 20  1  0
 20 21  2  0
 21 22  1  0
 23 22  2  0
 23 24  1  0
 25 24  1  1
 25 27  1  0
 25 26  1  0
 27 28  1  0
 29 23  1  0
 30 20  1  0
 30 29  2  0
 31 27  2  0
M  END
$$$$
