GWY.pdb
     RDKit          3D

 31 33  0  0  1  0  0  0  0  0999 V2000
   28.7813  -23.4732  -17.3438 N   0  0  0  0  0  0  0  0  0  0  0  0
   27.6847  -22.7770  -17.9733 C   0  0  0  0  0  0  0  0  0  0  0  0
   27.0453  -21.7922  -17.0879 C   0  0  0  0  0  0  0  0  0  0  0  0
   27.4430  -21.7241  -15.8993 O   0  0  0  0  0  0  0  0  0  0  0  0
   26.0140  -20.9148  -17.4789 N   0  0  0  0  0  0  0  0  0  0  0  0
   25.2919  -20.0345  -16.5626 C   0  0  1  0  0  0  0  0  0  0  0  0
   25.3205  -18.6266  -17.0238 C   0  0  0  0  0  0  0  0  0  0  0  0
   26.6328  -18.0917  -17.4295 C   0  0  0  0  0  0  0  0  0  0  0  0
   27.8697  -18.4347  -16.8902 C   0  0  0  0  0  0  0  0  0  0  0  0
   28.8195  -17.7768  -17.5528 N   0  0  0  0  0  0  0  0  0  0  0  0
   28.2817  -17.0066  -18.5118 C   0  0  0  0  0  0  0  0  0  0  0  0
   28.8383  -16.1447  -19.4390 C   0  0  0  0  0  0  0  0  0  0  0  0
   28.0252  -15.4635  -20.3049 C   0  0  0  0  0  0  0  0  0  0  0  0
   26.6526  -15.6156  -20.2763 C   0  0  0  0  0  0  0  0  0  0  0  0
   26.1206  -16.4836  -19.3402 C   0  0  0  0  0  0  0  0  0  0  0  0
   26.9028  -17.2053  -18.4331 C   0  0  0  0  0  0  0  0  0  0  0  0
   23.9629  -20.5665  -16.2973 C   0  0  0  0  0  0  0  0  0  0  0  0
   23.2859  -21.2067  -17.1709 O   0  0  0  0  0  0  0  0  0  0  0  0
   17.0535  -24.4590  -12.5407 O   0  0  0  0  0  0  0  0  0  0  0  0
   18.2674  -23.8223  -12.7967 C   0  0  0  0  0  0  0  0  0  0  0  0
   18.6870  -22.7626  -12.0344 C   0  0  0  0  0  0  0  0  0  0  0  0
   19.8961  -22.1181  -12.2791 C   0  0  0  0  0  0  0  0  0  0  0  0
   20.7267  -22.5271  -13.3103 C   0  0  0  0  0  0  0  0  0  0  0  0
   22.0127  -21.8891  -13.6279 C   0  0  0  0  0  0  0  0  0  0  0  0
   21.9214  -20.9610  -14.8604 C   0  0  2  0  0  0  0  0  0  0  0  0
   23.2774  -20.4379  -15.0287 N   0  0  0  0  0  0  0  0  0  0  0  0
   20.9753  -19.8808  -14.5689 C   0  0  0  0  0  0  0  0  0  0  0  0
   19.6337  -19.9250  -14.8805 O   0  0  0  0  0  0  0  0  0  0  0  0
   20.2908  -23.5961  -14.0691 C   0  0  0  0  0  0  0  0  0  0  0  0
   19.0888  -24.2426  -13.8316 C   0  0  0  0  0  0  0  0  0  0  0  0
   21.3964  -18.8397  -14.0007 O   0  0  0  0  0  0  0  0  0  0  0  0
  2  1  1  0
  3  4  2  0
  3  2  1  0
  5  3  1  0
  6  5  1  0
  6  7  1  6
  8 16  1  0
  8  7  1  0
  9  8  2  0
 10  9  1  0
 10 11  1  0
 11 16  2  0
 12 11  1  0
 12 13  2  0
 13 14  1  0
 14 15  2  0
 16 15  1  0
 17 26  1  0
 17  6  1  0
 18 17  2  0
 19 20  1  0
 20 21  2  0
 21 22  1  0
 23 22  2  0
 23 24  1  0
 25 24  1  1
 25 27  1  0
 25 26  1  0
 27 28  1  0
 29 23  1  0
 30 20  1  0
 30 29  2  0
 31 27  2  0
M  END
$$$$
