GWY.pdb
     RDKit          3D

 31 33  0  0  1  0  0  0  0  0999 V2000
   28.9018  -21.2267  -17.3751 N   0  0  0  0  0  0  0  0  0  0  0  0
   27.8482  -22.0696  -16.8623 C   0  0  0  0  0  0  0  0  0  0  0  0
   26.6074  -21.3319  -16.5818 C   0  0  0  0  0  0  0  0  0  0  0  0
   26.7025  -20.1249  -16.2508 O   0  0  0  0  0  0  0  0  0  0  0  0
   25.3130  -21.8841  -16.6585 N   0  0  0  0  0  0  0  0  0  0  0  0
   24.0811  -21.1219  -16.4651 C   0  0  1  0  0  0  0  0  0  0  0  0
   23.1802  -21.2364  -17.6360 C   0  0  0  0  0  0  0  0  0  0  0  0
   23.5200  -20.4162  -18.8127 C   0  0  0  0  0  0  0  0  0  0  0  0
   24.5827  -20.6235  -19.6879 C   0  0  0  0  0  0  0  0  0  0  0  0
   24.5272  -19.7036  -20.6495 N   0  0  0  0  0  0  0  0  0  0  0  0
   23.4787  -18.8861  -20.4634 C   0  0  0  0  0  0  0  0  0  0  0  0
   23.0107  -17.7922  -21.1682 C   0  0  0  0  0  0  0  0  0  0  0  0
   21.8993  -17.1257  -20.7260 C   0  0  0  0  0  0  0  0  0  0  0  0
   21.2279  -17.5204  -19.5853 C   0  0  0  0  0  0  0  0  0  0  0  0
   21.7154  -18.6175  -18.8986 C   0  0  0  0  0  0  0  0  0  0  0  0
   22.8444  -19.3358  -19.3048 C   0  0  0  0  0  0  0  0  0  0  0  0
   23.4733  -21.4648  -15.1873 C   0  0  0  0  0  0  0  0  0  0  0  0
   23.3045  -22.6708  -14.8020 O   0  0  0  0  0  0  0  0  0  0  0  0
   28.6008  -21.5632  -10.8990 O   0  0  0  0  0  0  0  0  0  0  0  0
   27.2833  -21.1725  -11.1355 C   0  0  0  0  0  0  0  0  0  0  0  0
   26.3230  -21.2919  -10.1640 C   0  0  0  0  0  0  0  0  0  0  0  0
   25.0044  -20.9059  -10.3868 C   0  0  0  0  0  0  0  0  0  0  0  0
   24.6108  -20.3826  -11.6082 C   0  0  0  0  0  0  0  0  0  0  0  0
   23.2359  -19.9606  -11.9134 C   0  0  0  0  0  0  0  0  0  0  0  0
   22.5336  -20.9141  -12.9066 C   0  0  2  0  0  0  0  0  0  0  0  0
   23.0092  -20.4893  -14.2235 N   0  0  0  0  0  0  0  0  0  0  0  0
   21.0843  -20.7338  -12.7895 C   0  0  0  0  0  0  0  0  0  0  0  0
   20.3131  -21.3046  -11.8004 O   0  0  0  0  0  0  0  0  0  0  0  0
   25.5894  -20.2679  -12.5766 C   0  0  0  0  0  0  0  0  0  0  0  0
   26.9036  -20.6499  -12.3623 C   0  0  0  0  0  0  0  0  0  0  0  0
   20.4895  -20.0181  -13.6369 O   0  0  0  0  0  0  0  0  0  0  0  0
  2  1  1  0
  3  4  2  0
  3  2  1  0
  5  3  1  0
  6  5  1  0
  6  7  1  6
  8 16  1  0
  8  7  1  0
  9  8  2  0
 10  9  1  0
 10 11  1  0
 11 16  2  0
 12 11  1  0
 12 13  2  0
 13 14  1  0
 14 15  2  0
 16 15  1  0
 17 26  1  0
 17  6  1  0
 18 17  2  0
 19 20  1  0
 20 21  2  0
 21 22  1  0
 23 22  2  0
 23 24  1  0
 25 24  1  1
 25 27  1  0
 25 26  1  0
 27 28  1  0
 29 23  1  0
 30 20  1  0
 30 29  2  0
 31 27  2  0
M  END
$$$$
