DCV.pdb
     RDKit          3D

 22 21  0  0  1  0  0  0  0  0999 V2000
   27.4894  -11.3635  -18.8322 N   0  0  0  0  0  0  0  0  0  0  0  0
   27.5544  -10.3091  -19.8114 C   0  0  1  0  0  0  0  0  0  0  0  0
   26.1827  -10.0148  -20.4106 C   0  0  0  0  0  0  0  0  0  0  0  0
   25.7211  -11.1688  -21.2260 C   0  0  0  0  0  0  0  0  0  0  0  0
   26.5675  -11.9597  -21.6810 O   0  0  0  0  0  0  0  0  0  0  0  0
   28.0818   -9.0542  -19.2603 C   0  0  0  0  0  0  0  0  0  0  0  0
   27.3352   -8.3844  -18.5001 O   0  0  0  0  0  0  0  0  0  0  0  0
   24.3691  -11.3344  -21.4578 O   0  0  0  0  0  0  0  0  0  0  0  0
   29.3809   -8.5404  -19.5255 N   0  0  0  0  0  0  0  0  0  0  0  0
   29.8569   -7.3289  -18.8992 C   0  0  1  0  0  0  0  0  0  0  0  0
   30.9702   -7.6273  -17.9084 C   0  0  0  0  0  0  0  0  0  0  0  0
   30.3449   -8.5628  -16.4903 S   0  0  0  0  0  0  0  0  0  0  0  0
   30.3059   -6.3277  -19.9056 C   0  0  0  0  0  0  0  0  0  0  0  0
   31.0334   -6.6475  -20.8764 O   0  0  0  0  0  0  0  0  0  0  0  0
   28.5472   -4.6436  -22.3935 C   0  0  0  0  0  0  0  0  0  0  0  0
   29.0656   -3.5494  -21.5044 C   0  0  1  0  0  0  0  0  0  0  0  0
   27.9971   -2.9954  -20.5949 C   0  0  0  0  0  0  0  0  0  0  0  0
   30.3050   -3.9544  -20.7540 C   0  0  2  0  0  0  0  0  0  0  0  0
   29.9062   -4.9715  -19.7731 N   0  0  0  0  0  0  0  0  0  0  0  0
   30.9551   -2.8035  -20.0770 C   0  0  0  0  0  0  0  0  0  0  0  0
   30.5663   -2.4969  -18.9213 O   0  0  0  0  0  0  0  0  0  0  0  0
   31.9604   -2.0495  -20.6388 O   0  0  0  0  0  0  0  0  0  0  0  0
  2  1  1  1
  2  3  1  0
  4  3  1  0
  4  8  1  0
  5  4  2  0
  6  2  1  0
  6  9  1  0
  7  6  2  0
 10  9  1  0
 10 13  1  0
 10 11  1  1
 11 12  1  0
 13 19  1  0
 14 13  2  0
 16 15  1  1
 16 17  1  0
 18 20  1  0
 18 16  1  0
 18 19  1  1
 20 22  1  0
 21 20  2  0
M  END
$$$$
