DCV.pdb
     RDKit          3D

 22 21  0  0  1  0  0  0  0  0999 V2000
   15.6020  -14.1903  -15.5931 N   0  0  0  0  0  0  0  0  0  0  0  0
   15.1288  -12.8301  -15.6157 C   0  0  1  0  0  0  0  0  0  0  0  0
   14.0572  -12.5914  -14.5565 C   0  0  0  0  0  0  0  0  0  0  0  0
   12.8688  -13.4418  -14.8286 C   0  0  0  0  0  0  0  0  0  0  0  0
   12.3365  -13.3885  -15.9523 O   0  0  0  0  0  0  0  0  0  0  0  0
   16.2020  -11.8519  -15.3966 C   0  0  0  0  0  0  0  0  0  0  0  0
   16.7837  -11.8551  -14.2805 O   0  0  0  0  0  0  0  0  0  0  0  0
   12.3863  -14.2674  -13.8312 O   0  0  0  0  0  0  0  0  0  0  0  0
   16.6321  -10.8980  -16.3594 N   0  0  0  0  0  0  0  0  0  0  0  0
   17.7187   -9.9861  -16.0868 C   0  0  1  0  0  0  0  0  0  0  0  0
   18.9829  -10.4089  -16.8169 C   0  0  0  0  0  0  0  0  0  0  0  0
   19.6765  -11.9175  -16.0956 S   0  0  0  0  0  0  0  0  0  0  0  0
   17.3600   -8.5826  -16.4306 C   0  0  0  0  0  0  0  0  0  0  0  0
   16.7079   -8.3019  -17.4650 O   0  0  0  0  0  0  0  0  0  0  0  0
   14.9495   -6.7704  -15.6045 C   0  0  0  0  0  0  0  0  0  0  0  0
   16.0656   -5.9069  -15.0899 C   0  0  1  0  0  0  0  0  0  0  0  0
   16.2276   -6.0110  -13.5936 C   0  0  0  0  0  0  0  0  0  0  0  0
   17.3582   -6.1360  -15.8247 C   0  0  2  0  0  0  0  0  0  0  0  0
   17.7613   -7.5251  -15.5719 N   0  0  0  0  0  0  0  0  0  0  0  0
   18.4252   -5.1969  -15.3944 C   0  0  0  0  0  0  0  0  0  0  0  0
   19.2112   -5.5665  -14.4854 O   0  0  0  0  0  0  0  0  0  0  0  0
   18.6070   -3.9426  -15.9315 O   0  0  0  0  0  0  0  0  0  0  0  0
  2  1  1  1
  2  3  1  0
  4  3  1  0
  4  8  1  0
  5  4  2  0
  6  2  1  0
  6  9  1  0
  7  6  2  0
 10  9  1  0
 10 13  1  0
 10 11  1  6
 11 12  1  0
 13 19  1  0
 14 13  2  0
 16 15  1  6
 16 17  1  0
 18 20  1  0
 18 16  1  0
 18 19  1  1
 20 22  1  0
 21 20  2  0
M  END
$$$$
