DCV.pdb
     RDKit          3D

 22 21  0  0  1  0  0  0  0  0999 V2000
   18.6407  -11.9520  -16.6353 N   0  0  0  0  0  0  0  0  0  0  0  0
   19.4504  -10.9028  -17.1993 C   0  0  1  0  0  0  0  0  0  0  0  0
   18.6170   -9.9429  -18.0427 C   0  0  0  0  0  0  0  0  0  0  0  0
   18.1473  -10.6220  -19.2787 C   0  0  0  0  0  0  0  0  0  0  0  0
   16.9998  -10.3824  -19.6968 O   0  0  0  0  0  0  0  0  0  0  0  0
   20.1477  -10.1121  -16.1769 C   0  0  0  0  0  0  0  0  0  0  0  0
   19.4916   -9.7426  -15.1685 O   0  0  0  0  0  0  0  0  0  0  0  0
   18.9929  -11.4991  -19.9305 O   0  0  0  0  0  0  0  0  0  0  0  0
   21.5165   -9.7330  -16.2457 N   0  0  0  0  0  0  0  0  0  0  0  0
   22.1442   -8.9727  -15.1900 C   0  0  1  0  0  0  0  0  0  0  0  0
   23.5861   -9.4081  -14.9865 C   0  0  0  0  0  0  0  0  0  0  0  0
   23.6701  -11.0963  -14.3383 S   0  0  0  0  0  0  0  0  0  0  0  0
   22.0707   -7.5080  -15.4469 C   0  0  0  0  0  0  0  0  0  0  0  0
   22.4173   -7.0119  -16.5459 O   0  0  0  0  0  0  0  0  0  0  0  0
   19.7106   -3.3972  -14.4924 C   0  0  0  0  0  0  0  0  0  0  0  0
   19.9821   -4.8740  -14.4538 C   0  0  1  0  0  0  0  0  0  0  0  0
   19.0814   -5.6469  -15.3851 C   0  0  0  0  0  0  0  0  0  0  0  0
   21.4364   -5.1989  -14.6607 C   0  0  2  0  0  0  0  0  0  0  0  0
   21.5972   -6.6396  -14.4279 N   0  0  0  0  0  0  0  0  0  0  0  0
   22.3215   -4.4224  -13.7557 C   0  0  0  0  0  0  0  0  0  0  0  0
   22.5468   -4.8814  -12.6070 O   0  0  0  0  0  0  0  0  0  0  0  0
   22.9124   -3.2273  -14.0982 O   0  0  0  0  0  0  0  0  0  0  0  0
  2  1  1  1
  2  3  1  0
  4  3  1  0
  4  8  1  0
  5  4  2  0
  6  2  1  0
  6  9  1  0
  7  6  2  0
 10  9  1  0
 10 13  1  0
 10 11  1  6
 11 12  1  0
 13 19  1  0
 14 13  2  0
 16 15  1  6
 16 17  1  0
 18 20  1  0
 18 16  1  0
 18 19  1  1
 20 22  1  0
 21 20  2  0
M  END
$$$$
