DCV.pdb
     RDKit          3D

 22 21  0  0  1  0  0  0  0  0999 V2000
   17.8247  -14.4079  -18.4574 N   0  0  0  0  0  0  0  0  0  0  0  0
   17.3614  -13.1637  -17.8987 C   0  0  1  0  0  0  0  0  0  0  0  0
   16.9052  -13.3334  -16.4529 C   0  0  0  0  0  0  0  0  0  0  0  0
   15.7172  -14.2247  -16.3913 C   0  0  0  0  0  0  0  0  0  0  0  0
   15.6864  -15.1264  -15.5341 O   0  0  0  0  0  0  0  0  0  0  0  0
   18.3868  -12.1127  -17.9253 C   0  0  0  0  0  0  0  0  0  0  0  0
   19.5693  -12.4355  -17.6396 O   0  0  0  0  0  0  0  0  0  0  0  0
   14.6804  -14.0308  -17.2839 O   0  0  0  0  0  0  0  0  0  0  0  0
   18.1375  -10.7514  -18.2519 N   0  0  0  0  0  0  0  0  0  0  0  0
   19.2077   -9.7842  -18.3280 C   0  0  1  0  0  0  0  0  0  0  0  0
   18.8178   -8.6060  -19.2055 C   0  0  0  0  0  0  0  0  0  0  0  0
   20.1103   -7.3385  -19.2040 S   0  0  0  0  0  0  0  0  0  0  0  0
   19.6246   -9.3160  -16.9776 C   0  0  0  0  0  0  0  0  0  0  0  0
   18.7872   -9.0666  -16.0772 O   0  0  0  0  0  0  0  0  0  0  0  0
   23.2622   -9.5023  -13.7105 C   0  0  0  0  0  0  0  0  0  0  0  0
   22.6329   -9.7632  -15.0492 C   0  0  1  0  0  0  0  0  0  0  0  0
   22.2777  -11.2166  -15.2421 C   0  0  0  0  0  0  0  0  0  0  0  0
   21.4736   -8.8465  -15.3303 C   0  0  2  0  0  0  0  0  0  0  0  0
   21.0044   -9.1435  -16.6895 N   0  0  0  0  0  0  0  0  0  0  0  0
   21.8454   -7.4140  -15.2083 C   0  0  0  0  0  0  0  0  0  0  0  0
   22.3482   -6.8431  -16.2094 O   0  0  0  0  0  0  0  0  0  0  0  0
   21.6729   -6.6703  -14.0629 O   0  0  0  0  0  0  0  0  0  0  0  0
  2  1  1  1
  2  3  1  0
  4  3  1  0
  4  8  1  0
  5  4  2  0
  6  2  1  0
  6  9  1  0
  7  6  2  0
 10  9  1  0
 10 13  1  0
 10 11  1  6
 11 12  1  0
 13 19  1  0
 14 13  2  0
 16 15  1  1
 16 17  1  0
 18 20  1  0
 18 16  1  0
 18 19  1  6
 20 22  1  0
 21 20  2  0
M  END
$$$$
