DCV.pdb
     RDKit          3D

 22 21  0  0  1  0  0  0  0  0999 V2000
   22.0982  -13.2983  -18.2592 N   0  0  0  0  0  0  0  0  0  0  0  0
   21.5445  -12.0527  -18.7245 C   0  0  1  0  0  0  0  0  0  0  0  0
   20.2702  -12.2728  -19.5338 C   0  0  0  0  0  0  0  0  0  0  0  0
   20.5743  -13.0393  -20.7706 C   0  0  0  0  0  0  0  0  0  0  0  0
   21.4182  -12.5869  -21.5655 O   0  0  0  0  0  0  0  0  0  0  0  0
   21.2261  -11.1284  -17.6286 C   0  0  0  0  0  0  0  0  0  0  0  0
   20.3549  -11.4833  -16.7925 O   0  0  0  0  0  0  0  0  0  0  0  0
   19.9150  -14.2305  -21.0062 O   0  0  0  0  0  0  0  0  0  0  0  0
   21.8344   -9.8564  -17.4445 N   0  0  0  0  0  0  0  0  0  0  0  0
   21.5164   -9.0240  -16.3075 C   0  0  1  0  0  0  0  0  0  0  0  0
   22.1736   -9.5522  -15.0430 C   0  0  0  0  0  0  0  0  0  0  0  0
   23.9701   -9.6579  -15.2394 S   0  0  0  0  0  0  0  0  0  0  0  0
   21.8962   -7.6035  -16.5409 C   0  0  0  0  0  0  0  0  0  0  0  0
   22.9326   -7.2926  -17.1760 O   0  0  0  0  0  0  0  0  0  0  0  0
   20.9092   -5.6023  -18.7789 C   0  0  0  0  0  0  0  0  0  0  0  0
   20.5051   -4.8136  -17.5661 C   0  0  1  0  0  0  0  0  0  0  0  0
   19.0232   -4.8970  -17.2958 C   0  0  0  0  0  0  0  0  0  0  0  0
   21.3297   -5.1545  -16.3550 C   0  0  2  0  0  0  0  0  0  0  0  0
   21.0708   -6.5641  -16.0358 N   0  0  0  0  0  0  0  0  0  0  0  0
   21.0077   -4.2889  -15.1920 C   0  0  0  0  0  0  0  0  0  0  0  0
   20.1421   -4.6909  -14.3734 O   0  0  0  0  0  0  0  0  0  0  0  0
   21.6005   -3.0695  -14.9545 O   0  0  0  0  0  0  0  0  0  0  0  0
  2  1  1  1
  2  3  1  0
  4  3  1  0
  4  8  1  0
  5  4  2  0
  6  2  1  0
  6  9  1  0
  7  6  2  0
 10  9  1  0
 10 13  1  0
 10 11  1  1
 11 12  1  0
 13 19  1  0
 14 13  2  0
 16 15  1  6
 16 17  1  0
 18 20  1  0
 18 16  1  0
 18 19  1  1
 20 22  1  0
 21 20  2  0
M  END
$$$$
