DCV.pdb
     RDKit          3D

 22 21  0  0  1  0  0  0  0  0999 V2000
   18.4041  -12.5372  -16.4348 N   0  0  0  0  0  0  0  0  0  0  0  0
   18.1391  -11.1406  -16.6672 C   0  0  1  0  0  0  0  0  0  0  0  0
   16.8644  -10.6867  -15.9628 C   0  0  0  0  0  0  0  0  0  0  0  0
   15.6832  -11.3751  -16.5465 C   0  0  0  0  0  0  0  0  0  0  0  0
   15.4846  -11.2923  -17.7722 O   0  0  0  0  0  0  0  0  0  0  0  0
   19.2344  -10.2723  -16.2165 C   0  0  0  0  0  0  0  0  0  0  0  0
   19.6547  -10.4167  -15.0390 O   0  0  0  0  0  0  0  0  0  0  0  0
   14.8383  -12.0872  -15.7169 O   0  0  0  0  0  0  0  0  0  0  0  0
   19.8558   -9.2763  -17.0189 N   0  0  0  0  0  0  0  0  0  0  0  0
   20.9896   -8.5196  -16.5410 C   0  0  1  0  0  0  0  0  0  0  0  0
   21.9252   -8.1576  -17.6827 C   0  0  0  0  0  0  0  0  0  0  0  0
   22.6093   -9.6433  -18.4586 S   0  0  0  0  0  0  0  0  0  0  0  0
   20.5656   -7.2975  -15.8038 C   0  0  0  0  0  0  0  0  0  0  0  0
   19.5500   -6.6423  -16.1402 O   0  0  0  0  0  0  0  0  0  0  0  0
   19.1487   -7.1858  -12.7924 C   0  0  0  0  0  0  0  0  0  0  0  0
   20.3452   -6.3042  -12.5745 C   0  0  1  0  0  0  0  0  0  0  0  0
   21.4177   -6.9846  -11.7604 C   0  0  0  0  0  0  0  0  0  0  0  0
   20.8777   -5.7268  -13.8575 C   0  0  2  0  0  0  0  0  0  0  0  0
   21.3235   -6.8522  -14.6884 N   0  0  0  0  0  0  0  0  0  0  0  0
   21.9940   -4.7749  -13.6265 C   0  0  0  0  0  0  0  0  0  0  0  0
   23.1715   -5.2006  -13.7409 O   0  0  0  0  0  0  0  0  0  0  0  0
   21.8180   -3.4508  -13.2939 O   0  0  0  0  0  0  0  0  0  0  0  0
  2  1  1  1
  2  3  1  0
  4  3  1  0
  4  8  1  0
  5  4  2  0
  6  2  1  0
  6  9  1  0
  7  6  2  0
 10  9  1  0
 10 13  1  0
 10 11  1  6
 11 12  1  0
 13 19  1  0
 14 13  2  0
 16 15  1  6
 16 17  1  0
 18 20  1  0
 18 16  1  0
 18 19  1  6
 20 22  1  0
 21 20  2  0
M  END
$$$$
