DCV.pdb
     RDKit          3D

 22 21  0  0  1  0  0  0  0  0999 V2000
   19.7753  -13.4495  -16.6690 N   0  0  0  0  0  0  0  0  0  0  0  0
   19.8570  -12.1239  -17.2263 C   0  0  1  0  0  0  0  0  0  0  0  0
   18.4730  -11.5500  -17.5138 C   0  0  0  0  0  0  0  0  0  0  0  0
   17.7758  -12.3787  -18.5320 C   0  0  0  0  0  0  0  0  0  0  0  0
   16.7545  -13.0069  -18.1985 O   0  0  0  0  0  0  0  0  0  0  0  0
   20.5600  -11.1807  -16.3471 C   0  0  0  0  0  0  0  0  0  0  0  0
   20.0907  -10.9866  -15.1956 O   0  0  0  0  0  0  0  0  0  0  0  0
   18.2768  -12.4309  -19.8187 O   0  0  0  0  0  0  0  0  0  0  0  0
   21.7375  -10.4688  -16.7059 N   0  0  0  0  0  0  0  0  0  0  0  0
   22.4126   -9.6028  -15.7673 C   0  0  1  0  0  0  0  0  0  0  0  0
   23.9125   -9.8481  -15.7792 C   0  0  0  0  0  0  0  0  0  0  0  0
   24.3367  -11.3283  -14.8271 S   0  0  0  0  0  0  0  0  0  0  0  0
   22.1146   -8.1677  -16.0287 C   0  0  0  0  0  0  0  0  0  0  0  0
   21.7310   -7.7670  -17.1540 O   0  0  0  0  0  0  0  0  0  0  0  0
   19.6172   -6.4331  -14.3945 C   0  0  0  0  0  0  0  0  0  0  0  0
   20.4329   -5.7529  -15.4566 C   0  0  1  0  0  0  0  0  0  0  0  0
   19.9511   -4.3517  -15.7398 C   0  0  0  0  0  0  0  0  0  0  0  0
   21.9093   -5.8060  -15.1726 C   0  0  2  0  0  0  0  0  0  0  0  0
   22.2650   -7.2179  -14.9837 N   0  0  0  0  0  0  0  0  0  0  0  0
   22.2819   -5.0097  -13.9758 C   0  0  0  0  0  0  0  0  0  0  0  0
   22.3018   -5.5882  -12.8596 O   0  0  0  0  0  0  0  0  0  0  0  0
   22.6080   -3.6729  -14.0134 O   0  0  0  0  0  0  0  0  0  0  0  0
  2  1  1  1
  2  3  1  0
  4  3  1  0
  4  8  1  0
  5  4  2  0
  6  2  1  0
  6  9  1  0
  7  6  2  0
 10  9  1  0
 10 13  1  0
 10 11  1  6
 11 12  1  0
 13 19  1  0
 14 13  2  0
 16 15  1  1
 16 17  1  0
 18 20  1  0
 18 16  1  0
 18 19  1  1
 20 22  1  0
 21 20  2  0
M  END
$$$$
