DCV.pdb
     RDKit          3D

 22 21  0  0  1  0  0  0  0  0999 V2000
   20.2494  -12.8687  -17.1943 N   0  0  0  0  0  0  0  0  0  0  0  0
   19.5446  -11.6125  -17.2039 C   0  0  1  0  0  0  0  0  0  0  0  0
   18.0329  -11.8175  -17.2088 C   0  0  0  0  0  0  0  0  0  0  0  0
   17.5913  -12.3448  -18.5265 C   0  0  0  0  0  0  0  0  0  0  0  0
   18.2480  -12.0508  -19.5419 O   0  0  0  0  0  0  0  0  0  0  0  0
   19.8788  -10.7652  -16.0519 C   0  0  0  0  0  0  0  0  0  0  0  0
   19.4040  -11.0815  -14.9301 O   0  0  0  0  0  0  0  0  0  0  0  0
   16.4669  -13.1453  -18.5913 O   0  0  0  0  0  0  0  0  0  0  0  0
   20.7037   -9.6086  -16.1143 N   0  0  0  0  0  0  0  0  0  0  0  0
   21.0449   -8.8587  -14.9278 C   0  0  1  0  0  0  0  0  0  0  0  0
   21.8801   -9.6965  -13.9736 C   0  0  0  0  0  0  0  0  0  0  0  0
   23.4311  -10.2145  -14.7505 S   0  0  0  0  0  0  0  0  0  0  0  0
   21.7467   -7.5887  -15.2612 C   0  0  0  0  0  0  0  0  0  0  0  0
   22.3721   -7.4428  -16.3389 O   0  0  0  0  0  0  0  0  0  0  0  0
   19.7933   -4.8375  -15.5976 C   0  0  0  0  0  0  0  0  0  0  0  0
   21.2609   -4.7526  -15.9055 C   0  0  1  0  0  0  0  0  0  0  0  0
   21.6504   -3.4107  -16.4744 C   0  0  0  0  0  0  0  0  0  0  0  0
   22.1198   -5.1518  -14.7367 C   0  0  2  0  0  0  0  0  0  0  0  0
   21.7141   -6.5066  -14.3421 N   0  0  0  0  0  0  0  0  0  0  0  0
   21.9866   -4.2137  -13.5932 C   0  0  0  0  0  0  0  0  0  0  0  0
   21.1268   -4.4690  -12.7120 O   0  0  0  0  0  0  0  0  0  0  0  0
   22.7491   -3.0782  -13.4382 O   0  0  0  0  0  0  0  0  0  0  0  0
  2  1  1  1
  2  3  1  0
  4  3  1  0
  4  8  1  0
  5  4  2  0
  6  2  1  0
  6  9  1  0
  7  6  2  0
 10  9  1  0
 10 13  1  0
 10 11  1  1
 11 12  1  0
 13 19  1  0
 14 13  2  0
 16 15  1  1
 16 17  1  0
 18 20  1  0
 18 16  1  0
 18 19  1  1
 20 22  1  0
 21 20  2  0
M  END
$$$$
