DCV.pdb
     RDKit          3D

 22 21  0  0  1  0  0  0  0  0999 V2000
   19.0688  -15.7579  -16.9956 N   0  0  0  0  0  0  0  0  0  0  0  0
   18.8407  -14.4225  -17.4847 C   0  0  1  0  0  0  0  0  0  0  0  0
   17.4244  -13.9466  -17.1766 C   0  0  0  0  0  0  0  0  0  0  0  0
   16.4383  -14.7210  -17.9750 C   0  0  0  0  0  0  0  0  0  0  0  0
   16.4891  -14.6585  -19.2169 O   0  0  0  0  0  0  0  0  0  0  0  0
   19.7765  -13.4428  -16.9181 C   0  0  0  0  0  0  0  0  0  0  0  0
   19.9101  -13.4104  -15.6670 O   0  0  0  0  0  0  0  0  0  0  0  0
   15.4932  -15.4880  -17.3212 O   0  0  0  0  0  0  0  0  0  0  0  0
   20.5452  -12.5250  -17.6853 N   0  0  0  0  0  0  0  0  0  0  0  0
   21.4021  -11.5464  -17.0570 C   0  0  1  0  0  0  0  0  0  0  0  0
   22.7073  -11.3928  -17.8205 C   0  0  0  0  0  0  0  0  0  0  0  0
   23.7108  -10.0537  -17.1298 S   0  0  0  0  0  0  0  0  0  0  0  0
   20.7219  -10.2299  -16.9123 C   0  0  0  0  0  0  0  0  0  0  0  0
   20.1746   -9.6587  -17.8860 O   0  0  0  0  0  0  0  0  0  0  0  0
   18.8849   -9.1681  -13.5052 C   0  0  0  0  0  0  0  0  0  0  0  0
   18.7889   -8.4061  -14.7960 C   0  0  1  0  0  0  0  0  0  0  0  0
   18.0675   -7.0913  -14.6331 C   0  0  0  0  0  0  0  0  0  0  0  0
   20.1228   -8.2489  -15.4738 C   0  0  2  0  0  0  0  0  0  0  0  0
   20.6855   -9.5945  -15.6428 N   0  0  0  0  0  0  0  0  0  0  0  0
   21.0517   -7.3890  -14.6972 C   0  0  0  0  0  0  0  0  0  0  0  0
   21.8556   -7.9451  -13.9065 O   0  0  0  0  0  0  0  0  0  0  0  0
   21.0866   -6.0161  -14.7902 O   0  0  0  0  0  0  0  0  0  0  0  0
  2  1  1  1
  2  3  1  0
  4  3  1  0
  4  8  1  0
  5  4  2  0
  6  2  1  0
  6  9  1  0
  7  6  2  0
 10  9  1  0
 10 13  1  0
 10 11  1  6
 11 12  1  0
 13 19  1  0
 14 13  2  0
 16 15  1  1
 16 17  1  0
 18 20  1  0
 18 16  1  0
 18 19  1  1
 20 22  1  0
 21 20  2  0
M  END
$$$$
