DCV.pdb
     RDKit          3D

 22 21  0  0  1  0  0  0  0  0999 V2000
   22.0400  -11.3115  -17.9225 N   0  0  0  0  0  0  0  0  0  0  0  0
   20.6556  -11.3366  -17.5255 C   0  0  1  0  0  0  0  0  0  0  0  0
   20.2680  -12.6853  -16.9272 C   0  0  0  0  0  0  0  0  0  0  0  0
   20.2087  -13.7207  -17.9921 C   0  0  0  0  0  0  0  0  0  0  0  0
   20.6922  -13.4618  -19.1093 O   0  0  0  0  0  0  0  0  0  0  0  0
   20.3286  -10.2980  -16.5402 C   0  0  0  0  0  0  0  0  0  0  0  0
   19.2497  -10.4097  -15.9019 O   0  0  0  0  0  0  0  0  0  0  0  0
   19.6207  -14.9403  -17.7165 O   0  0  0  0  0  0  0  0  0  0  0  0
   21.1475   -9.1710  -16.2551 N   0  0  0  0  0  0  0  0  0  0  0  0
   20.8557   -8.2842  -15.1527 C   0  0  1  0  0  0  0  0  0  0  0  0
   21.0129   -8.9987  -13.8205 C   0  0  0  0  0  0  0  0  0  0  0  0
   22.7144   -9.5707  -13.5864 S   0  0  0  0  0  0  0  0  0  0  0  0
   21.7003   -7.0587  -15.1926 C   0  0  0  0  0  0  0  0  0  0  0  0
   22.8643   -7.0736  -15.6605 O   0  0  0  0  0  0  0  0  0  0  0  0
   21.2756   -4.2029  -17.1538 C   0  0  0  0  0  0  0  0  0  0  0  0
   21.2311   -3.6864  -15.7440 C   0  0  1  0  0  0  0  0  0  0  0  0
   19.8270   -3.3661  -15.2950 C   0  0  0  0  0  0  0  0  0  0  0  0
   21.9521   -4.5855  -14.7771 C   0  0  2  0  0  0  0  0  0  0  0  0
   21.1850   -5.8344  -14.6904 N   0  0  0  0  0  0  0  0  0  0  0  0
   22.0969   -3.9682  -13.4342 C   0  0  0  0  0  0  0  0  0  0  0  0
   21.2538   -4.2646  -12.5498 O   0  0  0  0  0  0  0  0  0  0  0  0
   23.1007   -3.0886  -13.0972 O   0  0  0  0  0  0  0  0  0  0  0  0
  2  1  1  1
  2  3  1  0
  4  3  1  0
  4  8  1  0
  5  4  2  0
  6  2  1  0
  6  9  1  0
  7  6  2  0
 10  9  1  0
 10 13  1  0
 10 11  1  1
 11 12  1  0
 13 19  1  0
 14 13  2  0
 16 15  1  6
 16 17  1  0
 18 20  1  0
 18 16  1  0
 18 19  1  1
 20 22  1  0
 21 20  2  0
M  END
$$$$
