DCV.pdb
     RDKit          3D

 22 21  0  0  1  0  0  0  0  0999 V2000
   18.1303  -12.9695  -15.6062 N   0  0  0  0  0  0  0  0  0  0  0  0
   18.9022  -12.0890  -16.4449 C   0  0  1  0  0  0  0  0  0  0  0  0
   18.5491  -12.2655  -17.9185 C   0  0  0  0  0  0  0  0  0  0  0  0
   18.8702  -13.6479  -18.3606 C   0  0  0  0  0  0  0  0  0  0  0  0
   20.0482  -14.0429  -18.2898 O   0  0  0  0  0  0  0  0  0  0  0  0
   18.7149  -10.6726  -16.1052 C   0  0  0  0  0  0  0  0  0  0  0  0
   17.5766  -10.1680  -16.2887 O   0  0  0  0  0  0  0  0  0  0  0  0
   17.8568  -14.4571  -18.8375 O   0  0  0  0  0  0  0  0  0  0  0  0
   19.7319   -9.8278  -15.5819 N   0  0  0  0  0  0  0  0  0  0  0  0
   19.4603   -8.4584  -15.2109 C   0  0  1  0  0  0  0  0  0  0  0  0
   18.3396   -8.3819  -14.1871 C   0  0  0  0  0  0  0  0  0  0  0  0
   18.8062   -9.2144  -12.6488 S   0  0  0  0  0  0  0  0  0  0  0  0
   20.6805   -7.7723  -14.7038 C   0  0  0  0  0  0  0  0  0  0  0  0
   21.5367   -8.3733  -14.0112 O   0  0  0  0  0  0  0  0  0  0  0  0
   23.9520   -4.3255  -15.6557 C   0  0  0  0  0  0  0  0  0  0  0  0
   22.7181   -5.1445  -15.9066 C   0  0  1  0  0  0  0  0  0  0  0  0
   22.9332   -6.1942  -16.9686 C   0  0  0  0  0  0  0  0  0  0  0  0
   22.1388   -5.7174  -14.6420 C   0  0  2  0  0  0  0  0  0  0  0  0
   20.8913   -6.4008  -15.0061 N   0  0  0  0  0  0  0  0  0  0  0  0
   21.8819   -4.6742  -13.6167 C   0  0  0  0  0  0  0  0  0  0  0  0
   20.8210   -4.0049  -13.7027 O   0  0  0  0  0  0  0  0  0  0  0  0
   22.7366   -4.3942  -12.5747 O   0  0  0  0  0  0  0  0  0  0  0  0
  2  1  1  1
  2  3  1  0
  4  3  1  0
  4  8  1  0
  5  4  2  0
  6  2  1  0
  6  9  1  0
  7  6  2  0
 10  9  1  0
 10 13  1  0
 10 11  1  1
 11 12  1  0
 13 19  1  0
 14 13  2  0
 16 15  1  1
 16 17  1  0
 18 20  1  0
 18 16  1  0
 18 19  1  6
 20 22  1  0
 21 20  2  0
M  END
$$$$
