DCV.pdb
     RDKit          3D

 22 21  0  0  1  0  0  0  0  0999 V2000
   19.7420  -13.0240  -17.7960 N   0  0  0  0  0  0  0  0  0  0  0  0
   19.1342  -11.7889  -17.3719 C   0  0  1  0  0  0  0  0  0  0  0  0
   18.4303  -11.9429  -16.0272 C   0  0  0  0  0  0  0  0  0  0  0  0
   17.3123  -12.9157  -16.1421 C   0  0  0  0  0  0  0  0  0  0  0  0
   16.4965  -12.7861  -17.0730 O   0  0  0  0  0  0  0  0  0  0  0  0
   20.1032  -10.6924  -17.2482 C   0  0  0  0  0  0  0  0  0  0  0  0
   21.2678  -10.8829  -17.6857 O   0  0  0  0  0  0  0  0  0  0  0  0
   17.2067  -13.9359  -15.2162 O   0  0  0  0  0  0  0  0  0  0  0  0
   19.8180   -9.4264  -16.6671 N   0  0  0  0  0  0  0  0  0  0  0  0
   20.7577   -8.3318  -16.7413 C   0  0  1  0  0  0  0  0  0  0  0  0
   20.9703   -7.8910  -18.1802 C   0  0  0  0  0  0  0  0  0  0  0  0
   19.4017   -7.4297  -18.9573 S   0  0  0  0  0  0  0  0  0  0  0  0
   20.3311   -7.1809  -15.8986 C   0  0  0  0  0  0  0  0  0  0  0  0
   19.1222   -6.9586  -15.6472 O   0  0  0  0  0  0  0  0  0  0  0  0
   21.1648   -6.4956  -11.6113 C   0  0  0  0  0  0  0  0  0  0  0  0
   21.2544   -6.9229  -13.0485 C   0  0  1  0  0  0  0  0  0  0  0  0
   20.2575   -8.0030  -13.3884 C   0  0  0  0  0  0  0  0  0  0  0  0
   21.1887   -5.7605  -14.0012 C   0  0  2  0  0  0  0  0  0  0  0  0
   21.3100   -6.3046  -15.3595 N   0  0  0  0  0  0  0  0  0  0  0  0
   22.2549   -4.7595  -13.7433 C   0  0  0  0  0  0  0  0  0  0  0  0
   23.4113   -4.9982  -14.1751 O   0  0  0  0  0  0  0  0  0  0  0  0
   22.0542   -3.5825  -13.0582 O   0  0  0  0  0  0  0  0  0  0  0  0
  2  1  1  1
  2  3  1  0
  4  3  1  0
  4  8  1  0
  5  4  2  0
  6  2  1  0
  6  9  1  0
  7  6  2  0
 10  9  1  0
 10 13  1  0
 10 11  1  6
 11 12  1  0
 13 19  1  0
 14 13  2  0
 16 15  1  1
 16 17  1  0
 18 20  1  0
 18 16  1  0
 18 19  1  6
 20 22  1  0
 21 20  2  0
M  END
$$$$
