DCV.pdb
     RDKit          3D

 22 21  0  0  1  0  0  0  0  0999 V2000
   15.0420  -10.3228  -14.7275 N   0  0  0  0  0  0  0  0  0  0  0  0
   16.0904  -10.7563  -15.6149 C   0  0  1  0  0  0  0  0  0  0  0  0
   15.5267  -11.4299  -16.8623 C   0  0  0  0  0  0  0  0  0  0  0  0
   14.9154  -12.7375  -16.5069 C   0  0  0  0  0  0  0  0  0  0  0  0
   13.8886  -12.7493  -15.8040 O   0  0  0  0  0  0  0  0  0  0  0  0
   16.9558   -9.6535  -16.0528 C   0  0  0  0  0  0  0  0  0  0  0  0
   16.9930   -9.3859  -17.2820 O   0  0  0  0  0  0  0  0  0  0  0  0
   15.5001  -13.9029  -16.9641 O   0  0  0  0  0  0  0  0  0  0  0  0
   17.7574   -8.8639  -15.1834 N   0  0  0  0  0  0  0  0  0  0  0  0
   18.5406   -7.7548  -15.6766 C   0  0  1  0  0  0  0  0  0  0  0  0
   17.6506   -6.6923  -16.3002 C   0  0  0  0  0  0  0  0  0  0  0  0
   16.2698   -6.2766  -15.2057 S   0  0  0  0  0  0  0  0  0  0  0  0
   19.3925   -7.1634  -14.6084 C   0  0  0  0  0  0  0  0  0  0  0  0
   18.9516   -6.9522  -13.4530 O   0  0  0  0  0  0  0  0  0  0  0  0
   22.4427   -8.8696  -13.6175 C   0  0  0  0  0  0  0  0  0  0  0  0
   22.8422   -7.4571  -13.9361 C   0  0  1  0  0  0  0  0  0  0  0  0
   23.5585   -7.3486  -15.2593 C   0  0  0  0  0  0  0  0  0  0  0  0
   21.6925   -6.4933  -13.8248 C   0  0  2  0  0  0  0  0  0  0  0  0
   20.7420   -6.8255  -14.8935 N   0  0  0  0  0  0  0  0  0  0  0  0
   22.1301   -5.0786  -13.9373 C   0  0  0  0  0  0  0  0  0  0  0  0
   22.0415   -4.5164  -15.0585 O   0  0  0  0  0  0  0  0  0  0  0  0
   22.6285   -4.3427  -12.8862 O   0  0  0  0  0  0  0  0  0  0  0  0
  2  1  1  1
  2  3  1  0
  4  3  1  0
  4  8  1  0
  5  4  2  0
  6  2  1  0
  6  9  1  0
  7  6  2  0
 10  9  1  0
 10 13  1  0
 10 11  1  1
 11 12  1  0
 13 19  1  0
 14 13  2  0
 16 15  1  6
 16 17  1  0
 18 20  1  0
 18 16  1  0
 18 19  1  6
 20 22  1  0
 21 20  2  0
M  END
$$$$
