DCV.pdb
     RDKit          3D

 22 21  0  0  1  0  0  0  0  0999 V2000
   18.2030  -12.8158  -16.2804 N   0  0  0  0  0  0  0  0  0  0  0  0
   19.0135  -11.7489  -16.8092 C   0  0  1  0  0  0  0  0  0  0  0  0
   18.1901  -10.7892  -17.6627 C   0  0  0  0  0  0  0  0  0  0  0  0
   17.9343  -11.3837  -19.0008 C   0  0  0  0  0  0  0  0  0  0  0  0
   18.0336  -12.6165  -19.1395 O   0  0  0  0  0  0  0  0  0  0  0  0
   19.6726  -10.9625  -15.7587 C   0  0  0  0  0  0  0  0  0  0  0  0
   19.6142  -11.3915  -14.5769 O   0  0  0  0  0  0  0  0  0  0  0  0
   17.5938  -10.5562  -20.0537 O   0  0  0  0  0  0  0  0  0  0  0  0
   20.3746   -9.7463  -15.9827 N   0  0  0  0  0  0  0  0  0  0  0  0
   21.1071   -9.0905  -14.9244 C   0  0  1  0  0  0  0  0  0  0  0  0
   22.1701  -10.0095  -14.3452 C   0  0  0  0  0  0  0  0  0  0  0  0
   23.3569  -10.5130  -15.6161 S   0  0  0  0  0  0  0  0  0  0  0  0
   21.7148   -7.8118  -15.3851 C   0  0  0  0  0  0  0  0  0  0  0  0
   22.0228   -7.6218  -16.5864 O   0  0  0  0  0  0  0  0  0  0  0  0
   19.5920   -5.3060  -14.8419 C   0  0  0  0  0  0  0  0  0  0  0  0
   20.8396   -5.0136  -15.6255 C   0  0  1  0  0  0  0  0  0  0  0  0
   20.8689   -3.5993  -16.1497 C   0  0  0  0  0  0  0  0  0  0  0  0
   22.0914   -5.3729  -14.8724 C   0  0  2  0  0  0  0  0  0  0  0  0
   21.9569   -6.7721  -14.4485 N   0  0  0  0  0  0  0  0  0  0  0  0
   22.3153   -4.4915  -13.6984 C   0  0  0  0  0  0  0  0  0  0  0  0
   22.7482   -3.3287  -13.9021 O   0  0  0  0  0  0  0  0  0  0  0  0
   22.0772   -4.8705  -12.3967 O   0  0  0  0  0  0  0  0  0  0  0  0
  2  1  1  1
  2  3  1  0
  4  3  1  0
  4  8  1  0
  5  4  2  0
  6  2  1  0
  6  9  1  0
  7  6  2  0
 10  9  1  0
 10 13  1  0
 10 11  1  6
 11 12  1  0
 13 19  1  0
 14 13  2  0
 16 15  1  1
 16 17  1  0
 18 20  1  0
 18 16  1  0
 18 19  1  1
 20 22  1  0
 21 20  2  0
M  END
$$$$
