FTN.pdb
     RDKit          3D

 27 27  0  0  1  0  0  0  0  0999 V2000
   28.7802  -20.1401  -15.2869 N   0  0  0  0  0  0  0  0  0  0  0  0
   27.7937  -19.5603  -14.3958 C   0  0  1  0  0  0  0  0  0  0  0  0
   26.8568  -18.7800  -15.2938 C   0  0  0  0  0  0  0  0  0  0  0  0
   27.4742  -17.6648  -16.0083 C   0  0  0  0  0  0  0  0  0  0  0  0
   27.7175  -16.4567  -15.4250 C   0  0  0  0  0  0  0  0  0  0  0  0
   28.3171  -15.3996  -16.1165 C   0  0  0  0  0  0  0  0  0  0  0  0
   28.6853  -15.5493  -17.4265 C   0  0  0  0  0  0  0  0  0  0  0  0
   28.4353  -16.7810  -18.0118 C   0  0  0  0  0  0  0  0  0  0  0  0
   27.8435  -17.8270  -17.3307 C   0  0  0  0  0  0  0  0  0  0  0  0
   27.0223  -20.5594  -13.6585 C   0  0  0  0  0  0  0  0  0  0  0  0
   27.6190  -21.5117  -13.0978 O   0  0  0  0  0  0  0  0  0  0  0  0
   26.7723  -21.4037  -11.1769 C   0  0  0  0  0  0  0  0  0  0  0  0
   25.3092  -21.1312  -11.2952 C   0  0  1  0  0  0  0  0  0  0  0  0
   25.0081  -19.8097  -10.9751 O   0  0  0  0  0  0  0  0  0  0  0  0
   24.8167  -21.3566  -12.7314 C   0  0  2  0  0  0  0  0  0  0  0  0
   25.6155  -20.4722  -13.5651 N   0  0  0  0  0  0  0  0  0  0  0  0
   23.4145  -20.9149  -12.8454 C   0  0  0  0  0  0  0  0  0  0  0  0
   23.0898  -19.6996  -13.0850 O   0  0  0  0  0  0  0  0  0  0  0  0
   18.2087  -21.2965  -13.5411 N   0  0  0  0  0  0  0  0  0  0  0  0
   18.8152  -22.5761  -13.4106 C   0  0  0  0  0  0  0  0  0  0  0  0
   18.0802  -23.6291  -13.5429 O   0  0  0  0  0  0  0  0  0  0  0  0
   20.2367  -22.8310  -13.1337 C   0  0  0  0  0  0  0  0  0  0  0  0
   21.0306  -21.5232  -13.0744 C   0  0  2  0  0  0  0  0  0  0  0  0
   22.3802  -21.8655  -12.6860 N   0  0  0  0  0  0  0  0  0  0  0  0
   20.4762  -20.6179  -12.0217 C   0  0  0  0  0  0  0  0  0  0  0  0
   20.7466  -20.8276  -10.8173 O   0  0  0  0  0  0  0  0  0  0  0  0
   19.6637  -19.5462  -12.3658 O   0  0  0  0  0  0  0  0  0  0  0  0
  2  1  1  6
  2 10  1  0
  3  2  1  0
  4  3  1  0
  4  5  2  0
  6  5  1  0
  7  6  2  0
  8  9  2  0
  8  7  1  0
  9  4  1  0
 10 16  1  0
 10 11  2  0
 13 12  1  6
 14 13  1  0
 15 17  1  0
 15 13  1  0
 15 16  1  6
 17 18  2  0
 19 20  1  0
 20 22  1  0
 21 20  2  0
 23 22  1  1
 24 23  1  0
 24 17  1  0
 25 23  1  0
 25 27  1  0
 26 25  2  0
M  END
$$$$
