FTN.pdb
     RDKit          3D

 27 27  0  0  1  0  0  0  0  0999 V2000
   27.1673  -22.2254   -9.9651 N   0  0  0  0  0  0  0  0  0  0  0  0
   26.4962  -21.0045  -10.3683 C   0  0  1  0  0  0  0  0  0  0  0  0
   27.2246  -19.8924   -9.6434 C   0  0  0  0  0  0  0  0  0  0  0  0
   27.1312  -19.9420   -8.1860 C   0  0  0  0  0  0  0  0  0  0  0  0
   26.0211  -20.3861   -7.5308 C   0  0  0  0  0  0  0  0  0  0  0  0
   25.9466  -20.4373   -6.1354 C   0  0  0  0  0  0  0  0  0  0  0  0
   27.0078  -20.0348   -5.3700 C   0  0  0  0  0  0  0  0  0  0  0  0
   28.1330  -19.5855   -6.0440 C   0  0  0  0  0  0  0  0  0  0  0  0
   28.2092  -19.5344   -7.4224 C   0  0  0  0  0  0  0  0  0  0  0  0
   26.5624  -20.7565  -11.8074 C   0  0  0  0  0  0  0  0  0  0  0  0
   27.3491  -21.4316  -12.5162 O   0  0  0  0  0  0  0  0  0  0  0  0
   26.0342  -22.0248  -14.2788 C   0  0  0  0  0  0  0  0  0  0  0  0
   25.0686  -20.8929  -14.4023 C   0  0  1  0  0  0  0  0  0  0  0  0
   23.9060  -21.1311  -13.6734 O   0  0  0  0  0  0  0  0  0  0  0  0
   25.6678  -19.5896  -13.8563 C   0  0  2  0  0  0  0  0  0  0  0  0
   25.7554  -19.7694  -12.4157 N   0  0  0  0  0  0  0  0  0  0  0  0
   24.7312  -18.4773  -14.1009 C   0  0  0  0  0  0  0  0  0  0  0  0
   23.7387  -18.2273  -13.3313 O   0  0  0  0  0  0  0  0  0  0  0  0
   25.1630  -12.8301  -15.7687 N   0  0  0  0  0  0  0  0  0  0  0  0
   24.6501  -14.0835  -16.2027 C   0  0  0  0  0  0  0  0  0  0  0  0
   23.5446  -14.1062  -16.8689 O   0  0  0  0  0  0  0  0  0  0  0  0
   25.2692  -15.3960  -15.9649 C   0  0  0  0  0  0  0  0  0  0  0  0
   24.2879  -16.3538  -15.2840 C   0  0  2  0  0  0  0  0  0  0  0  0
   24.9302  -17.6475  -15.2281 N   0  0  0  0  0  0  0  0  0  0  0  0
   23.0455  -16.5042  -16.1018 C   0  0  0  0  0  0  0  0  0  0  0  0
   23.0630  -17.2146  -17.1327 O   0  0  0  0  0  0  0  0  0  0  0  0
   21.8713  -15.8636  -15.7301 O   0  0  0  0  0  0  0  0  0  0  0  0
  2  1  1  6
  2 10  1  0
  3  2  1  0
  4  3  1  0
  4  5  2  0
  6  5  1  0
  7  6  2  0
  8  9  2  0
  8  7  1  0
  9  4  1  0
 10 16  1  0
 10 11  2  0
 13 12  1  1
 14 13  1  0
 15 17  1  0
 15 13  1  0
 15 16  1  1
 17 18  2  0
 19 20  1  0
 20 22  1  0
 21 20  2  0
 23 22  1  6
 24 23  1  0
 24 17  1  0
 25 23  1  0
 25 27  1  0
 26 25  2  0
M  END
$$$$
