FTN.pdb
     RDKit          3D

 27 27  0  0  1  0  0  0  0  0999 V2000
   20.5553  -23.7119  -15.0912 N   0  0  0  0  0  0  0  0  0  0  0  0
   20.0381  -23.2581  -13.8145 C   0  0  1  0  0  0  0  0  0  0  0  0
   19.5688  -21.8391  -14.0574 C   0  0  0  0  0  0  0  0  0  0  0  0
   20.5980  -20.9247  -14.5472 C   0  0  0  0  0  0  0  0  0  0  0  0
   21.6508  -20.5182  -13.7821 C   0  0  0  0  0  0  0  0  0  0  0  0
   22.6346  -19.6496  -14.2648 C   0  0  0  0  0  0  0  0  0  0  0  0
   22.5688  -19.1720  -15.5460 C   0  0  0  0  0  0  0  0  0  0  0  0
   21.4957  -19.5910  -16.3176 C   0  0  0  0  0  0  0  0  0  0  0  0
   20.5227  -20.4493  -15.8432 C   0  0  0  0  0  0  0  0  0  0  0  0
   18.9119  -24.0546  -13.3307 C   0  0  0  0  0  0  0  0  0  0  0  0
   18.0090  -24.4004  -14.1322 O   0  0  0  0  0  0  0  0  0  0  0  0
   19.3538  -27.1549  -11.0368 C   0  0  0  0  0  0  0  0  0  0  0  0
   18.4084  -26.1874  -10.4049 C   0  0  1  0  0  0  0  0  0  0  0  0
   19.0625  -25.3445   -9.5096 O   0  0  0  0  0  0  0  0  0  0  0  0
   17.7530  -25.2831  -11.4578 C   0  0  2  0  0  0  0  0  0  0  0  0
   18.8214  -24.4429  -11.9755 N   0  0  0  0  0  0  0  0  0  0  0  0
   16.7767  -24.3932  -10.8027 C   0  0  0  0  0  0  0  0  0  0  0  0
   16.9346  -23.1242  -10.7351 O   0  0  0  0  0  0  0  0  0  0  0  0
   13.0549  -20.9529   -9.7638 N   0  0  0  0  0  0  0  0  0  0  0  0
   13.0197  -22.3169  -10.1644 C   0  0  0  0  0  0  0  0  0  0  0  0
   11.8974  -22.9525  -10.1095 O   0  0  0  0  0  0  0  0  0  0  0  0
   14.1645  -23.1012  -10.6510 C   0  0  0  0  0  0  0  0  0  0  0  0
   14.6460  -24.0925   -9.5882 C   0  0  2  0  0  0  0  0  0  0  0  0
   15.6158  -24.9555  -10.2240 N   0  0  0  0  0  0  0  0  0  0  0  0
   13.5167  -24.9535   -9.1210 C   0  0  0  0  0  0  0  0  0  0  0  0
   12.7205  -24.5189   -8.2580 O   0  0  0  0  0  0  0  0  0  0  0  0
   13.3414  -26.2314   -9.6343 O   0  0  0  0  0  0  0  0  0  0  0  0
  2  1  1  6
  2 10  1  0
  3  2  1  0
  4  3  1  0
  4  5  2  0
  6  5  1  0
  7  6  2  0
  8  9  2  0
  8  7  1  0
  9  4  1  0
 10 16  1  0
 10 11  2  0
 13 12  1  6
 14 13  1  0
 15 17  1  0
 15 13  1  0
 15 16  1  1
 17 18  2  0
 19 20  1  0
 20 22  1  0
 21 20  2  0
 23 22  1  6
 24 23  1  0
 24 17  1  0
 25 23  1  0
 25 27  1  0
 26 25  2  0
M  END
$$$$
