FTN.pdb
     RDKit          3D

 27 27  0  0  1  0  0  0  0  0999 V2000
   16.4358  -23.4876  -14.8476 N   0  0  0  0  0  0  0  0  0  0  0  0
   17.1897  -23.6516  -13.6194 C   0  0  1  0  0  0  0  0  0  0  0  0
   17.9349  -22.3466  -13.4331 C   0  0  0  0  0  0  0  0  0  0  0  0
   19.2472  -22.2894  -14.0733 C   0  0  0  0  0  0  0  0  0  0  0  0
   20.2215  -23.2159  -13.8470 C   0  0  0  0  0  0  0  0  0  0  0  0
   21.4706  -23.1556  -14.4724 C   0  0  0  0  0  0  0  0  0  0  0  0
   21.7584  -22.1439  -15.3485 C   0  0  0  0  0  0  0  0  0  0  0  0
   20.7620  -21.2064  -15.5738 C   0  0  0  0  0  0  0  0  0  0  0  0
   19.5270  -21.2641  -14.9575 C   0  0  0  0  0  0  0  0  0  0  0  0
   16.3453  -23.8875  -12.4497 C   0  0  0  0  0  0  0  0  0  0  0  0
   15.1222  -23.6074  -12.5028 O   0  0  0  0  0  0  0  0  0  0  0  0
   14.1161  -25.2996  -11.5589 C   0  0  0  0  0  0  0  0  0  0  0  0
   15.0940  -25.8440  -10.5708 C   0  0  1  0  0  0  0  0  0  0  0  0
   15.8689  -26.8597  -11.1254 O   0  0  0  0  0  0  0  0  0  0  0  0
   16.0698  -24.7575  -10.0987 C   0  0  2  0  0  0  0  0  0  0  0  0
   16.8817  -24.4260  -11.2591 N   0  0  0  0  0  0  0  0  0  0  0  0
   16.9749  -25.3187   -9.0790 C   0  0  0  0  0  0  0  0  0  0  0  0
   18.0768  -25.8993   -9.3768 O   0  0  0  0  0  0  0  0  0  0  0  0
   19.7000  -25.4060   -4.3378 N   0  0  0  0  0  0  0  0  0  0  0  0
   18.2826  -25.3108   -4.4029 C   0  0  0  0  0  0  0  0  0  0  0  0
   17.5851  -25.7154   -3.3948 O   0  0  0  0  0  0  0  0  0  0  0  0
   17.5063  -24.7815   -5.5341 C   0  0  0  0  0  0  0  0  0  0  0  0
   17.4957  -25.7672   -6.7056 C   0  0  2  0  0  0  0  0  0  0  0  0
   16.6200  -25.2151   -7.7144 N   0  0  0  0  0  0  0  0  0  0  0  0
   16.9217  -27.0813   -6.2829 C   0  0  0  0  0  0  0  0  0  0  0  0
   17.5939  -27.8473   -5.5555 O   0  0  0  0  0  0  0  0  0  0  0  0
   15.6499  -27.4618   -6.6890 O   0  0  0  0  0  0  0  0  0  0  0  0
  2  1  1  6
  2 10  1  0
  3  2  1  0
  4  3  1  0
  4  5  2  0
  6  5  1  0
  7  6  2  0
  8  9  2  0
  8  7  1  0
  9  4  1  0
 10 16  1  0
 10 11  2  0
 13 12  1  6
 14 13  1  0
 15 17  1  0
 15 13  1  0
 15 16  1  6
 17 18  2  0
 19 20  1  0
 20 22  1  0
 21 20  2  0
 23 22  1  1
 24 23  1  0
 24 17  1  0
 25 23  1  0
 25 27  1  0
 26 25  2  0
M  END
$$$$
