FTN.pdb
     RDKit          3D

 27 27  0  0  1  0  0  0  0  0999 V2000
   28.5504  -20.6792   -8.4443 N   0  0  0  0  0  0  0  0  0  0  0  0
   27.1025  -20.7472   -8.3960 C   0  0  1  0  0  0  0  0  0  0  0  0
   26.7058  -19.9219   -7.1900 C   0  0  0  0  0  0  0  0  0  0  0  0
   27.7424  -19.7842   -6.1694 C   0  0  0  0  0  0  0  0  0  0  0  0
   27.5755  -19.0358   -5.0420 C   0  0  0  0  0  0  0  0  0  0  0  0
   28.5717  -18.9185   -4.0679 C   0  0  0  0  0  0  0  0  0  0  0  0
   29.7688  -19.5651   -4.2202 C   0  0  0  0  0  0  0  0  0  0  0  0
   29.9301  -20.3246   -5.3688 C   0  0  0  0  0  0  0  0  0  0  0  0
   28.9473  -20.4423   -6.3324 C   0  0  0  0  0  0  0  0  0  0  0  0
   26.4575  -20.1918   -9.5845 C   0  0  0  0  0  0  0  0  0  0  0  0
   26.7516  -19.0310   -9.9627 O   0  0  0  0  0  0  0  0  0  0  0  0
   27.0875  -21.0694  -12.6529 C   0  0  0  0  0  0  0  0  0  0  0  0
   25.6095  -21.2793  -12.6731 C   0  0  1  0  0  0  0  0  0  0  0  0
   25.2803  -22.6156  -12.4592 O   0  0  0  0  0  0  0  0  0  0  0  0
   24.9191  -20.4756  -11.5625 C   0  0  2  0  0  0  0  0  0  0  0  0
   25.5082  -20.9393  -10.3162 N   0  0  0  0  0  0  0  0  0  0  0  0
   23.4863  -20.8216  -11.5231 C   0  0  0  0  0  0  0  0  0  0  0  0
   22.7921  -20.7707  -10.4483 O   0  0  0  0  0  0  0  0  0  0  0  0
   18.8270  -19.8178  -13.3300 N   0  0  0  0  0  0  0  0  0  0  0  0
   19.9308  -18.9597  -13.0703 C   0  0  0  0  0  0  0  0  0  0  0  0
   19.7224  -17.6892  -12.9765 O   0  0  0  0  0  0  0  0  0  0  0  0
   21.3274  -19.3837  -12.8909 C   0  0  0  0  0  0  0  0  0  0  0  0
   21.4489  -20.9096  -12.9183 C   0  0  2  0  0  0  0  0  0  0  0  0
   22.8448  -21.2261  -12.7163 N   0  0  0  0  0  0  0  0  0  0  0  0
   21.0562  -21.4452  -14.2577 C   0  0  0  0  0  0  0  0  0  0  0  0
   21.6904  -21.0919  -15.2778 O   0  0  0  0  0  0  0  0  0  0  0  0
   19.9945  -22.3308  -14.3825 O   0  0  0  0  0  0  0  0  0  0  0  0
  2  1  1  6
  2 10  1  0
  3  2  1  0
  4  3  1  0
  4  5  2  0
  6  5  1  0
  7  6  2  0
  8  9  2  0
  8  7  1  0
  9  4  1  0
 10 16  1  0
 10 11  2  0
 13 12  1  1
 14 13  1  0
 15 17  1  0
 15 13  1  0
 15 16  1  1
 17 18  2  0
 19 20  1  0
 20 22  1  0
 21 20  2  0
 23 22  1  6
 24 23  1  0
 24 17  1  0
 25 23  1  0
 25 27  1  0
 26 25  2  0
M  END
$$$$
