FTN.pdb
     RDKit          3D

 27 27  0  0  1  0  0  0  0  0999 V2000
   19.6526  -13.5880  -18.4270 N   0  0  0  0  0  0  0  0  0  0  0  0
   19.6347  -12.8357  -17.1872 C   0  0  1  0  0  0  0  0  0  0  0  0
   20.8830  -13.2636  -16.4444 C   0  0  0  0  0  0  0  0  0  0  0  0
   20.9155  -14.6712  -16.0533 C   0  0  0  0  0  0  0  0  0  0  0  0
   21.6394  -15.6095  -16.7274 C   0  0  0  0  0  0  0  0  0  0  0  0
   21.6697  -16.9522  -16.3384 C   0  0  0  0  0  0  0  0  0  0  0  0
   20.9590  -17.3732  -15.2467 C   0  0  0  0  0  0  0  0  0  0  0  0
   20.2263  -16.4127  -14.5664 C   0  0  0  0  0  0  0  0  0  0  0  0
   20.1951  -15.0855  -14.9485 C   0  0  0  0  0  0  0  0  0  0  0  0
   19.6745  -11.3884  -17.3884 C   0  0  0  0  0  0  0  0  0  0  0  0
   20.2739  -10.9187  -18.3871 O   0  0  0  0  0  0  0  0  0  0  0  0
   17.7354   -7.0638  -15.9472 C   0  0  0  0  0  0  0  0  0  0  0  0
   17.7684   -8.5555  -15.9991 C   0  0  1  0  0  0  0  0  0  0  0  0
   16.7328   -9.0627  -16.7802 O   0  0  0  0  0  0  0  0  0  0  0  0
   19.0758   -9.0607  -16.6245 C   0  0  2  0  0  0  0  0  0  0  0  0
   19.0493  -10.5075  -16.4781 N   0  0  0  0  0  0  0  0  0  0  0  0
   20.2208   -8.5637  -15.8395 C   0  0  0  0  0  0  0  0  0  0  0  0
   21.0903   -9.3439  -15.3152 O   0  0  0  0  0  0  0  0  0  0  0  0
   25.1239   -7.1683  -15.2090 N   0  0  0  0  0  0  0  0  0  0  0  0
   24.0033   -6.4175  -15.6594 C   0  0  0  0  0  0  0  0  0  0  0  0
   24.0917   -5.1302  -15.6973 O   0  0  0  0  0  0  0  0  0  0  0  0
   22.7156   -6.9737  -16.1010 C   0  0  0  0  0  0  0  0  0  0  0  0
   21.6036   -6.6548  -15.0982 C   0  0  2  0  0  0  0  0  0  0  0  0
   20.3728   -7.1704  -15.6540 N   0  0  0  0  0  0  0  0  0  0  0  0
   21.4419   -5.1767  -14.9434 C   0  0  0  0  0  0  0  0  0  0  0  0
   20.8423   -4.5219  -15.8263 O   0  0  0  0  0  0  0  0  0  0  0  0
   21.9505   -4.5216  -13.8301 O   0  0  0  0  0  0  0  0  0  0  0  0
  2  1  1  6
  2 10  1  0
  3  2  1  0
  4  3  1  0
  4  5  2  0
  6  5  1  0
  7  6  2  0
  8  9  2  0
  8  7  1  0
  9  4  1  0
 10 16  1  0
 10 11  2  0
 13 12  1  6
 14 13  1  0
 15 17  1  0
 15 13  1  0
 15 16  1  1
 17 18  2  0
 19 20  1  0
 20 22  1  0
 21 20  2  0
 23 22  1  6
 24 23  1  0
 24 17  1  0
 25 23  1  0
 25 27  1  0
 26 25  2  0
M  END
$$$$
