FTN.pdb
     RDKit          3D

 27 27  0  0  1  0  0  0  0  0999 V2000
   27.7097  -18.4294  -16.1429 N   0  0  0  0  0  0  0  0  0  0  0  0
   26.7808  -18.2695  -15.0405 C   0  0  1  0  0  0  0  0  0  0  0  0
   25.8004  -17.2098  -15.4974 C   0  0  0  0  0  0  0  0  0  0  0  0
   26.3838  -15.8909  -15.7328 C   0  0  0  0  0  0  0  0  0  0  0  0
   26.8591  -15.1023  -14.7274 C   0  0  0  0  0  0  0  0  0  0  0  0
   27.4234  -13.8453  -14.9659 C   0  0  0  0  0  0  0  0  0  0  0  0
   27.5174  -13.3593  -16.2422 C   0  0  0  0  0  0  0  0  0  0  0  0
   27.0326  -14.1677  -17.2589 C   0  0  0  0  0  0  0  0  0  0  0  0
   26.4751  -15.4100  -17.0259 C   0  0  0  0  0  0  0  0  0  0  0  0
   26.0449  -19.4918  -14.7225 C   0  0  0  0  0  0  0  0  0  0  0  0
   26.1335  -20.4842  -15.4871 O   0  0  0  0  0  0  0  0  0  0  0  0
   26.9575  -21.3840  -12.3108 C   0  0  0  0  0  0  0  0  0  0  0  0
   25.5240  -21.2648  -11.9110 C   0  0  1  0  0  0  0  0  0  0  0  0
   25.3500  -20.3110  -10.9112 O   0  0  0  0  0  0  0  0  0  0  0  0
   24.6524  -20.8221  -13.0943 C   0  0  2  0  0  0  0  0  0  0  0  0
   25.2348  -19.5766  -13.5684 N   0  0  0  0  0  0  0  0  0  0  0  0
   23.2926  -20.5132  -12.6150 C   0  0  0  0  0  0  0  0  0  0  0  0
   23.0072  -19.4286  -11.9969 O   0  0  0  0  0  0  0  0  0  0  0  0
   18.4213  -19.4252  -12.1483 N   0  0  0  0  0  0  0  0  0  0  0  0
   19.1411  -19.5051  -13.3721 C   0  0  0  0  0  0  0  0  0  0  0  0
   18.5370  -19.1959  -14.4703 O   0  0  0  0  0  0  0  0  0  0  0  0
   20.5457  -19.9145  -13.5197 C   0  0  0  0  0  0  0  0  0  0  0  0
   20.8857  -21.0707  -12.5755 C   0  0  2  0  0  0  0  0  0  0  0  0
   22.2555  -21.4464  -12.8438 N   0  0  0  0  0  0  0  0  0  0  0  0
   20.0282  -22.2597  -12.8687 C   0  0  0  0  0  0  0  0  0  0  0  0
   20.2664  -22.9635  -13.8765 O   0  0  0  0  0  0  0  0  0  0  0  0
   18.9694  -22.5920  -12.0347 O   0  0  0  0  0  0  0  0  0  0  0  0
  2  1  1  6
  2 10  1  0
  3  2  1  0
  4  3  1  0
  4  5  2  0
  6  5  1  0
  7  6  2  0
  8  9  2  0
  8  7  1  0
  9  4  1  0
 10 16  1  0
 10 11  2  0
 13 12  1  6
 14 13  1  0
 15 17  1  0
 15 13  1  0
 15 16  1  1
 17 18  2  0
 19 20  1  0
 20 22  1  0
 21 20  2  0
 23 22  1  6
 24 23  1  0
 24 17  1  0
 25 23  1  0
 25 27  1  0
 26 25  2  0
M  END
$$$$
