FTN.pdb
     RDKit          3D

 27 27  0  0  1  0  0  0  0  0999 V2000
   28.6408  -20.8495  -14.8016 N   0  0  0  0  0  0  0  0  0  0  0  0
   27.4082  -20.6278  -14.0701 C   0  0  1  0  0  0  0  0  0  0  0  0
   27.7715  -19.6606  -12.9630 C   0  0  0  0  0  0  0  0  0  0  0  0
   28.5945  -20.2260  -11.8962 C   0  0  0  0  0  0  0  0  0  0  0  0
   29.9557  -20.2725  -11.9581 C   0  0  0  0  0  0  0  0  0  0  0  0
   30.7333  -20.8081  -10.9267 C   0  0  0  0  0  0  0  0  0  0  0  0
   30.1389  -21.3118   -9.8011 C   0  0  0  0  0  0  0  0  0  0  0  0
   28.7545  -21.2599   -9.7457 C   0  0  0  0  0  0  0  0  0  0  0  0
   27.9841  -20.7309  -10.7631 C   0  0  0  0  0  0  0  0  0  0  0  0
   26.3490  -20.0383  -14.8871 C   0  0  0  0  0  0  0  0  0  0  0  0
   26.6144  -19.0670  -15.6376 O   0  0  0  0  0  0  0  0  0  0  0  0
   22.3403  -20.8463  -17.4055 C   0  0  0  0  0  0  0  0  0  0  0  0
   23.5359  -21.1996  -16.5842 C   0  0  1  0  0  0  0  0  0  0  0  0
   24.6356  -21.4986  -17.3848 O   0  0  0  0  0  0  0  0  0  0  0  0
   23.9560  -20.0303  -15.6830 C   0  0  2  0  0  0  0  0  0  0  0  0
   25.0303  -20.5431  -14.8473 N   0  0  0  0  0  0  0  0  0  0  0  0
   22.8397  -19.6734  -14.7882 C   0  0  0  0  0  0  0  0  0  0  0  0
   23.0136  -19.3472  -13.5622 O   0  0  0  0  0  0  0  0  0  0  0  0
   18.3402  -17.8867  -13.0421 N   0  0  0  0  0  0  0  0  0  0  0  0
   19.5280  -17.1979  -13.4121 C   0  0  0  0  0  0  0  0  0  0  0  0
   19.6432  -15.9487  -13.1075 O   0  0  0  0  0  0  0  0  0  0  0  0
   20.6739  -17.7802  -14.1264 C   0  0  0  0  0  0  0  0  0  0  0  0
   20.4273  -19.2548  -14.4564 C   0  0  2  0  0  0  0  0  0  0  0  0
   21.5206  -19.6883  -15.2967 N   0  0  0  0  0  0  0  0  0  0  0  0
   19.1658  -19.4145  -15.2428 C   0  0  0  0  0  0  0  0  0  0  0  0
   18.1343  -19.8473  -14.6804 O   0  0  0  0  0  0  0  0  0  0  0  0
   19.1262  -19.0880  -16.5915 O   0  0  0  0  0  0  0  0  0  0  0  0
  2  1  1  6
  2 10  1  0
  3  2  1  0
  4  3  1  0
  4  5  2  0
  6  5  1  0
  7  6  2  0
  8  9  2  0
  8  7  1  0
  9  4  1  0
 10 16  1  0
 10 11  2  0
 13 12  1  6
 14 13  1  0
 15 17  1  0
 15 13  1  0
 15 16  1  1
 17 18  2  0
 19 20  1  0
 20 22  1  0
 21 20  2  0
 23 22  1  6
 24 23  1  0
 24 17  1  0
 25 23  1  0
 25 27  1  0
 26 25  2  0
M  END
$$$$
