FTN.pdb
     RDKit          3D

 27 27  0  0  1  0  0  0  0  0999 V2000
   29.0982  -21.7823   -9.4583 N   0  0  0  0  0  0  0  0  0  0  0  0
   27.8728  -21.0180   -9.3245 C   0  0  1  0  0  0  0  0  0  0  0  0
   28.2672  -19.7622   -8.5760 C   0  0  0  0  0  0  0  0  0  0  0  0
   28.2725  -19.8884   -7.1202 C   0  0  0  0  0  0  0  0  0  0  0  0
   29.4160  -19.8509   -6.3788 C   0  0  0  0  0  0  0  0  0  0  0  0
   29.4078  -19.9639   -4.9851 C   0  0  0  0  0  0  0  0  0  0  0  0
   28.2271  -20.1187   -4.3098 C   0  0  0  0  0  0  0  0  0  0  0  0
   27.0688  -20.1550   -5.0710 C   0  0  0  0  0  0  0  0  0  0  0  0
   27.0743  -20.0431   -6.4479 C   0  0  0  0  0  0  0  0  0  0  0  0
   27.2837  -20.6406  -10.6080 C   0  0  0  0  0  0  0  0  0  0  0  0
   28.0333  -20.3086  -11.5592 O   0  0  0  0  0  0  0  0  0  0  0  0
   27.1021  -21.5626  -13.2923 C   0  0  0  0  0  0  0  0  0  0  0  0
   25.6432  -21.5800  -12.9756 C   0  0  1  0  0  0  0  0  0  0  0  0
   25.2850  -22.7324  -12.2803 O   0  0  0  0  0  0  0  0  0  0  0  0
   25.2541  -20.3927  -12.0843 C   0  0  2  0  0  0  0  0  0  0  0  0
   25.8838  -20.6431  -10.7974 N   0  0  0  0  0  0  0  0  0  0  0  0
   23.7960  -20.3993  -11.8651 C   0  0  0  0  0  0  0  0  0  0  0  0
   23.2600  -20.8503  -10.7931 O   0  0  0  0  0  0  0  0  0  0  0  0
   18.5514  -18.7570  -14.5013 N   0  0  0  0  0  0  0  0  0  0  0  0
   19.5402  -18.5647  -13.4975 C   0  0  0  0  0  0  0  0  0  0  0  0
   19.1674  -18.1803  -12.3228 O   0  0  0  0  0  0  0  0  0  0  0  0
   20.9872  -18.7661  -13.6645 C   0  0  0  0  0  0  0  0  0  0  0  0
   21.5370  -19.7247  -12.6049 C   0  0  2  0  0  0  0  0  0  0  0  0
   22.9479  -19.8877  -12.8739 N   0  0  0  0  0  0  0  0  0  0  0  0
   20.8977  -21.0703  -12.7296 C   0  0  0  0  0  0  0  0  0  0  0  0
   19.8889  -21.3445  -12.0405 O   0  0  0  0  0  0  0  0  0  0  0  0
   21.4113  -22.0201  -13.6020 O   0  0  0  0  0  0  0  0  0  0  0  0
  2  1  1  6
  2 10  1  0
  3  2  1  0
  4  3  1  0
  4  5  2  0
  6  5  1  0
  7  6  2  0
  8  9  2  0
  8  7  1  0
  9  4  1  0
 10 16  1  0
 10 11  2  0
 13 12  1  1
 14 13  1  0
 15 17  1  0
 15 13  1  0
 15 16  1  1
 17 18  2  0
 19 20  1  0
 20 22  1  0
 21 20  2  0
 23 22  1  6
 24 23  1  0
 24 17  1  0
 25 23  1  0
 25 27  1  0
 26 25  2  0
M  END
$$$$
