FTN.pdb
     RDKit          3D

 27 27  0  0  1  0  0  0  0  0999 V2000
   27.1343  -22.5814  -10.7456 N   0  0  0  0  0  0  0  0  0  0  0  0
   26.3510  -21.3738  -10.9238 C   0  0  1  0  0  0  0  0  0  0  0  0
   27.3169  -20.2337  -10.6788 C   0  0  0  0  0  0  0  0  0  0  0  0
   27.7091  -20.0472   -9.2835 C   0  0  0  0  0  0  0  0  0  0  0  0
   26.8993  -19.4546   -8.3606 C   0  0  0  0  0  0  0  0  0  0  0  0
   27.2821  -19.2896   -7.0259 C   0  0  0  0  0  0  0  0  0  0  0  0
   28.5064  -19.7273   -6.5974 C   0  0  0  0  0  0  0  0  0  0  0  0
   29.3234  -20.3295   -7.5419 C   0  0  0  0  0  0  0  0  0  0  0  0
   28.9473  -20.4940   -8.8609 C   0  0  0  0  0  0  0  0  0  0  0  0
   25.7907  -21.2410  -12.2675 C   0  0  0  0  0  0  0  0  0  0  0  0
   26.4926  -21.5451  -13.2634 O   0  0  0  0  0  0  0  0  0  0  0  0
   23.7835  -23.3319  -13.5436 C   0  0  0  0  0  0  0  0  0  0  0  0
   22.9328  -22.1148  -13.6988 C   0  0  1  0  0  0  0  0  0  0  0  0
   22.0570  -21.9634  -12.6265 O   0  0  0  0  0  0  0  0  0  0  0  0
   23.7885  -20.8416  -13.7478 C   0  0  2  0  0  0  0  0  0  0  0  0
   24.4715  -20.7763  -12.4654 N   0  0  0  0  0  0  0  0  0  0  0  0
   22.9092  -19.6611  -13.8343 C   0  0  0  0  0  0  0  0  0  0  0  0
   22.9388  -18.7125  -12.9746 O   0  0  0  0  0  0  0  0  0  0  0  0
   22.6582  -15.7095  -16.5539 N   0  0  0  0  0  0  0  0  0  0  0  0
   23.5921  -16.7756  -16.6706 C   0  0  0  0  0  0  0  0  0  0  0  0
   24.7757  -16.5196  -17.1177 O   0  0  0  0  0  0  0  0  0  0  0  0
   23.3410  -18.1821  -16.3224 C   0  0  0  0  0  0  0  0  0  0  0  0
   21.9521  -18.3578  -15.7026 C   0  0  2  0  0  0  0  0  0  0  0  0
   21.9938  -19.5641  -14.9074 N   0  0  0  0  0  0  0  0  0  0  0  0
   20.9217  -18.5572  -16.7674 C   0  0  0  0  0  0  0  0  0  0  0  0
   21.1085  -19.4162  -17.6590 O   0  0  0  0  0  0  0  0  0  0  0  0
   19.7588  -17.7991  -16.7782 O   0  0  0  0  0  0  0  0  0  0  0  0
  2  1  1  6
  2 10  1  0
  3  2  1  0
  4  3  1  0
  4  5  2  0
  6  5  1  0
  7  6  2  0
  8  9  2  0
  8  7  1  0
  9  4  1  0
 10 16  1  0
 10 11  2  0
 13 12  1  1
 14 13  1  0
 15 17  1  0
 15 13  1  0
 15 16  1  1
 17 18  2  0
 19 20  1  0
 20 22  1  0
 21 20  2  0
 23 22  1  6
 24 23  1  0
 24 17  1  0
 25 23  1  0
 25 27  1  0
 26 25  2  0
M  END
$$$$
