FTN.pdb
     RDKit          3D

 27 27  0  0  1  0  0  0  0  0999 V2000
   20.3762  -26.0201  -13.6666 N   0  0  0  0  0  0  0  0  0  0  0  0
   19.4714  -26.2376  -12.5541 C   0  0  1  0  0  0  0  0  0  0  0  0
   19.6429  -27.6952  -12.1813 C   0  0  0  0  0  0  0  0  0  0  0  0
   19.1899  -28.6475  -13.1928 C   0  0  0  0  0  0  0  0  0  0  0  0
   17.8787  -28.7929  -13.5369 C   0  0  0  0  0  0  0  0  0  0  0  0
   17.4580  -29.7016  -14.5130 C   0  0  0  0  0  0  0  0  0  0  0  0
   18.3689  -30.4882  -15.1654 C   0  0  0  0  0  0  0  0  0  0  0  0
   19.7001  -30.3335  -14.8102 C   0  0  0  0  0  0  0  0  0  0  0  0
   20.1182  -29.4362  -13.8467 C   0  0  0  0  0  0  0  0  0  0  0  0
   19.7785  -25.4101  -11.3888 C   0  0  0  0  0  0  0  0  0  0  0  0
   20.6347  -24.4966  -11.4868 O   0  0  0  0  0  0  0  0  0  0  0  0
   19.4460  -22.9247  -10.7235 C   0  0  0  0  0  0  0  0  0  0  0  0
   18.7684  -23.3655   -9.4683 C   0  0  1  0  0  0  0  0  0  0  0  0
   17.3943  -23.5012   -9.6501 O   0  0  0  0  0  0  0  0  0  0  0  0
   19.2863  -24.7355   -9.0092 C   0  0  2  0  0  0  0  0  0  0  0  0
   19.1277  -25.6201  -10.1527 N   0  0  0  0  0  0  0  0  0  0  0  0
   18.4206  -25.2533   -7.9337 C   0  0  0  0  0  0  0  0  0  0  0  0
   17.2915  -25.8119   -8.1637 O   0  0  0  0  0  0  0  0  0  0  0  0
   15.4498  -24.2044   -3.5783 N   0  0  0  0  0  0  0  0  0  0  0  0
   15.5899  -24.8274   -4.8489 C   0  0  0  0  0  0  0  0  0  0  0  0
   14.7216  -25.7131   -5.2066 O   0  0  0  0  0  0  0  0  0  0  0  0
   16.6537  -24.5571   -5.8276 C   0  0  0  0  0  0  0  0  0  0  0  0
   17.9087  -25.3782   -5.5197 C   0  0  2  0  0  0  0  0  0  0  0  0
   18.8473  -25.1331   -6.5912 N   0  0  0  0  0  0  0  0  0  0  0  0
   17.5954  -26.8400   -5.5226 C   0  0  0  0  0  0  0  0  0  0  0  0
   16.8697  -27.3212   -4.6228 O   0  0  0  0  0  0  0  0  0  0  0  0
   18.1013  -27.6705   -6.5132 O   0  0  0  0  0  0  0  0  0  0  0  0
  2  1  1  6
  2 10  1  0
  3  2  1  0
  4  3  1  0
  4  5  2  0
  6  5  1  0
  7  6  2  0
  8  9  2  0
  8  7  1  0
  9  4  1  0
 10 16  1  0
 10 11  2  0
 13 12  1  6
 14 13  1  0
 15 17  1  0
 15 13  1  0
 15 16  1  6
 17 18  2  0
 19 20  1  0
 20 22  1  0
 21 20  2  0
 23 22  1  6
 24 23  1  0
 24 17  1  0
 25 23  1  0
 25 27  1  0
 26 25  2  0
M  END
$$$$
