FTN.pdb
     RDKit          3D

 27 27  0  0  1  0  0  0  0  0999 V2000
   26.0880   -9.6309  -19.0182 N   0  0  0  0  0  0  0  0  0  0  0  0
   25.9525  -10.9536  -18.4389 C   0  0  1  0  0  0  0  0  0  0  0  0
   26.7911  -10.9233  -17.1784 C   0  0  0  0  0  0  0  0  0  0  0  0
   28.2274  -10.7669  -17.3973 C   0  0  0  0  0  0  0  0  0  0  0  0
   28.9116   -9.6427  -17.0411 C   0  0  0  0  0  0  0  0  0  0  0  0
   30.2880   -9.5080  -17.2476 C   0  0  0  0  0  0  0  0  0  0  0  0
   31.0041  -10.5217  -17.8254 C   0  0  0  0  0  0  0  0  0  0  0  0
   30.3010  -11.6616  -18.1838 C   0  0  0  0  0  0  0  0  0  0  0  0
   28.9413  -11.7973  -17.9804 C   0  0  0  0  0  0  0  0  0  0  0  0
   24.5750  -11.2915  -18.0849 C   0  0  0  0  0  0  0  0  0  0  0  0
   23.7338  -10.3727  -17.9260 O   0  0  0  0  0  0  0  0  0  0  0  0
   21.8643  -11.1718  -19.0388 C   0  0  0  0  0  0  0  0  0  0  0  0
   22.0061  -12.6525  -18.9109 C   0  0  1  0  0  0  0  0  0  0  0  0
   22.6983  -13.1947  -19.9911 O   0  0  0  0  0  0  0  0  0  0  0  0
   22.7983  -13.0278  -17.6510 C   0  0  2  0  0  0  0  0  0  0  0  0
   24.1730  -12.6354  -17.9185 N   0  0  0  0  0  0  0  0  0  0  0  0
   22.7878  -14.4925  -17.4816 C   0  0  0  0  0  0  0  0  0  0  0  0
   23.6602  -15.2574  -18.0234 O   0  0  0  0  0  0  0  0  0  0  0  0
   22.5931  -19.0669  -15.4136 N   0  0  0  0  0  0  0  0  0  0  0  0
   22.1340  -18.0474  -14.5349 C   0  0  0  0  0  0  0  0  0  0  0  0
   22.1060  -18.2858  -13.2665 O   0  0  0  0  0  0  0  0  0  0  0  0
   21.6755  -16.7086  -14.9345 C   0  0  0  0  0  0  0  0  0  0  0  0
   21.8045  -16.5095  -16.4470 C   0  0  2  0  0  0  0  0  0  0  0  0
   21.7776  -15.0847  -16.6894 N   0  0  0  0  0  0  0  0  0  0  0  0
   20.6341  -17.1084  -17.1587 C   0  0  0  0  0  0  0  0  0  0  0  0
   19.6155  -16.4126  -17.3731 O   0  0  0  0  0  0  0  0  0  0  0  0
   20.6647  -18.4293  -17.5847 O   0  0  0  0  0  0  0  0  0  0  0  0
  2  1  1  1
  2 10  1  0
  3  2  1  0
  4  3  1  0
  4  5  2  0
  6  5  1  0
  7  6  2  0
  8  9  2  0
  8  7  1  0
  9  4  1  0
 10 16  1  0
 10 11  2  0
 13 12  1  6
 14 13  1  0
 15 17  1  0
 15 13  1  0
 15 16  1  6
 17 18  2  0
 19 20  1  0
 20 22  1  0
 21 20  2  0
 23 22  1  1
 24 23  1  0
 24 17  1  0
 25 23  1  0
 25 27  1  0
 26 25  2  0
M  END
$$$$
