FTN.pdb
     RDKit          3D

 27 27  0  0  1  0  0  0  0  0999 V2000
   24.3266  -17.6163  -18.4829 N   0  0  0  0  0  0  0  0  0  0  0  0
   22.8763  -17.6310  -18.4715 C   0  0  1  0  0  0  0  0  0  0  0  0
   22.4833  -18.7786  -19.3779 C   0  0  0  0  0  0  0  0  0  0  0  0
   22.8008  -18.5845  -20.7910 C   0  0  0  0  0  0  0  0  0  0  0  0
   23.9007  -19.1302  -21.3835 C   0  0  0  0  0  0  0  0  0  0  0  0
   24.1895  -18.9447  -22.7390 C   0  0  0  0  0  0  0  0  0  0  0  0
   23.3594  -18.1944  -23.5276 C   0  0  0  0  0  0  0  0  0  0  0  0
   22.2427  -17.6437  -22.9176 C   0  0  0  0  0  0  0  0  0  0  0  0
   21.9550  -17.8259  -21.5788 C   0  0  0  0  0  0  0  0  0  0  0  0
   22.3108  -17.8599  -17.1431 C   0  0  0  0  0  0  0  0  0  0  0  0
   23.0612  -17.8250  -16.1367 O   0  0  0  0  0  0  0  0  0  0  0  0
   21.6634  -16.2832  -14.9069 C   0  0  0  0  0  0  0  0  0  0  0  0
   20.2797  -16.8141  -15.0873 C   0  0  1  0  0  0  0  0  0  0  0  0
   19.5452  -16.0341  -15.9772 O   0  0  0  0  0  0  0  0  0  0  0  0
   20.3013  -18.2354  -15.6664 C   0  0  2  0  0  0  0  0  0  0  0  0
   20.9330  -18.1196  -16.9714 N   0  0  0  0  0  0  0  0  0  0  0  0
   18.9186  -18.6962  -15.8904 C   0  0  0  0  0  0  0  0  0  0  0  0
   18.3001  -18.5147  -16.9968 O   0  0  0  0  0  0  0  0  0  0  0  0
   14.2249  -20.8923  -15.0719 N   0  0  0  0  0  0  0  0  0  0  0  0
   15.1712  -21.3072  -14.0949 C   0  0  0  0  0  0  0  0  0  0  0  0
   14.8053  -22.1600  -13.1974 O   0  0  0  0  0  0  0  0  0  0  0  0
   16.5663  -20.8523  -13.9998 C   0  0  0  0  0  0  0  0  0  0  0  0
   16.8600  -19.7544  -15.0256 C   0  0  2  0  0  0  0  0  0  0  0  0
   18.2412  -19.3675  -14.8467 N   0  0  0  0  0  0  0  0  0  0  0  0
   16.0178  -18.5478  -14.7614 C   0  0  0  0  0  0  0  0  0  0  0  0
   16.3536  -17.7404  -13.8653 O   0  0  0  0  0  0  0  0  0  0  0  0
   14.8658  -18.3130  -15.4997 O   0  0  0  0  0  0  0  0  0  0  0  0
  2  1  1  1
  2 10  1  0
  3  2  1  0
  4  3  1  0
  4  5  2  0
  6  5  1  0
  7  6  2  0
  8  9  2  0
  8  7  1  0
  9  4  1  0
 10 16  1  0
 10 11  2  0
 13 12  1  6
 14 13  1  0
 15 17  1  0
 15 13  1  0
 15 16  1  6
 17 18  2  0
 19 20  1  0
 20 22  1  0
 21 20  2  0
 23 22  1  1
 24 23  1  0
 24 17  1  0
 25 23  1  0
 25 27  1  0
 26 25  2  0
M  END
$$$$
