PIV.pdb
     RDKit          3D

 23 23  0  0  1  0  0  0  0  0999 V2000
   28.8762  -20.1810  -15.3457 N   0  0  0  0  0  0  0  0  0  0  0  0
   28.7641  -19.5596  -16.6275 C   0  0  0  0  0  0  0  0  0  0  0  0
   28.5230  -18.0990  -16.3472 C   0  0  0  0  0  0  0  0  0  0  0  0
   27.6489  -18.1883  -15.0883 C   0  0  0  0  0  0  0  0  0  0  0  0
   28.0897  -19.4125  -14.4014 C   0  0  1  0  0  0  0  0  0  0  0  0
   27.0360  -20.2139  -13.7599 C   0  0  0  0  0  0  0  0  0  0  0  0
   26.6576  -21.2495  -14.3854 O   0  0  0  0  0  0  0  0  0  0  0  0
   26.8450  -20.2261   -8.4130 C   0  0  0  0  0  0  0  0  0  0  0  0
   26.5132  -20.8830   -9.6758 C   0  0  0  0  0  0  0  0  0  0  0  0
   25.3417  -20.5798  -10.4768 C   0  0  2  0  0  0  0  0  0  0  0  0
   24.0252  -21.0714   -9.8620 C   0  0  0  0  0  0  0  0  0  0  0  0
   25.3238  -20.7672  -11.9576 C   0  0  2  0  0  0  0  0  0  0  0  0
   26.4214  -19.9469  -12.5453 N   0  0  0  0  0  0  0  0  0  0  0  0
   24.0611  -20.4148  -12.5841 C   0  0  0  0  0  0  0  0  0  0  0  0
   23.6813  -19.2305  -12.6507 O   0  0  0  0  0  0  0  0  0  0  0  0
   20.5861  -21.1343  -15.9183 C   0  0  0  0  0  0  0  0  0  0  0  0
   21.7975  -21.5987  -15.1844 C   0  0  1  0  0  0  0  0  0  0  0  0
   23.0184  -21.3043  -16.0290 C   0  0  0  0  0  0  0  0  0  0  0  0
   22.0098  -20.9372  -13.8496 C   0  0  2  0  0  0  0  0  0  0  0  0
   23.1749  -21.3971  -13.1625 N   0  0  0  0  0  0  0  0  0  0  0  0
   20.8076  -21.1855  -12.9725 C   0  0  0  0  0  0  0  0  0  0  0  0
   20.6784  -22.2558  -12.3312 O   0  0  0  0  0  0  0  0  0  0  0  0
   19.8065  -20.2303  -12.8512 O   0  0  0  0  0  0  0  0  0  0  0  0
  1  5  1  0
  2  3  1  0
  2  1  1  0
  3  4  1  0
  4  5  1  0
  5  6  1  6
  6  7  2  0
  8  9  1  0
  9 10  1  0
 10 12  1  0
 10 11  1  1
 12 14  1  0
 12 13  1  6
 13  6  1  0
 14 15  2  0
 14 20  1  0
 17 19  1  0
 17 16  1  6
 18 17  1  0
 19 21  1  0
 19 20  1  1
 21 22  2  0
 21 23  1  0
M  END
$$$$
