PIV.pdb
     RDKit          3D

 23 23  0  0  1  0  0  0  0  0999 V2000
   24.2221  -21.0818  -13.1010 N   0  0  0  0  0  0  0  0  0  0  0  0
   22.8281  -21.3741  -13.2155 C   0  0  0  0  0  0  0  0  0  0  0  0
   22.1169  -20.1703  -12.6541 C   0  0  0  0  0  0  0  0  0  0  0  0
   23.0685  -19.7795  -11.5147 C   0  0  0  0  0  0  0  0  0  0  0  0
   24.4050  -20.1897  -11.9734 C   0  0  1  0  0  0  0  0  0  0  0  0
   25.3008  -20.7497  -10.9497 C   0  0  0  0  0  0  0  0  0  0  0  0
   25.0901  -21.9544  -10.6161 O   0  0  0  0  0  0  0  0  0  0  0  0
   30.0935  -21.4732  -12.0832 C   0  0  0  0  0  0  0  0  0  0  0  0
   28.8244  -21.4199  -11.3602 C   0  0  0  0  0  0  0  0  0  0  0  0
   28.6437  -20.7974  -10.0619 C   0  0  2  0  0  0  0  0  0  0  0  0
   29.7392  -21.1487   -9.0472 C   0  0  0  0  0  0  0  0  0  0  0  0
   27.3128  -20.7404   -9.3884 C   0  0  2  0  0  0  0  0  0  0  0  0
   26.3460  -20.0907  -10.3192 N   0  0  0  0  0  0  0  0  0  0  0  0
   27.3207  -20.0325   -8.1196 C   0  0  0  0  0  0  0  0  0  0  0  0
   27.0994  -18.8082   -8.0615 O   0  0  0  0  0  0  0  0  0  0  0  0
   28.7435  -21.5954   -4.1899 C   0  0  0  0  0  0  0  0  0  0  0  0
   27.5804  -20.6883   -4.4055 C   0  0  1  0  0  0  0  0  0  0  0  0
   27.5163  -19.7018   -3.2595 C   0  0  0  0  0  0  0  0  0  0  0  0
   27.6410  -19.8883   -5.6785 C   0  0  2  0  0  0  0  0  0  0  0  0
   27.5815  -20.6890   -6.8603 N   0  0  0  0  0  0  0  0  0  0  0  0
   28.9205  -19.0893   -5.7056 C   0  0  0  0  0  0  0  0  0  0  0  0
   29.9188  -19.4790   -6.3576 O   0  0  0  0  0  0  0  0  0  0  0  0
   29.0276  -17.8944   -5.0055 O   0  0  0  0  0  0  0  0  0  0  0  0
  1  5  1  0
  2  3  1  0
  2  1  1  0
  3  4  1  0
  4  5  1  0
  5  6  1  1
  6  7  2  0
  8  9  1  0
  9 10  1  0
 10 12  1  0
 10 11  1  1
 12 14  1  0
 12 13  1  6
 13  6  1  0
 14 15  2  0
 14 20  1  0
 17 19  1  0
 17 16  1  1
 18 17  1  0
 19 21  1  0
 19 20  1  6
 21 22  2  0
 21 23  1  0
M  END
$$$$
