PIV.pdb
     RDKit          3D

 23 23  0  0  1  0  0  0  0  0999 V2000
   27.3981  -19.0794  -19.6476 N   0  0  0  0  0  0  0  0  0  0  0  0
   27.0579  -19.8335  -20.8126 C   0  0  0  0  0  0  0  0  0  0  0  0
   26.4974  -18.8333  -21.7901 C   0  0  0  0  0  0  0  0  0  0  0  0
   25.7544  -17.8858  -20.8379 C   0  0  0  0  0  0  0  0  0  0  0  0
   26.5164  -17.9310  -19.5801 C   0  0  1  0  0  0  0  0  0  0  0  0
   25.7268  -17.8973  -18.3394 C   0  0  0  0  0  0  0  0  0  0  0  0
   25.6633  -18.9802  -17.6836 O   0  0  0  0  0  0  0  0  0  0  0  0
   26.5813  -13.9940  -15.5691 C   0  0  0  0  0  0  0  0  0  0  0  0
   25.9201  -15.2800  -15.3562 C   0  0  0  0  0  0  0  0  0  0  0  0
   24.5694  -15.5906  -15.7862 C   0  0  2  0  0  0  0  0  0  0  0  0
   23.5041  -15.3496  -14.7091 C   0  0  0  0  0  0  0  0  0  0  0  0
   24.2491  -16.8232  -16.5649 C   0  0  2  0  0  0  0  0  0  0  0  0
   25.0501  -16.8023  -17.8223 N   0  0  0  0  0  0  0  0  0  0  0  0
   22.8398  -16.9719  -16.8854 C   0  0  0  0  0  0  0  0  0  0  0  0
   22.2353  -16.1126  -17.5544 O   0  0  0  0  0  0  0  0  0  0  0  0
   20.6708  -20.7382  -16.8048 C   0  0  0  0  0  0  0  0  0  0  0  0
   20.4360  -19.5240  -17.6369 C   0  0  1  0  0  0  0  0  0  0  0  0
   18.9834  -19.5010  -18.0614 C   0  0  0  0  0  0  0  0  0  0  0  0
   20.7150  -18.2230  -16.9344 C   0  0  2  0  0  0  0  0  0  0  0  0
   22.0568  -18.1070  -16.4575 N   0  0  0  0  0  0  0  0  0  0  0  0
   19.7762  -18.0770  -15.7624 C   0  0  0  0  0  0  0  0  0  0  0  0
   20.1473  -18.3391  -14.5932 O   0  0  0  0  0  0  0  0  0  0  0  0
   18.4688  -17.6461  -15.9480 O   0  0  0  0  0  0  0  0  0  0  0  0
  1  5  1  0
  2  3  1  0
  2  1  1  0
  3  4  1  0
  4  5  1  0
  5  6  1  1
  6  7  2  0
  8  9  1  0
  9 10  1  0
 10 12  1  0
 10 11  1  1
 12 14  1  0
 12 13  1  6
 13  6  1  0
 14 15  2  0
 14 20  1  0
 17 19  1  0
 17 16  1  1
 18 17  1  0
 19 21  1  0
 19 20  1  1
 21 22  2  0
 21 23  1  0
M  END
$$$$
