PIV.pdb
     RDKit          3D

 23 23  0  0  1  0  0  0  0  0999 V2000
   28.9201  -20.3089  -15.5031 N   0  0  0  0  0  0  0  0  0  0  0  0
   28.8822  -19.7300  -16.8089 C   0  0  0  0  0  0  0  0  0  0  0  0
   28.6707  -18.2545  -16.5891 C   0  0  0  0  0  0  0  0  0  0  0  0
   27.7401  -18.2761  -15.3685 C   0  0  0  0  0  0  0  0  0  0  0  0
   28.1151  -19.4870  -14.6215 C   0  0  1  0  0  0  0  0  0  0  0  0
   27.0118  -20.2367  -14.0013 C   0  0  0  0  0  0  0  0  0  0  0  0
   26.5960  -21.2526  -14.6352 O   0  0  0  0  0  0  0  0  0  0  0  0
   26.8355  -20.2741   -8.6530 C   0  0  0  0  0  0  0  0  0  0  0  0
   26.5025  -20.8877   -9.9372 C   0  0  0  0  0  0  0  0  0  0  0  0
   25.3234  -20.5672  -10.7200 C   0  0  2  0  0  0  0  0  0  0  0  0
   24.0104  -21.0490  -10.0901 C   0  0  0  0  0  0  0  0  0  0  0  0
   25.2831  -20.7449  -12.2015 C   0  0  2  0  0  0  0  0  0  0  0  0
   26.3877  -19.9407  -12.7983 N   0  0  0  0  0  0  0  0  0  0  0  0
   24.0190  -20.3661  -12.8094 C   0  0  0  0  0  0  0  0  0  0  0  0
   23.6420  -19.1791  -12.8298 O   0  0  0  0  0  0  0  0  0  0  0  0
   20.5612  -20.9388  -16.1830 C   0  0  0  0  0  0  0  0  0  0  0  0
   21.7789  -21.4185  -15.4697 C   0  0  1  0  0  0  0  0  0  0  0  0
   22.9974  -21.0451  -16.2861 C   0  0  0  0  0  0  0  0  0  0  0  0
   21.9677  -20.8345  -14.0958 C   0  0  2  0  0  0  0  0  0  0  0  0
   23.1282  -21.3236  -13.4212 N   0  0  0  0  0  0  0  0  0  0  0  0
   20.7567  -21.1443  -13.2509 C   0  0  0  0  0  0  0  0  0  0  0  0
   20.6688  -22.2166  -12.6061 O   0  0  0  0  0  0  0  0  0  0  0  0
   19.7014  -20.2454  -13.1642 O   0  0  0  0  0  0  0  0  0  0  0  0
  1  5  1  0
  2  3  1  0
  2  1  1  0
  3  4  1  0
  4  5  1  0
  5  6  1  6
  6  7  2  0
  8  9  1  0
  9 10  1  0
 10 12  1  0
 10 11  1  1
 12 14  1  0
 12 13  1  6
 13  6  1  0
 14 15  2  0
 14 20  1  0
 17 19  1  0
 17 16  1  6
 18 17  1  0
 19 21  1  0
 19 20  1  1
 21 22  2  0
 21 23  1  0
M  END
$$$$
