PIV.pdb
     RDKit          3D

 23 23  0  0  1  0  0  0  0  0999 V2000
   28.7345  -20.4517  -15.3595 N   0  0  0  0  0  0  0  0  0  0  0  0
   28.5432  -19.8069  -16.6202 C   0  0  0  0  0  0  0  0  0  0  0  0
   28.4688  -18.3340  -16.3119 C   0  0  0  0  0  0  0  0  0  0  0  0
   27.7303  -18.3588  -14.9663 C   0  0  0  0  0  0  0  0  0  0  0  0
   28.1277  -19.6265  -14.3340 C   0  0  1  0  0  0  0  0  0  0  0  0
   27.0797  -20.3364  -13.5845 C   0  0  0  0  0  0  0  0  0  0  0  0
   26.6236  -21.3919  -14.1181 O   0  0  0  0  0  0  0  0  0  0  0  0
   27.0792  -20.1914   -8.1410 C   0  0  0  0  0  0  0  0  0  0  0  0
   26.7735  -20.7125   -9.4720 C   0  0  0  0  0  0  0  0  0  0  0  0
   25.5533  -20.4301  -10.2048 C   0  0  2  0  0  0  0  0  0  0  0  0
   24.2771  -20.8803   -9.4824 C   0  0  0  0  0  0  0  0  0  0  0  0
   25.4338  -20.6796  -11.6717 C   0  0  2  0  0  0  0  0  0  0  0  0
   26.5467  -19.9642  -12.3591 N   0  0  0  0  0  0  0  0  0  0  0  0
   24.1623  -20.2673  -12.2410 C   0  0  0  0  0  0  0  0  0  0  0  0
   23.8304  -19.0674  -12.2795 O   0  0  0  0  0  0  0  0  0  0  0  0
   22.9728  -20.9419  -15.7800 C   0  0  0  0  0  0  0  0  0  0  0  0
   21.8552  -21.2323  -14.8373 C   0  0  1  0  0  0  0  0  0  0  0  0
   21.7042  -22.7330  -14.7123 C   0  0  0  0  0  0  0  0  0  0  0  0
   22.0534  -20.6878  -13.4486 C   0  0  2  0  0  0  0  0  0  0  0  0
   23.2122  -21.2047  -12.7918 N   0  0  0  0  0  0  0  0  0  0  0  0
   20.8428  -21.0109  -12.6081 C   0  0  0  0  0  0  0  0  0  0  0  0
   20.8849  -21.8913  -11.7156 O   0  0  0  0  0  0  0  0  0  0  0  0
   19.6429  -20.3384  -12.8014 O   0  0  0  0  0  0  0  0  0  0  0  0
  1  5  1  0
  2  3  1  0
  2  1  1  0
  3  4  1  0
  4  5  1  0
  5  6  1  6
  6  7  2  0
  8  9  1  0
  9 10  1  0
 10 12  1  0
 10 11  1  1
 12 14  1  0
 12 13  1  6
 13  6  1  0
 14 15  2  0
 14 20  1  0
 17 19  1  0
 17 16  1  6
 18 17  1  0
 19 21  1  0
 19 20  1  1
 21 22  2  0
 21 23  1  0
M  END
$$$$
