PIV.pdb
     RDKit          3D

 23 23  0  0  1  0  0  0  0  0999 V2000
   22.2726  -14.5886  -20.1104 N   0  0  0  0  0  0  0  0  0  0  0  0
   21.1526  -14.9548  -20.9187 C   0  0  0  0  0  0  0  0  0  0  0  0
   20.9800  -13.8266  -21.9024 C   0  0  0  0  0  0  0  0  0  0  0  0
   21.3584  -12.6226  -21.0285 C   0  0  0  0  0  0  0  0  0  0  0  0
   22.3432  -13.1416  -20.0663 C   0  0  1  0  0  0  0  0  0  0  0  0
   22.2551  -12.6132  -18.6962 C   0  0  0  0  0  0  0  0  0  0  0  0
   21.2412  -12.9655  -18.0218 O   0  0  0  0  0  0  0  0  0  0  0  0
   26.8566  -10.9402  -15.7731 C   0  0  0  0  0  0  0  0  0  0  0  0
   25.5593  -10.8150  -16.4345 C   0  0  0  0  0  0  0  0  0  0  0  0
   24.3418  -11.4644  -15.9853 C   0  0  2  0  0  0  0  0  0  0  0  0
   24.5276  -12.9400  -15.6097 C   0  0  0  0  0  0  0  0  0  0  0  0
   23.0354  -11.2671  -16.6801 C   0  0  2  0  0  0  0  0  0  0  0  0
   23.1682  -11.7729  -18.0763 N   0  0  0  0  0  0  0  0  0  0  0  0
   22.5778   -9.8883  -16.7010 C   0  0  0  0  0  0  0  0  0  0  0  0
   23.0792   -9.0530  -17.4771 O   0  0  0  0  0  0  0  0  0  0  0  0
   18.6676   -8.5833  -15.9858 C   0  0  0  0  0  0  0  0  0  0  0  0
   19.7938   -7.8607  -16.6426 C   0  0  1  0  0  0  0  0  0  0  0  0
   19.4834   -6.3794  -16.6448 C   0  0  0  0  0  0  0  0  0  0  0  0
   21.1261   -8.0352  -15.9655 C   0  0  2  0  0  0  0  0  0  0  0  0
   21.5282   -9.4002  -15.8379 N   0  0  0  0  0  0  0  0  0  0  0  0
   21.0703   -7.4220  -14.5881 C   0  0  0  0  0  0  0  0  0  0  0  0
   20.9615   -8.1343  -13.5613 O   0  0  0  0  0  0  0  0  0  0  0  0
   21.1383   -6.0449  -14.4195 O   0  0  0  0  0  0  0  0  0  0  0  0
  1  5  1  0
  2  3  1  0
  2  1  1  0
  3  4  1  0
  4  5  1  0
  5  6  1  1
  6  7  2  0
  8  9  1  0
  9 10  1  0
 10 12  1  0
 10 11  1  6
 12 14  1  0
 12 13  1  6
 13  6  1  0
 14 15  2  0
 14 20  1  0
 17 19  1  0
 17 16  1  1
 18 17  1  0
 19 21  1  0
 19 20  1  1
 21 22  2  0
 21 23  1  0
M  END
$$$$
