PIV.pdb
     RDKit          3D

 23 23  0  0  1  0  0  0  0  0999 V2000
   28.8694  -20.4878  -15.0480 N   0  0  0  0  0  0  0  0  0  0  0  0
   28.7797  -19.8659  -16.3314 C   0  0  0  0  0  0  0  0  0  0  0  0
   28.6419  -18.3911  -16.0554 C   0  0  0  0  0  0  0  0  0  0  0  0
   27.7833  -18.4157  -14.7830 C   0  0  0  0  0  0  0  0  0  0  0  0
   28.1511  -19.6638  -14.0962 C   0  0  1  0  0  0  0  0  0  0  0  0
   27.0558  -20.3894  -13.4345 C   0  0  0  0  0  0  0  0  0  0  0  0
   26.6544  -21.4464  -14.0077 O   0  0  0  0  0  0  0  0  0  0  0  0
   26.8033  -20.2820   -8.0284 C   0  0  0  0  0  0  0  0  0  0  0  0
   26.5586  -20.8214   -9.3646 C   0  0  0  0  0  0  0  0  0  0  0  0
   25.3635  -20.5669  -10.1475 C   0  0  2  0  0  0  0  0  0  0  0  0
   24.0714  -21.0644   -9.4872 C   0  0  0  0  0  0  0  0  0  0  0  0
   25.3161  -20.8016  -11.6209 C   0  0  2  0  0  0  0  0  0  0  0  0
   26.4249  -20.0305  -12.2523 N   0  0  0  0  0  0  0  0  0  0  0  0
   24.0528  -20.4361  -12.2385 C   0  0  0  0  0  0  0  0  0  0  0  0
   23.6603  -19.2541  -12.2559 O   0  0  0  0  0  0  0  0  0  0  0  0
   20.5297  -21.1388  -15.5601 C   0  0  0  0  0  0  0  0  0  0  0  0
   21.7265  -21.6414  -14.8272 C   0  0  1  0  0  0  0  0  0  0  0  0
   22.9428  -21.4719  -15.7118 C   0  0  0  0  0  0  0  0  0  0  0  0
   22.0127  -20.9253  -13.5351 C   0  0  2  0  0  0  0  0  0  0  0  0
   23.1806  -21.4019  -12.8640 N   0  0  0  0  0  0  0  0  0  0  0  0
   20.8323  -21.0773  -12.6079 C   0  0  0  0  0  0  0  0  0  0  0  0
   20.6735  -22.1136  -11.9192 O   0  0  0  0  0  0  0  0  0  0  0  0
   19.8849  -20.0682  -12.4916 O   0  0  0  0  0  0  0  0  0  0  0  0
  1  5  1  0
  2  3  1  0
  2  1  1  0
  3  4  1  0
  4  5  1  0
  5  6  1  6
  6  7  2  0
  8  9  1  0
  9 10  1  0
 10 12  1  0
 10 11  1  1
 12 14  1  0
 12 13  1  6
 13  6  1  0
 14 15  2  0
 14 20  1  0
 17 19  1  0
 17 16  1  6
 18 17  1  0
 19 21  1  0
 19 20  1  1
 21 22  2  0
 21 23  1  0
M  END
$$$$
