PIV.pdb
     RDKit          3D

 23 23  0  0  1  0  0  0  0  0999 V2000
   21.3119  -12.4115  -18.6620 N   0  0  0  0  0  0  0  0  0  0  0  0
   22.4831  -12.2463  -19.4638 C   0  0  0  0  0  0  0  0  0  0  0  0
   23.6388  -12.2669  -18.4974 C   0  0  0  0  0  0  0  0  0  0  0  0
   23.0197  -11.5436  -17.2932 C   0  0  0  0  0  0  0  0  0  0  0  0
   21.5857  -11.8688  -17.3462 C   0  0  1  0  0  0  0  0  0  0  0  0
   20.6593  -10.7873  -16.9773 C   0  0  0  0  0  0  0  0  0  0  0  0
   20.1406  -10.1398  -17.9357 O   0  0  0  0  0  0  0  0  0  0  0  0
   16.2371  -11.6551  -14.5923 C   0  0  0  0  0  0  0  0  0  0  0  0
   17.2955  -10.9203  -15.2824 C   0  0  0  0  0  0  0  0  0  0  0  0
   18.1691   -9.9496  -14.6496 C   0  0  2  0  0  0  0  0  0  0  0  0
   17.4259   -8.8885  -13.8281 C   0  0  0  0  0  0  0  0  0  0  0  0
   19.3226   -9.3335  -15.3693 C   0  0  2  0  0  0  0  0  0  0  0  0
   20.3016  -10.4111  -15.6909 N   0  0  0  0  0  0  0  0  0  0  0  0
   19.9867   -8.2753  -14.6276 C   0  0  0  0  0  0  0  0  0  0  0  0
   20.5601   -8.5061  -13.5462 O   0  0  0  0  0  0  0  0  0  0  0  0
   21.7699   -4.9854  -16.4895 C   0  0  0  0  0  0  0  0  0  0  0  0
   22.0566   -5.5271  -15.1307 C   0  0  1  0  0  0  0  0  0  0  0  0
   22.7258   -4.4462  -14.3095 C   0  0  0  0  0  0  0  0  0  0  0  0
   20.8393   -5.9756  -14.3685 C   0  0  2  0  0  0  0  0  0  0  0  0
   20.0266   -6.9066  -15.0856 N   0  0  0  0  0  0  0  0  0  0  0  0
   19.9967   -4.7733  -14.0210 C   0  0  0  0  0  0  0  0  0  0  0  0
   18.9289   -4.5271  -14.6314 O   0  0  0  0  0  0  0  0  0  0  0  0
   20.3832   -3.9023  -13.0103 O   0  0  0  0  0  0  0  0  0  0  0  0
  1  5  1  0
  2  3  1  0
  2  1  1  0
  3  4  1  0
  4  5  1  0
  5  6  1  6
  6  7  2  0
  8  9  1  0
  9 10  1  0
 10 12  1  0
 10 11  1  6
 12 14  1  0
 12 13  1  1
 13  6  1  0
 14 15  2  0
 14 20  1  0
 17 19  1  0
 17 16  1  6
 18 17  1  0
 19 21  1  0
 19 20  1  6
 21 22  2  0
 21 23  1  0
M  END
$$$$
