LYG.pdb
     RDKit          3D

 25 25  0  0  1  0  0  0  0  0999 V2000
    8.0027  -14.6746   18.9968 C   0  0  0  0  0  0  0  0  0  0  0  0
    7.8862  -13.7579   20.1654 C   0  0  2  0  0  0  0  0  0  0  0  0
    8.2919  -12.3488   19.7319 C   0  0  0  0  0  0  0  0  0  0  0  0
    8.7789  -14.1305   21.3242 C   0  0  0  0  0  0  0  0  0  0  0  0
    8.4485  -15.4678   21.9144 C   0  0  2  0  0  0  0  0  0  0  0  0
    7.0554  -15.6405   22.2024 N   0  0  0  0  0  0  0  0  0  0  0  0
    9.2111  -15.6014   23.1834 C   0  0  0  0  0  0  0  0  0  0  0  0
   10.4856  -15.5172   23.1999 O   0  0  0  0  0  0  0  0  0  0  0  0
    4.9496  -11.3727   26.2566 O   0  0  0  0  0  0  0  0  0  0  0  0
    6.0668  -12.1983   26.2788 C   0  0  0  0  0  0  0  0  0  0  0  0
    5.9498  -13.5376   26.5557 C   0  0  0  0  0  0  0  0  0  0  0  0
    7.0681  -14.3776   26.5806 C   0  0  0  0  0  0  0  0  0  0  0  0
    8.3274  -13.8890   26.3279 C   0  0  0  0  0  0  0  0  0  0  0  0
    9.5401  -14.7403   26.3484 C   0  0  0  0  0  0  0  0  0  0  0  0
    9.3734  -16.0501   25.6301 C   0  0  2  0  0  0  0  0  0  0  0  0
    8.5888  -15.8260   24.4310 N   0  0  0  0  0  0  0  0  0  0  0  0
    8.7583  -17.0962   26.4779 C   0  0  0  0  0  0  0  0  0  0  0  0
    9.1366  -17.3263   27.6478 O   0  0  0  0  0  0  0  0  0  0  0  0
    8.4338  -12.5305   26.0485 C   0  0  0  0  0  0  0  0  0  0  0  0
    7.3324  -11.7035   26.0240 C   0  0  0  0  0  0  0  0  0  0  0  0
    7.6875  -17.8793   25.9439 N   0  0  0  0  0  0  0  0  0  0  0  0
    7.0471  -18.9204   26.6937 C   0  0  0  0  0  0  0  0  0  0  0  0
    7.7390  -20.2054   26.5737 C   0  0  0  0  0  0  0  0  0  0  0  0
    7.0454  -21.3900   26.7544 O   0  0  0  0  0  0  0  0  0  0  0  0
    8.9594  -20.2527   26.3078 O   0  0  0  0  0  0  0  0  0  0  0  0
  2  1  1  6
  2  3  1  0
  4  5  1  0
  4  2  1  0
  5  7  1  0
  5  6  1  1
  7  8  2  0
  9 10  1  0
 10 11  2  0
 10 20  1  0
 11 12  1  0
 12 13  2  0
 13 14  1  0
 15 14  1  1
 16  7  1  0
 16 15  1  0
 17 15  1  0
 17 18  2  0
 19 13  1  0
 20 19  2  0
 21 22  1  0
 21 17  1  0
 23 22  1  0
 24 23  1  0
 25 23  2  0
M  END
$$$$
