LYG.pdb
     RDKit          3D

 25 25  0  0  1  0  0  0  0  0999 V2000
    8.2642  -14.3084   18.4997 C   0  0  0  0  0  0  0  0  0  0  0  0
    7.5735  -13.7349   19.6887 C   0  0  2  0  0  0  0  0  0  0  0  0
    7.3100  -12.2494   19.4397 C   0  0  0  0  0  0  0  0  0  0  0  0
    8.3763  -13.8266   20.9636 C   0  0  0  0  0  0  0  0  0  0  0  0
    8.7163  -15.2357   21.3441 C   0  0  2  0  0  0  0  0  0  0  0  0
    7.5983  -16.1308   21.2913 N   0  0  0  0  0  0  0  0  0  0  0  0
    9.2358  -15.2139   22.7367 C   0  0  0  0  0  0  0  0  0  0  0  0
   10.2013  -14.4466   23.0694 O   0  0  0  0  0  0  0  0  0  0  0  0
    5.6752  -10.7710   26.8977 O   0  0  0  0  0  0  0  0  0  0  0  0
    6.2308  -12.0267   26.6865 C   0  0  0  0  0  0  0  0  0  0  0  0
    5.5217  -13.0147   26.0499 C   0  0  0  0  0  0  0  0  0  0  0  0
    6.0717  -14.2823   25.8322 C   0  0  0  0  0  0  0  0  0  0  0  0
    7.3458  -14.5836   26.2499 C   0  0  0  0  0  0  0  0  0  0  0  0
    7.9667  -15.9134   26.0451 C   0  0  0  0  0  0  0  0  0  0  0  0
    9.1625  -15.8904   25.1348 C   0  0  2  0  0  0  0  0  0  0  0  0
    8.7063  -16.0247   23.7646 N   0  0  0  0  0  0  0  0  0  0  0  0
   10.1574  -16.9351   25.4668 C   0  0  0  0  0  0  0  0  0  0  0  0
   10.5462  -17.1506   26.6360 O   0  0  0  0  0  0  0  0  0  0  0  0
    8.0548  -13.5747   26.8936 C   0  0  0  0  0  0  0  0  0  0  0  0
    7.5130  -12.3264   27.1079 C   0  0  0  0  0  0  0  0  0  0  0  0
   10.7004  -17.7343   24.4124 N   0  0  0  0  0  0  0  0  0  0  0  0
   11.5955  -18.8272   24.6579 C   0  0  0  0  0  0  0  0  0  0  0  0
   12.0353  -19.4807   23.4233 C   0  0  0  0  0  0  0  0  0  0  0  0
   12.4031  -20.8154   23.4340 O   0  0  0  0  0  0  0  0  0  0  0  0
   12.0852  -18.8473   22.3468 O   0  0  0  0  0  0  0  0  0  0  0  0
  2  1  1  6
  2  3  1  0
  4  5  1  0
  4  2  1  0
  5  7  1  0
  5  6  1  1
  7  8  2  0
  9 10  1  0
 10 11  2  0
 10 20  1  0
 11 12  1  0
 12 13  2  0
 13 14  1  0
 15 14  1  1
 16  7  1  0
 16 15  1  0
 17 15  1  0
 17 18  2  0
 19 13  1  0
 20 19  2  0
 21 22  1  0
 21 17  1  0
 23 22  1  0
 24 23  1  0
 25 23  2  0
M  END
$$$$
