LYG.pdb
     RDKit          3D

 25 25  0  0  1  0  0  0  0  0999 V2000
    8.1107  -12.1889   19.3406 C   0  0  0  0  0  0  0  0  0  0  0  0
    8.0905  -13.5968   19.8274 C   0  0  2  0  0  0  0  0  0  0  0  0
    6.6427  -14.0875   19.8638 C   0  0  0  0  0  0  0  0  0  0  0  0
    8.6431  -13.7681   21.2216 C   0  0  0  0  0  0  0  0  0  0  0  0
    8.9552  -15.1945   21.5590 C   0  0  2  0  0  0  0  0  0  0  0  0
    7.8037  -16.0475   21.5705 N   0  0  0  0  0  0  0  0  0  0  0  0
    9.5681  -15.2138   22.9130 C   0  0  0  0  0  0  0  0  0  0  0  0
   10.6143  -14.5290   23.1742 O   0  0  0  0  0  0  0  0  0  0  0  0
    5.8562  -10.6652   26.3309 O   0  0  0  0  0  0  0  0  0  0  0  0
    6.4758  -11.9087   26.3163 C   0  0  0  0  0  0  0  0  0  0  0  0
    5.8392  -13.0089   25.7981 C   0  0  0  0  0  0  0  0  0  0  0  0
    6.4540  -14.2652   25.7785 C   0  0  0  0  0  0  0  0  0  0  0  0
    7.7213  -14.4422   26.2796 C   0  0  0  0  0  0  0  0  0  0  0  0
    8.4090  -15.7548   26.2840 C   0  0  0  0  0  0  0  0  0  0  0  0
    9.5650  -15.8367   25.3267 C   0  0  2  0  0  0  0  0  0  0  0  0
    9.0444  -15.9761   23.9802 N   0  0  0  0  0  0  0  0  0  0  0  0
   10.5012  -16.9371   25.6494 C   0  0  0  0  0  0  0  0  0  0  0  0
   11.0987  -17.0162   26.7455 O   0  0  0  0  0  0  0  0  0  0  0  0
    8.3566  -13.3204   26.8019 C   0  0  0  0  0  0  0  0  0  0  0  0
    7.7511  -12.0832   26.8210 C   0  0  0  0  0  0  0  0  0  0  0  0
   10.7368  -17.9547   24.6726 N   0  0  0  0  0  0  0  0  0  0  0  0
   11.6516  -19.0365   24.8934 C   0  0  0  0  0  0  0  0  0  0  0  0
   11.0484  -20.1362   25.6493 C   0  0  0  0  0  0  0  0  0  0  0  0
   11.7996  -21.2529   25.9745 O   0  0  0  0  0  0  0  0  0  0  0  0
    9.8530  -20.0842   26.0108 O   0  0  0  0  0  0  0  0  0  0  0  0
  2  1  1  1
  2  3  1  0
  4  5  1  0
  4  2  1  0
  5  7  1  0
  5  6  1  1
  7  8  2  0
  9 10  1  0
 10 11  2  0
 10 20  1  0
 11 12  1  0
 12 13  2  0
 13 14  1  0
 15 14  1  1
 16  7  1  0
 16 15  1  0
 17 15  1  0
 17 18  2  0
 19 13  1  0
 20 19  2  0
 21 22  1  0
 21 17  1  0
 23 22  1  0
 24 23  1  0
 25 23  2  0
M  END
$$$$
