LYG.pdb
     RDKit          3D

 25 25  0  0  1  0  0  0  0  0999 V2000
    8.0142  -14.2636   18.5042 C   0  0  0  0  0  0  0  0  0  0  0  0
    7.6748  -13.6120   19.8002 C   0  0  2  0  0  0  0  0  0  0  0  0
    7.6145  -12.0982   19.5928 C   0  0  0  0  0  0  0  0  0  0  0  0
    8.6870  -13.8615   20.8919 C   0  0  0  0  0  0  0  0  0  0  0  0
    8.7809  -15.3038   21.2879 C   0  0  2  0  0  0  0  0  0  0  0  0
    7.5399  -16.0119   21.1777 N   0  0  0  0  0  0  0  0  0  0  0  0
    9.2267  -15.3542   22.7050 C   0  0  0  0  0  0  0  0  0  0  0  0
   10.2649  -14.7195   23.0937 O   0  0  0  0  0  0  0  0  0  0  0  0
    6.1569  -10.5762   26.9456 O   0  0  0  0  0  0  0  0  0  0  0  0
    6.5563  -11.8859   26.7097 C   0  0  0  0  0  0  0  0  0  0  0  0
    7.8155  -12.3125   27.0509 C   0  0  0  0  0  0  0  0  0  0  0  0
    8.2276  -13.6288   26.8177 C   0  0  0  0  0  0  0  0  0  0  0  0
    7.3829  -14.5437   26.2365 C   0  0  0  0  0  0  0  0  0  0  0  0
    7.7782  -15.9460   25.9664 C   0  0  0  0  0  0  0  0  0  0  0  0
    8.9845  -16.0755   25.0789 C   0  0  2  0  0  0  0  0  0  0  0  0
    8.5450  -16.0930   23.6968 N   0  0  0  0  0  0  0  0  0  0  0  0
    9.8013  -17.2701   25.3903 C   0  0  0  0  0  0  0  0  0  0  0  0
   10.2618  -17.4949   26.5314 O   0  0  0  0  0  0  0  0  0  0  0  0
    6.1095  -14.1001   25.8951 C   0  0  0  0  0  0  0  0  0  0  0  0
    5.7038  -12.8039   26.1249 C   0  0  0  0  0  0  0  0  0  0  0  0
   10.0791  -18.2098   24.3487 N   0  0  0  0  0  0  0  0  0  0  0  0
   10.8819  -19.3789   24.5606 C   0  0  0  0  0  0  0  0  0  0  0  0
   10.9994  -20.2048   23.3571 C   0  0  0  0  0  0  0  0  0  0  0  0
   10.8768  -21.5813   23.4416 O   0  0  0  0  0  0  0  0  0  0  0  0
   11.2111  -19.6831   22.2411 O   0  0  0  0  0  0  0  0  0  0  0  0
  2  1  1  6
  2  3  1  0
  4  5  1  0
  4  2  1  0
  5  7  1  0
  5  6  1  1
  7  8  2  0
  9 10  1  0
 10 11  2  0
 10 20  1  0
 11 12  1  0
 12 13  2  0
 13 14  1  0
 15 14  1  1
 16  7  1  0
 16 15  1  0
 17 15  1  0
 17 18  2  0
 19 13  1  0
 20 19  2  0
 21 22  1  0
 21 17  1  0
 23 22  1  0
 24 23  1  0
 25 23  2  0
M  END
$$$$
