LYG.pdb
     RDKit          3D

 25 25  0  0  1  0  0  0  0  0999 V2000
    8.1934  -14.3968   18.2348 C   0  0  0  0  0  0  0  0  0  0  0  0
    7.6567  -13.7651   19.4727 C   0  0  2  0  0  0  0  0  0  0  0  0
    7.4815  -12.2659   19.2279 C   0  0  0  0  0  0  0  0  0  0  0  0
    8.5623  -13.9071   20.6719 C   0  0  0  0  0  0  0  0  0  0  0  0
    8.8308  -15.3348   21.0400 C   0  0  2  0  0  0  0  0  0  0  0  0
    7.6572  -16.1572   21.0456 N   0  0  0  0  0  0  0  0  0  0  0  0
    9.4190  -15.3456   22.4051 C   0  0  0  0  0  0  0  0  0  0  0  0
   10.4233  -14.6124   22.6972 O   0  0  0  0  0  0  0  0  0  0  0  0
    5.8506  -10.8545   26.2451 O   0  0  0  0  0  0  0  0  0  0  0  0
    6.4314  -12.1105   26.1212 C   0  0  0  0  0  0  0  0  0  0  0  0
    5.7157  -13.1743   25.6310 C   0  0  0  0  0  0  0  0  0  0  0  0
    6.2910  -14.4428   25.5022 C   0  0  0  0  0  0  0  0  0  0  0  0
    7.5974  -14.6688   25.8635 C   0  0  0  0  0  0  0  0  0  0  0  0
    8.2461  -15.9962   25.7491 C   0  0  0  0  0  0  0  0  0  0  0  0
    9.4154  -16.0201   24.8049 C   0  0  2  0  0  0  0  0  0  0  0  0
    8.9159  -16.1519   23.4496 N   0  0  0  0  0  0  0  0  0  0  0  0
   10.3854  -17.0934   25.1188 C   0  0  0  0  0  0  0  0  0  0  0  0
   10.7081  -17.3909   26.2902 O   0  0  0  0  0  0  0  0  0  0  0  0
    8.3128  -13.5836   26.3588 C   0  0  0  0  0  0  0  0  0  0  0  0
    7.7462  -12.3343   26.4855 C   0  0  0  0  0  0  0  0  0  0  0  0
   10.9818  -17.8239   24.0437 N   0  0  0  0  0  0  0  0  0  0  0  0
   11.9245  -18.8821   24.2619 C   0  0  0  0  0  0  0  0  0  0  0  0
   12.4483  -19.4340   23.0106 C   0  0  0  0  0  0  0  0  0  0  0  0
   13.2743  -20.5449   23.0307 O   0  0  0  0  0  0  0  0  0  0  0  0
   12.1595  -18.9138   21.9114 O   0  0  0  0  0  0  0  0  0  0  0  0
  2  1  1  6
  2  3  1  0
  4  5  1  0
  4  2  1  0
  5  7  1  0
  5  6  1  1
  7  8  2  0
  9 10  1  0
 10 11  2  0
 10 20  1  0
 11 12  1  0
 12 13  2  0
 13 14  1  0
 15 14  1  1
 16  7  1  0
 16 15  1  0
 17 15  1  0
 17 18  2  0
 19 13  1  0
 20 19  2  0
 21 22  1  0
 21 17  1  0
 23 22  1  0
 24 23  1  0
 25 23  2  0
M  END
$$$$
