LYG.pdb
     RDKit          3D

 25 25  0  0  1  0  0  0  0  0999 V2000
    8.0655  -12.5053   19.2560 C   0  0  0  0  0  0  0  0  0  0  0  0
    8.0157  -13.8582   19.8778 C   0  0  2  0  0  0  0  0  0  0  0  0
    6.5579  -14.2165   20.1684 C   0  0  0  0  0  0  0  0  0  0  0  0
    8.7570  -13.9544   21.1892 C   0  0  0  0  0  0  0  0  0  0  0  0
    8.9886  -15.3675   21.6313 C   0  0  2  0  0  0  0  0  0  0  0  0
    7.8138  -16.1864   21.5766 N   0  0  0  0  0  0  0  0  0  0  0  0
    9.4685  -15.3270   23.0376 C   0  0  0  0  0  0  0  0  0  0  0  0
   10.4839  -14.6264   23.3690 O   0  0  0  0  0  0  0  0  0  0  0  0
    5.6618  -10.8416   26.4219 O   0  0  0  0  0  0  0  0  0  0  0  0
    6.2915  -12.0801   26.4195 C   0  0  0  0  0  0  0  0  0  0  0  0
    7.4892  -12.2646   27.0641 C   0  0  0  0  0  0  0  0  0  0  0  0
    8.1315  -13.5073   27.0679 C   0  0  0  0  0  0  0  0  0  0  0  0
    7.5835  -14.5904   26.4237 C   0  0  0  0  0  0  0  0  0  0  0  0
    8.2306  -15.9232   26.3973 C   0  0  0  0  0  0  0  0  0  0  0  0
    9.3769  -16.0215   25.4299 C   0  0  2  0  0  0  0  0  0  0  0  0
    8.8455  -16.0469   24.0807 N   0  0  0  0  0  0  0  0  0  0  0  0
   10.2415  -17.1966   25.6811 C   0  0  0  0  0  0  0  0  0  0  0  0
   10.7779  -17.4160   26.7896 O   0  0  0  0  0  0  0  0  0  0  0  0
    6.3697  -14.3916   25.7740 C   0  0  0  0  0  0  0  0  0  0  0  0
    5.7373  -13.1678   25.7705 C   0  0  0  0  0  0  0  0  0  0  0  0
   10.4772  -18.1228   24.6173 N   0  0  0  0  0  0  0  0  0  0  0  0
   11.1973  -19.3479   24.8089 C   0  0  0  0  0  0  0  0  0  0  0  0
   12.6242  -19.2131   24.5084 C   0  0  0  0  0  0  0  0  0  0  0  0
   13.4619  -20.3120   24.5961 O   0  0  0  0  0  0  0  0  0  0  0  0
   13.1055  -18.1103   24.1699 O   0  0  0  0  0  0  0  0  0  0  0  0
  2  1  1  1
  2  3  1  0
  4  5  1  0
  4  2  1  0
  5  7  1  0
  5  6  1  1
  7  8  2  0
  9 10  1  0
 10 11  2  0
 10 20  1  0
 11 12  1  0
 12 13  2  0
 13 14  1  0
 15 14  1  1
 16  7  1  0
 16 15  1  0
 17 15  1  0
 17 18  2  0
 19 13  1  0
 20 19  2  0
 21 22  1  0
 21 17  1  0
 23 22  1  0
 24 23  1  0
 25 23  2  0
M  END
$$$$
