LYG.pdb
     RDKit          3D

 25 25  0  0  1  0  0  0  0  0999 V2000
    8.2912  -12.2508   19.2774 C   0  0  0  0  0  0  0  0  0  0  0  0
    7.9926  -13.6538   19.6798 C   0  0  2  0  0  0  0  0  0  0  0  0
    6.5121  -13.9380   19.4238 C   0  0  0  0  0  0  0  0  0  0  0  0
    8.2432  -13.9355   21.1414 C   0  0  0  0  0  0  0  0  0  0  0  0
    8.8502  -15.2840   21.3845 C   0  0  2  0  0  0  0  0  0  0  0  0
    7.8950  -16.3524   21.3854 N   0  0  0  0  0  0  0  0  0  0  0  0
    9.5148  -15.2464   22.7136 C   0  0  0  0  0  0  0  0  0  0  0  0
   10.4644  -14.4265   22.9541 O   0  0  0  0  0  0  0  0  0  0  0  0
    5.5937  -11.1302   26.4845 O   0  0  0  0  0  0  0  0  0  0  0  0
    6.3260  -12.3074   26.3947 C   0  0  0  0  0  0  0  0  0  0  0  0
    7.6696  -12.3265   26.6752 C   0  0  0  0  0  0  0  0  0  0  0  0
    8.4161  -13.5062   26.5879 C   0  0  0  0  0  0  0  0  0  0  0  0
    7.8279  -14.6915   26.2168 C   0  0  0  0  0  0  0  0  0  0  0  0
    8.5802  -15.9634   26.1063 C   0  0  0  0  0  0  0  0  0  0  0  0
    9.7017  -15.9194   25.1065 C   0  0  2  0  0  0  0  0  0  0  0  0
    9.1475  -16.0984   23.7782 N   0  0  0  0  0  0  0  0  0  0  0  0
   10.7553  -16.9225   25.3805 C   0  0  0  0  0  0  0  0  0  0  0  0
   11.2461  -17.0932   26.5184 O   0  0  0  0  0  0  0  0  0  0  0  0
    6.4662  -14.6601   25.9351 C   0  0  0  0  0  0  0  0  0  0  0  0
    5.7311  -13.4982   26.0211 C   0  0  0  0  0  0  0  0  0  0  0  0
   11.2363  -17.7331   24.3049 N   0  0  0  0  0  0  0  0  0  0  0  0
   12.1142  -18.8475   24.5139 C   0  0  0  0  0  0  0  0  0  0  0  0
   12.3987  -19.5775   23.2767 C   0  0  0  0  0  0  0  0  0  0  0  0
   13.6483  -20.1360   23.0687 O   0  0  0  0  0  0  0  0  0  0  0  0
   11.5229  -19.7070   22.3943 O   0  0  0  0  0  0  0  0  0  0  0  0
  2  1  1  1
  2  3  1  0
  4  5  1  0
  4  2  1  0
  5  7  1  0
  5  6  1  1
  7  8  2  0
  9 10  1  0
 10 11  2  0
 10 20  1  0
 11 12  1  0
 12 13  2  0
 13 14  1  0
 15 14  1  1
 16  7  1  0
 16 15  1  0
 17 15  1  0
 17 18  2  0
 19 13  1  0
 20 19  2  0
 21 22  1  0
 21 17  1  0
 23 22  1  0
 24 23  1  0
 25 23  2  0
M  END
$$$$
