LYG.pdb
     RDKit          3D

 25 25  0  0  1  0  0  0  0  0999 V2000
    7.9643  -12.3149   19.0723 C   0  0  0  0  0  0  0  0  0  0  0  0
    7.9702  -13.6970   19.6284 C   0  0  2  0  0  0  0  0  0  0  0  0
    6.5277  -14.1324   19.8887 C   0  0  0  0  0  0  0  0  0  0  0  0
    8.7063  -13.8235   20.9402 C   0  0  0  0  0  0  0  0  0  0  0  0
    8.9778  -15.2457   21.3271 C   0  0  2  0  0  0  0  0  0  0  0  0
    7.8258  -16.0939   21.2431 N   0  0  0  0  0  0  0  0  0  0  0  0
    9.4606  -15.2461   22.7330 C   0  0  0  0  0  0  0  0  0  0  0  0
   10.4667  -14.5427   23.0859 O   0  0  0  0  0  0  0  0  0  0  0  0
    5.9166  -10.6913   26.8845 O   0  0  0  0  0  0  0  0  0  0  0  0
    6.4370  -11.9615   26.6696 C   0  0  0  0  0  0  0  0  0  0  0  0
    5.6942  -12.9328   26.0462 C   0  0  0  0  0  0  0  0  0  0  0  0
    6.2086  -14.2147   25.8250 C   0  0  0  0  0  0  0  0  0  0  0  0
    7.4803  -14.5471   26.2259 C   0  0  0  0  0  0  0  0  0  0  0  0
    8.0642  -15.8930   26.0168 C   0  0  0  0  0  0  0  0  0  0  0  0
    9.2799  -15.8957   25.1329 C   0  0  2  0  0  0  0  0  0  0  0  0
    8.8504  -16.0098   23.7522 N   0  0  0  0  0  0  0  0  0  0  0  0
   10.2398  -16.9680   25.4795 C   0  0  0  0  0  0  0  0  0  0  0  0
   10.7536  -17.0735   26.6151 O   0  0  0  0  0  0  0  0  0  0  0  0
    8.2237  -13.5549   26.8564 C   0  0  0  0  0  0  0  0  0  0  0  0
    7.7170  -12.2925   27.0741 C   0  0  0  0  0  0  0  0  0  0  0  0
   10.5987  -17.9257   24.4799 N   0  0  0  0  0  0  0  0  0  0  0  0
   11.4587  -19.0397   24.7549 C   0  0  0  0  0  0  0  0  0  0  0  0
   11.7285  -19.8478   23.5639 C   0  0  0  0  0  0  0  0  0  0  0  0
   12.4824  -21.0049   23.6628 O   0  0  0  0  0  0  0  0  0  0  0  0
   11.2851  -19.5077   22.4458 O   0  0  0  0  0  0  0  0  0  0  0  0
  2  1  1  1
  2  3  1  0
  4  5  1  0
  4  2  1  0
  5  7  1  0
  5  6  1  1
  7  8  2  0
  9 10  1  0
 10 11  2  0
 10 20  1  0
 11 12  1  0
 12 13  2  0
 13 14  1  0
 15 14  1  1
 16  7  1  0
 16 15  1  0
 17 15  1  0
 17 18  2  0
 19 13  1  0
 20 19  2  0
 21 22  1  0
 21 17  1  0
 23 22  1  0
 24 23  1  0
 25 23  2  0
M  END
$$$$
