LYG.pdb
     RDKit          3D

 25 25  0  0  1  0  0  0  0  0999 V2000
    9.2529  -15.0601   16.1751 C   0  0  0  0  0  0  0  0  0  0  0  0
    8.0877  -14.5338   16.9400 C   0  0  2  0  0  0  0  0  0  0  0  0
    7.5322  -13.3076   16.2147 C   0  0  0  0  0  0  0  0  0  0  0  0
    8.4281  -14.0923   18.3427 C   0  0  0  0  0  0  0  0  0  0  0  0
    8.9506  -15.2058   19.1989 C   0  0  2  0  0  0  0  0  0  0  0  0
    8.1086  -16.3654   19.2105 N   0  0  0  0  0  0  0  0  0  0  0  0
    9.0618  -14.6916   20.5891 C   0  0  0  0  0  0  0  0  0  0  0  0
    9.9081  -13.7840   20.8918 O   0  0  0  0  0  0  0  0  0  0  0  0
    6.8824  -11.9539   28.6680 O   0  0  0  0  0  0  0  0  0  0  0  0
    6.9030  -12.5548   27.4155 C   0  0  0  0  0  0  0  0  0  0  0  0
    6.9067  -13.9215   27.2879 C   0  0  0  0  0  0  0  0  0  0  0  0
    6.9274  -14.5366   26.0317 C   0  0  0  0  0  0  0  0  0  0  0  0
    6.9448  -13.7909   24.8775 C   0  0  0  0  0  0  0  0  0  0  0  0
    6.9719  -14.3994   23.5266 C   0  0  0  0  0  0  0  0  0  0  0  0
    8.3576  -14.5970   22.9785 C   0  0  2  0  0  0  0  0  0  0  0  0
    8.2544  -15.1635   21.6473 N   0  0  0  0  0  0  0  0  0  0  0  0
    9.2049  -15.4422   23.8498 C   0  0  0  0  0  0  0  0  0  0  0  0
    9.4218  -15.1694   25.0512 O   0  0  0  0  0  0  0  0  0  0  0  0
    6.9407  -12.4072   25.0190 C   0  0  0  0  0  0  0  0  0  0  0  0
    6.9203  -11.8016   26.2562 C   0  0  0  0  0  0  0  0  0  0  0  0
    9.8029  -16.6202   23.3021 N   0  0  0  0  0  0  0  0  0  0  0  0
   10.6442  -17.4868   24.0749 C   0  0  0  0  0  0  0  0  0  0  0  0
   12.0593  -17.1205   23.9863 C   0  0  0  0  0  0  0  0  0  0  0  0
   12.7100  -17.1431   22.7644 O   0  0  0  0  0  0  0  0  0  0  0  0
   12.6983  -16.7837   25.0065 O   0  0  0  0  0  0  0  0  0  0  0  0
  2  1  1  6
  2  3  1  0
  4  5  1  0
  4  2  1  0
  5  7  1  0
  5  6  1  1
  7  8  2  0
  9 10  1  0
 10 11  2  0
 10 20  1  0
 11 12  1  0
 12 13  2  0
 13 14  1  0
 15 14  1  1
 16  7  1  0
 16 15  1  0
 17 15  1  0
 17 18  2  0
 19 13  1  0
 20 19  2  0
 21 22  1  0
 21 17  1  0
 23 22  1  0
 24 23  1  0
 25 23  2  0
M  END
$$$$
