LYG.pdb
     RDKit          3D

 25 25  0  0  1  0  0  0  0  0999 V2000
    8.3333  -19.8629   18.4207 C   0  0  0  0  0  0  0  0  0  0  0  0
    8.3269  -18.4168   18.0623 C   0  0  2  0  0  0  0  0  0  0  0  0
    9.1779  -18.2136   16.8082 C   0  0  0  0  0  0  0  0  0  0  0  0
    8.9056  -17.5212   19.1306 C   0  0  0  0  0  0  0  0  0  0  0  0
    8.2293  -16.1861   19.2082 C   0  0  2  0  0  0  0  0  0  0  0  0
    8.5803  -15.3010   18.1371 N   0  0  0  0  0  0  0  0  0  0  0  0
    8.6288  -15.5522   20.4920 C   0  0  0  0  0  0  0  0  0  0  0  0
    9.6659  -14.8103   20.5676 O   0  0  0  0  0  0  0  0  0  0  0  0
    7.3254  -11.6978   28.3785 O   0  0  0  0  0  0  0  0  0  0  0  0
    7.1997  -12.3806   27.1751 C   0  0  0  0  0  0  0  0  0  0  0  0
    6.4431  -11.8706   26.1495 C   0  0  0  0  0  0  0  0  0  0  0  0
    6.3099  -12.5499   24.9340 C   0  0  0  0  0  0  0  0  0  0  0  0
    6.9342  -13.7560   24.7238 C   0  0  0  0  0  0  0  0  0  0  0  0
    6.8172  -14.5125   23.4550 C   0  0  0  0  0  0  0  0  0  0  0  0
    8.1406  -14.8740   22.8406 C   0  0  2  0  0  0  0  0  0  0  0  0
    7.9021  -15.7249   21.6905 N   0  0  0  0  0  0  0  0  0  0  0  0
    9.0606  -15.5255   23.8000 C   0  0  0  0  0  0  0  0  0  0  0  0
    9.3482  -15.0221   24.9084 O   0  0  0  0  0  0  0  0  0  0  0  0
    7.6981  -14.2628   25.7699 C   0  0  0  0  0  0  0  0  0  0  0  0
    7.8292  -13.5937   26.9669 C   0  0  0  0  0  0  0  0  0  0  0  0
    9.6481  -16.7820   23.4518 N   0  0  0  0  0  0  0  0  0  0  0  0
   10.4535  -17.5354   24.3683 C   0  0  0  0  0  0  0  0  0  0  0  0
   11.8292  -17.0395   24.4450 C   0  0  0  0  0  0  0  0  0  0  0  0
   12.8742  -17.8042   23.9549 O   0  0  0  0  0  0  0  0  0  0  0  0
   12.0803  -15.9245   24.9513 O   0  0  0  0  0  0  0  0  0  0  0  0
  2  1  1  1
  2  3  1  0
  4  5  1  0
  4  2  1  0
  5  7  1  0
  5  6  1  6
  7  8  2  0
  9 10  1  0
 10 11  2  0
 10 20  1  0
 11 12  1  0
 12 13  2  0
 13 14  1  0
 15 14  1  1
 16  7  1  0
 16 15  1  0
 17 15  1  0
 17 18  2  0
 19 13  1  0
 20 19  2  0
 21 22  1  0
 21 17  1  0
 23 22  1  0
 24 23  1  0
 25 23  2  0
M  END
$$$$
