LYG.pdb
     RDKit          3D

 25 25  0  0  1  0  0  0  0  0999 V2000
    8.0113  -14.4406   17.9790 C   0  0  0  0  0  0  0  0  0  0  0  0
    7.2050  -14.0485   19.1689 C   0  0  2  0  0  0  0  0  0  0  0  0
    6.5446  -12.6966   18.8960 C   0  0  0  0  0  0  0  0  0  0  0  0
    8.0178  -13.8888   20.4307 C   0  0  0  0  0  0  0  0  0  0  0  0
    8.6836  -15.1590   20.8658 C   0  0  2  0  0  0  0  0  0  0  0  0
    7.7765  -16.2564   21.0293 N   0  0  0  0  0  0  0  0  0  0  0  0
    9.3451  -14.8973   22.1710 C   0  0  0  0  0  0  0  0  0  0  0  0
   10.2363  -13.9898   22.2894 O   0  0  0  0  0  0  0  0  0  0  0  0
   11.1320  -15.0663   30.8842 O   0  0  0  0  0  0  0  0  0  0  0  0
   10.5548  -15.1503   29.6232 C   0  0  0  0  0  0  0  0  0  0  0  0
   10.3644  -14.0272   28.8574 C   0  0  0  0  0  0  0  0  0  0  0  0
    9.7842  -14.1008   27.5866 C   0  0  0  0  0  0  0  0  0  0  0  0
    9.3831  -15.3047   27.0591 C   0  0  0  0  0  0  0  0  0  0  0  0
    8.7600  -15.4292   25.7204 C   0  0  0  0  0  0  0  0  0  0  0  0
    9.7442  -15.3697   24.5858 C   0  0  2  0  0  0  0  0  0  0  0  0
    9.0379  -15.6208   23.3442 N   0  0  0  0  0  0  0  0  0  0  0  0
   10.8724  -16.3133   24.7538 C   0  0  0  0  0  0  0  0  0  0  0  0
   11.6387  -16.2810   25.7420 O   0  0  0  0  0  0  0  0  0  0  0  0
    9.5811  -16.4359   27.8440 C   0  0  0  0  0  0  0  0  0  0  0  0
   10.1526  -16.3632   29.0954 C   0  0  0  0  0  0  0  0  0  0  0  0
   11.1012  -17.3049   23.7490 N   0  0  0  0  0  0  0  0  0  0  0  0
   12.0968  -18.3272   23.8892 C   0  0  0  0  0  0  0  0  0  0  0  0
   13.4313  -17.8685   23.4978 C   0  0  0  0  0  0  0  0  0  0  0  0
   13.9902  -18.2887   22.3028 O   0  0  0  0  0  0  0  0  0  0  0  0
   14.0830  -17.0948   24.2321 O   0  0  0  0  0  0  0  0  0  0  0  0
  2  1  1  6
  2  3  1  0
  4  5  1  0
  4  2  1  0
  5  7  1  0
  5  6  1  1
  7  8  2  0
  9 10  1  0
 10 11  2  0
 10 20  1  0
 11 12  1  0
 12 13  2  0
 13 14  1  0
 15 14  1  1
 16  7  1  0
 16 15  1  0
 17 15  1  0
 17 18  2  0
 19 13  1  0
 20 19  2  0
 21 22  1  0
 21 17  1  0
 23 22  1  0
 24 23  1  0
 25 23  2  0
M  END
$$$$
