LYG.pdb
     RDKit          3D

 25 25  0  0  1  0  0  0  0  0999 V2000
    7.8411  -14.6356   18.6245 C   0  0  0  0  0  0  0  0  0  0  0  0
    7.6251  -13.8375   19.8639 C   0  0  2  0  0  0  0  0  0  0  0  0
    7.6162  -12.3521   19.5012 C   0  0  0  0  0  0  0  0  0  0  0  0
    8.7018  -14.0246   20.9052 C   0  0  0  0  0  0  0  0  0  0  0  0
    8.7950  -15.4334   21.4078 C   0  0  2  0  0  0  0  0  0  0  0  0
    7.5350  -16.1151   21.4440 N   0  0  0  0  0  0  0  0  0  0  0  0
    9.3428  -15.3841   22.7887 C   0  0  0  0  0  0  0  0  0  0  0  0
   10.4395  -14.7805   23.0430 O   0  0  0  0  0  0  0  0  0  0  0  0
    5.8691  -10.4594   26.5969 O   0  0  0  0  0  0  0  0  0  0  0  0
    6.3890  -11.7435   26.4915 C   0  0  0  0  0  0  0  0  0  0  0  0
    5.5856  -12.8056   26.1590 C   0  0  0  0  0  0  0  0  0  0  0  0
    6.0990  -14.1023   26.0503 C   0  0  0  0  0  0  0  0  0  0  0  0
    7.4305  -14.3587   26.2737 C   0  0  0  0  0  0  0  0  0  0  0  0
    8.0165  -15.7161   26.1747 C   0  0  0  0  0  0  0  0  0  0  0  0
    9.1917  -15.8025   25.2415 C   0  0  2  0  0  0  0  0  0  0  0  0
    8.6993  -15.9899   23.8902 N   0  0  0  0  0  0  0  0  0  0  0  0
   10.1423  -16.8749   25.6126 C   0  0  0  0  0  0  0  0  0  0  0  0
   10.8005  -16.8559   26.6761 O   0  0  0  0  0  0  0  0  0  0  0  0
    8.2349  -13.2748   26.6098 C   0  0  0  0  0  0  0  0  0  0  0  0
    7.7292  -11.9979   26.7168 C   0  0  0  0  0  0  0  0  0  0  0  0
   10.3203  -17.9806   24.7233 N   0  0  0  0  0  0  0  0  0  0  0  0
   11.2471  -19.0417   24.9905 C   0  0  0  0  0  0  0  0  0  0  0  0
   10.7544  -19.9748   26.0059 C   0  0  0  0  0  0  0  0  0  0  0  0
   11.5628  -21.0040   26.4576 O   0  0  0  0  0  0  0  0  0  0  0  0
    9.6030  -19.8574   26.4780 O   0  0  0  0  0  0  0  0  0  0  0  0
  2  1  1  6
  2  3  1  0
  4  5  1  0
  4  2  1  0
  5  7  1  0
  5  6  1  1
  7  8  2  0
  9 10  1  0
 10 11  2  0
 10 20  1  0
 11 12  1  0
 12 13  2  0
 13 14  1  0
 15 14  1  1
 16  7  1  0
 16 15  1  0
 17 15  1  0
 17 18  2  0
 19 13  1  0
 20 19  2  0
 21 22  1  0
 21 17  1  0
 23 22  1  0
 24 23  1  0
 25 23  2  0
M  END
$$$$
