LYG.pdb
     RDKit          3D

 25 25  0  0  1  0  0  0  0  0999 V2000
    8.3247  -14.3465   18.5882 C   0  0  0  0  0  0  0  0  0  0  0  0
    7.6268  -13.7871   19.7797 C   0  0  2  0  0  0  0  0  0  0  0  0
    7.2961  -12.3177   19.5154 C   0  0  0  0  0  0  0  0  0  0  0  0
    8.4507  -13.8270   21.0437 C   0  0  0  0  0  0  0  0  0  0  0  0
    8.7633  -15.2205   21.4979 C   0  0  2  0  0  0  0  0  0  0  0  0
    7.6202  -16.0842   21.5305 N   0  0  0  0  0  0  0  0  0  0  0  0
    9.3249  -15.1318   22.8714 C   0  0  0  0  0  0  0  0  0  0  0  0
   10.2934  -14.3432   23.1392 O   0  0  0  0  0  0  0  0  0  0  0  0
    5.9685  -10.4630   26.5340 O   0  0  0  0  0  0  0  0  0  0  0  0
    6.5291  -11.7324   26.4670 C   0  0  0  0  0  0  0  0  0  0  0  0
    5.8746  -12.7611   25.8366 C   0  0  0  0  0  0  0  0  0  0  0  0
    6.4301  -14.0428   25.7634 C   0  0  0  0  0  0  0  0  0  0  0  0
    7.6551  -14.3175   26.3225 C   0  0  0  0  0  0  0  0  0  0  0  0
    8.2793  -15.6606   26.2735 C   0  0  0  0  0  0  0  0  0  0  0  0
    9.4013  -15.7716   25.2795 C   0  0  2  0  0  0  0  0  0  0  0  0
    8.8342  -15.8991   23.9506 N   0  0  0  0  0  0  0  0  0  0  0  0
   10.3201  -16.8945   25.5733 C   0  0  0  0  0  0  0  0  0  0  0  0
   10.9980  -16.9557   26.6228 O   0  0  0  0  0  0  0  0  0  0  0  0
    8.3091  -13.2674   26.9585 C   0  0  0  0  0  0  0  0  0  0  0  0
    7.7619  -12.0053   27.0303 C   0  0  0  0  0  0  0  0  0  0  0  0
   10.4426  -17.9560   24.6229 N   0  0  0  0  0  0  0  0  0  0  0  0
   11.3724  -19.0348   24.7894 C   0  0  0  0  0  0  0  0  0  0  0  0
   11.0707  -19.8599   25.9610 C   0  0  0  0  0  0  0  0  0  0  0  0
   11.9238  -20.8866   26.3287 O   0  0  0  0  0  0  0  0  0  0  0  0
   10.0445  -19.6514   26.6434 O   0  0  0  0  0  0  0  0  0  0  0  0
  2  1  1  6
  2  3  1  0
  4  5  1  0
  4  2  1  0
  5  7  1  0
  5  6  1  1
  7  8  2  0
  9 10  1  0
 10 11  2  0
 10 20  1  0
 11 12  1  0
 12 13  2  0
 13 14  1  0
 15 14  1  1
 16  7  1  0
 16 15  1  0
 17 15  1  0
 17 18  2  0
 19 13  1  0
 20 19  2  0
 21 22  1  0
 21 17  1  0
 23 22  1  0
 24 23  1  0
 25 23  2  0
M  END
$$$$
