LYG.pdb
     RDKit          3D

 25 25  0  0  1  0  0  0  0  0999 V2000
    8.7970  -14.6537   18.9734 C   0  0  0  0  0  0  0  0  0  0  0  0
    7.4871  -14.0575   19.3585 C   0  0  2  0  0  0  0  0  0  0  0  0
    7.3639  -12.6755   18.7159 C   0  0  0  0  0  0  0  0  0  0  0  0
    7.3197  -13.8622   20.8459 C   0  0  0  0  0  0  0  0  0  0  0  0
    7.3661  -15.1468   21.6163 C   0  0  2  0  0  0  0  0  0  0  0  0
    6.0737  -15.7118   21.8697 N   0  0  0  0  0  0  0  0  0  0  0  0
    8.0208  -14.8666   22.9211 C   0  0  0  0  0  0  0  0  0  0  0  0
    7.4891  -14.0739   23.7700 O   0  0  0  0  0  0  0  0  0  0  0  0
   10.8123  -14.8585   30.9740 O   0  0  0  0  0  0  0  0  0  0  0  0
   10.3414  -15.0324   29.6785 C   0  0  0  0  0  0  0  0  0  0  0  0
    9.9798  -13.9556   28.9080 C   0  0  0  0  0  0  0  0  0  0  0  0
    9.5045  -14.1197   27.6026 C   0  0  0  0  0  0  0  0  0  0  0  0
    9.3826  -15.3696   27.0445 C   0  0  0  0  0  0  0  0  0  0  0  0
    8.8796  -15.5909   25.6683 C   0  0  0  0  0  0  0  0  0  0  0  0
    9.8431  -15.1671   24.5953 C   0  0  2  0  0  0  0  0  0  0  0  0
    9.2506  -15.4473   23.3014 N   0  0  0  0  0  0  0  0  0  0  0  0
   11.1674  -15.8161   24.7233 C   0  0  0  0  0  0  0  0  0  0  0  0
   11.8473  -15.7629   25.7720 O   0  0  0  0  0  0  0  0  0  0  0  0
    9.7521  -16.4531   27.8345 C   0  0  0  0  0  0  0  0  0  0  0  0
   10.2202  -16.2913   29.1200 C   0  0  0  0  0  0  0  0  0  0  0  0
   11.6971  -16.5350   23.6063 N   0  0  0  0  0  0  0  0  0  0  0  0
   12.9875  -17.1597   23.6348 C   0  0  0  0  0  0  0  0  0  0  0  0
   14.0772  -16.1910   23.7716 C   0  0  0  0  0  0  0  0  0  0  0  0
   15.3924  -16.5949   23.6165 O   0  0  0  0  0  0  0  0  0  0  0  0
   13.8384  -14.9914   24.0291 O   0  0  0  0  0  0  0  0  0  0  0  0
  2  1  1  1
  2  3  1  0
  4  5  1  0
  4  2  1  0
  5  7  1  0
  5  6  1  1
  7  8  2  0
  9 10  1  0
 10 11  2  0
 10 20  1  0
 11 12  1  0
 12 13  2  0
 13 14  1  0
 15 14  1  1
 16  7  1  0
 16 15  1  0
 17 15  1  0
 17 18  2  0
 19 13  1  0
 20 19  2  0
 21 22  1  0
 21 17  1  0
 23 22  1  0
 24 23  1  0
 25 23  2  0
M  END
$$$$
