IYK.pdb
     RDKit          3D

 30 30  0  0  1  0  0  0  0  0999 V2000
   16.8328  -14.9605  -16.1165 C   0  0  0  0  0  0  0  0  0  0  0  0
   17.4996  -14.6889  -17.4295 C   0  0  0  0  0  0  0  0  0  0  0  0
   18.6723  -13.7451  -17.2730 C   0  0  2  0  0  0  0  0  0  0  0  0
   18.2432  -12.4185  -16.6880 C   0  0  0  0  0  0  0  0  0  0  0  0
   19.3132  -13.5192  -18.6263 C   0  0  2  0  0  0  0  0  0  0  0  0
   19.7966  -14.7431  -19.1855 N   0  0  0  0  0  0  0  0  0  0  0  0
   20.3781  -12.5080  -18.4355 C   0  0  0  0  0  0  0  0  0  0  0  0
   21.5092  -12.8323  -17.9981 O   0  0  0  0  0  0  0  0  0  0  0  0
   24.8058  -12.8052  -23.1458 O   0  0  0  0  0  0  0  0  0  0  0  0
   23.9934  -11.9946  -22.3563 C   0  0  0  0  0  0  0  0  0  0  0  0
   24.4994  -10.9910  -21.5683 C   0  0  0  0  0  0  0  0  0  0  0  0
   23.6838  -10.1982  -20.7933 C   0  0  0  0  0  0  0  0  0  0  0  0
   22.2994  -10.3755  -20.7700 C   0  0  0  0  0  0  0  0  0  0  0  0
   21.4918   -9.5394  -19.8918 C   0  0  0  0  0  0  0  0  0  0  0  0
   21.1912  -10.1559  -18.5611 C   0  0  2  0  0  0  0  0  0  0  0  0
   20.1212  -11.1677  -18.7476 N   0  0  0  0  0  0  0  0  0  0  0  0
   20.6384   -9.1782  -17.6205 C   0  0  0  0  0  0  0  0  0  0  0  0
   19.4215   -8.8149  -17.7844 O   0  0  0  0  0  0  0  0  0  0  0  0
   21.8158  -11.3875  -21.5683 C   0  0  0  0  0  0  0  0  0  0  0  0
   22.6291  -12.1843  -22.3463 C   0  0  0  0  0  0  0  0  0  0  0  0
   21.3145   -8.5862  -16.5237 N   0  0  0  0  0  0  0  0  0  0  0  0
   20.5996   -7.5616  -15.7591 C   0  0  1  0  0  0  0  0  0  0  0  0
   20.2667   -8.1703  -14.3787 C   0  0  0  0  0  0  0  0  0  0  0  0
   18.7955   -8.0980  -14.1789 C   0  0  0  0  0  0  0  0  0  0  0  0
   18.2654   -8.5233  -12.8567 C   0  0  0  0  0  0  0  0  0  0  0  0
   16.7883   -8.5992  -12.8158 C   0  0  0  0  0  0  0  0  0  0  0  0
   16.2902   -9.1079  -11.5808 N   0  0  0  0  0  0  0  0  0  0  0  0
   21.3893   -6.3385  -15.6531 C   0  0  0  0  0  0  0  0  0  0  0  0
   22.5855   -6.3241  -16.1076 O   0  0  0  0  0  0  0  0  0  0  0  0
   20.9713   -5.1389  -15.0967 O   0  0  0  0  0  0  0  0  0  0  0  0
  2  3  1  0
  2  1  1  0
  3  4  1  6
  5  3  1  0
  5  6  1  1
  7  5  1  0
  8  7  2  0
  9 10  1  0
 10 20  2  0
 10 11  1  0
 11 12  2  0
 12 13  1  0
 13 14  1  0
 15 14  1  6
 15 16  1  0
 16  7  1  0
 17 15  1  0
 17 18  2  0
 19 13  2  0
 20 19  1  0
 21 17  1  0
 22 21  1  0
 22 28  1  0
 22 23  1  1
 24 23  1  0
 25 24  1  0
 26 25  1  0
 26 27  1  0
 28 29  2  0
 28 30  1  0
M  END
$$$$
