IYK.pdb
     RDKit          3D

 30 30  0  0  1  0  0  0  0  0999 V2000
   27.5753  -18.9463  -17.7752 C   0  0  0  0  0  0  0  0  0  0  0  0
   28.1430  -19.4042  -16.4674 C   0  0  0  0  0  0  0  0  0  0  0  0
   27.0573  -19.8765  -15.5247 C   0  0  2  0  0  0  0  0  0  0  0  0
   26.0533  -18.7821  -15.2410 C   0  0  0  0  0  0  0  0  0  0  0  0
   27.6895  -20.3338  -14.2269 C   0  0  2  0  0  0  0  0  0  0  0  0
   28.7023  -21.3163  -14.4576 N   0  0  0  0  0  0  0  0  0  0  0  0
   26.5920  -20.8239  -13.3619 C   0  0  0  0  0  0  0  0  0  0  0  0
   26.1171  -21.9767  -13.5079 O   0  0  0  0  0  0  0  0  0  0  0  0
   29.5224  -21.1274   -6.9140 O   0  0  0  0  0  0  0  0  0  0  0  0
   28.4291  -20.7898   -7.7083 C   0  0  0  0  0  0  0  0  0  0  0  0
   28.1083  -21.4807   -8.8502 C   0  0  0  0  0  0  0  0  0  0  0  0
   27.0245  -21.1351   -9.6251 C   0  0  0  0  0  0  0  0  0  0  0  0
   26.1965  -20.0631   -9.2879 C   0  0  0  0  0  0  0  0  0  0  0  0
   25.0938  -19.7125  -10.1732 C   0  0  0  0  0  0  0  0  0  0  0  0
   25.0409  -20.5138  -11.4365 C   0  0  2  0  0  0  0  0  0  0  0  0
   26.0743  -19.9894  -12.3643 N   0  0  0  0  0  0  0  0  0  0  0  0
   23.7672  -20.3394  -12.1390 C   0  0  0  0  0  0  0  0  0  0  0  0
   23.7461  -19.5530  -13.1493 O   0  0  0  0  0  0  0  0  0  0  0  0
   26.5381  -19.3862   -8.1388 C   0  0  0  0  0  0  0  0  0  0  0  0
   27.6229  -19.7288   -7.3595 C   0  0  0  0  0  0  0  0  0  0  0  0
   22.5350  -20.9647  -11.8206 N   0  0  0  0  0  0  0  0  0  0  0  0
   21.4832  -20.9494  -12.8398 C   0  0  1  0  0  0  0  0  0  0  0  0
   22.0185  -21.7297  -14.0611 C   0  0  0  0  0  0  0  0  0  0  0  0
   20.9793  -21.7039  -15.1237 C   0  0  0  0  0  0  0  0  0  0  0  0
   20.9221  -22.8657  -16.0495 C   0  0  0  0  0  0  0  0  0  0  0  0
   19.9532  -22.6867  -17.1533 C   0  0  0  0  0  0  0  0  0  0  0  0
   19.9039  -23.8031  -18.0385 N   0  0  0  0  0  0  0  0  0  0  0  0
   20.2401  -21.5114  -12.3206 C   0  0  0  0  0  0  0  0  0  0  0  0
   19.1289  -20.9447  -12.6070 O   0  0  0  0  0  0  0  0  0  0  0  0
   20.1211  -22.6395  -11.5228 O   0  0  0  0  0  0  0  0  0  0  0  0
  2  3  1  0
  2  1  1  0
  3  4  1  1
  5  3  1  0
  5  6  1  6
  7  5  1  0
  8  7  2  0
  9 10  1  0
 10 20  2  0
 10 11  1  0
 11 12  2  0
 12 13  1  0
 13 14  1  0
 15 14  1  1
 15 16  1  0
 16  7  1  0
 17 15  1  0
 17 18  2  0
 19 13  2  0
 20 19  1  0
 21 17  1  0
 22 21  1  0
 22 28  1  0
 22 23  1  6
 24 23  1  0
 25 24  1  0
 26 25  1  0
 26 27  1  0
 28 29  2  0
 28 30  1  0
M  END
$$$$
