IYK.pdb
     RDKit          3D

 30 30  0  0  1  0  0  0  0  0999 V2000
   18.3720  -12.0521  -19.0985 C   0  0  0  0  0  0  0  0  0  0  0  0
   19.8657  -12.1548  -19.0756 C   0  0  0  0  0  0  0  0  0  0  0  0
   20.4643  -11.3091  -17.9724 C   0  0  2  0  0  0  0  0  0  0  0  0
   20.1185   -9.8472  -18.1434 C   0  0  0  0  0  0  0  0  0  0  0  0
   21.9692  -11.4783  -17.9768 C   0  0  2  0  0  0  0  0  0  0  0  0
   22.3402  -12.8529  -17.8453 N   0  0  0  0  0  0  0  0  0  0  0  0
   22.5019  -10.6269  -16.8885 C   0  0  0  0  0  0  0  0  0  0  0  0
   22.4488  -10.9977  -15.6904 O   0  0  0  0  0  0  0  0  0  0  0  0
   28.2983  -13.0015  -16.9456 O   0  0  0  0  0  0  0  0  0  0  0  0
   27.5324  -11.8422  -16.8471 C   0  0  0  0  0  0  0  0  0  0  0  0
   27.3691  -11.1669  -15.6632 C   0  0  0  0  0  0  0  0  0  0  0  0
   26.6090  -10.0224  -15.5816 C   0  0  0  0  0  0  0  0  0  0  0  0
   25.9653   -9.4906  -16.7002 C   0  0  0  0  0  0  0  0  0  0  0  0
   25.1329   -8.3053  -16.5430 C   0  0  0  0  0  0  0  0  0  0  0  0
   23.7244   -8.5938  -16.1262 C   0  0  2  0  0  0  0  0  0  0  0  0
   23.0746   -9.3878  -17.1990 N   0  0  0  0  0  0  0  0  0  0  0  0
   22.9276   -7.3694  -16.0156 C   0  0  0  0  0  0  0  0  0  0  0  0
   22.1237   -7.0925  -16.9731 O   0  0  0  0  0  0  0  0  0  0  0  0
   26.1441  -10.1849  -17.8754 C   0  0  0  0  0  0  0  0  0  0  0  0
   26.9046  -11.3320  -17.9620 C   0  0  0  0  0  0  0  0  0  0  0  0
   22.9445   -6.4454  -14.9402 N   0  0  0  0  0  0  0  0  0  0  0  0
   21.9672   -5.3548  -14.9674 C   0  0  1  0  0  0  0  0  0  0  0  0
   20.5633   -5.9994  -14.9919 C   0  0  0  0  0  0  0  0  0  0  0  0
   19.7656   -5.3406  -16.0592 C   0  0  0  0  0  0  0  0  0  0  0  0
   18.3943   -5.8599  -16.3042 C   0  0  0  0  0  0  0  0  0  0  0  0
   17.6874   -5.1530  -17.3950 C   0  0  0  0  0  0  0  0  0  0  0  0
   16.3835   -5.6729  -17.6432 N   0  0  0  0  0  0  0  0  0  0  0  0
   22.1489   -4.4579  -13.8301 C   0  0  0  0  0  0  0  0  0  0  0  0
   22.6582   -4.9138  -12.7482 O   0  0  0  0  0  0  0  0  0  0  0  0
   21.8230   -3.1106  -13.7889 O   0  0  0  0  0  0  0  0  0  0  0  0
  2  3  1  0
  2  1  1  0
  3  4  1  6
  5  3  1  0
  5  6  1  1
  7  5  1  0
  8  7  2  0
  9 10  1  0
 10 20  2  0
 10 11  1  0
 11 12  2  0
 12 13  1  0
 13 14  1  0
 15 14  1  6
 15 16  1  0
 16  7  1  0
 17 15  1  0
 17 18  2  0
 19 13  2  0
 20 19  1  0
 21 17  1  0
 22 21  1  0
 22 28  1  0
 22 23  1  1
 24 23  1  0
 25 24  1  0
 26 25  1  0
 26 27  1  0
 28 29  2  0
 28 30  1  0
M  END
$$$$
