IYK.pdb
     RDKit          3D

 30 30  0  0  1  0  0  0  0  0999 V2000
   26.7805  -20.5447  -20.8857 C   0  0  0  0  0  0  0  0  0  0  0  0
   27.7492  -20.7389  -19.7604 C   0  0  0  0  0  0  0  0  0  0  0  0
   27.0436  -21.1338  -18.4811 C   0  0  2  0  0  0  0  0  0  0  0  0
   26.0518  -20.0789  -18.0454 C   0  0  0  0  0  0  0  0  0  0  0  0
   28.0724  -21.3443  -17.3900 C   0  0  2  0  0  0  0  0  0  0  0  0
   29.0122  -22.3606  -17.7480 N   0  0  0  0  0  0  0  0  0  0  0  0
   27.3269  -21.6546  -16.1487 C   0  0  0  0  0  0  0  0  0  0  0  0
   26.7261  -22.7481  -16.0094 O   0  0  0  0  0  0  0  0  0  0  0  0
   24.7191  -20.7383   -7.6805 O   0  0  0  0  0  0  0  0  0  0  0  0
   25.3181  -20.6078   -8.9313 C   0  0  0  0  0  0  0  0  0  0  0  0
   25.9371  -21.6573   -9.5634 C   0  0  0  0  0  0  0  0  0  0  0  0
   26.5249  -21.5130  -10.7996 C   0  0  0  0  0  0  0  0  0  0  0  0
   26.5208  -20.2903  -11.4730 C   0  0  0  0  0  0  0  0  0  0  0  0
   27.2027  -20.1848  -12.7561 C   0  0  0  0  0  0  0  0  0  0  0  0
   26.6425  -21.0707  -13.8249 C   0  0  2  0  0  0  0  0  0  0  0  0
   27.2905  -20.7144  -15.1121 N   0  0  0  0  0  0  0  0  0  0  0  0
   25.2121  -20.8338  -14.0341 C   0  0  0  0  0  0  0  0  0  0  0  0
   24.8645  -19.7316  -14.5856 O   0  0  0  0  0  0  0  0  0  0  0  0
   25.8941  -19.2533  -10.8194 C   0  0  0  0  0  0  0  0  0  0  0  0
   25.3040  -19.3933   -9.5809 C   0  0  0  0  0  0  0  0  0  0  0  0
   24.1522  -21.7120  -13.6935 N   0  0  0  0  0  0  0  0  0  0  0  0
   22.7828  -21.2257  -13.8766 C   0  0  1  0  0  0  0  0  0  0  0  0
   21.8543  -22.4605  -13.8699 C   0  0  0  0  0  0  0  0  0  0  0  0
   20.4643  -22.0009  -14.1273 C   0  0  0  0  0  0  0  0  0  0  0  0
   19.3886  -23.0262  -14.0858 C   0  0  0  0  0  0  0  0  0  0  0  0
   18.0460  -22.4775  -14.3783 C   0  0  0  0  0  0  0  0  0  0  0  0
   17.0075  -23.4452  -14.2470 N   0  0  0  0  0  0  0  0  0  0  0  0
   22.4274  -20.2556  -12.8454 C   0  0  0  0  0  0  0  0  0  0  0  0
   22.7407  -20.4931  -11.6275 O   0  0  0  0  0  0  0  0  0  0  0  0
   21.7654  -19.0533  -13.0446 O   0  0  0  0  0  0  0  0  0  0  0  0
  2  3  1  0
  2  1  1  0
  3  4  1  1
  5  3  1  0
  5  6  1  6
  7  5  1  0
  8  7  2  0
  9 10  1  0
 10 20  2  0
 10 11  1  0
 11 12  2  0
 12 13  1  0
 13 14  1  0
 15 14  1  1
 15 16  1  0
 16  7  1  0
 17 15  1  0
 17 18  2  0
 19 13  2  0
 20 19  1  0
 21 17  1  0
 22 21  1  0
 22 28  1  0
 22 23  1  1
 24 23  1  0
 25 24  1  0
 26 25  1  0
 26 27  1  0
 28 29  2  0
 28 30  1  0
M  END
$$$$
