IYK.pdb
     RDKit          3D

 30 30  0  0  1  0  0  0  0  0999 V2000
   20.9912  -14.6599  -18.8154 C   0  0  0  0  0  0  0  0  0  0  0  0
   22.3891  -15.1341  -19.0673 C   0  0  0  0  0  0  0  0  0  0  0  0
   22.5206  -16.6242  -18.8378 C   0  0  2  0  0  0  0  0  0  0  0  0
   21.6079  -17.4098  -19.7521 C   0  0  0  0  0  0  0  0  0  0  0  0
   22.1845  -16.9369  -17.3947 C   0  0  2  0  0  0  0  0  0  0  0  0
   23.1155  -16.3257  -16.4979 N   0  0  0  0  0  0  0  0  0  0  0  0
   22.1433  -18.4120  -17.2715 C   0  0  0  0  0  0  0  0  0  0  0  0
   21.5233  -19.1152  -18.1064 O   0  0  0  0  0  0  0  0  0  0  0  0
   24.7691  -26.5609  -14.8998 O   0  0  0  0  0  0  0  0  0  0  0  0
   24.5933  -25.1881  -15.0570 C   0  0  0  0  0  0  0  0  0  0  0  0
   25.0485  -24.5099  -16.1603 C   0  0  0  0  0  0  0  0  0  0  0  0
   24.8674  -23.1528  -16.3014 C   0  0  0  0  0  0  0  0  0  0  0  0
   24.2110  -22.3975  -15.3283 C   0  0  0  0  0  0  0  0  0  0  0  0
   24.0934  -20.9565  -15.5085 C   0  0  0  0  0  0  0  0  0  0  0  0
   22.7926  -20.5154  -16.1037 C   0  0  2  0  0  0  0  0  0  0  0  0
   22.8062  -19.0346  -16.2072 N   0  0  0  0  0  0  0  0  0  0  0  0
   21.6594  -20.8310  -15.2306 C   0  0  0  0  0  0  0  0  0  0  0  0
   21.5346  -20.1577  -14.1486 O   0  0  0  0  0  0  0  0  0  0  0  0
   23.7636  -23.0995  -14.2319 C   0  0  0  0  0  0  0  0  0  0  0  0
   23.9428  -24.4590  -14.0861 C   0  0  0  0  0  0  0  0  0  0  0  0
   20.6633  -21.8133  -15.4620 N   0  0  0  0  0  0  0  0  0  0  0  0
   19.6163  -21.9692  -14.4498 C   0  0  1  0  0  0  0  0  0  0  0  0
   18.4450  -22.7251  -15.1161 C   0  0  0  0  0  0  0  0  0  0  0  0
   17.3597  -22.8823  -14.1126 C   0  0  0  0  0  0  0  0  0  0  0  0
   16.1919  -23.7183  -14.4968 C   0  0  0  0  0  0  0  0  0  0  0  0
   15.1096  -23.7099  -13.4881 C   0  0  0  0  0  0  0  0  0  0  0  0
   13.9548  -24.4354  -13.9034 N   0  0  0  0  0  0  0  0  0  0  0  0
   20.1255  -22.6602  -13.2691 C   0  0  0  0  0  0  0  0  0  0  0  0
   19.6874  -22.3301  -12.1128 O   0  0  0  0  0  0  0  0  0  0  0  0
   21.0659  -23.6794  -13.2580 O   0  0  0  0  0  0  0  0  0  0  0  0
  2  3  1  0
  2  1  1  0
  3  4  1  6
  5  3  1  0
  5  6  1  1
  7  5  1  0
  8  7  2  0
  9 10  1  0
 10 20  2  0
 10 11  1  0
 11 12  2  0
 12 13  1  0
 13 14  1  0
 15 14  1  1
 15 16  1  0
 16  7  1  0
 17 15  1  0
 17 18  2  0
 19 13  2  0
 20 19  1  0
 21 17  1  0
 22 21  1  0
 22 28  1  0
 22 23  1  6
 24 23  1  0
 25 24  1  0
 26 25  1  0
 26 27  1  0
 28 29  2  0
 28 30  1  0
M  END
$$$$
