IYK.pdb
     RDKit          3D

 30 30  0  0  1  0  0  0  0  0999 V2000
   27.9666  -20.2031   -7.0168 C   0  0  0  0  0  0  0  0  0  0  0  0
   27.4104  -21.1145   -8.0667 C   0  0  0  0  0  0  0  0  0  0  0  0
   26.4324  -20.3927   -8.9683 C   0  0  2  0  0  0  0  0  0  0  0  0
   25.2135  -19.9261   -8.2048 C   0  0  0  0  0  0  0  0  0  0  0  0
   26.0062  -21.3221  -10.0853 C   0  0  2  0  0  0  0  0  0  0  0  0
   27.1160  -22.0617  -10.6008 N   0  0  0  0  0  0  0  0  0  0  0  0
   25.3393  -20.4869  -11.1103 C   0  0  0  0  0  0  0  0  0  0  0  0
   24.4191  -19.6914  -10.8000 O   0  0  0  0  0  0  0  0  0  0  0  0
   24.5031  -15.0838  -17.8211 O   0  0  0  0  0  0  0  0  0  0  0  0
   24.8925  -16.1637  -17.0321 C   0  0  0  0  0  0  0  0  0  0  0  0
   24.2482  -17.3750  -17.0737 C   0  0  0  0  0  0  0  0  0  0  0  0
   24.6446  -18.4331  -16.2877 C   0  0  0  0  0  0  0  0  0  0  0  0
   25.7230  -18.3269  -15.4079 C   0  0  0  0  0  0  0  0  0  0  0  0
   26.0650  -19.4644  -14.5642 C   0  0  0  0  0  0  0  0  0  0  0  0
   25.0779  -19.7395  -13.4730 C   0  0  2  0  0  0  0  0  0  0  0  0
   25.7402  -20.5846  -12.4480 N   0  0  0  0  0  0  0  0  0  0  0  0
   23.9430  -20.5322  -13.9525 C   0  0  0  0  0  0  0  0  0  0  0  0
   24.1249  -21.7872  -14.1301 O   0  0  0  0  0  0  0  0  0  0  0  0
   26.3530  -17.1031  -15.3841 C   0  0  0  0  0  0  0  0  0  0  0  0
   25.9593  -16.0402  -16.1696 C   0  0  0  0  0  0  0  0  0  0  0  0
   22.6395  -20.0532  -14.2384 N   0  0  0  0  0  0  0  0  0  0  0  0
   21.5991  -21.0449  -14.5208 C   0  0  1  0  0  0  0  0  0  0  0  0
   20.5781  -20.9788  -13.3631 C   0  0  0  0  0  0  0  0  0  0  0  0
   19.4587  -21.9060  -13.6743 C   0  0  0  0  0  0  0  0  0  0  0  0
   18.3612  -22.0085  -12.6768 C   0  0  0  0  0  0  0  0  0  0  0  0
   17.3089  -22.9745  -13.0624 C   0  0  0  0  0  0  0  0  0  0  0  0
   16.3728  -23.2259  -12.0171 N   0  0  0  0  0  0  0  0  0  0  0  0
   20.9827  -20.8039  -15.8219 C   0  0  0  0  0  0  0  0  0  0  0  0
   20.8849  -19.6039  -16.2558 O   0  0  0  0  0  0  0  0  0  0  0  0
   20.4741  -21.7683  -16.6789 O   0  0  0  0  0  0  0  0  0  0  0  0
  2  3  1  0
  2  1  1  0
  3  4  1  1
  5  3  1  0
  5  6  1  6
  7  5  1  0
  8  7  2  0
  9 10  1  0
 10 20  2  0
 10 11  1  0
 11 12  2  0
 12 13  1  0
 13 14  1  0
 15 14  1  6
 15 16  1  0
 16  7  1  0
 17 15  1  0
 17 18  2  0
 19 13  2  0
 20 19  1  0
 21 17  1  0
 22 21  1  0
 22 28  1  0
 22 23  1  1
 24 23  1  0
 25 24  1  0
 26 25  1  0
 26 27  1  0
 28 29  2  0
 28 30  1  0
M  END
$$$$
