IYK.pdb
     RDKit          3D

 30 30  0  0  1  0  0  0  0  0999 V2000
   26.0514  -16.3604  -18.9510 C   0  0  0  0  0  0  0  0  0  0  0  0
   26.3202  -17.7656  -18.5086 C   0  0  0  0  0  0  0  0  0  0  0  0
   25.6973  -18.0525  -17.1595 C   0  0  2  0  0  0  0  0  0  0  0  0
   26.5378  -17.4995  -16.0308 C   0  0  0  0  0  0  0  0  0  0  0  0
   25.5432  -19.5495  -16.9909 C   0  0  2  0  0  0  0  0  0  0  0  0
   24.8640  -20.1330  -18.1056 N   0  0  0  0  0  0  0  0  0  0  0  0
   24.8423  -19.7687  -15.7050 C   0  0  0  0  0  0  0  0  0  0  0  0
   25.3409  -19.3801  -14.6204 O   0  0  0  0  0  0  0  0  0  0  0  0
   19.0623  -18.9478   -9.4425 O   0  0  0  0  0  0  0  0  0  0  0  0
   19.9278  -19.0187  -10.5316 C   0  0  0  0  0  0  0  0  0  0  0  0
   21.2448  -19.3833  -10.4019 C   0  0  0  0  0  0  0  0  0  0  0  0
   22.0882  -19.4486  -11.4877 C   0  0  0  0  0  0  0  0  0  0  0  0
   21.6455  -19.1469  -12.7767 C   0  0  0  0  0  0  0  0  0  0  0  0
   22.5961  -19.1845  -13.8802 C   0  0  0  0  0  0  0  0  0  0  0  0
   22.8577  -20.5560  -14.4200 C   0  0  2  0  0  0  0  0  0  0  0  0
   23.6029  -20.4196  -15.6966 N   0  0  0  0  0  0  0  0  0  0  0  0
   21.6157  -21.2494  -14.7702 C   0  0  0  0  0  0  0  0  0  0  0  0
   20.9717  -20.8372  -15.7974 O   0  0  0  0  0  0  0  0  0  0  0  0
   20.3216  -18.7844  -12.8814 C   0  0  0  0  0  0  0  0  0  0  0  0
   19.4730  -18.7175  -11.7964 C   0  0  0  0  0  0  0  0  0  0  0  0
   21.0433  -22.3525  -14.0874 N   0  0  0  0  0  0  0  0  0  0  0  0
   19.7561  -22.8564  -14.5717 C   0  0  1  0  0  0  0  0  0  0  0  0
   19.5942  -24.2938  -14.0289 C   0  0  0  0  0  0  0  0  0  0  0  0
   20.6994  -25.1256  -14.5731 C   0  0  0  0  0  0  0  0  0  0  0  0
   20.7803  -26.5371  -14.1135 C   0  0  0  0  0  0  0  0  0  0  0  0
   21.9215  -27.2773  -14.6956 C   0  0  0  0  0  0  0  0  0  0  0  0
   22.0603  -28.5937  -14.1666 N   0  0  0  0  0  0  0  0  0  0  0  0
   18.6619  -21.9803  -14.1642 C   0  0  0  0  0  0  0  0  0  0  0  0
   18.6785  -21.4601  -12.9950 O   0  0  0  0  0  0  0  0  0  0  0  0
   17.5630  -21.6293  -14.9339 O   0  0  0  0  0  0  0  0  0  0  0  0
  2  3  1  0
  2  1  1  0
  3  4  1  1
  5  3  1  0
  5  6  1  6
  7  5  1  0
  8  7  2  0
  9 10  1  0
 10 20  2  0
 10 11  1  0
 11 12  2  0
 12 13  1  0
 13 14  1  0
 15 14  1  6
 15 16  1  0
 16  7  1  0
 17 15  1  0
 17 18  2  0
 19 13  2  0
 20 19  1  0
 21 17  1  0
 22 21  1  0
 22 28  1  0
 22 23  1  1
 24 23  1  0
 25 24  1  0
 26 25  1  0
 26 27  1  0
 28 29  2  0
 28 30  1  0
M  END
$$$$
