IYK.pdb
     RDKit          3D

 30 30  0  0  1  0  0  0  0  0999 V2000
   28.5071  -18.9702  -14.6620 C   0  0  0  0  0  0  0  0  0  0  0  0
   28.1125  -20.2751  -14.0422 C   0  0  0  0  0  0  0  0  0  0  0  0
   27.8435  -20.1280  -12.5602 C   0  0  2  0  0  0  0  0  0  0  0  0
   29.0251  -19.5200  -11.8388 C   0  0  0  0  0  0  0  0  0  0  0  0
   27.5364  -21.4896  -11.9728 C   0  0  2  0  0  0  0  0  0  0  0  0
   26.4378  -22.1116  -12.6439 N   0  0  0  0  0  0  0  0  0  0  0  0
   27.2943  -21.2900  -10.5255 C   0  0  0  0  0  0  0  0  0  0  0  0
   28.1788  -20.7996   -9.7818 O   0  0  0  0  0  0  0  0  0  0  0  0
   28.7474  -20.3225   -3.7632 O   0  0  0  0  0  0  0  0  0  0  0  0
   28.1192  -20.1322   -4.9918 C   0  0  0  0  0  0  0  0  0  0  0  0
   27.4262  -21.1328   -5.6263 C   0  0  0  0  0  0  0  0  0  0  0  0
   26.8106  -20.9297   -6.8404 C   0  0  0  0  0  0  0  0  0  0  0  0
   26.8605  -19.6941   -7.4880 C   0  0  0  0  0  0  0  0  0  0  0  0
   26.2331  -19.5524   -8.7953 C   0  0  0  0  0  0  0  0  0  0  0  0
   25.3061  -20.6708   -9.1569 C   0  0  2  0  0  0  0  0  0  0  0  0
   26.0592  -21.6536   -9.9757 N   0  0  0  0  0  0  0  0  0  0  0  0
   24.2097  -20.2135  -10.0143 C   0  0  0  0  0  0  0  0  0  0  0  0
   23.4428  -19.2933   -9.5618 O   0  0  0  0  0  0  0  0  0  0  0  0
   27.5608  -18.7067   -6.8323 C   0  0  0  0  0  0  0  0  0  0  0  0
   28.1791  -18.9057   -5.6159 C   0  0  0  0  0  0  0  0  0  0  0  0
   23.9053  -20.6822  -11.3174 N   0  0  0  0  0  0  0  0  0  0  0  0
   22.7315  -20.1152  -11.9853 C   0  0  1  0  0  0  0  0  0  0  0  0
   22.8707  -20.4218  -13.4931 C   0  0  0  0  0  0  0  0  0  0  0  0
   21.6503  -19.9294  -14.1843 C   0  0  0  0  0  0  0  0  0  0  0  0
   21.5232  -20.2242  -15.6359 C   0  0  0  0  0  0  0  0  0  0  0  0
   20.3360  -19.5977  -16.2581 C   0  0  0  0  0  0  0  0  0  0  0  0
   20.1355  -20.0035  -17.6099 N   0  0  0  0  0  0  0  0  0  0  0  0
   21.4961  -20.6489  -11.4198 C   0  0  0  0  0  0  0  0  0  0  0  0
   20.4629  -19.8969  -11.3506 O   0  0  0  0  0  0  0  0  0  0  0  0
   21.3057  -21.9335  -10.9330 O   0  0  0  0  0  0  0  0  0  0  0  0
  2  3  1  0
  2  1  1  0
  3  4  1  1
  5  3  1  0
  5  6  1  6
  7  5  1  0
  8  7  2  0
  9 10  1  0
 10 20  2  0
 10 11  1  0
 11 12  2  0
 12 13  1  0
 13 14  1  0
 15 14  1  6
 15 16  1  0
 16  7  1  0
 17 15  1  0
 17 18  2  0
 19 13  2  0
 20 19  1  0
 21 17  1  0
 22 21  1  0
 22 28  1  0
 22 23  1  6
 24 23  1  0
 25 24  1  0
 26 25  1  0
 26 27  1  0
 28 29  2  0
 28 30  1  0
M  END
$$$$
