IYK.pdb
     RDKit          3D

 30 30  0  0  1  0  0  0  0  0999 V2000
   26.2655  -14.8217  -18.4032 C   0  0  0  0  0  0  0  0  0  0  0  0
   25.7886  -13.8729  -17.3475 C   0  0  0  0  0  0  0  0  0  0  0  0
   24.8547  -12.8283  -17.9194 C   0  0  2  0  0  0  0  0  0  0  0  0
   25.4663  -12.1302  -19.1130 C   0  0  0  0  0  0  0  0  0  0  0  0
   24.5311  -11.8094  -16.8468 C   0  0  2  0  0  0  0  0  0  0  0  0
   24.0598  -12.4401  -15.6533 N   0  0  0  0  0  0  0  0  0  0  0  0
   23.5503  -10.8658  -17.4304 C   0  0  0  0  0  0  0  0  0  0  0  0
   23.7935  -10.2582  -18.5017 O   0  0  0  0  0  0  0  0  0  0  0  0
   18.2580  -14.0046  -21.1367 O   0  0  0  0  0  0  0  0  0  0  0  0
   18.6636  -13.1061  -20.1526 C   0  0  0  0  0  0  0  0  0  0  0  0
   19.2428  -11.8984  -20.4528 C   0  0  0  0  0  0  0  0  0  0  0  0
   19.6386  -11.0208  -19.4692 C   0  0  0  0  0  0  0  0  0  0  0  0
   19.4705  -11.3157  -18.1152 C   0  0  0  0  0  0  0  0  0  0  0  0
   19.9548  -10.3705  -17.1178 C   0  0  0  0  0  0  0  0  0  0  0  0
   21.3016   -9.7921  -17.4216 C   0  0  2  0  0  0  0  0  0  0  0  0
   22.3312  -10.6463  -16.7782 N   0  0  0  0  0  0  0  0  0  0  0  0
   21.4720   -8.4656  -16.8238 C   0  0  0  0  0  0  0  0  0  0  0  0
   21.8807   -8.4056  -15.6118 O   0  0  0  0  0  0  0  0  0  0  0  0
   18.8875  -12.5319  -17.8392 C   0  0  0  0  0  0  0  0  0  0  0  0
   18.4895  -13.4143  -18.8214 C   0  0  0  0  0  0  0  0  0  0  0  0
   21.2369   -7.2183  -17.4559 N   0  0  0  0  0  0  0  0  0  0  0  0
   21.4842   -6.0044  -16.6744 C   0  0  1  0  0  0  0  0  0  0  0  0
   21.5352   -4.8229  -17.6686 C   0  0  0  0  0  0  0  0  0  0  0  0
   21.7629   -3.5729  -16.8970 C   0  0  0  0  0  0  0  0  0  0  0  0
   21.9039   -2.3109  -17.6699 C   0  0  0  0  0  0  0  0  0  0  0  0
   22.1507   -1.1273  -16.8171 C   0  0  0  0  0  0  0  0  0  0  0  0
   22.4507    0.0474  -17.5670 N   0  0  0  0  0  0  0  0  0  0  0  0
   20.4635   -5.8241  -15.6465 C   0  0  0  0  0  0  0  0  0  0  0  0
   20.7489   -5.1601  -14.5903 O   0  0  0  0  0  0  0  0  0  0  0  0
   19.1641   -6.3068  -15.6885 O   0  0  0  0  0  0  0  0  0  0  0  0
  2  3  1  0
  2  1  1  0
  3  4  1  6
  5  3  1  0
  5  6  1  1
  7  5  1  0
  8  7  2  0
  9 10  1  0
 10 20  2  0
 10 11  1  0
 11 12  2  0
 12 13  1  0
 13 14  1  0
 15 14  1  1
 15 16  1  0
 16  7  1  0
 17 15  1  0
 17 18  2  0
 19 13  2  0
 20 19  1  0
 21 17  1  0
 22 21  1  0
 22 28  1  0
 22 23  1  6
 24 23  1  0
 25 24  1  0
 26 25  1  0
 26 27  1  0
 28 29  2  0
 28 30  1  0
M  END
$$$$
