IYK.pdb
     RDKit          3D

 30 30  0  0  1  0  0  0  0  0999 V2000
   25.7948  -11.0683  -18.4295 C   0  0  0  0  0  0  0  0  0  0  0  0
   24.4614  -11.1140  -17.7496 C   0  0  0  0  0  0  0  0  0  0  0  0
   24.3092   -9.9897  -16.7479 C   0  0  2  0  0  0  0  0  0  0  0  0
   25.3968  -10.0298  -15.6984 C   0  0  0  0  0  0  0  0  0  0  0  0
   22.9548  -10.0991  -16.0793 C   0  0  2  0  0  0  0  0  0  0  0  0
   21.9139  -10.2998  -17.0388 N   0  0  0  0  0  0  0  0  0  0  0  0
   22.7716   -8.8706  -15.2731 C   0  0  0  0  0  0  0  0  0  0  0  0
   23.6183   -8.5280  -14.4120 O   0  0  0  0  0  0  0  0  0  0  0  0
   27.0137   -5.0939  -17.4914 O   0  0  0  0  0  0  0  0  0  0  0  0
   25.6973   -5.2236  -17.0550 C   0  0  0  0  0  0  0  0  0  0  0  0
   25.2526   -4.6644  -15.8829 C   0  0  0  0  0  0  0  0  0  0  0  0
   23.9484   -4.8013  -15.4646 C   0  0  0  0  0  0  0  0  0  0  0  0
   23.0118   -5.5166  -16.2125 C   0  0  0  0  0  0  0  0  0  0  0  0
   21.6587   -5.6706  -15.6948 C   0  0  0  0  0  0  0  0  0  0  0  0
   21.4955   -6.8010  -14.7271 C   0  0  2  0  0  0  0  0  0  0  0  0
   21.6360   -8.0767  -15.4731 N   0  0  0  0  0  0  0  0  0  0  0  0
   20.1483   -6.8360  -14.1527 C   0  0  0  0  0  0  0  0  0  0  0  0
   19.2444   -7.4806  -14.7909 O   0  0  0  0  0  0  0  0  0  0  0  0
   23.4812   -6.0675  -17.3836 C   0  0  0  0  0  0  0  0  0  0  0  0
   24.7868   -5.9331  -17.8066 C   0  0  0  0  0  0  0  0  0  0  0  0
   19.7311   -6.2294  -12.9409 N   0  0  0  0  0  0  0  0  0  0  0  0
   18.3483   -6.4511  -12.5121 C   0  0  1  0  0  0  0  0  0  0  0  0
   17.4310   -5.9579  -13.6534 C   0  0  0  0  0  0  0  0  0  0  0  0
   16.0182   -6.1427  -13.2298 C   0  0  0  0  0  0  0  0  0  0  0  0
   14.9596   -5.7024  -14.1762 C   0  0  0  0  0  0  0  0  0  0  0  0
   13.5891   -5.9574  -13.6805 C   0  0  0  0  0  0  0  0  0  0  0  0
   12.5920   -5.7856  -14.6848 N   0  0  0  0  0  0  0  0  0  0  0  0
   18.1196   -7.8541  -12.1801 C   0  0  0  0  0  0  0  0  0  0  0  0
   18.2922   -8.7468  -13.0807 O   0  0  0  0  0  0  0  0  0  0  0  0
   17.7245   -8.3504  -10.9469 O   0  0  0  0  0  0  0  0  0  0  0  0
  2  3  1  0
  2  1  1  0
  3  4  1  1
  5  3  1  0
  5  6  1  6
  7  5  1  0
  8  7  2  0
  9 10  1  0
 10 20  2  0
 10 11  1  0
 11 12  2  0
 12 13  1  0
 13 14  1  0
 15 14  1  6
 15 16  1  0
 16  7  1  0
 17 15  1  0
 17 18  2  0
 19 13  2  0
 20 19  1  0
 21 17  1  0
 22 21  1  0
 22 28  1  0
 22 23  1  6
 24 23  1  0
 25 24  1  0
 26 25  1  0
 26 27  1  0
 28 29  2  0
 28 30  1  0
M  END
$$$$
