IYK.pdb
     RDKit          3D

 30 30  0  0  1  0  0  0  0  0999 V2000
   17.8809  -13.2154  -17.6729 C   0  0  0  0  0  0  0  0  0  0  0  0
   19.3227  -13.1722  -18.0750 C   0  0  0  0  0  0  0  0  0  0  0  0
   20.1192  -12.2382  -17.1898 C   0  0  2  0  0  0  0  0  0  0  0  0
   19.5676  -10.8309  -17.2287 C   0  0  0  0  0  0  0  0  0  0  0  0
   21.5629  -12.2300  -17.6468 C   0  0  2  0  0  0  0  0  0  0  0  0
   22.1120  -13.5500  -17.6650 N   0  0  0  0  0  0  0  0  0  0  0  0
   22.2948  -11.3096  -16.7468 C   0  0  0  0  0  0  0  0  0  0  0  0
   22.5295  -11.6202  -15.5533 O   0  0  0  0  0  0  0  0  0  0  0  0
   28.4345  -13.0077  -16.2542 O   0  0  0  0  0  0  0  0  0  0  0  0
   27.5323  -11.9561  -16.3971 C   0  0  0  0  0  0  0  0  0  0  0  0
   27.2993  -11.0458  -15.3964 C   0  0  0  0  0  0  0  0  0  0  0  0
   26.4044  -10.0118  -15.5524 C   0  0  0  0  0  0  0  0  0  0  0  0
   25.6882   -9.8370  -16.7377 C   0  0  0  0  0  0  0  0  0  0  0  0
   24.7174   -8.7543  -16.8269 C   0  0  0  0  0  0  0  0  0  0  0  0
   23.3594   -9.1011  -16.3011 C   0  0  2  0  0  0  0  0  0  0  0  0
   22.7332  -10.0721  -17.2330 N   0  0  0  0  0  0  0  0  0  0  0  0
   22.4653   -7.9406  -16.2946 C   0  0  0  0  0  0  0  0  0  0  0  0
   21.7644   -7.7218  -17.3438 O   0  0  0  0  0  0  0  0  0  0  0  0
   25.9390  -10.7618  -17.7262 C   0  0  0  0  0  0  0  0  0  0  0  0
   26.8345  -11.7994  -17.5743 C   0  0  0  0  0  0  0  0  0  0  0  0
   22.2826   -7.0215  -15.2305 N   0  0  0  0  0  0  0  0  0  0  0  0
   21.2721   -5.9755  -15.4034 C   0  0  1  0  0  0  0  0  0  0  0  0
   19.9262   -6.6814  -15.6814 C   0  0  0  0  0  0  0  0  0  0  0  0
   18.8571   -5.6493  -15.7213 C   0  0  0  0  0  0  0  0  0  0  0  0
   17.4615   -6.1209  -15.9211 C   0  0  0  0  0  0  0  0  0  0  0  0
   16.4838   -5.0176  -16.0476 C   0  0  0  0  0  0  0  0  0  0  0  0
   15.1602   -5.4736  -16.3161 N   0  0  0  0  0  0  0  0  0  0  0  0
   21.2129   -5.1035  -14.2342 C   0  0  0  0  0  0  0  0  0  0  0  0
   20.4865   -4.0507  -14.2743 O   0  0  0  0  0  0  0  0  0  0  0  0
   21.8786   -5.2972  -13.0331 O   0  0  0  0  0  0  0  0  0  0  0  0
  2  3  1  0
  2  1  1  0
  3  4  1  6
  5  3  1  0
  5  6  1  1
  7  5  1  0
  8  7  2  0
  9 10  1  0
 10 20  2  0
 10 11  1  0
 11 12  2  0
 12 13  1  0
 13 14  1  0
 15 14  1  6
 15 16  1  0
 16  7  1  0
 17 15  1  0
 17 18  2  0
 19 13  2  0
 20 19  1  0
 21 17  1  0
 22 21  1  0
 22 28  1  0
 22 23  1  1
 24 23  1  0
 25 24  1  0
 26 25  1  0
 26 27  1  0
 28 29  2  0
 28 30  1  0
M  END
$$$$
