HQY.pdb
     RDKit          3D

 32 33  0  0  1  0  0  0  0  0999 V2000
    8.7493  -18.7315   15.8561 N   0  0  0  0  0  0  0  0  0  0  0  0
    9.3248  -17.7190   16.7068 C   0  0  1  0  0  0  0  0  0  0  0  0
    8.7326  -16.3625   16.3893 C   0  0  0  0  0  0  0  0  0  0  0  0
    9.1110  -15.9787   14.9923 C   0  0  0  0  0  0  0  0  0  0  0  0
    8.2648  -15.5113   14.0021 C   0  0  0  0  0  0  0  0  0  0  0  0
    8.9752  -15.2755   12.8854 N   0  0  0  0  0  0  0  0  0  0  0  0
   10.2491  -15.5902   13.1699 C   0  0  0  0  0  0  0  0  0  0  0  0
   10.3403  -16.0162   14.4412 N   0  0  0  0  0  0  0  0  0  0  0  0
    9.1464  -18.0901   18.1188 C   0  0  0  0  0  0  0  0  0  0  0  0
    8.0331  -18.5520   18.5297 O   0  0  0  0  0  0  0  0  0  0  0  0
    7.8155  -21.4483   20.7162 N   0  0  0  0  0  0  0  0  0  0  0  0
    9.1162  -21.2604   21.2388 C   0  0  0  0  0  0  0  0  0  0  0  0
    9.3101  -21.3819   22.4666 O   0  0  0  0  0  0  0  0  0  0  0  0
   10.2404  -20.9232   20.3519 C   0  0  0  0  0  0  0  0  0  0  0  0
   10.9000  -19.6198   20.6623 C   0  0  0  0  0  0  0  0  0  0  0  0
   10.0379  -18.4042   20.4763 C   0  0  2  0  0  0  0  0  0  0  0  0
   10.1967  -17.9485   19.0638 N   0  0  0  0  0  0  0  0  0  0  0  0
   10.4084  -17.2437   21.3016 C   0  0  0  0  0  0  0  0  0  0  0  0
   11.4953  -16.6229   21.0232 O   0  0  0  0  0  0  0  0  0  0  0  0
    6.8220  -13.3160   18.0423 O   0  0  0  0  0  0  0  0  0  0  0  0
    7.3292  -13.6186   19.3156 C   0  0  0  0  0  0  0  0  0  0  0  0
    8.5196  -13.0778   19.7600 C   0  0  0  0  0  0  0  0  0  0  0  0
    9.0471  -13.3522   21.0026 C   0  0  0  0  0  0  0  0  0  0  0  0
    8.3708  -14.2120   21.8743 C   0  0  0  0  0  0  0  0  0  0  0  0
    8.9148  -14.5506   23.2031 C   0  0  0  0  0  0  0  0  0  0  0  0
   10.0797  -15.4729   23.0623 C   0  0  2  0  0  0  0  0  0  0  0  0
    9.6735  -16.7232   22.3962 N   0  0  0  0  0  0  0  0  0  0  0  0
   10.6502  -15.8050   24.3702 C   0  0  0  0  0  0  0  0  0  0  0  0
   10.5746  -16.9125   24.9210 O   0  0  0  0  0  0  0  0  0  0  0  0
    7.1668  -14.7511   21.4079 C   0  0  0  0  0  0  0  0  0  0  0  0
    6.6576  -14.4660   20.1678 C   0  0  0  0  0  0  0  0  0  0  0  0
   11.3401  -14.8145   25.0760 O   0  0  0  0  0  0  0  0  0  0  0  0
  2  3  1  0
  2  1  1  6
  3  4  1  0
  4  5  2  0
  6  5  1  0
  7  6  1  0
  8  7  2  0
  8  4  1  0
  9  2  1  0
  9 10  2  0
 11 12  1  0
 12 14  1  0
 13 12  2  0
 14 15  1  0
 16 15  1  1
 16 17  1  0
 17  9  1  0
 18 16  1  0
 18 27  1  0
 19 18  2  0
 20 21  1  0
 21 22  2  0
 21 31  1  0
 22 23  1  0
 23 24  2  0
 24 25  1  0
 26 25  1  1
 26 27  1  0
 26 28  1  0
 28 29  2  0
 28 32  1  0
 30 24  1  0
 31 30  2  0
M  END
$$$$
