HQY.pdb
     RDKit          3D

 32 33  0  0  1  0  0  0  0  0999 V2000
    7.4719  -17.4536   17.6787 N   0  0  0  0  0  0  0  0  0  0  0  0
    8.2142  -16.8032   18.7303 C   0  0  1  0  0  0  0  0  0  0  0  0
    7.8909  -15.3249   18.7695 C   0  0  0  0  0  0  0  0  0  0  0  0
    8.1374  -14.7345   17.4156 C   0  0  0  0  0  0  0  0  0  0  0  0
    7.2053  -14.1263   16.5933 C   0  0  0  0  0  0  0  0  0  0  0  0
    7.8076  -13.7234   15.4610 N   0  0  0  0  0  0  0  0  0  0  0  0
    9.0992  -14.0734   15.5703 C   0  0  0  0  0  0  0  0  0  0  0  0
    9.3074  -14.6851   16.7486 N   0  0  0  0  0  0  0  0  0  0  0  0
    7.9492  -17.4675   20.0155 C   0  0  0  0  0  0  0  0  0  0  0  0
    6.7668  -17.8231   20.3273 O   0  0  0  0  0  0  0  0  0  0  0  0
   11.7840  -21.5116   22.4622 N   0  0  0  0  0  0  0  0  0  0  0  0
   12.1775  -20.1783   22.2019 C   0  0  0  0  0  0  0  0  0  0  0  0
   13.3846  -19.9178   22.0147 O   0  0  0  0  0  0  0  0  0  0  0  0
   11.1808  -19.0975   22.1504 C   0  0  0  0  0  0  0  0  0  0  0  0
    9.7699  -19.5521   22.3322 C   0  0  0  0  0  0  0  0  0  0  0  0
    8.7288  -18.4764   22.2123 C   0  0  2  0  0  0  0  0  0  0  0  0
    8.9898  -17.7332   20.9444 N   0  0  0  0  0  0  0  0  0  0  0  0
    8.7598  -17.4564   23.2725 C   0  0  0  0  0  0  0  0  0  0  0  0
    8.2563  -17.7519   24.4142 O   0  0  0  0  0  0  0  0  0  0  0  0
    6.7425  -10.8314   28.3064 O   0  0  0  0  0  0  0  0  0  0  0  0
    6.9522  -11.8235   27.3358 C   0  0  0  0  0  0  0  0  0  0  0  0
    8.2237  -12.1494   26.9071 C   0  0  0  0  0  0  0  0  0  0  0  0
    8.4669  -13.1169   25.9571 C   0  0  0  0  0  0  0  0  0  0  0  0
    7.4001  -13.8166   25.3837 C   0  0  0  0  0  0  0  0  0  0  0  0
    7.6169  -14.8421   24.3456 C   0  0  0  0  0  0  0  0  0  0  0  0
    9.0731  -15.1419   24.2150 C   0  0  2  0  0  0  0  0  0  0  0  0
    9.3025  -16.1514   23.1661 N   0  0  0  0  0  0  0  0  0  0  0  0
    9.6227  -15.6461   25.4760 C   0  0  0  0  0  0  0  0  0  0  0  0
    9.5898  -16.8282   25.8465 O   0  0  0  0  0  0  0  0  0  0  0  0
    6.1189  -13.4735   25.8293 C   0  0  0  0  0  0  0  0  0  0  0  0
    5.8968  -12.5076   26.7760 C   0  0  0  0  0  0  0  0  0  0  0  0
   10.2391  -14.7458   26.3506 O   0  0  0  0  0  0  0  0  0  0  0  0
  2  3  1  0
  2  1  1  6
  3  4  1  0
  4  5  2  0
  6  5  1  0
  7  6  1  0
  8  7  2  0
  8  4  1  0
  9  2  1  0
  9 10  2  0
 11 12  1  0
 12 14  1  0
 13 12  2  0
 14 15  1  0
 16 15  1  1
 16 17  1  0
 17  9  1  0
 18 16  1  0
 18 27  1  0
 19 18  2  0
 20 21  1  0
 21 22  2  0
 21 31  1  0
 22 23  1  0
 23 24  2  0
 24 25  1  0
 26 25  1  1
 26 27  1  0
 26 28  1  0
 28 29  2  0
 28 32  1  0
 30 24  1  0
 31 30  2  0
M  END
$$$$
