HQY.pdb
     RDKit          3D

 32 33  0  0  1  0  0  0  0  0999 V2000
   10.6544  -18.5540   15.8200 N   0  0  0  0  0  0  0  0  0  0  0  0
   11.1391  -17.5918   16.7786 C   0  0  1  0  0  0  0  0  0  0  0  0
   11.0157  -16.1875   16.2270 C   0  0  0  0  0  0  0  0  0  0  0  0
   11.9597  -16.0300   15.0753 C   0  0  0  0  0  0  0  0  0  0  0  0
   13.3318  -15.8641   15.1438 C   0  0  0  0  0  0  0  0  0  0  0  0
   13.8292  -15.7583   13.8993 N   0  0  0  0  0  0  0  0  0  0  0  0
   12.7848  -15.8563   13.0613 C   0  0  0  0  0  0  0  0  0  0  0  0
   11.6509  -16.0207   13.7636 N   0  0  0  0  0  0  0  0  0  0  0  0
   10.4283  -17.7550   18.0559 C   0  0  0  0  0  0  0  0  0  0  0  0
    9.1653  -17.9169   18.0763 O   0  0  0  0  0  0  0  0  0  0  0  0
   14.1555  -20.0083   22.9517 N   0  0  0  0  0  0  0  0  0  0  0  0
   13.1700  -20.3411   21.9936 C   0  0  0  0  0  0  0  0  0  0  0  0
   12.8123  -21.5309   21.8656 O   0  0  0  0  0  0  0  0  0  0  0  0
   12.5638  -19.3014   21.1474 C   0  0  0  0  0  0  0  0  0  0  0  0
   11.0706  -19.3173   21.1274 C   0  0  0  0  0  0  0  0  0  0  0  0
   10.4232  -18.0798   20.5750 C   0  0  2  0  0  0  0  0  0  0  0  0
   11.1163  -17.7381   19.2979 N   0  0  0  0  0  0  0  0  0  0  0  0
   10.5495  -16.8799   21.4172 C   0  0  0  0  0  0  0  0  0  0  0  0
   11.6519  -16.2259   21.3809 O   0  0  0  0  0  0  0  0  0  0  0  0
    7.6438  -13.0650   17.3934 O   0  0  0  0  0  0  0  0  0  0  0  0
    7.8715  -13.3419   18.7505 C   0  0  0  0  0  0  0  0  0  0  0  0
    8.9871  -12.8565   19.4037 C   0  0  0  0  0  0  0  0  0  0  0  0
    9.2426  -13.1078   20.7338 C   0  0  0  0  0  0  0  0  0  0  0  0
    8.3518  -13.8851   21.4814 C   0  0  0  0  0  0  0  0  0  0  0  0
    8.6021  -14.1977   22.9013 C   0  0  0  0  0  0  0  0  0  0  0  0
    9.7822  -15.1026   23.0284 C   0  0  2  0  0  0  0  0  0  0  0  0
    9.5583  -16.3543   22.2834 N   0  0  0  0  0  0  0  0  0  0  0  0
   10.0429  -15.4349   24.4313 C   0  0  0  0  0  0  0  0  0  0  0  0
   10.3507  -14.6196   25.3122 O   0  0  0  0  0  0  0  0  0  0  0  0
    7.2273  -14.3689   20.8040 C   0  0  0  0  0  0  0  0  0  0  0  0
    6.9900  -14.1079   19.4796 C   0  0  0  0  0  0  0  0  0  0  0  0
    9.9440  -16.7693   24.8376 O   0  0  0  0  0  0  0  0  0  0  0  0
  2  3  1  0
  2  1  1  6
  3  4  1  0
  4  5  2  0
  6  5  1  0
  7  6  1  0
  8  7  2  0
  8  4  1  0
  9  2  1  0
  9 10  2  0
 11 12  1  0
 12 14  1  0
 13 12  2  0
 14 15  1  0
 16 15  1  1
 16 17  1  0
 17  9  1  0
 18 16  1  0
 18 27  1  0
 19 18  2  0
 20 21  1  0
 21 22  2  0
 21 31  1  0
 22 23  1  0
 23 24  2  0
 24 25  1  0
 26 25  1  1
 26 27  1  0
 26 28  1  0
 28 29  2  0
 28 32  1  0
 30 24  1  0
 31 30  2  0
M  END
$$$$
