HQY.pdb
     RDKit          3D

 32 33  0  0  1  0  0  0  0  0999 V2000
   11.5188  -19.0920   21.9354 N   0  0  0  0  0  0  0  0  0  0  0  0
   10.2720  -18.7743   22.5871 C   0  0  1  0  0  0  0  0  0  0  0  0
   10.1550  -19.5223   23.8980 C   0  0  0  0  0  0  0  0  0  0  0  0
    9.7296  -20.9310   23.6208 C   0  0  0  0  0  0  0  0  0  0  0  0
    9.4616  -21.4885   22.3829 C   0  0  0  0  0  0  0  0  0  0  0  0
    9.1097  -22.7761   22.5424 N   0  0  0  0  0  0  0  0  0  0  0  0
    9.1558  -23.0239   23.8612 C   0  0  0  0  0  0  0  0  0  0  0  0
    9.5296  -21.9142   24.5205 N   0  0  0  0  0  0  0  0  0  0  0  0
   10.1545  -17.3187   22.7619 C   0  0  0  0  0  0  0  0  0  0  0  0
   11.1743  -16.6203   23.0683 O   0  0  0  0  0  0  0  0  0  0  0  0
    7.3170  -13.6819   18.9027 N   0  0  0  0  0  0  0  0  0  0  0  0
    7.5505  -12.7542   19.9443 C   0  0  0  0  0  0  0  0  0  0  0  0
    7.3235  -11.5413   19.7513 O   0  0  0  0  0  0  0  0  0  0  0  0
    8.0580  -13.2032   21.2501 C   0  0  0  0  0  0  0  0  0  0  0  0
    8.2131  -14.6834   21.3744 C   0  0  0  0  0  0  0  0  0  0  0  0
    8.8216  -15.1588   22.6625 C   0  0  2  0  0  0  0  0  0  0  0  0
    8.9142  -16.6472   22.5972 N   0  0  0  0  0  0  0  0  0  0  0  0
    8.0306  -14.8726   23.8698 C   0  0  0  0  0  0  0  0  0  0  0  0
    6.9518  -15.5390   24.0609 O   0  0  0  0  0  0  0  0  0  0  0  0
   12.0959  -16.7124   29.2518 O   0  0  0  0  0  0  0  0  0  0  0  0
   11.1505  -15.8138   28.7331 C   0  0  0  0  0  0  0  0  0  0  0  0
   10.1004  -15.3544   29.5033 C   0  0  0  0  0  0  0  0  0  0  0  0
    9.1548  -14.4728   29.0278 C   0  0  0  0  0  0  0  0  0  0  0  0
    9.2352  -14.0047   27.7121 C   0  0  0  0  0  0  0  0  0  0  0  0
    8.2286  -13.0796   27.1577 C   0  0  0  0  0  0  0  0  0  0  0  0
    7.4771  -13.7407   26.0506 C   0  0  2  0  0  0  0  0  0  0  0  0
    8.3420  -13.9185   24.8707 N   0  0  0  0  0  0  0  0  0  0  0  0
    6.3100  -12.9466   25.6581 C   0  0  0  0  0  0  0  0  0  0  0  0
    6.1429  -12.4255   24.5463 O   0  0  0  0  0  0  0  0  0  0  0  0
   10.3049  -14.4804   26.9461 C   0  0  0  0  0  0  0  0  0  0  0  0
   11.2365  -15.3578   27.4370 C   0  0  0  0  0  0  0  0  0  0  0  0
    5.2879  -12.7440   26.5907 O   0  0  0  0  0  0  0  0  0  0  0  0
  2  3  1  0
  2  1  1  1
  3  4  1  0
  4  5  2  0
  6  5  1  0
  7  6  1  0
  8  7  2  0
  8  4  1  0
  9  2  1  0
  9 10  2  0
 11 12  1  0
 12 14  1  0
 13 12  2  0
 14 15  1  0
 16 15  1  6
 16 17  1  0
 17  9  1  0
 18 16  1  0
 18 27  1  0
 19 18  2  0
 20 21  1  0
 21 22  2  0
 21 31  1  0
 22 23  1  0
 23 24  2  0
 24 25  1  0
 26 25  1  1
 26 27  1  0
 26 28  1  0
 28 29  2  0
 28 32  1  0
 30 24  1  0
 31 30  2  0
M  END
$$$$
