HQY.pdb
     RDKit          3D

 32 33  0  0  1  0  0  0  0  0999 V2000
    7.9228  -17.5772   17.7911 N   0  0  0  0  0  0  0  0  0  0  0  0
    8.5345  -16.7450   18.7978 C   0  0  1  0  0  0  0  0  0  0  0  0
    7.5103  -15.8102   19.4049 C   0  0  0  0  0  0  0  0  0  0  0  0
    7.5436  -14.5054   18.6710 C   0  0  0  0  0  0  0  0  0  0  0  0
    8.3701  -14.1691   17.6133 C   0  0  0  0  0  0  0  0  0  0  0  0
    8.1026  -12.9107   17.2231 N   0  0  0  0  0  0  0  0  0  0  0  0
    7.1223  -12.4630   18.0239 C   0  0  0  0  0  0  0  0  0  0  0  0
    6.7784  -13.4204   18.9021 N   0  0  0  0  0  0  0  0  0  0  0  0
    9.1937  -17.5848   19.8094 C   0  0  0  0  0  0  0  0  0  0  0  0
    8.6424  -18.6577   20.2174 O   0  0  0  0  0  0  0  0  0  0  0  0
   14.8942  -19.5128   19.9356 N   0  0  0  0  0  0  0  0  0  0  0  0
   14.5963  -19.6845   21.3074 C   0  0  0  0  0  0  0  0  0  0  0  0
   15.4341  -20.2296   22.0562 O   0  0  0  0  0  0  0  0  0  0  0  0
   13.3111  -19.2286   21.8596 C   0  0  0  0  0  0  0  0  0  0  0  0
   12.4493  -18.4931   20.8866 C   0  0  0  0  0  0  0  0  0  0  0  0
   11.1050  -18.0743   21.4091 C   0  0  2  0  0  0  0  0  0  0  0  0
   10.4540  -17.2337   20.3614 N   0  0  0  0  0  0  0  0  0  0  0  0
   11.1385  -17.2325   22.6155 C   0  0  0  0  0  0  0  0  0  0  0  0
   11.5772  -16.0325   22.5065 O   0  0  0  0  0  0  0  0  0  0  0  0
   10.9686  -14.0845   30.8929 O   0  0  0  0  0  0  0  0  0  0  0  0
   10.6880  -14.7629   29.6966 C   0  0  0  0  0  0  0  0  0  0  0  0
   10.1220  -14.1111   28.6188 C   0  0  0  0  0  0  0  0  0  0  0  0
    9.8333  -14.7445   27.4300 C   0  0  0  0  0  0  0  0  0  0  0  0
   10.1142  -16.1063   27.2780 C   0  0  0  0  0  0  0  0  0  0  0  0
    9.7972  -16.8265   26.0301 C   0  0  0  0  0  0  0  0  0  0  0  0
   10.9400  -16.7284   25.0752 C   0  0  2  0  0  0  0  0  0  0  0  0
   10.7250  -17.6135   23.9166 N   0  0  0  0  0  0  0  0  0  0  0  0
   12.2004  -17.1033   25.7211 C   0  0  0  0  0  0  0  0  0  0  0  0
   13.0622  -16.3071   26.1199 O   0  0  0  0  0  0  0  0  0  0  0  0
   10.6870  -16.7509   28.3797 C   0  0  0  0  0  0  0  0  0  0  0  0
   10.9673  -16.1035   29.5547 C   0  0  0  0  0  0  0  0  0  0  0  0
   12.4804  -18.4594   25.9167 O   0  0  0  0  0  0  0  0  0  0  0  0
  2  3  1  0
  2  1  1  6
  3  4  1  0
  4  5  2  0
  6  5  1  0
  7  6  1  0
  8  7  2  0
  8  4  1  0
  9  2  1  0
  9 10  2  0
 11 12  1  0
 12 14  1  0
 13 12  2  0
 14 15  1  0
 16 15  1  6
 16 17  1  0
 17  9  1  0
 18 16  1  0
 18 27  1  0
 19 18  2  0
 20 21  1  0
 21 22  2  0
 21 31  1  0
 22 23  1  0
 23 24  2  0
 24 25  1  0
 26 25  1  1
 26 27  1  0
 26 28  1  0
 28 29  2  0
 28 32  1  0
 30 24  1  0
 31 30  2  0
M  END
$$$$
