HQY.pdb
     RDKit          3D

 32 33  0  0  1  0  0  0  0  0999 V2000
    8.2200  -17.0001   17.1530 N   0  0  0  0  0  0  0  0  0  0  0  0
    8.6637  -16.2807   18.3216 C   0  0  1  0  0  0  0  0  0  0  0  0
    7.6799  -15.1853   18.6733 C   0  0  0  0  0  0  0  0  0  0  0  0
    7.6996  -14.1459   17.5956 C   0  0  0  0  0  0  0  0  0  0  0  0
    8.1175  -12.8323   17.7173 C   0  0  0  0  0  0  0  0  0  0  0  0
    7.9857  -12.2126   16.5315 N   0  0  0  0  0  0  0  0  0  0  0  0
    7.4923  -13.1235   15.6775 C   0  0  0  0  0  0  0  0  0  0  0  0
    7.3163  -14.2949   16.3122 N   0  0  0  0  0  0  0  0  0  0  0  0
    8.8789  -17.2173   19.4350 C   0  0  0  0  0  0  0  0  0  0  0  0
    8.1127  -18.2224   19.5911 O   0  0  0  0  0  0  0  0  0  0  0  0
   10.8260  -21.6298   20.8362 N   0  0  0  0  0  0  0  0  0  0  0  0
   11.5625  -21.1877   21.9597 C   0  0  0  0  0  0  0  0  0  0  0  0
   11.9420  -22.0172   22.8127 O   0  0  0  0  0  0  0  0  0  0  0  0
   11.8846  -19.7627   22.1331 C   0  0  0  0  0  0  0  0  0  0  0  0
   11.3442  -18.8745   21.0610 C   0  0  0  0  0  0  0  0  0  0  0  0
   10.1797  -18.0165   21.4649 C   0  0  2  0  0  0  0  0  0  0  0  0
    9.9363  -17.0369   20.3653 N   0  0  0  0  0  0  0  0  0  0  0  0
   10.3938  -17.2004   22.6704 C   0  0  0  0  0  0  0  0  0  0  0  0
   11.2213  -16.2231   22.6028 O   0  0  0  0  0  0  0  0  0  0  0  0
   10.8037  -14.2327   31.0095 O   0  0  0  0  0  0  0  0  0  0  0  0
   10.3753  -14.7869   29.7931 C   0  0  0  0  0  0  0  0  0  0  0  0
    9.9088  -13.9894   28.7669 C   0  0  0  0  0  0  0  0  0  0  0  0
    9.4808  -14.4983   27.5605 C   0  0  0  0  0  0  0  0  0  0  0  0
    9.5079  -15.8786   27.3356 C   0  0  0  0  0  0  0  0  0  0  0  0
    9.0349  -16.4647   26.0670 C   0  0  0  0  0  0  0  0  0  0  0  0
   10.1671  -16.5844   25.1020 C   0  0  2  0  0  0  0  0  0  0  0  0
    9.7661  -17.3805   23.9284 N   0  0  0  0  0  0  0  0  0  0  0  0
   11.3266  -17.2259   25.7268 C   0  0  0  0  0  0  0  0  0  0  0  0
   11.4397  -18.4410   25.9422 O   0  0  0  0  0  0  0  0  0  0  0  0
    9.9830  -16.6716   28.3857 C   0  0  0  0  0  0  0  0  0  0  0  0
   10.4049  -16.1467   29.5794 C   0  0  0  0  0  0  0  0  0  0  0  0
   12.4063  -16.4296   26.1216 O   0  0  0  0  0  0  0  0  0  0  0  0
  2  3  1  0
  2  1  1  6
  3  4  1  0
  4  5  2  0
  6  5  1  0
  7  6  1  0
  8  7  2  0
  8  4  1  0
  9  2  1  0
  9 10  2  0
 11 12  1  0
 12 14  1  0
 13 12  2  0
 14 15  1  0
 16 15  1  6
 16 17  1  0
 17  9  1  0
 18 16  1  0
 18 27  1  0
 19 18  2  0
 20 21  1  0
 21 22  2  0
 21 31  1  0
 22 23  1  0
 23 24  2  0
 24 25  1  0
 26 25  1  1
 26 27  1  0
 26 28  1  0
 28 29  2  0
 28 32  1  0
 30 24  1  0
 31 30  2  0
M  END
$$$$
