HQY.pdb
     RDKit          3D

 32 33  0  0  1  0  0  0  0  0999 V2000
    8.5339  -16.7641   19.6528 N   0  0  0  0  0  0  0  0  0  0  0  0
    8.7584  -15.9072   20.7909 C   0  0  1  0  0  0  0  0  0  0  0  0
    7.7160  -14.8106   20.8410 C   0  0  0  0  0  0  0  0  0  0  0  0
    7.8053  -13.9937   19.5892 C   0  0  0  0  0  0  0  0  0  0  0  0
    8.6681  -14.1956   18.5263 C   0  0  0  0  0  0  0  0  0  0  0  0
    8.4466  -13.2570   17.5897 N   0  0  0  0  0  0  0  0  0  0  0  0
    7.4590  -12.4768   18.0573 C   0  0  0  0  0  0  0  0  0  0  0  0
    7.0654  -12.9149   19.2653 N   0  0  0  0  0  0  0  0  0  0  0  0
    8.7862  -16.7085   22.0239 C   0  0  0  0  0  0  0  0  0  0  0  0
    7.8279  -17.4998   22.3020 O   0  0  0  0  0  0  0  0  0  0  0  0
   13.0599  -20.4085   23.7009 N   0  0  0  0  0  0  0  0  0  0  0  0
   13.2959  -19.0909   23.2442 C   0  0  0  0  0  0  0  0  0  0  0  0
   14.4109  -18.7955   22.7652 O   0  0  0  0  0  0  0  0  0  0  0  0
   12.2429  -18.0670   23.3284 C   0  0  0  0  0  0  0  0  0  0  0  0
   10.9600  -18.5505   23.9208 C   0  0  0  0  0  0  0  0  0  0  0  0
    9.9226  -17.4906   24.1567 C   0  0  2  0  0  0  0  0  0  0  0  0
    9.8698  -16.6299   22.9382 N   0  0  0  0  0  0  0  0  0  0  0  0
   10.2111  -16.5707   25.2683 C   0  0  0  0  0  0  0  0  0  0  0  0
   11.0668  -15.6353   25.0759 O   0  0  0  0  0  0  0  0  0  0  0  0
    6.2732  -11.8341   24.4364 O   0  0  0  0  0  0  0  0  0  0  0  0
    6.9616  -12.6103   25.3818 C   0  0  0  0  0  0  0  0  0  0  0  0
    6.5030  -13.8581   25.7554 C   0  0  0  0  0  0  0  0  0  0  0  0
    7.1524  -14.6471   26.6793 C   0  0  0  0  0  0  0  0  0  0  0  0
    8.3295  -14.1917   27.2822 C   0  0  0  0  0  0  0  0  0  0  0  0
    9.0409  -14.9956   28.2943 C   0  0  0  0  0  0  0  0  0  0  0  0
   10.1471  -15.7663   27.6542 C   0  0  2  0  0  0  0  0  0  0  0  0
    9.6283  -16.6062   26.5599 N   0  0  0  0  0  0  0  0  0  0  0  0
   10.8190  -16.6310   28.6276 C   0  0  0  0  0  0  0  0  0  0  0  0
   10.8467  -17.8691   28.5824 O   0  0  0  0  0  0  0  0  0  0  0  0
    8.7796  -12.9257   26.8924 C   0  0  0  0  0  0  0  0  0  0  0  0
    8.1196  -12.1551   25.9710 C   0  0  0  0  0  0  0  0  0  0  0  0
   11.4903  -16.0411   29.7031 O   0  0  0  0  0  0  0  0  0  0  0  0
  2  3  1  0
  2  1  1  6
  3  4  1  0
  4  5  2  0
  6  5  1  0
  7  6  1  0
  8  7  2  0
  8  4  1  0
  9  2  1  0
  9 10  2  0
 11 12  1  0
 12 14  1  0
 13 12  2  0
 14 15  1  0
 16 15  1  6
 16 17  1  0
 17  9  1  0
 18 16  1  0
 18 27  1  0
 19 18  2  0
 20 21  1  0
 21 22  2  0
 21 31  1  0
 22 23  1  0
 23 24  2  0
 24 25  1  0
 26 25  1  1
 26 27  1  0
 26 28  1  0
 28 29  2  0
 28 32  1  0
 30 24  1  0
 31 30  2  0
M  END
$$$$
