HQY.pdb
     RDKit          3D

 32 33  0  0  1  0  0  0  0  0999 V2000
    9.4030  -16.6554   18.8455 N   0  0  0  0  0  0  0  0  0  0  0  0
   10.0498  -16.3397   20.0953 C   0  0  1  0  0  0  0  0  0  0  0  0
   10.3290  -14.8547   20.1859 C   0  0  0  0  0  0  0  0  0  0  0  0
    9.1156  -14.1008   19.7369 C   0  0  0  0  0  0  0  0  0  0  0  0
    7.9378  -14.6390   19.2491 C   0  0  0  0  0  0  0  0  0  0  0  0
    7.0839  -13.6438   18.9526 N   0  0  0  0  0  0  0  0  0  0  0  0
    7.7161  -12.4972   19.2497 C   0  0  0  0  0  0  0  0  0  0  0  0
    8.9447  -12.7641   19.7244 N   0  0  0  0  0  0  0  0  0  0  0  0
    9.2334  -16.8245   21.2186 C   0  0  0  0  0  0  0  0  0  0  0  0
    8.1726  -17.4955   21.0041 O   0  0  0  0  0  0  0  0  0  0  0  0
    9.3361  -21.3299   22.2492 N   0  0  0  0  0  0  0  0  0  0  0  0
    9.6652  -21.2301   23.6210 C   0  0  0  0  0  0  0  0  0  0  0  0
    9.5656  -22.2370   24.3532 O   0  0  0  0  0  0  0  0  0  0  0  0
   10.1221  -19.9539   24.1927 C   0  0  0  0  0  0  0  0  0  0  0  0
   10.1619  -18.8222   23.2190 C   0  0  0  0  0  0  0  0  0  0  0  0
    9.4064  -17.5923   23.6336 C   0  0  2  0  0  0  0  0  0  0  0  0
    9.5943  -16.5648   22.5672 N   0  0  0  0  0  0  0  0  0  0  0  0
    9.8810  -16.9558   24.8725 C   0  0  0  0  0  0  0  0  0  0  0  0
   11.0990  -16.5577   24.9225 O   0  0  0  0  0  0  0  0  0  0  0  0
    5.7849  -11.4999   24.9981 O   0  0  0  0  0  0  0  0  0  0  0  0
    6.4908  -12.4597   25.7402 C   0  0  0  0  0  0  0  0  0  0  0  0
    5.9201  -13.6734   26.0689 C   0  0  0  0  0  0  0  0  0  0  0  0
    6.5826  -14.6383   26.7952 C   0  0  0  0  0  0  0  0  0  0  0  0
    7.8910  -14.4078   27.2328 C   0  0  0  0  0  0  0  0  0  0  0  0
    8.6255  -15.4053   28.0340 C   0  0  0  0  0  0  0  0  0  0  0  0
    9.6977  -16.0378   27.2107 C   0  0  2  0  0  0  0  0  0  0  0  0
    9.1173  -16.7269   26.0443 N   0  0  0  0  0  0  0  0  0  0  0  0
   10.4601  -17.0116   27.9961 C   0  0  0  0  0  0  0  0  0  0  0  0
   11.1212  -16.7489   29.0107 O   0  0  0  0  0  0  0  0  0  0  0  0
    8.4536  -13.1731   26.8913 C   0  0  0  0  0  0  0  0  0  0  0  0
    7.7783  -12.2252   26.1674 C   0  0  0  0  0  0  0  0  0  0  0  0
   10.4603  -18.3507   27.5932 O   0  0  0  0  0  0  0  0  0  0  0  0
  2  3  1  0
  2  1  1  6
  3  4  1  0
  4  5  2  0
  6  5  1  0
  7  6  1  0
  8  7  2  0
  8  4  1  0
  9  2  1  0
  9 10  2  0
 11 12  1  0
 12 14  1  0
 13 12  2  0
 14 15  1  0
 16 15  1  6
 16 17  1  0
 17  9  1  0
 18 16  1  0
 18 27  1  0
 19 18  2  0
 20 21  1  0
 21 22  2  0
 21 31  1  0
 22 23  1  0
 23 24  2  0
 24 25  1  0
 26 25  1  1
 26 27  1  0
 26 28  1  0
 28 29  2  0
 28 32  1  0
 30 24  1  0
 31 30  2  0
M  END
$$$$
