HQY.pdb
     RDKit          3D

 32 33  0  0  1  0  0  0  0  0999 V2000
    5.8460  -17.1216   20.7818 N   0  0  0  0  0  0  0  0  0  0  0  0
    6.7389  -16.3188   21.5808 C   0  0  1  0  0  0  0  0  0  0  0  0
    6.5228  -14.8474   21.2983 C   0  0  0  0  0  0  0  0  0  0  0  0
    7.3439  -14.4519   20.1102 C   0  0  0  0  0  0  0  0  0  0  0  0
    8.1573  -15.2759   19.3523 C   0  0  0  0  0  0  0  0  0  0  0  0
    8.7288  -14.5557   18.3714 N   0  0  0  0  0  0  0  0  0  0  0  0
    8.2810  -13.2977   18.5112 C   0  0  0  0  0  0  0  0  0  0  0  0
    7.4434  -13.2259   19.5597 N   0  0  0  0  0  0  0  0  0  0  0  0
    6.5680  -16.6454   23.0046 C   0  0  0  0  0  0  0  0  0  0  0  0
    5.4089  -16.6491   23.5321 O   0  0  0  0  0  0  0  0  0  0  0  0
    7.0442  -21.6153   25.5684 N   0  0  0  0  0  0  0  0  0  0  0  0
    7.1346  -20.8619   26.7619 C   0  0  0  0  0  0  0  0  0  0  0  0
    7.0761  -21.4455   27.8646 O   0  0  0  0  0  0  0  0  0  0  0  0
    7.2959  -19.4003   26.7170 C   0  0  0  0  0  0  0  0  0  0  0  0
    7.3676  -18.8309   25.3382 C   0  0  0  0  0  0  0  0  0  0  0  0
    7.4930  -17.3360   25.2671 C   0  0  2  0  0  0  0  0  0  0  0  0
    7.6761  -16.9649   23.8330 N   0  0  0  0  0  0  0  0  0  0  0  0
    8.6599  -16.7733   25.9649 C   0  0  0  0  0  0  0  0  0  0  0  0
    9.8000  -16.8254   25.3804 O   0  0  0  0  0  0  0  0  0  0  0  0
    5.6687  -11.2816   25.4569 O   0  0  0  0  0  0  0  0  0  0  0  0
    6.6144  -12.0125   26.1928 C   0  0  0  0  0  0  0  0  0  0  0  0
    6.3021  -12.5530   27.4245 C   0  0  0  0  0  0  0  0  0  0  0  0
    7.2043  -13.2755   28.1739 C   0  0  0  0  0  0  0  0  0  0  0  0
    8.5005  -13.4877   27.6929 C   0  0  0  0  0  0  0  0  0  0  0  0
    9.5032  -14.2345   28.4760 C   0  0  0  0  0  0  0  0  0  0  0  0
    9.8645  -15.5012   27.7743 C   0  0  2  0  0  0  0  0  0  0  0  0
    8.6588  -16.1620   27.2437 N   0  0  0  0  0  0  0  0  0  0  0  0
   10.5451  -16.4299   28.6802 C   0  0  0  0  0  0  0  0  0  0  0  0
   11.5648  -16.1698   29.3346 O   0  0  0  0  0  0  0  0  0  0  0  0
    8.7999  -12.9330   26.4438 C   0  0  0  0  0  0  0  0  0  0  0  0
    7.8884  -12.2169   25.7125 C   0  0  0  0  0  0  0  0  0  0  0  0
   10.0260  -17.7186   28.8393 O   0  0  0  0  0  0  0  0  0  0  0  0
  2  3  1  0
  2  1  1  6
  3  4  1  0
  4  5  2  0
  6  5  1  0
  7  6  1  0
  8  7  2  0
  8  4  1  0
  9  2  1  0
  9 10  2  0
 11 12  1  0
 12 14  1  0
 13 12  2  0
 14 15  1  0
 16 15  1  6
 16 17  1  0
 17  9  1  0
 18 16  1  0
 18 27  1  0
 19 18  2  0
 20 21  1  0
 21 22  2  0
 21 31  1  0
 22 23  1  0
 23 24  2  0
 24 25  1  0
 26 25  1  1
 26 27  1  0
 26 28  1  0
 28 29  2  0
 28 32  1  0
 30 24  1  0
 31 30  2  0
M  END
$$$$
