HQY.pdb
     RDKit          3D

 32 33  0  0  1  0  0  0  0  0999 V2000
    9.1270  -16.0407   18.4044 N   0  0  0  0  0  0  0  0  0  0  0  0
    7.8607  -15.4219   18.7104 C   0  0  1  0  0  0  0  0  0  0  0  0
    6.9560  -15.4410   17.4969 C   0  0  0  0  0  0  0  0  0  0  0  0
    7.4594  -14.4476   16.4960 C   0  0  0  0  0  0  0  0  0  0  0  0
    8.6121  -13.6876   16.5888 C   0  0  0  0  0  0  0  0  0  0  0  0
    8.7236  -12.9142   15.4948 N   0  0  0  0  0  0  0  0  0  0  0  0
    7.6565  -13.1844   14.7260 C   0  0  0  0  0  0  0  0  0  0  0  0
    6.8871  -14.1101   15.3235 N   0  0  0  0  0  0  0  0  0  0  0  0
    7.2489  -16.0812   19.8741 C   0  0  0  0  0  0  0  0  0  0  0  0
    6.1415  -15.6644   20.3447 O   0  0  0  0  0  0  0  0  0  0  0  0
    7.3910  -21.9497   22.5019 N   0  0  0  0  0  0  0  0  0  0  0  0
    8.6308  -21.3064   22.2804 C   0  0  0  0  0  0  0  0  0  0  0  0
    9.6934  -21.9338   22.4732 O   0  0  0  0  0  0  0  0  0  0  0  0
    8.6808  -19.9079   21.8265 C   0  0  0  0  0  0  0  0  0  0  0  0
    7.3420  -19.2866   21.5981 C   0  0  0  0  0  0  0  0  0  0  0  0
    7.2934  -17.7933   21.7498 C   0  0  2  0  0  0  0  0  0  0  0  0
    7.8637  -17.1934   20.5076 N   0  0  0  0  0  0  0  0  0  0  0  0
    8.1058  -17.2506   22.8502 C   0  0  0  0  0  0  0  0  0  0  0  0
    9.3443  -17.0047   22.6264 O   0  0  0  0  0  0  0  0  0  0  0  0
   11.3692  -13.9676   30.3414 O   0  0  0  0  0  0  0  0  0  0  0  0
   10.4840  -14.3932   29.3387 C   0  0  0  0  0  0  0  0  0  0  0  0
   10.1125  -15.7183   29.2258 C   0  0  0  0  0  0  0  0  0  0  0  0
    9.2465  -16.1715   28.2550 C   0  0  0  0  0  0  0  0  0  0  0  0
    8.7036  -15.2743   27.3293 C   0  0  0  0  0  0  0  0  0  0  0  0
    7.7925  -15.7238   26.2596 C   0  0  0  0  0  0  0  0  0  0  0  0
    8.5656  -16.3961   25.1744 C   0  0  2  0  0  0  0  0  0  0  0  0
    7.6550  -16.9603   24.1622 N   0  0  0  0  0  0  0  0  0  0  0  0
    9.3950  -17.4782   25.7107 C   0  0  0  0  0  0  0  0  0  0  0  0
    8.9962  -18.6235   25.9654 O   0  0  0  0  0  0  0  0  0  0  0  0
    9.0908  -13.9360   27.4581 C   0  0  0  0  0  0  0  0  0  0  0  0
    9.9539  -13.5039   28.4312 C   0  0  0  0  0  0  0  0  0  0  0  0
   10.7472  -17.2285   25.9650 O   0  0  0  0  0  0  0  0  0  0  0  0
  2  3  1  0
  2  1  1  6
  3  4  1  0
  4  5  2  0
  6  5  1  0
  7  6  1  0
  8  7  2  0
  8  4  1  0
  9  2  1  0
  9 10  2  0
 11 12  1  0
 12 14  1  0
 13 12  2  0
 14 15  1  0
 16 15  1  6
 16 17  1  0
 17  9  1  0
 18 16  1  0
 18 27  1  0
 19 18  2  0
 20 21  1  0
 21 22  2  0
 21 31  1  0
 22 23  1  0
 23 24  2  0
 24 25  1  0
 26 25  1  1
 26 27  1  0
 26 28  1  0
 28 29  2  0
 28 32  1  0
 30 24  1  0
 31 30  2  0
M  END
$$$$
