HQY.pdb
     RDKit          3D

 32 33  0  0  1  0  0  0  0  0999 V2000
    8.7959  -16.3921   19.4186 N   0  0  0  0  0  0  0  0  0  0  0  0
    8.2755  -15.3121   20.2203 C   0  0  1  0  0  0  0  0  0  0  0  0
    7.1025  -14.6549   19.5248 C   0  0  0  0  0  0  0  0  0  0  0  0
    7.5054  -14.2849   18.1309 C   0  0  0  0  0  0  0  0  0  0  0  0
    8.2018  -13.1544   17.7409 C   0  0  0  0  0  0  0  0  0  0  0  0
    8.3738  -13.1765   16.4077 N   0  0  0  0  0  0  0  0  0  0  0  0
    7.7940  -14.3043   15.9667 C   0  0  0  0  0  0  0  0  0  0  0  0
    7.2665  -14.9803   17.0015 N   0  0  0  0  0  0  0  0  0  0  0  0
    7.9251  -15.8065   21.5604 C   0  0  0  0  0  0  0  0  0  0  0  0
    7.4922  -15.0063   22.4515 O   0  0  0  0  0  0  0  0  0  0  0  0
    5.4095  -20.8429   23.6377 N   0  0  0  0  0  0  0  0  0  0  0  0
    6.3149  -20.6597   24.7086 C   0  0  0  0  0  0  0  0  0  0  0  0
    6.0734  -21.1842   25.8161 O   0  0  0  0  0  0  0  0  0  0  0  0
    7.5358  -19.8584   24.5310 C   0  0  0  0  0  0  0  0  0  0  0  0
    7.6325  -19.1681   23.2101 C   0  0  0  0  0  0  0  0  0  0  0  0
    7.7199  -17.6702   23.2739 C   0  0  2  0  0  0  0  0  0  0  0  0
    8.0553  -17.1778   21.9053 N   0  0  0  0  0  0  0  0  0  0  0  0
    8.7813  -17.1432   24.1460 C   0  0  0  0  0  0  0  0  0  0  0  0
   10.0014  -17.3613   23.8172 O   0  0  0  0  0  0  0  0  0  0  0  0
    5.0588  -11.6224   26.5800 O   0  0  0  0  0  0  0  0  0  0  0  0
    6.2696  -12.3097   26.4014 C   0  0  0  0  0  0  0  0  0  0  0  0
    6.5468  -12.9796   25.2262 C   0  0  0  0  0  0  0  0  0  0  0  0
    7.7237  -13.6640   25.0160 C   0  0  0  0  0  0  0  0  0  0  0  0
    8.6993  -13.7000   26.0177 C   0  0  0  0  0  0  0  0  0  0  0  0
    9.9618  -14.4425   25.8411 C   0  0  0  0  0  0  0  0  0  0  0  0
    9.7462  -15.8948   26.1092 C   0  0  2  0  0  0  0  0  0  0  0  0
    8.5960  -16.3992   25.3381 N   0  0  0  0  0  0  0  0  0  0  0  0
    9.4959  -16.1366   27.5324 C   0  0  0  0  0  0  0  0  0  0  0  0
    8.4617  -16.6334   28.0005 O   0  0  0  0  0  0  0  0  0  0  0  0
    8.4018  -13.0164   27.2017 C   0  0  0  0  0  0  0  0  0  0  0  0
    7.2248  -12.3406   27.3923 C   0  0  0  0  0  0  0  0  0  0  0  0
   10.4840  -15.7898   28.4591 O   0  0  0  0  0  0  0  0  0  0  0  0
  2  3  1  0
  2  1  1  6
  3  4  1  0
  4  5  2  0
  6  5  1  0
  7  6  1  0
  8  7  2  0
  8  4  1  0
  9  2  1  0
  9 10  2  0
 11 12  1  0
 12 14  1  0
 13 12  2  0
 14 15  1  0
 16 15  1  6
 16 17  1  0
 17  9  1  0
 18 16  1  0
 18 27  1  0
 19 18  2  0
 20 21  1  0
 21 22  2  0
 21 31  1  0
 22 23  1  0
 23 24  2  0
 24 25  1  0
 26 25  1  1
 26 27  1  0
 26 28  1  0
 28 29  2  0
 28 32  1  0
 30 24  1  0
 31 30  2  0
M  END
$$$$
