HQY.pdb
     RDKit          3D

 32 33  0  0  1  0  0  0  0  0999 V2000
    7.1529  -19.0234   15.9015 N   0  0  0  0  0  0  0  0  0  0  0  0
    8.0051  -18.8138   17.0459 C   0  0  1  0  0  0  0  0  0  0  0  0
    9.1765  -17.9284   16.6778 C   0  0  0  0  0  0  0  0  0  0  0  0
    9.0244  -17.4823   15.2565 C   0  0  0  0  0  0  0  0  0  0  0  0
    7.9970  -17.8100   14.3894 C   0  0  0  0  0  0  0  0  0  0  0  0
    8.2118  -17.2173   13.2019 N   0  0  0  0  0  0  0  0  0  0  0  0
    9.3574  -16.5274   13.3214 C   0  0  0  0  0  0  0  0  0  0  0  0
    9.8554  -16.6819   14.5600 N   0  0  0  0  0  0  0  0  0  0  0  0
    7.2196  -18.2659   18.1621 C   0  0  0  0  0  0  0  0  0  0  0  0
    6.0316  -17.8484   17.9725 O   0  0  0  0  0  0  0  0  0  0  0  0
    3.5577  -21.5523   21.7268 N   0  0  0  0  0  0  0  0  0  0  0  0
    4.4190  -21.4015   20.6153 C   0  0  0  0  0  0  0  0  0  0  0  0
    4.7182  -22.4004   19.9279 O   0  0  0  0  0  0  0  0  0  0  0  0
    4.9653  -20.0820   20.2621 C   0  0  0  0  0  0  0  0  0  0  0  0
    6.4366  -19.9464   20.4800 C   0  0  0  0  0  0  0  0  0  0  0  0
    6.9300  -18.5408   20.6706 C   0  0  2  0  0  0  0  0  0  0  0  0
    7.7511  -18.1835   19.4763 N   0  0  0  0  0  0  0  0  0  0  0  0
    7.8198  -18.3426   21.8256 C   0  0  0  0  0  0  0  0  0  0  0  0
    7.2976  -18.3147   22.9965 O   0  0  0  0  0  0  0  0  0  0  0  0
   13.6807  -22.2145   26.7609 O   0  0  0  0  0  0  0  0  0  0  0  0
   12.7334  -21.6999   25.8620 C   0  0  0  0  0  0  0  0  0  0  0  0
   11.8870  -22.5331   25.1577 C   0  0  0  0  0  0  0  0  0  0  0  0
   10.9459  -22.0635   24.2681 C   0  0  0  0  0  0  0  0  0  0  0  0
   10.8184  -20.6881   24.0474 C   0  0  0  0  0  0  0  0  0  0  0  0
    9.8403  -20.1469   23.0847 C   0  0  0  0  0  0  0  0  0  0  0  0
   10.0883  -18.6920   22.8626 C   0  0  2  0  0  0  0  0  0  0  0  0
    9.2270  -18.1783   21.7827 N   0  0  0  0  0  0  0  0  0  0  0  0
   11.4865  -18.4447   22.5016 C   0  0  0  0  0  0  0  0  0  0  0  0
   12.4652  -18.7136   23.2127 O   0  0  0  0  0  0  0  0  0  0  0  0
   11.6839  -19.8587   24.7689 C   0  0  0  0  0  0  0  0  0  0  0  0
   12.6142  -20.3448   25.6502 C   0  0  0  0  0  0  0  0  0  0  0  0
   11.7699  -17.8604   21.2632 O   0  0  0  0  0  0  0  0  0  0  0  0
  2  3  1  0
  2  1  1  6
  3  4  1  0
  4  5  2  0
  6  5  1  0
  7  6  1  0
  8  7  2  0
  8  4  1  0
  9  2  1  0
  9 10  2  0
 11 12  1  0
 12 14  1  0
 13 12  2  0
 14 15  1  0
 16 15  1  6
 16 17  1  0
 17  9  1  0
 18 16  1  0
 18 27  1  0
 19 18  2  0
 20 21  1  0
 21 22  2  0
 21 31  1  0
 22 23  1  0
 23 24  2  0
 24 25  1  0
 26 25  1  6
 26 27  1  0
 26 28  1  0
 28 29  2  0
 28 32  1  0
 30 24  1  0
 31 30  2  0
M  END
$$$$
