HQY.pdb
     RDKit          3D

 32 33  0  0  1  0  0  0  0  0999 V2000
    6.1469  -16.4967   20.2077 N   0  0  0  0  0  0  0  0  0  0  0  0
    7.0584  -16.1778   21.2789 C   0  0  1  0  0  0  0  0  0  0  0  0
    7.2691  -14.6813   21.3661 C   0  0  0  0  0  0  0  0  0  0  0  0
    7.9514  -14.2102   20.1192 C   0  0  0  0  0  0  0  0  0  0  0  0
    7.5038  -13.2338   19.2467 C   0  0  0  0  0  0  0  0  0  0  0  0
    8.3903  -13.0920   18.2460 N   0  0  0  0  0  0  0  0  0  0  0  0
    9.3803  -13.9666   18.4864 C   0  0  0  0  0  0  0  0  0  0  0  0
    9.1232  -14.6466   19.6166 N   0  0  0  0  0  0  0  0  0  0  0  0
    6.5659  -16.7474   22.5423 C   0  0  0  0  0  0  0  0  0  0  0  0
    5.3682  -16.5392   22.9215 O   0  0  0  0  0  0  0  0  0  0  0  0
    8.3811  -22.0667   25.2652 N   0  0  0  0  0  0  0  0  0  0  0  0
    7.6017  -21.4815   26.2899 C   0  0  0  0  0  0  0  0  0  0  0  0
    7.3457  -22.1388   27.3207 O   0  0  0  0  0  0  0  0  0  0  0  0
    7.0901  -20.1090   26.1535 C   0  0  0  0  0  0  0  0  0  0  0  0
    7.4501  -19.4429   24.8661 C   0  0  0  0  0  0  0  0  0  0  0  0
    6.9197  -18.0483   24.6950 C   0  0  2  0  0  0  0  0  0  0  0  0
    7.3983  -17.5408   23.3754 N   0  0  0  0  0  0  0  0  0  0  0  0
    7.4019  -17.0711   25.6838 C   0  0  0  0  0  0  0  0  0  0  0  0
    6.5423  -16.3084   26.2527 O   0  0  0  0  0  0  0  0  0  0  0  0
    6.7729  -10.3150   25.3374 O   0  0  0  0  0  0  0  0  0  0  0  0
    7.0438  -11.5584   25.9298 C   0  0  0  0  0  0  0  0  0  0  0  0
    6.0508  -12.2859   26.5553 C   0  0  0  0  0  0  0  0  0  0  0  0
    6.2801  -13.5087   27.1467 C   0  0  0  0  0  0  0  0  0  0  0  0
    7.5641  -14.0633   27.1290 C   0  0  0  0  0  0  0  0  0  0  0  0
    7.8559  -15.3584   27.7726 C   0  0  0  0  0  0  0  0  0  0  0  0
    9.0901  -15.9580   27.1853 C   0  0  2  0  0  0  0  0  0  0  0  0
    8.7470  -16.8796   26.0876 N   0  0  0  0  0  0  0  0  0  0  0  0
    9.8488  -16.6987   28.1964 C   0  0  0  0  0  0  0  0  0  0  0  0
   10.1833  -16.2551   29.3041 O   0  0  0  0  0  0  0  0  0  0  0  0
    8.5580  -13.3129   26.4914 C   0  0  0  0  0  0  0  0  0  0  0  0
    8.3104  -12.0975   25.9083 C   0  0  0  0  0  0  0  0  0  0  0  0
   10.2400  -18.0120   27.9176 O   0  0  0  0  0  0  0  0  0  0  0  0
  2  3  1  0
  2  1  1  6
  3  4  1  0
  4  5  2  0
  6  5  1  0
  7  6  1  0
  8  7  2  0
  8  4  1  0
  9  2  1  0
  9 10  2  0
 11 12  1  0
 12 14  1  0
 13 12  2  0
 14 15  1  0
 16 15  1  1
 16 17  1  0
 17  9  1  0
 18 16  1  0
 18 27  1  0
 19 18  2  0
 20 21  1  0
 21 22  2  0
 21 31  1  0
 22 23  1  0
 23 24  2  0
 24 25  1  0
 26 25  1  1
 26 27  1  0
 26 28  1  0
 28 29  2  0
 28 32  1  0
 30 24  1  0
 31 30  2  0
M  END
$$$$
