WSG.pdb
     RDKit          3D

 25 26  0  0  1  0  0  0  0  0999 V2000
   25.3721  -18.4638  -12.5833 N   0  0  0  0  0  0  0  0  0  0  0  0
   26.0243  -19.7165  -12.9224 C   0  0  1  0  0  0  0  0  0  0  0  0
   27.3932  -19.4472  -13.4910 C   0  0  0  0  0  0  0  0  0  0  0  0
   27.2650  -18.3835  -14.5161 C   0  0  0  0  0  0  0  0  0  0  0  0
   27.2447  -17.0134  -14.3653 C   0  0  0  0  0  0  0  0  0  0  0  0
   27.1100  -16.4920  -15.5868 N   0  0  0  0  0  0  0  0  0  0  0  0
   27.0411  -17.4392  -16.5263 C   0  0  0  0  0  0  0  0  0  0  0  0
   26.9028  -17.4196  -17.9139 C   0  0  0  0  0  0  0  0  0  0  0  0
   26.8575  -18.5710  -18.6675 C   0  0  0  0  0  0  0  0  0  0  0  0
   26.9543  -19.7767  -18.0058 C   0  0  0  0  0  0  0  0  0  0  0  0
   27.0906  -19.7921  -16.6368 C   0  0  0  0  0  0  0  0  0  0  0  0
   27.1370  -18.6437  -15.8723 C   0  0  0  0  0  0  0  0  0  0  0  0
   26.1194  -20.5525  -11.6960 C   0  0  0  0  0  0  0  0  0  0  0  0
   26.5288  -21.7565  -11.7444 O   0  0  0  0  0  0  0  0  0  0  0  0
   26.4926  -19.4488   -7.8493 O   0  0  0  0  0  0  0  0  0  0  0  0
   26.2020  -20.7707   -8.1329 C   0  0  0  0  0  0  0  0  0  0  0  0
   25.2863  -20.9303   -9.3413 C   0  0  2  0  0  0  0  0  0  0  0  0
   25.7616  -20.0515  -10.4275 N   0  0  0  0  0  0  0  0  0  0  0  0
   23.8850  -20.6607   -9.0258 C   0  0  0  0  0  0  0  0  0  0  0  0
   23.3443  -19.5960   -9.4726 O   0  0  0  0  0  0  0  0  0  0  0  0
   23.0954  -21.5343   -8.2426 N   0  0  0  0  0  0  0  0  0  0  0  0
   21.7258  -21.2124   -7.8668 C   0  0  0  0  0  0  0  0  0  0  0  0
   21.2090  -22.3858   -7.0952 C   0  0  0  0  0  0  0  0  0  0  0  0
   19.9709  -22.2476   -6.4884 O   0  0  0  0  0  0  0  0  0  0  0  0
   21.8566  -23.4656   -6.9883 O   0  0  0  0  0  0  0  0  0  0  0  0
  2  1  1  1
  2  3  1  0
  2 13  1  0
  3  4  1  0
  4  5  2  0
  6  5  1  0
  7  6  1  0
  8  7  2  0
  9  8  1  0
 10  9  2  0
 10 11  1  0
 11 12  2  0
 12  7  1  0
 12  4  1  0
 13 14  2  0
 16 15  1  0
 17 16  1  1
 18 13  1  0
 18 17  1  0
 19 17  1  0
 19 20  2  0
 21 19  1  0
 22 21  1  0
 22 23  1  0
 23 24  1  0
 25 23  2  0
M  END
$$$$
