WSG.pdb
     RDKit          3D

 25 26  0  0  1  0  0  0  0  0999 V2000
   27.2726  -22.2516  -10.8935 N   0  0  0  0  0  0  0  0  0  0  0  0
   26.3961  -21.3213  -10.2037 C   0  0  1  0  0  0  0  0  0  0  0  0
   27.1118  -20.0166   -9.9689 C   0  0  0  0  0  0  0  0  0  0  0  0
   28.2179  -20.2637   -9.0128 C   0  0  0  0  0  0  0  0  0  0  0  0
   29.5090  -20.6845   -9.2499 C   0  0  0  0  0  0  0  0  0  0  0  0
   30.1163  -20.7566   -8.0633 N   0  0  0  0  0  0  0  0  0  0  0  0
   29.2994  -20.4080   -7.0654 C   0  0  0  0  0  0  0  0  0  0  0  0
   29.4439  -20.3182   -5.6812 C   0  0  0  0  0  0  0  0  0  0  0  0
   28.4157  -19.9214   -4.8560 C   0  0  0  0  0  0  0  0  0  0  0  0
   27.2075  -19.6058   -5.4405 C   0  0  0  0  0  0  0  0  0  0  0  0
   27.0687  -19.6955   -6.8063 C   0  0  0  0  0  0  0  0  0  0  0  0
   28.0931  -20.0923   -7.6423 C   0  0  0  0  0  0  0  0  0  0  0  0
   25.1775  -21.1113  -11.0301 C   0  0  0  0  0  0  0  0  0  0  0  0
   25.2538  -20.9058  -12.2837 O   0  0  0  0  0  0  0  0  0  0  0  0
   20.8160  -22.4025  -11.0505 O   0  0  0  0  0  0  0  0  0  0  0  0
   21.4482  -21.3131  -10.4794 C   0  0  0  0  0  0  0  0  0  0  0  0
   22.6747  -20.8610  -11.2639 C   0  0  2  0  0  0  0  0  0  0  0  0
   23.8859  -21.1300  -10.4648 N   0  0  0  0  0  0  0  0  0  0  0  0
   22.6072  -19.4541  -11.6536 C   0  0  0  0  0  0  0  0  0  0  0  0
   22.5088  -18.5648  -10.7453 O   0  0  0  0  0  0  0  0  0  0  0  0
   22.6475  -19.0312  -13.0026 N   0  0  0  0  0  0  0  0  0  0  0  0
   22.0647  -19.8204  -14.0788 C   0  0  0  0  0  0  0  0  0  0  0  0
   20.8523  -19.0767  -14.5438 C   0  0  0  0  0  0  0  0  0  0  0  0
   19.8148  -18.9294  -13.6372 O   0  0  0  0  0  0  0  0  0  0  0  0
   20.7571  -18.5957  -15.7084 O   0  0  0  0  0  0  0  0  0  0  0  0
  2  1  1  6
  2  3  1  0
  2 13  1  0
  3  4  1  0
  4  5  2  0
  6  5  1  0
  7  6  1  0
  8  7  2  0
  9  8  1  0
 10  9  2  0
 10 11  1  0
 11 12  2  0
 12  7  1  0
 12  4  1  0
 13 14  2  0
 16 15  1  0
 17 16  1  1
 18 13  1  0
 18 17  1  0
 19 17  1  0
 19 20  2  0
 21 19  1  0
 22 21  1  0
 22 23  1  0
 23 24  1  0
 25 23  2  0
M  END
$$$$
