WSG.pdb
     RDKit          3D

 25 26  0  0  1  0  0  0  0  0999 V2000
   16.7907  -16.7953    5.7306 N   0  0  0  0  0  0  0  0  0  0  0  0
   16.9568  -17.8850    4.7848 C   0  0  1  0  0  0  0  0  0  0  0  0
   18.3095  -17.7953    4.1278 C   0  0  0  0  0  0  0  0  0  0  0  0
   18.3925  -16.4949    3.4201 C   0  0  0  0  0  0  0  0  0  0  0  0
   17.5726  -15.3903    3.5092 C   0  0  0  0  0  0  0  0  0  0  0  0
   18.0656  -14.4744    2.6726 N   0  0  0  0  0  0  0  0  0  0  0  0
   19.1582  -14.9144    2.0424 C   0  0  0  0  0  0  0  0  0  0  0  0
   20.0214  -14.3600    1.0975 C   0  0  0  0  0  0  0  0  0  0  0  0
   21.1050  -15.0454    0.5959 C   0  0  0  0  0  0  0  0  0  0  0  0
   21.3264  -16.3253    1.0583 C   0  0  0  0  0  0  0  0  0  0  0  0
   20.4728  -16.8688    1.9904 C   0  0  0  0  0  0  0  0  0  0  0  0
   19.3839  -16.1903    2.4995 C   0  0  0  0  0  0  0  0  0  0  0  0
   16.8094  -19.1744    5.5112 C   0  0  0  0  0  0  0  0  0  0  0  0
   17.3096  -19.3441    6.6689 O   0  0  0  0  0  0  0  0  0  0  0  0
   15.1339  -22.6261    3.6243 O   0  0  0  0  0  0  0  0  0  0  0  0
   14.9523  -22.4171    4.9792 C   0  0  0  0  0  0  0  0  0  0  0  0
   16.0672  -21.5873    5.6058 C   0  0  2  0  0  0  0  0  0  0  0  0
   16.1110  -20.2646    4.9526 N   0  0  0  0  0  0  0  0  0  0  0  0
   17.3688  -22.2482    5.5359 C   0  0  0  0  0  0  0  0  0  0  0  0
   18.2470  -21.8009    4.7270 O   0  0  0  0  0  0  0  0  0  0  0  0
   17.7012  -23.3691    6.3316 N   0  0  0  0  0  0  0  0  0  0  0  0
   18.9881  -24.0419    6.2219 C   0  0  0  0  0  0  0  0  0  0  0  0
   18.9504  -25.1918    7.1788 C   0  0  0  0  0  0  0  0  0  0  0  0
   20.0674  -26.0105    7.2275 O   0  0  0  0  0  0  0  0  0  0  0  0
   17.9536  -25.4252    7.9195 O   0  0  0  0  0  0  0  0  0  0  0  0
  2  1  1  1
  2  3  1  0
  2 13  1  0
  3  4  1  0
  4  5  2  0
  6  5  1  0
  7  6  1  0
  8  7  2  0
  9  8  1  0
 10  9  2  0
 10 11  1  0
 11 12  2  0
 12  7  1  0
 12  4  1  0
 13 14  2  0
 16 15  1  0
 17 16  1  6
 18 13  1  0
 18 17  1  0
 19 17  1  0
 19 20  2  0
 21 19  1  0
 22 21  1  0
 22 23  1  0
 23 24  1  0
 25 23  2  0
M  END
$$$$
