WSG.pdb
     RDKit          3D

 25 26  0  0  1  0  0  0  0  0999 V2000
   26.2028  -22.7554  -12.7443 N   0  0  0  0  0  0  0  0  0  0  0  0
   25.5455  -21.7003  -11.9932 C   0  0  1  0  0  0  0  0  0  0  0  0
   26.3664  -20.4384  -12.0510 C   0  0  0  0  0  0  0  0  0  0  0  0
   27.5522  -20.6202  -11.1794 C   0  0  0  0  0  0  0  0  0  0  0  0
   28.8440  -20.9683  -11.5117 C   0  0  0  0  0  0  0  0  0  0  0  0
   29.5402  -21.0028  -10.3732 N   0  0  0  0  0  0  0  0  0  0  0  0
   28.7807  -20.6981   -9.3172 C   0  0  0  0  0  0  0  0  0  0  0  0
   29.0215  -20.5965   -7.9473 C   0  0  0  0  0  0  0  0  0  0  0  0
   28.0362  -20.2560   -7.0479 C   0  0  0  0  0  0  0  0  0  0  0  0
   26.7723  -20.0106   -7.5413 C   0  0  0  0  0  0  0  0  0  0  0  0
   26.5385  -20.1117   -8.8933 C   0  0  0  0  0  0  0  0  0  0  0  0
   27.5192  -20.4524   -9.8031 C   0  0  0  0  0  0  0  0  0  0  0  0
   24.1933  -21.4748  -12.5701 C   0  0  0  0  0  0  0  0  0  0  0  0
   23.9182  -21.8111  -13.7662 O   0  0  0  0  0  0  0  0  0  0  0  0
   21.1182  -19.1454  -10.6322 O   0  0  0  0  0  0  0  0  0  0  0  0
   20.8427  -20.3626  -11.2281 C   0  0  0  0  0  0  0  0  0  0  0  0
   21.7991  -20.6946  -12.3679 C   0  0  2  0  0  0  0  0  0  0  0  0
   23.1573  -20.8799  -11.8210 N   0  0  0  0  0  0  0  0  0  0  0  0
   21.7934  -19.6816  -13.4214 C   0  0  0  0  0  0  0  0  0  0  0  0
   20.6929  -19.3952  -13.9980 O   0  0  0  0  0  0  0  0  0  0  0  0
   22.9617  -18.9989  -13.8325 N   0  0  0  0  0  0  0  0  0  0  0  0
   22.9279  -17.9383  -14.8299 C   0  0  0  0  0  0  0  0  0  0  0  0
   23.5168  -18.5110  -16.0807 C   0  0  0  0  0  0  0  0  0  0  0  0
   23.7144  -17.6420  -17.1418 O   0  0  0  0  0  0  0  0  0  0  0  0
   23.8278  -19.7312  -16.1869 O   0  0  0  0  0  0  0  0  0  0  0  0
  2  1  1  6
  2  3  1  0
  2 13  1  0
  3  4  1  0
  4  5  2  0
  6  5  1  0
  7  6  1  0
  8  7  2  0
  9  8  1  0
 10  9  2  0
 10 11  1  0
 11 12  2  0
 12  7  1  0
 12  4  1  0
 13 14  2  0
 16 15  1  0
 17 16  1  1
 18 13  1  0
 18 17  1  0
 19 17  1  0
 19 20  2  0
 21 19  1  0
 22 21  1  0
 22 23  1  0
 23 24  1  0
 25 23  2  0
M  END
$$$$
