WSG.pdb
     RDKit          3D

 25 26  0  0  1  0  0  0  0  0999 V2000
   24.5485  -20.5235  -18.0035 N   0  0  0  0  0  0  0  0  0  0  0  0
   23.5526  -19.8121  -17.2213 C   0  0  1  0  0  0  0  0  0  0  0  0
   22.4598  -19.2991  -18.1226 C   0  0  0  0  0  0  0  0  0  0  0  0
   22.9704  -18.0993  -18.8286 C   0  0  0  0  0  0  0  0  0  0  0  0
   23.8722  -18.0062  -19.8670 C   0  0  0  0  0  0  0  0  0  0  0  0
   24.0041  -16.7082  -20.1494 N   0  0  0  0  0  0  0  0  0  0  0  0
   23.2424  -15.9479  -19.3579 C   0  0  0  0  0  0  0  0  0  0  0  0
   23.0255  -14.5744  -19.2502 C   0  0  0  0  0  0  0  0  0  0  0  0
   22.1640  -14.0337  -18.3222 C   0  0  0  0  0  0  0  0  0  0  0  0
   21.5017  -14.9000  -17.4785 C   0  0  0  0  0  0  0  0  0  0  0  0
   21.7181  -16.2543  -17.5877 C   0  0  0  0  0  0  0  0  0  0  0  0
   22.5796  -16.8063  -18.5143 C   0  0  0  0  0  0  0  0  0  0  0  0
   22.9987  -20.7381  -16.1978 C   0  0  0  0  0  0  0  0  0  0  0  0
   22.5316  -21.8778  -16.5181 O   0  0  0  0  0  0  0  0  0  0  0  0
   22.8098  -19.7689  -11.9756 O   0  0  0  0  0  0  0  0  0  0  0  0
   23.1020  -21.0263  -12.4715 C   0  0  0  0  0  0  0  0  0  0  0  0
   22.4216  -21.3102  -13.8059 C   0  0  2  0  0  0  0  0  0  0  0  0
   22.9656  -20.3974  -14.8299 N   0  0  0  0  0  0  0  0  0  0  0  0
   20.9660  -21.2031  -13.7302 C   0  0  0  0  0  0  0  0  0  0  0  0
   20.4181  -20.0691  -13.9288 O   0  0  0  0  0  0  0  0  0  0  0  0
   20.1314  -22.3088  -13.4455 N   0  0  0  0  0  0  0  0  0  0  0  0
   18.6912  -22.1691  -13.2802 C   0  0  0  0  0  0  0  0  0  0  0  0
   18.1557  -23.5444  -13.0330 C   0  0  0  0  0  0  0  0  0  0  0  0
   16.8001  -23.6568  -12.7688 O   0  0  0  0  0  0  0  0  0  0  0  0
   18.8896  -24.5727  -13.0589 O   0  0  0  0  0  0  0  0  0  0  0  0
  2  1  1  6
  2  3  1  0
  2 13  1  0
  3  4  1  0
  4  5  2  0
  6  5  1  0
  7  6  1  0
  8  7  2  0
  9  8  1  0
 10  9  2  0
 10 11  1  0
 11 12  2  0
 12  7  1  0
 12  4  1  0
 13 14  2  0
 16 15  1  0
 17 16  1  1
 18 13  1  0
 18 17  1  0
 19 17  1  0
 19 20  2  0
 21 19  1  0
 22 21  1  0
 22 23  1  0
 23 24  1  0
 25 23  2  0
M  END
$$$$
