WSG.pdb
     RDKit          3D

 25 26  0  0  1  0  0  0  0  0999 V2000
   26.5309  -20.2603  -15.0387 N   0  0  0  0  0  0  0  0  0  0  0  0
   25.5842  -20.3555  -13.9413 C   0  0  1  0  0  0  0  0  0  0  0  0
   25.9786  -19.4097  -12.8370 C   0  0  0  0  0  0  0  0  0  0  0  0
   27.1750  -19.9656  -12.1599 C   0  0  0  0  0  0  0  0  0  0  0  0
   28.4252  -20.2437  -12.6695 C   0  0  0  0  0  0  0  0  0  0  0  0
   29.1535  -20.7312  -11.6625 N   0  0  0  0  0  0  0  0  0  0  0  0
   28.4540  -20.7881  -10.5258 C   0  0  0  0  0  0  0  0  0  0  0  0
   28.7462  -21.2068   -9.2280 C   0  0  0  0  0  0  0  0  0  0  0  0
   27.8192  -21.1601   -8.2111 C   0  0  0  0  0  0  0  0  0  0  0  0
   26.5621  -20.6783   -8.5086 C   0  0  0  0  0  0  0  0  0  0  0  0
   26.2775  -20.2661   -9.7900 C   0  0  0  0  0  0  0  0  0  0  0  0
   27.1996  -20.3089  -10.8165 C   0  0  0  0  0  0  0  0  0  0  0  0
   24.2262  -20.0298  -14.4527 C   0  0  0  0  0  0  0  0  0  0  0  0
   23.9209  -18.8498  -14.8186 O   0  0  0  0  0  0  0  0  0  0  0  0
   21.9392  -22.0081  -16.8382 O   0  0  0  0  0  0  0  0  0  0  0  0
   21.5423  -20.7881  -16.3219 C   0  0  0  0  0  0  0  0  0  0  0  0
   21.8092  -20.6623  -14.8262 C   0  0  2  0  0  0  0  0  0  0  0  0
   23.2177  -21.0099  -14.5555 N   0  0  0  0  0  0  0  0  0  0  0  0
   20.9046  -21.4811  -14.0216 C   0  0  0  0  0  0  0  0  0  0  0  0
   20.3427  -22.4919  -14.5585 O   0  0  0  0  0  0  0  0  0  0  0  0
   20.6231  -21.2016  -12.6641 N   0  0  0  0  0  0  0  0  0  0  0  0
   19.2936  -21.3791  -12.0970 C   0  0  0  0  0  0  0  0  0  0  0  0
   19.0041  -22.8466  -12.1415 C   0  0  0  0  0  0  0  0  0  0  0  0
   17.8615  -23.2854  -11.4919 O   0  0  0  0  0  0  0  0  0  0  0  0
   19.7553  -23.6681  -12.7394 O   0  0  0  0  0  0  0  0  0  0  0  0
  2  1  1  6
  2  3  1  0
  2 13  1  0
  3  4  1  0
  4  5  2  0
  6  5  1  0
  7  6  1  0
  8  7  2  0
  9  8  1  0
 10  9  2  0
 10 11  1  0
 11 12  2  0
 12  7  1  0
 12  4  1  0
 13 14  2  0
 16 15  1  0
 17 16  1  6
 18 13  1  0
 18 17  1  0
 19 17  1  0
 19 20  2  0
 21 19  1  0
 22 21  1  0
 22 23  1  0
 23 24  1  0
 25 23  2  0
M  END
$$$$
