WSG.pdb
     RDKit          3D

 25 26  0  0  1  0  0  0  0  0999 V2000
   23.9783  -10.0365  -18.0376 N   0  0  0  0  0  0  0  0  0  0  0  0
   22.8338   -9.8277  -17.1681 C   0  0  1  0  0  0  0  0  0  0  0  0
   23.2253  -10.0702  -15.7337 C   0  0  0  0  0  0  0  0  0  0  0  0
   23.8963  -11.3902  -15.6564 C   0  0  0  0  0  0  0  0  0  0  0  0
   25.1500  -11.7141  -15.1836 C   0  0  0  0  0  0  0  0  0  0  0  0
   25.2890  -13.0338  -15.3290 N   0  0  0  0  0  0  0  0  0  0  0  0
   24.2013  -13.5913  -15.8682 C   0  0  0  0  0  0  0  0  0  0  0  0
   23.8517  -14.8962  -16.2149 C   0  0  0  0  0  0  0  0  0  0  0  0
   22.6324  -15.2104  -16.7717 C   0  0  0  0  0  0  0  0  0  0  0  0
   21.7391  -14.1822  -16.9856 C   0  0  0  0  0  0  0  0  0  0  0  0
   22.0874  -12.8962  -16.6423 C   0  0  0  0  0  0  0  0  0  0  0  0
   23.3071  -12.5707  -16.0838 C   0  0  0  0  0  0  0  0  0  0  0  0
   22.3428   -8.4358  -17.3511 C   0  0  0  0  0  0  0  0  0  0  0  0
   23.1469   -7.4510  -17.4072 O   0  0  0  0  0  0  0  0  0  0  0  0
   18.1403   -7.4301  -17.6371 O   0  0  0  0  0  0  0  0  0  0  0  0
   19.1281   -6.8249  -18.3924 C   0  0  0  0  0  0  0  0  0  0  0  0
   20.4722   -6.7692  -17.6751 C   0  0  2  0  0  0  0  0  0  0  0  0
   20.9685   -8.1439  -17.4705 N   0  0  0  0  0  0  0  0  0  0  0  0
   20.4052   -6.0435  -16.4082 C   0  0  0  0  0  0  0  0  0  0  0  0
   20.1166   -4.8017  -16.4213 O   0  0  0  0  0  0  0  0  0  0  0  0
   20.6467   -6.6612  -15.1591 N   0  0  0  0  0  0  0  0  0  0  0  0
   20.4505   -5.9598  -13.8980 C   0  0  0  0  0  0  0  0  0  0  0  0
   21.8080   -5.5406  -13.4283 C   0  0  0  0  0  0  0  0  0  0  0  0
   22.4880   -6.4170  -12.5978 O   0  0  0  0  0  0  0  0  0  0  0  0
   22.3309   -4.4397  -13.7618 O   0  0  0  0  0  0  0  0  0  0  0  0
  2  1  1  6
  2  3  1  0
  2 13  1  0
  3  4  1  0
  4  5  2  0
  6  5  1  0
  7  6  1  0
  8  7  2  0
  9  8  1  0
 10  9  2  0
 10 11  1  0
 11 12  2  0
 12  7  1  0
 12  4  1  0
 13 14  2  0
 16 15  1  0
 17 16  1  1
 18 13  1  0
 18 17  1  0
 19 17  1  0
 19 20  2  0
 21 19  1  0
 22 21  1  0
 22 23  1  0
 23 24  1  0
 25 23  2  0
M  END
$$$$
