WSG.pdb
     RDKit          3D

 25 26  0  0  1  0  0  0  0  0999 V2000
   24.6539  -19.5198  -11.8355 N   0  0  0  0  0  0  0  0  0  0  0  0
   25.8715  -20.2943  -12.0008 C   0  0  1  0  0  0  0  0  0  0  0  0
   25.8825  -21.4495  -11.0340 C   0  0  0  0  0  0  0  0  0  0  0  0
   25.9902  -20.9000   -9.6610 C   0  0  0  0  0  0  0  0  0  0  0  0
   24.9987  -20.6152   -8.7466 C   0  0  0  0  0  0  0  0  0  0  0  0
   25.6037  -20.1380   -7.6564 N   0  0  0  0  0  0  0  0  0  0  0  0
   26.9307  -20.0941   -7.8039 C   0  0  0  0  0  0  0  0  0  0  0  0
   27.9840  -19.6893   -6.9844 C   0  0  0  0  0  0  0  0  0  0  0  0
   29.2987  -19.7478   -7.3891 C   0  0  0  0  0  0  0  0  0  0  0  0
   29.5610  -20.2275   -8.6548 C   0  0  0  0  0  0  0  0  0  0  0  0
   28.5194  -20.6260   -9.4605 C   0  0  0  0  0  0  0  0  0  0  0  0
   27.1981  -20.5713   -9.0643 C   0  0  0  0  0  0  0  0  0  0  0  0
   25.9401  -20.7822  -13.4041 C   0  0  0  0  0  0  0  0  0  0  0  0
   24.8882  -20.9454  -14.1015 O   0  0  0  0  0  0  0  0  0  0  0  0
   29.4830  -22.4075  -15.3683 O   0  0  0  0  0  0  0  0  0  0  0  0
   28.7206  -21.3789  -15.8911 C   0  0  0  0  0  0  0  0  0  0  0  0
   27.2615  -21.4413  -15.4538 C   0  0  2  0  0  0  0  0  0  0  0  0
   27.1695  -21.0856  -14.0244 N   0  0  0  0  0  0  0  0  0  0  0  0
   26.6521  -22.7450  -15.7084 C   0  0  0  0  0  0  0  0  0  0  0  0
   26.3227  -23.4777  -14.7183 O   0  0  0  0  0  0  0  0  0  0  0  0
   26.4086  -23.2339  -17.0129 N   0  0  0  0  0  0  0  0  0  0  0  0
   25.6109  -24.4279  -17.2556 C   0  0  0  0  0  0  0  0  0  0  0  0
   26.5104  -25.5982  -17.0095 C   0  0  0  0  0  0  0  0  0  0  0  0
   26.0342  -26.5969  -16.1753 O   0  0  0  0  0  0  0  0  0  0  0  0
   27.6584  -25.6923  -17.5291 O   0  0  0  0  0  0  0  0  0  0  0  0
  2  1  1  6
  2  3  1  0
  2 13  1  0
  3  4  1  0
  4  5  2  0
  6  5  1  0
  7  6  1  0
  8  7  2  0
  9  8  1  0
 10  9  2  0
 10 11  1  0
 11 12  2  0
 12  7  1  0
 12  4  1  0
 13 14  2  0
 16 15  1  0
 17 16  1  1
 18 13  1  0
 18 17  1  0
 19 17  1  0
 19 20  2  0
 21 19  1  0
 22 21  1  0
 22 23  1  0
 23 24  1  0
 25 23  2  0
M  END
$$$$
