WSG.pdb
     RDKit          3D

 25 26  0  0  1  0  0  0  0  0999 V2000
   28.0633  -21.4488  -10.2139 N   0  0  0  0  0  0  0  0  0  0  0  0
   26.7776  -20.9815   -9.7260 C   0  0  1  0  0  0  0  0  0  0  0  0
   26.9753  -19.8335   -8.7707 C   0  0  0  0  0  0  0  0  0  0  0  0
   28.1900  -20.1081   -7.9659 C   0  0  0  0  0  0  0  0  0  0  0  0
   29.4937  -20.2919   -8.3744 C   0  0  0  0  0  0  0  0  0  0  0  0
   30.2166  -20.5106   -7.2737 N   0  0  0  0  0  0  0  0  0  0  0  0
   29.4634  -20.4807   -6.1708 C   0  0  0  0  0  0  0  0  0  0  0  0
   29.7284  -20.6451   -4.8114 C   0  0  0  0  0  0  0  0  0  0  0  0
   28.7440  -20.5636   -3.8524 C   0  0  0  0  0  0  0  0  0  0  0  0
   27.4558  -20.3095   -4.2732 C   0  0  0  0  0  0  0  0  0  0  0  0
   27.1982  -20.1479   -5.6150 C   0  0  0  0  0  0  0  0  0  0  0  0
   28.1778  -20.2277   -6.5843 C   0  0  0  0  0  0  0  0  0  0  0  0
   25.9497  -20.5619  -10.8882 C   0  0  0  0  0  0  0  0  0  0  0  0
   26.1887  -19.4817  -11.5169 O   0  0  0  0  0  0  0  0  0  0  0  0
   25.0118  -23.0122  -13.2698 O   0  0  0  0  0  0  0  0  0  0  0  0
   24.2485  -21.9196  -13.6385 C   0  0  0  0  0  0  0  0  0  0  0  0
   24.0374  -20.9315  -12.4970 C   0  0  2  0  0  0  0  0  0  0  0  0
   24.8656  -21.3390  -11.3454 N   0  0  0  0  0  0  0  0  0  0  0  0
   22.6329  -20.8061  -12.1126 C   0  0  0  0  0  0  0  0  0  0  0  0
   22.1151  -21.6976  -11.3626 O   0  0  0  0  0  0  0  0  0  0  0  0
   21.8166  -19.7323  -12.5374 N   0  0  0  0  0  0  0  0  0  0  0  0
   21.2202  -19.6916  -13.8654 C   0  0  0  0  0  0  0  0  0  0  0  0
   20.0856  -20.6672  -13.8526 C   0  0  0  0  0  0  0  0  0  0  0  0
   18.8033  -20.1446  -13.8000 O   0  0  0  0  0  0  0  0  0  0  0  0
   20.2658  -21.9174  -13.8875 O   0  0  0  0  0  0  0  0  0  0  0  0
  2  1  1  6
  2  3  1  0
  2 13  1  0
  3  4  1  0
  4  5  2  0
  6  5  1  0
  7  6  1  0
  8  7  2  0
  9  8  1  0
 10  9  2  0
 10 11  1  0
 11 12  2  0
 12  7  1  0
 12  4  1  0
 13 14  2  0
 16 15  1  0
 17 16  1  6
 18 13  1  0
 18 17  1  0
 19 17  1  0
 19 20  2  0
 21 19  1  0
 22 21  1  0
 22 23  1  0
 23 24  1  0
 25 23  2  0
M  END
$$$$
