WSG.pdb
     RDKit          3D

 25 26  0  0  1  0  0  0  0  0999 V2000
   16.4820  -24.1376   -5.5167 N   0  0  0  0  0  0  0  0  0  0  0  0
   16.4969  -25.3325   -4.6911 C   0  0  1  0  0  0  0  0  0  0  0  0
   17.8857  -25.9151   -4.6529 C   0  0  0  0  0  0  0  0  0  0  0  0
   18.3600  -26.0667   -6.0496 C   0  0  0  0  0  0  0  0  0  0  0  0
   18.9883  -25.1541   -6.8699 C   0  0  0  0  0  0  0  0  0  0  0  0
   19.2115  -25.7695   -8.0333 N   0  0  0  0  0  0  0  0  0  0  0  0
   18.7666  -27.0291   -8.0222 C   0  0  0  0  0  0  0  0  0  0  0  0
   18.7583  -28.0622   -8.9591 C   0  0  0  0  0  0  0  0  0  0  0  0
   18.2224  -29.3009   -8.6871 C   0  0  0  0  0  0  0  0  0  0  0  0
   17.6794  -29.5060   -7.4365 C   0  0  0  0  0  0  0  0  0  0  0  0
   17.6895  -28.4845   -6.5148 C   0  0  0  0  0  0  0  0  0  0  0  0
   18.2241  -27.2392   -6.7775 C   0  0  0  0  0  0  0  0  0  0  0  0
   16.0398  -24.9727   -3.3223 C   0  0  0  0  0  0  0  0  0  0  0  0
   16.6145  -24.0575   -2.6504 O   0  0  0  0  0  0  0  0  0  0  0  0
   12.5942  -24.6599   -2.6875 O   0  0  0  0  0  0  0  0  0  0  0  0
   13.0933  -24.7273   -1.3995 C   0  0  0  0  0  0  0  0  0  0  0  0
   14.5068  -25.2954   -1.3405 C   0  0  2  0  0  0  0  0  0  0  0  0
   14.9522  -25.6269   -2.7079 N   0  0  0  0  0  0  0  0  0  0  0  0
   14.6106  -26.4577   -0.4606 C   0  0  0  0  0  0  0  0  0  0  0  0
   14.2279  -27.5952   -0.8908 O   0  0  0  0  0  0  0  0  0  0  0  0
   15.1212  -26.3773    0.8558 N   0  0  0  0  0  0  0  0  0  0  0  0
   15.1863  -27.5381    1.7329 C   0  0  0  0  0  0  0  0  0  0  0  0
   15.6078  -27.0330    3.0770 C   0  0  0  0  0  0  0  0  0  0  0  0
   15.6454  -27.9514    4.1140 O   0  0  0  0  0  0  0  0  0  0  0  0
   15.9201  -25.8256    3.2804 O   0  0  0  0  0  0  0  0  0  0  0  0
  2  1  1  6
  2  3  1  0
  2 13  1  0
  3  4  1  0
  4  5  2  0
  6  5  1  0
  7  6  1  0
  8  7  2  0
  9  8  1  0
 10  9  2  0
 10 11  1  0
 11 12  2  0
 12  7  1  0
 12  4  1  0
 13 14  2  0
 16 15  1  0
 17 16  1  6
 18 13  1  0
 18 17  1  0
 19 17  1  0
 19 20  2  0
 21 19  1  0
 22 21  1  0
 22 23  1  0
 23 24  1  0
 25 23  2  0
M  END
$$$$
