WSG.pdb
     RDKit          3D

 25 26  0  0  1  0  0  0  0  0999 V2000
   28.0824  -20.1936  -10.7983 N   0  0  0  0  0  0  0  0  0  0  0  0
   26.9401  -20.9628  -10.3368 C   0  0  1  0  0  0  0  0  0  0  0  0
   26.7272  -20.7354   -8.8629 C   0  0  0  0  0  0  0  0  0  0  0  0
   28.0533  -20.7433   -8.1995 C   0  0  0  0  0  0  0  0  0  0  0  0
   29.2507  -21.2723   -8.6317 C   0  0  0  0  0  0  0  0  0  0  0  0
   30.1502  -21.0236   -7.6772 N   0  0  0  0  0  0  0  0  0  0  0  0
   29.6123  -20.3640   -6.6475 C   0  0  0  0  0  0  0  0  0  0  0  0
   30.1117  -19.8825   -5.4377 C   0  0  0  0  0  0  0  0  0  0  0  0
   29.3230  -19.2175   -4.5259 C   0  0  0  0  0  0  0  0  0  0  0  0
   27.9936  -19.0316   -4.8407 C   0  0  0  0  0  0  0  0  0  0  0  0
   27.5045  -19.5078   -6.0352 C   0  0  0  0  0  0  0  0  0  0  0  0
   28.2867  -20.1758   -6.9558 C   0  0  0  0  0  0  0  0  0  0  0  0
   25.7404  -20.5475  -11.1117 C   0  0  0  0  0  0  0  0  0  0  0  0
   25.2631  -19.3718  -11.0151 O   0  0  0  0  0  0  0  0  0  0  0  0
   25.4102  -21.6184  -14.7533 O   0  0  0  0  0  0  0  0  0  0  0  0
   24.1353  -21.7060  -14.2248 C   0  0  0  0  0  0  0  0  0  0  0  0
   23.9978  -20.9888  -12.8865 C   0  0  2  0  0  0  0  0  0  0  0  0
   25.0788  -21.4342  -11.9859 N   0  0  0  0  0  0  0  0  0  0  0  0
   22.6878  -21.1909  -12.2709 C   0  0  0  0  0  0  0  0  0  0  0  0
   22.5159  -22.1889  -11.4963 O   0  0  0  0  0  0  0  0  0  0  0  0
   21.5945  -20.3227  -12.4964 N   0  0  0  0  0  0  0  0  0  0  0  0
   20.3237  -20.4822  -11.8033 C   0  0  0  0  0  0  0  0  0  0  0  0
   19.5169  -21.4501  -12.6106 C   0  0  0  0  0  0  0  0  0  0  0  0
   18.1922  -21.6281  -12.2450 O   0  0  0  0  0  0  0  0  0  0  0  0
   20.0022  -22.0885  -13.5872 O   0  0  0  0  0  0  0  0  0  0  0  0
  2  1  1  6
  2  3  1  0
  2 13  1  0
  3  4  1  0
  4  5  2  0
  6  5  1  0
  7  6  1  0
  8  7  2  0
  9  8  1  0
 10  9  2  0
 10 11  1  0
 11 12  2  0
 12  7  1  0
 12  4  1  0
 13 14  2  0
 16 15  1  0
 17 16  1  6
 18 13  1  0
 18 17  1  0
 19 17  1  0
 19 20  2  0
 21 19  1  0
 22 21  1  0
 22 23  1  0
 23 24  1  0
 25 23  2  0
M  END
$$$$
