WSG.pdb
     RDKit          3D

 25 26  0  0  1  0  0  0  0  0999 V2000
   25.3243  -21.7428   -9.7024 N   0  0  0  0  0  0  0  0  0  0  0  0
   25.9601  -20.4374   -9.7379 C   0  0  1  0  0  0  0  0  0  0  0  0
   27.2275  -20.4593   -8.9239 C   0  0  0  0  0  0  0  0  0  0  0  0
   26.8542  -20.4254   -7.4893 C   0  0  0  0  0  0  0  0  0  0  0  0
   25.6473  -20.7095   -6.8868 C   0  0  0  0  0  0  0  0  0  0  0  0
   25.8187  -20.5317   -5.5749 N   0  0  0  0  0  0  0  0  0  0  0  0
   27.0651  -20.1486   -5.2843 C   0  0  0  0  0  0  0  0  0  0  0  0
   27.7333  -19.8420   -4.0992 C   0  0  0  0  0  0  0  0  0  0  0  0
   29.0567  -19.4630   -4.0749 C   0  0  0  0  0  0  0  0  0  0  0  0
   29.7270  -19.3906   -5.2776 C   0  0  0  0  0  0  0  0  0  0  0  0
   29.0645  -19.6939   -6.4447 C   0  0  0  0  0  0  0  0  0  0  0  0
   27.7381  -20.0747   -6.4799 C   0  0  0  0  0  0  0  0  0  0  0  0
   26.2503  -20.0860  -11.1536 C   0  0  0  0  0  0  0  0  0  0  0  0
   27.1354  -19.2225  -11.4544 O   0  0  0  0  0  0  0  0  0  0  0  0
   25.2633  -22.4578  -14.4118 O   0  0  0  0  0  0  0  0  0  0  0  0
   26.1092  -21.3680  -14.5083 C   0  0  0  0  0  0  0  0  0  0  0  0
   25.6869  -20.2085  -13.6131 C   0  0  2  0  0  0  0  0  0  0  0  0
   25.5605  -20.6912  -12.2242 N   0  0  0  0  0  0  0  0  0  0  0  0
   24.4491  -19.5731  -14.0605 C   0  0  0  0  0  0  0  0  0  0  0  0
   23.3739  -19.7869  -13.4095 O   0  0  0  0  0  0  0  0  0  0  0  0
   24.3898  -18.7248  -15.1905 N   0  0  0  0  0  0  0  0  0  0  0  0
   23.1703  -18.0248  -15.5697 C   0  0  0  0  0  0  0  0  0  0  0  0
   22.2583  -19.0507  -16.1655 C   0  0  0  0  0  0  0  0  0  0  0  0
   20.8970  -18.7994  -16.1019 O   0  0  0  0  0  0  0  0  0  0  0  0
   22.6888  -20.1076  -16.7079 O   0  0  0  0  0  0  0  0  0  0  0  0
  2  1  1  6
  2  3  1  0
  2 13  1  0
  3  4  1  0
  4  5  2  0
  6  5  1  0
  7  6  1  0
  8  7  2  0
  9  8  1  0
 10  9  2  0
 10 11  1  0
 11 12  2  0
 12  7  1  0
 12  4  1  0
 13 14  2  0
 16 15  1  0
 17 16  1  6
 18 13  1  0
 18 17  1  0
 19 17  1  0
 19 20  2  0
 21 19  1  0
 22 21  1  0
 22 23  1  0
 23 24  1  0
 25 23  2  0
M  END
$$$$
