WSG.pdb
     RDKit          3D

 25 26  0  0  1  0  0  0  0  0999 V2000
   21.6291   -9.7436  -16.0016 N   0  0  0  0  0  0  0  0  0  0  0  0
   21.0320   -8.5908  -16.6529 C   0  0  1  0  0  0  0  0  0  0  0  0
   19.8000   -9.0089  -17.4125 C   0  0  0  0  0  0  0  0  0  0  0  0
   20.2124   -9.9645  -18.4686 C   0  0  0  0  0  0  0  0  0  0  0  0
   21.3817  -10.0215  -19.1965 C   0  0  0  0  0  0  0  0  0  0  0  0
   21.2716  -11.0631  -20.0241 N   0  0  0  0  0  0  0  0  0  0  0  0
   20.1006  -11.6900  -19.8805 C   0  0  0  0  0  0  0  0  0  0  0  0
   19.5141  -12.7992  -20.4892 C   0  0  0  0  0  0  0  0  0  0  0  0
   18.2594  -13.2513  -20.1474 C   0  0  0  0  0  0  0  0  0  0  0  0
   17.5752  -12.5676  -19.1648 C   0  0  0  0  0  0  0  0  0  0  0  0
   18.1570  -11.4738  -18.5665 C   0  0  0  0  0  0  0  0  0  0  0  0
   19.4141  -11.0125  -18.9019 C   0  0  0  0  0  0  0  0  0  0  0  0
   20.6928   -7.5794  -15.6165 C   0  0  0  0  0  0  0  0  0  0  0  0
   19.9868   -7.8811  -14.6016 O   0  0  0  0  0  0  0  0  0  0  0  0
   23.0885   -4.3789  -14.7769 O   0  0  0  0  0  0  0  0  0  0  0  0
   22.1050   -4.8682  -13.9369 C   0  0  0  0  0  0  0  0  0  0  0  0
   20.8242   -5.2384  -14.6763 C   0  0  2  0  0  0  0  0  0  0  0  0
   21.1363   -6.2442  -15.7102 N   0  0  0  0  0  0  0  0  0  0  0  0
   20.1555   -4.0778  -15.2609 C   0  0  0  0  0  0  0  0  0  0  0  0
   20.3902   -3.7765  -16.4773 O   0  0  0  0  0  0  0  0  0  0  0  0
   19.2525   -3.2683  -14.5333 N   0  0  0  0  0  0  0  0  0  0  0  0
   18.5960   -2.1129  -15.1290 C   0  0  0  0  0  0  0  0  0  0  0  0
   19.6193   -1.0223  -15.1819 C   0  0  0  0  0  0  0  0  0  0  0  0
   19.2090    0.2059  -15.6754 O   0  0  0  0  0  0  0  0  0  0  0  0
   20.8115   -1.1917  -14.7989 O   0  0  0  0  0  0  0  0  0  0  0  0
  2  1  1  1
  2  3  1  0
  2 13  1  0
  3  4  1  0
  4  5  2  0
  6  5  1  0
  7  6  1  0
  8  7  2  0
  9  8  1  0
 10  9  2  0
 10 11  1  0
 11 12  2  0
 12  7  1  0
 12  4  1  0
 13 14  2  0
 16 15  1  0
 17 16  1  6
 18 13  1  0
 18 17  1  0
 19 17  1  0
 19 20  2  0
 21 19  1  0
 22 21  1  0
 22 23  1  0
 23 24  1  0
 25 23  2  0
M  END
$$$$
