WSG.pdb
     RDKit          3D

 25 26  0  0  1  0  0  0  0  0999 V2000
   24.6485  -20.5259   -9.4623 N   0  0  0  0  0  0  0  0  0  0  0  0
   25.8938  -20.0141  -10.0070 C   0  0  1  0  0  0  0  0  0  0  0  0
   27.0625  -20.7307   -9.3824 C   0  0  0  0  0  0  0  0  0  0  0  0
   27.3001  -20.1430   -8.0419 C   0  0  0  0  0  0  0  0  0  0  0  0
   26.6508  -19.1052   -7.4080 C   0  0  0  0  0  0  0  0  0  0  0  0
   27.2347  -18.9536   -6.2172 N   0  0  0  0  0  0  0  0  0  0  0  0
   28.2264  -19.8301   -6.0352 C   0  0  0  0  0  0  0  0  0  0  0  0
   29.1202  -20.0797   -4.9942 C   0  0  0  0  0  0  0  0  0  0  0  0
   30.0733  -21.0710   -5.0614 C   0  0  0  0  0  0  0  0  0  0  0  0
   30.1284  -21.8331   -6.2091 C   0  0  0  0  0  0  0  0  0  0  0  0
   29.2450  -21.5840   -7.2339 C   0  0  0  0  0  0  0  0  0  0  0  0
   28.2860  -20.5927   -7.1765 C   0  0  0  0  0  0  0  0  0  0  0  0
   25.8853  -20.2079  -11.4816 C   0  0  0  0  0  0  0  0  0  0  0  0
   25.2226  -21.1499  -12.0227 O   0  0  0  0  0  0  0  0  0  0  0  0
   27.6438  -17.3741  -13.5744 O   0  0  0  0  0  0  0  0  0  0  0  0
   27.3596  -18.3955  -14.4624 C   0  0  0  0  0  0  0  0  0  0  0  0
   26.6427  -19.5697  -13.8055 C   0  0  2  0  0  0  0  0  0  0  0  0
   26.6085  -19.3596  -12.3452 N   0  0  0  0  0  0  0  0  0  0  0  0
   27.2516  -20.8570  -14.1344 C   0  0  0  0  0  0  0  0  0  0  0  0
   28.2628  -21.2517  -13.4656 O   0  0  0  0  0  0  0  0  0  0  0  0
   26.7657  -21.6913  -15.1678 N   0  0  0  0  0  0  0  0  0  0  0  0
   27.3528  -22.9934  -15.4519 C   0  0  0  0  0  0  0  0  0  0  0  0
   26.5521  -23.5871  -16.5680 C   0  0  0  0  0  0  0  0  0  0  0  0
   25.4655  -22.8579  -17.0238 O   0  0  0  0  0  0  0  0  0  0  0  0
   26.8361  -24.7036  -17.0871 O   0  0  0  0  0  0  0  0  0  0  0  0
  2  1  1  1
  2  3  1  0
  2 13  1  0
  3  4  1  0
  4  5  2  0
  6  5  1  0
  7  6  1  0
  8  7  2  0
  9  8  1  0
 10  9  2  0
 10 11  1  0
 11 12  2  0
 12  7  1  0
 12  4  1  0
 13 14  2  0
 16 15  1  0
 17 16  1  6
 18 13  1  0
 18 17  1  0
 19 17  1  0
 19 20  2  0
 21 19  1  0
 22 21  1  0
 22 23  1  0
 23 24  1  0
 25 23  2  0
M  END
$$$$
