WSG.pdb
     RDKit          3D

 25 26  0  0  1  0  0  0  0  0999 V2000
   20.6253  -11.9026  -17.0138 N   0  0  0  0  0  0  0  0  0  0  0  0
   20.9888  -10.5805  -17.4930 C   0  0  1  0  0  0  0  0  0  0  0  0
   20.4727  -10.3805  -18.8941 C   0  0  0  0  0  0  0  0  0  0  0  0
   21.1954  -11.3161  -19.7891 C   0  0  0  0  0  0  0  0  0  0  0  0
   21.4556  -12.6607  -19.6318 C   0  0  0  0  0  0  0  0  0  0  0  0
   22.1386  -13.0511  -20.7103 N   0  0  0  0  0  0  0  0  0  0  0  0
   22.3401  -12.0423  -21.5625 C   0  0  0  0  0  0  0  0  0  0  0  0
   22.9784  -11.9297  -22.7974 C   0  0  0  0  0  0  0  0  0  0  0  0
   23.0461  -10.7403  -23.4876 C   0  0  0  0  0  0  0  0  0  0  0  0
   22.4544   -9.6324  -22.9188 C   0  0  0  0  0  0  0  0  0  0  0  0
   21.8255   -9.7473  -21.7005 C   0  0  0  0  0  0  0  0  0  0  0  0
   21.7522  -10.9349  -21.0006 C   0  0  0  0  0  0  0  0  0  0  0  0
   20.4150   -9.5642  -16.5711 C   0  0  0  0  0  0  0  0  0  0  0  0
   19.1803   -9.5705  -16.2629 O   0  0  0  0  0  0  0  0  0  0  0  0
   21.4924   -8.9600  -13.1389 O   0  0  0  0  0  0  0  0  0  0  0  0
   20.3699   -8.3868  -13.7079 C   0  0  0  0  0  0  0  0  0  0  0  0
   20.6811   -7.6156  -14.9856 C   0  0  2  0  0  0  0  0  0  0  0  0
   21.2098   -8.5503  -15.9979 N   0  0  0  0  0  0  0  0  0  0  0  0
   21.6071   -6.5070  -14.7633 C   0  0  0  0  0  0  0  0  0  0  0  0
   22.8591   -6.7124  -14.8888 O   0  0  0  0  0  0  0  0  0  0  0  0
   21.1740   -5.2069  -14.4136 N   0  0  0  0  0  0  0  0  0  0  0  0
   22.1113   -4.1304  -14.1250 C   0  0  0  0  0  0  0  0  0  0  0  0
   21.3037   -2.8733  -14.0425 C   0  0  0  0  0  0  0  0  0  0  0  0
   21.9498   -1.7357  -13.5857 O   0  0  0  0  0  0  0  0  0  0  0  0
   20.0840   -2.8282  -14.3698 O   0  0  0  0  0  0  0  0  0  0  0  0
  2  1  1  1
  2  3  1  0
  2 13  1  0
  3  4  1  0
  4  5  2  0
  6  5  1  0
  7  6  1  0
  8  7  2  0
  9  8  1  0
 10  9  2  0
 10 11  1  0
 11 12  2  0
 12  7  1  0
 12  4  1  0
 13 14  2  0
 16 15  1  0
 17 16  1  1
 18 13  1  0
 18 17  1  0
 19 17  1  0
 19 20  2  0
 21 19  1  0
 22 21  1  0
 22 23  1  0
 23 24  1  0
 25 23  2  0
M  END
$$$$
