CTH.pdb
     RDKit          3D

 24 24  0  0  1  0  0  0  0  0999 V2000
   13.3641  -11.0953   -9.6126 N   0  0  0  0  0  0  0  0  0  0  0  0
   14.7052  -10.6408   -9.8803 C   0  0  1  0  0  0  0  0  0  0  0  0
   15.3695  -11.4877  -10.9733 C   0  0  0  0  0  0  0  0  0  0  0  0
   15.6975  -13.1357  -10.3651 S   0  0  0  0  0  0  0  0  0  0  0  0
   14.6992   -9.2095  -10.2881 C   0  0  0  0  0  0  0  0  0  0  0  0
   13.8531   -8.7870  -11.1173 O   0  0  0  0  0  0  0  0  0  0  0  0
   14.8401   -6.0367   -7.9730 C   0  0  0  0  0  0  0  0  0  0  0  0
   15.9624   -6.0199   -8.9856 C   0  0  1  0  0  0  0  0  0  0  0  0
   17.1474   -6.4491   -8.3903 O   0  0  0  0  0  0  0  0  0  0  0  0
   15.6037   -6.8705  -10.2010 C   0  0  2  0  0  0  0  0  0  0  0  0
   15.6279   -8.2561   -9.7769 N   0  0  0  0  0  0  0  0  0  0  0  0
   16.4730   -6.6032  -11.3415 C   0  0  0  0  0  0  0  0  0  0  0  0
   17.4921   -7.3071  -11.5351 O   0  0  0  0  0  0  0  0  0  0  0  0
   16.1864   -5.5524  -12.2458 N   0  0  0  0  0  0  0  0  0  0  0  0
   17.1136   -5.2985  -13.3793 C   0  0  1  0  0  0  0  0  0  0  0  0
   16.4006   -5.7111  -14.6160 C   0  0  0  0  0  0  0  0  0  0  0  0
   17.0262   -5.3878  -15.8912 C   0  0  0  0  0  0  0  0  0  0  0  0
   16.9601   -4.3466  -16.7631 C   0  0  0  0  0  0  0  0  0  0  0  0
   17.8083   -4.5543  -17.7964 N   0  0  0  0  0  0  0  0  0  0  0  0
   18.4122   -5.7361  -17.5697 C   0  0  0  0  0  0  0  0  0  0  0  0
   17.9566   -6.2471  -16.4357 N   0  0  0  0  0  0  0  0  0  0  0  0
   17.2714   -3.8022  -13.3612 C   0  0  0  0  0  0  0  0  0  0  0  0
   18.0744   -3.1853  -14.0991 O   0  0  0  0  0  0  0  0  0  0  0  0
   16.4987   -3.0656  -12.4931 O   0  0  0  0  0  0  0  0  0  0  0  0
  2  5  1  0
  2  1  1  6
  2  3  1  0
  4  3  1  0
  5  6  2  0
  8  7  1  1
  8 10  1  0
  9  8  1  0
 10 12  1  0
 11  5  1  0
 10 11  1  1
 12 14  1  0
 12 13  2  0
 14 15  1  0
 15 22  1  0
 15 16  1  6
 17 16  1  0
 17 18  2  0
 19 18  1  0
 20 21  2  0
 20 19  1  0
 21 17  1  0
 22 23  2  0
 22 24  1  0
M  END
$$$$
