CTH.pdb
     RDKit          3D

 24 24  0  0  1  0  0  0  0  0999 V2000
   25.3574  -13.5442  -17.5546 N   0  0  0  0  0  0  0  0  0  0  0  0
   25.2690  -12.5075  -16.5574 C   0  0  1  0  0  0  0  0  0  0  0  0
   26.5242  -11.6256  -16.5619 C   0  0  0  0  0  0  0  0  0  0  0  0
   27.8715  -12.4633  -15.7396 S   0  0  0  0  0  0  0  0  0  0  0  0
   24.0629  -11.6658  -16.7857 C   0  0  0  0  0  0  0  0  0  0  0  0
   23.9110  -11.0521  -17.8731 O   0  0  0  0  0  0  0  0  0  0  0  0
   20.7059  -11.9033  -14.2242 C   0  0  0  0  0  0  0  0  0  0  0  0
   20.6426  -11.4912  -15.6772 C   0  0  1  0  0  0  0  0  0  0  0  0
   19.4646  -10.7873  -15.9217 O   0  0  0  0  0  0  0  0  0  0  0  0
   21.8745  -10.6755  -16.0598 C   0  0  2  0  0  0  0  0  0  0  0  0
   23.0343  -11.5083  -15.8111 N   0  0  0  0  0  0  0  0  0  0  0  0
   21.9284   -9.3933  -15.3666 C   0  0  0  0  0  0  0  0  0  0  0  0
   22.5447   -9.2904  -14.2797 O   0  0  0  0  0  0  0  0  0  0  0  0
   21.2915   -8.2480  -15.9020 N   0  0  0  0  0  0  0  0  0  0  0  0
   21.3944   -6.9553  -15.1757 C   0  0  1  0  0  0  0  0  0  0  0  0
   21.9798   -5.9754  -16.1271 C   0  0  0  0  0  0  0  0  0  0  0  0
   22.0944   -4.5933  -15.6815 C   0  0  0  0  0  0  0  0  0  0  0  0
   22.8540   -3.9329  -14.7673 C   0  0  0  0  0  0  0  0  0  0  0  0
   22.5682   -2.6108  -14.7973 N   0  0  0  0  0  0  0  0  0  0  0  0
   21.6217   -2.4409  -15.7395 C   0  0  0  0  0  0  0  0  0  0  0  0
   21.3274   -3.6149  -16.2775 N   0  0  0  0  0  0  0  0  0  0  0  0
   19.9571   -6.6017  -14.9053 C   0  0  0  0  0  0  0  0  0  0  0  0
   18.9895   -7.2238  -15.4019 O   0  0  0  0  0  0  0  0  0  0  0  0
   19.6815   -5.5425  -14.0713 O   0  0  0  0  0  0  0  0  0  0  0  0
  2  5  1  0
  2  1  1  6
  2  3  1  0
  4  3  1  0
  5  6  2  0
  8  7  1  1
  8 10  1  0
  9  8  1  0
 10 12  1  0
 11  5  1  0
 10 11  1  1
 12 14  1  0
 12 13  2  0
 14 15  1  0
 15 22  1  0
 15 16  1  6
 17 16  1  0
 17 18  2  0
 19 18  1  0
 20 21  2  0
 20 19  1  0
 21 17  1  0
 22 23  2  0
 22 24  1  0
M  END
$$$$
