CTH.pdb
     RDKit          3D

 24 24  0  0  1  0  0  0  0  0999 V2000
   12.3023  -11.4558  -10.2700 N   0  0  0  0  0  0  0  0  0  0  0  0
   13.7407  -11.3952  -10.3325 C   0  0  1  0  0  0  0  0  0  0  0  0
   14.3033  -12.5002  -11.2356 C   0  0  0  0  0  0  0  0  0  0  0  0
   14.3021  -14.0648  -10.3724 S   0  0  0  0  0  0  0  0  0  0  0  0
   14.1856  -10.0649  -10.8302 C   0  0  0  0  0  0  0  0  0  0  0  0
   13.7091   -9.5906  -11.8932 O   0  0  0  0  0  0  0  0  0  0  0  0
   15.8587   -7.4082   -8.2686 C   0  0  0  0  0  0  0  0  0  0  0  0
   15.3416   -6.9425   -9.6105 C   0  0  1  0  0  0  0  0  0  0  0  0
   15.9189   -5.7186   -9.9447 O   0  0  0  0  0  0  0  0  0  0  0  0
   15.6000   -7.9974  -10.6827 C   0  0  2  0  0  0  0  0  0  0  0  0
   15.1531   -9.2689  -10.1497 N   0  0  0  0  0  0  0  0  0  0  0  0
   16.9914   -8.0148  -11.1203 C   0  0  0  0  0  0  0  0  0  0  0  0
   17.8492   -8.6539  -10.4666 O   0  0  0  0  0  0  0  0  0  0  0  0
   17.3986   -7.3164  -12.2824 N   0  0  0  0  0  0  0  0  0  0  0  0
   18.8295   -7.3487  -12.6833 C   0  0  1  0  0  0  0  0  0  0  0  0
   19.0015   -8.5361  -13.5600 C   0  0  0  0  0  0  0  0  0  0  0  0
   20.3108   -8.7399  -14.1650 C   0  0  0  0  0  0  0  0  0  0  0  0
   21.5057   -8.0924  -14.1229 C   0  0  0  0  0  0  0  0  0  0  0  0
   22.4197   -8.7602  -14.8639 N   0  0  0  0  0  0  0  0  0  0  0  0
   21.7923   -9.8366  -15.3742 C   0  0  0  0  0  0  0  0  0  0  0  0
   20.5320   -9.8397  -14.9664 N   0  0  0  0  0  0  0  0  0  0  0  0
   18.9832   -6.0923  -13.4969 C   0  0  0  0  0  0  0  0  0  0  0  0
   18.0311   -5.3218  -13.7610 O   0  0  0  0  0  0  0  0  0  0  0  0
   20.2294   -5.7646  -13.9797 O   0  0  0  0  0  0  0  0  0  0  0  0
  2  5  1  0
  2  1  1  6
  2  3  1  0
  4  3  1  0
  5  6  2  0
  8  7  1  1
  8 10  1  0
  9  8  1  0
 10 12  1  0
 11  5  1  0
 10 11  1  1
 12 14  1  0
 12 13  2  0
 14 15  1  0
 15 22  1  0
 15 16  1  6
 17 16  1  0
 17 18  2  0
 19 18  1  0
 20 21  2  0
 20 19  1  0
 21 17  1  0
 22 23  2  0
 22 24  1  0
M  END
$$$$
