CTH.pdb
     RDKit          3D

 24 24  0  0  1  0  0  0  0  0999 V2000
   20.3200  -16.7869  -15.5710 N   0  0  0  0  0  0  0  0  0  0  0  0
   20.0713  -15.6265  -16.3885 C   0  0  1  0  0  0  0  0  0  0  0  0
   18.5804  -15.4945  -16.7247 C   0  0  0  0  0  0  0  0  0  0  0  0
   17.9898  -16.9852  -17.5133 S   0  0  0  0  0  0  0  0  0  0  0  0
   20.5422  -14.3934  -15.7009 C   0  0  0  0  0  0  0  0  0  0  0  0
   20.1571  -14.1287  -14.5331 O   0  0  0  0  0  0  0  0  0  0  0  0
   24.1542  -13.1093  -15.2786 C   0  0  0  0  0  0  0  0  0  0  0  0
   23.3185  -12.0314  -15.9305 C   0  0  1  0  0  0  0  0  0  0  0  0
   23.5673  -11.9998  -17.3016 O   0  0  0  0  0  0  0  0  0  0  0  0
   21.8369  -12.2449  -15.6327 C   0  0  2  0  0  0  0  0  0  0  0  0
   21.4348  -13.4623  -16.3085 N   0  0  0  0  0  0  0  0  0  0  0  0
   21.0252  -11.0895  -15.9985 C   0  0  0  0  0  0  0  0  0  0  0  0
   20.1723  -11.1831  -16.9126 O   0  0  0  0  0  0  0  0  0  0  0  0
   21.1820   -9.8490  -15.3347 N   0  0  0  0  0  0  0  0  0  0  0  0
   20.3458   -8.6931  -15.7515 C   0  0  1  0  0  0  0  0  0  0  0  0
   18.9444   -9.0245  -15.3846 C   0  0  0  0  0  0  0  0  0  0  0  0
   17.9464   -7.9733  -15.5280 C   0  0  0  0  0  0  0  0  0  0  0  0
   17.9536   -6.6888  -15.9740 C   0  0  0  0  0  0  0  0  0  0  0  0
   16.7032   -6.1748  -15.9233 N   0  0  0  0  0  0  0  0  0  0  0  0
   15.9048   -7.1461  -15.4420 C   0  0  0  0  0  0  0  0  0  0  0  0
   16.6314   -8.2271  -15.2010 N   0  0  0  0  0  0  0  0  0  0  0  0
   20.8477   -7.5769  -14.8761 C   0  0  0  0  0  0  0  0  0  0  0  0
   20.4255   -6.3997  -14.9511 O   0  0  0  0  0  0  0  0  0  0  0  0
   21.8202   -7.8538  -13.9428 O   0  0  0  0  0  0  0  0  0  0  0  0
  2  5  1  0
  2  1  1  1
  2  3  1  0
  4  3  1  0
  5  6  2  0
  8  7  1  1
  8 10  1  0
  9  8  1  0
 10 12  1  0
 11  5  1  0
 10 11  1  6
 12 14  1  0
 12 13  2  0
 14 15  1  0
 15 22  1  0
 15 16  1  1
 17 16  1  0
 17 18  2  0
 19 18  1  0
 20 21  2  0
 20 19  1  0
 21 17  1  0
 22 23  2  0
 22 24  1  0
M  END
$$$$
