CTH.pdb
     RDKit          3D

 24 24  0  0  1  0  0  0  0  0999 V2000
   26.9997  -21.7607  -11.0284 N   0  0  0  0  0  0  0  0  0  0  0  0
   25.6838  -21.1888  -10.8945 C   0  0  1  0  0  0  0  0  0  0  0  0
   25.6191  -20.2192   -9.7074 C   0  0  0  0  0  0  0  0  0  0  0  0
   25.2633  -21.1102   -8.1998 S   0  0  0  0  0  0  0  0  0  0  0  0
   25.2935  -20.4800  -12.1437 C   0  0  0  0  0  0  0  0  0  0  0  0
   25.9823  -19.5188  -12.5723 O   0  0  0  0  0  0  0  0  0  0  0  0
   25.2135  -21.3893  -15.5473 C   0  0  0  0  0  0  0  0  0  0  0  0
   23.7880  -20.9666  -15.2747 C   0  0  1  0  0  0  0  0  0  0  0  0
   22.9788  -22.0911  -15.1213 O   0  0  0  0  0  0  0  0  0  0  0  0
   23.7211  -20.0549  -14.0525 C   0  0  2  0  0  0  0  0  0  0  0  0
   24.1456  -20.8384  -12.9095 N   0  0  0  0  0  0  0  0  0  0  0  0
   22.4034  -19.4538  -13.8799 C   0  0  0  0  0  0  0  0  0  0  0  0
   21.6062  -19.9172  -13.0306 O   0  0  0  0  0  0  0  0  0  0  0  0
   22.0007  -18.3440  -14.6611 N   0  0  0  0  0  0  0  0  0  0  0  0
   20.6710  -17.7277  -14.4135 C   0  0  1  0  0  0  0  0  0  0  0  0
   20.7368  -16.3410  -14.9435 C   0  0  0  0  0  0  0  0  0  0  0  0
   19.5347  -15.5249  -14.8396 C   0  0  0  0  0  0  0  0  0  0  0  0
   18.3221  -15.6631  -14.2401 C   0  0  0  0  0  0  0  0  0  0  0  0
   17.5797  -14.5493  -14.4366 N   0  0  0  0  0  0  0  0  0  0  0  0
   18.3340  -13.7050  -15.1649 C   0  0  0  0  0  0  0  0  0  0  0  0
   19.5049  -14.2720  -15.4141 N   0  0  0  0  0  0  0  0  0  0  0  0
   19.7487  -18.5534  -15.2689 C   0  0  0  0  0  0  0  0  0  0  0  0
   20.0913  -19.0570  -16.3638 O   0  0  0  0  0  0  0  0  0  0  0  0
   18.4615  -18.7717  -14.8346 O   0  0  0  0  0  0  0  0  0  0  0  0
  2  5  1  0
  2  1  1  6
  2  3  1  0
  4  3  1  0
  5  6  2  0
  8  7  1  1
  8 10  1  0
  9  8  1  0
 10 12  1  0
 11  5  1  0
 10 11  1  1
 12 14  1  0
 12 13  2  0
 14 15  1  0
 15 22  1  0
 15 16  1  6
 17 16  1  0
 17 18  2  0
 19 18  1  0
 20 21  2  0
 20 19  1  0
 21 17  1  0
 22 23  2  0
 22 24  1  0
M  END
$$$$
