CTH.pdb
     RDKit          3D

 24 24  0  0  1  0  0  0  0  0999 V2000
   20.0976  -11.7368  -20.6567 N   0  0  0  0  0  0  0  0  0  0  0  0
   19.3564  -10.7136  -19.9635 C   0  0  1  0  0  0  0  0  0  0  0  0
   18.5282  -11.3091  -18.8178 C   0  0  0  0  0  0  0  0  0  0  0  0
   17.2268  -12.3460  -19.4694 S   0  0  0  0  0  0  0  0  0  0  0  0
   20.2774   -9.6735  -19.4295 C   0  0  0  0  0  0  0  0  0  0  0  0
   21.4373   -9.9822  -19.0537 O   0  0  0  0  0  0  0  0  0  0  0  0
   21.1520   -6.7230  -21.3852 C   0  0  0  0  0  0  0  0  0  0  0  0
   20.7830   -6.1849  -20.0216 C   0  0  1  0  0  0  0  0  0  0  0  0
   19.5088   -5.6212  -20.0608 O   0  0  0  0  0  0  0  0  0  0  0  0
   20.8800   -7.2823  -18.9653 C   0  0  2  0  0  0  0  0  0  0  0  0
   19.9099   -8.3007  -19.3149 N   0  0  0  0  0  0  0  0  0  0  0  0
   20.7093   -6.7664  -17.6117 C   0  0  0  0  0  0  0  0  0  0  0  0
   19.5662   -6.7059  -17.1003 O   0  0  0  0  0  0  0  0  0  0  0  0
   21.8212   -6.3271  -16.8536 N   0  0  0  0  0  0  0  0  0  0  0  0
   21.5959   -5.7605  -15.4981 C   0  0  1  0  0  0  0  0  0  0  0  0
   22.1727   -6.7279  -14.5287 C   0  0  0  0  0  0  0  0  0  0  0  0
   21.4682   -7.9886  -14.3386 C   0  0  0  0  0  0  0  0  0  0  0  0
   20.2998   -8.3634  -13.7528 C   0  0  0  0  0  0  0  0  0  0  0  0
   20.1106   -9.6940  -13.9086 N   0  0  0  0  0  0  0  0  0  0  0  0
   21.1695  -10.1571  -14.5990 C   0  0  0  0  0  0  0  0  0  0  0  0
   21.9899   -9.1515  -14.8641 N   0  0  0  0  0  0  0  0  0  0  0  0
   22.4237   -4.5041  -15.5127 C   0  0  0  0  0  0  0  0  0  0  0  0
   23.1229   -4.1512  -16.4907 O   0  0  0  0  0  0  0  0  0  0  0  0
   22.4188   -3.6952  -14.3996 O   0  0  0  0  0  0  0  0  0  0  0  0
  2  5  1  0
  2  1  1  1
  2  3  1  0
  4  3  1  0
  5  6  2  0
  8  7  1  6
  8 10  1  0
  9  8  1  0
 10 12  1  0
 11  5  1  0
 10 11  1  6
 12 14  1  0
 12 13  2  0
 14 15  1  0
 15 22  1  0
 15 16  1  1
 17 16  1  0
 17 18  2  0
 19 18  1  0
 20 21  2  0
 20 19  1  0
 21 17  1  0
 22 23  2  0
 22 24  1  0
M  END
$$$$
