CTH.pdb
     RDKit          3D

 24 24  0  0  1  0  0  0  0  0999 V2000
   24.6641  -19.5296  -18.0318 N   0  0  0  0  0  0  0  0  0  0  0  0
   24.4928  -18.7807  -16.8125 C   0  0  1  0  0  0  0  0  0  0  0  0
   25.1201  -17.3854  -16.9263 C   0  0  0  0  0  0  0  0  0  0  0  0
   26.8995  -17.5138  -17.0289 S   0  0  0  0  0  0  0  0  0  0  0  0
   23.0485  -18.6561  -16.4755 C   0  0  0  0  0  0  0  0  0  0  0  0
   22.2014  -18.4285  -17.3770 O   0  0  0  0  0  0  0  0  0  0  0  0
   19.4232  -19.4405  -13.1953 C   0  0  0  0  0  0  0  0  0  0  0  0
   20.8698  -19.5490  -13.6203 C   0  0  1  0  0  0  0  0  0  0  0  0
   21.2012  -20.8840  -13.8456 O   0  0  0  0  0  0  0  0  0  0  0  0
   21.1350  -18.6882  -14.8524 C   0  0  2  0  0  0  0  0  0  0  0  0
   22.5512  -18.7837  -15.1454 N   0  0  0  0  0  0  0  0  0  0  0  0
   20.6752  -17.3148  -14.6794 C   0  0  0  0  0  0  0  0  0  0  0  0
   21.3363  -16.5130  -13.9781 O   0  0  0  0  0  0  0  0  0  0  0  0
   19.4831  -16.8624  -15.2945 N   0  0  0  0  0  0  0  0  0  0  0  0
   19.0411  -15.4605  -15.0748 C   0  0  1  0  0  0  0  0  0  0  0  0
   19.4154  -14.6978  -16.2940 C   0  0  0  0  0  0  0  0  0  0  0  0
   18.9617  -13.3168  -16.3876 C   0  0  0  0  0  0  0  0  0  0  0  0
   18.2857  -12.4647  -15.5716 C   0  0  0  0  0  0  0  0  0  0  0  0
   18.1692  -11.2533  -16.1628 N   0  0  0  0  0  0  0  0  0  0  0  0
   18.7785  -11.3468  -17.3597 C   0  0  0  0  0  0  0  0  0  0  0  0
   19.2575  -12.5726  -17.5098 N   0  0  0  0  0  0  0  0  0  0  0  0
   17.5437  -15.5844  -14.9951 C   0  0  0  0  0  0  0  0  0  0  0  0
   16.8781  -16.3671  -15.7123 O   0  0  0  0  0  0  0  0  0  0  0  0
   16.8619  -14.8023  -14.0913 O   0  0  0  0  0  0  0  0  0  0  0  0
  2  5  1  0
  2  1  1  6
  2  3  1  0
  4  3  1  0
  5  6  2  0
  8  7  1  6
  8 10  1  0
  9  8  1  0
 10 12  1  0
 11  5  1  0
 10 11  1  1
 12 14  1  0
 12 13  2  0
 14 15  1  0
 15 22  1  0
 15 16  1  6
 17 16  1  0
 17 18  2  0
 19 18  1  0
 20 21  2  0
 20 19  1  0
 21 17  1  0
 22 23  2  0
 22 24  1  0
M  END
$$$$
