CTH.pdb
     RDKit          3D

 24 24  0  0  1  0  0  0  0  0999 V2000
   17.4291  -14.5921  -15.7554 N   0  0  0  0  0  0  0  0  0  0  0  0
   17.0084  -13.4254  -16.4893 C   0  0  1  0  0  0  0  0  0  0  0  0
   15.4788  -13.3124  -16.5212 C   0  0  0  0  0  0  0  0  0  0  0  0
   14.7857  -14.5903  -17.5602 S   0  0  0  0  0  0  0  0  0  0  0  0
   17.5906  -12.1939  -15.8896 C   0  0  0  0  0  0  0  0  0  0  0  0
   17.3932  -11.9210  -14.6778 O   0  0  0  0  0  0  0  0  0  0  0  0
   21.1212  -11.2349  -15.5661 C   0  0  0  0  0  0  0  0  0  0  0  0
   20.4478  -10.0995  -16.3026 C   0  0  1  0  0  0  0  0  0  0  0  0
   20.7110  -10.1951  -17.6680 O   0  0  0  0  0  0  0  0  0  0  0  0
   18.9484  -10.0876  -16.0185 C   0  0  2  0  0  0  0  0  0  0  0  0
   18.3862  -11.2736  -16.6332 N   0  0  0  0  0  0  0  0  0  0  0  0
   18.3095   -8.8532  -16.4608 C   0  0  0  0  0  0  0  0  0  0  0  0
   17.7542   -8.7988  -17.5835 O   0  0  0  0  0  0  0  0  0  0  0  0
   18.3031   -7.7008  -15.6387 N   0  0  0  0  0  0  0  0  0  0  0  0
   17.7175   -6.4394  -16.1634 C   0  0  1  0  0  0  0  0  0  0  0  0
   16.7216   -5.9805  -15.1606 C   0  0  0  0  0  0  0  0  0  0  0  0
   16.1431   -4.6566  -15.3463 C   0  0  0  0  0  0  0  0  0  0  0  0
   16.5004   -3.3898  -15.0050 C   0  0  0  0  0  0  0  0  0  0  0  0
   15.5894   -2.5090  -15.4790 N   0  0  0  0  0  0  0  0  0  0  0  0
   14.6531   -3.2301  -16.1239 C   0  0  0  0  0  0  0  0  0  0  0  0
   14.9687   -4.5147  -16.0543 N   0  0  0  0  0  0  0  0  0  0  0  0
   18.8921   -5.4991  -16.1773 C   0  0  0  0  0  0  0  0  0  0  0  0
   18.8970   -4.4121  -16.8004 O   0  0  0  0  0  0  0  0  0  0  0  0
   20.0230   -5.8421  -15.4725 O   0  0  0  0  0  0  0  0  0  0  0  0
  2  5  1  0
  2  1  1  1
  2  3  1  0
  4  3  1  0
  5  6  2  0
  8  7  1  1
  8 10  1  0
  9  8  1  0
 10 12  1  0
 11  5  1  0
 10 11  1  6
 12 14  1  0
 12 13  2  0
 14 15  1  0
 15 22  1  0
 15 16  1  1
 17 16  1  0
 17 18  2  0
 19 18  1  0
 20 21  2  0
 20 19  1  0
 21 17  1  0
 22 23  2  0
 22 24  1  0
M  END
$$$$
