CTH.pdb
     RDKit          3D

 24 24  0  0  1  0  0  0  0  0999 V2000
   44.9882  -10.3516   -5.1316 N   0  0  0  0  0  0  0  0  0  0  0  0
   43.5567  -10.3218   -5.2946 C   0  0  1  0  0  0  0  0  0  0  0  0
   42.9050   -9.3580   -4.2947 C   0  0  0  0  0  0  0  0  0  0  0  0
   42.7820  -10.1258   -2.6859 S   0  0  0  0  0  0  0  0  0  0  0  0
   43.1980   -9.9233   -6.6830 C   0  0  0  0  0  0  0  0  0  0  0  0
   43.9721   -9.1964   -7.3571 O   0  0  0  0  0  0  0  0  0  0  0  0
   42.0960  -12.0646   -9.6279 C   0  0  0  0  0  0  0  0  0  0  0  0
   41.0380  -11.0074   -9.4087 C   0  0  1  0  0  0  0  0  0  0  0  0
   39.9325  -11.5654   -8.7690 O   0  0  0  0  0  0  0  0  0  0  0  0
   41.6080   -9.8303   -8.6221 C   0  0  2  0  0  0  0  0  0  0  0  0
   41.9872  -10.3309   -7.3159 N   0  0  0  0  0  0  0  0  0  0  0  0
   40.6827   -8.7044   -8.5596 C   0  0  0  0  0  0  0  0  0  0  0  0
   39.8292   -8.6408   -7.6436 O   0  0  0  0  0  0  0  0  0  0  0  0
   40.7288   -7.6688   -9.5238 N   0  0  0  0  0  0  0  0  0  0  0  0
   39.6841   -6.6119   -9.5027 C   0  0  1  0  0  0  0  0  0  0  0  0
   40.3925   -5.3127   -9.3669 C   0  0  0  0  0  0  0  0  0  0  0  0
   39.5810   -4.1030   -9.3607 C   0  0  0  0  0  0  0  0  0  0  0  0
   38.2484   -3.8339   -9.3366 C   0  0  0  0  0  0  0  0  0  0  0  0
   38.0476   -2.4965   -9.2996 N   0  0  0  0  0  0  0  0  0  0  0  0
   39.2652   -1.9222   -9.2996 C   0  0  0  0  0  0  0  0  0  0  0  0
   40.1923   -2.8676   -9.3357 N   0  0  0  0  0  0  0  0  0  0  0  0
   39.0702   -6.7129  -10.8728 C   0  0  0  0  0  0  0  0  0  0  0  0
   37.9606   -6.2122  -11.1690 O   0  0  0  0  0  0  0  0  0  0  0  0
   39.7552   -7.3879  -11.8569 O   0  0  0  0  0  0  0  0  0  0  0  0
  2  5  1  0
  2  1  1  6
  2  3  1  0
  4  3  1  0
  5  6  2  0
  8  7  1  1
  8 10  1  0
  9  8  1  0
 10 12  1  0
 11  5  1  0
 10 11  1  1
 12 14  1  0
 12 13  2  0
 14 15  1  0
 15 22  1  0
 15 16  1  6
 17 16  1  0
 17 18  2  0
 19 18  1  0
 20 21  2  0
 20 19  1  0
 21 17  1  0
 22 23  2  0
 22 24  1  0
M  END
$$$$
