CTH.pdb
     RDKit          3D

 24 24  0  0  1  0  0  0  0  0999 V2000
   19.5997  -12.7352  -18.4679 N   0  0  0  0  0  0  0  0  0  0  0  0
   20.6599  -12.1092  -17.7190 C   0  0  1  0  0  0  0  0  0  0  0  0
   21.9566  -12.0511  -18.5367 C   0  0  0  0  0  0  0  0  0  0  0  0
   22.5905  -13.6995  -18.8088 S   0  0  0  0  0  0  0  0  0  0  0  0
   20.2652  -10.7351  -17.3052 C   0  0  0  0  0  0  0  0  0  0  0  0
   19.8097   -9.9217  -18.1496 O   0  0  0  0  0  0  0  0  0  0  0  0
   17.8175   -9.7284  -14.6287 C   0  0  0  0  0  0  0  0  0  0  0  0
   19.1298   -9.0417  -14.3267 C   0  0  1  0  0  0  0  0  0  0  0  0
   19.8024   -9.7241  -13.3143 O   0  0  0  0  0  0  0  0  0  0  0  0
   19.9805   -8.9271  -15.5886 C   0  0  2  0  0  0  0  0  0  0  0  0
   20.3768  -10.2702  -15.9620 N   0  0  0  0  0  0  0  0  0  0  0  0
   21.1108   -8.0215  -15.4156 C   0  0  0  0  0  0  0  0  0  0  0  0
   22.2838   -8.4601  -15.4734 O   0  0  0  0  0  0  0  0  0  0  0  0
   20.9086   -6.6401  -15.1808 N   0  0  0  0  0  0  0  0  0  0  0  0
   22.0871   -5.7375  -15.1063 C   0  0  1  0  0  0  0  0  0  0  0  0
   22.7219   -5.7509  -16.4498 C   0  0  0  0  0  0  0  0  0  0  0  0
   23.8141   -4.8165  -16.6856 C   0  0  0  0  0  0  0  0  0  0  0  0
   25.0733   -4.6591  -16.1970 C   0  0  0  0  0  0  0  0  0  0  0  0
   25.6829   -3.6218  -16.8157 N   0  0  0  0  0  0  0  0  0  0  0  0
   24.7983   -3.1251  -17.7007 C   0  0  0  0  0  0  0  0  0  0  0  0
   23.6769   -3.8272  -17.6360 N   0  0  0  0  0  0  0  0  0  0  0  0
   21.4679   -4.3898  -14.8525 C   0  0  0  0  0  0  0  0  0  0  0  0
   20.3028   -4.0901  -15.2027 O   0  0  0  0  0  0  0  0  0  0  0  0
   22.2116   -3.4313  -14.2034 O   0  0  0  0  0  0  0  0  0  0  0  0
  2  5  1  0
  2  1  1  6
  2  3  1  0
  4  3  1  0
  5  6  2  0
  8  7  1  6
  8 10  1  0
  9  8  1  0
 10 12  1  0
 11  5  1  0
 10 11  1  1
 12 14  1  0
 12 13  2  0
 14 15  1  0
 15 22  1  0
 15 16  1  6
 17 16  1  0
 17 18  2  0
 19 18  1  0
 20 21  2  0
 20 19  1  0
 21 17  1  0
 22 23  2  0
 22 24  1  0
M  END
$$$$
