CTH.pdb
     RDKit          3D

 24 24  0  0  1  0  0  0  0  0999 V2000
   28.2904  -14.6704  -16.9337 N   0  0  0  0  0  0  0  0  0  0  0  0
   27.3093  -13.9497  -17.7050 C   0  0  1  0  0  0  0  0  0  0  0  0
   26.0338  -14.7806  -17.8946 C   0  0  0  0  0  0  0  0  0  0  0  0
   26.4366  -16.3882  -18.5629 S   0  0  0  0  0  0  0  0  0  0  0  0
   26.9738  -12.6580  -17.0459 C   0  0  0  0  0  0  0  0  0  0  0  0
   26.6576  -12.6272  -15.8290 O   0  0  0  0  0  0  0  0  0  0  0  0
   29.1543   -9.6948  -16.9464 C   0  0  0  0  0  0  0  0  0  0  0  0
   27.8139   -9.1832  -17.4223 C   0  0  1  0  0  0  0  0  0  0  0  0
   27.8556   -8.9432  -18.7947 O   0  0  0  0  0  0  0  0  0  0  0  0
   26.7027  -10.1634  -17.0565 C   0  0  2  0  0  0  0  0  0  0  0  0
   26.9904  -11.4107  -17.7363 N   0  0  0  0  0  0  0  0  0  0  0  0
   25.3764   -9.6368  -17.3586 C   0  0  0  0  0  0  0  0  0  0  0  0
   24.8201   -9.9177  -18.4464 O   0  0  0  0  0  0  0  0  0  0  0  0
   24.6956   -8.8047  -16.4377 N   0  0  0  0  0  0  0  0  0  0  0  0
   23.3606   -8.2617  -16.8012 C   0  0  1  0  0  0  0  0  0  0  0  0
   22.4215   -8.6813  -15.7288 C   0  0  0  0  0  0  0  0  0  0  0  0
   21.0602   -8.1666  -15.7893 C   0  0  0  0  0  0  0  0  0  0  0  0
   20.3637   -7.3760  -16.6487 C   0  0  0  0  0  0  0  0  0  0  0  0
   19.0840   -7.2506  -16.2277 N   0  0  0  0  0  0  0  0  0  0  0  0
   18.9773   -7.9699  -15.0947 C   0  0  0  0  0  0  0  0  0  0  0  0
   20.1484   -8.5237  -14.8187 N   0  0  0  0  0  0  0  0  0  0  0  0
   23.5699   -6.7730  -16.7369 C   0  0  0  0  0  0  0  0  0  0  0  0
   22.8256   -5.9472  -17.3148 O   0  0  0  0  0  0  0  0  0  0  0  0
   24.6302   -6.2844  -16.0088 O   0  0  0  0  0  0  0  0  0  0  0  0
  2  5  1  0
  2  1  1  1
  2  3  1  0
  4  3  1  0
  5  6  2  0
  8  7  1  6
  8 10  1  0
  9  8  1  0
 10 12  1  0
 11  5  1  0
 10 11  1  6
 12 14  1  0
 12 13  2  0
 14 15  1  0
 15 22  1  0
 15 16  1  1
 17 16  1  0
 17 18  2  0
 19 18  1  0
 20 21  2  0
 20 19  1  0
 21 17  1  0
 22 23  2  0
 22 24  1  0
M  END
$$$$
