PSE.pdb
     RDKit          3D

 23 23  0  0  1  0  0  0  0  0999 V2000
    7.5102  -15.0525   18.8421 N   0  0  0  0  0  0  0  0  0  0  0  0
    6.6223  -13.9272   18.8582 C   0  0  0  0  0  0  0  0  0  0  0  0
    7.4884  -12.7100   19.2032 C   0  0  0  0  0  0  0  0  0  0  0  0
    8.7810  -13.0906   18.4666 C   0  0  0  0  0  0  0  0  0  0  0  0
    8.8741  -14.5578   18.9171 C   0  0  1  0  0  0  0  0  0  0  0  0
    9.3479  -14.4936   20.3301 C   0  0  0  0  0  0  0  0  0  0  0  0
   10.5298  -14.1665   20.5429 O   0  0  0  0  0  0  0  0  0  0  0  0
    7.1572  -16.0397   23.6945 O   0  0  0  0  0  0  0  0  0  0  0  0
    7.8697  -14.8634   23.7634 C   0  0  0  0  0  0  0  0  0  0  0  0
    9.0384  -14.8328   22.7790 C   0  0  2  0  0  0  0  0  0  0  0  0
    8.5015  -14.7925   21.4463 N   0  0  0  0  0  0  0  0  0  0  0  0
    9.8935  -16.0253   23.0063 C   0  0  0  0  0  0  0  0  0  0  0  0
    9.6315  -17.0599   22.3529 O   0  0  0  0  0  0  0  0  0  0  0  0
   10.9505  -15.9504   23.9325 N   0  0  0  0  0  0  0  0  0  0  0  0
   11.9564  -16.8881   24.2473 C   0  0  1  0  0  0  0  0  0  0  0  0
   13.3007  -16.4644   23.6734 C   0  0  0  0  0  0  0  0  0  0  0  0
   14.3929  -17.4373   24.0393 C   0  0  0  0  0  0  0  0  0  0  0  0
   15.7064  -16.9802   23.5285 C   0  0  0  0  0  0  0  0  0  0  0  0
   15.9893  -15.7547   23.6305 O   0  0  0  0  0  0  0  0  0  0  0  0
   12.0071  -17.4164   25.5957 C   0  0  0  0  0  0  0  0  0  0  0  0
   11.4950  -16.7582   26.5357 O   0  0  0  0  0  0  0  0  0  0  0  0
   16.6044  -17.8417   22.9619 O   0  0  0  0  0  0  0  0  0  0  0  0
   12.5978  -18.6288   25.9211 O   0  0  0  0  0  0  0  0  0  0  0  0
  1  2  1  0
  2  3  1  0
  4  3  1  0
  5  1  1  0
  5  4  1  0
  5  6  1  1
  7  6  2  0
  8  9  1  0
 10  9  1  1
 10 11  1  0
 10 12  1  0
 11  6  1  0
 12 14  1  0
 13 12  2  0
 14 15  1  0
 15 16  1  1
 15 20  1  0
 16 17  1  0
 17 18  1  0
 18 22  1  0
 19 18  2  0
 20 21  2  0
 20 23  1  0
M  END
$$$$
