PSE.pdb
     RDKit          3D

 23 23  0  0  1  0  0  0  0  0999 V2000
    9.1714  -14.5765   18.5548 N   0  0  0  0  0  0  0  0  0  0  0  0
    9.1816  -13.8178   17.3385 C   0  0  0  0  0  0  0  0  0  0  0  0
    9.9584  -14.6611   16.3206 C   0  0  0  0  0  0  0  0  0  0  0  0
    9.5079  -16.0663   16.7458 C   0  0  0  0  0  0  0  0  0  0  0  0
    9.6772  -15.9075   18.2658 C   0  0  1  0  0  0  0  0  0  0  0  0
   11.1488  -15.9873   18.4961 C   0  0  0  0  0  0  0  0  0  0  0  0
   11.7221  -17.0718   18.2854 O   0  0  0  0  0  0  0  0  0  0  0  0
   15.3960  -14.0265   18.3038 O   0  0  0  0  0  0  0  0  0  0  0  0
   14.0276  -13.8785   18.3445 C   0  0  0  0  0  0  0  0  0  0  0  0
   13.3449  -14.9965   19.1316 C   0  0  2  0  0  0  0  0  0  0  0  0
   11.9247  -14.8715   18.9485 N   0  0  0  0  0  0  0  0  0  0  0  0
   13.7402  -14.8939   20.5592 C   0  0  0  0  0  0  0  0  0  0  0  0
   13.2648  -13.9477   21.2262 O   0  0  0  0  0  0  0  0  0  0  0  0
   14.6203  -15.8486   21.1021 N   0  0  0  0  0  0  0  0  0  0  0  0
   15.2112  -15.9222   22.3811 C   0  0  1  0  0  0  0  0  0  0  0  0
   14.7983  -17.1962   23.1039 C   0  0  0  0  0  0  0  0  0  0  0  0
   13.3671  -17.1300   23.5737 C   0  0  0  0  0  0  0  0  0  0  0  0
   12.9851  -18.3672   24.2936 C   0  0  0  0  0  0  0  0  0  0  0  0
   12.6217  -19.3638   23.6101 O   0  0  0  0  0  0  0  0  0  0  0  0
   16.6107  -15.5708   22.5139 C   0  0  0  0  0  0  0  0  0  0  0  0
   17.3396  -15.5434   21.4907 O   0  0  0  0  0  0  0  0  0  0  0  0
   13.0198  -18.4532   25.6578 O   0  0  0  0  0  0  0  0  0  0  0  0
   17.2092  -15.2557   23.7252 O   0  0  0  0  0  0  0  0  0  0  0  0
  1  2  1  0
  2  3  1  0
  4  3  1  0
  5  1  1  0
  5  4  1  0
  5  6  1  6
  7  6  2  0
  8  9  1  0
 10  9  1  6
 10 11  1  0
 10 12  1  0
 11  6  1  0
 12 14  1  0
 13 12  2  0
 14 15  1  0
 15 16  1  6
 15 20  1  0
 16 17  1  0
 17 18  1  0
 18 22  1  0
 19 18  2  0
 20 21  2  0
 20 23  1  0
M  END
$$$$
