PSE.pdb
     RDKit          3D

 23 23  0  0  1  0  0  0  0  0999 V2000
    7.4537  -17.8731   19.7051 N   0  0  0  0  0  0  0  0  0  0  0  0
    6.5885  -16.9188   19.0760 C   0  0  0  0  0  0  0  0  0  0  0  0
    7.5083  -15.8984   18.3952 C   0  0  0  0  0  0  0  0  0  0  0  0
    8.6446  -16.8285   17.9456 C   0  0  0  0  0  0  0  0  0  0  0  0
    8.8110  -17.6280   19.2485 C   0  0  1  0  0  0  0  0  0  0  0  0
    9.5328  -16.7057   20.1724 C   0  0  0  0  0  0  0  0  0  0  0  0
   10.6410  -16.2630   19.8188 O   0  0  0  0  0  0  0  0  0  0  0  0
    8.2246  -15.9360   24.1676 O   0  0  0  0  0  0  0  0  0  0  0  0
    8.9161  -14.9878   23.4472 C   0  0  0  0  0  0  0  0  0  0  0  0
    9.8281  -15.6109   22.3910 C   0  0  2  0  0  0  0  0  0  0  0  0
    9.0046  -16.3118   21.4442 N   0  0  0  0  0  0  0  0  0  0  0  0
   10.8032  -16.5074   23.0621 C   0  0  0  0  0  0  0  0  0  0  0  0
   10.4640  -17.6975   23.2485 O   0  0  0  0  0  0  0  0  0  0  0  0
   12.0531  -15.9955   23.4573 N   0  0  0  0  0  0  0  0  0  0  0  0
   13.1693  -16.6475   24.0224 C   0  0  1  0  0  0  0  0  0  0  0  0
   14.4645  -15.9405   23.6500 C   0  0  0  0  0  0  0  0  0  0  0  0
   15.6692  -16.6602   24.2017 C   0  0  0  0  0  0  0  0  0  0  0  0
   16.9253  -16.0023   23.7724 C   0  0  0  0  0  0  0  0  0  0  0  0
   17.9140  -16.0418   24.5557 O   0  0  0  0  0  0  0  0  0  0  0  0
   13.0862  -17.0834   25.4019 C   0  0  0  0  0  0  0  0  0  0  0  0
   13.6630  -18.1444   25.7493 O   0  0  0  0  0  0  0  0  0  0  0  0
   17.0366  -15.3672   22.5667 O   0  0  0  0  0  0  0  0  0  0  0  0
   12.3955  -16.3883   26.3840 O   0  0  0  0  0  0  0  0  0  0  0  0
  1  2  1  0
  2  3  1  0
  4  3  1  0
  5  1  1  0
  5  4  1  0
  5  6  1  1
  7  6  2  0
  8  9  1  0
 10  9  1  1
 10 11  1  0
 10 12  1  0
 11  6  1  0
 12 14  1  0
 13 12  2  0
 14 15  1  0
 15 16  1  1
 15 20  1  0
 16 17  1  0
 17 18  1  0
 18 22  1  0
 19 18  2  0
 20 21  2  0
 20 23  1  0
M  END
$$$$
