PSE.pdb
     RDKit          3D

 23 23  0  0  1  0  0  0  0  0999 V2000
    9.0720  -14.5387   18.4937 N   0  0  0  0  0  0  0  0  0  0  0  0
    7.7352  -14.3054   18.0317 C   0  0  0  0  0  0  0  0  0  0  0  0
    7.0789  -13.3964   19.0776 C   0  0  0  0  0  0  0  0  0  0  0  0
    8.2849  -12.5276   19.4637 C   0  0  0  0  0  0  0  0  0  0  0  0
    9.3309  -13.6450   19.6096 C   0  0  1  0  0  0  0  0  0  0  0  0
    9.0105  -14.3000   20.9109 C   0  0  0  0  0  0  0  0  0  0  0  0
    8.9885  -13.5962   21.9372 O   0  0  0  0  0  0  0  0  0  0  0  0
    9.0130  -18.5359   21.6195 O   0  0  0  0  0  0  0  0  0  0  0  0
    8.0029  -17.7275   22.0911 C   0  0  0  0  0  0  0  0  0  0  0  0
    8.4653  -16.2876   22.3111 C   0  0  2  0  0  0  0  0  0  0  0  0
    8.7291  -15.6997   21.0262 N   0  0  0  0  0  0  0  0  0  0  0  0
    9.6657  -16.2933   23.1853 C   0  0  0  0  0  0  0  0  0  0  0  0
   10.7872  -16.3148   22.6304 O   0  0  0  0  0  0  0  0  0  0  0  0
    9.5018  -16.2743   24.5829 N   0  0  0  0  0  0  0  0  0  0  0  0
   10.4585  -16.3681   25.6155 C   0  0  1  0  0  0  0  0  0  0  0  0
    9.9861  -15.6452   26.8687 C   0  0  0  0  0  0  0  0  0  0  0  0
   11.0242  -15.6906   27.9613 C   0  0  0  0  0  0  0  0  0  0  0  0
   10.5848  -14.9168   29.1459 C   0  0  0  0  0  0  0  0  0  0  0  0
    9.4590  -14.3485   29.0996 O   0  0  0  0  0  0  0  0  0  0  0  0
   11.0926  -17.6494   25.8520 C   0  0  0  0  0  0  0  0  0  0  0  0
   12.3344  -17.6981   26.0382 O   0  0  0  0  0  0  0  0  0  0  0  0
   11.3565  -14.8091   30.2694 O   0  0  0  0  0  0  0  0  0  0  0  0
   10.4004  -18.8513   25.8867 O   0  0  0  0  0  0  0  0  0  0  0  0
  1  2  1  0
  2  3  1  0
  4  3  1  0
  5  1  1  0
  5  4  1  0
  5  6  1  1
  7  6  2  0
  8  9  1  0
 10  9  1  6
 10 11  1  0
 10 12  1  0
 11  6  1  0
 12 14  1  0
 13 12  2  0
 14 15  1  0
 15 16  1  1
 15 20  1  0
 16 17  1  0
 17 18  1  0
 18 22  1  0
 19 18  2  0
 20 21  2  0
 20 23  1  0
M  END
$$$$
