PSE.pdb
     RDKit          3D

 23 23  0  0  1  0  0  0  0  0999 V2000
    7.6204  -15.0601   19.1510 N   0  0  0  0  0  0  0  0  0  0  0  0
    6.7229  -13.9449   19.2265 C   0  0  0  0  0  0  0  0  0  0  0  0
    7.5680  -12.7525   19.6898 C   0  0  0  0  0  0  0  0  0  0  0  0
    8.8851  -13.0673   18.9655 C   0  0  0  0  0  0  0  0  0  0  0  0
    8.9773  -14.5641   19.3049 C   0  0  1  0  0  0  0  0  0  0  0  0
    9.4084  -14.6058   20.7323 C   0  0  0  0  0  0  0  0  0  0  0  0
   10.5547  -14.2119   21.0152 O   0  0  0  0  0  0  0  0  0  0  0  0
    7.2987  -16.7304   23.7628 O   0  0  0  0  0  0  0  0  0  0  0  0
    7.8875  -15.5191   24.0494 C   0  0  0  0  0  0  0  0  0  0  0  0
    9.0648  -15.2115   23.1246 C   0  0  2  0  0  0  0  0  0  0  0  0
    8.5605  -15.0793   21.7852 N   0  0  0  0  0  0  0  0  0  0  0  0
   10.0700  -16.2979   23.2437 C   0  0  0  0  0  0  0  0  0  0  0  0
    9.9960  -17.2479   22.4325 O   0  0  0  0  0  0  0  0  0  0  0  0
   11.0537  -16.2213   24.2473 N   0  0  0  0  0  0  0  0  0  0  0  0
   12.1328  -17.0831   24.5354 C   0  0  1  0  0  0  0  0  0  0  0  0
   13.4253  -16.5696   23.9174 C   0  0  0  0  0  0  0  0  0  0  0  0
   14.5817  -17.4957   24.1974 C   0  0  0  0  0  0  0  0  0  0  0  0
   15.8369  -16.9737   23.6083 C   0  0  0  0  0  0  0  0  0  0  0  0
   15.9626  -15.7235   23.4908 O   0  0  0  0  0  0  0  0  0  0  0  0
   12.2625  -17.5964   25.8843 C   0  0  0  0  0  0  0  0  0  0  0  0
   13.0246  -18.5714   26.1026 O   0  0  0  0  0  0  0  0  0  0  0  0
   16.8456  -17.8011   23.1991 O   0  0  0  0  0  0  0  0  0  0  0  0
   11.5841  -17.0679   26.9730 O   0  0  0  0  0  0  0  0  0  0  0  0
  1  2  1  0
  2  3  1  0
  4  3  1  0
  5  1  1  0
  5  4  1  0
  5  6  1  1
  7  6  2  0
  8  9  1  0
 10  9  1  1
 10 11  1  0
 10 12  1  0
 11  6  1  0
 12 14  1  0
 13 12  2  0
 14 15  1  0
 15 16  1  1
 15 20  1  0
 16 17  1  0
 17 18  1  0
 18 22  1  0
 19 18  2  0
 20 21  2  0
 20 23  1  0
M  END
$$$$
