PSE.pdb
     RDKit          3D

 23 23  0  0  1  0  0  0  0  0999 V2000
    7.4312  -15.1749   19.4350 N   0  0  0  0  0  0  0  0  0  0  0  0
    6.6513  -13.9746   19.3573 C   0  0  0  0  0  0  0  0  0  0  0  0
    7.6220  -12.8208   19.6352 C   0  0  0  0  0  0  0  0  0  0  0  0
    8.8831  -13.3686   18.9511 C   0  0  0  0  0  0  0  0  0  0  0  0
    8.8341  -14.8031   19.5023 C   0  0  1  0  0  0  0  0  0  0  0  0
    9.2936  -14.6844   20.9164 C   0  0  0  0  0  0  0  0  0  0  0  0
   10.4738  -14.3508   21.1284 O   0  0  0  0  0  0  0  0  0  0  0  0
    6.8624  -15.7086   24.2645 O   0  0  0  0  0  0  0  0  0  0  0  0
    7.7643  -14.6700   24.3262 C   0  0  0  0  0  0  0  0  0  0  0  0
    8.9454  -14.8682   23.3768 C   0  0  2  0  0  0  0  0  0  0  0  0
    8.4353  -14.9384   22.0348 N   0  0  0  0  0  0  0  0  0  0  0  0
    9.6777  -16.0998   23.7664 C   0  0  0  0  0  0  0  0  0  0  0  0
    9.2961  -17.1832   23.2696 O   0  0  0  0  0  0  0  0  0  0  0  0
   10.7569  -16.0061   24.6649 N   0  0  0  0  0  0  0  0  0  0  0  0
   11.6186  -17.0055   25.1638 C   0  0  1  0  0  0  0  0  0  0  0  0
   13.0728  -16.5628   25.0908 C   0  0  0  0  0  0  0  0  0  0  0  0
   13.7813  -17.1740   23.9084 C   0  0  0  0  0  0  0  0  0  0  0  0
   14.9190  -16.3299   23.4747 C   0  0  0  0  0  0  0  0  0  0  0  0
   14.9655  -15.9717   22.2655 O   0  0  0  0  0  0  0  0  0  0  0  0
   11.2479  -17.6852   26.3887 C   0  0  0  0  0  0  0  0  0  0  0  0
   10.3335  -17.2079   27.1065 O   0  0  0  0  0  0  0  0  0  0  0  0
   15.9008  -15.9345   24.3403 O   0  0  0  0  0  0  0  0  0  0  0  0
   11.8514  -18.8546   26.8280 O   0  0  0  0  0  0  0  0  0  0  0  0
  1  2  1  0
  2  3  1  0
  4  3  1  0
  5  1  1  0
  5  4  1  0
  5  6  1  1
  7  6  2  0
  8  9  1  0
 10  9  1  1
 10 11  1  0
 10 12  1  0
 11  6  1  0
 12 14  1  0
 13 12  2  0
 14 15  1  0
 15 16  1  1
 15 20  1  0
 16 17  1  0
 17 18  1  0
 18 22  1  0
 19 18  2  0
 20 21  2  0
 20 23  1  0
M  END
$$$$
