PSE.pdb
     RDKit          3D

 23 23  0  0  1  0  0  0  0  0999 V2000
    7.2576  -15.3269   19.5763 N   0  0  0  0  0  0  0  0  0  0  0  0
    6.4150  -14.1675   19.5464 C   0  0  0  0  0  0  0  0  0  0  0  0
    7.3466  -12.9629   19.7248 C   0  0  0  0  0  0  0  0  0  0  0  0
    8.5724  -13.4617   18.9456 C   0  0  0  0  0  0  0  0  0  0  0  0
    8.6409  -14.8862   19.5202 C   0  0  1  0  0  0  0  0  0  0  0  0
    9.2096  -14.7186   20.8890 C   0  0  0  0  0  0  0  0  0  0  0  0
   10.3843  -14.3212   20.9964 O   0  0  0  0  0  0  0  0  0  0  0  0
    7.2695  -16.1336   24.4076 O   0  0  0  0  0  0  0  0  0  0  0  0
    8.0047  -14.9697   24.4376 C   0  0  0  0  0  0  0  0  0  0  0  0
    9.0959  -14.9433   23.3678 C   0  0  2  0  0  0  0  0  0  0  0  0
    8.4620  -14.9958   22.0789 N   0  0  0  0  0  0  0  0  0  0  0  0
   10.0179  -16.0861   23.5893 C   0  0  0  0  0  0  0  0  0  0  0  0
    9.7352  -17.1743   23.0397 O   0  0  0  0  0  0  0  0  0  0  0  0
   11.1576  -15.9074   24.3953 N   0  0  0  0  0  0  0  0  0  0  0  0
   12.2031  -16.8012   24.7089 C   0  0  1  0  0  0  0  0  0  0  0  0
   13.5469  -16.2585   24.2444 C   0  0  0  0  0  0  0  0  0  0  0  0
   14.6612  -17.2423   24.4975 C   0  0  0  0  0  0  0  0  0  0  0  0
   15.9615  -16.7053   24.0327 C   0  0  0  0  0  0  0  0  0  0  0  0
   16.8310  -16.4204   24.9016 O   0  0  0  0  0  0  0  0  0  0  0  0
   12.2131  -17.4153   26.0214 C   0  0  0  0  0  0  0  0  0  0  0  0
   11.6626  -16.8235   26.9835 O   0  0  0  0  0  0  0  0  0  0  0  0
   16.2368  -16.5176   22.7066 O   0  0  0  0  0  0  0  0  0  0  0  0
   12.8044  -18.6417   26.2882 O   0  0  0  0  0  0  0  0  0  0  0  0
  1  2  1  0
  2  3  1  0
  4  3  1  0
  5  1  1  0
  5  4  1  0
  5  6  1  1
  7  6  2  0
  8  9  1  0
 10  9  1  1
 10 11  1  0
 10 12  1  0
 11  6  1  0
 12 14  1  0
 13 12  2  0
 14 15  1  0
 15 16  1  1
 15 20  1  0
 16 17  1  0
 17 18  1  0
 18 22  1  0
 19 18  2  0
 20 21  2  0
 20 23  1  0
M  END
$$$$
