PSE.pdb
     RDKit          3D

 23 23  0  0  1  0  0  0  0  0999 V2000
    8.0818  -14.8845   18.7081 N   0  0  0  0  0  0  0  0  0  0  0  0
    7.1557  -13.7925   18.7785 C   0  0  0  0  0  0  0  0  0  0  0  0
    7.9786  -12.5660   19.1902 C   0  0  0  0  0  0  0  0  0  0  0  0
    9.2856  -12.8635   18.4408 C   0  0  0  0  0  0  0  0  0  0  0  0
    9.4277  -14.3481   18.8150 C   0  0  1  0  0  0  0  0  0  0  0  0
    9.8950  -14.3414   20.2316 C   0  0  0  0  0  0  0  0  0  0  0  0
   11.0745  -14.0182   20.4633 O   0  0  0  0  0  0  0  0  0  0  0  0
    7.6402  -15.9833   23.4916 O   0  0  0  0  0  0  0  0  0  0  0  0
    8.4148  -14.8549   23.6431 C   0  0  0  0  0  0  0  0  0  0  0  0
    9.5824  -14.8145   22.6578 C   0  0  2  0  0  0  0  0  0  0  0  0
    9.0452  -14.6909   21.3303 N   0  0  0  0  0  0  0  0  0  0  0  0
   10.3979  -16.0443   22.8235 C   0  0  0  0  0  0  0  0  0  0  0  0
   10.4317  -16.8509   21.8673 O   0  0  0  0  0  0  0  0  0  0  0  0
   11.0921  -16.2550   24.0294 N   0  0  0  0  0  0  0  0  0  0  0  0
   12.2866  -16.9613   24.2836 C   0  0  1  0  0  0  0  0  0  0  0  0
   13.3939  -16.5264   23.3345 C   0  0  0  0  0  0  0  0  0  0  0  0
   14.6934  -17.2284   23.6375 C   0  0  0  0  0  0  0  0  0  0  0  0
   15.7834  -16.7305   22.7663 C   0  0  0  0  0  0  0  0  0  0  0  0
   16.1376  -17.4475   21.7901 O   0  0  0  0  0  0  0  0  0  0  0  0
   12.6990  -17.1429   25.6608 C   0  0  0  0  0  0  0  0  0  0  0  0
   13.6111  -17.9649   25.9283 O   0  0  0  0  0  0  0  0  0  0  0  0
   16.4012  -15.5315   22.9903 O   0  0  0  0  0  0  0  0  0  0  0  0
   12.1386  -16.4516   26.7252 O   0  0  0  0  0  0  0  0  0  0  0  0
  1  2  1  0
  2  3  1  0
  4  3  1  0
  5  1  1  0
  5  4  1  0
  5  6  1  1
  7  6  2  0
  8  9  1  0
 10  9  1  1
 10 11  1  0
 10 12  1  0
 11  6  1  0
 12 14  1  0
 13 12  2  0
 14 15  1  0
 15 16  1  6
 15 20  1  0
 16 17  1  0
 17 18  1  0
 18 22  1  0
 19 18  2  0
 20 21  2  0
 20 23  1  0
M  END
$$$$
