PSE.pdb
     RDKit          3D

 23 23  0  0  1  0  0  0  0  0999 V2000
    7.4719  -15.2370   19.3292 N   0  0  0  0  0  0  0  0  0  0  0  0
    6.4878  -14.1946   19.3278 C   0  0  0  0  0  0  0  0  0  0  0  0
    7.2475  -12.8953   19.6201 C   0  0  0  0  0  0  0  0  0  0  0  0
    8.5571  -13.1832   18.8715 C   0  0  0  0  0  0  0  0  0  0  0  0
    8.7875  -14.6214   19.3641 C   0  0  1  0  0  0  0  0  0  0  0  0
    9.2758  -14.4710   20.7656 C   0  0  0  0  0  0  0  0  0  0  0  0
   10.3652  -13.8991   20.9537 O   0  0  0  0  0  0  0  0  0  0  0  0
    7.0285  -15.4166   24.3040 O   0  0  0  0  0  0  0  0  0  0  0  0
    8.0366  -14.4846   24.1983 C   0  0  0  0  0  0  0  0  0  0  0  0
    9.1236  -14.9129   23.2129 C   0  0  2  0  0  0  0  0  0  0  0  0
    8.5451  -14.9565   21.8979 N   0  0  0  0  0  0  0  0  0  0  0  0
    9.6663  -16.2295   23.6338 C   0  0  0  0  0  0  0  0  0  0  0  0
    8.9596  -17.2412   23.4264 O   0  0  0  0  0  0  0  0  0  0  0  0
   10.9348  -16.2913   24.2402 N   0  0  0  0  0  0  0  0  0  0  0  0
   11.6806  -17.4031   24.6852 C   0  0  1  0  0  0  0  0  0  0  0  0
   13.0865  -17.3894   24.1027 C   0  0  0  0  0  0  0  0  0  0  0  0
   13.8967  -16.2336   24.6329 C   0  0  0  0  0  0  0  0  0  0  0  0
   15.2296  -16.1775   23.9884 C   0  0  0  0  0  0  0  0  0  0  0  0
   15.3380  -15.5434   22.9028 O   0  0  0  0  0  0  0  0  0  0  0  0
   11.6031  -17.7680   26.0854 C   0  0  0  0  0  0  0  0  0  0  0  0
   12.1001  -18.8570   26.4674 O   0  0  0  0  0  0  0  0  0  0  0  0
   16.3262  -16.7840   24.5353 O   0  0  0  0  0  0  0  0  0  0  0  0
   11.0021  -16.9738   27.0513 O   0  0  0  0  0  0  0  0  0  0  0  0
  1  2  1  0
  2  3  1  0
  4  3  1  0
  5  1  1  0
  5  4  1  0
  5  6  1  1
  7  6  2  0
  8  9  1  0
 10  9  1  1
 10 11  1  0
 10 12  1  0
 11  6  1  0
 12 14  1  0
 13 12  2  0
 14 15  1  0
 15 16  1  1
 15 20  1  0
 16 17  1  0
 17 18  1  0
 18 22  1  0
 19 18  2  0
 20 21  2  0
 20 23  1  0
M  END
$$$$
