PSE.pdb
     RDKit          3D

 23 23  0  0  1  0  0  0  0  0999 V2000
    7.7223  -15.0970   18.7735 N   0  0  0  0  0  0  0  0  0  0  0  0
    6.7310  -14.0621   18.8077 C   0  0  0  0  0  0  0  0  0  0  0  0
    7.4683  -12.7837   19.2235 C   0  0  0  0  0  0  0  0  0  0  0  0
    8.8090  -13.0102   18.5096 C   0  0  0  0  0  0  0  0  0  0  0  0
    9.0306  -14.4792   18.9060 C   0  0  1  0  0  0  0  0  0  0  0  0
    9.4613  -14.4284   20.3332 C   0  0  0  0  0  0  0  0  0  0  0  0
   10.6038  -14.0073   20.5912 O   0  0  0  0  0  0  0  0  0  0  0  0
    7.2931  -16.2149   23.5773 O   0  0  0  0  0  0  0  0  0  0  0  0
    7.9134  -14.9923   23.7059 C   0  0  0  0  0  0  0  0  0  0  0  0
    9.1081  -14.8444   22.7643 C   0  0  2  0  0  0  0  0  0  0  0  0
    8.6172  -14.8435   21.4134 N   0  0  0  0  0  0  0  0  0  0  0  0
   10.0627  -15.9536   23.0163 C   0  0  0  0  0  0  0  0  0  0  0  0
    9.8938  -17.0194   22.3825 O   0  0  0  0  0  0  0  0  0  0  0  0
   11.1058  -15.7695   23.9429 N   0  0  0  0  0  0  0  0  0  0  0  0
   12.0310  -16.6942   24.4714 C   0  0  1  0  0  0  0  0  0  0  0  0
   13.4493  -16.1453   24.4136 C   0  0  0  0  0  0  0  0  0  0  0  0
   14.3320  -16.9790   23.5195 C   0  0  0  0  0  0  0  0  0  0  0  0
   15.7213  -16.4646   23.5133 C   0  0  0  0  0  0  0  0  0  0  0  0
   16.4333  -16.6653   24.5357 O   0  0  0  0  0  0  0  0  0  0  0  0
   11.6915  -17.3809   25.7014 C   0  0  0  0  0  0  0  0  0  0  0  0
   12.3684  -18.3776   26.0584 O   0  0  0  0  0  0  0  0  0  0  0  0
   16.2414  -15.7920   22.4425 O   0  0  0  0  0  0  0  0  0  0  0  0
   10.6443  -16.9991   26.5274 O   0  0  0  0  0  0  0  0  0  0  0  0
  1  2  1  0
  2  3  1  0
  4  3  1  0
  5  1  1  0
  5  4  1  0
  5  6  1  1
  7  6  2  0
  8  9  1  0
 10  9  1  1
 10 11  1  0
 10 12  1  0
 11  6  1  0
 12 14  1  0
 13 12  2  0
 14 15  1  0
 15 16  1  1
 15 20  1  0
 16 17  1  0
 17 18  1  0
 18 22  1  0
 19 18  2  0
 20 21  2  0
 20 23  1  0
M  END
$$$$
