PSE.pdb
     RDKit          3D

 23 23  0  0  1  0  0  0  0  0999 V2000
    7.5219  -15.0100   19.1197 N   0  0  0  0  0  0  0  0  0  0  0  0
    6.6262  -13.8912   19.1518 C   0  0  0  0  0  0  0  0  0  0  0  0
    7.4698  -12.6865   19.5854 C   0  0  0  0  0  0  0  0  0  0  0  0
    8.7928  -13.0265   18.8837 C   0  0  0  0  0  0  0  0  0  0  0  0
    8.8784  -14.5122   19.2706 C   0  0  1  0  0  0  0  0  0  0  0  0
    9.2961  -14.5100   20.7026 C   0  0  0  0  0  0  0  0  0  0  0  0
   10.4468  -14.1263   20.9820 O   0  0  0  0  0  0  0  0  0  0  0  0
    7.0715  -16.4072   23.8369 O   0  0  0  0  0  0  0  0  0  0  0  0
    7.7301  -15.2159   24.0442 C   0  0  0  0  0  0  0  0  0  0  0  0
    8.9258  -15.0418   23.1085 C   0  0  2  0  0  0  0  0  0  0  0  0
    8.4306  -14.9302   21.7637 N   0  0  0  0  0  0  0  0  0  0  0  0
    9.8439  -16.1967   23.2769 C   0  0  0  0  0  0  0  0  0  0  0  0
    9.6243  -17.2176   22.5872 O   0  0  0  0  0  0  0  0  0  0  0  0
   10.9103  -16.1033   24.1904 N   0  0  0  0  0  0  0  0  0  0  0  0
   11.9253  -17.0308   24.5066 C   0  0  1  0  0  0  0  0  0  0  0  0
   13.2849  -16.5399   24.0308 C   0  0  0  0  0  0  0  0  0  0  0  0
   14.3698  -17.5485   24.3121 C   0  0  0  0  0  0  0  0  0  0  0  0
   15.6913  -17.0471   23.8681 C   0  0  0  0  0  0  0  0  0  0  0  0
   16.4190  -17.8173   23.1827 O   0  0  0  0  0  0  0  0  0  0  0  0
   11.9205  -17.6337   25.8243 C   0  0  0  0  0  0  0  0  0  0  0  0
   11.3761  -17.0248   26.7793 O   0  0  0  0  0  0  0  0  0  0  0  0
   16.1313  -15.7897   24.1761 O   0  0  0  0  0  0  0  0  0  0  0  0
   12.4909  -18.8671   26.1039 O   0  0  0  0  0  0  0  0  0  0  0  0
  1  2  1  0
  2  3  1  0
  4  3  1  0
  5  1  1  0
  5  4  1  0
  5  6  1  1
  7  6  2  0
  8  9  1  0
 10  9  1  1
 10 11  1  0
 10 12  1  0
 11  6  1  0
 12 14  1  0
 13 12  2  0
 14 15  1  0
 15 16  1  1
 15 20  1  0
 16 17  1  0
 17 18  1  0
 18 22  1  0
 19 18  2  0
 20 21  2  0
 20 23  1  0
M  END
$$$$
