PSE.pdb
     RDKit          3D

 23 23  0  0  1  0  0  0  0  0999 V2000
    8.1686  -14.5735   18.1679 N   0  0  0  0  0  0  0  0  0  0  0  0
    7.0767  -13.6608   18.3398 C   0  0  0  0  0  0  0  0  0  0  0  0
    7.6418  -12.4670   19.1186 C   0  0  0  0  0  0  0  0  0  0  0  0
    9.0529  -12.4050   18.5158 C   0  0  0  0  0  0  0  0  0  0  0  0
    9.3910  -13.9037   18.5777 C   0  0  1  0  0  0  0  0  0  0  0  0
    9.6952  -14.1671   20.0141 C   0  0  0  0  0  0  0  0  0  0  0  0
   10.7721  -13.7481   20.4767 O   0  0  0  0  0  0  0  0  0  0  0  0
    7.5809  -16.9854   22.4475 O   0  0  0  0  0  0  0  0  0  0  0  0
    7.9682  -15.7636   22.9508 C   0  0  0  0  0  0  0  0  0  0  0  0
    9.1882  -15.1962   22.2259 C   0  0  2  0  0  0  0  0  0  0  0  0
    8.8022  -14.8800   20.8779 N   0  0  0  0  0  0  0  0  0  0  0  0
   10.2883  -16.1922   22.2782 C   0  0  0  0  0  0  0  0  0  0  0  0
   10.3506  -17.0364   21.3565 O   0  0  0  0  0  0  0  0  0  0  0  0
   11.2062  -16.1516   23.3442 N   0  0  0  0  0  0  0  0  0  0  0  0
   12.3532  -16.9349   23.5914 C   0  0  1  0  0  0  0  0  0  0  0  0
   13.3901  -16.7517   22.4926 C   0  0  0  0  0  0  0  0  0  0  0  0
   13.9824  -15.3653   22.5126 C   0  0  0  0  0  0  0  0  0  0  0  0
   15.0027  -15.2067   21.4502 C   0  0  0  0  0  0  0  0  0  0  0  0
   16.1042  -15.8062   21.5905 O   0  0  0  0  0  0  0  0  0  0  0  0
   12.8887  -16.9654   24.9376 C   0  0  0  0  0  0  0  0  0  0  0  0
   12.4106  -16.1968   25.8092 O   0  0  0  0  0  0  0  0  0  0  0  0
   14.7806  -14.4414   20.3391 O   0  0  0  0  0  0  0  0  0  0  0  0
   13.9177  -17.8078   25.3332 O   0  0  0  0  0  0  0  0  0  0  0  0
  1  2  1  0
  2  3  1  0
  4  3  1  0
  5  1  1  0
  5  4  1  0
  5  6  1  1
  7  6  2  0
  8  9  1  0
 10  9  1  1
 10 11  1  0
 10 12  1  0
 11  6  1  0
 12 14  1  0
 13 12  2  0
 14 15  1  0
 15 16  1  6
 15 20  1  0
 16 17  1  0
 17 18  1  0
 18 22  1  0
 19 18  2  0
 20 21  2  0
 20 23  1  0
M  END
$$$$
