GMH.pdb
     RDKit          3D

 23 23  0  0  1  0  0  0  0  0999 V2000
   23.1168  -15.3630  -18.3359 N   0  0  0  0  0  0  0  0  0  0  0  0
   22.8902  -13.9823  -18.7361 C   0  0  0  0  0  0  0  0  0  0  0  0
   23.0235  -13.1346  -17.5221 C   0  0  0  0  0  0  0  0  0  0  0  0
   22.2698  -13.2905  -16.5122 O   0  0  0  0  0  0  0  0  0  0  0  0
   27.3236  -13.9042  -14.6646 C   0  0  0  0  0  0  0  0  0  0  0  0
   26.0661  -13.0020  -15.6296 S   0  0  0  0  0  0  0  0  0  0  0  0
   26.1559  -11.2583  -15.1581 C   0  0  0  0  0  0  0  0  0  0  0  0
   25.3553  -10.4754  -16.1863 C   0  0  0  0  0  0  0  0  0  0  0  0
   23.9996  -11.1572  -16.3194 C   0  0  2  0  0  0  0  0  0  0  0  0
   23.9953  -12.1034  -17.4149 N   0  0  0  0  0  0  0  0  0  0  0  0
   23.0090  -10.0739  -16.5322 C   0  0  0  0  0  0  0  0  0  0  0  0
   22.9449   -9.5091  -17.6503 O   0  0  0  0  0  0  0  0  0  0  0  0
   22.1437   -9.6700  -15.5070 N   0  0  0  0  0  0  0  0  0  0  0  0
   21.0957   -8.6725  -15.6514 C   0  0  1  0  0  0  0  0  0  0  0  0
   19.9453   -9.1485  -14.7708 C   0  0  0  0  0  0  0  0  0  0  0  0
   19.0960  -10.1513  -15.4344 C   0  0  0  0  0  0  0  0  0  0  0  0
   19.2373  -10.6327  -16.7228 C   0  0  0  0  0  0  0  0  0  0  0  0
   18.2626  -11.5370  -16.9502 N   0  0  0  0  0  0  0  0  0  0  0  0
   17.5104  -11.6460  -15.8552 C   0  0  0  0  0  0  0  0  0  0  0  0
   18.0161  -10.8052  -14.9353 N   0  0  0  0  0  0  0  0  0  0  0  0
   21.6550   -7.3875  -15.1244 C   0  0  0  0  0  0  0  0  0  0  0  0
   21.0675   -6.1584  -15.3847 O   0  0  0  0  0  0  0  0  0  0  0  0
   22.7074   -7.3753  -14.4063 O   0  0  0  0  0  0  0  0  0  0  0  0
  2  3  1  0
  2  1  1  0
  3 10  1  0
  4  3  2  0
  6  5  1  0
  7  8  1  0
  7  6  1  0
  9  8  1  6
  9 11  1  0
 10  9  1  0
 11 13  1  0
 11 12  2  0
 13 14  1  0
 14 21  1  0
 14 15  1  1
 16 15  1  0
 16 17  2  0
 18 17  1  0
 19 18  1  0
 20 19  2  0
 20 16  1  0
 21 22  1  0
 23 21  2  0
M  END
$$$$
