GMH.pdb
     RDKit          3D

 23 23  0  0  1  0  0  0  0  0999 V2000
   20.0648  -15.9103  -16.1141 N   0  0  0  0  0  0  0  0  0  0  0  0
   21.4978  -15.8532  -16.3617 C   0  0  0  0  0  0  0  0  0  0  0  0
   22.0196  -14.6272  -15.7025 C   0  0  0  0  0  0  0  0  0  0  0  0
   21.3828  -14.0480  -14.7688 O   0  0  0  0  0  0  0  0  0  0  0  0
   28.2735  -12.4050  -15.3228 C   0  0  0  0  0  0  0  0  0  0  0  0
   27.2888  -10.8916  -15.5803 S   0  0  0  0  0  0  0  0  0  0  0  0
   25.5839  -11.2547  -15.0985 C   0  0  0  0  0  0  0  0  0  0  0  0
   25.1683  -12.5149  -15.8405 C   0  0  0  0  0  0  0  0  0  0  0  0
   23.7049  -12.7751  -15.5066 C   0  0  2  0  0  0  0  0  0  0  0  0
   23.2545  -14.0293  -16.0719 N   0  0  0  0  0  0  0  0  0  0  0  0
   22.9434  -11.6264  -16.0549 C   0  0  0  0  0  0  0  0  0  0  0  0
   22.7090  -11.5743  -17.2860 O   0  0  0  0  0  0  0  0  0  0  0  0
   22.4812  -10.5984  -15.2227 N   0  0  0  0  0  0  0  0  0  0  0  0
   21.6281   -9.5027  -15.6540 C   0  0  1  0  0  0  0  0  0  0  0  0
   20.2049  -10.0499  -15.6284 C   0  0  0  0  0  0  0  0  0  0  0  0
   19.1904   -9.0132  -15.8799 C   0  0  0  0  0  0  0  0  0  0  0  0
   19.4225   -7.6780  -16.1541 C   0  0  0  0  0  0  0  0  0  0  0  0
   18.2336   -7.0637  -16.3229 N   0  0  0  0  0  0  0  0  0  0  0  0
   17.2586   -7.9588  -16.1659 C   0  0  0  0  0  0  0  0  0  0  0  0
   17.8392   -9.1419  -15.8972 N   0  0  0  0  0  0  0  0  0  0  0  0
   21.7842   -8.4154  -14.6367 C   0  0  0  0  0  0  0  0  0  0  0  0
   22.3432   -8.6403  -13.3874 O   0  0  0  0  0  0  0  0  0  0  0  0
   21.4035   -7.2250  -14.8846 O   0  0  0  0  0  0  0  0  0  0  0  0
  2  3  1  0
  2  1  1  0
  3 10  1  0
  4  3  2  0
  6  5  1  0
  7  8  1  0
  7  6  1  0
  9  8  1  6
  9 11  1  0
 10  9  1  0
 11 13  1  0
 11 12  2  0
 13 14  1  0
 14 21  1  0
 14 15  1  1
 16 15  1  0
 16 17  2  0
 18 17  1  0
 19 18  1  0
 20 19  2  0
 20 16  1  0
 21 22  1  0
 23 21  2  0
M  END
$$$$
