GMH.pdb
     RDKit          3D

 23 23  0  0  1  0  0  0  0  0999 V2000
   28.0643  -22.2240  -15.7893 N   0  0  0  0  0  0  0  0  0  0  0  0
   27.7498  -20.9892  -15.0861 C   0  0  0  0  0  0  0  0  0  0  0  0
   26.9110  -21.3422  -13.9106 C   0  0  0  0  0  0  0  0  0  0  0  0
   25.9979  -22.2218  -13.9813 O   0  0  0  0  0  0  0  0  0  0  0  0
   25.5497  -20.8100   -6.2127 C   0  0  0  0  0  0  0  0  0  0  0  0
   26.3940  -20.0141   -7.6198 S   0  0  0  0  0  0  0  0  0  0  0  0
   25.7823  -20.7849   -9.1372 C   0  0  0  0  0  0  0  0  0  0  0  0
   26.6141  -20.2350  -10.2848 C   0  0  0  0  0  0  0  0  0  0  0  0
   26.1361  -20.9195  -11.5590 C   0  0  2  0  0  0  0  0  0  0  0  0
   27.0758  -20.7229  -12.6424 N   0  0  0  0  0  0  0  0  0  0  0  0
   24.8113  -20.3316  -11.8743 C   0  0  0  0  0  0  0  0  0  0  0  0
   24.7187  -19.0980  -12.0815 O   0  0  0  0  0  0  0  0  0  0  0  0
   23.6616  -21.1291  -11.9448 N   0  0  0  0  0  0  0  0  0  0  0  0
   22.3773  -20.6883  -12.4650 C   0  0  1  0  0  0  0  0  0  0  0  0
   22.0987  -21.5658  -13.6807 C   0  0  0  0  0  0  0  0  0  0  0  0
   22.7342  -21.0587  -14.9080 C   0  0  0  0  0  0  0  0  0  0  0  0
   23.4157  -19.8646  -15.0540 C   0  0  0  0  0  0  0  0  0  0  0  0
   23.8453  -19.7711  -16.3292 N   0  0  0  0  0  0  0  0  0  0  0  0
   23.4616  -20.8600  -16.9953 C   0  0  0  0  0  0  0  0  0  0  0  0
   22.7874  -21.6415  -16.1329 N   0  0  0  0  0  0  0  0  0  0  0  0
   21.3686  -20.9543  -11.3911 C   0  0  0  0  0  0  0  0  0  0  0  0
   21.7110  -21.5237  -10.1736 O   0  0  0  0  0  0  0  0  0  0  0  0
   20.1395  -20.6630  -11.5583 O   0  0  0  0  0  0  0  0  0  0  0  0
  2  3  1  0
  2  1  1  0
  3 10  1  0
  4  3  2  0
  6  5  1  0
  7  8  1  0
  7  6  1  0
  9  8  1  1
  9 11  1  0
 10  9  1  0
 11 13  1  0
 11 12  2  0
 13 14  1  0
 14 21  1  0
 14 15  1  6
 16 15  1  0
 16 17  2  0
 18 17  1  0
 19 18  1  0
 20 19  2  0
 20 16  1  0
 21 22  1  0
 23 21  2  0
M  END
$$$$
