GMH.pdb
     RDKit          3D

 23 23  0  0  1  0  0  0  0  0999 V2000
   28.0056   -9.6915  -21.5411 N   0  0  0  0  0  0  0  0  0  0  0  0
   27.1248   -8.5387  -21.4267 C   0  0  0  0  0  0  0  0  0  0  0  0
   26.1425   -8.8285  -20.3491 C   0  0  0  0  0  0  0  0  0  0  0  0
   24.8906   -8.7931  -20.5589 O   0  0  0  0  0  0  0  0  0  0  0  0
   24.4837  -12.6720  -13.7926 C   0  0  0  0  0  0  0  0  0  0  0  0
   25.8327  -11.9690  -14.7987 S   0  0  0  0  0  0  0  0  0  0  0  0
   25.0910  -10.8514  -16.0116 C   0  0  0  0  0  0  0  0  0  0  0  0
   26.2128  -10.3620  -16.9134 C   0  0  0  0  0  0  0  0  0  0  0  0
   25.5796   -9.4942  -17.9935 C   0  0  2  0  0  0  0  0  0  0  0  0
   26.5383   -9.1610  -19.0255 N   0  0  0  0  0  0  0  0  0  0  0  0
   25.0745   -8.2800  -17.3074 C   0  0  0  0  0  0  0  0  0  0  0  0
   25.8923   -7.4496  -16.8438 O   0  0  0  0  0  0  0  0  0  0  0  0
   23.7006   -8.0438  -17.1678 N   0  0  0  0  0  0  0  0  0  0  0  0
   23.1201   -6.8384  -16.5982 C   0  0  1  0  0  0  0  0  0  0  0  0
   22.4121   -6.1341  -17.7507 C   0  0  0  0  0  0  0  0  0  0  0  0
   21.7007   -4.9176  -17.3250 C   0  0  0  0  0  0  0  0  0  0  0  0
   21.7602   -4.3170  -16.0811 C   0  0  0  0  0  0  0  0  0  0  0  0
   20.9664   -3.2265  -16.0948 N   0  0  0  0  0  0  0  0  0  0  0  0
   20.4072   -3.1144  -17.2995 C   0  0  0  0  0  0  0  0  0  0  0  0
   20.8528   -4.1405  -18.0461 N   0  0  0  0  0  0  0  0  0  0  0  0
   22.1243   -7.2878  -15.5745 C   0  0  0  0  0  0  0  0  0  0  0  0
   21.5961   -6.4278  -14.6231 O   0  0  0  0  0  0  0  0  0  0  0  0
   21.7189   -8.4951  -15.5387 O   0  0  0  0  0  0  0  0  0  0  0  0
  2  3  1  0
  2  1  1  0
  3 10  1  0
  4  3  2  0
  6  5  1  0
  7  8  1  0
  7  6  1  0
  9  8  1  1
  9 11  1  0
 10  9  1  0
 11 13  1  0
 11 12  2  0
 13 14  1  0
 14 21  1  0
 14 15  1  6
 16 15  1  0
 16 17  2  0
 18 17  1  0
 19 18  1  0
 20 19  2  0
 20 16  1  0
 21 22  1  0
 23 21  2  0
M  END
$$$$
