GMH.pdb
     RDKit          3D

 23 23  0  0  1  0  0  0  0  0999 V2000
   19.6931  -14.2954  -17.3163 N   0  0  0  0  0  0  0  0  0  0  0  0
   19.3804  -13.0380  -17.9791 C   0  0  0  0  0  0  0  0  0  0  0  0
   20.2832  -11.9980  -17.4194 C   0  0  0  0  0  0  0  0  0  0  0  0
   20.5729  -11.9594  -16.1836 O   0  0  0  0  0  0  0  0  0  0  0  0
   23.4759   -8.1544  -21.3086 C   0  0  0  0  0  0  0  0  0  0  0  0
   24.4377   -9.5520  -20.6393 S   0  0  0  0  0  0  0  0  0  0  0  0
   23.4322  -10.3545  -19.3682 C   0  0  0  0  0  0  0  0  0  0  0  0
   22.5536   -9.2798  -18.7485 C   0  0  0  0  0  0  0  0  0  0  0  0
   21.7145   -9.9488  -17.6673 C   0  0  2  0  0  0  0  0  0  0  0  0
   20.8752  -10.9881  -18.2249 N   0  0  0  0  0  0  0  0  0  0  0  0
   20.9061   -8.8727  -17.0438 C   0  0  0  0  0  0  0  0  0  0  0  0
   19.8345   -8.5138  -17.5878 O   0  0  0  0  0  0  0  0  0  0  0  0
   21.3179   -8.2499  -15.8583 N   0  0  0  0  0  0  0  0  0  0  0  0
   20.6500   -7.1144  -15.2428 C   0  0  1  0  0  0  0  0  0  0  0  0
   20.6553   -7.3925  -13.7434 C   0  0  0  0  0  0  0  0  0  0  0  0
   19.5408   -8.2557  -13.3192 C   0  0  0  0  0  0  0  0  0  0  0  0
   18.5032   -8.7150  -14.1093 C   0  0  0  0  0  0  0  0  0  0  0  0
   17.6911   -9.4763  -13.3476 N   0  0  0  0  0  0  0  0  0  0  0  0
   18.1750   -9.5161  -12.1063 C   0  0  0  0  0  0  0  0  0  0  0  0
   19.2975   -8.7754  -12.0890 N   0  0  0  0  0  0  0  0  0  0  0  0
   21.4855   -5.9107  -15.5503 C   0  0  0  0  0  0  0  0  0  0  0  0
   21.1167   -4.6309  -15.1633 O   0  0  0  0  0  0  0  0  0  0  0  0
   22.5829   -6.0190  -16.1884 O   0  0  0  0  0  0  0  0  0  0  0  0
  2  3  1  0
  2  1  1  0
  3 10  1  0
  4  3  2  0
  6  5  1  0
  7  8  1  0
  7  6  1  0
  9  8  1  6
  9 11  1  0
 10  9  1  0
 11 13  1  0
 11 12  2  0
 13 14  1  0
 14 21  1  0
 14 15  1  1
 16 15  1  0
 16 17  2  0
 18 17  1  0
 19 18  1  0
 20 19  2  0
 20 16  1  0
 21 22  1  0
 23 21  2  0
M  END
$$$$
