GMH.pdb
     RDKit          3D

 23 23  0  0  1  0  0  0  0  0999 V2000
   38.5495  -29.0890  -17.2316 N   0  0  0  0  0  0  0  0  0  0  0  0
   37.6842  -29.1766  -16.0647 C   0  0  0  0  0  0  0  0  0  0  0  0
   36.9231  -30.4498  -16.1639 C   0  0  0  0  0  0  0  0  0  0  0  0
   36.9665  -31.1749  -17.2054 O   0  0  0  0  0  0  0  0  0  0  0  0
   37.1553  -34.4296  -10.6922 C   0  0  0  0  0  0  0  0  0  0  0  0
   35.6485  -33.9238  -11.5867 S   0  0  0  0  0  0  0  0  0  0  0  0
   36.1523  -33.3062  -13.2100 C   0  0  0  0  0  0  0  0  0  0  0  0
   34.9255  -32.6753  -13.8489 C   0  0  0  0  0  0  0  0  0  0  0  0
   35.3436  -32.1596  -15.2200 C   0  0  2  0  0  0  0  0  0  0  0  0
   36.1044  -30.9333  -15.1078 N   0  0  0  0  0  0  0  0  0  0  0  0
   34.0903  -31.9544  -15.9863 C   0  0  0  0  0  0  0  0  0  0  0  0
   33.3488  -30.9826  -15.7051 O   0  0  0  0  0  0  0  0  0  0  0  0
   33.7197  -32.8262  -17.0184 N   0  0  0  0  0  0  0  0  0  0  0  0
   32.5553  -32.6532  -17.8720 C   0  0  1  0  0  0  0  0  0  0  0  0
   33.0792  -32.7006  -19.3034 C   0  0  0  0  0  0  0  0  0  0  0  0
   32.0182  -32.5094  -20.3059 C   0  0  0  0  0  0  0  0  0  0  0  0
   30.7194  -32.0996  -20.0678 C   0  0  0  0  0  0  0  0  0  0  0  0
   30.0649  -32.0481  -21.2461 N   0  0  0  0  0  0  0  0  0  0  0  0
   30.8998  -32.4097  -22.2202 C   0  0  0  0  0  0  0  0  0  0  0  0
   32.0852  -32.6896  -21.6497 N   0  0  0  0  0  0  0  0  0  0  0  0
   31.6570  -33.8218  -17.6094 C   0  0  0  0  0  0  0  0  0  0  0  0
   30.2752  -33.7064  -17.5820 O   0  0  0  0  0  0  0  0  0  0  0  0
   32.1360  -34.9834  -17.3980 O   0  0  0  0  0  0  0  0  0  0  0  0
  2  3  1  0
  2  1  1  0
  3 10  1  0
  4  3  2  0
  6  5  1  0
  7  8  1  0
  7  6  1  0
  9  8  1  1
  9 11  1  0
 10  9  1  0
 11 13  1  0
 11 12  2  0
 13 14  1  0
 14 21  1  0
 14 15  1  6
 16 15  1  0
 16 17  2  0
 18 17  1  0
 19 18  1  0
 20 19  2  0
 20 16  1  0
 21 22  1  0
 23 21  2  0
M  END
$$$$
