GMH.pdb
     RDKit          3D

 23 23  0  0  1  0  0  0  0  0999 V2000
   27.7964  -22.3537  -16.5422 N   0  0  0  0  0  0  0  0  0  0  0  0
   27.2372  -21.1133  -16.0258 C   0  0  0  0  0  0  0  0  0  0  0  0
   26.3310  -21.4627  -14.9004 C   0  0  0  0  0  0  0  0  0  0  0  0
   25.4186  -22.3371  -15.0240 O   0  0  0  0  0  0  0  0  0  0  0  0
   26.1575  -20.6147   -7.6773 C   0  0  0  0  0  0  0  0  0  0  0  0
   25.6625  -21.7121   -9.0473 S   0  0  0  0  0  0  0  0  0  0  0  0
   24.7787  -20.7090  -10.2653 C   0  0  0  0  0  0  0  0  0  0  0  0
   25.7903  -20.2944  -11.3217 C   0  0  0  0  0  0  0  0  0  0  0  0
   25.3865  -20.9713  -12.6254 C   0  0  2  0  0  0  0  0  0  0  0  0
   26.4267  -20.8453  -13.6241 N   0  0  0  0  0  0  0  0  0  0  0  0
   24.1302  -20.3148  -13.0623 C   0  0  0  0  0  0  0  0  0  0  0  0
   24.1624  -19.1246  -13.4570 O   0  0  0  0  0  0  0  0  0  0  0  0
   22.9083  -20.9998  -13.0421 N   0  0  0  0  0  0  0  0  0  0  0  0
   21.6313  -20.4296  -13.4400 C   0  0  1  0  0  0  0  0  0  0  0  0
   21.1224  -21.3057  -14.5797 C   0  0  0  0  0  0  0  0  0  0  0  0
   21.6639  -20.9089  -15.8899 C   0  0  0  0  0  0  0  0  0  0  0  0
   22.8145  -21.3876  -16.4888 C   0  0  0  0  0  0  0  0  0  0  0  0
   22.9619  -20.7749  -17.6813 N   0  0  0  0  0  0  0  0  0  0  0  0
   21.9490  -19.9271  -17.8596 C   0  0  0  0  0  0  0  0  0  0  0  0
   21.1612  -20.0084  -16.7726 N   0  0  0  0  0  0  0  0  0  0  0  0
   20.7254  -20.5440  -12.2534 C   0  0  0  0  0  0  0  0  0  0  0  0
   19.6644  -19.6763  -12.0413 O   0  0  0  0  0  0  0  0  0  0  0  0
   20.8982  -21.4566  -11.3813 O   0  0  0  0  0  0  0  0  0  0  0  0
  2  3  1  0
  2  1  1  0
  3 10  1  0
  4  3  2  0
  6  5  1  0
  7  8  1  0
  7  6  1  0
  9  8  1  1
  9 11  1  0
 10  9  1  0
 11 13  1  0
 11 12  2  0
 13 14  1  0
 14 21  1  0
 14 15  1  6
 16 15  1  0
 16 17  2  0
 18 17  1  0
 19 18  1  0
 20 19  2  0
 20 16  1  0
 21 22  1  0
 23 21  2  0
M  END
$$$$
