GMH.pdb
     RDKit          3D

 23 23  0  0  1  0  0  0  0  0999 V2000
   28.7015  -22.1806  -16.7911 N   0  0  0  0  0  0  0  0  0  0  0  0
   28.2344  -20.9863  -16.1032 C   0  0  0  0  0  0  0  0  0  0  0  0
   27.2142  -21.4102  -15.1086 C   0  0  0  0  0  0  0  0  0  0  0  0
   26.4070  -22.3619  -15.3435 O   0  0  0  0  0  0  0  0  0  0  0  0
   24.5401  -21.4857   -7.7643 C   0  0  0  0  0  0  0  0  0  0  0  0
   25.6470  -20.6144   -8.9228 S   0  0  0  0  0  0  0  0  0  0  0  0
   25.2514  -21.1803  -10.5942 C   0  0  0  0  0  0  0  0  0  0  0  0
   26.2948  -20.5856  -11.5263 C   0  0  0  0  0  0  0  0  0  0  0  0
   26.0080  -21.1171  -12.9249 C   0  0  2  0  0  0  0  0  0  0  0  0
   27.0777  -20.7826  -13.8410 N   0  0  0  0  0  0  0  0  0  0  0  0
   24.7220  -20.5088  -13.3446 C   0  0  0  0  0  0  0  0  0  0  0  0
   24.6782  -19.2840  -13.6115 O   0  0  0  0  0  0  0  0  0  0  0  0
   23.5552  -21.2774  -13.4482 N   0  0  0  0  0  0  0  0  0  0  0  0
   22.2880  -20.7945  -13.9729 C   0  0  1  0  0  0  0  0  0  0  0  0
   21.7435  -21.9209  -14.8449 C   0  0  0  0  0  0  0  0  0  0  0  0
   21.0956  -21.4299  -16.0722 C   0  0  0  0  0  0  0  0  0  0  0  0
   20.9723  -20.1121  -16.4722 C   0  0  0  0  0  0  0  0  0  0  0  0
   20.3172  -20.0830  -17.6509 N   0  0  0  0  0  0  0  0  0  0  0  0
   20.0215  -21.3316  -18.0118 C   0  0  0  0  0  0  0  0  0  0  0  0
   20.4938  -22.1490  -17.0538 N   0  0  0  0  0  0  0  0  0  0  0  0
   21.3942  -20.5741  -12.7921 C   0  0  0  0  0  0  0  0  0  0  0  0
   20.4286  -19.5788  -12.7657 O   0  0  0  0  0  0  0  0  0  0  0  0
   21.4888  -21.3038  -11.7520 O   0  0  0  0  0  0  0  0  0  0  0  0
  2  3  1  0
  2  1  1  0
  3 10  1  0
  4  3  2  0
  6  5  1  0
  7  8  1  0
  7  6  1  0
  9  8  1  1
  9 11  1  0
 10  9  1  0
 11 13  1  0
 11 12  2  0
 13 14  1  0
 14 21  1  0
 14 15  1  6
 16 15  1  0
 16 17  2  0
 18 17  1  0
 19 18  1  0
 20 19  2  0
 20 16  1  0
 21 22  1  0
 23 21  2  0
M  END
$$$$
