GMH.pdb
     RDKit          3D

 23 23  0  0  1  0  0  0  0  0999 V2000
   23.3875  -13.9894  -21.0005 N   0  0  0  0  0  0  0  0  0  0  0  0
   23.6716  -12.5680  -20.8706 C   0  0  0  0  0  0  0  0  0  0  0  0
   23.4256  -12.1877  -19.4546 C   0  0  0  0  0  0  0  0  0  0  0  0
   22.2824  -12.3170  -18.9170 O   0  0  0  0  0  0  0  0  0  0  0  0
   27.8844  -14.3223  -14.9924 C   0  0  0  0  0  0  0  0  0  0  0  0
   27.4333  -12.5938  -15.3598 S   0  0  0  0  0  0  0  0  0  0  0  0
   25.8262  -12.6079  -16.1892 C   0  0  0  0  0  0  0  0  0  0  0  0
   25.4358  -11.1589  -16.4324 C   0  0  0  0  0  0  0  0  0  0  0  0
   24.1732  -11.1671  -17.2847 C   0  0  2  0  0  0  0  0  0  0  0  0
   24.4458  -11.6593  -18.6185 N   0  0  0  0  0  0  0  0  0  0  0  0
   23.6809   -9.7682  -17.3110 C   0  0  0  0  0  0  0  0  0  0  0  0
   24.1600   -8.9624  -18.1442 O   0  0  0  0  0  0  0  0  0  0  0  0
   22.6903   -9.3306  -16.4220 N   0  0  0  0  0  0  0  0  0  0  0  0
   22.1269   -7.9903  -16.4028 C   0  0  1  0  0  0  0  0  0  0  0  0
   21.0386   -7.9821  -17.4710 C   0  0  0  0  0  0  0  0  0  0  0  0
   20.3743   -6.6746  -17.5986 C   0  0  0  0  0  0  0  0  0  0  0  0
   20.6906   -5.5157  -16.9140 C   0  0  0  0  0  0  0  0  0  0  0  0
   19.8496   -4.5401  -17.3145 N   0  0  0  0  0  0  0  0  0  0  0  0
   19.0137   -5.0374  -18.2258 C   0  0  0  0  0  0  0  0  0  0  0  0
   19.3320   -6.3327  -18.3983 N   0  0  0  0  0  0  0  0  0  0  0  0
   21.5232   -7.8014  -15.0457 C   0  0  0  0  0  0  0  0  0  0  0  0
   21.3158   -6.5467  -14.4921 O   0  0  0  0  0  0  0  0  0  0  0  0
   21.1724   -8.8013  -14.3384 O   0  0  0  0  0  0  0  0  0  0  0  0
  2  3  1  0
  2  1  1  0
  3 10  1  0
  4  3  2  0
  6  5  1  0
  7  8  1  0
  7  6  1  0
  9  8  1  1
  9 11  1  0
 10  9  1  0
 11 13  1  0
 11 12  2  0
 13 14  1  0
 14 21  1  0
 14 15  1  6
 16 15  1  0
 16 17  2  0
 18 17  1  0
 19 18  1  0
 20 19  2  0
 20 16  1  0
 21 22  1  0
 23 21  2  0
M  END
$$$$
