GMH.pdb
     RDKit          3D

 23 23  0  0  1  0  0  0  0  0999 V2000
   15.4221  -12.0464  -10.6935 N   0  0  0  0  0  0  0  0  0  0  0  0
   16.6851  -11.3997  -11.0172 C   0  0  0  0  0  0  0  0  0  0  0  0
   16.4189   -9.9453  -11.1717 C   0  0  0  0  0  0  0  0  0  0  0  0
   16.1463   -9.4321  -12.3008 O   0  0  0  0  0  0  0  0  0  0  0  0
   12.4699   -5.9625   -7.5542 C   0  0  0  0  0  0  0  0  0  0  0  0
   14.1552   -5.2682   -7.6156 S   0  0  0  0  0  0  0  0  0  0  0  0
   14.9086   -5.7870   -9.1757 C   0  0  0  0  0  0  0  0  0  0  0  0
   15.7426   -7.0232   -8.8802 C   0  0  0  0  0  0  0  0  0  0  0  0
   16.1288   -7.6394  -10.2188 C   0  0  2  0  0  0  0  0  0  0  0  0
   16.4524   -9.0430  -10.0745 N   0  0  0  0  0  0  0  0  0  0  0  0
   17.2902   -6.8614  -10.7144 C   0  0  0  0  0  0  0  0  0  0  0  0
   18.3030   -6.7350   -9.9853 O   0  0  0  0  0  0  0  0  0  0  0  0
   17.2766   -6.2650  -11.9821 N   0  0  0  0  0  0  0  0  0  0  0  0
   18.3766   -5.5039  -12.5523 C   0  0  1  0  0  0  0  0  0  0  0  0
   18.7683   -6.2356  -13.8317 C   0  0  0  0  0  0  0  0  0  0  0  0
   19.6796   -7.3655  -13.5866 C   0  0  0  0  0  0  0  0  0  0  0  0
   20.2888   -7.6921  -12.3891 C   0  0  0  0  0  0  0  0  0  0  0  0
   21.0440   -8.7933  -12.5805 N   0  0  0  0  0  0  0  0  0  0  0  0
   20.9359   -9.1755  -13.8528 C   0  0  0  0  0  0  0  0  0  0  0  0
   20.1079   -8.3091  -14.4634 N   0  0  0  0  0  0  0  0  0  0  0  0
   17.8331   -4.1470  -12.8763 C   0  0  0  0  0  0  0  0  0  0  0  0
   16.4896   -3.8315  -12.7378 O   0  0  0  0  0  0  0  0  0  0  0  0
   18.5961   -3.2178  -13.2978 O   0  0  0  0  0  0  0  0  0  0  0  0
  2  3  1  0
  2  1  1  0
  3 10  1  0
  4  3  2  0
  6  5  1  0
  7  8  1  0
  7  6  1  0
  9  8  1  1
  9 11  1  0
 10  9  1  0
 11 13  1  0
 11 12  2  0
 13 14  1  0
 14 21  1  0
 14 15  1  6
 16 15  1  0
 16 17  2  0
 18 17  1  0
 19 18  1  0
 20 19  2  0
 20 16  1  0
 21 22  1  0
 23 21  2  0
M  END
$$$$
