GMH.pdb
     RDKit          3D

 23 23  0  0  1  0  0  0  0  0999 V2000
   20.8667  -13.7106  -17.0992 N   0  0  0  0  0  0  0  0  0  0  0  0
   21.5286  -12.6242  -17.8061 C   0  0  0  0  0  0  0  0  0  0  0  0
   22.0029  -11.6492  -16.7891 C   0  0  0  0  0  0  0  0  0  0  0  0
   21.3019  -11.3483  -15.7739 O   0  0  0  0  0  0  0  0  0  0  0  0
   28.2960  -12.5813  -15.0817 C   0  0  0  0  0  0  0  0  0  0  0  0
   27.5721  -10.9997  -15.6303 S   0  0  0  0  0  0  0  0  0  0  0  0
   25.7746  -11.1366  -15.4856 C   0  0  0  0  0  0  0  0  0  0  0  0
   25.1871   -9.8105  -15.9414 C   0  0  0  0  0  0  0  0  0  0  0  0
   23.6719   -9.9675  -15.9551 C   0  0  2  0  0  0  0  0  0  0  0  0
   23.2611  -10.9962  -16.8870 N   0  0  0  0  0  0  0  0  0  0  0  0
   23.1206   -8.6424  -16.3294 C   0  0  0  0  0  0  0  0  0  0  0  0
   23.0065   -8.3433  -17.5422 O   0  0  0  0  0  0  0  0  0  0  0  0
   22.7250   -7.7188  -15.3530 N   0  0  0  0  0  0  0  0  0  0  0  0
   21.9729   -6.5029  -15.6181 C   0  0  1  0  0  0  0  0  0  0  0  0
   20.5028   -6.9055  -15.5711 C   0  0  0  0  0  0  0  0  0  0  0  0
   19.9823   -7.3192  -16.8845 C   0  0  0  0  0  0  0  0  0  0  0  0
   20.6784   -7.3469  -18.0788 C   0  0  0  0  0  0  0  0  0  0  0  0
   19.8482   -7.7857  -19.0471 N   0  0  0  0  0  0  0  0  0  0  0  0
   18.6538   -8.0365  -18.5112 C   0  0  0  0  0  0  0  0  0  0  0  0
   18.7352   -7.7535  -17.1988 N   0  0  0  0  0  0  0  0  0  0  0  0
   22.2873   -5.5556  -14.5021 C   0  0  0  0  0  0  0  0  0  0  0  0
   21.9934   -4.2019  -14.5706 O   0  0  0  0  0  0  0  0  0  0  0  0
   22.8451   -5.9642  -13.4319 O   0  0  0  0  0  0  0  0  0  0  0  0
  2  3  1  0
  2  1  1  0
  3 10  1  0
  4  3  2  0
  6  5  1  0
  7  8  1  0
  7  6  1  0
  9  8  1  6
  9 11  1  0
 10  9  1  0
 11 13  1  0
 11 12  2  0
 13 14  1  0
 14 21  1  0
 14 15  1  1
 16 15  1  0
 16 17  2  0
 18 17  1  0
 19 18  1  0
 20 19  2  0
 20 16  1  0
 21 22  1  0
 23 21  2  0
M  END
$$$$
