GMH.pdb
     RDKit          3D

 23 23  0  0  1  0  0  0  0  0999 V2000
   42.6635  -10.2607   -8.0125 N   0  0  0  0  0  0  0  0  0  0  0  0
   42.6576  -11.6304   -7.5205 C   0  0  0  0  0  0  0  0  0  0  0  0
   43.9813  -12.2278   -7.8378 C   0  0  0  0  0  0  0  0  0  0  0  0
   44.8461  -11.6069   -8.5300 O   0  0  0  0  0  0  0  0  0  0  0  0
   49.7288  -17.2916   -6.3696 C   0  0  0  0  0  0  0  0  0  0  0  0
   48.0697  -16.7141   -5.8794 S   0  0  0  0  0  0  0  0  0  0  0  0
   47.4580  -15.6226   -7.1852 C   0  0  0  0  0  0  0  0  0  0  0  0
   46.0626  -15.1771   -6.7783 C   0  0  0  0  0  0  0  0  0  0  0  0
   45.5989  -14.1491   -7.8025 C   0  0  2  0  0  0  0  0  0  0  0  0
   44.3610  -13.5220   -7.3905 N   0  0  0  0  0  0  0  0  0  0  0  0
   45.4383  -14.8814   -9.0824 C   0  0  0  0  0  0  0  0  0  0  0  0
   44.4971  -15.7008   -9.2091 O   0  0  0  0  0  0  0  0  0  0  0  0
   46.3188  -14.6745  -10.1524 N   0  0  0  0  0  0  0  0  0  0  0  0
   46.1642  -15.2534  -11.4772 C   0  0  1  0  0  0  0  0  0  0  0  0
   45.3480  -14.2447  -12.2784 C   0  0  0  0  0  0  0  0  0  0  0  0
   44.0653  -14.7933  -12.7483 C   0  0  0  0  0  0  0  0  0  0  0  0
   43.5372  -16.0353  -12.4480 C   0  0  0  0  0  0  0  0  0  0  0  0
   42.3473  -16.1557  -13.0718 N   0  0  0  0  0  0  0  0  0  0  0  0
   42.1027  -15.0378  -13.7551 C   0  0  0  0  0  0  0  0  0  0  0  0
   43.1451  -14.2109  -13.5588 N   0  0  0  0  0  0  0  0  0  0  0  0
   47.5416  -15.3786  -12.0507 C   0  0  0  0  0  0  0  0  0  0  0  0
   47.8874  -16.3831  -12.9424 O   0  0  0  0  0  0  0  0  0  0  0  0
   48.4610  -14.5546  -11.7361 O   0  0  0  0  0  0  0  0  0  0  0  0
  2  3  1  0
  2  1  1  0
  3 10  1  0
  4  3  2  0
  6  5  1  0
  7  8  1  0
  7  6  1  0
  9  8  1  1
  9 11  1  0
 10  9  1  0
 11 13  1  0
 11 12  2  0
 13 14  1  0
 14 21  1  0
 14 15  1  6
 16 15  1  0
 16 17  2  0
 18 17  1  0
 19 18  1  0
 20 19  2  0
 20 16  1  0
 21 22  1  0
 23 21  2  0
M  END
$$$$
