HED.pdb
     RDKit          3D

 28 28  0  0  1  0  0  0  0  0999 V2000
   16.3556  -12.3637  -13.0575 N   0  0  0  0  0  0  0  0  0  0  0  0
   15.5046  -11.2059  -12.8617 C   0  0  1  0  0  0  0  0  0  0  0  0
   14.1523  -11.6969  -12.3822 C   0  0  0  0  0  0  0  0  0  0  0  0
   13.4131  -12.3937  -13.4480 C   0  0  0  0  0  0  0  0  0  0  0  0
   12.8266  -11.7826  -14.5300 C   0  0  0  0  0  0  0  0  0  0  0  0
   12.2281  -12.7160  -15.3120 N   0  0  0  0  0  0  0  0  0  0  0  0
   12.4482  -13.9074  -14.7071 C   0  0  0  0  0  0  0  0  0  0  0  0
   13.1733  -13.7044  -13.5679 N   0  0  0  0  0  0  0  0  0  0  0  0
   16.1664  -10.3233  -11.8749 C   0  0  0  0  0  0  0  0  0  0  0  0
   16.3344  -10.7618  -10.7111 O   0  0  0  0  0  0  0  0  0  0  0  0
   16.6249   -9.0100  -12.1582 N   0  0  0  0  0  0  0  0  0  0  0  0
   17.1883   -8.1607  -11.0975 C   0  0  1  0  0  0  0  0  0  0  0  0
   18.4343   -7.4848  -11.6240 C   0  0  0  0  0  0  0  0  0  0  0  0
   19.3424   -8.4252  -12.3442 C   0  0  0  0  0  0  0  0  0  0  0  0
   20.6041   -7.7330  -12.6769 C   0  0  0  0  0  0  0  0  0  0  0  0
   21.4625   -8.3122  -13.3764 O   0  0  0  0  0  0  0  0  0  0  0  0
   16.1864   -7.2033  -10.6169 C   0  0  0  0  0  0  0  0  0  0  0  0
   15.3735   -6.7014  -11.4273 O   0  0  0  0  0  0  0  0  0  0  0  0
   20.8602   -6.4527  -12.2304 O   0  0  0  0  0  0  0  0  0  0  0  0
   16.1212   -6.8364   -9.2565 N   0  0  0  0  0  0  0  0  0  0  0  0
   15.2159   -5.7847   -8.7520 C   0  0  1  0  0  0  0  0  0  0  0  0
   14.9712   -5.9448   -7.2980 C   0  0  0  0  0  0  0  0  0  0  0  0
   14.0902   -4.8843   -6.7855 C   0  0  0  0  0  0  0  0  0  0  0  0
   13.4797   -4.0416   -7.4722 O   0  0  0  0  0  0  0  0  0  0  0  0
   15.7936   -4.4621   -9.1371 C   0  0  0  0  0  0  0  0  0  0  0  0
   17.0448   -4.2565   -8.9318 O   0  0  0  0  0  0  0  0  0  0  0  0
   13.8663   -4.7455   -5.3887 O   0  0  0  0  0  0  0  0  0  0  0  0
   15.1273   -3.4072   -9.7017 O   0  0  0  0  0  0  0  0  0  0  0  0
  2  1  1  1
  3  4  1  0
  3  2  1  0
  4  5  2  0
  6  5  1  0
  7  6  1  0
  8  7  2  0
  8  4  1  0
  9  2  1  0
  9 11  1  0
 10  9  2  0
 11 12  1  0
 12 13  1  6
 13 14  1  0
 14 15  1  0
 15 19  1  0
 16 15  2  0
 17 12  1  0
 18 17  2  0
 20 17  1  0
 21 20  1  0
 21 25  1  0
 21 22  1  1
 23 22  1  0
 23 27  1  0
 24 23  2  0
 25 28  1  0
 26 25  2  0
M  END
$$$$
