HED.pdb
     RDKit          3D

 28 28  0  0  1  0  0  0  0  0999 V2000
   23.2863  -14.2394  -17.0352 N   0  0  0  0  0  0  0  0  0  0  0  0
   23.5329  -13.2006  -16.0538 C   0  0  1  0  0  0  0  0  0  0  0  0
   24.9853  -12.7811  -16.1739 C   0  0  0  0  0  0  0  0  0  0  0  0
   25.9018  -13.8523  -15.7489 C   0  0  0  0  0  0  0  0  0  0  0  0
   25.7110  -14.6669  -14.6589 C   0  0  0  0  0  0  0  0  0  0  0  0
   26.7447  -15.5396  -14.5552 N   0  0  0  0  0  0  0  0  0  0  0  0
   27.5754  -15.2596  -15.5873 C   0  0  0  0  0  0  0  0  0  0  0  0
   27.0551  -14.2271  -16.3139 N   0  0  0  0  0  0  0  0  0  0  0  0
   22.5992  -12.0868  -16.3338 C   0  0  0  0  0  0  0  0  0  0  0  0
   22.5637  -11.6266  -17.5009 O   0  0  0  0  0  0  0  0  0  0  0  0
   21.7390  -11.5028  -15.3674 N   0  0  0  0  0  0  0  0  0  0  0  0
   20.8009  -10.4324  -15.7388 C   0  0  1  0  0  0  0  0  0  0  0  0
   19.3882  -10.9571  -15.6150 C   0  0  0  0  0  0  0  0  0  0  0  0
   18.3627   -9.9696  -16.0632 C   0  0  0  0  0  0  0  0  0  0  0  0
   17.0139  -10.5425  -15.8778 C   0  0  0  0  0  0  0  0  0  0  0  0
   16.4380  -10.4266  -14.7748 O   0  0  0  0  0  0  0  0  0  0  0  0
   21.0332   -9.2367  -14.9214 C   0  0  0  0  0  0  0  0  0  0  0  0
   21.5789   -9.3522  -13.7997 O   0  0  0  0  0  0  0  0  0  0  0  0
   16.3692  -11.2077  -16.9005 O   0  0  0  0  0  0  0  0  0  0  0  0
   20.6524   -7.9569  -15.3758 N   0  0  0  0  0  0  0  0  0  0  0  0
   20.8613   -6.7292  -14.5825 C   0  0  1  0  0  0  0  0  0  0  0  0
   22.2768   -6.2906  -14.6424 C   0  0  0  0  0  0  0  0  0  0  0  0
   22.4848   -5.0538  -13.8740 C   0  0  0  0  0  0  0  0  0  0  0  0
   22.5892   -3.9047  -14.3466 O   0  0  0  0  0  0  0  0  0  0  0  0
   19.8797   -5.7075  -15.0558 C   0  0  0  0  0  0  0  0  0  0  0  0
   19.5116   -5.7349  -16.2861 O   0  0  0  0  0  0  0  0  0  0  0  0
   22.5864   -5.0941  -12.4567 O   0  0  0  0  0  0  0  0  0  0  0  0
   19.3058   -4.7121  -14.3107 O   0  0  0  0  0  0  0  0  0  0  0  0
  2  1  1  6
  3  4  1  0
  3  2  1  0
  4  5  2  0
  6  5  1  0
  7  6  1  0
  8  7  2  0
  8  4  1  0
  9  2  1  0
  9 11  1  0
 10  9  2  0
 11 12  1  0
 12 13  1  1
 13 14  1  0
 14 15  1  0
 15 19  1  0
 16 15  2  0
 17 12  1  0
 18 17  2  0
 20 17  1  0
 21 20  1  0
 21 25  1  0
 21 22  1  6
 23 22  1  0
 23 27  1  0
 24 23  2  0
 25 28  1  0
 26 25  2  0
M  END
$$$$
