HED.pdb
     RDKit          3D

 28 28  0  0  1  0  0  0  0  0999 V2000
   27.0553  -20.6766  -17.1750 N   0  0  0  0  0  0  0  0  0  0  0  0
   26.9029  -19.9693  -15.9181 C   0  0  1  0  0  0  0  0  0  0  0  0
   26.5460  -18.5296  -16.2338 C   0  0  0  0  0  0  0  0  0  0  0  0
   27.6585  -17.8201  -16.8873 C   0  0  0  0  0  0  0  0  0  0  0  0
   28.9434  -17.7543  -16.4049 C   0  0  0  0  0  0  0  0  0  0  0  0
   29.7108  -17.0209  -17.2501 N   0  0  0  0  0  0  0  0  0  0  0  0
   28.8927  -16.6339  -18.2574 C   0  0  0  0  0  0  0  0  0  0  0  0
   27.6391  -17.1254  -18.0304 N   0  0  0  0  0  0  0  0  0  0  0  0
   25.8459  -20.6551  -15.1416 C   0  0  0  0  0  0  0  0  0  0  0  0
   24.9068  -21.1964  -15.7743 O   0  0  0  0  0  0  0  0  0  0  0  0
   25.8235  -20.7415  -13.7248 N   0  0  0  0  0  0  0  0  0  0  0  0
   24.6658  -21.3136  -13.0205 C   0  0  1  0  0  0  0  0  0  0  0  0
   25.0444  -21.5568  -11.5769 C   0  0  0  0  0  0  0  0  0  0  0  0
   25.3011  -20.2932  -10.8252 C   0  0  0  0  0  0  0  0  0  0  0  0
   25.6790  -20.6162   -9.4343 C   0  0  0  0  0  0  0  0  0  0  0  0
   26.8506  -20.4161   -9.0485 O   0  0  0  0  0  0  0  0  0  0  0  0
   23.4953  -20.4403  -13.1583 C   0  0  0  0  0  0  0  0  0  0  0  0
   23.6481  -19.2605  -13.5507 O   0  0  0  0  0  0  0  0  0  0  0  0
   24.7629  -21.1376   -8.5438 O   0  0  0  0  0  0  0  0  0  0  0  0
   22.1984  -20.9052  -12.8561 N   0  0  0  0  0  0  0  0  0  0  0  0
   20.9767  -20.1431  -13.1831 C   0  0  1  0  0  0  0  0  0  0  0  0
   20.9322  -19.8012  -14.6255 C   0  0  0  0  0  0  0  0  0  0  0  0
   19.7110  -19.0520  -14.9585 C   0  0  0  0  0  0  0  0  0  0  0  0
   19.1896  -18.1540  -14.2683 O   0  0  0  0  0  0  0  0  0  0  0  0
   19.8038  -20.9324  -12.7009 C   0  0  0  0  0  0  0  0  0  0  0  0
   19.7402  -22.1801  -12.9990 O   0  0  0  0  0  0  0  0  0  0  0  0
   19.0053  -19.3220  -16.1625 O   0  0  0  0  0  0  0  0  0  0  0  0
   18.7530  -20.4700  -11.9541 O   0  0  0  0  0  0  0  0  0  0  0  0
  2  1  1  6
  3  4  1  0
  3  2  1  0
  4  5  2  0
  6  5  1  0
  7  6  1  0
  8  7  2  0
  8  4  1  0
  9  2  1  0
  9 11  1  0
 10  9  2  0
 11 12  1  0
 12 13  1  1
 13 14  1  0
 14 15  1  0
 15 19  1  0
 16 15  2  0
 17 12  1  0
 18 17  2  0
 20 17  1  0
 21 20  1  0
 21 25  1  0
 21 22  1  6
 23 22  1  0
 23 27  1  0
 24 23  2  0
 25 28  1  0
 26 25  2  0
M  END
$$$$
