HED.pdb
     RDKit          3D

 28 28  0  0  1  0  0  0  0  0999 V2000
   20.6274  -13.0748  -16.8732 N   0  0  0  0  0  0  0  0  0  0  0  0
   20.5735  -11.9024  -17.7251 C   0  0  1  0  0  0  0  0  0  0  0  0
   19.1141  -11.5629  -17.9589 C   0  0  0  0  0  0  0  0  0  0  0  0
   18.4255  -12.6089  -18.7332 C   0  0  0  0  0  0  0  0  0  0  0  0
   17.4011  -13.3937  -18.2613 C   0  0  0  0  0  0  0  0  0  0  0  0
   17.0009  -14.2534  -19.2318 N   0  0  0  0  0  0  0  0  0  0  0  0
   17.7839  -13.9953  -20.3061 C   0  0  0  0  0  0  0  0  0  0  0  0
   18.6530  -12.9888  -19.9956 N   0  0  0  0  0  0  0  0  0  0  0  0
   21.3028  -10.8133  -17.0377 C   0  0  0  0  0  0  0  0  0  0  0  0
   21.0925  -10.6450  -15.8119 O   0  0  0  0  0  0  0  0  0  0  0  0
   22.2267   -9.9438  -17.6745 N   0  0  0  0  0  0  0  0  0  0  0  0
   22.9036   -8.8770  -16.9212 C   0  0  1  0  0  0  0  0  0  0  0  0
   24.2507   -8.6118  -17.5547 C   0  0  0  0  0  0  0  0  0  0  0  0
   25.0461   -7.5875  -16.8159 C   0  0  0  0  0  0  0  0  0  0  0  0
   26.3283   -7.3626  -17.5139 C   0  0  0  0  0  0  0  0  0  0  0  0
   27.1841   -8.2726  -17.5458 O   0  0  0  0  0  0  0  0  0  0  0  0
   22.0626   -7.6769  -16.8585 C   0  0  0  0  0  0  0  0  0  0  0  0
   21.5802   -7.2052  -17.9141 O   0  0  0  0  0  0  0  0  0  0  0  0
   26.6063   -6.1628  -18.1363 O   0  0  0  0  0  0  0  0  0  0  0  0
   21.7866   -7.0426  -15.6293 N   0  0  0  0  0  0  0  0  0  0  0  0
   20.9863   -5.8060  -15.5267 C   0  0  1  0  0  0  0  0  0  0  0  0
   19.5858   -6.1080  -15.1436 C   0  0  0  0  0  0  0  0  0  0  0  0
   18.7746   -4.8827  -15.0786 C   0  0  0  0  0  0  0  0  0  0  0  0
   19.1698   -3.7267  -15.3274 O   0  0  0  0  0  0  0  0  0  0  0  0
   21.6943   -4.8804  -14.5922 C   0  0  0  0  0  0  0  0  0  0  0  0
   21.3167   -3.6537  -14.5413 O   0  0  0  0  0  0  0  0  0  0  0  0
   17.4046   -4.9442  -14.7046 O   0  0  0  0  0  0  0  0  0  0  0  0
   22.7322   -5.1930  -13.7551 O   0  0  0  0  0  0  0  0  0  0  0  0
  2  1  1  1
  3  4  1  0
  3  2  1  0
  4  5  2  0
  6  5  1  0
  7  6  1  0
  8  7  2  0
  8  4  1  0
  9  2  1  0
  9 11  1  0
 10  9  2  0
 11 12  1  0
 12 13  1  6
 13 14  1  0
 14 15  1  0
 15 19  1  0
 16 15  2  0
 17 12  1  0
 18 17  2  0
 20 17  1  0
 21 20  1  0
 21 25  1  0
 21 22  1  1
 23 22  1  0
 23 27  1  0
 24 23  2  0
 25 28  1  0
 26 25  2  0
M  END
$$$$
