HED.pdb
     RDKit          3D

 28 28  0  0  1  0  0  0  0  0999 V2000
   18.3827  -11.2094  -17.1827 N   0  0  0  0  0  0  0  0  0  0  0  0
   18.6612  -11.2841  -15.7615 C   0  0  1  0  0  0  0  0  0  0  0  0
   18.8730  -12.7426  -15.4040 C   0  0  0  0  0  0  0  0  0  0  0  0
   17.6350  -13.5268  -15.5463 C   0  0  0  0  0  0  0  0  0  0  0  0
   16.7938  -13.4823  -16.6319 C   0  0  0  0  0  0  0  0  0  0  0  0
   15.7492  -14.3254  -16.4343 N   0  0  0  0  0  0  0  0  0  0  0  0
   15.9498  -14.8912  -15.2204 C   0  0  0  0  0  0  0  0  0  0  0  0
   17.1043  -14.3993  -14.6821 N   0  0  0  0  0  0  0  0  0  0  0  0
   19.8600  -10.4582  -15.4943 C   0  0  0  0  0  0  0  0  0  0  0  0
   20.3219  -10.4495  -14.3274 O   0  0  0  0  0  0  0  0  0  0  0  0
   20.5238   -9.6727  -16.4729 N   0  0  0  0  0  0  0  0  0  0  0  0
   21.7115   -8.8774  -16.1256 C   0  0  1  0  0  0  0  0  0  0  0  0
   22.7843   -9.1245  -17.1622 C   0  0  0  0  0  0  0  0  0  0  0  0
   23.3733  -10.4928  -17.0706 C   0  0  0  0  0  0  0  0  0  0  0  0
   24.4960  -10.6101  -18.0232 C   0  0  0  0  0  0  0  0  0  0  0  0
   24.4372  -11.4463  -18.9500 O   0  0  0  0  0  0  0  0  0  0  0  0
   21.3630   -7.4581  -16.0005 C   0  0  0  0  0  0  0  0  0  0  0  0
   20.6753   -6.9102  -16.8929 O   0  0  0  0  0  0  0  0  0  0  0  0
   25.6170   -9.8129  -17.9139 O   0  0  0  0  0  0  0  0  0  0  0  0
   21.7888   -6.6971  -14.8919 N   0  0  0  0  0  0  0  0  0  0  0  0
   21.5156   -5.2522  -14.7584 C   0  0  1  0  0  0  0  0  0  0  0  0
   20.0672   -4.9683  -14.9026 C   0  0  0  0  0  0  0  0  0  0  0  0
   19.7800   -3.5410  -14.6931 C   0  0  0  0  0  0  0  0  0  0  0  0
   20.4959   -2.5871  -15.0568 O   0  0  0  0  0  0  0  0  0  0  0  0
   22.1072   -4.7935  -13.4657 C   0  0  0  0  0  0  0  0  0  0  0  0
   22.7599   -5.6414  -12.7552 O   0  0  0  0  0  0  0  0  0  0  0  0
   18.5951   -3.1351  -14.0209 O   0  0  0  0  0  0  0  0  0  0  0  0
   22.0351   -3.5354  -12.9294 O   0  0  0  0  0  0  0  0  0  0  0  0
  2  1  1  6
  3  4  1  0
  3  2  1  0
  4  5  2  0
  6  5  1  0
  7  6  1  0
  8  7  2  0
  8  4  1  0
  9  2  1  0
  9 11  1  0
 10  9  2  0
 11 12  1  0
 12 13  1  6
 13 14  1  0
 14 15  1  0
 15 19  1  0
 16 15  2  0
 17 12  1  0
 18 17  2  0
 20 17  1  0
 21 20  1  0
 21 25  1  0
 21 22  1  1
 23 22  1  0
 23 27  1  0
 24 23  2  0
 25 28  1  0
 26 25  2  0
M  END
$$$$
