HED.pdb
     RDKit          3D

 28 28  0  0  1  0  0  0  0  0999 V2000
   14.4099   -8.4384   -7.8737 N   0  0  0  0  0  0  0  0  0  0  0  0
   14.6749   -7.4378   -8.8894 C   0  0  1  0  0  0  0  0  0  0  0  0
   15.0134   -6.1377   -8.1859 C   0  0  0  0  0  0  0  0  0  0  0  0
   13.8364   -5.5501   -7.5247 C   0  0  0  0  0  0  0  0  0  0  0  0
   13.7764   -5.1831   -6.2018 C   0  0  0  0  0  0  0  0  0  0  0  0
   12.5473   -4.6805   -5.9233 N   0  0  0  0  0  0  0  0  0  0  0  0
   11.8481   -4.7390   -7.0815 C   0  0  0  0  0  0  0  0  0  0  0  0
   12.6413   -5.2715   -8.0573 N   0  0  0  0  0  0  0  0  0  0  0  0
   15.7901   -7.9325   -9.7275 C   0  0  0  0  0  0  0  0  0  0  0  0
   16.7940   -8.4142   -9.1485 O   0  0  0  0  0  0  0  0  0  0  0  0
   15.7997   -7.8981  -11.1467 N   0  0  0  0  0  0  0  0  0  0  0  0
   16.9368   -8.4371  -11.9083 C   0  0  1  0  0  0  0  0  0  0  0  0
   16.4176   -9.4329  -12.9209 C   0  0  0  0  0  0  0  0  0  0  0  0
   17.5064  -10.0611  -13.7255 C   0  0  0  0  0  0  0  0  0  0  0  0
   16.9177  -11.0021  -14.7002 C   0  0  0  0  0  0  0  0  0  0  0  0
   16.7643  -12.2022  -14.3876 O   0  0  0  0  0  0  0  0  0  0  0  0
   17.7047   -7.3509  -12.5264 C   0  0  0  0  0  0  0  0  0  0  0  0
   17.1139   -6.3098  -12.8957 O   0  0  0  0  0  0  0  0  0  0  0  0
   16.5302  -10.5850  -15.9572 O   0  0  0  0  0  0  0  0  0  0  0  0
   19.0987   -7.4572  -12.7133 N   0  0  0  0  0  0  0  0  0  0  0  0
   19.9226   -6.3549  -13.2485 C   0  0  1  0  0  0  0  0  0  0  0  0
   21.3670   -6.6220  -13.0445 C   0  0  0  0  0  0  0  0  0  0  0  0
   22.1908   -5.5130  -13.5496 C   0  0  0  0  0  0  0  0  0  0  0  0
   21.7741   -4.3959  -13.9142 O   0  0  0  0  0  0  0  0  0  0  0  0
   19.5309   -6.1433  -14.6743 C   0  0  0  0  0  0  0  0  0  0  0  0
   19.4986   -7.1601  -15.4585 O   0  0  0  0  0  0  0  0  0  0  0  0
   23.6008   -5.6548  -13.6605 O   0  0  0  0  0  0  0  0  0  0  0  0
   19.1907   -4.9558  -15.2656 O   0  0  0  0  0  0  0  0  0  0  0  0
  2  1  1  1
  3  4  1  0
  3  2  1  0
  4  5  2  0
  6  5  1  0
  7  6  1  0
  8  7  2  0
  8  4  1  0
  9  2  1  0
  9 11  1  0
 10  9  2  0
 11 12  1  0
 12 13  1  6
 13 14  1  0
 14 15  1  0
 15 19  1  0
 16 15  2  0
 17 12  1  0
 18 17  2  0
 20 17  1  0
 21 20  1  0
 21 25  1  0
 21 22  1  6
 23 22  1  0
 23 27  1  0
 24 23  2  0
 25 28  1  0
 26 25  2  0
M  END
$$$$
