HED.pdb
     RDKit          3D

 28 28  0  0  1  0  0  0  0  0999 V2000
   26.1332  -19.5162  -18.7412 N   0  0  0  0  0  0  0  0  0  0  0  0
   25.6672  -18.5513  -17.7640 C   0  0  1  0  0  0  0  0  0  0  0  0
   25.7691  -17.1718  -18.3858 C   0  0  0  0  0  0  0  0  0  0  0  0
   27.1688  -16.7740  -18.6101 C   0  0  0  0  0  0  0  0  0  0  0  0
   28.1998  -16.9851  -17.7265 C   0  0  0  0  0  0  0  0  0  0  0  0
   29.3530  -16.4934  -18.2454 N   0  0  0  0  0  0  0  0  0  0  0  0
   29.0288  -15.9773  -19.4546 C   0  0  0  0  0  0  0  0  0  0  0  0
   27.6921  -16.1517  -19.6724 N   0  0  0  0  0  0  0  0  0  0  0  0
   24.2756  -18.9082  -17.4082 C   0  0  0  0  0  0  0  0  0  0  0  0
   23.4889  -19.2122  -18.3377 O   0  0  0  0  0  0  0  0  0  0  0  0
   23.7700  -18.9293  -16.0819 N   0  0  0  0  0  0  0  0  0  0  0  0
   22.3698  -19.2907  -15.8122 C   0  0  1  0  0  0  0  0  0  0  0  0
   22.2747  -19.8668  -14.4174 C   0  0  0  0  0  0  0  0  0  0  0  0
   20.8911  -20.3003  -14.0635 C   0  0  0  0  0  0  0  0  0  0  0  0
   20.9012  -20.9398  -12.7320 C   0  0  0  0  0  0  0  0  0  0  0  0
   20.6122  -22.1508  -12.6243 O   0  0  0  0  0  0  0  0  0  0  0  0
   21.4918  -18.1318  -16.0060 C   0  0  0  0  0  0  0  0  0  0  0  0
   21.8384  -17.0133  -15.5608 O   0  0  0  0  0  0  0  0  0  0  0  0
   21.2243  -20.2272  -11.5954 O   0  0  0  0  0  0  0  0  0  0  0  0
   20.2617  -18.2537  -16.6854 N   0  0  0  0  0  0  0  0  0  0  0  0
   19.3837  -17.1006  -16.9677 C   0  0  1  0  0  0  0  0  0  0  0  0
   19.0043  -17.0582  -18.4008 C   0  0  0  0  0  0  0  0  0  0  0  0
   18.1552  -15.8933  -18.6934 C   0  0  0  0  0  0  0  0  0  0  0  0
   18.1070  -15.2729  -19.7738 O   0  0  0  0  0  0  0  0  0  0  0  0
   18.2260  -17.1673  -16.0261 C   0  0  0  0  0  0  0  0  0  0  0  0
   17.7582  -18.3211  -15.7105 O   0  0  0  0  0  0  0  0  0  0  0  0
   17.2829  -15.3696  -17.7007 O   0  0  0  0  0  0  0  0  0  0  0  0
   17.5822  -16.1107  -15.4391 O   0  0  0  0  0  0  0  0  0  0  0  0
  2  1  1  6
  3  4  1  0
  3  2  1  0
  4  5  2  0
  6  5  1  0
  7  6  1  0
  8  7  2  0
  8  4  1  0
  9  2  1  0
  9 11  1  0
 10  9  2  0
 11 12  1  0
 12 13  1  1
 13 14  1  0
 14 15  1  0
 15 19  1  0
 16 15  2  0
 17 12  1  0
 18 17  2  0
 20 17  1  0
 21 20  1  0
 21 25  1  0
 21 22  1  6
 23 22  1  0
 23 27  1  0
 24 23  2  0
 25 28  1  0
 26 25  2  0
M  END
$$$$
