HED.pdb
     RDKit          3D

 28 28  0  0  1  0  0  0  0  0999 V2000
   22.6480  -10.1764  -15.1568 N   0  0  0  0  0  0  0  0  0  0  0  0
   21.6241   -9.5260  -15.9516 C   0  0  1  0  0  0  0  0  0  0  0  0
   20.5122  -10.5292  -16.1906 C   0  0  0  0  0  0  0  0  0  0  0  0
   20.9496  -11.6352  -17.0585 C   0  0  0  0  0  0  0  0  0  0  0  0
   21.3885  -11.4955  -18.3531 C   0  0  0  0  0  0  0  0  0  0  0  0
   21.7088  -12.7126  -18.8599 N   0  0  0  0  0  0  0  0  0  0  0  0
   21.4654  -13.6053  -17.8711 C   0  0  0  0  0  0  0  0  0  0  0  0
   21.0014  -12.9410  -16.7720 N   0  0  0  0  0  0  0  0  0  0  0  0
   21.1598   -8.3377  -15.2011 C   0  0  0  0  0  0  0  0  0  0  0  0
   20.6610   -8.5167  -14.0635 O   0  0  0  0  0  0  0  0  0  0  0  0
   21.2413   -7.0053  -15.6841 N   0  0  0  0  0  0  0  0  0  0  0  0
   20.6339   -5.8924  -14.9383 C   0  0  1  0  0  0  0  0  0  0  0  0
   21.5301   -4.6801  -15.0552 C   0  0  0  0  0  0  0  0  0  0  0  0
   20.9831   -3.4856  -14.3469 C   0  0  0  0  0  0  0  0  0  0  0  0
   21.9045   -2.3446  -14.5228 C   0  0  0  0  0  0  0  0  0  0  0  0
   22.3209   -1.7246  -13.5209 O   0  0  0  0  0  0  0  0  0  0  0  0
   19.2708   -5.6354  -15.4152 C   0  0  0  0  0  0  0  0  0  0  0  0
   18.8994   -6.1154  -16.5112 O   0  0  0  0  0  0  0  0  0  0  0  0
   22.3196   -1.9433  -15.7761 O   0  0  0  0  0  0  0  0  0  0  0  0
   18.3686   -4.8561  -14.6613 N   0  0  0  0  0  0  0  0  0  0  0  0
   16.9749   -4.6104  -15.0825 C   0  0  1  0  0  0  0  0  0  0  0  0
   16.1829   -5.8640  -15.0605 C   0  0  0  0  0  0  0  0  0  0  0  0
   14.7900   -5.6219  -15.4667 C   0  0  0  0  0  0  0  0  0  0  0  0
   14.3495   -4.5818  -15.9946 O   0  0  0  0  0  0  0  0  0  0  0  0
   16.4244   -3.5191  -14.2237 C   0  0  0  0  0  0  0  0  0  0  0  0
   16.3263   -3.7244  -12.9596 O   0  0  0  0  0  0  0  0  0  0  0  0
   13.7978   -6.6207  -15.2701 O   0  0  0  0  0  0  0  0  0  0  0  0
   15.9976   -2.2849  -14.6361 O   0  0  0  0  0  0  0  0  0  0  0  0
  2  1  1  1
  3  4  1  0
  3  2  1  0
  4  5  2  0
  6  5  1  0
  7  6  1  0
  8  7  2  0
  8  4  1  0
  9  2  1  0
  9 11  1  0
 10  9  2  0
 11 12  1  0
 12 13  1  6
 13 14  1  0
 14 15  1  0
 15 19  1  0
 16 15  2  0
 17 12  1  0
 18 17  2  0
 20 17  1  0
 21 20  1  0
 21 25  1  0
 21 22  1  1
 23 22  1  0
 23 27  1  0
 24 23  2  0
 25 28  1  0
 26 25  2  0
M  END
$$$$
