HED.pdb
     RDKit          3D

 28 28  0  0  1  0  0  0  0  0999 V2000
   13.6397   -9.1437  -11.0313 N   0  0  0  0  0  0  0  0  0  0  0  0
   14.8850   -9.0915  -10.2899 C   0  0  1  0  0  0  0  0  0  0  0  0
   15.6976  -10.3183  -10.6567 C   0  0  0  0  0  0  0  0  0  0  0  0
   15.0306  -11.5624  -10.2380 C   0  0  0  0  0  0  0  0  0  0  0  0
   13.8543  -11.6269   -9.5307 C   0  0  0  0  0  0  0  0  0  0  0  0
   13.5251  -12.9247   -9.3106 N   0  0  0  0  0  0  0  0  0  0  0  0
   14.5046  -13.6617   -9.8860 C   0  0  0  0  0  0  0  0  0  0  0  0
   15.4225  -12.8236  -10.4516 N   0  0  0  0  0  0  0  0  0  0  0  0
   15.5715   -7.8313  -10.6524 C   0  0  0  0  0  0  0  0  0  0  0  0
   15.5722   -7.4864  -11.8591 O   0  0  0  0  0  0  0  0  0  0  0  0
   16.2312   -6.9847   -9.7233 N   0  0  0  0  0  0  0  0  0  0  0  0
   16.9624   -5.7910  -10.1752 C   0  0  1  0  0  0  0  0  0  0  0  0
   16.8761   -4.7304   -9.1008 C   0  0  0  0  0  0  0  0  0  0  0  0
   17.6019   -3.4779   -9.4645 C   0  0  0  0  0  0  0  0  0  0  0  0
   17.5226   -2.5199   -8.3430 C   0  0  0  0  0  0  0  0  0  0  0  0
   16.4062   -2.1857   -7.8916 O   0  0  0  0  0  0  0  0  0  0  0  0
   18.3460   -6.1340  -10.5206 C   0  0  0  0  0  0  0  0  0  0  0  0
   18.9110   -7.0859   -9.9340 O   0  0  0  0  0  0  0  0  0  0  0  0
   18.6598   -1.9807   -7.7773 O   0  0  0  0  0  0  0  0  0  0  0  0
   19.0538   -5.4103  -11.5029 N   0  0  0  0  0  0  0  0  0  0  0  0
   20.2910   -5.9125  -12.1332 C   0  0  1  0  0  0  0  0  0  0  0  0
   20.1003   -7.2848  -12.6623 C   0  0  0  0  0  0  0  0  0  0  0  0
   21.2868   -7.7406  -13.4025 C   0  0  0  0  0  0  0  0  0  0  0  0
   21.8423   -7.1377  -14.3420 O   0  0  0  0  0  0  0  0  0  0  0  0
   20.7204   -4.9124  -13.1562 C   0  0  0  0  0  0  0  0  0  0  0  0
   19.8227   -4.3698  -13.8976 O   0  0  0  0  0  0  0  0  0  0  0  0
   21.9126   -8.9735  -13.0726 O   0  0  0  0  0  0  0  0  0  0  0  0
   21.9989   -4.4902  -13.4070 O   0  0  0  0  0  0  0  0  0  0  0  0
  2  1  1  6
  3  4  1  0
  3  2  1  0
  4  5  2  0
  6  5  1  0
  7  6  1  0
  8  7  2  0
  8  4  1  0
  9  2  1  0
  9 11  1  0
 10  9  2  0
 11 12  1  0
 12 13  1  1
 13 14  1  0
 14 15  1  0
 15 19  1  0
 16 15  2  0
 17 12  1  0
 18 17  2  0
 20 17  1  0
 21 20  1  0
 21 25  1  0
 21 22  1  6
 23 22  1  0
 23 27  1  0
 24 23  2  0
 25 28  1  0
 26 25  2  0
M  END
$$$$
