HED.pdb
     RDKit          3D

 28 28  0  0  1  0  0  0  0  0999 V2000
   17.4083  -12.4337  -15.0966 N   0  0  0  0  0  0  0  0  0  0  0  0
   16.9880  -11.0602  -15.2967 C   0  0  1  0  0  0  0  0  0  0  0  0
   15.4719  -11.0290  -15.2764 C   0  0  0  0  0  0  0  0  0  0  0  0
   14.8947  -11.6759  -16.4665 C   0  0  0  0  0  0  0  0  0  0  0  0
   14.7323  -11.0735  -17.6907 C   0  0  0  0  0  0  0  0  0  0  0  0
   14.1698  -11.9507  -18.5597 N   0  0  0  0  0  0  0  0  0  0  0  0
   13.9856  -13.0987  -17.8654 C   0  0  0  0  0  0  0  0  0  0  0  0
   14.4307  -12.9250  -16.5862 N   0  0  0  0  0  0  0  0  0  0  0  0
   17.5834  -10.2457  -14.2137 C   0  0  0  0  0  0  0  0  0  0  0  0
   17.6026  -10.7285  -13.0554 O   0  0  0  0  0  0  0  0  0  0  0  0
   18.1354   -8.9510  -14.3986 N   0  0  0  0  0  0  0  0  0  0  0  0
   18.6827   -8.1932  -13.2629 C   0  0  1  0  0  0  0  0  0  0  0  0
   19.8792   -7.3996  -13.7372 C   0  0  0  0  0  0  0  0  0  0  0  0
   21.0476   -8.2630  -14.0794 C   0  0  0  0  0  0  0  0  0  0  0  0
   22.1352   -7.4255  -14.6249 C   0  0  0  0  0  0  0  0  0  0  0  0
   22.8196   -7.8456  -15.5823 O   0  0  0  0  0  0  0  0  0  0  0  0
   17.6467   -7.3477  -12.6601 C   0  0  0  0  0  0  0  0  0  0  0  0
   16.5968   -7.1070  -13.2997 O   0  0  0  0  0  0  0  0  0  0  0  0
   22.4163   -6.1812  -14.0989 O   0  0  0  0  0  0  0  0  0  0  0  0
   17.8112   -6.7991  -11.3711 N   0  0  0  0  0  0  0  0  0  0  0  0
   16.7480   -6.0431  -10.6794 C   0  0  1  0  0  0  0  0  0  0  0  0
   15.4992   -6.8383  -10.5928 C   0  0  0  0  0  0  0  0  0  0  0  0
   14.4945   -6.1638   -9.7566 C   0  0  0  0  0  0  0  0  0  0  0  0
   14.2695   -4.9378   -9.7246 O   0  0  0  0  0  0  0  0  0  0  0  0
   17.2884   -5.5996   -9.3594 C   0  0  0  0  0  0  0  0  0  0  0  0
   18.2966   -6.2258   -8.8681 O   0  0  0  0  0  0  0  0  0  0  0  0
   13.6663   -6.9142   -8.8783 O   0  0  0  0  0  0  0  0  0  0  0  0
   16.8226   -4.5712   -8.5842 O   0  0  0  0  0  0  0  0  0  0  0  0
  2  1  1  1
  3  4  1  0
  3  2  1  0
  4  5  2  0
  6  5  1  0
  7  6  1  0
  8  7  2  0
  8  4  1  0
  9  2  1  0
  9 11  1  0
 10  9  2  0
 11 12  1  0
 12 13  1  6
 13 14  1  0
 14 15  1  0
 15 19  1  0
 16 15  2  0
 17 12  1  0
 18 17  2  0
 20 17  1  0
 21 20  1  0
 21 25  1  0
 21 22  1  1
 23 22  1  0
 23 27  1  0
 24 23  2  0
 25 28  1  0
 26 25  2  0
M  END
$$$$
