HED.pdb
     RDKit          3D

 28 28  0  0  1  0  0  0  0  0999 V2000
   19.5996  -13.9494  -18.4173 N   0  0  0  0  0  0  0  0  0  0  0  0
   20.7810  -13.1269  -18.2412 C   0  0  1  0  0  0  0  0  0  0  0  0
   21.6832  -13.3440  -19.4406 C   0  0  0  0  0  0  0  0  0  0  0  0
   22.2114  -14.7176  -19.4872 C   0  0  0  0  0  0  0  0  0  0  0  0
   21.6360  -15.7609  -20.1717 C   0  0  0  0  0  0  0  0  0  0  0  0
   22.3781  -16.8836  -19.9998 N   0  0  0  0  0  0  0  0  0  0  0  0
   23.4154  -16.5282  -19.2052 C   0  0  0  0  0  0  0  0  0  0  0  0
   23.3085  -15.2027  -18.8949 N   0  0  0  0  0  0  0  0  0  0  0  0
   20.3354  -11.7209  -18.1178 C   0  0  0  0  0  0  0  0  0  0  0  0
   19.9420  -11.1339  -19.1550 O   0  0  0  0  0  0  0  0  0  0  0  0
   20.3236  -10.9900  -16.9009 N   0  0  0  0  0  0  0  0  0  0  0  0
   19.7659   -9.6301  -16.8411 C   0  0  1  0  0  0  0  0  0  0  0  0
   18.3209   -9.7143  -16.4039 C   0  0  0  0  0  0  0  0  0  0  0  0
   18.1449  -10.4719  -15.1300 C   0  0  0  0  0  0  0  0  0  0  0  0
   16.7174  -10.4712  -14.7503 C   0  0  0  0  0  0  0  0  0  0  0  0
   15.9595  -11.3629  -15.1884 O   0  0  0  0  0  0  0  0  0  0  0  0
   20.5741   -8.7798  -15.9606 C   0  0  0  0  0  0  0  0  0  0  0  0
   21.2866   -9.3080  -15.0759 O   0  0  0  0  0  0  0  0  0  0  0  0
   16.1963   -9.5024  -13.9173 O   0  0  0  0  0  0  0  0  0  0  0  0
   20.5636   -7.3754  -16.0915 N   0  0  0  0  0  0  0  0  0  0  0  0
   21.3162   -6.4801  -15.1902 C   0  0  1  0  0  0  0  0  0  0  0  0
   21.2433   -5.0734  -15.6540 C   0  0  0  0  0  0  0  0  0  0  0  0
   22.0237   -4.1830  -14.7811 C   0  0  0  0  0  0  0  0  0  0  0  0
   23.1681   -4.4063  -14.3395 O   0  0  0  0  0  0  0  0  0  0  0  0
   20.8084   -6.6980  -13.8024 C   0  0  0  0  0  0  0  0  0  0  0  0
   19.5400   -6.7868  -13.6206 O   0  0  0  0  0  0  0  0  0  0  0  0
   21.4882   -2.9354  -14.3602 O   0  0  0  0  0  0  0  0  0  0  0  0
   21.5579   -6.8186  -12.6625 O   0  0  0  0  0  0  0  0  0  0  0  0
  2  1  1  6
  3  4  1  0
  3  2  1  0
  4  5  2  0
  6  5  1  0
  7  6  1  0
  8  7  2  0
  8  4  1  0
  9  2  1  0
  9 11  1  0
 10  9  2  0
 11 12  1  0
 12 13  1  1
 13 14  1  0
 14 15  1  0
 15 19  1  0
 16 15  2  0
 17 12  1  0
 18 17  2  0
 20 17  1  0
 21 20  1  0
 21 25  1  0
 21 22  1  6
 23 22  1  0
 23 27  1  0
 24 23  2  0
 25 28  1  0
 26 25  2  0
M  END
$$$$
