HED.pdb
     RDKit          3D

 28 28  0  0  1  0  0  0  0  0999 V2000
   27.9628  -17.9446  -16.6303 N   0  0  0  0  0  0  0  0  0  0  0  0
   27.0916  -17.3887  -15.6129 C   0  0  1  0  0  0  0  0  0  0  0  0
   26.0764  -16.4988  -16.3039 C   0  0  0  0  0  0  0  0  0  0  0  0
   26.6864  -15.2531  -16.7978 C   0  0  0  0  0  0  0  0  0  0  0  0
   26.7842  -14.8934  -18.1204 C   0  0  0  0  0  0  0  0  0  0  0  0
   27.4020  -13.6896  -18.2212 N   0  0  0  0  0  0  0  0  0  0  0  0
   27.6853  -13.3074  -16.9533 C   0  0  0  0  0  0  0  0  0  0  0  0
   27.2454  -14.2671  -16.0872 N   0  0  0  0  0  0  0  0  0  0  0  0
   26.4569  -18.5188  -14.8982 C   0  0  0  0  0  0  0  0  0  0  0  0
   26.1303  -19.5299  -15.5661 O   0  0  0  0  0  0  0  0  0  0  0  0
   26.1922  -18.5350  -13.5036 N   0  0  0  0  0  0  0  0  0  0  0  0
   25.5075  -19.6763  -12.8773 C   0  0  1  0  0  0  0  0  0  0  0  0
   25.7937  -19.6620  -11.3926 C   0  0  0  0  0  0  0  0  0  0  0  0
   25.1252  -20.7797  -10.6636 C   0  0  0  0  0  0  0  0  0  0  0  0
   25.9690  -21.9898  -10.7375 C   0  0  0  0  0  0  0  0  0  0  0  0
   27.1763  -21.8853  -11.0424 O   0  0  0  0  0  0  0  0  0  0  0  0
   24.0718  -19.6435  -13.1763 C   0  0  0  0  0  0  0  0  0  0  0  0
   23.4966  -18.5401  -13.3218 O   0  0  0  0  0  0  0  0  0  0  0  0
   25.4527  -23.2425  -10.4763 O   0  0  0  0  0  0  0  0  0  0  0  0
   23.3254  -20.8336  -13.3029 N   0  0  0  0  0  0  0  0  0  0  0  0
   21.8700  -20.8449  -13.5517 C   0  0  1  0  0  0  0  0  0  0  0  0
   21.1802  -19.8256  -12.7242 C   0  0  0  0  0  0  0  0  0  0  0  0
   20.3209  -20.4549  -11.7098 C   0  0  0  0  0  0  0  0  0  0  0  0
   20.3531  -21.6513  -11.3603 O   0  0  0  0  0  0  0  0  0  0  0  0
   21.6572  -20.6909  -15.0222 C   0  0  0  0  0  0  0  0  0  0  0  0
   22.6431  -20.2995  -15.7465 O   0  0  0  0  0  0  0  0  0  0  0  0
   19.3390  -19.6909  -11.0222 O   0  0  0  0  0  0  0  0  0  0  0  0
   20.4987  -20.9249  -15.7140 O   0  0  0  0  0  0  0  0  0  0  0  0
  2  1  1  6
  3  4  1  0
  3  2  1  0
  4  5  2  0
  6  5  1  0
  7  6  1  0
  8  7  2  0
  8  4  1  0
  9  2  1  0
  9 11  1  0
 10  9  2  0
 11 12  1  0
 12 13  1  1
 13 14  1  0
 14 15  1  0
 15 19  1  0
 16 15  2  0
 17 12  1  0
 18 17  2  0
 20 17  1  0
 21 20  1  0
 21 25  1  0
 21 22  1  1
 23 22  1  0
 23 27  1  0
 24 23  2  0
 25 28  1  0
 26 25  2  0
M  END
$$$$
