HED.pdb
     RDKit          3D

 28 28  0  0  1  0  0  0  0  0999 V2000
   24.3967  -11.6798  -17.5279 N   0  0  0  0  0  0  0  0  0  0  0  0
   24.6213  -10.7277  -16.4573 C   0  0  1  0  0  0  0  0  0  0  0  0
   26.0044  -10.1344  -16.6437 C   0  0  0  0  0  0  0  0  0  0  0  0
   27.0640  -11.1249  -16.3910 C   0  0  0  0  0  0  0  0  0  0  0  0
   26.8517  -12.4212  -15.9876 C   0  0  0  0  0  0  0  0  0  0  0  0
   28.0426  -13.0556  -15.8458 N   0  0  0  0  0  0  0  0  0  0  0  0
   28.9921  -12.1440  -16.1639 C   0  0  0  0  0  0  0  0  0  0  0  0
   28.3881  -10.9654  -16.4965 N   0  0  0  0  0  0  0  0  0  0  0  0
   23.5540   -9.7051  -16.5339 C   0  0  0  0  0  0  0  0  0  0  0  0
   23.1798   -9.3275  -17.6708 O   0  0  0  0  0  0  0  0  0  0  0  0
   22.9238   -9.1213  -15.4038 N   0  0  0  0  0  0  0  0  0  0  0  0
   21.8392   -8.1408  -15.5654 C   0  0  1  0  0  0  0  0  0  0  0  0
   20.6723   -8.5567  -14.6984 C   0  0  0  0  0  0  0  0  0  0  0  0
   19.8985   -9.6946  -15.2763 C   0  0  0  0  0  0  0  0  0  0  0  0
   18.7652  -10.0210  -14.3870 C   0  0  0  0  0  0  0  0  0  0  0  0
   18.9097  -10.8775  -13.4886 O   0  0  0  0  0  0  0  0  0  0  0  0
   22.3171   -6.7883  -15.2589 C   0  0  0  0  0  0  0  0  0  0  0  0
   23.1600   -6.6232  -14.3469 O   0  0  0  0  0  0  0  0  0  0  0  0
   17.5415   -9.3987  -14.5252 O   0  0  0  0  0  0  0  0  0  0  0  0
   21.8441   -5.6678  -15.9733 N   0  0  0  0  0  0  0  0  0  0  0  0
   22.2886   -4.2889  -15.6884 C   0  0  1  0  0  0  0  0  0  0  0  0
   22.5742   -3.5514  -16.9430 C   0  0  0  0  0  0  0  0  0  0  0  0
   23.0392   -2.1842  -16.6637 C   0  0  0  0  0  0  0  0  0  0  0  0
   23.1759   -1.6714  -15.5355 O   0  0  0  0  0  0  0  0  0  0  0  0
   21.2574   -3.6476  -14.8184 C   0  0  0  0  0  0  0  0  0  0  0  0
   21.6356   -2.7553  -13.9754 O   0  0  0  0  0  0  0  0  0  0  0  0
   23.3828   -1.3079  -17.7289 O   0  0  0  0  0  0  0  0  0  0  0  0
   19.9124   -3.9053  -14.8115 O   0  0  0  0  0  0  0  0  0  0  0  0
  2  1  1  6
  3  4  1  0
  3  2  1  0
  4  5  2  0
  6  5  1  0
  7  6  1  0
  8  7  2  0
  8  4  1  0
  9  2  1  0
  9 11  1  0
 10  9  2  0
 11 12  1  0
 12 13  1  1
 13 14  1  0
 14 15  1  0
 15 19  1  0
 16 15  2  0
 17 12  1  0
 18 17  2  0
 20 17  1  0
 21 20  1  0
 21 25  1  0
 21 22  1  6
 23 22  1  0
 23 27  1  0
 24 23  2  0
 25 28  1  0
 26 25  2  0
M  END
$$$$
