HED.pdb
     RDKit          3D

 28 28  0  0  1  0  0  0  0  0999 V2000
   20.0789  -15.2082  -17.0402 N   0  0  0  0  0  0  0  0  0  0  0  0
   19.3121  -13.9849  -17.1778 C   0  0  1  0  0  0  0  0  0  0  0  0
   18.3435  -13.9085  -16.0135 C   0  0  0  0  0  0  0  0  0  0  0  0
   17.2972  -14.9405  -16.1027 C   0  0  0  0  0  0  0  0  0  0  0  0
   16.5511  -15.2121  -17.2242 C   0  0  0  0  0  0  0  0  0  0  0  0
   15.6787  -16.2170  -16.9592 N   0  0  0  0  0  0  0  0  0  0  0  0
   15.8901  -16.5648  -15.6677 C   0  0  0  0  0  0  0  0  0  0  0  0
   16.8807  -15.7812  -15.1489 N   0  0  0  0  0  0  0  0  0  0  0  0
   20.2677  -12.8547  -17.1917 C   0  0  0  0  0  0  0  0  0  0  0  0
   21.0406  -12.7241  -16.2115 O   0  0  0  0  0  0  0  0  0  0  0  0
   20.3681  -11.9057  -18.2427 N   0  0  0  0  0  0  0  0  0  0  0  0
   21.2890  -10.7630  -18.1440 C   0  0  1  0  0  0  0  0  0  0  0  0
   21.8419  -10.4619  -19.5189 C   0  0  0  0  0  0  0  0  0  0  0  0
   22.7546  -11.5302  -20.0223 C   0  0  0  0  0  0  0  0  0  0  0  0
   23.2495  -11.1623  -21.3645 C   0  0  0  0  0  0  0  0  0  0  0  0
   22.6070  -11.5099  -22.3783 O   0  0  0  0  0  0  0  0  0  0  0  0
   20.6151   -9.6083  -17.5408 C   0  0  0  0  0  0  0  0  0  0  0  0
   19.3670   -9.6092  -17.4321 O   0  0  0  0  0  0  0  0  0  0  0  0
   24.4132  -10.4389  -21.5275 O   0  0  0  0  0  0  0  0  0  0  0  0
   21.3476   -8.4944  -17.0800 N   0  0  0  0  0  0  0  0  0  0  0  0
   20.7053   -7.2824  -16.5336 C   0  0  1  0  0  0  0  0  0  0  0  0
   19.6777   -7.6333  -15.5235 C   0  0  0  0  0  0  0  0  0  0  0  0
   19.0529   -6.4279  -14.9576 C   0  0  0  0  0  0  0  0  0  0  0  0
   18.8454   -5.3566  -15.5606 O   0  0  0  0  0  0  0  0  0  0  0  0
   21.7849   -6.3829  -16.0268 C   0  0  0  0  0  0  0  0  0  0  0  0
   22.9984   -6.8024  -16.0606 O   0  0  0  0  0  0  0  0  0  0  0  0
   18.6202   -6.4083  -13.6037 O   0  0  0  0  0  0  0  0  0  0  0  0
   21.6311   -5.1226  -15.5135 O   0  0  0  0  0  0  0  0  0  0  0  0
  2  1  1  1
  3  4  1  0
  3  2  1  0
  4  5  2  0
  6  5  1  0
  7  6  1  0
  8  7  2  0
  8  4  1  0
  9  2  1  0
  9 11  1  0
 10  9  2  0
 11 12  1  0
 12 13  1  6
 13 14  1  0
 14 15  1  0
 15 19  1  0
 16 15  2  0
 17 12  1  0
 18 17  2  0
 20 17  1  0
 21 20  1  0
 21 25  1  0
 21 22  1  1
 23 22  1  0
 23 27  1  0
 24 23  2  0
 25 28  1  0
 26 25  2  0
M  END
$$$$
