HED.pdb
     RDKit          3D

 28 28  0  0  1  0  0  0  0  0999 V2000
   14.6294   -8.6001   -8.7075 N   0  0  0  0  0  0  0  0  0  0  0  0
   15.0386   -7.5240   -9.5893 C   0  0  1  0  0  0  0  0  0  0  0  0
   15.3594   -6.3151   -8.7316 C   0  0  0  0  0  0  0  0  0  0  0  0
   14.1418   -5.6885   -8.1907 C   0  0  0  0  0  0  0  0  0  0  0  0
   13.1001   -5.2073   -8.9467 C   0  0  0  0  0  0  0  0  0  0  0  0
   12.1441   -4.6945   -8.1319 N   0  0  0  0  0  0  0  0  0  0  0  0
   12.6009   -4.8615   -6.8681 C   0  0  0  0  0  0  0  0  0  0  0  0
   13.8227   -5.4699   -6.9100 N   0  0  0  0  0  0  0  0  0  0  0  0
   16.2108   -7.9956  -10.3601 C   0  0  0  0  0  0  0  0  0  0  0  0
   17.1845   -8.4664   -9.7235 O   0  0  0  0  0  0  0  0  0  0  0  0
   16.3073   -7.9505  -11.7757 N   0  0  0  0  0  0  0  0  0  0  0  0
   17.5147   -8.4284  -12.4668 C   0  0  1  0  0  0  0  0  0  0  0  0
   17.1016   -9.3687  -13.5766 C   0  0  0  0  0  0  0  0  0  0  0  0
   16.6040  -10.6807  -13.0682 C   0  0  0  0  0  0  0  0  0  0  0  0
   16.1665  -11.5154  -14.2057 C   0  0  0  0  0  0  0  0  0  0  0  0
   16.5405  -12.7053  -14.2807 O   0  0  0  0  0  0  0  0  0  0  0  0
   18.3125   -7.2973  -12.9523 C   0  0  0  0  0  0  0  0  0  0  0  0
   17.7352   -6.2519  -13.3308 O   0  0  0  0  0  0  0  0  0  0  0  0
   15.3488  -11.0092  -15.1952 O   0  0  0  0  0  0  0  0  0  0  0  0
   19.7206   -7.3652  -13.0011 N   0  0  0  0  0  0  0  0  0  0  0  0
   20.5599   -6.2589  -13.5029 C   0  0  1  0  0  0  0  0  0  0  0  0
   21.9129   -6.2995  -12.8969 C   0  0  0  0  0  0  0  0  0  0  0  0
   22.7711   -5.2337  -13.4365 C   0  0  0  0  0  0  0  0  0  0  0  0
   23.7438   -5.3906  -14.2006 O   0  0  0  0  0  0  0  0  0  0  0  0
   20.5516   -6.3205  -14.9954 C   0  0  0  0  0  0  0  0  0  0  0  0
   20.9927   -5.3092  -15.6531 O   0  0  0  0  0  0  0  0  0  0  0  0
   22.5300   -3.8740  -13.0992 O   0  0  0  0  0  0  0  0  0  0  0  0
   20.1159   -7.3604  -15.7727 O   0  0  0  0  0  0  0  0  0  0  0  0
  2  1  1  1
  3  4  1  0
  3  2  1  0
  4  5  2  0
  6  5  1  0
  7  6  1  0
  8  7  2  0
  8  4  1  0
  9  2  1  0
  9 11  1  0
 10  9  2  0
 11 12  1  0
 12 13  1  6
 13 14  1  0
 14 15  1  0
 15 19  1  0
 16 15  2  0
 17 12  1  0
 18 17  2  0
 20 17  1  0
 21 20  1  0
 21 25  1  0
 21 22  1  1
 23 22  1  0
 23 27  1  0
 24 23  2  0
 25 28  1  0
 26 25  2  0
M  END
$$$$
