THD.pdb
     RDKit          3D

 26 26  0  0  1  0  0  0  0  0999 V2000
   15.8307  -12.6195  -10.5478 C   0  0  0  0  0  0  0  0  0  0  0  0
   16.1436  -11.1990  -10.8908 C   0  0  1  0  0  0  0  0  0  0  0  0
   15.8920  -10.9990  -12.2418 O   0  0  0  0  0  0  0  0  0  0  0  0
   15.2792  -10.1941  -10.1313 C   0  0  2  0  0  0  0  0  0  0  0  0
   13.9074  -10.4438  -10.4696 N   0  0  0  0  0  0  0  0  0  0  0  0
   15.7029   -8.7882  -10.4491 C   0  0  0  0  0  0  0  0  0  0  0  0
   15.0911   -8.2233  -11.3613 O   0  0  0  0  0  0  0  0  0  0  0  0
   16.7314   -8.1431   -9.7579 N   0  0  0  0  0  0  0  0  0  0  0  0
   17.3363   -6.8963  -10.0439 C   0  0  1  0  0  0  0  0  0  0  0  0
   17.2140   -5.8222   -8.9737 C   0  0  0  0  0  0  0  0  0  0  0  0
   15.8072   -5.5154   -8.6492 C   0  0  0  0  0  0  0  0  0  0  0  0
   14.6753   -6.0077   -9.2534 C   0  0  0  0  0  0  0  0  0  0  0  0
   13.5782   -5.4252   -8.6858 N   0  0  0  0  0  0  0  0  0  0  0  0
   14.0434   -4.5843   -7.7427 C   0  0  0  0  0  0  0  0  0  0  0  0
   15.3890   -4.6427   -7.7248 N   0  0  0  0  0  0  0  0  0  0  0  0
   18.6530   -6.9543  -10.6899 C   0  0  0  0  0  0  0  0  0  0  0  0
   19.6153   -7.4851  -10.0233 O   0  0  0  0  0  0  0  0  0  0  0  0
   18.9463   -6.4798  -11.9710 N   0  0  0  0  0  0  0  0  0  0  0  0
   20.2030   -6.7518  -12.6944 C   0  0  1  0  0  0  0  0  0  0  0  0
   19.9213   -6.9508  -14.1580 C   0  0  0  0  0  0  0  0  0  0  0  0
   21.1649   -7.0705  -14.9444 C   0  0  0  0  0  0  0  0  0  0  0  0
   22.3171   -7.2469  -14.4752 O   0  0  0  0  0  0  0  0  0  0  0  0
   21.0309   -5.5332  -12.5368 C   0  0  0  0  0  0  0  0  0  0  0  0
   22.4273   -5.6733  -12.5489 O   0  0  0  0  0  0  0  0  0  0  0  0
   21.1387   -6.9901  -16.3542 O   0  0  0  0  0  0  0  0  0  0  0  0
   20.5945   -4.3754  -12.3917 O   0  0  0  0  0  0  0  0  0  0  0  0
  2  1  1  1
  2  4  1  0
  3  2  1  0
  4  6  1  0
  4  5  1  6
  6  7  2  0
  8  9  1  0
  8  6  1  0
  9 10  1  1
 11 10  1  0
 12 11  2  0
 13 14  1  0
 13 12  1  0
 14 15  2  0
 15 11  1  0
 16 17  2  0
 16  9  1  0
 18 16  1  0
 19 18  1  0
 20 21  1  0
 19 20  1  6
 21 22  2  0
 23 19  1  0
 23 24  1  0
 25 21  1  0
 26 23  2  0
M  END
$$$$
