THD.pdb
     RDKit          3D

 26 26  0  0  1  0  0  0  0  0999 V2000
   24.5146  -35.6566   -3.0328 C   0  0  0  0  0  0  0  0  0  0  0  0
   25.7251  -35.0041   -3.6176 C   0  0  1  0  0  0  0  0  0  0  0  0
   25.7833  -35.3017   -4.9728 O   0  0  0  0  0  0  0  0  0  0  0  0
   25.6989  -33.4807   -3.5050 C   0  0  2  0  0  0  0  0  0  0  0  0
   26.7324  -32.9555   -4.3502 N   0  0  0  0  0  0  0  0  0  0  0  0
   25.8560  -33.0554   -2.0727 C   0  0  0  0  0  0  0  0  0  0  0  0
   26.9698  -33.2281   -1.5677 O   0  0  0  0  0  0  0  0  0  0  0  0
   24.8073  -32.4937   -1.3403 N   0  0  0  0  0  0  0  0  0  0  0  0
   24.7719  -32.1665    0.0359 C   0  0  1  0  0  0  0  0  0  0  0  0
   23.5609  -31.3802    0.5147 C   0  0  0  0  0  0  0  0  0  0  0  0
   23.7226  -30.8944    1.8990 C   0  0  0  0  0  0  0  0  0  0  0  0
   24.8595  -30.3999    2.4921 C   0  0  0  0  0  0  0  0  0  0  0  0
   24.5913  -30.1150    3.8005 N   0  0  0  0  0  0  0  0  0  0  0  0
   23.2986  -30.4356    3.9987 C   0  0  0  0  0  0  0  0  0  0  0  0
   22.7793  -30.9052    2.8480 N   0  0  0  0  0  0  0  0  0  0  0  0
   25.2065  -33.2222    0.9584 C   0  0  0  0  0  0  0  0  0  0  0  0
   24.6623  -34.3795    0.8306 O   0  0  0  0  0  0  0  0  0  0  0  0
   26.1643  -33.0721    1.9647 N   0  0  0  0  0  0  0  0  0  0  0  0
   26.5903  -34.1489    2.8788 C   0  0  1  0  0  0  0  0  0  0  0  0
   27.9582  -33.8480    3.4259 C   0  0  0  0  0  0  0  0  0  0  0  0
   29.0259  -34.3692    2.5495 C   0  0  0  0  0  0  0  0  0  0  0  0
   29.2169  -35.5775    2.2626 O   0  0  0  0  0  0  0  0  0  0  0  0
   25.6219  -34.1326    4.0000 C   0  0  0  0  0  0  0  0  0  0  0  0
   24.5793  -33.1938    3.9631 O   0  0  0  0  0  0  0  0  0  0  0  0
   29.9538  -33.4941    1.9428 O   0  0  0  0  0  0  0  0  0  0  0  0
   25.6480  -34.8883    4.9901 O   0  0  0  0  0  0  0  0  0  0  0  0
  2  1  1  6
  2  4  1  0
  3  2  1  0
  4  6  1  0
  4  5  1  6
  6  7  2  0
  8  9  1  0
  8  6  1  0
  9 10  1  1
 11 10  1  0
 12 11  2  0
 13 14  1  0
 13 12  1  0
 14 15  2  0
 15 11  1  0
 16 17  2  0
 16  9  1  0
 18 16  1  0
 19 18  1  0
 20 21  1  0
 19 20  1  1
 21 22  2  0
 23 19  1  0
 23 24  1  0
 25 21  1  0
 26 23  2  0
M  END
$$$$
