THD.pdb
     RDKit          3D

 26 26  0  0  1  0  0  0  0  0999 V2000
   23.4736  -10.1024  -23.2074 C   0  0  0  0  0  0  0  0  0  0  0  0
   23.4242   -9.7232  -21.7627 C   0  0  1  0  0  0  0  0  0  0  0  0
   22.1270   -9.8969  -21.2985 O   0  0  0  0  0  0  0  0  0  0  0  0
   24.3234  -10.5908  -20.8837 C   0  0  2  0  0  0  0  0  0  0  0  0
   23.8779  -11.9498  -20.9982 N   0  0  0  0  0  0  0  0  0  0  0  0
   24.3070  -10.0980  -19.4646 C   0  0  0  0  0  0  0  0  0  0  0  0
   23.3792  -10.4990  -18.7548 O   0  0  0  0  0  0  0  0  0  0  0  0
   25.2822   -9.2329  -18.9622 N   0  0  0  0  0  0  0  0  0  0  0  0
   25.3484   -8.6291  -17.6843 C   0  0  1  0  0  0  0  0  0  0  0  0
   26.7009   -8.6609  -16.9888 C   0  0  0  0  0  0  0  0  0  0  0  0
   27.1543  -10.0382  -16.7128 C   0  0  0  0  0  0  0  0  0  0  0  0
   26.4698  -11.2105  -16.9269 C   0  0  0  0  0  0  0  0  0  0  0  0
   27.2275  -12.2561  -16.4824 N   0  0  0  0  0  0  0  0  0  0  0  0
   28.3650  -11.7196  -16.0014 C   0  0  0  0  0  0  0  0  0  0  0  0
   28.3155  -10.3810  -16.1430 N   0  0  0  0  0  0  0  0  0  0  0  0
   24.6252   -7.3606  -17.5351 C   0  0  0  0  0  0  0  0  0  0  0  0
   24.9867   -6.3824  -18.2863 O   0  0  0  0  0  0  0  0  0  0  0  0
   23.5750   -7.1292  -16.6429 N   0  0  0  0  0  0  0  0  0  0  0  0
   22.8107   -5.8698  -16.5620 C   0  0  1  0  0  0  0  0  0  0  0  0
   21.3494   -6.1665  -16.3684 C   0  0  0  0  0  0  0  0  0  0  0  0
   20.5594   -4.9332  -16.1833 C   0  0  0  0  0  0  0  0  0  0  0  0
   20.9755   -3.7606  -16.3582 O   0  0  0  0  0  0  0  0  0  0  0  0
   23.3120   -5.1707  -15.3557 C   0  0  0  0  0  0  0  0  0  0  0  0
   24.1900   -5.8605  -14.5054 O   0  0  0  0  0  0  0  0  0  0  0  0
   19.2088   -4.9951  -15.7748 O   0  0  0  0  0  0  0  0  0  0  0  0
   23.0210   -4.0067  -15.0203 O   0  0  0  0  0  0  0  0  0  0  0  0
  2  1  1  6
  2  4  1  0
  3  2  1  0
  4  6  1  0
  4  5  1  1
  6  7  2  0
  8  9  1  0
  8  6  1  0
  9 10  1  6
 11 10  1  0
 12 11  2  0
 13 14  1  0
 13 12  1  0
 14 15  2  0
 15 11  1  0
 16 17  2  0
 16  9  1  0
 18 16  1  0
 19 18  1  0
 20 21  1  0
 19 20  1  1
 21 22  2  0
 23 19  1  0
 23 24  1  0
 25 21  1  0
 26 23  2  0
M  END
$$$$
