THD.pdb
     RDKit          3D

 26 26  0  0  1  0  0  0  0  0999 V2000
   27.7665  -11.8119  -15.8050 C   0  0  0  0  0  0  0  0  0  0  0  0
   26.6209  -10.8746  -16.0112 C   0  0  1  0  0  0  0  0  0  0  0  0
   26.9825   -9.9279  -16.9607 O   0  0  0  0  0  0  0  0  0  0  0  0
   25.3664  -11.5677  -16.5401 C   0  0  2  0  0  0  0  0  0  0  0  0
   25.6939  -12.1804  -17.7955 N   0  0  0  0  0  0  0  0  0  0  0  0
   24.2328  -10.5889  -16.6564 C   0  0  0  0  0  0  0  0  0  0  0  0
   23.9387  -10.2225  -17.7987 O   0  0  0  0  0  0  0  0  0  0  0  0
   23.5402  -10.1110  -15.5412 N   0  0  0  0  0  0  0  0  0  0  0  0
   22.3944   -9.2815  -15.5063 C   0  0  1  0  0  0  0  0  0  0  0  0
   21.1339   -9.8916  -14.9124 C   0  0  0  0  0  0  0  0  0  0  0  0
   20.7122  -11.1105  -15.6300 C   0  0  0  0  0  0  0  0  0  0  0  0
   20.3217  -11.2241  -16.9427 C   0  0  0  0  0  0  0  0  0  0  0  0
   19.9596  -12.5176  -17.1893 N   0  0  0  0  0  0  0  0  0  0  0  0
   20.1298  -13.1839  -16.0316 C   0  0  0  0  0  0  0  0  0  0  0  0
   20.5842  -12.3301  -15.0942 N   0  0  0  0  0  0  0  0  0  0  0  0
   22.6248   -7.8838  -15.1219 C   0  0  0  0  0  0  0  0  0  0  0  0
   23.1751   -7.6679  -13.9807 O   0  0  0  0  0  0  0  0  0  0  0  0
   22.2947   -6.7680  -15.8956 N   0  0  0  0  0  0  0  0  0  0  0  0
   22.5350   -5.3701  -15.4894 C   0  0  1  0  0  0  0  0  0  0  0  0
   22.2023   -4.4406  -16.6235 C   0  0  0  0  0  0  0  0  0  0  0  0
   22.4092   -3.0268  -16.2523 C   0  0  0  0  0  0  0  0  0  0  0  0
   21.5083   -2.2113  -15.9327 O   0  0  0  0  0  0  0  0  0  0  0  0
   21.5950   -5.1068  -14.3749 C   0  0  0  0  0  0  0  0  0  0  0  0
   21.9250   -4.1028  -13.4514 O   0  0  0  0  0  0  0  0  0  0  0  0
   23.7061   -2.4679  -16.2311 O   0  0  0  0  0  0  0  0  0  0  0  0
   20.5200   -5.7048  -14.1780 O   0  0  0  0  0  0  0  0  0  0  0  0
  2  1  1  6
  2  4  1  0
  3  2  1  0
  4  6  1  0
  4  5  1  6
  6  7  2  0
  8  9  1  0
  8  6  1  0
  9 10  1  1
 11 10  1  0
 12 11  2  0
 13 14  1  0
 13 12  1  0
 14 15  2  0
 15 11  1  0
 16 17  2  0
 16  9  1  0
 18 16  1  0
 19 18  1  0
 20 21  1  0
 19 20  1  6
 21 22  2  0
 23 19  1  0
 23 24  1  0
 25 21  1  0
 26 23  2  0
M  END
$$$$
