THD.pdb
     RDKit          3D

 26 26  0  0  1  0  0  0  0  0999 V2000
   28.3736  -11.5633  -15.9328 C   0  0  0  0  0  0  0  0  0  0  0  0
   27.0406  -10.8985  -16.0537 C   0  0  1  0  0  0  0  0  0  0  0  0
   27.2187   -9.6351  -16.6022 O   0  0  0  0  0  0  0  0  0  0  0  0
   26.0796  -11.6449  -16.9774 C   0  0  2  0  0  0  0  0  0  0  0  0
   26.6713  -11.6990  -18.2833 N   0  0  0  0  0  0  0  0  0  0  0  0
   24.7321  -10.9807  -16.9838 C   0  0  0  0  0  0  0  0  0  0  0  0
   24.5510  -10.1146  -17.8456 O   0  0  0  0  0  0  0  0  0  0  0  0
   23.7293  -11.3151  -16.0704 N   0  0  0  0  0  0  0  0  0  0  0  0
   22.4238  -10.7803  -15.9625 C   0  0  1  0  0  0  0  0  0  0  0  0
   21.3017  -11.7766  -15.7127 C   0  0  0  0  0  0  0  0  0  0  0  0
   19.9778  -11.1257  -15.6654 C   0  0  0  0  0  0  0  0  0  0  0  0
   19.1662  -10.9429  -14.5714 C   0  0  0  0  0  0  0  0  0  0  0  0
   18.0051  -10.3466  -14.9730 N   0  0  0  0  0  0  0  0  0  0  0  0
   18.1130  -10.1693  -16.3035 C   0  0  0  0  0  0  0  0  0  0  0  0
   19.3053  -10.6412  -16.7160 N   0  0  0  0  0  0  0  0  0  0  0  0
   22.3018   -9.5330  -15.1984 C   0  0  0  0  0  0  0  0  0  0  0  0
   23.0550   -9.3965  -14.1660 O   0  0  0  0  0  0  0  0  0  0  0  0
   21.4333   -8.4812  -15.5017 N   0  0  0  0  0  0  0  0  0  0  0  0
   21.3352   -7.2299  -14.7262 C   0  0  1  0  0  0  0  0  0  0  0  0
   22.3286   -6.2260  -15.2420 C   0  0  0  0  0  0  0  0  0  0  0  0
   22.2089   -4.9292  -14.5467 C   0  0  0  0  0  0  0  0  0  0  0  0
   21.5037   -4.7016  -13.5319 O   0  0  0  0  0  0  0  0  0  0  0  0
   19.9701   -6.7092  -14.9722 C   0  0  0  0  0  0  0  0  0  0  0  0
   19.1927   -6.3355  -13.8651 O   0  0  0  0  0  0  0  0  0  0  0  0
   22.9193   -3.7968  -15.0026 O   0  0  0  0  0  0  0  0  0  0  0  0
   19.4391   -6.5699  -16.0905 O   0  0  0  0  0  0  0  0  0  0  0  0
  2  1  1  6
  2  4  1  0
  3  2  1  0
  4  6  1  0
  4  5  1  6
  6  7  2  0
  8  9  1  0
  8  6  1  0
  9 10  1  1
 11 10  1  0
 12 11  2  0
 13 14  1  0
 13 12  1  0
 14 15  2  0
 15 11  1  0
 16 17  2  0
 16  9  1  0
 18 16  1  0
 19 18  1  0
 20 21  1  0
 19 20  1  6
 21 22  2  0
 23 19  1  0
 23 24  1  0
 25 21  1  0
 26 23  2  0
M  END
$$$$
