THD.pdb
     RDKit          3D

 26 26  0  0  1  0  0  0  0  0999 V2000
   16.4071  -13.7101  -16.1198 C   0  0  0  0  0  0  0  0  0  0  0  0
   16.0748  -12.3603  -15.5712 C   0  0  1  0  0  0  0  0  0  0  0  0
   16.2718  -12.3749  -14.1966 O   0  0  0  0  0  0  0  0  0  0  0  0
   16.9643  -11.2505  -16.1289 C   0  0  2  0  0  0  0  0  0  0  0  0
   18.3273  -11.5791  -15.8243 N   0  0  0  0  0  0  0  0  0  0  0  0
   16.5558   -9.9170  -15.5706 C   0  0  0  0  0  0  0  0  0  0  0  0
   15.3697   -9.6028  -15.7117 O   0  0  0  0  0  0  0  0  0  0  0  0
   17.4585   -9.0687  -14.9245 N   0  0  0  0  0  0  0  0  0  0  0  0
   17.2645   -7.7300  -14.5092 C   0  0  1  0  0  0  0  0  0  0  0  0
   17.4972   -7.4373  -13.0347 C   0  0  0  0  0  0  0  0  0  0  0  0
   16.6957   -8.3138  -12.1585 C   0  0  0  0  0  0  0  0  0  0  0  0
   17.1484   -9.2448  -11.2545 C   0  0  0  0  0  0  0  0  0  0  0  0
   16.0767   -9.8770  -10.6917 N   0  0  0  0  0  0  0  0  0  0  0  0
   14.9805   -9.3317  -11.2522 C   0  0  0  0  0  0  0  0  0  0  0  0
   15.3598   -8.3890  -12.1364 N   0  0  0  0  0  0  0  0  0  0  0  0
   17.7770   -6.6957  -15.4158 C   0  0  0  0  0  0  0  0  0  0  0  0
   19.0324   -6.7194  -15.6899 O   0  0  0  0  0  0  0  0  0  0  0  0
   17.0112   -5.6867  -16.0058 N   0  0  0  0  0  0  0  0  0  0  0  0
   17.5598   -4.6078  -16.8494 C   0  0  1  0  0  0  0  0  0  0  0  0
   16.4470   -3.9131  -17.5842 C   0  0  0  0  0  0  0  0  0  0  0  0
   16.9532   -2.8256  -18.4448 C   0  0  0  0  0  0  0  0  0  0  0  0
   16.8078   -1.5951  -18.2362 O   0  0  0  0  0  0  0  0  0  0  0  0
   18.1807   -3.6408  -15.9141 C   0  0  0  0  0  0  0  0  0  0  0  0
   18.9834   -2.6215  -16.4492 O   0  0  0  0  0  0  0  0  0  0  0  0
   17.6745   -3.1142  -19.6243 O   0  0  0  0  0  0  0  0  0  0  0  0
   18.0540   -3.6491  -14.6748 O   0  0  0  0  0  0  0  0  0  0  0  0
  2  1  1  6
  2  4  1  0
  3  2  1  0
  4  6  1  0
  4  5  1  1
  6  7  2  0
  8  9  1  0
  8  6  1  0
  9 10  1  1
 11 10  1  0
 12 11  2  0
 13 14  1  0
 13 12  1  0
 14 15  2  0
 15 11  1  0
 16 17  2  0
 16  9  1  0
 18 16  1  0
 19 18  1  0
 20 21  1  0
 19 20  1  1
 21 22  2  0
 23 19  1  0
 23 24  1  0
 25 21  1  0
 26 23  2  0
M  END
$$$$
