THD.pdb
     RDKit          3D

 26 26  0  0  1  0  0  0  0  0999 V2000
   25.4597   -6.9358  -19.1404 C   0  0  0  0  0  0  0  0  0  0  0  0
   25.5568   -8.4243  -19.0485 C   0  0  1  0  0  0  0  0  0  0  0  0
   26.8588   -8.8069  -19.3431 O   0  0  0  0  0  0  0  0  0  0  0  0
   25.2487   -8.9604  -17.6515 C   0  0  2  0  0  0  0  0  0  0  0  0
   25.5513  -10.3628  -17.6377 N   0  0  0  0  0  0  0  0  0  0  0  0
   23.8207   -8.6766  -17.2812 C   0  0  0  0  0  0  0  0  0  0  0  0
   22.9555   -9.2460  -17.9540 O   0  0  0  0  0  0  0  0  0  0  0  0
   23.4762   -7.8175  -16.2347 N   0  0  0  0  0  0  0  0  0  0  0  0
   22.1854   -7.4362  -15.7984 C   0  0  1  0  0  0  0  0  0  0  0  0
   21.7963   -7.8522  -14.3879 C   0  0  0  0  0  0  0  0  0  0  0  0
   21.7300   -9.3189  -14.2369 C   0  0  0  0  0  0  0  0  0  0  0  0
   22.6467  -10.1474  -13.6351 C   0  0  0  0  0  0  0  0  0  0  0  0
   22.2282  -11.4412  -13.7617 N   0  0  0  0  0  0  0  0  0  0  0  0
   21.0640  -11.3964  -14.4369 C   0  0  0  0  0  0  0  0  0  0  0  0
   20.7681  -10.1135  -14.7210 N   0  0  0  0  0  0  0  0  0  0  0  0
   21.7578   -6.0808  -16.1651 C   0  0  0  0  0  0  0  0  0  0  0  0
   22.3239   -5.0985  -15.5597 O   0  0  0  0  0  0  0  0  0  0  0  0
   20.7853   -5.7706  -17.1193 N   0  0  0  0  0  0  0  0  0  0  0  0
   20.3554   -4.4005  -17.4580 C   0  0  1  0  0  0  0  0  0  0  0  0
   19.6353   -4.3990  -18.7780 C   0  0  0  0  0  0  0  0  0  0  0  0
   19.1854   -3.0445  -19.1555 C   0  0  0  0  0  0  0  0  0  0  0  0
   18.2399   -2.4095  -18.6247 O   0  0  0  0  0  0  0  0  0  0  0  0
   19.3970   -4.0054  -16.3995 C   0  0  0  0  0  0  0  0  0  0  0  0
   19.3883   -2.6667  -15.9781 O   0  0  0  0  0  0  0  0  0  0  0  0
   19.8245   -2.3348  -20.1960 O   0  0  0  0  0  0  0  0  0  0  0  0
   18.5840   -4.7648  -15.8389 O   0  0  0  0  0  0  0  0  0  0  0  0
  2  1  1  1
  2  4  1  0
  3  2  1  0
  4  6  1  0
  4  5  1  6
  6  7  2  0
  8  9  1  0
  8  6  1  0
  9 10  1  1
 11 10  1  0
 12 11  2  0
 13 14  1  0
 13 12  1  0
 14 15  2  0
 15 11  1  0
 16 17  2  0
 16  9  1  0
 18 16  1  0
 19 18  1  0
 20 21  1  0
 19 20  1  6
 21 22  2  0
 23 19  1  0
 23 24  1  0
 25 21  1  0
 26 23  2  0
M  END
$$$$
