THD.pdb
     RDKit          3D

 26 26  0  0  1  0  0  0  0  0999 V2000
   18.7099   -8.7647  -21.5198 C   0  0  0  0  0  0  0  0  0  0  0  0
   17.6446   -9.8060  -21.4005 C   0  0  1  0  0  0  0  0  0  0  0  0
   17.5988  -10.5366  -22.5806 O   0  0  0  0  0  0  0  0  0  0  0  0
   17.9071  -10.8066  -20.2763 C   0  0  2  0  0  0  0  0  0  0  0  0
   16.8782  -11.8056  -20.3223 N   0  0  0  0  0  0  0  0  0  0  0  0
   17.9680  -10.1046  -18.9495 C   0  0  0  0  0  0  0  0  0  0  0  0
   16.8941   -9.7001  -18.4926 O   0  0  0  0  0  0  0  0  0  0  0  0
   19.1674   -9.9132  -18.2593 N   0  0  0  0  0  0  0  0  0  0  0  0
   19.3883   -9.1901  -17.0633 C   0  0  1  0  0  0  0  0  0  0  0  0
   20.3387   -9.8197  -16.0562 C   0  0  0  0  0  0  0  0  0  0  0  0
   20.3931   -9.0620  -14.7908 C   0  0  0  0  0  0  0  0  0  0  0  0
   21.3791   -8.2062  -14.3616 C   0  0  0  0  0  0  0  0  0  0  0  0
   21.0661   -7.7579  -13.1102 N   0  0  0  0  0  0  0  0  0  0  0  0
   19.8964   -8.3394  -12.7831 C   0  0  0  0  0  0  0  0  0  0  0  0
   19.4948   -9.1251  -13.8008 N   0  0  0  0  0  0  0  0  0  0  0  0
   19.5435   -7.7379  -17.2101 C   0  0  0  0  0  0  0  0  0  0  0  0
   20.4632   -7.3192  -18.0044 O   0  0  0  0  0  0  0  0  0  0  0  0
   18.7726   -6.7726  -16.5570 N   0  0  0  0  0  0  0  0  0  0  0  0
   18.9765   -5.3168  -16.6823 C   0  0  1  0  0  0  0  0  0  0  0  0
   17.6704   -4.5964  -16.4925 C   0  0  0  0  0  0  0  0  0  0  0  0
   16.8189   -4.6788  -17.6956 C   0  0  0  0  0  0  0  0  0  0  0  0
   17.2175   -4.6030  -18.8848 O   0  0  0  0  0  0  0  0  0  0  0  0
   19.8861   -4.9403  -15.5750 C   0  0  0  0  0  0  0  0  0  0  0  0
   20.9603   -4.0834  -15.8606 O   0  0  0  0  0  0  0  0  0  0  0  0
   15.4227   -4.8584  -17.5814 O   0  0  0  0  0  0  0  0  0  0  0  0
   19.7839   -5.3207  -14.3932 O   0  0  0  0  0  0  0  0  0  0  0  0
  2  1  1  6
  2  4  1  0
  3  2  1  0
  4  6  1  0
  4  5  1  1
  6  7  2  0
  8  9  1  0
  8  6  1  0
  9 10  1  6
 11 10  1  0
 12 11  2  0
 13 14  1  0
 13 12  1  0
 14 15  2  0
 15 11  1  0
 16 17  2  0
 16  9  1  0
 18 16  1  0
 19 18  1  0
 20 21  1  0
 19 20  1  1
 21 22  2  0
 23 19  1  0
 23 24  1  0
 25 21  1  0
 26 23  2  0
M  END
$$$$
