THD.pdb
     RDKit          3D

 26 26  0  0  1  0  0  0  0  0999 V2000
   18.6821  -12.6334  -18.2118 C   0  0  0  0  0  0  0  0  0  0  0  0
   19.4222  -11.6537  -17.3598 C   0  0  1  0  0  0  0  0  0  0  0  0
   18.8479  -11.6367  -16.0956 O   0  0  0  0  0  0  0  0  0  0  0  0
   20.8934  -12.0175  -17.1673 C   0  0  2  0  0  0  0  0  0  0  0  0
   20.9539  -13.3235  -16.5763 N   0  0  0  0  0  0  0  0  0  0  0  0
   21.5890  -10.9774  -16.3358 C   0  0  0  0  0  0  0  0  0  0  0  0
   21.2373  -10.8932  -15.1548 O   0  0  0  0  0  0  0  0  0  0  0  0
   22.5816  -10.1442  -16.8576 N   0  0  0  0  0  0  0  0  0  0  0  0
   23.2234   -9.0459  -16.2380 C   0  0  1  0  0  0  0  0  0  0  0  0
   24.7234   -8.9242  -16.4597 C   0  0  0  0  0  0  0  0  0  0  0  0
   25.4521  -10.1308  -16.0221 C   0  0  0  0  0  0  0  0  0  0  0  0
   24.9447  -11.2384  -15.3859 C   0  0  0  0  0  0  0  0  0  0  0  0
   25.9671  -12.1005  -15.1093 N   0  0  0  0  0  0  0  0  0  0  0  0
   27.0880  -11.5178  -15.5754 C   0  0  0  0  0  0  0  0  0  0  0  0
   26.7714  -10.3296  -16.1253 N   0  0  0  0  0  0  0  0  0  0  0  0
   22.5024   -7.7684  -16.2887 C   0  0  0  0  0  0  0  0  0  0  0  0
   22.2798   -7.2612  -17.4484 O   0  0  0  0  0  0  0  0  0  0  0  0
   22.0376   -7.0582  -15.1787 N   0  0  0  0  0  0  0  0  0  0  0  0
   21.3502   -5.7547  -15.2499 C   0  0  1  0  0  0  0  0  0  0  0  0
   19.9917   -5.8542  -14.6131 C   0  0  0  0  0  0  0  0  0  0  0  0
   19.2834   -4.5590  -14.6271 C   0  0  0  0  0  0  0  0  0  0  0  0
   19.6099   -3.5501  -15.3010 O   0  0  0  0  0  0  0  0  0  0  0  0
   22.1761   -4.8192  -14.4513 C   0  0  0  0  0  0  0  0  0  0  0  0
   21.9414   -3.4424  -14.5900 O   0  0  0  0  0  0  0  0  0  0  0  0
   18.1279   -4.3590  -13.8400 O   0  0  0  0  0  0  0  0  0  0  0  0
   23.0755   -5.1472  -13.6542 O   0  0  0  0  0  0  0  0  0  0  0  0
  2  1  1  6
  2  4  1  0
  3  2  1  0
  4  6  1  0
  4  5  1  1
  6  7  2  0
  8  9  1  0
  8  6  1  0
  9 10  1  6
 11 10  1  0
 12 11  2  0
 13 14  1  0
 13 12  1  0
 14 15  2  0
 15 11  1  0
 16 17  2  0
 16  9  1  0
 18 16  1  0
 19 18  1  0
 20 21  1  0
 19 20  1  1
 21 22  2  0
 23 19  1  0
 23 24  1  0
 25 21  1  0
 26 23  2  0
M  END
$$$$
