THD.pdb
     RDKit          3D

 26 26  0  0  1  0  0  0  0  0999 V2000
   28.2368  -12.3159  -15.3013 C   0  0  0  0  0  0  0  0  0  0  0  0
   26.9476  -11.6326  -15.6242 C   0  0  1  0  0  0  0  0  0  0  0  0
   27.1632  -10.7388  -16.6649 O   0  0  0  0  0  0  0  0  0  0  0  0
   25.8590  -12.5963  -16.0936 C   0  0  2  0  0  0  0  0  0  0  0  0
   26.3469  -13.2860  -17.2533 N   0  0  0  0  0  0  0  0  0  0  0  0
   24.5793  -11.8562  -16.3608 C   0  0  0  0  0  0  0  0  0  0  0  0
   24.4771  -11.3183  -17.4679 O   0  0  0  0  0  0  0  0  0  0  0  0
   23.5526  -11.7731  -15.4171 N   0  0  0  0  0  0  0  0  0  0  0  0
   22.3436  -11.0420  -15.4946 C   0  0  1  0  0  0  0  0  0  0  0  0
   21.0613  -11.8259  -15.2598 C   0  0  0  0  0  0  0  0  0  0  0  0
   19.8574  -11.0380  -15.5890 C   0  0  0  0  0  0  0  0  0  0  0  0
   19.3301  -10.7826  -16.8322 C   0  0  0  0  0  0  0  0  0  0  0  0
   18.2431   -9.9673  -16.6960 N   0  0  0  0  0  0  0  0  0  0  0  0
   18.1128   -9.7300  -15.3770 C   0  0  0  0  0  0  0  0  0  0  0  0
   19.0893  -10.3786  -14.7137 N   0  0  0  0  0  0  0  0  0  0  0  0
   22.3569   -9.7113  -14.8754 C   0  0  0  0  0  0  0  0  0  0  0  0
   22.9410   -9.5954  -13.7364 O   0  0  0  0  0  0  0  0  0  0  0  0
   21.7865   -8.5593  -15.4232 N   0  0  0  0  0  0  0  0  0  0  0  0
   21.8590   -7.2194  -14.8099 C   0  0  1  0  0  0  0  0  0  0  0  0
   22.2446   -6.1999  -15.8457 C   0  0  0  0  0  0  0  0  0  0  0  0
   22.2748   -4.8341  -15.2861 C   0  0  0  0  0  0  0  0  0  0  0  0
   22.0677   -4.5271  -14.0854 O   0  0  0  0  0  0  0  0  0  0  0  0
   20.4869   -6.9162  -14.3402 C   0  0  0  0  0  0  0  0  0  0  0  0
   19.4616   -6.8330  -15.2949 O   0  0  0  0  0  0  0  0  0  0  0  0
   22.5541   -3.7218  -16.1104 O   0  0  0  0  0  0  0  0  0  0  0  0
   20.1533   -6.7246  -13.1553 O   0  0  0  0  0  0  0  0  0  0  0  0
  2  1  1  6
  2  4  1  0
  3  2  1  0
  4  6  1  0
  4  5  1  6
  6  7  2  0
  8  9  1  0
  8  6  1  0
  9 10  1  1
 11 10  1  0
 12 11  2  0
 13 14  1  0
 13 12  1  0
 14 15  2  0
 15 11  1  0
 16 17  2  0
 16  9  1  0
 18 16  1  0
 19 18  1  0
 20 21  1  0
 19 20  1  6
 21 22  2  0
 23 19  1  0
 23 24  1  0
 25 21  1  0
 26 23  2  0
M  END
$$$$
