THD.pdb
     RDKit          3D

 26 26  0  0  1  0  0  0  0  0999 V2000
   24.3924   -5.1118  -19.0732 C   0  0  0  0  0  0  0  0  0  0  0  0
   24.5438   -6.3979  -19.8192 C   0  0  1  0  0  0  0  0  0  0  0  0
   25.7608   -6.3867  -20.4880 O   0  0  0  0  0  0  0  0  0  0  0  0
   24.5574   -7.6228  -18.9065 C   0  0  2  0  0  0  0  0  0  0  0  0
   24.8531   -8.7729  -19.7117 N   0  0  0  0  0  0  0  0  0  0  0  0
   23.2499   -7.7517  -18.1780 C   0  0  0  0  0  0  0  0  0  0  0  0
   22.2384   -7.8547  -18.8794 O   0  0  0  0  0  0  0  0  0  0  0  0
   23.1683   -7.7564  -16.7833 N   0  0  0  0  0  0  0  0  0  0  0  0
   22.0156   -7.6520  -15.9693 C   0  0  1  0  0  0  0  0  0  0  0  0
   22.1586   -8.1193  -14.5288 C   0  0  0  0  0  0  0  0  0  0  0  0
   20.8514   -8.2886  -13.8646 C   0  0  0  0  0  0  0  0  0  0  0  0
   19.6035   -8.0349  -14.3814 C   0  0  0  0  0  0  0  0  0  0  0  0
   18.6656   -8.2719  -13.4173 N   0  0  0  0  0  0  0  0  0  0  0  0
   19.3423   -8.6670  -12.3223 C   0  0  0  0  0  0  0  0  0  0  0  0
   20.6608   -8.6754  -12.5978 N   0  0  0  0  0  0  0  0  0  0  0  0
   21.2265   -6.4245  -16.1278 C   0  0  0  0  0  0  0  0  0  0  0  0
   21.7793   -5.3176  -15.7799 O   0  0  0  0  0  0  0  0  0  0  0  0
   19.9227   -6.3608  -16.6265 N   0  0  0  0  0  0  0  0  0  0  0  0
   19.1378   -5.1181  -16.7539 C   0  0  1  0  0  0  0  0  0  0  0  0
   18.1064   -5.2701  -17.8375 C   0  0  0  0  0  0  0  0  0  0  0  0
   18.6919   -5.0906  -19.1808 C   0  0  0  0  0  0  0  0  0  0  0  0
   19.8563   -4.6879  -19.4272 O   0  0  0  0  0  0  0  0  0  0  0  0
   18.4376   -4.9489  -15.4592 C   0  0  0  0  0  0  0  0  0  0  0  0
   18.5158   -3.7017  -14.8203 O   0  0  0  0  0  0  0  0  0  0  0  0
   17.9388   -5.3761  -20.3410 O   0  0  0  0  0  0  0  0  0  0  0  0
   17.7743   -5.8267  -14.8749 O   0  0  0  0  0  0  0  0  0  0  0  0
  2  1  1  1
  2  4  1  0
  3  2  1  0
  4  6  1  0
  4  5  1  6
  6  7  2  0
  8  9  1  0
  8  6  1  0
  9 10  1  1
 11 10  1  0
 12 11  2  0
 13 14  1  0
 13 12  1  0
 14 15  2  0
 15 11  1  0
 16 17  2  0
 16  9  1  0
 18 16  1  0
 19 18  1  0
 20 21  1  0
 19 20  1  6
 21 22  2  0
 23 19  1  0
 23 24  1  0
 25 21  1  0
 26 23  2  0
M  END
$$$$
