THD.pdb
     RDKit          3D

 26 26  0  0  1  0  0  0  0  0999 V2000
   22.5008   -9.3291  -21.1974 C   0  0  0  0  0  0  0  0  0  0  0  0
   21.9501  -10.7143  -21.3040 C   0  0  1  0  0  0  0  0  0  0  0  0
   22.6319  -11.3909  -22.3070 O   0  0  0  0  0  0  0  0  0  0  0  0
   22.1292  -11.5311  -20.0255 C   0  0  2  0  0  0  0  0  0  0  0  0
   21.7201  -12.8788  -20.2991 N   0  0  0  0  0  0  0  0  0  0  0  0
   21.3572  -10.9145  -18.8938 C   0  0  0  0  0  0  0  0  0  0  0  0
   20.1262  -10.9810  -18.9684 O   0  0  0  0  0  0  0  0  0  0  0  0
   21.9853  -10.2963  -17.8097 N   0  0  0  0  0  0  0  0  0  0  0  0
   21.3917   -9.6163  -16.7201 C   0  0  1  0  0  0  0  0  0  0  0  0
   21.7600  -10.1121  -15.3299 C   0  0  0  0  0  0  0  0  0  0  0  0
   20.9913   -9.4283  -14.2716 C   0  0  0  0  0  0  0  0  0  0  0  0
   21.3999   -8.3902  -13.4690 C   0  0  0  0  0  0  0  0  0  0  0  0
   20.4026   -8.0915  -12.5851 N   0  0  0  0  0  0  0  0  0  0  0  0
   19.3953   -8.9445  -12.8511 C   0  0  0  0  0  0  0  0  0  0  0  0
   19.7558   -9.7488  -13.8696 N   0  0  0  0  0  0  0  0  0  0  0  0
   21.3189   -8.1550  -16.8376 C   0  0  0  0  0  0  0  0  0  0  0  0
   22.4101   -7.5282  -17.0990 O   0  0  0  0  0  0  0  0  0  0  0  0
   20.1598   -7.3891  -16.6888 N   0  0  0  0  0  0  0  0  0  0  0  0
   20.1172   -5.9163  -16.7643 C   0  0  1  0  0  0  0  0  0  0  0  0
   18.8859   -5.4747  -17.5060 C   0  0  0  0  0  0  0  0  0  0  0  0
   18.7554   -4.0044  -17.5254 C   0  0  0  0  0  0  0  0  0  0  0  0
   17.7325   -3.3529  -17.1967 O   0  0  0  0  0  0  0  0  0  0  0  0
   20.0169   -5.4434  -15.3638 C   0  0  0  0  0  0  0  0  0  0  0  0
   20.7562   -4.3101  -14.9913 O   0  0  0  0  0  0  0  0  0  0  0  0
   19.8323   -3.1889  -17.9377 O   0  0  0  0  0  0  0  0  0  0  0  0
   19.3251   -5.9681  -14.4704 O   0  0  0  0  0  0  0  0  0  0  0  0
  2  1  1  1
  2  4  1  0
  3  2  1  0
  4  6  1  0
  4  5  1  6
  6  7  2  0
  8  9  1  0
  8  6  1  0
  9 10  1  1
 11 10  1  0
 12 11  2  0
 13 14  1  0
 13 12  1  0
 14 15  2  0
 15 11  1  0
 16 17  2  0
 16  9  1  0
 18 16  1  0
 19 18  1  0
 20 21  1  0
 19 20  1  6
 21 22  2  0
 23 19  1  0
 23 24  1  0
 25 21  1  0
 26 23  2  0
M  END
$$$$
