THD.pdb
     RDKit          3D

 26 26  0  0  1  0  0  0  0  0999 V2000
   17.7030   -9.2553  -17.4490 C   0  0  0  0  0  0  0  0  0  0  0  0
   17.6941  -10.6632  -16.9477 C   0  0  1  0  0  0  0  0  0  0  0  0
   16.8655  -11.4232  -17.7627 O   0  0  0  0  0  0  0  0  0  0  0  0
   19.0715  -11.3228  -16.9873 C   0  0  2  0  0  0  0  0  0  0  0  0
   18.9211  -12.6891  -16.5759 N   0  0  0  0  0  0  0  0  0  0  0  0
   20.0429  -10.5667  -16.1262 C   0  0  0  0  0  0  0  0  0  0  0  0
   19.8533  -10.6207  -14.9069 O   0  0  0  0  0  0  0  0  0  0  0  0
   21.1074   -9.8380  -16.6626 N   0  0  0  0  0  0  0  0  0  0  0  0
   22.0657   -9.0504  -15.9818 C   0  0  1  0  0  0  0  0  0  0  0  0
   23.5220   -9.4532  -16.1570 C   0  0  0  0  0  0  0  0  0  0  0  0
   23.7606  -10.8609  -15.7828 C   0  0  0  0  0  0  0  0  0  0  0  0
   23.8530  -11.9510  -16.6146 C   0  0  0  0  0  0  0  0  0  0  0  0
   24.0238  -13.0751  -15.8583 N   0  0  0  0  0  0  0  0  0  0  0  0
   24.0347  -12.6679  -14.5748 C   0  0  0  0  0  0  0  0  0  0  0  0
   23.8756  -11.3309  -14.5351 N   0  0  0  0  0  0  0  0  0  0  0  0
   21.8362   -7.6007  -16.0010 C   0  0  0  0  0  0  0  0  0  0  0  0
   21.9466   -7.0000  -17.1318 O   0  0  0  0  0  0  0  0  0  0  0  0
   21.5072   -6.8199  -14.8899 N   0  0  0  0  0  0  0  0  0  0  0  0
   21.2633   -5.3655  -14.9347 C   0  0  1  0  0  0  0  0  0  0  0  0
   19.9354   -5.0470  -14.3054 C   0  0  0  0  0  0  0  0  0  0  0  0
   18.8092   -5.4079  -15.1891 C   0  0  0  0  0  0  0  0  0  0  0  0
   18.7204   -5.1395  -16.4134 O   0  0  0  0  0  0  0  0  0  0  0  0
   22.3321   -4.7519  -14.1123 C   0  0  0  0  0  0  0  0  0  0  0  0
   22.4598   -3.3543  -14.1250 O   0  0  0  0  0  0  0  0  0  0  0  0
   17.6963   -6.1183  -14.6875 O   0  0  0  0  0  0  0  0  0  0  0  0
   23.1425   -5.3727  -13.3982 O   0  0  0  0  0  0  0  0  0  0  0  0
  2  1  1  6
  2  4  1  0
  3  2  1  0
  4  6  1  0
  4  5  1  1
  6  7  2  0
  8  9  1  0
  8  6  1  0
  9 10  1  6
 11 10  1  0
 12 11  2  0
 13 14  1  0
 13 12  1  0
 14 15  2  0
 15 11  1  0
 16 17  2  0
 16  9  1  0
 18 16  1  0
 19 18  1  0
 20 21  1  0
 19 20  1  1
 21 22  2  0
 23 19  1  0
 23 24  1  0
 25 21  1  0
 26 23  2  0
M  END
$$$$
