KHI.pdb
     RDKit          3D

 28 28  0  0  1  0  0  0  0  0999 V2000
    8.5525  -15.6221   18.8737 N   0  0  0  0  0  0  0  0  0  0  0  0
    8.4961  -14.4122   19.6649 C   0  0  1  0  0  0  0  0  0  0  0  0
    7.3374  -13.5822   19.1987 C   0  0  0  0  0  0  0  0  0  0  0  0
    6.9359  -13.9999   17.8183 C   0  0  0  0  0  0  0  0  0  0  0  0
    8.0381  -13.7111   16.8452 C   0  0  0  0  0  0  0  0  0  0  0  0
    7.5939  -14.0047   15.4449 C   0  0  0  0  0  0  0  0  0  0  0  0
    8.6805  -13.6268   14.5554 N   0  0  0  0  0  0  0  0  0  0  0  0
    8.1976  -14.7733   21.1070 C   0  0  0  0  0  0  0  0  0  0  0  0
    8.0675  -13.7914   21.8626 O   0  0  0  0  0  0  0  0  0  0  0  0
    8.0883  -16.1024   21.4961 N   0  0  0  0  0  0  0  0  0  0  0  0
    7.8490  -16.5712   22.8122 C   0  0  1  0  0  0  0  0  0  0  0  0
    7.9059  -18.0738   22.8651 C   0  0  0  0  0  0  0  0  0  0  0  0
    7.4462  -18.5178   24.2116 C   0  0  0  0  0  0  0  0  0  0  0  0
    6.4432  -17.9316   24.9237 C   0  0  0  0  0  0  0  0  0  0  0  0
    6.2780  -18.5794   26.1057 N   0  0  0  0  0  0  0  0  0  0  0  0
    7.1792  -19.5659   26.1232 C   0  0  0  0  0  0  0  0  0  0  0  0
    7.8912  -19.5297   24.9705 N   0  0  0  0  0  0  0  0  0  0  0  0
    8.6151  -15.9106   23.8983 C   0  0  0  0  0  0  0  0  0  0  0  0
    9.8274  -15.7102   23.9645 O   0  0  0  0  0  0  0  0  0  0  0  0
    5.9685  -11.7431   25.9855 C   0  0  0  0  0  0  0  0  0  0  0  0
    6.9948  -12.7487   25.5152 C   0  0  0  0  0  0  0  0  0  0  0  0
    7.5120  -13.6295   26.6122 C   0  0  2  0  0  0  0  0  0  0  0  0
    8.1621  -12.7830   27.6857 C   0  0  0  0  0  0  0  0  0  0  0  0
    8.4227  -14.7229   26.1263 C   0  0  2  0  0  0  0  0  0  0  0  0
    7.8425  -15.4432   25.0175 N   0  0  0  0  0  0  0  0  0  0  0  0
    8.9991  -15.5561   27.1714 C   0  0  0  0  0  0  0  0  0  0  0  0
    9.7989  -15.0550   27.9906 O   0  0  0  0  0  0  0  0  0  0  0  0
    8.6988  -16.8979   27.3021 O   0  0  0  0  0  0  0  0  0  0  0  0
  2  8  1  0
  2  1  1  6
  3  2  1  0
  4  3  1  0
  5  4  1  0
  6  5  1  0
  7  6  1  0
  8  9  2  0
 10 11  1  0
 10  8  1  0
 12 13  1  0
 11 12  1  6
 13 14  2  0
 15 14  1  0
 16 15  1  0
 17 16  2  0
 17 13  1  0
 18 11  1  0
 18 19  2  0
 20 21  1  0
 21 22  1  0
 22 24  1  0
 22 23  1  1
 24 25  1  6
 24 26  1  0
 25 18  1  0
 26 27  2  0
 26 28  1  0
M  END
$$$$
