KHI.pdb
     RDKit          3D

 28 28  0  0  1  0  0  0  0  0999 V2000
    9.3776  -18.5586   19.9298 N   0  0  0  0  0  0  0  0  0  0  0  0
    8.6057  -18.1051   21.0663 C   0  0  1  0  0  0  0  0  0  0  0  0
    8.9954  -18.9112   22.2692 C   0  0  0  0  0  0  0  0  0  0  0  0
    8.8552  -20.3714   21.9697 C   0  0  0  0  0  0  0  0  0  0  0  0
    8.2340  -21.0844   23.1320 C   0  0  0  0  0  0  0  0  0  0  0  0
    7.9591  -22.5156   22.7853 C   0  0  0  0  0  0  0  0  0  0  0  0
    7.3449  -23.1351   23.9488 N   0  0  0  0  0  0  0  0  0  0  0  0
    8.9825  -16.6713   21.3846 C   0  0  0  0  0  0  0  0  0  0  0  0
   10.2070  -16.4819   21.5133 O   0  0  0  0  0  0  0  0  0  0  0  0
    8.0041  -15.6930   21.5095 N   0  0  0  0  0  0  0  0  0  0  0  0
    8.2224  -14.3271   21.8187 C   0  0  1  0  0  0  0  0  0  0  0  0
    7.2939  -13.4435   21.0305 C   0  0  0  0  0  0  0  0  0  0  0  0
    7.6500  -13.5507   19.5872 C   0  0  0  0  0  0  0  0  0  0  0  0
    8.4381  -12.6672   18.9125 C   0  0  0  0  0  0  0  0  0  0  0  0
    8.5626  -13.0569   17.6176 N   0  0  0  0  0  0  0  0  0  0  0  0
    7.8513  -14.1812   17.4929 C   0  0  0  0  0  0  0  0  0  0  0  0
    7.2951  -14.4832   18.6914 N   0  0  0  0  0  0  0  0  0  0  0  0
    8.2908  -13.9787   23.2598 C   0  0  0  0  0  0  0  0  0  0  0  0
    8.2014  -12.8679   23.7817 O   0  0  0  0  0  0  0  0  0  0  0  0
    5.7030  -12.3144   25.9954 C   0  0  0  0  0  0  0  0  0  0  0  0
    6.9690  -12.9564   25.4750 C   0  0  0  0  0  0  0  0  0  0  0  0
    7.2787  -14.2726   26.1219 C   0  0  2  0  0  0  0  0  0  0  0  0
    7.3094  -14.1096   27.6266 C   0  0  0  0  0  0  0  0  0  0  0  0
    8.5309  -14.9200   25.5982 C   0  0  2  0  0  0  0  0  0  0  0  0
    8.4856  -15.0799   24.1638 N   0  0  0  0  0  0  0  0  0  0  0  0
    8.9753  -16.0923   26.3375 C   0  0  0  0  0  0  0  0  0  0  0  0
    9.3764  -15.9655   27.5143 O   0  0  0  0  0  0  0  0  0  0  0  0
    8.9750  -17.3603   25.7899 O   0  0  0  0  0  0  0  0  0  0  0  0
  2  8  1  0
  2  1  1  6
  3  2  1  0
  4  3  1  0
  5  4  1  0
  6  5  1  0
  7  6  1  0
  8  9  2  0
 10 11  1  0
 10  8  1  0
 12 13  1  0
 11 12  1  1
 13 14  2  0
 15 14  1  0
 16 15  1  0
 17 16  2  0
 17 13  1  0
 18 11  1  0
 18 19  2  0
 20 21  1  0
 21 22  1  0
 22 24  1  0
 22 23  1  1
 24 25  1  6
 24 26  1  0
 25 18  1  0
 26 27  2  0
 26 28  1  0
M  END
$$$$
