KHI.pdb
     RDKit          3D

 28 28  0  0  1  0  0  0  0  0999 V2000
    5.9672  -15.9329   18.9036 N   0  0  0  0  0  0  0  0  0  0  0  0
    7.0605  -15.4193   19.6999 C   0  0  1  0  0  0  0  0  0  0  0  0
    6.9424  -13.9265   19.7791 C   0  0  0  0  0  0  0  0  0  0  0  0
    7.2794  -13.3189   18.4530 C   0  0  0  0  0  0  0  0  0  0  0  0
    8.6780  -13.6801   18.0547 C   0  0  0  0  0  0  0  0  0  0  0  0
    9.0397  -13.0288   16.7550 C   0  0  0  0  0  0  0  0  0  0  0  0
   10.4182  -13.3846   16.4587 N   0  0  0  0  0  0  0  0  0  0  0  0
    6.9216  -15.9253   21.1225 C   0  0  0  0  0  0  0  0  0  0  0  0
    5.8374  -15.6360   21.6636 O   0  0  0  0  0  0  0  0  0  0  0  0
    7.9473  -16.6459   21.7211 N   0  0  0  0  0  0  0  0  0  0  0  0
    8.0340  -16.9953   23.0920 C   0  0  1  0  0  0  0  0  0  0  0  0
    8.5139  -18.4120   23.2554 C   0  0  0  0  0  0  0  0  0  0  0  0
    8.3993  -18.7878   24.6931 C   0  0  0  0  0  0  0  0  0  0  0  0
    7.2266  -18.8905   25.3794 C   0  0  0  0  0  0  0  0  0  0  0  0
    7.4752  -19.2509   26.6648 N   0  0  0  0  0  0  0  0  0  0  0  0
    8.8017  -19.3710   26.7721 C   0  0  0  0  0  0  0  0  0  0  0  0
    9.3658  -19.0893   25.5723 N   0  0  0  0  0  0  0  0  0  0  0  0
    8.7293  -16.0283   23.9776 C   0  0  0  0  0  0  0  0  0  0  0  0
    9.8797  -15.6011   23.8872 O   0  0  0  0  0  0  0  0  0  0  0  0
    7.1462  -10.9604   26.8100 C   0  0  0  0  0  0  0  0  0  0  0  0
    8.0237  -12.1903   26.8681 C   0  0  0  0  0  0  0  0  0  0  0  0
    7.5051  -13.3314   26.0461 C   0  0  2  0  0  0  0  0  0  0  0  0
    6.1328  -13.7368   26.5400 C   0  0  0  0  0  0  0  0  0  0  0  0
    8.4487  -14.5001   25.9771 C   0  0  2  0  0  0  0  0  0  0  0  0
    7.9607  -15.5241   25.0835 N   0  0  0  0  0  0  0  0  0  0  0  0
    8.9313  -14.9805   27.2634 C   0  0  0  0  0  0  0  0  0  0  0  0
    8.4790  -16.0461   27.7345 O   0  0  0  0  0  0  0  0  0  0  0  0
    9.8817  -14.3020   28.0011 O   0  0  0  0  0  0  0  0  0  0  0  0
  2  8  1  0
  2  1  1  6
  3  2  1  0
  4  3  1  0
  5  4  1  0
  6  5  1  0
  7  6  1  0
  8  9  2  0
 10 11  1  0
 10  8  1  0
 12 13  1  0
 11 12  1  6
 13 14  2  0
 15 14  1  0
 16 15  1  0
 17 16  2  0
 17 13  1  0
 18 11  1  0
 18 19  2  0
 20 21  1  0
 21 22  1  0
 22 24  1  0
 22 23  1  1
 24 25  1  1
 24 26  1  0
 25 18  1  0
 26 27  2  0
 26 28  1  0
M  END
$$$$
