KHI.pdb
     RDKit          3D

 28 28  0  0  1  0  0  0  0  0999 V2000
    8.5133  -16.2945   19.0774 N   0  0  0  0  0  0  0  0  0  0  0  0
    8.5116  -15.0360   19.7912 C   0  0  1  0  0  0  0  0  0  0  0  0
    7.5169  -14.1161   19.1486 C   0  0  0  0  0  0  0  0  0  0  0  0
    7.3733  -14.4562   17.6977 C   0  0  0  0  0  0  0  0  0  0  0  0
    8.1619  -13.4984   16.8575 C   0  0  0  0  0  0  0  0  0  0  0  0
    7.9366  -13.7675   15.4011 C   0  0  0  0  0  0  0  0  0  0  0  0
    8.6795  -12.7657   14.6534 N   0  0  0  0  0  0  0  0  0  0  0  0
    8.0150  -15.2658   21.2054 C   0  0  0  0  0  0  0  0  0  0  0  0
    7.6851  -14.2254   21.8058 O   0  0  0  0  0  0  0  0  0  0  0  0
    7.9534  -16.5488   21.7344 N   0  0  0  0  0  0  0  0  0  0  0  0
    7.7435  -16.8824   23.0960 C   0  0  1  0  0  0  0  0  0  0  0  0
    7.7960  -18.3725   23.2976 C   0  0  0  0  0  0  0  0  0  0  0  0
    7.4988  -18.6674   24.7280 C   0  0  0  0  0  0  0  0  0  0  0  0
    6.5458  -18.0373   25.4707 C   0  0  0  0  0  0  0  0  0  0  0  0
    6.5346  -18.5434   26.7308 N   0  0  0  0  0  0  0  0  0  0  0  0
    7.4808  -19.4862   26.7660 C   0  0  0  0  0  0  0  0  0  0  0  0
    8.0688  -19.5630   25.5472 N   0  0  0  0  0  0  0  0  0  0  0  0
    8.5375  -16.1213   24.0926 C   0  0  0  0  0  0  0  0  0  0  0  0
    9.7602  -16.0818   24.2251 O   0  0  0  0  0  0  0  0  0  0  0  0
    5.9485  -11.7567   27.2338 C   0  0  0  0  0  0  0  0  0  0  0  0
    6.3804  -13.1116   26.7205 C   0  0  0  0  0  0  0  0  0  0  0  0
    7.6643  -13.0743   25.9478 C   0  0  2  0  0  0  0  0  0  0  0  0
    7.4066  -12.5512   24.5508 C   0  0  0  0  0  0  0  0  0  0  0  0
    8.3955  -14.3881   25.9332 C   0  0  2  0  0  0  0  0  0  0  0  0
    7.7822  -15.3267   25.0232 N   0  0  0  0  0  0  0  0  0  0  0  0
    8.7267  -14.9248   27.2449 C   0  0  0  0  0  0  0  0  0  0  0  0
    9.4531  -14.2639   28.0178 O   0  0  0  0  0  0  0  0  0  0  0  0
    8.2684  -16.1520   27.6831 O   0  0  0  0  0  0  0  0  0  0  0  0
  2  8  1  0
  2  1  1  6
  3  2  1  0
  4  3  1  0
  5  4  1  0
  6  5  1  0
  7  6  1  0
  8  9  2  0
 10 11  1  0
 10  8  1  0
 12 13  1  0
 11 12  1  6
 13 14  2  0
 15 14  1  0
 16 15  1  0
 17 16  2  0
 17 13  1  0
 18 11  1  0
 18 19  2  0
 20 21  1  0
 21 22  1  0
 22 24  1  0
 22 23  1  6
 24 25  1  1
 24 26  1  0
 25 18  1  0
 26 27  2  0
 26 28  1  0
M  END
$$$$
