KHI.pdb
     RDKit          3D

 28 28  0  0  1  0  0  0  0  0999 V2000
    9.1612  -16.8225   18.4937 N   0  0  0  0  0  0  0  0  0  0  0  0
    9.2012  -15.6122   19.2853 C   0  0  1  0  0  0  0  0  0  0  0  0
    8.2047  -14.6380   18.7316 C   0  0  0  0  0  0  0  0  0  0  0  0
    8.0192  -14.8787   17.2656 C   0  0  0  0  0  0  0  0  0  0  0  0
    7.9137  -13.5758   16.5331 C   0  0  0  0  0  0  0  0  0  0  0  0
    7.7442  -13.8109   15.0633 C   0  0  0  0  0  0  0  0  0  0  0  0
    7.5192  -12.5171   14.4387 N   0  0  0  0  0  0  0  0  0  0  0  0
    8.7409  -15.9240   20.6960 C   0  0  0  0  0  0  0  0  0  0  0  0
    7.6319  -15.4388   20.9900 O   0  0  0  0  0  0  0  0  0  0  0  0
    9.5291  -16.6911   21.5447 N   0  0  0  0  0  0  0  0  0  0  0  0
    9.3060  -16.9034   22.9283 C   0  0  1  0  0  0  0  0  0  0  0  0
    9.9521  -18.1830   23.3858 C   0  0  0  0  0  0  0  0  0  0  0  0
    9.3392  -19.3167   22.6372 C   0  0  0  0  0  0  0  0  0  0  0  0
    8.3782  -19.1879   21.6797 C   0  0  0  0  0  0  0  0  0  0  0  0
    8.0404  -20.4121   21.1986 N   0  0  0  0  0  0  0  0  0  0  0  0
    8.7930  -21.2967   21.8592 C   0  0  0  0  0  0  0  0  0  0  0  0
    9.5845  -20.6314   22.7355 N   0  0  0  0  0  0  0  0  0  0  0  0
    9.5731  -15.7512   23.8249 C   0  0  0  0  0  0  0  0  0  0  0  0
   10.5154  -14.9606   23.7918 O   0  0  0  0  0  0  0  0  0  0  0  0
    6.6628  -11.2913   26.5350 C   0  0  0  0  0  0  0  0  0  0  0  0
    7.7435  -12.3352   26.7023 C   0  0  0  0  0  0  0  0  0  0  0  0
    7.6124  -13.4861   25.7509 C   0  0  2  0  0  0  0  0  0  0  0  0
    6.2596  -14.1429   25.9243 C   0  0  0  0  0  0  0  0  0  0  0  0
    8.7385  -14.4778   25.8482 C   0  0  2  0  0  0  0  0  0  0  0  0
    8.6068  -15.5283   24.8663 N   0  0  0  0  0  0  0  0  0  0  0  0
    9.0502  -14.9274   27.1969 C   0  0  0  0  0  0  0  0  0  0  0  0
    8.7544  -16.0908   27.5445 O   0  0  0  0  0  0  0  0  0  0  0  0
    9.6678  -14.1143   28.1272 O   0  0  0  0  0  0  0  0  0  0  0  0
  2  8  1  0
  2  1  1  6
  3  2  1  0
  4  3  1  0
  5  4  1  0
  6  5  1  0
  7  6  1  0
  8  9  2  0
 10 11  1  0
 10  8  1  0
 12 13  1  0
 11 12  1  1
 13 14  2  0
 15 14  1  0
 16 15  1  0
 17 16  2  0
 17 13  1  0
 18 11  1  0
 18 19  2  0
 20 21  1  0
 21 22  1  0
 22 24  1  0
 22 23  1  1
 24 25  1  6
 24 26  1  0
 25 18  1  0
 26 27  2  0
 26 28  1  0
M  END
$$$$
