KHI.pdb
     RDKit          3D

 28 28  0  0  1  0  0  0  0  0999 V2000
    5.8323  -16.9291   19.5415 N   0  0  0  0  0  0  0  0  0  0  0  0
    7.0172  -16.5354   20.2724 C   0  0  1  0  0  0  0  0  0  0  0  0
    7.1792  -15.0483   20.1674 C   0  0  0  0  0  0  0  0  0  0  0  0
    7.9325  -14.7058   18.9198 C   0  0  0  0  0  0  0  0  0  0  0  0
    8.1249  -13.2233   18.8177 C   0  0  0  0  0  0  0  0  0  0  0  0
    8.8124  -12.8692   17.5347 C   0  0  0  0  0  0  0  0  0  0  0  0
    8.9935  -11.4264   17.5218 N   0  0  0  0  0  0  0  0  0  0  0  0
    6.8150  -16.8305   21.7458 C   0  0  0  0  0  0  0  0  0  0  0  0
    5.6605  -16.6075   22.1573 O   0  0  0  0  0  0  0  0  0  0  0  0
    7.8629  -17.3082   22.5226 N   0  0  0  0  0  0  0  0  0  0  0  0
    7.8450  -17.4937   23.9277 C   0  0  1  0  0  0  0  0  0  0  0  0
    8.2011  -18.9109   24.2865 C   0  0  0  0  0  0  0  0  0  0  0  0
    7.9439  -19.1099   25.7410 C   0  0  0  0  0  0  0  0  0  0  0  0
    7.4144  -18.1699   26.5733 C   0  0  0  0  0  0  0  0  0  0  0  0
    7.3120  -18.6730   27.8305 N   0  0  0  0  0  0  0  0  0  0  0  0
    7.7782  -19.9240   27.7742 C   0  0  0  0  0  0  0  0  0  0  0  0
    8.1633  -20.1916   26.5026 N   0  0  0  0  0  0  0  0  0  0  0  0
    8.5645  -16.4790   24.7373 C   0  0  0  0  0  0  0  0  0  0  0  0
    9.7515  -16.1597   24.6816 O   0  0  0  0  0  0  0  0  0  0  0  0
    5.7781  -12.0141   25.9890 C   0  0  0  0  0  0  0  0  0  0  0  0
    6.8396  -13.0513   25.7007 C   0  0  0  0  0  0  0  0  0  0  0  0
    7.3850  -13.7044   26.9348 C   0  0  2  0  0  0  0  0  0  0  0  0
    7.9995  -12.6578   27.8396 C   0  0  0  0  0  0  0  0  0  0  0  0
    8.3372  -14.8321   26.6474 C   0  0  2  0  0  0  0  0  0  0  0  0
    7.7738  -15.7770   25.7120 N   0  0  0  0  0  0  0  0  0  0  0  0
    8.9665  -15.4225   27.8194 C   0  0  0  0  0  0  0  0  0  0  0  0
   10.0370  -14.9448   28.2528 O   0  0  0  0  0  0  0  0  0  0  0  0
    8.4272  -16.5051   28.4865 O   0  0  0  0  0  0  0  0  0  0  0  0
  2  8  1  0
  2  1  1  6
  3  2  1  0
  4  3  1  0
  5  4  1  0
  6  5  1  0
  7  6  1  0
  8  9  2  0
 10 11  1  0
 10  8  1  0
 12 13  1  0
 11 12  1  6
 13 14  2  0
 15 14  1  0
 16 15  1  0
 17 16  2  0
 17 13  1  0
 18 11  1  0
 18 19  2  0
 20 21  1  0
 21 22  1  0
 22 24  1  0
 22 23  1  1
 24 25  1  1
 24 26  1  0
 25 18  1  0
 26 27  2  0
 26 28  1  0
M  END
$$$$
