KHI.pdb
     RDKit          3D

 28 28  0  0  1  0  0  0  0  0999 V2000
   10.2519  -18.2547   20.0740 N   0  0  0  0  0  0  0  0  0  0  0  0
   11.2935  -17.4317   20.6492 C   0  0  1  0  0  0  0  0  0  0  0  0
   12.1156  -16.8458   19.5403 C   0  0  0  0  0  0  0  0  0  0  0  0
   12.3413  -17.8748   18.4766 C   0  0  0  0  0  0  0  0  0  0  0  0
   13.8086  -18.0734   18.2468 C   0  0  0  0  0  0  0  0  0  0  0  0
   14.0395  -19.0714   17.1537 C   0  0  0  0  0  0  0  0  0  0  0  0
   15.4657  -19.3528   17.1154 N   0  0  0  0  0  0  0  0  0  0  0  0
   10.6603  -16.2553   21.3662 C   0  0  0  0  0  0  0  0  0  0  0  0
   11.4796  -15.4492   21.8465 O   0  0  0  0  0  0  0  0  0  0  0  0
    9.2786  -16.1366   21.4487 N   0  0  0  0  0  0  0  0  0  0  0  0
    8.5662  -15.1610   22.1900 C   0  0  1  0  0  0  0  0  0  0  0  0
    7.2177  -14.8995   21.5759 C   0  0  0  0  0  0  0  0  0  0  0  0
    7.4067  -14.6031   20.1274 C   0  0  0  0  0  0  0  0  0  0  0  0
    7.8411  -13.4124   19.6271 C   0  0  0  0  0  0  0  0  0  0  0  0
    7.9023  -13.4771   18.2721 N   0  0  0  0  0  0  0  0  0  0  0  0
    7.5057  -14.7080   17.9358 C   0  0  0  0  0  0  0  0  0  0  0  0
    7.2037  -15.3949   19.0645 N   0  0  0  0  0  0  0  0  0  0  0  0
    8.5202  -15.3525   23.6611 C   0  0  0  0  0  0  0  0  0  0  0  0
    9.0065  -16.2654   24.3276 O   0  0  0  0  0  0  0  0  0  0  0  0
    6.5261  -10.7423   26.0220 C   0  0  0  0  0  0  0  0  0  0  0  0
    7.4727  -11.9146   25.8987 C   0  0  0  0  0  0  0  0  0  0  0  0
    6.8743  -13.2133   26.3485 C   0  0  2  0  0  0  0  0  0  0  0  0
    6.7526  -13.2261   27.8574 C   0  0  0  0  0  0  0  0  0  0  0  0
    7.6028  -14.4223   25.8302 C   0  0  2  0  0  0  0  0  0  0  0  0
    7.8180  -14.3416   24.4047 N   0  0  0  0  0  0  0  0  0  0  0  0
    7.0956  -15.7002   26.3077 C   0  0  0  0  0  0  0  0  0  0  0  0
    6.1246  -16.2346   25.7302 O   0  0  0  0  0  0  0  0  0  0  0  0
    7.6461  -16.3613   27.3884 O   0  0  0  0  0  0  0  0  0  0  0  0
  2  8  1  0
  2  1  1  6
  3  2  1  0
  4  3  1  0
  5  4  1  0
  6  5  1  0
  7  6  1  0
  8  9  2  0
 10 11  1  0
 10  8  1  0
 12 13  1  0
 11 12  1  6
 13 14  2  0
 15 14  1  0
 16 15  1  0
 17 16  2  0
 17 13  1  0
 18 11  1  0
 18 19  2  0
 20 21  1  0
 21 22  1  0
 22 24  1  0
 22 23  1  1
 24 25  1  6
 24 26  1  0
 25 18  1  0
 26 27  2  0
 26 28  1  0
M  END
$$$$
