KHI.pdb
     RDKit          3D

 28 28  0  0  1  0  0  0  0  0999 V2000
   11.6345  -17.0709   19.2534 N   0  0  0  0  0  0  0  0  0  0  0  0
   11.5534  -17.8433   20.4740 C   0  0  1  0  0  0  0  0  0  0  0  0
   12.9060  -18.4167   20.7751 C   0  0  0  0  0  0  0  0  0  0  0  0
   12.9315  -19.8712   20.4213 C   0  0  0  0  0  0  0  0  0  0  0  0
   13.2599  -20.0488   18.9702 C   0  0  0  0  0  0  0  0  0  0  0  0
   13.3510  -21.5039   18.6257 C   0  0  0  0  0  0  0  0  0  0  0  0
   13.6744  -21.5968   17.2110 N   0  0  0  0  0  0  0  0  0  0  0  0
   11.2261  -16.9171   21.6291 C   0  0  0  0  0  0  0  0  0  0  0  0
   12.2163  -16.3399   22.1169 O   0  0  0  0  0  0  0  0  0  0  0  0
    9.9156  -16.7629   22.0635 N   0  0  0  0  0  0  0  0  0  0  0  0
    9.4868  -15.9819   23.1659 C   0  0  1  0  0  0  0  0  0  0  0  0
    8.0140  -15.6878   23.0746 C   0  0  0  0  0  0  0  0  0  0  0  0
    7.7868  -14.7587   21.9315 C   0  0  0  0  0  0  0  0  0  0  0  0
    8.7672  -14.2611   21.1265 C   0  0  0  0  0  0  0  0  0  0  0  0
    8.2221  -13.4477   20.1857 N   0  0  0  0  0  0  0  0  0  0  0  0
    6.9048  -13.4433   20.4098 C   0  0  0  0  0  0  0  0  0  0  0  0
    6.6381  -14.2411   21.4724 N   0  0  0  0  0  0  0  0  0  0  0  0
    9.9167  -16.4433   24.5095 C   0  0  0  0  0  0  0  0  0  0  0  0
   10.4268  -17.5192   24.8200 O   0  0  0  0  0  0  0  0  0  0  0  0
    9.8529  -12.0871   28.0249 C   0  0  0  0  0  0  0  0  0  0  0  0
   10.3318  -13.2925   27.2482 C   0  0  0  0  0  0  0  0  0  0  0  0
    9.8885  -14.5967   27.8394 C   0  0  2  0  0  0  0  0  0  0  0  0
   10.5138  -14.7788   29.2060 C   0  0  0  0  0  0  0  0  0  0  0  0
   10.1362  -15.7782   26.9429 C   0  0  2  0  0  0  0  0  0  0  0  0
    9.7122  -15.5143   25.5880 N   0  0  0  0  0  0  0  0  0  0  0  0
    9.7153  -17.0622   27.4836 C   0  0  0  0  0  0  0  0  0  0  0  0
   10.4891  -17.7037   28.2264 O   0  0  0  0  0  0  0  0  0  0  0  0
    8.4797  -17.6151   27.2092 O   0  0  0  0  0  0  0  0  0  0  0  0
  2  8  1  0
  2  1  1  6
  3  2  1  0
  4  3  1  0
  5  4  1  0
  6  5  1  0
  7  6  1  0
  8  9  2  0
 10 11  1  0
 10  8  1  0
 12 13  1  0
 11 12  1  1
 13 14  2  0
 15 14  1  0
 16 15  1  0
 17 16  2  0
 17 13  1  0
 18 11  1  0
 18 19  2  0
 20 21  1  0
 21 22  1  0
 22 24  1  0
 22 23  1  1
 24 25  1  6
 24 26  1  0
 25 18  1  0
 26 27  2  0
 26 28  1  0
M  END
$$$$
