KHI.pdb
     RDKit          3D

 28 28  0  0  1  0  0  0  0  0999 V2000
    7.9445  -17.3837   19.9419 N   0  0  0  0  0  0  0  0  0  0  0  0
    8.6011  -16.2820   20.6114 C   0  0  1  0  0  0  0  0  0  0  0  0
    7.8006  -15.0337   20.3889 C   0  0  0  0  0  0  0  0  0  0  0  0
    8.5904  -14.0633   19.5665 C   0  0  0  0  0  0  0  0  0  0  0  0
    7.7962  -13.6234   18.3745 C   0  0  0  0  0  0  0  0  0  0  0  0
    8.6599  -12.8556   17.4212 C   0  0  0  0  0  0  0  0  0  0  0  0
    7.8201  -12.4445   16.3074 N   0  0  0  0  0  0  0  0  0  0  0  0
    8.5850  -16.5272   22.1077 C   0  0  0  0  0  0  0  0  0  0  0  0
    7.4526  -16.4645   22.6230 O   0  0  0  0  0  0  0  0  0  0  0  0
    9.7626  -16.7955   22.7940 N   0  0  0  0  0  0  0  0  0  0  0  0
    9.8869  -17.0079   24.1899 C   0  0  1  0  0  0  0  0  0  0  0  0
   10.8387  -18.1371   24.4781 C   0  0  0  0  0  0  0  0  0  0  0  0
   10.2207  -19.4090   24.0073 C   0  0  0  0  0  0  0  0  0  0  0  0
    9.6207  -19.5809   22.7960 C   0  0  0  0  0  0  0  0  0  0  0  0
    9.1643  -20.8550   22.6847 N   0  0  0  0  0  0  0  0  0  0  0  0
    9.4827  -21.4699   23.8275 C   0  0  0  0  0  0  0  0  0  0  0  0
   10.1260  -20.5908   24.6339 N   0  0  0  0  0  0  0  0  0  0  0  0
   10.1272  -15.8032   25.0227 C   0  0  0  0  0  0  0  0  0  0  0  0
   10.9953  -14.9418   24.8865 O   0  0  0  0  0  0  0  0  0  0  0  0
    6.4634  -12.3885   26.1355 C   0  0  0  0  0  0  0  0  0  0  0  0
    7.7538  -13.1652   26.0032 C   0  0  0  0  0  0  0  0  0  0  0  0
    8.2534  -13.7163   27.3045 C   0  0  2  0  0  0  0  0  0  0  0  0
    8.5176  -12.5835   28.2732 C   0  0  0  0  0  0  0  0  0  0  0  0
    9.4445  -14.6220   27.1560 C   0  0  2  0  0  0  0  0  0  0  0  0
    9.2304  -15.6167   26.1313 N   0  0  0  0  0  0  0  0  0  0  0  0
    9.9940  -15.1289   28.4048 C   0  0  0  0  0  0  0  0  0  0  0  0
    9.7558  -16.3055   28.7524 O   0  0  0  0  0  0  0  0  0  0  0  0
   10.7795  -14.3571   29.2386 O   0  0  0  0  0  0  0  0  0  0  0  0
  2  8  1  0
  2  1  1  6
  3  2  1  0
  4  3  1  0
  5  4  1  0
  6  5  1  0
  7  6  1  0
  8  9  2  0
 10 11  1  0
 10  8  1  0
 12 13  1  0
 11 12  1  6
 13 14  2  0
 15 14  1  0
 16 15  1  0
 17 16  2  0
 17 13  1  0
 18 11  1  0
 18 19  2  0
 20 21  1  0
 21 22  1  0
 22 24  1  0
 22 23  1  1
 24 25  1  6
 24 26  1  0
 25 18  1  0
 26 27  2  0
 26 28  1  0
M  END
$$$$
