KHI.pdb
     RDKit          3D

 28 28  0  0  1  0  0  0  0  0999 V2000
    8.9532  -15.2561   19.0034 N   0  0  0  0  0  0  0  0  0  0  0  0
    8.5934  -14.1474   19.8603 C   0  0  1  0  0  0  0  0  0  0  0  0
    7.3129  -13.5462   19.3626 C   0  0  0  0  0  0  0  0  0  0  0  0
    7.5245  -12.9520   18.0048 C   0  0  0  0  0  0  0  0  0  0  0  0
    7.2904  -13.9828   16.9428 C   0  0  0  0  0  0  0  0  0  0  0  0
    7.8366  -13.5168   15.6280 C   0  0  0  0  0  0  0  0  0  0  0  0
    7.4871  -14.5175   14.6323 N   0  0  0  0  0  0  0  0  0  0  0  0
    8.2961  -14.6695   21.2525 C   0  0  0  0  0  0  0  0  0  0  0  0
    7.8500  -13.8095   22.0357 O   0  0  0  0  0  0  0  0  0  0  0  0
    8.5204  -16.0028   21.5715 N   0  0  0  0  0  0  0  0  0  0  0  0
    8.2862  -16.6121   22.8296 C   0  0  1  0  0  0  0  0  0  0  0  0
    8.5643  -18.0897   22.7704 C   0  0  0  0  0  0  0  0  0  0  0  0
    8.1989  -18.6932   24.0832 C   0  0  0  0  0  0  0  0  0  0  0  0
    8.4012  -18.1025   25.2944 C   0  0  0  0  0  0  0  0  0  0  0  0
    7.9558  -18.9180   26.2847 N   0  0  0  0  0  0  0  0  0  0  0  0
    7.4783  -20.0124   25.6847 C   0  0  0  0  0  0  0  0  0  0  0  0
    7.6256  -19.8770   24.3442 N   0  0  0  0  0  0  0  0  0  0  0  0
    8.8875  -15.9429   24.0100 C   0  0  0  0  0  0  0  0  0  0  0  0
   10.0750  -15.7085   24.2320 O   0  0  0  0  0  0  0  0  0  0  0  0
    5.9062  -11.8566   25.7861 C   0  0  0  0  0  0  0  0  0  0  0  0
    7.0255  -12.8165   25.4524 C   0  0  0  0  0  0  0  0  0  0  0  0
    7.3840  -13.7305   26.5851 C   0  0  2  0  0  0  0  0  0  0  0  0
    7.8457  -12.9159   27.7745 C   0  0  0  0  0  0  0  0  0  0  0  0
    8.3784  -14.7936   26.2081 C   0  0  2  0  0  0  0  0  0  0  0  0
    7.9651  -15.5114   25.0254 N   0  0  0  0  0  0  0  0  0  0  0  0
    8.8373  -15.6277   27.3090 C   0  0  0  0  0  0  0  0  0  0  0  0
    9.4596  -15.1083   28.2603 O   0  0  0  0  0  0  0  0  0  0  0  0
    8.6141  -16.9901   27.3523 O   0  0  0  0  0  0  0  0  0  0  0  0
  2  8  1  0
  2  1  1  6
  3  2  1  0
  4  3  1  0
  5  4  1  0
  6  5  1  0
  7  6  1  0
  8  9  2  0
 10 11  1  0
 10  8  1  0
 12 13  1  0
 11 12  1  6
 13 14  2  0
 15 14  1  0
 16 15  1  0
 17 16  2  0
 17 13  1  0
 18 11  1  0
 18 19  2  0
 20 21  1  0
 21 22  1  0
 22 24  1  0
 22 23  1  1
 24 25  1  6
 24 26  1  0
 25 18  1  0
 26 27  2  0
 26 28  1  0
M  END
$$$$
