KHI.pdb
     RDKit          3D

 28 28  0  0  1  0  0  0  0  0999 V2000
    8.4079  -17.7612   18.6000 N   0  0  0  0  0  0  0  0  0  0  0  0
    8.7017  -16.5714   19.3689 C   0  0  1  0  0  0  0  0  0  0  0  0
    8.2024  -15.3736   18.6175 C   0  0  0  0  0  0  0  0  0  0  0  0
    8.6724  -15.4323   17.1972 C   0  0  0  0  0  0  0  0  0  0  0  0
    8.1724  -14.2441   16.4334 C   0  0  0  0  0  0  0  0  0  0  0  0
    8.5959  -14.3248   14.9987 C   0  0  0  0  0  0  0  0  0  0  0  0
    8.0641  -13.1530   14.3214 N   0  0  0  0  0  0  0  0  0  0  0  0
    7.9155  -16.6088   20.6649 C   0  0  0  0  0  0  0  0  0  0  0  0
    6.7459  -17.0192   20.5407 O   0  0  0  0  0  0  0  0  0  0  0  0
    8.5005  -16.2090   21.8598 N   0  0  0  0  0  0  0  0  0  0  0  0
    8.2097  -16.7260   23.1471 C   0  0  1  0  0  0  0  0  0  0  0  0
    8.3606  -18.2228   23.1709 C   0  0  0  0  0  0  0  0  0  0  0  0
    7.0419  -18.8368   22.8462 C   0  0  0  0  0  0  0  0  0  0  0  0
    5.8508  -18.1752   22.8612 C   0  0  0  0  0  0  0  0  0  0  0  0
    4.8481  -19.0239   22.5171 N   0  0  0  0  0  0  0  0  0  0  0  0
    5.4204  -20.2097   22.2896 C   0  0  0  0  0  0  0  0  0  0  0  0
    6.7562  -20.0974   22.4895 N   0  0  0  0  0  0  0  0  0  0  0  0
    8.8612  -16.0464   24.2946 C   0  0  0  0  0  0  0  0  0  0  0  0
   10.0530  -16.0382   24.6003 O   0  0  0  0  0  0  0  0  0  0  0  0
    5.9889  -11.6276   25.9362 C   0  0  0  0  0  0  0  0  0  0  0  0
    7.0701  -12.6174   25.5658 C   0  0  0  0  0  0  0  0  0  0  0  0
    7.5031  -13.4827   26.7106 C   0  0  2  0  0  0  0  0  0  0  0  0
    8.0526  -12.6196   27.8263 C   0  0  0  0  0  0  0  0  0  0  0  0
    8.4625  -14.5702   26.3129 C   0  0  2  0  0  0  0  0  0  0  0  0
    7.9887  -15.3006   25.1609 N   0  0  0  0  0  0  0  0  0  0  0  0
    8.9511  -15.3935   27.4091 C   0  0  0  0  0  0  0  0  0  0  0  0
    8.3119  -16.4119   27.7499 O   0  0  0  0  0  0  0  0  0  0  0  0
   10.1079  -15.0966   28.1031 O   0  0  0  0  0  0  0  0  0  0  0  0
  2  8  1  0
  2  1  1  6
  3  2  1  0
  4  3  1  0
  5  4  1  0
  6  5  1  0
  7  6  1  0
  8  9  2  0
 10 11  1  0
 10  8  1  0
 12 13  1  0
 11 12  1  6
 13 14  2  0
 15 14  1  0
 16 15  1  0
 17 16  2  0
 17 13  1  0
 18 11  1  0
 18 19  2  0
 20 21  1  0
 21 22  1  0
 22 24  1  0
 22 23  1  1
 24 25  1  6
 24 26  1  0
 25 18  1  0
 26 27  2  0
 26 28  1  0
M  END
$$$$
