KHI.pdb
     RDKit          3D

 28 28  0  0  1  0  0  0  0  0999 V2000
    9.5923  -14.3840   18.6895 N   0  0  0  0  0  0  0  0  0  0  0  0
    8.6493  -13.6315   19.4880 C   0  0  1  0  0  0  0  0  0  0  0  0
    7.3411  -13.5648   18.7580 C   0  0  0  0  0  0  0  0  0  0  0  0
    7.5741  -13.1712   17.3325 C   0  0  0  0  0  0  0  0  0  0  0  0
    7.5736  -14.3827   16.4507 C   0  0  0  0  0  0  0  0  0  0  0  0
    7.7608  -13.9900   15.0172 C   0  0  0  0  0  0  0  0  0  0  0  0
    7.8508  -15.2149   14.2386 N   0  0  0  0  0  0  0  0  0  0  0  0
    8.3719  -14.3854   20.7740 C   0  0  0  0  0  0  0  0  0  0  0  0
    7.4134  -13.9376   21.4316 O   0  0  0  0  0  0  0  0  0  0  0  0
    9.1517  -15.4761   21.1376 N   0  0  0  0  0  0  0  0  0  0  0  0
    9.0616  -16.2002   22.3528 C   0  0  1  0  0  0  0  0  0  0  0  0
    9.7467  -17.5345   22.2344 C   0  0  0  0  0  0  0  0  0  0  0  0
    8.9549  -18.3927   21.3082 C   0  0  0  0  0  0  0  0  0  0  0  0
    7.7735  -18.0327   20.7325 C   0  0  0  0  0  0  0  0  0  0  0  0
    7.3180  -19.0416   19.9460 N   0  0  0  0  0  0  0  0  0  0  0  0
    8.2185  -20.0248   20.0361 C   0  0  0  0  0  0  0  0  0  0  0  0
    9.2158  -19.6312   20.8651 N   0  0  0  0  0  0  0  0  0  0  0  0
    9.4145  -15.4606   23.5902 C   0  0  0  0  0  0  0  0  0  0  0  0
   10.4508  -14.8474   23.8437 O   0  0  0  0  0  0  0  0  0  0  0  0
    6.7627  -11.6217   27.2808 C   0  0  0  0  0  0  0  0  0  0  0  0
    7.7635  -12.7507   27.1827 C   0  0  0  0  0  0  0  0  0  0  0  0
    7.5512  -13.6329   25.9897 C   0  0  2  0  0  0  0  0  0  0  0  0
    6.1364  -14.1713   25.9956 C   0  0  0  0  0  0  0  0  0  0  0  0
    8.5724  -14.7295   25.8636 C   0  0  2  0  0  0  0  0  0  0  0  0
    8.4180  -15.4588   24.6269 N   0  0  0  0  0  0  0  0  0  0  0  0
    8.7424  -15.5540   27.0508 C   0  0  0  0  0  0  0  0  0  0  0  0
    8.2843  -16.7167   27.0667 O   0  0  0  0  0  0  0  0  0  0  0  0
    9.3972  -15.1039   28.1807 O   0  0  0  0  0  0  0  0  0  0  0  0
  2  8  1  0
  2  1  1  6
  3  2  1  0
  4  3  1  0
  5  4  1  0
  6  5  1  0
  7  6  1  0
  8  9  2  0
 10 11  1  0
 10  8  1  0
 12 13  1  0
 11 12  1  6
 13 14  2  0
 15 14  1  0
 16 15  1  0
 17 16  2  0
 17 13  1  0
 18 11  1  0
 18 19  2  0
 20 21  1  0
 21 22  1  0
 22 24  1  0
 22 23  1  1
 24 25  1  6
 24 26  1  0
 25 18  1  0
 26 27  2  0
 26 28  1  0
M  END
$$$$
