IRL.pdb
     RDKit          3D

 28 27  0  0  1  0  0  0  0  0999 V2000
    7.4524  -11.7683   18.5523 C   0  0  0  0  0  0  0  0  0  0  0  0
    7.9774  -13.1692   18.3075 C   0  0  0  0  0  0  0  0  0  0  0  0
    7.9856  -13.8764   19.6526 C   0  0  2  0  0  0  0  0  0  0  0  0
    8.8616  -13.1838   20.6416 C   0  0  0  0  0  0  0  0  0  0  0  0
    8.4812  -15.3167   19.4910 C   0  0  2  0  0  0  0  0  0  0  0  0
    7.4763  -15.9531   18.6194 N   0  0  0  0  0  0  0  0  0  0  0  0
    8.3948  -15.9555   20.8198 C   0  0  0  0  0  0  0  0  0  0  0  0
    7.2373  -16.3099   21.2238 O   0  0  0  0  0  0  0  0  0  0  0  0
   12.0614  -22.6340   25.5348 N   0  0  0  0  0  0  0  0  0  0  0  0
   11.4452  -21.5610   26.2348 C   0  0  0  0  0  0  0  0  0  0  0  0
   11.8493  -21.2645   27.4121 N   0  0  0  0  0  0  0  0  0  0  0  0
   10.3940  -20.8577   25.5820 N   0  0  0  0  0  0  0  0  0  0  0  0
   10.7143  -20.0140   24.4501 C   0  0  0  0  0  0  0  0  0  0  0  0
    9.8565  -18.7443   24.4866 C   0  0  0  0  0  0  0  0  0  0  0  0
   10.0607  -18.0785   23.1551 C   0  0  0  0  0  0  0  0  0  0  0  0
    9.2307  -16.8198   22.9771 C   0  0  2  0  0  0  0  0  0  0  0  0
    9.4658  -16.2194   21.6953 N   0  0  0  0  0  0  0  0  0  0  0  0
    9.4256  -15.8836   24.1117 C   0  0  0  0  0  0  0  0  0  0  0  0
   10.5478  -15.3778   24.2963 O   0  0  0  0  0  0  0  0  0  0  0  0
   11.4724  -20.4377   27.8897 C   0  0  0  0  0  0  0  0  0  0  0  0
    5.7215  -12.1578   26.3997 C   0  0  1  0  0  0  0  0  0  0  0  0
    7.1958  -12.5904   26.3494 C   0  0  0  0  0  0  0  0  0  0  0  0
    7.7529  -12.1852   25.0237 C   0  0  0  0  0  0  0  0  0  0  0  0
    7.2690  -14.0699   26.6168 C   0  0  2  0  0  0  0  0  0  0  0  0
    8.5562  -14.6963   26.1751 N   0  0  0  0  0  0  0  0  0  0  0  0
    8.3637  -15.5417   25.0031 C   0  0  0  0  0  0  0  0  0  0  0  0
    9.2821  -15.4198   27.2412 O   0  0  0  0  0  0  0  0  0  0  0  0
    8.9770  -16.6371   27.4520 O   0  0  0  0  0  0  0  0  0  0  0  0
  1  2  1  0
  3  2  1  0
  3  5  1  0
  3  4  1  1
  5  6  1  6
  7  8  2  0
  7  5  1  0
 10 12  1  0
 10  9  1  0
 11 10  2  0
 12 13  1  0
 13 14  1  0
 14 15  1  0
 16 15  1  1
 16 17  1  0
 17  7  1  0
 18 19  2  0
 18 16  1  0
 21 22  1  6
 21 20  1  0
 24 23  1  6
 23 21  1  0
 24 25  1  0
 25 18  1  0
 26 24  1  0
 27 26  2  0
 28 26  1  0
M  END
$$$$
