IRL.pdb
     RDKit          3D

 28 27  0  0  1  0  0  0  0  0999 V2000
    7.6752  -19.1163   28.7755 C   0  0  0  0  0  0  0  0  0  0  0  0
    8.1072  -19.6452   27.4220 C   0  0  0  0  0  0  0  0  0  0  0  0
    6.8835  -19.6001   26.5220 C   0  0  2  0  0  0  0  0  0  0  0  0
    5.7781  -20.4573   27.0402 C   0  0  0  0  0  0  0  0  0  0  0  0
    7.2453  -20.0757   25.1116 C   0  0  2  0  0  0  0  0  0  0  0  0
    7.8205  -21.4181   25.3151 N   0  0  0  0  0  0  0  0  0  0  0  0
    8.3229  -19.1930   24.6207 C   0  0  0  0  0  0  0  0  0  0  0  0
    9.5208  -19.5052   24.9307 O   0  0  0  0  0  0  0  0  0  0  0  0
    6.3652  -14.0056   19.7729 N   0  0  0  0  0  0  0  0  0  0  0  0
    7.4177  -13.0638   19.9359 C   0  0  0  0  0  0  0  0  0  0  0  0
    7.1844  -11.8209   19.7413 N   0  0  0  0  0  0  0  0  0  0  0  0
    8.6982  -13.5566   20.3143 N   0  0  0  0  0  0  0  0  0  0  0  0
    8.8841  -14.9853   20.4556 C   0  0  0  0  0  0  0  0  0  0  0  0
    8.5824  -15.4106   21.8970 C   0  0  0  0  0  0  0  0  0  0  0  0
    9.2497  -16.7451   22.0741 C   0  0  0  0  0  0  0  0  0  0  0  0
    9.2964  -17.2085   23.5191 C   0  0  2  0  0  0  0  0  0  0  0  0
    8.1664  -18.0335   23.8370 N   0  0  0  0  0  0  0  0  0  0  0  0
    9.4687  -16.0618   24.4449 C   0  0  0  0  0  0  0  0  0  0  0  0
    9.1440  -14.9213   24.0667 O   0  0  0  0  0  0  0  0  0  0  0  0
    7.9084  -11.1248   19.9534 C   0  0  0  0  0  0  0  0  0  0  0  0
    8.5161  -12.5029   26.4418 C   0  0  2  0  0  0  0  0  0  0  0  0
    7.8570  -13.8421   26.0739 C   0  0  0  0  0  0  0  0  0  0  0  0
    6.3752  -13.6571   26.1176 C   0  0  0  0  0  0  0  0  0  0  0  0
    8.3688  -14.9007   27.0136 C   0  0  2  0  0  0  0  0  0  0  0  0
    9.8163  -15.2311   26.8140 N   0  0  0  0  0  0  0  0  0  0  0  0
    9.9970  -16.2237   25.7617 C   0  0  0  0  0  0  0  0  0  0  0  0
   10.5297  -15.6258   28.0477 O   0  0  0  0  0  0  0  0  0  0  0  0
   10.5155  -14.8178   29.0309 O   0  0  0  0  0  0  0  0  0  0  0  0
  1  2  1  0
  3  2  1  0
  3  5  1  0
  3  4  1  1
  5  6  1  1
  7  8  2  0
  7  5  1  0
 10 12  1  0
 10  9  1  0
 11 10  2  0
 12 13  1  0
 13 14  1  0
 14 15  1  0
 16 15  1  6
 16 17  1  0
 17  7  1  0
 18 19  2  0
 18 16  1  0
 21 22  1  6
 21 20  1  0
 24 23  1  6
 23 21  1  0
 24 25  1  0
 25 18  1  0
 26 24  1  0
 27 26  2  0
 28 26  1  0
M  END
$$$$
