IRL.pdb
     RDKit          3D

 28 27  0  0  1  0  0  0  0  0999 V2000
    6.8305  -10.7715   27.3451 C   0  0  0  0  0  0  0  0  0  0  0  0
    5.9766  -11.7810   26.6034 C   0  0  0  0  0  0  0  0  0  0  0  0
    6.9240  -12.8249   26.0360 C   0  0  2  0  0  0  0  0  0  0  0  0
    7.9635  -12.2155   25.1566 C   0  0  0  0  0  0  0  0  0  0  0  0
    6.1442  -13.8600   25.2194 C   0  0  2  0  0  0  0  0  0  0  0  0
    5.1771  -14.4274   26.1771 N   0  0  0  0  0  0  0  0  0  0  0  0
    7.0961  -14.9283   24.8535 C   0  0  0  0  0  0  0  0  0  0  0  0
    7.3481  -15.8143   25.7367 O   0  0  0  0  0  0  0  0  0  0  0  0
    9.3215  -20.3843   20.7691 N   0  0  0  0  0  0  0  0  0  0  0  0
   10.5382  -20.0870   20.0964 C   0  0  0  0  0  0  0  0  0  0  0  0
   11.3638  -21.0315   19.8442 N   0  0  0  0  0  0  0  0  0  0  0  0
   10.7819  -18.7334   19.7300 N   0  0  0  0  0  0  0  0  0  0  0  0
    9.8214  -17.7209   20.1147 C   0  0  0  0  0  0  0  0  0  0  0  0
    9.8408  -17.5347   21.6360 C   0  0  0  0  0  0  0  0  0  0  0  0
    8.8787  -16.4160   21.9198 C   0  0  0  0  0  0  0  0  0  0  0  0
    8.6639  -16.1673   23.4020 C   0  0  2  0  0  0  0  0  0  0  0  0
    7.7594  -15.0750   23.6199 N   0  0  0  0  0  0  0  0  0  0  0  0
    9.9571  -16.0132   24.1132 C   0  0  0  0  0  0  0  0  0  0  0  0
   10.8412  -15.2911   23.6169 O   0  0  0  0  0  0  0  0  0  0  0  0
   12.2837  -20.8141   19.4442 C   0  0  0  0  0  0  0  0  0  0  0  0
   10.1437  -13.7490   26.8732 C   0  0  1  0  0  0  0  0  0  0  0  0
   10.5061  -15.0873   27.5373 C   0  0  0  0  0  0  0  0  0  0  0  0
   10.6048  -14.8618   29.0109 C   0  0  0  0  0  0  0  0  0  0  0  0
   11.7740  -15.6034   26.9116 C   0  0  1  0  0  0  0  0  0  0  0  0
   11.5525  -16.7287   25.9478 N   0  0  0  0  0  0  0  0  0  0  0  0
   10.2224  -16.6685   25.3538 C   0  0  0  0  0  0  0  0  0  0  0  0
   11.8292  -18.0718   26.5013 O   0  0  0  0  0  0  0  0  0  0  0  0
   10.8943  -18.9347   26.4715 O   0  0  0  0  0  0  0  0  0  0  0  0
  1  2  1  0
  3  2  1  0
  3  5  1  0
  3  4  1  6
  5  6  1  1
  7  8  2  0
  7  5  1  0
 10 12  1  0
 10  9  1  0
 11 10  2  0
 12 13  1  0
 13 14  1  0
 14 15  1  0
 16 15  1  6
 16 17  1  0
 17  7  1  0
 18 19  2  0
 18 16  1  0
 21 22  1  6
 21 20  1  0
 24 23  1  6
 23 21  1  0
 24 25  1  0
 25 18  1  0
 26 24  1  0
 27 26  2  0
 28 26  1  0
M  END
$$$$
