IRL.pdb
     RDKit          3D

 28 27  0  0  1  0  0  0  0  0999 V2000
    7.6335  -20.7705   28.8442 C   0  0  0  0  0  0  0  0  0  0  0  0
    6.7301  -20.6855   27.6298 C   0  0  0  0  0  0  0  0  0  0  0  0
    7.3250  -19.6295   26.7131 C   0  0  2  0  0  0  0  0  0  0  0  0
    7.4882  -18.3180   27.4050 C   0  0  0  0  0  0  0  0  0  0  0  0
    6.4271  -19.4235   25.4892 C   0  0  2  0  0  0  0  0  0  0  0  0
    6.3599  -20.7542   24.8575 N   0  0  0  0  0  0  0  0  0  0  0  0
    7.1505  -18.5232   24.5687 C   0  0  0  0  0  0  0  0  0  0  0  0
    8.1488  -19.0097   23.9399 O   0  0  0  0  0  0  0  0  0  0  0  0
    7.8505  -11.9849   19.7915 N   0  0  0  0  0  0  0  0  0  0  0  0
    8.0054  -13.1859   19.0466 C   0  0  0  0  0  0  0  0  0  0  0  0
    8.6976  -13.1730   17.9705 N   0  0  0  0  0  0  0  0  0  0  0  0
    7.3746  -14.3617   19.5420 N   0  0  0  0  0  0  0  0  0  0  0  0
    7.9901  -15.0758   20.6405 C   0  0  0  0  0  0  0  0  0  0  0  0
    7.7188  -14.3406   21.9578 C   0  0  0  0  0  0  0  0  0  0  0  0
    6.8745  -15.2752   22.7773 C   0  0  0  0  0  0  0  0  0  0  0  0
    7.6678  -16.4017   23.4149 C   0  0  2  0  0  0  0  0  0  0  0  0
    6.8503  -17.1724   24.3074 N   0  0  0  0  0  0  0  0  0  0  0  0
    8.9112  -15.8928   24.0449 C   0  0  0  0  0  0  0  0  0  0  0  0
    9.7531  -15.3060   23.3405 O   0  0  0  0  0  0  0  0  0  0  0  0
    8.8768  -14.0491   17.4666 C   0  0  0  0  0  0  0  0  0  0  0  0
    8.8538  -13.1324   26.9526 C   0  0  2  0  0  0  0  0  0  0  0  0
    8.8138  -14.4529   27.7387 C   0  0  0  0  0  0  0  0  0  0  0  0
    8.5337  -14.1316   29.1706 C   0  0  0  0  0  0  0  0  0  0  0  0
   10.1133  -15.1797   27.5183 C   0  0  2  0  0  0  0  0  0  0  0  0
   10.3712  -15.5257   26.0837 N   0  0  0  0  0  0  0  0  0  0  0  0
    9.1753  -16.0543   25.4388 C   0  0  0  0  0  0  0  0  0  0  0  0
   11.5315  -16.4168   25.8681 O   0  0  0  0  0  0  0  0  0  0  0  0
   11.3254  -17.5424   25.3114 O   0  0  0  0  0  0  0  0  0  0  0  0
  1  2  1  0
  3  2  1  0
  3  5  1  0
  3  4  1  1
  5  6  1  6
  7  8  2  0
  7  5  1  0
 10 12  1  0
 10  9  1  0
 11 10  2  0
 12 13  1  0
 13 14  1  0
 14 15  1  0
 16 15  1  1
 16 17  1  0
 17  7  1  0
 18 19  2  0
 18 16  1  0
 21 22  1  1
 21 20  1  0
 24 23  1  6
 23 21  1  0
 24 25  1  0
 25 18  1  0
 26 24  1  0
 27 26  2  0
 28 26  1  0
M  END
$$$$
