IRL.pdb
     RDKit          3D

 28 27  0  0  1  0  0  0  0  0999 V2000
    6.5264  -10.2635   26.5952 C   0  0  0  0  0  0  0  0  0  0  0  0
    5.6805  -11.4619   26.2122 C   0  0  0  0  0  0  0  0  0  0  0  0
    6.6424  -12.5721   25.8232 C   0  0  2  0  0  0  0  0  0  0  0  0
    7.5760  -12.1472   24.7400 C   0  0  0  0  0  0  0  0  0  0  0  0
    5.8659  -13.8007   25.3395 C   0  0  2  0  0  0  0  0  0  0  0  0
    5.0804  -14.2220   26.5142 N   0  0  0  0  0  0  0  0  0  0  0  0
    6.8591  -14.8571   25.0586 C   0  0  0  0  0  0  0  0  0  0  0  0
    7.3135  -15.5119   26.0553 O   0  0  0  0  0  0  0  0  0  0  0  0
   11.9957  -17.7520   19.2113 N   0  0  0  0  0  0  0  0  0  0  0  0
   11.5931  -19.0619   19.5897 C   0  0  0  0  0  0  0  0  0  0  0  0
   12.3741  -20.0496   19.3625 N   0  0  0  0  0  0  0  0  0  0  0  0
   10.3224  -19.2129   20.2129 N   0  0  0  0  0  0  0  0  0  0  0  0
    9.5372  -18.0301   20.4961 C   0  0  0  0  0  0  0  0  0  0  0  0
    9.5149  -17.7680   22.0061 C   0  0  0  0  0  0  0  0  0  0  0  0
    8.5809  -16.6075   22.2025 C   0  0  0  0  0  0  0  0  0  0  0  0
    8.2800  -16.3163   23.6618 C   0  0  2  0  0  0  0  0  0  0  0  0
    7.3603  -15.2230   23.7945 N   0  0  0  0  0  0  0  0  0  0  0  0
    9.5295  -16.1339   24.4412 C   0  0  0  0  0  0  0  0  0  0  0  0
   10.2853  -15.1845   24.1643 O   0  0  0  0  0  0  0  0  0  0  0  0
   12.0654  -21.0055   19.5737 C   0  0  0  0  0  0  0  0  0  0  0  0
   10.9120  -14.0792   27.4272 C   0  0  1  0  0  0  0  0  0  0  0  0
   10.0277  -15.2425   27.9047 C   0  0  0  0  0  0  0  0  0  0  0  0
    9.6251  -14.9693   29.3172 C   0  0  0  0  0  0  0  0  0  0  0  0
   10.7900  -16.5277   27.7240 C   0  0  2  0  0  0  0  0  0  0  0  0
   11.1080  -16.8405   26.2938 N   0  0  0  0  0  0  0  0  0  0  0  0
    9.8955  -17.0152   25.5034 C   0  0  0  0  0  0  0  0  0  0  0  0
   12.0345  -17.9779   26.1076 O   0  0  0  0  0  0  0  0  0  0  0  0
   13.1897  -17.9005   26.6359 O   0  0  0  0  0  0  0  0  0  0  0  0
  1  2  1  0
  3  2  1  0
  3  5  1  0
  3  4  1  6
  5  6  1  1
  7  8  2  0
  7  5  1  0
 10 12  1  0
 10  9  1  0
 11 10  2  0
 12 13  1  0
 13 14  1  0
 14 15  1  0
 16 15  1  6
 16 17  1  0
 17  7  1  0
 18 19  2  0
 18 16  1  0
 21 22  1  1
 21 20  1  0
 24 23  1  6
 23 21  1  0
 24 25  1  0
 25 18  1  0
 26 24  1  0
 27 26  2  0
 28 26  1  0
M  END
$$$$
