IRL.pdb
     RDKit          3D

 28 27  0  0  1  0  0  0  0  0999 V2000
    7.1965  -11.6481   19.3603 C   0  0  0  0  0  0  0  0  0  0  0  0
    7.6649  -13.0523   19.0330 C   0  0  0  0  0  0  0  0  0  0  0  0
    7.8651  -13.7685   20.3582 C   0  0  2  0  0  0  0  0  0  0  0  0
    8.7990  -13.0293   21.2563 C   0  0  0  0  0  0  0  0  0  0  0  0
    8.4297  -15.1727   20.1216 C   0  0  2  0  0  0  0  0  0  0  0  0
    7.4008  -15.8480   19.3094 N   0  0  0  0  0  0  0  0  0  0  0  0
    8.4805  -15.8454   21.4354 C   0  0  0  0  0  0  0  0  0  0  0  0
    7.3667  -16.1295   21.9899 O   0  0  0  0  0  0  0  0  0  0  0  0
   11.0101  -21.7787   19.3033 N   0  0  0  0  0  0  0  0  0  0  0  0
   11.3958  -20.9226   20.3708 C   0  0  0  0  0  0  0  0  0  0  0  0
   12.2202  -19.9702   20.1460 N   0  0  0  0  0  0  0  0  0  0  0  0
   10.8372  -21.1697   21.6564 N   0  0  0  0  0  0  0  0  0  0  0  0
   11.0161  -20.1810   22.6985 C   0  0  0  0  0  0  0  0  0  0  0  0
   10.1351  -18.9591   22.4152 C   0  0  0  0  0  0  0  0  0  0  0  0
   10.3080  -18.0510   23.5998 C   0  0  0  0  0  0  0  0  0  0  0  0
    9.5436  -16.7453   23.4749 C   0  0  2  0  0  0  0  0  0  0  0  0
    9.6395  -16.2122   22.1463 N   0  0  0  0  0  0  0  0  0  0  0  0
    9.9510  -15.7823   24.5277 C   0  0  0  0  0  0  0  0  0  0  0  0
   10.2539  -14.6194   24.2034 O   0  0  0  0  0  0  0  0  0  0  0  0
   12.5994  -19.8336   19.2020 C   0  0  0  0  0  0  0  0  0  0  0  0
    8.9735  -12.5605   26.8834 C   0  0  2  0  0  0  0  0  0  0  0  0
    7.9943  -13.4646   26.1171 C   0  0  0  0  0  0  0  0  0  0  0  0
    6.6324  -12.8578   26.2113 C   0  0  0  0  0  0  0  0  0  0  0  0
    8.0843  -14.8557   26.6849 C   0  0  2  0  0  0  0  0  0  0  0  0
    9.4869  -15.2970   26.9716 N   0  0  0  0  0  0  0  0  0  0  0  0
   10.0072  -16.1467   25.9073 C   0  0  0  0  0  0  0  0  0  0  0  0
    9.6711  -15.9282   28.2962 O   0  0  0  0  0  0  0  0  0  0  0  0
    9.4321  -17.1736   28.4033 O   0  0  0  0  0  0  0  0  0  0  0  0
  1  2  1  0
  3  2  1  0
  3  5  1  0
  3  4  1  1
  5  6  1  6
  7  8  2  0
  7  5  1  0
 10 12  1  0
 10  9  1  0
 11 10  2  0
 12 13  1  0
 13 14  1  0
 14 15  1  0
 16 15  1  6
 16 17  1  0
 17  7  1  0
 18 19  2  0
 18 16  1  0
 21 22  1  1
 21 20  1  0
 24 23  1  6
 23 21  1  0
 24 25  1  0
 25 18  1  0
 26 24  1  0
 27 26  2  0
 28 26  1  0
M  END
$$$$
