IRL.pdb
     RDKit          3D

 28 27  0  0  1  0  0  0  0  0999 V2000
    7.1647  -11.6469   19.0485 C   0  0  0  0  0  0  0  0  0  0  0  0
    7.6810  -13.0180   18.6589 C   0  0  0  0  0  0  0  0  0  0  0  0
    7.8474  -13.8069   19.9470 C   0  0  2  0  0  0  0  0  0  0  0  0
    8.7527  -13.1166   20.9109 C   0  0  0  0  0  0  0  0  0  0  0  0
    8.4246  -15.1940   19.6480 C   0  0  2  0  0  0  0  0  0  0  0  0
    7.3860  -15.8545   18.8361 N   0  0  0  0  0  0  0  0  0  0  0  0
    8.5147  -15.9116   20.9356 C   0  0  0  0  0  0  0  0  0  0  0  0
    7.4281  -16.3614   21.4313 O   0  0  0  0  0  0  0  0  0  0  0  0
   11.9504  -20.5881   26.6375 N   0  0  0  0  0  0  0  0  0  0  0  0
   11.2142  -21.4689   25.7987 C   0  0  0  0  0  0  0  0  0  0  0  0
   10.5600  -22.4356   26.3229 N   0  0  0  0  0  0  0  0  0  0  0  0
   11.2404  -21.2283   24.3961 N   0  0  0  0  0  0  0  0  0  0  0  0
   11.7223  -19.9511   23.9144 C   0  0  0  0  0  0  0  0  0  0  0  0
   10.6513  -18.8754   24.1272 C   0  0  0  0  0  0  0  0  0  0  0  0
   10.6277  -18.0702   22.8588 C   0  0  0  0  0  0  0  0  0  0  0  0
    9.6331  -16.9236   22.8913 C   0  0  2  0  0  0  0  0  0  0  0  0
    9.6849  -16.1564   21.6799 N   0  0  0  0  0  0  0  0  0  0  0  0
    9.7998  -16.1033   24.1166 C   0  0  0  0  0  0  0  0  0  0  0  0
   10.8814  -15.5201   24.3150 O   0  0  0  0  0  0  0  0  0  0  0  0
   10.7558  -22.7218   27.2890 C   0  0  0  0  0  0  0  0  0  0  0  0
    7.9078  -12.4218   25.6347 C   0  0  1  0  0  0  0  0  0  0  0  0
    6.9924  -13.6504   25.7601 C   0  0  0  0  0  0  0  0  0  0  0  0
    5.6271  -13.1748   26.1366 C   0  0  0  0  0  0  0  0  0  0  0  0
    7.6035  -14.6023   26.7530 C   0  0  2  0  0  0  0  0  0  0  0  0
    8.9099  -15.1813   26.3032 N   0  0  0  0  0  0  0  0  0  0  0  0
    8.7559  -15.9599   25.0803 C   0  0  0  0  0  0  0  0  0  0  0  0
    9.6264  -15.9540   27.3407 O   0  0  0  0  0  0  0  0  0  0  0  0
    9.5055  -17.2209   27.3326 O   0  0  0  0  0  0  0  0  0  0  0  0
  1  2  1  0
  3  2  1  0
  3  5  1  0
  3  4  1  1
  5  6  1  6
  7  8  2  0
  7  5  1  0
 10 12  1  0
 10  9  1  0
 11 10  2  0
 12 13  1  0
 13 14  1  0
 14 15  1  0
 16 15  1  6
 16 17  1  0
 17  7  1  0
 18 19  2  0
 18 16  1  0
 21 22  1  1
 21 20  1  0
 24 23  1  6
 23 21  1  0
 24 25  1  0
 25 18  1  0
 26 24  1  0
 27 26  2  0
 28 26  1  0
M  END
$$$$
