IRL.pdb
     RDKit          3D

 28 27  0  0  1  0  0  0  0  0999 V2000
    7.3788  -11.6078   18.9721 C   0  0  0  0  0  0  0  0  0  0  0  0
    7.6897  -13.0693   18.7159 C   0  0  0  0  0  0  0  0  0  0  0  0
    7.7493  -13.7501   20.0732 C   0  0  2  0  0  0  0  0  0  0  0  0
    8.8046  -13.1604   20.9472 C   0  0  0  0  0  0  0  0  0  0  0  0
    8.0392  -15.2447   19.9041 C   0  0  2  0  0  0  0  0  0  0  0  0
    6.8772  -15.7598   19.1566 N   0  0  0  0  0  0  0  0  0  0  0  0
    8.0105  -15.8460   21.2527 C   0  0  0  0  0  0  0  0  0  0  0  0
    6.8673  -16.0085   21.7960 O   0  0  0  0  0  0  0  0  0  0  0  0
   11.6389  -22.6597   24.6015 N   0  0  0  0  0  0  0  0  0  0  0  0
   12.1330  -21.5340   25.3156 C   0  0  0  0  0  0  0  0  0  0  0  0
   13.1689  -21.6643   26.0553 N   0  0  0  0  0  0  0  0  0  0  0  0
   11.4416  -20.2985   25.1701 N   0  0  0  0  0  0  0  0  0  0  0  0
   10.1513  -20.2920   24.5138 C   0  0  0  0  0  0  0  0  0  0  0  0
    9.4886  -18.9199   24.6793 C   0  0  0  0  0  0  0  0  0  0  0  0
    9.5899  -18.2558   23.3353 C   0  0  0  0  0  0  0  0  0  0  0  0
    8.9431  -16.8830   23.2910 C   0  0  2  0  0  0  0  0  0  0  0  0
    9.1224  -16.2653   22.0085 N   0  0  0  0  0  0  0  0  0  0  0  0
    9.4000  -16.0379   24.4219 C   0  0  0  0  0  0  0  0  0  0  0  0
   10.5644  -15.5979   24.4199 O   0  0  0  0  0  0  0  0  0  0  0  0
   13.5254  -20.8595   26.5833 C   0  0  0  0  0  0  0  0  0  0  0  0
    8.2028  -12.2113   25.5829 C   0  0  1  0  0  0  0  0  0  0  0  0
    7.2242  -13.2631   26.1299 C   0  0  0  0  0  0  0  0  0  0  0  0
    5.9972  -12.5536   26.6021 C   0  0  0  0  0  0  0  0  0  0  0  0
    7.9237  -14.0543   27.2025 C   0  0  2  0  0  0  0  0  0  0  0  0
    8.9998  -14.9551   26.6781 N   0  0  0  0  0  0  0  0  0  0  0  0
    8.5446  -15.7108   25.5174 C   0  0  0  0  0  0  0  0  0  0  0  0
    9.5997  -15.8472   27.6935 O   0  0  0  0  0  0  0  0  0  0  0  0
   10.1383  -15.3128   28.7153 O   0  0  0  0  0  0  0  0  0  0  0  0
  1  2  1  0
  3  2  1  0
  3  5  1  0
  3  4  1  1
  5  6  1  6
  7  8  2  0
  7  5  1  0
 10 12  1  0
 10  9  1  0
 11 10  2  0
 12 13  1  0
 13 14  1  0
 14 15  1  0
 16 15  1  6
 16 17  1  0
 17  7  1  0
 18 19  2  0
 18 16  1  0
 21 22  1  1
 21 20  1  0
 24 23  1  6
 23 21  1  0
 24 25  1  0
 25 18  1  0
 26 24  1  0
 27 26  2  0
 28 26  1  0
M  END
$$$$
