IRL.pdb
     RDKit          3D

 28 27  0  0  1  0  0  0  0  0999 V2000
    7.8260  -19.1395   28.6154 C   0  0  0  0  0  0  0  0  0  0  0  0
    7.9395  -19.5084   27.1493 C   0  0  0  0  0  0  0  0  0  0  0  0
    6.5220  -19.6097   26.6110 C   0  0  2  0  0  0  0  0  0  0  0  0
    5.7160  -20.6246   27.3496 C   0  0  0  0  0  0  0  0  0  0  0  0
    6.5446  -19.9941   25.1284 C   0  0  2  0  0  0  0  0  0  0  0  0
    7.3754  -21.2113   25.0792 N   0  0  0  0  0  0  0  0  0  0  0  0
    7.2703  -18.9236   24.4151 C   0  0  0  0  0  0  0  0  0  0  0  0
    8.5340  -19.0542   24.2947 O   0  0  0  0  0  0  0  0  0  0  0  0
    7.4784  -12.3318   18.5785 N   0  0  0  0  0  0  0  0  0  0  0  0
    7.7667  -13.6776   18.2224 C   0  0  0  0  0  0  0  0  0  0  0  0
    8.2955  -13.9269   17.0842 N   0  0  0  0  0  0  0  0  0  0  0  0
    7.4492  -14.6971   19.1635 N   0  0  0  0  0  0  0  0  0  0  0  0
    6.8952  -14.3173   20.4459 C   0  0  0  0  0  0  0  0  0  0  0  0
    7.7362  -14.9201   21.5767 C   0  0  0  0  0  0  0  0  0  0  0  0
    6.8470  -15.9260   22.2514 C   0  0  0  0  0  0  0  0  0  0  0  0
    7.5501  -16.7184   23.3389 C   0  0  2  0  0  0  0  0  0  0  0  0
    6.7089  -17.7641   23.8462 N   0  0  0  0  0  0  0  0  0  0  0  0
    8.0813  -15.8234   24.3966 C   0  0  0  0  0  0  0  0  0  0  0  0
    7.4555  -14.7872   24.6867 O   0  0  0  0  0  0  0  0  0  0  0  0
    8.5820  -14.8848   16.8516 C   0  0  0  0  0  0  0  0  0  0  0  0
    8.5775  -13.0165   26.7506 C   0  0  2  0  0  0  0  0  0  0  0  0
    8.9463  -14.3432   27.4339 C   0  0  0  0  0  0  0  0  0  0  0  0
    8.9227  -14.1258   28.9118 C   0  0  0  0  0  0  0  0  0  0  0  0
   10.2794  -14.7991   26.9043 C   0  0  2  0  0  0  0  0  0  0  0  0
   10.2737  -15.0890   25.4345 N   0  0  0  0  0  0  0  0  0  0  0  0
    9.2921  -16.1124   25.0962 C   0  0  0  0  0  0  0  0  0  0  0  0
   11.6009  -15.4156   24.8701 O   0  0  0  0  0  0  0  0  0  0  0  0
   11.7837  -16.5891   24.4129 O   0  0  0  0  0  0  0  0  0  0  0  0
  1  2  1  0
  3  2  1  0
  3  5  1  0
  3  4  1  1
  5  6  1  1
  7  8  2  0
  7  5  1  0
 10 12  1  0
 10  9  1  0
 11 10  2  0
 12 13  1  0
 13 14  1  0
 14 15  1  0
 16 15  1  6
 16 17  1  0
 17  7  1  0
 18 19  2  0
 18 16  1  0
 21 22  1  6
 21 20  1  0
 24 23  1  6
 23 21  1  0
 24 25  1  0
 25 18  1  0
 26 24  1  0
 27 26  2  0
 28 26  1  0
M  END
$$$$
