IRL.pdb
     RDKit          3D

 28 27  0  0  1  0  0  0  0  0999 V2000
    7.3741  -11.8921   20.0659 C   0  0  0  0  0  0  0  0  0  0  0  0
    7.3093  -13.3949   19.8766 C   0  0  0  0  0  0  0  0  0  0  0  0
    8.6851  -13.8381   19.4078 C   0  0  2  0  0  0  0  0  0  0  0  0
    9.0216  -13.2846   18.0641 C   0  0  0  0  0  0  0  0  0  0  0  0
    8.7525  -15.3666   19.3332 C   0  0  2  0  0  0  0  0  0  0  0  0
    7.6786  -15.7340   18.3918 N   0  0  0  0  0  0  0  0  0  0  0  0
    8.3793  -15.8815   20.6662 C   0  0  0  0  0  0  0  0  0  0  0  0
    7.1358  -16.0422   20.9035 O   0  0  0  0  0  0  0  0  0  0  0  0
   12.0658  -20.2434   20.6772 N   0  0  0  0  0  0  0  0  0  0  0  0
   12.7817  -20.5475   21.8672 C   0  0  0  0  0  0  0  0  0  0  0  0
   13.9980  -20.9364   21.7867 N   0  0  0  0  0  0  0  0  0  0  0  0
   12.1009  -20.4013   23.1086 N   0  0  0  0  0  0  0  0  0  0  0  0
   10.7022  -20.0281   23.0995 C   0  0  0  0  0  0  0  0  0  0  0  0
   10.5695  -18.5037   23.0116 C   0  0  0  0  0  0  0  0  0  0  0  0
    9.0965  -18.2193   23.0958 C   0  0  0  0  0  0  0  0  0  0  0  0
    8.7576  -16.7468   22.9482 C   0  0  2  0  0  0  0  0  0  0  0  0
    9.2598  -16.2195   21.7120 N   0  0  0  0  0  0  0  0  0  0  0  0
    9.1915  -15.9744   24.1386 C   0  0  0  0  0  0  0  0  0  0  0  0
   10.3599  -15.5489   24.1941 O   0  0  0  0  0  0  0  0  0  0  0  0
   14.5439  -21.0904   22.6422 C   0  0  0  0  0  0  0  0  0  0  0  0
    8.0168  -12.1601   25.7858 C   0  0  1  0  0  0  0  0  0  0  0  0
    6.9697  -13.2331   26.1258 C   0  0  0  0  0  0  0  0  0  0  0  0
    5.7726  -12.5475   26.6990 C   0  0  0  0  0  0  0  0  0  0  0  0
    7.5996  -14.2390   27.0516 C   0  0  2  0  0  0  0  0  0  0  0  0
    8.7333  -14.9972   26.4317 N   0  0  0  0  0  0  0  0  0  0  0  0
    8.3093  -15.7015   25.2278 C   0  0  0  0  0  0  0  0  0  0  0  0
    9.4418  -15.9052   27.3593 O   0  0  0  0  0  0  0  0  0  0  0  0
    9.2129  -17.1535   27.2650 O   0  0  0  0  0  0  0  0  0  0  0  0
  1  2  1  0
  3  2  1  0
  3  5  1  0
  3  4  1  6
  5  6  1  6
  7  8  2  0
  7  5  1  0
 10 12  1  0
 10  9  1  0
 11 10  2  0
 12 13  1  0
 13 14  1  0
 14 15  1  0
 16 15  1  1
 16 17  1  0
 17  7  1  0
 18 19  2  0
 18 16  1  0
 21 22  1  1
 21 20  1  0
 24 23  1  6
 23 21  1  0
 24 25  1  0
 25 18  1  0
 26 24  1  0
 27 26  2  0
 28 26  1  0
M  END
$$$$
