IRL.pdb
     RDKit          3D

 28 27  0  0  1  0  0  0  0  0999 V2000
    7.5108  -11.7830   18.3251 C   0  0  0  0  0  0  0  0  0  0  0  0
    8.1571  -13.1374   18.1103 C   0  0  0  0  0  0  0  0  0  0  0  0
    8.0565  -13.8861   19.4288 C   0  0  2  0  0  0  0  0  0  0  0  0
    8.7927  -13.1896   20.5234 C   0  0  0  0  0  0  0  0  0  0  0  0
    8.6301  -15.2987   19.2811 C   0  0  2  0  0  0  0  0  0  0  0  0
    7.7578  -15.9447   18.2831 N   0  0  0  0  0  0  0  0  0  0  0  0
    8.4245  -15.9861   20.5721 C   0  0  0  0  0  0  0  0  0  0  0  0
    7.2200  -16.2107   20.9292 O   0  0  0  0  0  0  0  0  0  0  0  0
   13.9818  -18.4349   21.7542 N   0  0  0  0  0  0  0  0  0  0  0  0
   13.4986  -19.6142   21.1242 C   0  0  0  0  0  0  0  0  0  0  0  0
   14.0508  -20.0209   20.0440 N   0  0  0  0  0  0  0  0  0  0  0  0
   12.4086  -20.2956   21.7353 N   0  0  0  0  0  0  0  0  0  0  0  0
   11.7580  -19.6909   22.8784 C   0  0  0  0  0  0  0  0  0  0  0  0
   11.2075  -18.3124   22.4965 C   0  0  0  0  0  0  0  0  0  0  0  0
    9.7851  -18.2954   22.9806 C   0  0  0  0  0  0  0  0  0  0  0  0
    9.0820  -16.9717   22.7391 C   0  0  2  0  0  0  0  0  0  0  0  0
    9.4271  -16.4264   21.4576 N   0  0  0  0  0  0  0  0  0  0  0  0
    9.3114  -16.0295   23.8622 C   0  0  0  0  0  0  0  0  0  0  0  0
   10.3611  -15.3612   23.8901 O   0  0  0  0  0  0  0  0  0  0  0  0
   13.7232  -20.8839   19.5951 C   0  0  0  0  0  0  0  0  0  0  0  0
    6.0191  -12.4223   27.4951 C   0  0  1  0  0  0  0  0  0  0  0  0
    7.4100  -13.0358   27.2663 C   0  0  0  0  0  0  0  0  0  0  0  0
    8.3755  -11.9205   27.0304 C   0  0  0  0  0  0  0  0  0  0  0  0
    7.3184  -14.0161   26.1278 C   0  0  2  0  0  0  0  0  0  0  0  0
    8.5314  -14.8834   25.9839 N   0  0  0  0  0  0  0  0  0  0  0  0
    8.3636  -15.8630   24.9172 C   0  0  0  0  0  0  0  0  0  0  0  0
    8.9731  -15.5307   27.2379 O   0  0  0  0  0  0  0  0  0  0  0  0
    8.4800  -16.6670   27.5298 O   0  0  0  0  0  0  0  0  0  0  0  0
  1  2  1  0
  3  2  1  0
  3  5  1  0
  3  4  1  1
  5  6  1  6
  7  8  2  0
  7  5  1  0
 10 12  1  0
 10  9  1  0
 11 10  2  0
 12 13  1  0
 13 14  1  0
 14 15  1  0
 16 15  1  1
 16 17  1  0
 17  7  1  0
 18 19  2  0
 18 16  1  0
 21 22  1  6
 21 20  1  0
 24 23  1  6
 23 21  1  0
 24 25  1  0
 25 18  1  0
 26 24  1  0
 27 26  2  0
 28 26  1  0
M  END
$$$$
