NCE.pdb
     RDKit          3D

 24 23  0  0  1  0  0  0  0  0999 V2000
   16.4777  -13.7345  -15.2131 N   0  0  0  0  0  0  0  0  0  0  0  0
   16.8549  -12.8795  -16.2752 C   0  0  0  0  0  0  0  0  0  0  0  0
   17.2211  -13.4292  -17.3608 O   0  0  0  0  0  0  0  0  0  0  0  0
   16.8369  -11.4001  -16.1663 C   0  0  0  0  0  0  0  0  0  0  0  0
   16.3084  -11.0317  -14.8017 C   0  0  2  0  0  0  0  0  0  0  0  0
   14.8585  -11.2597  -14.8230 N   0  0  0  0  0  0  0  0  0  0  0  0
   16.5832   -9.6311  -14.4419 C   0  0  0  0  0  0  0  0  0  0  0  0
   16.1413   -8.6286  -15.0673 O   0  0  0  0  0  0  0  0  0  0  0  0
   17.3995   -9.3549  -13.3173 N   0  0  0  0  0  0  0  0  0  0  0  0
   17.8037   -8.0298  -12.9271 C   0  0  1  0  0  0  0  0  0  0  0  0
   17.5102   -7.8441  -11.4332 C   0  0  0  0  0  0  0  0  0  0  0  0
   18.2882   -9.2514  -10.5822 S   0  0  0  0  0  0  0  0  0  0  0  0
   19.2173   -7.7383  -13.1182 C   0  0  0  0  0  0  0  0  0  0  0  0
   20.0318   -8.6656  -13.3015 O   0  0  0  0  0  0  0  0  0  0  0  0
   19.6734   -6.4058  -13.0987 N   0  0  0  0  0  0  0  0  0  0  0  0
   21.0629   -6.0303  -13.4275 C   0  0  1  0  0  0  0  0  0  0  0  0
   21.2765   -6.4137  -14.8602 C   0  0  0  0  0  0  0  0  0  0  0  0
   22.6145   -6.1081  -15.4294 C   0  0  0  0  0  0  0  0  0  0  0  0
   22.7512   -6.4119  -16.8699 C   0  0  0  0  0  0  0  0  0  0  0  0
   23.8250   -6.1309  -17.4890 O   0  0  0  0  0  0  0  0  0  0  0  0
   21.2150   -4.5627  -13.2990 C   0  0  0  0  0  0  0  0  0  0  0  0
   22.4059   -3.9334  -13.0198 O   0  0  0  0  0  0  0  0  0  0  0  0
   21.6703   -7.0200  -17.5424 O   0  0  0  0  0  0  0  0  0  0  0  0
   20.2008   -3.8239  -13.4515 O   0  0  0  0  0  0  0  0  0  0  0  0
  2  1  1  0
  3  2  2  0
  4  2  1  0
  4  5  1  0
  5  6  1  6
  7  5  1  0
  7  8  2  0
  9  7  1  0
 10  9  1  0
 10 13  1  0
 10 11  1  1
 12 11  1  0
 13 15  1  0
 14 13  2  0
 15 16  1  0
 16 21  1  0
 16 17  1  6
 18 17  1  0
 19 23  1  0
 19 18  1  0
 20 19  2  0
 21 24  2  0
 21 22  1  0
M  END
$$$$
