NCE.pdb
     RDKit          3D

 24 23  0  0  1  0  0  0  0  0999 V2000
   18.1924  -13.9310  -19.6411 N   0  0  0  0  0  0  0  0  0  0  0  0
   18.9143  -12.8164  -19.1533 C   0  0  0  0  0  0  0  0  0  0  0  0
   19.4727  -12.0651  -20.0128 O   0  0  0  0  0  0  0  0  0  0  0  0
   19.0375  -12.5035  -17.7084 C   0  0  0  0  0  0  0  0  0  0  0  0
   20.4916  -12.2401  -17.4028 C   0  0  2  0  0  0  0  0  0  0  0  0
   21.1384  -13.5449  -17.2185 N   0  0  0  0  0  0  0  0  0  0  0  0
   20.6818  -11.4194  -16.1958 C   0  0  0  0  0  0  0  0  0  0  0  0
   20.4598  -11.8118  -15.0176 O   0  0  0  0  0  0  0  0  0  0  0  0
   21.1470  -10.0881  -16.3329 N   0  0  0  0  0  0  0  0  0  0  0  0
   21.4743   -9.2355  -15.2205 C   0  0  1  0  0  0  0  0  0  0  0  0
   22.6436   -9.8588  -14.4482 C   0  0  0  0  0  0  0  0  0  0  0  0
   24.0004  -10.0502  -15.6450 S   0  0  0  0  0  0  0  0  0  0  0  0
   21.8800   -7.8846  -15.5813 C   0  0  0  0  0  0  0  0  0  0  0  0
   22.7230   -7.7005  -16.4827 O   0  0  0  0  0  0  0  0  0  0  0  0
   21.3212   -6.7767  -14.9149 N   0  0  0  0  0  0  0  0  0  0  0  0
   21.5999   -5.3814  -15.3088 C   0  0  1  0  0  0  0  0  0  0  0  0
   20.2880   -4.6589  -15.2618 C   0  0  0  0  0  0  0  0  0  0  0  0
   20.3065   -3.2355  -15.6872 C   0  0  0  0  0  0  0  0  0  0  0  0
   18.9931   -2.5595  -15.6215 C   0  0  0  0  0  0  0  0  0  0  0  0
   18.8151   -1.5709  -14.8428 O   0  0  0  0  0  0  0  0  0  0  0  0
   22.5169   -4.7692  -14.3200 C   0  0  0  0  0  0  0  0  0  0  0  0
   23.4995   -3.8612  -14.6398 O   0  0  0  0  0  0  0  0  0  0  0  0
   17.9442   -3.0302  -16.4392 O   0  0  0  0  0  0  0  0  0  0  0  0
   22.4073   -5.0864  -13.1013 O   0  0  0  0  0  0  0  0  0  0  0  0
  2  1  1  0
  3  2  2  0
  4  2  1  0
  4  5  1  0
  5  6  1  1
  7  5  1  0
  7  8  2  0
  9  7  1  0
 10  9  1  0
 10 13  1  0
 10 11  1  6
 12 11  1  0
 13 15  1  0
 14 13  2  0
 15 16  1  0
 16 21  1  0
 16 17  1  1
 18 17  1  0
 19 23  1  0
 19 18  1  0
 20 19  2  0
 21 24  2  0
 21 22  1  0
M  END
$$$$
