NCE.pdb
     RDKit          3D

 24 23  0  0  1  0  0  0  0  0999 V2000
   26.3372  -13.6186  -19.0148 N   0  0  0  0  0  0  0  0  0  0  0  0
   26.2412  -13.2725  -17.6464 C   0  0  0  0  0  0  0  0  0  0  0  0
   25.4344  -13.9465  -16.9325 O   0  0  0  0  0  0  0  0  0  0  0  0
   27.0317  -12.1772  -17.0331 C   0  0  0  0  0  0  0  0  0  0  0  0
   27.9143  -11.5754  -18.0989 C   0  0  2  0  0  0  0  0  0  0  0  0
   28.9367  -12.5753  -18.4297 N   0  0  0  0  0  0  0  0  0  0  0  0
   28.5648  -10.3284  -17.6646 C   0  0  0  0  0  0  0  0  0  0  0  0
   27.9551   -9.3153  -17.2250 O   0  0  0  0  0  0  0  0  0  0  0  0
   29.9763  -10.2266  -17.7324 N   0  0  0  0  0  0  0  0  0  0  0  0
   30.7170   -9.0677  -17.3084 C   0  0  1  0  0  0  0  0  0  0  0  0
   32.1434   -9.4990  -16.9457 C   0  0  0  0  0  0  0  0  0  0  0  0
   32.9625   -8.0261  -16.2604 S   0  0  0  0  0  0  0  0  0  0  0  0
   30.8362   -8.0160  -18.3081 C   0  0  0  0  0  0  0  0  0  0  0  0
   31.3670   -8.2544  -19.4119 O   0  0  0  0  0  0  0  0  0  0  0  0
   30.3508   -6.7224  -18.0349 N   0  0  0  0  0  0  0  0  0  0  0  0
   30.4223   -5.6175  -19.0116 C   0  0  1  0  0  0  0  0  0  0  0  0
   29.2434   -4.7343  -18.7376 C   0  0  0  0  0  0  0  0  0  0  0  0
   29.1324   -3.5095  -19.5713 C   0  0  0  0  0  0  0  0  0  0  0  0
   27.9218   -2.7006  -19.3135 C   0  0  0  0  0  0  0  0  0  0  0  0
   27.6767   -2.2611  -18.1463 O   0  0  0  0  0  0  0  0  0  0  0  0
   31.6628   -4.8419  -18.7809 C   0  0  0  0  0  0  0  0  0  0  0  0
   32.3164   -4.7759  -17.5724 O   0  0  0  0  0  0  0  0  0  0  0  0
   27.0470   -2.4248  -20.3854 O   0  0  0  0  0  0  0  0  0  0  0  0
   32.1695   -4.1933  -19.7403 O   0  0  0  0  0  0  0  0  0  0  0  0
  2  1  1  0
  3  2  2  0
  4  2  1  0
  4  5  1  0
  5  6  1  1
  7  5  1  0
  7  8  2  0
  9  7  1  0
 10  9  1  0
 10 13  1  0
 10 11  1  6
 12 11  1  0
 13 15  1  0
 14 13  2  0
 15 16  1  0
 16 21  1  0
 16 17  1  1
 18 17  1  0
 19 23  1  0
 19 18  1  0
 20 19  2  0
 21 24  2  0
 21 22  1  0
M  END
$$$$
