NCE.pdb
     RDKit          3D

 24 23  0  0  1  0  0  0  0  0999 V2000
   17.8564  -13.0677  -18.5455 N   0  0  0  0  0  0  0  0  0  0  0  0
   19.1423  -12.5763  -18.2192 C   0  0  0  0  0  0  0  0  0  0  0  0
   20.1412  -13.2307  -18.6538 O   0  0  0  0  0  0  0  0  0  0  0  0
   19.3575  -11.3532  -17.4077 C   0  0  0  0  0  0  0  0  0  0  0  0
   20.5162  -11.6020  -16.4735 C   0  0  2  0  0  0  0  0  0  0  0  0
   20.0390  -12.5115  -15.4248 N   0  0  0  0  0  0  0  0  0  0  0  0
   21.0305  -10.3668  -15.8601 C   0  0  0  0  0  0  0  0  0  0  0  0
   20.4915   -9.7683  -14.8891 O   0  0  0  0  0  0  0  0  0  0  0  0
   22.2146   -9.7824  -16.3737 N   0  0  0  0  0  0  0  0  0  0  0  0
   22.8084   -8.5814  -15.8478 C   0  0  1  0  0  0  0  0  0  0  0  0
   24.3345   -8.7309  -15.8786 C   0  0  0  0  0  0  0  0  0  0  0  0
   24.7786   -9.7259  -14.4216 S   0  0  0  0  0  0  0  0  0  0  0  0
   22.4892   -7.3662  -16.5834 C   0  0  0  0  0  0  0  0  0  0  0  0
   22.5457   -7.3520  -17.8298 O   0  0  0  0  0  0  0  0  0  0  0  0
   22.1128   -6.1989  -15.8910 N   0  0  0  0  0  0  0  0  0  0  0  0
   21.7098   -4.9555  -16.5776 C   0  0  1  0  0  0  0  0  0  0  0  0
   20.7619   -4.2515  -15.6551 C   0  0  0  0  0  0  0  0  0  0  0  0
   20.2147   -2.9574  -16.1382 C   0  0  0  0  0  0  0  0  0  0  0  0
   19.2461   -2.3210  -15.2200 C   0  0  0  0  0  0  0  0  0  0  0  0
   18.9479   -2.8724  -14.1143 O   0  0  0  0  0  0  0  0  0  0  0  0
   22.9025   -4.1007  -16.7788 C   0  0  0  0  0  0  0  0  0  0  0  0
   23.1235   -3.3392  -17.9028 O   0  0  0  0  0  0  0  0  0  0  0  0
   18.6619   -1.0921  -15.5926 O   0  0  0  0  0  0  0  0  0  0  0  0
   23.7842   -4.0531  -15.8743 O   0  0  0  0  0  0  0  0  0  0  0  0
  2  1  1  0
  3  2  2  0
  4  2  1  0
  4  5  1  0
  5  6  1  1
  7  5  1  0
  7  8  2  0
  9  7  1  0
 10  9  1  0
 10 13  1  0
 10 11  1  6
 12 11  1  0
 13 15  1  0
 14 13  2  0
 15 16  1  0
 16 21  1  0
 16 17  1  1
 18 17  1  0
 19 23  1  0
 19 18  1  0
 20 19  2  0
 21 24  2  0
 21 22  1  0
M  END
$$$$
