NCE.pdb
     RDKit          3D

 24 23  0  0  1  0  0  0  0  0999 V2000
   27.9995  -22.8130  -17.6947 N   0  0  0  0  0  0  0  0  0  0  0  0
   28.3074  -22.4777  -16.3552 C   0  0  0  0  0  0  0  0  0  0  0  0
   29.4260  -21.9143  -16.1403 O   0  0  0  0  0  0  0  0  0  0  0  0
   27.3907  -22.7547  -15.2222 C   0  0  0  0  0  0  0  0  0  0  0  0
   26.5360  -21.5320  -14.9942 C   0  0  2  0  0  0  0  0  0  0  0  0
   27.4209  -20.4723  -14.4955 N   0  0  0  0  0  0  0  0  0  0  0  0
   25.4512  -21.7659  -14.0272 C   0  0  0  0  0  0  0  0  0  0  0  0
   24.4512  -22.5064  -14.2344 O   0  0  0  0  0  0  0  0  0  0  0  0
   25.5041  -21.1281  -12.7632 N   0  0  0  0  0  0  0  0  0  0  0  0
   24.4463  -21.1911  -11.7893 C   0  0  1  0  0  0  0  0  0  0  0  0
   24.9660  -20.6322  -10.4590 C   0  0  0  0  0  0  0  0  0  0  0  0
   26.4536  -21.5956  -10.0479 S   0  0  0  0  0  0  0  0  0  0  0  0
   23.2532  -20.4290  -12.1291 C   0  0  0  0  0  0  0  0  0  0  0  0
   23.3443  -19.2253  -12.4451 O   0  0  0  0  0  0  0  0  0  0  0  0
   21.9881  -21.0476  -12.1045 N   0  0  0  0  0  0  0  0  0  0  0  0
   20.8963  -20.6744  -13.0256 C   0  0  1  0  0  0  0  0  0  0  0  0
   21.3428  -21.0810  -14.3970 C   0  0  0  0  0  0  0  0  0  0  0  0
   20.4111  -20.7673  -15.5110 C   0  0  0  0  0  0  0  0  0  0  0  0
   20.8705  -21.2230  -16.8404 C   0  0  0  0  0  0  0  0  0  0  0  0
   20.5431  -22.3708  -17.2771 O   0  0  0  0  0  0  0  0  0  0  0  0
   19.6784  -21.4403  -12.6743 C   0  0  0  0  0  0  0  0  0  0  0  0
   18.4011  -20.9365  -12.7571 O   0  0  0  0  0  0  0  0  0  0  0  0
   21.6756  -20.3608  -17.6142 O   0  0  0  0  0  0  0  0  0  0  0  0
   19.7969  -22.6325  -12.2712 O   0  0  0  0  0  0  0  0  0  0  0  0
  2  1  1  0
  3  2  2  0
  4  2  1  0
  4  5  1  0
  5  6  1  1
  7  5  1  0
  7  8  2  0
  9  7  1  0
 10  9  1  0
 10 13  1  0
 10 11  1  1
 12 11  1  0
 13 15  1  0
 14 13  2  0
 15 16  1  0
 16 21  1  0
 16 17  1  6
 18 17  1  0
 19 23  1  0
 19 18  1  0
 20 19  2  0
 21 24  2  0
 21 22  1  0
M  END
$$$$
