NCE.pdb
     RDKit          3D

 24 23  0  0  1  0  0  0  0  0999 V2000
   19.6462  -13.7518  -18.7744 N   0  0  0  0  0  0  0  0  0  0  0  0
   19.8492  -14.0563  -17.4078 C   0  0  0  0  0  0  0  0  0  0  0  0
   19.3902  -15.1636  -16.9856 O   0  0  0  0  0  0  0  0  0  0  0  0
   20.5623  -13.1491  -16.4755 C   0  0  0  0  0  0  0  0  0  0  0  0
   20.9535  -11.9037  -17.2325 C   0  0  2  0  0  0  0  0  0  0  0  0
   22.0532  -12.2717  -18.1324 N   0  0  0  0  0  0  0  0  0  0  0  0
   21.3843  -10.8093  -16.3475 C   0  0  0  0  0  0  0  0  0  0  0  0
   20.7214  -10.3758  -15.3656 O   0  0  0  0  0  0  0  0  0  0  0  0
   22.6286  -10.1759  -16.5886 N   0  0  0  0  0  0  0  0  0  0  0  0
   23.1716   -9.1342  -15.7570 C   0  0  1  0  0  0  0  0  0  0  0  0
   24.6855   -9.0559  -15.9894 C   0  0  0  0  0  0  0  0  0  0  0  0
   25.4046  -10.5046  -15.1562 S   0  0  0  0  0  0  0  0  0  0  0  0
   22.6368   -7.8043  -16.0120 C   0  0  0  0  0  0  0  0  0  0  0  0
   22.7677   -7.2783  -17.1359 O   0  0  0  0  0  0  0  0  0  0  0  0
   21.9665   -7.1039  -14.9902 N   0  0  0  0  0  0  0  0  0  0  0  0
   21.4948   -5.7139  -15.1488 C   0  0  1  0  0  0  0  0  0  0  0  0
   20.0322   -5.7242  -14.8232 C   0  0  0  0  0  0  0  0  0  0  0  0
   19.1434   -6.3839  -15.8143 C   0  0  0  0  0  0  0  0  0  0  0  0
   17.7134   -6.4011  -15.4386 C   0  0  0  0  0  0  0  0  0  0  0  0
   16.8837   -5.6370  -16.0244 O   0  0  0  0  0  0  0  0  0  0  0  0
   22.1943   -4.8469  -14.1729 C   0  0  0  0  0  0  0  0  0  0  0  0
   22.9866   -5.3192  -13.1524 O   0  0  0  0  0  0  0  0  0  0  0  0
   17.2879   -7.2811  -14.4213 O   0  0  0  0  0  0  0  0  0  0  0  0
   22.0695   -3.5924  -14.2650 O   0  0  0  0  0  0  0  0  0  0  0  0
  2  1  1  0
  3  2  2  0
  4  2  1  0
  4  5  1  0
  5  6  1  6
  7  5  1  0
  7  8  2  0
  9  7  1  0
 10  9  1  0
 10 13  1  0
 10 11  1  6
 12 11  1  0
 13 15  1  0
 14 13  2  0
 15 16  1  0
 16 21  1  0
 16 17  1  1
 18 17  1  0
 19 23  1  0
 19 18  1  0
 20 19  2  0
 21 24  2  0
 21 22  1  0
M  END
$$$$
