NCE.pdb
     RDKit          3D

 24 23  0  0  1  0  0  0  0  0999 V2000
   16.1367  -13.1650  -17.0788 N   0  0  0  0  0  0  0  0  0  0  0  0
   17.5142  -12.8623  -17.1904 C   0  0  0  0  0  0  0  0  0  0  0  0
   18.0984  -13.2047  -18.2658 O   0  0  0  0  0  0  0  0  0  0  0  0
   18.2793  -12.1756  -16.1210 C   0  0  0  0  0  0  0  0  0  0  0  0
   19.7287  -12.1184  -16.5372 C   0  0  2  0  0  0  0  0  0  0  0  0
   20.2820  -13.4671  -16.3649 N   0  0  0  0  0  0  0  0  0  0  0  0
   20.5129  -11.1575  -15.7447 C   0  0  0  0  0  0  0  0  0  0  0  0
   20.2928  -10.8748  -14.5351 O   0  0  0  0  0  0  0  0  0  0  0  0
   21.6003  -10.4846  -16.3548 N   0  0  0  0  0  0  0  0  0  0  0  0
   22.4355   -9.5305  -15.6741 C   0  0  1  0  0  0  0  0  0  0  0  0
   23.9044   -9.9040  -15.9090 C   0  0  0  0  0  0  0  0  0  0  0  0
   24.2795  -11.2523  -14.7464 S   0  0  0  0  0  0  0  0  0  0  0  0
   22.2760   -8.1517  -16.1136 C   0  0  0  0  0  0  0  0  0  0  0  0
   22.0646   -7.8952  -17.3163 O   0  0  0  0  0  0  0  0  0  0  0  0
   22.3579   -7.0986  -15.1820 N   0  0  0  0  0  0  0  0  0  0  0  0
   21.9557   -5.7143  -15.5009 C   0  0  1  0  0  0  0  0  0  0  0  0
   20.4907   -5.7610  -15.8124 C   0  0  0  0  0  0  0  0  0  0  0  0
   19.8513   -4.4654  -16.1590 C   0  0  0  0  0  0  0  0  0  0  0  0
   18.4187   -4.5643  -16.5111 C   0  0  0  0  0  0  0  0  0  0  0  0
   17.7044   -5.5077  -16.0471 O   0  0  0  0  0  0  0  0  0  0  0  0
   22.1627   -4.8592  -14.3095 C   0  0  0  0  0  0  0  0  0  0  0  0
   22.4348   -3.5121  -14.3662 O   0  0  0  0  0  0  0  0  0  0  0  0
   17.8603   -3.5929  -17.3684 O   0  0  0  0  0  0  0  0  0  0  0  0
   22.0892   -5.3790  -13.1596 O   0  0  0  0  0  0  0  0  0  0  0  0
  2  1  1  0
  3  2  2  0
  4  2  1  0
  4  5  1  0
  5  6  1  1
  7  5  1  0
  7  8  2  0
  9  7  1  0
 10  9  1  0
 10 13  1  0
 10 11  1  6
 12 11  1  0
 13 15  1  0
 14 13  2  0
 15 16  1  0
 16 21  1  0
 16 17  1  1
 18 17  1  0
 19 23  1  0
 19 18  1  0
 20 19  2  0
 21 24  2  0
 21 22  1  0
M  END
$$$$
