NCE.pdb
     RDKit          3D

 24 23  0  0  1  0  0  0  0  0999 V2000
   13.4290   -8.8811  -10.8044 N   0  0  0  0  0  0  0  0  0  0  0  0
   14.0444   -7.9049   -9.9859 C   0  0  0  0  0  0  0  0  0  0  0  0
   13.2859   -7.2158   -9.2343 O   0  0  0  0  0  0  0  0  0  0  0  0
   15.5084   -7.6656   -9.9761 C   0  0  0  0  0  0  0  0  0  0  0  0
   16.1555   -8.6475  -10.9219 C   0  0  2  0  0  0  0  0  0  0  0  0
   16.1549   -9.9553  -10.2553 N   0  0  0  0  0  0  0  0  0  0  0  0
   17.5343   -8.2743  -11.2770 C   0  0  0  0  0  0  0  0  0  0  0  0
   18.3133   -7.6137  -10.5365 O   0  0  0  0  0  0  0  0  0  0  0  0
   18.0546   -8.6704  -12.5339 N   0  0  0  0  0  0  0  0  0  0  0  0
   19.3983   -8.3926  -12.9681 C   0  0  1  0  0  0  0  0  0  0  0  0
   19.9361   -9.6152  -13.7221 C   0  0  0  0  0  0  0  0  0  0  0  0
   21.6862   -9.2662  -14.0764 S   0  0  0  0  0  0  0  0  0  0  0  0
   19.5302   -7.2531  -13.8647 C   0  0  0  0  0  0  0  0  0  0  0  0
   18.7126   -7.0842  -14.7920 O   0  0  0  0  0  0  0  0  0  0  0  0
   20.5821   -6.3331  -13.6888 N   0  0  0  0  0  0  0  0  0  0  0  0
   20.7921   -5.1767  -14.5823 C   0  0  1  0  0  0  0  0  0  0  0  0
   19.8349   -4.1154  -14.1320 C   0  0  0  0  0  0  0  0  0  0  0  0
   19.9394   -2.8022  -14.8191 C   0  0  0  0  0  0  0  0  0  0  0  0
   18.9503   -1.7975  -14.3737 C   0  0  0  0  0  0  0  0  0  0  0  0
   17.9243   -1.5456  -15.0804 O   0  0  0  0  0  0  0  0  0  0  0  0
   22.1750   -4.6742  -14.4132 C   0  0  0  0  0  0  0  0  0  0  0  0
   23.0236   -5.0778  -13.4087 O   0  0  0  0  0  0  0  0  0  0  0  0
   19.1653   -1.1268  -13.1513 O   0  0  0  0  0  0  0  0  0  0  0  0
   22.6235   -3.8215  -15.2315 O   0  0  0  0  0  0  0  0  0  0  0  0
  2  1  1  0
  3  2  2  0
  4  2  1  0
  4  5  1  0
  5  6  1  1
  7  5  1  0
  7  8  2  0
  9  7  1  0
 10  9  1  0
 10 13  1  0
 10 11  1  6
 12 11  1  0
 13 15  1  0
 14 13  2  0
 15 16  1  0
 16 21  1  0
 16 17  1  1
 18 17  1  0
 19 23  1  0
 19 18  1  0
 20 19  2  0
 21 24  2  0
 21 22  1  0
M  END
$$$$
