NCE.pdb
     RDKit          3D

 24 23  0  0  1  0  0  0  0  0999 V2000
   13.6377  -14.2172  -11.0409 N   0  0  0  0  0  0  0  0  0  0  0  0
   14.9161  -14.1895  -11.6462 C   0  0  0  0  0  0  0  0  0  0  0  0
   15.7830  -15.0097  -11.2094 O   0  0  0  0  0  0  0  0  0  0  0  0
   15.2688  -13.2588  -12.7462 C   0  0  0  0  0  0  0  0  0  0  0  0
   14.1198  -12.3005  -12.9430 C   0  0  2  0  0  0  0  0  0  0  0  0
   12.9448  -13.1022  -13.3057 N   0  0  0  0  0  0  0  0  0  0  0  0
   14.3813  -11.3035  -13.9938 C   0  0  0  0  0  0  0  0  0  0  0  0
   14.0281  -11.4203  -15.1992 O   0  0  0  0  0  0  0  0  0  0  0  0
   15.0778  -10.1157  -13.6600 N   0  0  0  0  0  0  0  0  0  0  0  0
   15.2983   -9.0310  -14.5801 C   0  0  1  0  0  0  0  0  0  0  0  0
   13.9414   -8.5460  -15.1055 C   0  0  0  0  0  0  0  0  0  0  0  0
   13.8697   -9.0326  -16.8570 S   0  0  0  0  0  0  0  0  0  0  0  0
   15.9691   -7.8708  -14.0113 C   0  0  0  0  0  0  0  0  0  0  0  0
   15.5198   -7.3256  -12.9828 O   0  0  0  0  0  0  0  0  0  0  0  0
   17.1314   -7.3576  -14.6192 N   0  0  0  0  0  0  0  0  0  0  0  0
   17.9212   -6.2560  -14.0341 C   0  0  1  0  0  0  0  0  0  0  0  0
   19.3586   -6.6675  -14.1333 C   0  0  0  0  0  0  0  0  0  0  0  0
   20.3591   -5.6806  -13.6509 C   0  0  0  0  0  0  0  0  0  0  0  0
   21.7658   -6.0655  -13.8945 C   0  0  0  0  0  0  0  0  0  0  0  0
   22.7134   -5.2808  -13.5755 O   0  0  0  0  0  0  0  0  0  0  0  0
   17.7197   -5.0297  -14.8398 C   0  0  0  0  0  0  0  0  0  0  0  0
   17.8498   -3.7529  -14.3448 O   0  0  0  0  0  0  0  0  0  0  0  0
   22.0358   -7.3182  -14.4846 O   0  0  0  0  0  0  0  0  0  0  0  0
   17.4086   -5.1402  -16.0600 O   0  0  0  0  0  0  0  0  0  0  0  0
  2  1  1  0
  3  2  2  0
  4  2  1  0
  4  5  1  0
  5  6  1  6
  7  5  1  0
  7  8  2  0
  9  7  1  0
 10  9  1  0
 10 13  1  0
 10 11  1  1
 12 11  1  0
 13 15  1  0
 14 13  2  0
 15 16  1  0
 16 21  1  0
 16 17  1  6
 18 17  1  0
 19 23  1  0
 19 18  1  0
 20 19  2  0
 21 24  2  0
 21 22  1  0
M  END
$$$$
