NCE.pdb
     RDKit          3D

 24 23  0  0  1  0  0  0  0  0999 V2000
   19.3596  -15.4883  -17.9075 N   0  0  0  0  0  0  0  0  0  0  0  0
   20.3927  -14.5525  -18.1496 C   0  0  0  0  0  0  0  0  0  0  0  0
   20.7456  -14.3772  -19.3578 O   0  0  0  0  0  0  0  0  0  0  0  0
   21.0601  -13.7884  -17.0673 C   0  0  0  0  0  0  0  0  0  0  0  0
   21.1941  -12.3531  -17.5137 C   0  0  2  0  0  0  0  0  0  0  0  0
   22.2873  -12.3044  -18.4922 N   0  0  0  0  0  0  0  0  0  0  0  0
   21.4851  -11.4340  -16.4014 C   0  0  0  0  0  0  0  0  0  0  0  0
   20.7664  -11.2998  -15.3734 O   0  0  0  0  0  0  0  0  0  0  0  0
   22.6488  -10.6278  -16.4588 N   0  0  0  0  0  0  0  0  0  0  0  0
   23.0184   -9.6812  -15.4396 C   0  0  1  0  0  0  0  0  0  0  0  0
   24.5318   -9.7714  -15.2076 C   0  0  0  0  0  0  0  0  0  0  0  0
   25.3172   -9.3098  -16.7824 S   0  0  0  0  0  0  0  0  0  0  0  0
   22.7229   -8.2913  -15.7569 C   0  0  0  0  0  0  0  0  0  0  0  0
   22.8548   -7.8707  -16.9243 O   0  0  0  0  0  0  0  0  0  0  0  0
   22.2845   -7.4132  -14.7467 N   0  0  0  0  0  0  0  0  0  0  0  0
   22.0090   -5.9837  -14.9926 C   0  0  1  0  0  0  0  0  0  0  0  0
   20.5821   -5.8996  -15.4422 C   0  0  0  0  0  0  0  0  0  0  0  0
   20.0336   -4.5323  -15.6347 C   0  0  0  0  0  0  0  0  0  0  0  0
   18.6364   -4.4951  -16.1171 C   0  0  0  0  0  0  0  0  0  0  0  0
   17.9822   -5.5724  -16.2812 O   0  0  0  0  0  0  0  0  0  0  0  0
   22.1540   -5.2337  -13.7238 C   0  0  0  0  0  0  0  0  0  0  0  0
   22.2184   -5.8241  -12.4831 O   0  0  0  0  0  0  0  0  0  0  0  0
   18.0439   -3.2440  -16.3892 O   0  0  0  0  0  0  0  0  0  0  0  0
   22.2249   -3.9721  -13.7602 O   0  0  0  0  0  0  0  0  0  0  0  0
  2  1  1  0
  3  2  2  0
  4  2  1  0
  4  5  1  0
  5  6  1  6
  7  5  1  0
  7  8  2  0
  9  7  1  0
 10  9  1  0
 10 13  1  0
 10 11  1  6
 12 11  1  0
 13 15  1  0
 14 13  2  0
 15 16  1  0
 16 21  1  0
 16 17  1  1
 18 17  1  0
 19 23  1  0
 19 18  1  0
 20 19  2  0
 21 24  2  0
 21 22  1  0
M  END
$$$$
