NCE.pdb
     RDKit          3D

 24 23  0  0  1  0  0  0  0  0999 V2000
   19.5108  -23.7148  -14.7670 N   0  0  0  0  0  0  0  0  0  0  0  0
   20.4576  -24.7282  -14.4874 C   0  0  0  0  0  0  0  0  0  0  0  0
   21.2027  -25.1065  -15.4449 O   0  0  0  0  0  0  0  0  0  0  0  0
   20.6057  -25.3477  -13.1476 C   0  0  0  0  0  0  0  0  0  0  0  0
   19.2863  -25.9727  -12.7659 C   0  0  2  0  0  0  0  0  0  0  0  0
   18.8144  -25.2842  -11.5585 N   0  0  0  0  0  0  0  0  0  0  0  0
   19.3938  -27.4167  -12.5014 C   0  0  0  0  0  0  0  0  0  0  0  0
   18.6246  -28.2943  -12.9806 O   0  0  0  0  0  0  0  0  0  0  0  0
   20.4251  -27.8876  -11.6516 N   0  0  0  0  0  0  0  0  0  0  0  0
   20.6481  -29.2788  -11.3578 C   0  0  1  0  0  0  0  0  0  0  0  0
   22.1571  -29.5521  -11.3795 C   0  0  0  0  0  0  0  0  0  0  0  0
   22.9191  -28.2887  -10.3150 S   0  0  0  0  0  0  0  0  0  0  0  0
   20.1591  -29.7177  -10.0586 C   0  0  0  0  0  0  0  0  0  0  0  0
   20.3131  -28.9967   -9.0520 O   0  0  0  0  0  0  0  0  0  0  0  0
   19.5071  -30.9597   -9.9312 N   0  0  0  0  0  0  0  0  0  0  0  0
   19.0504  -31.4947   -8.6332 C   0  0  1  0  0  0  0  0  0  0  0  0
   17.6119  -31.8731   -8.8146 C   0  0  0  0  0  0  0  0  0  0  0  0
   16.9071  -32.3739   -7.6064 C   0  0  0  0  0  0  0  0  0  0  0  0
   15.4982  -32.7599   -7.8351 C   0  0  0  0  0  0  0  0  0  0  0  0
   14.9883  -32.6800   -8.9965 O   0  0  0  0  0  0  0  0  0  0  0  0
   19.8264  -32.7135   -8.3075 C   0  0  0  0  0  0  0  0  0  0  0  0
   20.7361  -33.2975   -9.1581 O   0  0  0  0  0  0  0  0  0  0  0  0
   14.7329  -33.2193   -6.7425 O   0  0  0  0  0  0  0  0  0  0  0  0
   19.6580  -33.2673   -7.1838 O   0  0  0  0  0  0  0  0  0  0  0  0
  2  1  1  0
  3  2  2  0
  4  2  1  0
  4  5  1  0
  5  6  1  1
  7  5  1  0
  7  8  2  0
  9  7  1  0
 10  9  1  0
 10 13  1  0
 10 11  1  1
 12 11  1  0
 13 15  1  0
 14 13  2  0
 15 16  1  0
 16 21  1  0
 16 17  1  6
 18 17  1  0
 19 23  1  0
 19 18  1  0
 20 19  2  0
 21 24  2  0
 21 22  1  0
M  END
$$$$
