HNR.pdb
     RDKit          3D

 30 30  0  0  1  0  0  0  0  0999 V2000
    7.7799  -16.7127   20.2189 N   0  0  0  0  0  0  0  0  0  0  0  0
    7.5484  -15.8121   21.3144 C   0  0  1  0  0  0  0  0  0  0  0  0
    6.8436  -14.5775   20.8035 C   0  0  0  0  0  0  0  0  0  0  0  0
    7.6407  -13.8743   19.7671 C   0  0  0  0  0  0  0  0  0  0  0  0
    8.5138  -12.8524   20.0021 C   0  0  0  0  0  0  0  0  0  0  0  0
    9.0336  -12.4867   18.8262 N   0  0  0  0  0  0  0  0  0  0  0  0
    8.4833  -13.2770   17.8868 C   0  0  0  0  0  0  0  0  0  0  0  0
    7.6176  -14.1460   18.4357 N   0  0  0  0  0  0  0  0  0  0  0  0
    6.6662  -16.4325   22.3484 C   0  0  0  0  0  0  0  0  0  0  0  0
    5.4474  -16.5109   22.1320 O   0  0  0  0  0  0  0  0  0  0  0  0
    6.1580  -19.1441   22.9808 N   0  0  0  0  0  0  0  0  0  0  0  0
    6.7342  -19.5437   24.2146 C   0  0  0  0  0  0  0  0  0  0  0  0
    7.1071  -20.7122   24.3973 O   0  0  0  0  0  0  0  0  0  0  0  0
    6.8862  -18.5302   25.2971 C   0  0  0  0  0  0  0  0  0  0  0  0
    6.3947  -17.2157   24.7308 C   0  0  2  0  0  0  0  0  0  0  0  0
    7.1980  -16.9288   23.5635 N   0  0  0  0  0  0  0  0  0  0  0  0
    6.4753  -16.1204   25.7343 C   0  0  0  0  0  0  0  0  0  0  0  0
    5.6782  -16.1510   26.7015 O   0  0  0  0  0  0  0  0  0  0  0  0
   12.2430  -16.1962   30.8145 N   0  0  0  0  0  0  0  0  0  0  0  0
   11.9022  -16.9848   29.6684 C   0  0  0  0  0  0  0  0  0  0  0  0
   12.6187  -18.0024   29.2902 N   0  0  0  0  0  0  0  0  0  0  0  0
   10.7531  -16.6881   28.8814 N   0  0  0  0  0  0  0  0  0  0  0  0
    9.9715  -15.5245   29.1653 C   0  0  0  0  0  0  0  0  0  0  0  0
    8.7942  -15.3001   28.3164 C   0  0  0  0  0  0  0  0  0  0  0  0
    8.6042  -14.1130   27.5043 C   0  0  0  0  0  0  0  0  0  0  0  0
    7.4635  -13.9321   26.5789 C   0  0  2  0  0  0  0  0  0  0  0  0
    7.4009  -15.0712   25.6337 N   0  0  0  0  0  0  0  0  0  0  0  0
    7.2851  -12.6997   25.8562 C   0  0  0  0  0  0  0  0  0  0  0  0
    7.3336  -12.5013   24.6352 O   0  0  0  0  0  0  0  0  0  0  0  0
    7.0157  -11.5362   26.6162 O   0  0  0  0  0  0  0  0  0  0  0  0
  2  1  1  6
  2  3  1  0
  2  9  1  0
  4  5  2  0
  4  3  1  0
  6  5  1  0
  7  8  2  0
  7  6  1  0
  8  4  1  0
  9 10  2  0
 11 12  1  0
 12 13  2  0
 14 12  1  0
 15 14  1  1
 16  9  1  0
 16 15  1  0
 17 15  1  0
 17 18  2  0
 20 19  1  0
 20 22  1  0
 21 20  2  0
 22 23  1  0
 23 24  1  0
 24 25  1  0
 26 25  1  6
 26 28  1  0
 26 27  1  0
 27 17  1  0
 28 30  1  0
 29 28  2  0
M  END
$$$$
