HNR.pdb
     RDKit          3D

 30 30  0  0  1  0  0  0  0  0999 V2000
   11.7880  -17.5006   18.2689 N   0  0  0  0  0  0  0  0  0  0  0  0
   10.4953  -17.2842   18.8580 C   0  0  1  0  0  0  0  0  0  0  0  0
    9.4668  -18.1061   18.1174 C   0  0  0  0  0  0  0  0  0  0  0  0
    9.1302  -17.5135   16.7985 C   0  0  0  0  0  0  0  0  0  0  0  0
    9.8045  -16.4903   16.1984 C   0  0  0  0  0  0  0  0  0  0  0  0
    9.2044  -16.2414   15.0302 N   0  0  0  0  0  0  0  0  0  0  0  0
    8.1771  -17.1031   14.9209 C   0  0  0  0  0  0  0  0  0  0  0  0
    8.1037  -17.9035   15.9978 N   0  0  0  0  0  0  0  0  0  0  0  0
   10.4708  -17.7221   20.2862 C   0  0  0  0  0  0  0  0  0  0  0  0
    9.3892  -17.7376   20.8932 O   0  0  0  0  0  0  0  0  0  0  0  0
   14.4304  -20.1863   20.8465 N   0  0  0  0  0  0  0  0  0  0  0  0
   13.3206  -20.1934   21.7309 C   0  0  0  0  0  0  0  0  0  0  0  0
   12.5424  -21.1581   21.7724 O   0  0  0  0  0  0  0  0  0  0  0  0
   13.1019  -19.0149   22.6171 C   0  0  0  0  0  0  0  0  0  0  0  0
   11.6989  -18.5199   22.3401 C   0  0  2  0  0  0  0  0  0  0  0  0
   11.6566  -18.1170   20.9522 N   0  0  0  0  0  0  0  0  0  0  0  0
   11.3210  -17.4028   23.2469 C   0  0  0  0  0  0  0  0  0  0  0  0
   12.0336  -16.3714   23.2358 O   0  0  0  0  0  0  0  0  0  0  0  0
    6.4828  -11.7842   21.4692 N   0  0  0  0  0  0  0  0  0  0  0  0
    7.5599  -12.3772   20.7344 C   0  0  0  0  0  0  0  0  0  0  0  0
    7.8420  -12.0255   19.5143 N   0  0  0  0  0  0  0  0  0  0  0  0
    8.3791  -13.3897   21.3103 N   0  0  0  0  0  0  0  0  0  0  0  0
    8.0514  -13.9332   22.5919 C   0  0  0  0  0  0  0  0  0  0  0  0
    8.9991  -14.9027   23.1567 C   0  0  0  0  0  0  0  0  0  0  0  0
    8.8532  -15.4952   24.4730 C   0  0  0  0  0  0  0  0  0  0  0  0
    9.8532  -16.4067   25.0723 C   0  0  2  0  0  0  0  0  0  0  0  0
   10.2096  -17.4666   24.1003 N   0  0  0  0  0  0  0  0  0  0  0  0
    9.6338  -16.9980   26.3666 C   0  0  0  0  0  0  0  0  0  0  0  0
    9.3665  -16.4413   27.4395 O   0  0  0  0  0  0  0  0  0  0  0  0
    9.7295  -18.4073   26.4597 O   0  0  0  0  0  0  0  0  0  0  0  0
  2  1  1  6
  2  3  1  0
  2  9  1  0
  4  5  2  0
  4  3  1  0
  6  5  1  0
  7  8  2  0
  7  6  1  0
  8  4  1  0
  9 10  2  0
 11 12  1  0
 12 13  2  0
 14 12  1  0
 15 14  1  1
 16  9  1  0
 16 15  1  0
 17 15  1  0
 17 18  2  0
 20 19  1  0
 20 22  1  0
 21 20  2  0
 22 23  1  0
 23 24  1  0
 24 25  1  0
 26 25  1  6
 26 28  1  0
 26 27  1  0
 27 17  1  0
 28 30  1  0
 29 28  2  0
M  END
$$$$
