HNR.pdb
     RDKit          3D

 30 30  0  0  1  0  0  0  0  0999 V2000
    8.9998  -15.7409   19.6059 N   0  0  0  0  0  0  0  0  0  0  0  0
    8.9453  -14.5435   20.3984 C   0  0  1  0  0  0  0  0  0  0  0  0
    7.9249  -13.6002   19.8059 C   0  0  0  0  0  0  0  0  0  0  0  0
    7.9523  -13.6169   18.3217 C   0  0  0  0  0  0  0  0  0  0  0  0
    8.8226  -14.3376   17.5569 C   0  0  0  0  0  0  0  0  0  0  0  0
    8.5329  -14.0921   16.2753 N   0  0  0  0  0  0  0  0  0  0  0  0
    7.4983  -13.2323   16.2605 C   0  0  0  0  0  0  0  0  0  0  0  0
    7.1156  -12.9186   17.5099 N   0  0  0  0  0  0  0  0  0  0  0  0
    8.5172  -14.8399   21.7988 C   0  0  0  0  0  0  0  0  0  0  0  0
    8.4956  -13.9194   22.6299 O   0  0  0  0  0  0  0  0  0  0  0  0
    7.2086  -17.3120   25.9631 N   0  0  0  0  0  0  0  0  0  0  0  0
    6.3796  -17.8337   24.9362 C   0  0  0  0  0  0  0  0  0  0  0  0
    5.4210  -18.5740   25.2028 O   0  0  0  0  0  0  0  0  0  0  0  0
    6.6798  -17.4760   23.5206 C   0  0  0  0  0  0  0  0  0  0  0  0
    7.8575  -16.5263   23.5550 C   0  0  2  0  0  0  0  0  0  0  0  0
    8.1384  -16.1478   22.1882 N   0  0  0  0  0  0  0  0  0  0  0  0
    9.0432  -17.1443   24.2073 C   0  0  0  0  0  0  0  0  0  0  0  0
    8.8977  -17.6220   25.3571 O   0  0  0  0  0  0  0  0  0  0  0  0
   15.0917  -14.3645   20.6224 N   0  0  0  0  0  0  0  0  0  0  0  0
   14.1858  -14.9165   19.6600 C   0  0  0  0  0  0  0  0  0  0  0  0
   13.9296  -14.3239   18.5308 N   0  0  0  0  0  0  0  0  0  0  0  0
   13.5162  -16.1507   19.8971 N   0  0  0  0  0  0  0  0  0  0  0  0
   13.7428  -16.8661   21.1147 C   0  0  0  0  0  0  0  0  0  0  0  0
   12.5847  -17.0381   22.0013 C   0  0  0  0  0  0  0  0  0  0  0  0
   12.6497  -17.7082   23.2866 C   0  0  0  0  0  0  0  0  0  0  0  0
   11.4806  -17.8768   24.1782 C   0  0  2  0  0  0  0  0  0  0  0  0
   10.2989  -17.2082   23.5854 N   0  0  0  0  0  0  0  0  0  0  0  0
   11.5641  -17.5497   25.5778 C   0  0  0  0  0  0  0  0  0  0  0  0
   11.4495  -16.4454   26.1255 O   0  0  0  0  0  0  0  0  0  0  0  0
   11.8099  -18.6139   26.4783 O   0  0  0  0  0  0  0  0  0  0  0  0
  2  1  1  6
  2  3  1  0
  2  9  1  0
  4  5  2  0
  4  3  1  0
  6  5  1  0
  7  8  2  0
  7  6  1  0
  8  4  1  0
  9 10  2  0
 11 12  1  0
 12 13  2  0
 14 12  1  0
 15 14  1  6
 16  9  1  0
 16 15  1  0
 17 15  1  0
 17 18  2  0
 20 19  1  0
 20 22  1  0
 21 20  2  0
 22 23  1  0
 23 24  1  0
 24 25  1  0
 26 25  1  6
 26 28  1  0
 26 27  1  0
 27 17  1  0
 28 30  1  0
 29 28  2  0
M  END
$$$$
