HNR.pdb
     RDKit          3D

 30 30  0  0  1  0  0  0  0  0999 V2000
   12.8058  -17.3042   15.1936 N   0  0  0  0  0  0  0  0  0  0  0  0
   11.5405  -17.3453   15.8734 C   0  0  1  0  0  0  0  0  0  0  0  0
   10.6098  -18.2799   15.1369 C   0  0  0  0  0  0  0  0  0  0  0  0
   10.1775  -17.7164   13.8333 C   0  0  0  0  0  0  0  0  0  0  0  0
    9.4152  -16.5962   13.6721 C   0  0  0  0  0  0  0  0  0  0  0  0
    9.2396  -16.4125   12.3598 N   0  0  0  0  0  0  0  0  0  0  0  0
    9.8875  -17.4092   11.7300 C   0  0  0  0  0  0  0  0  0  0  0  0
   10.4779  -18.2327   12.6126 N   0  0  0  0  0  0  0  0  0  0  0  0
   11.6897  -17.8704   17.2642 C   0  0  0  0  0  0  0  0  0  0  0  0
   10.6800  -17.9900   17.9746 O   0  0  0  0  0  0  0  0  0  0  0  0
   13.4994  -20.1023   21.3176 N   0  0  0  0  0  0  0  0  0  0  0  0
   14.6310  -20.0828   20.4615 C   0  0  0  0  0  0  0  0  0  0  0  0
   15.6862  -20.6490   20.7839 O   0  0  0  0  0  0  0  0  0  0  0  0
   14.5324  -19.3664   19.1581 C   0  0  0  0  0  0  0  0  0  0  0  0
   13.1685  -18.7115   19.1267 C   0  0  2  0  0  0  0  0  0  0  0  0
   12.9587  -18.2308   17.7794 N   0  0  0  0  0  0  0  0  0  0  0  0
   13.0634  -17.6122   20.1235 C   0  0  0  0  0  0  0  0  0  0  0  0
   13.4320  -16.4661   19.7741 O   0  0  0  0  0  0  0  0  0  0  0  0
    7.3047  -12.6311   18.8970 N   0  0  0  0  0  0  0  0  0  0  0  0
    7.5449  -12.8556   20.2912 C   0  0  0  0  0  0  0  0  0  0  0  0
    7.7721  -11.8797   21.1206 N   0  0  0  0  0  0  0  0  0  0  0  0
    7.5471  -14.1700   20.8391 N   0  0  0  0  0  0  0  0  0  0  0  0
    8.5127  -15.1283   20.3976 C   0  0  0  0  0  0  0  0  0  0  0  0
    9.5020  -15.5695   21.3894 C   0  0  0  0  0  0  0  0  0  0  0  0
   10.5142  -16.5740   21.1221 C   0  0  0  0  0  0  0  0  0  0  0  0
   11.5863  -16.9262   22.0795 C   0  0  2  0  0  0  0  0  0  0  0  0
   12.5722  -17.8151   21.4217 N   0  0  0  0  0  0  0  0  0  0  0  0
   11.2714  -17.4438   23.3856 C   0  0  0  0  0  0  0  0  0  0  0  0
   11.2908  -18.6165   23.7817 O   0  0  0  0  0  0  0  0  0  0  0  0
   10.8825  -16.5102   24.3761 O   0  0  0  0  0  0  0  0  0  0  0  0
  2  1  1  6
  2  3  1  0
  2  9  1  0
  4  5  2  0
  4  3  1  0
  6  5  1  0
  7  8  2  0
  7  6  1  0
  8  4  1  0
  9 10  2  0
 11 12  1  0
 12 13  2  0
 14 12  1  0
 15 14  1  6
 16  9  1  0
 16 15  1  0
 17 15  1  0
 17 18  2  0
 20 19  1  0
 20 22  1  0
 21 20  2  0
 22 23  1  0
 23 24  1  0
 24 25  1  0
 26 25  1  6
 26 28  1  0
 26 27  1  0
 27 17  1  0
 28 30  1  0
 29 28  2  0
M  END
$$$$
