HNR.pdb
     RDKit          3D

 30 30  0  0  1  0  0  0  0  0999 V2000
   11.3111  -17.8702   16.0185 N   0  0  0  0  0  0  0  0  0  0  0  0
   11.2626  -16.5547   16.5946 C   0  0  1  0  0  0  0  0  0  0  0  0
    9.8209  -16.1574   16.8078 C   0  0  0  0  0  0  0  0  0  0  0  0
    9.1165  -15.9202   15.5227 C   0  0  0  0  0  0  0  0  0  0  0  0
    8.2160  -16.7694   14.9484 C   0  0  0  0  0  0  0  0  0  0  0  0
    7.8038  -16.2093   13.8069 N   0  0  0  0  0  0  0  0  0  0  0  0
    8.4458  -15.0331   13.6881 C   0  0  0  0  0  0  0  0  0  0  0  0
    9.2650  -14.8244   14.7327 N   0  0  0  0  0  0  0  0  0  0  0  0
   11.9352  -16.5224   17.9284 C   0  0  0  0  0  0  0  0  0  0  0  0
   11.9317  -17.5453   18.6298 O   0  0  0  0  0  0  0  0  0  0  0  0
   15.4943  -13.8214   17.4576 N   0  0  0  0  0  0  0  0  0  0  0  0
   15.2592  -14.6084   18.6148 C   0  0  0  0  0  0  0  0  0  0  0  0
   15.8854  -15.6608   18.8102 O   0  0  0  0  0  0  0  0  0  0  0  0
   14.2404  -14.1480   19.6008 C   0  0  0  0  0  0  0  0  0  0  0  0
   13.2038  -15.2464   19.6963 C   0  0  2  0  0  0  0  0  0  0  0  0
   12.5720  -15.3486   18.3999 N   0  0  0  0  0  0  0  0  0  0  0  0
   12.2108  -14.9732   20.7699 C   0  0  0  0  0  0  0  0  0  0  0  0
   11.6335  -13.8605   20.7659 O   0  0  0  0  0  0  0  0  0  0  0  0
    8.4100  -12.4375   18.1535 N   0  0  0  0  0  0  0  0  0  0  0  0
    8.2265  -12.5791   19.5670 C   0  0  0  0  0  0  0  0  0  0  0  0
    8.5354  -11.6321   20.4036 N   0  0  0  0  0  0  0  0  0  0  0  0
    7.6934  -13.7746   20.1277 N   0  0  0  0  0  0  0  0  0  0  0  0
    7.4846  -13.8726   21.5392 C   0  0  0  0  0  0  0  0  0  0  0  0
    8.6179  -14.3545   22.3394 C   0  0  0  0  0  0  0  0  0  0  0  0
    9.5457  -15.3736   21.8859 C   0  0  0  0  0  0  0  0  0  0  0  0
   10.7281  -15.8045   22.6645 C   0  0  2  0  0  0  0  0  0  0  0  0
   11.9051  -15.9075   21.7706 N   0  0  0  0  0  0  0  0  0  0  0  0
   10.6709  -16.9636   23.5165 C   0  0  0  0  0  0  0  0  0  0  0  0
   11.0045  -18.1291   23.2658 O   0  0  0  0  0  0  0  0  0  0  0  0
   10.1694  -16.7799   24.8275 O   0  0  0  0  0  0  0  0  0  0  0  0
  2  1  1  1
  2  3  1  0
  2  9  1  0
  4  5  2  0
  4  3  1  0
  6  5  1  0
  7  8  2  0
  7  6  1  0
  8  4  1  0
  9 10  2  0
 11 12  1  0
 12 13  2  0
 14 12  1  0
 15 14  1  6
 16  9  1  0
 16 15  1  0
 17 15  1  0
 17 18  2  0
 20 19  1  0
 20 22  1  0
 21 20  2  0
 22 23  1  0
 23 24  1  0
 24 25  1  0
 26 25  1  6
 26 28  1  0
 26 27  1  0
 27 17  1  0
 28 30  1  0
 29 28  2  0
M  END
$$$$
