HNR.pdb
     RDKit          3D

 30 30  0  0  1  0  0  0  0  0999 V2000
    8.0523  -21.0161   10.6693 N   0  0  0  0  0  0  0  0  0  0  0  0
    8.9723  -19.9283   10.8567 C   0  0  1  0  0  0  0  0  0  0  0  0
    8.4859  -18.7259   10.0823 C   0  0  0  0  0  0  0  0  0  0  0  0
    8.5593  -18.9454    8.6159 C   0  0  0  0  0  0  0  0  0  0  0  0
    9.6698  -19.3490    7.9335 C   0  0  0  0  0  0  0  0  0  0  0  0
    9.3410  -19.4330    6.6406 N   0  0  0  0  0  0  0  0  0  0  0  0
    8.0457  -19.0847    6.5376 C   0  0  0  0  0  0  0  0  0  0  0  0
    7.5329  -18.7774    7.7412 N   0  0  0  0  0  0  0  0  0  0  0  0
    9.0534  -19.5290   12.2941 C   0  0  0  0  0  0  0  0  0  0  0  0
    9.8736  -18.6626   12.6334 O   0  0  0  0  0  0  0  0  0  0  0  0
    7.4929  -18.1119   17.1275 N   0  0  0  0  0  0  0  0  0  0  0  0
    6.9281  -19.3053   16.6073 C   0  0  0  0  0  0  0  0  0  0  0  0
    6.4875  -20.1856   17.3616 O   0  0  0  0  0  0  0  0  0  0  0  0
    6.8710  -19.4871   15.1289 C   0  0  0  0  0  0  0  0  0  0  0  0
    8.2791  -19.8103   14.6783 C   0  0  2  0  0  0  0  0  0  0  0  0
    8.2132  -20.1216   13.2680 N   0  0  0  0  0  0  0  0  0  0  0  0
    8.8626  -20.9330   15.4607 C   0  0  0  0  0  0  0  0  0  0  0  0
    8.3092  -22.0550   15.3792 O   0  0  0  0  0  0  0  0  0  0  0  0
   15.8615  -18.2129   16.2880 N   0  0  0  0  0  0  0  0  0  0  0  0
   16.0179  -19.4798   15.6382 C   0  0  0  0  0  0  0  0  0  0  0  0
   17.0107  -19.7283   14.8353 N   0  0  0  0  0  0  0  0  0  0  0  0
   15.0846  -20.5359   15.8419 N   0  0  0  0  0  0  0  0  0  0  0  0
   13.9473  -20.3339   16.6852 C   0  0  0  0  0  0  0  0  0  0  0  0
   13.0523  -21.4838   16.8684 C   0  0  0  0  0  0  0  0  0  0  0  0
   11.8504  -21.4447   17.6803 C   0  0  0  0  0  0  0  0  0  0  0  0
   10.5136  -21.8315   17.1770 C   0  0  2  0  0  0  0  0  0  0  0  0
    9.9950  -20.7778   16.2738 N   0  0  0  0  0  0  0  0  0  0  0  0
    9.4720  -22.2413   18.0826 C   0  0  0  0  0  0  0  0  0  0  0  0
    8.9062  -21.5824   18.9648 O   0  0  0  0  0  0  0  0  0  0  0  0
    9.0083  -23.5745   17.9760 O   0  0  0  0  0  0  0  0  0  0  0  0
  2  1  1  1
  2  3  1  0
  2  9  1  0
  4  5  2  0
  4  3  1  0
  6  5  1  0
  7  8  2  0
  7  6  1  0
  8  4  1  0
  9 10  2  0
 11 12  1  0
 12 13  2  0
 14 12  1  0
 15 14  1  1
 16  9  1  0
 16 15  1  0
 17 15  1  0
 17 18  2  0
 20 19  1  0
 20 22  1  0
 21 20  2  0
 22 23  1  0
 23 24  1  0
 24 25  1  0
 26 25  1  1
 26 28  1  0
 26 27  1  0
 27 17  1  0
 28 30  1  0
 29 28  2  0
M  END
$$$$
