HNR.pdb
     RDKit          3D

 30 30  0  0  1  0  0  0  0  0999 V2000
   14.0475  -14.2707   18.0963 N   0  0  0  0  0  0  0  0  0  0  0  0
   12.6673  -14.6474   17.9622 C   0  0  1  0  0  0  0  0  0  0  0  0
   12.5852  -16.0960   17.5417 C   0  0  0  0  0  0  0  0  0  0  0  0
   12.9303  -16.2767   16.1091 C   0  0  0  0  0  0  0  0  0  0  0  0
   14.1966  -16.3318   15.6038 C   0  0  0  0  0  0  0  0  0  0  0  0
   14.0967  -16.5022   14.2817 N   0  0  0  0  0  0  0  0  0  0  0  0
   12.7852  -16.5504   13.9863 C   0  0  0  0  0  0  0  0  0  0  0  0
   12.0370  -16.4138   15.0942 N   0  0  0  0  0  0  0  0  0  0  0  0
   11.9422  -14.5195   19.2623 C   0  0  0  0  0  0  0  0  0  0  0  0
   12.5871  -14.5786   20.3202 O   0  0  0  0  0  0  0  0  0  0  0  0
    9.5482  -12.2052   19.0412 N   0  0  0  0  0  0  0  0  0  0  0  0
    8.3171  -12.8618   19.3005 C   0  0  0  0  0  0  0  0  0  0  0  0
    7.2512  -12.4267   18.8398 O   0  0  0  0  0  0  0  0  0  0  0  0
    8.3237  -14.0926   20.1413 C   0  0  0  0  0  0  0  0  0  0  0  0
    9.7653  -14.3466   20.5250 C   0  0  2  0  0  0  0  0  0  0  0  0
   10.5389  -14.3333   19.3037 N   0  0  0  0  0  0  0  0  0  0  0  0
    9.9208  -15.6316   21.2583 C   0  0  0  0  0  0  0  0  0  0  0  0
    9.7086  -16.6953   20.6297 O   0  0  0  0  0  0  0  0  0  0  0  0
   16.7117  -19.8300   23.0688 N   0  0  0  0  0  0  0  0  0  0  0  0
   15.7555  -20.6242   23.7806 C   0  0  0  0  0  0  0  0  0  0  0  0
   16.0718  -21.7586   24.3330 N   0  0  0  0  0  0  0  0  0  0  0  0
   14.4012  -20.2058   23.9169 N   0  0  0  0  0  0  0  0  0  0  0  0
   13.9579  -18.9991   23.2901 C   0  0  0  0  0  0  0  0  0  0  0  0
   12.5844  -18.5711   23.5857 C   0  0  0  0  0  0  0  0  0  0  0  0
   11.9764  -17.3791   23.0247 C   0  0  0  0  0  0  0  0  0  0  0  0
   10.5940  -16.9481   23.3301 C   0  0  2  0  0  0  0  0  0  0  0  0
   10.2920  -15.6892   22.6098 N   0  0  0  0  0  0  0  0  0  0  0  0
   10.1350  -16.8433   24.6907 C   0  0  0  0  0  0  0  0  0  0  0  0
   10.1535  -17.6994   25.5847 O   0  0  0  0  0  0  0  0  0  0  0  0
    9.5812  -15.6046   25.0940 O   0  0  0  0  0  0  0  0  0  0  0  0
  2  1  1  1
  2  3  1  0
  2  9  1  0
  4  5  2  0
  4  3  1  0
  6  5  1  0
  7  8  2  0
  7  6  1  0
  8  4  1  0
  9 10  2  0
 11 12  1  0
 12 13  2  0
 14 12  1  0
 15 14  1  6
 16  9  1  0
 16 15  1  0
 17 15  1  0
 17 18  2  0
 20 19  1  0
 20 22  1  0
 21 20  2  0
 22 23  1  0
 23 24  1  0
 24 25  1  0
 26 25  1  1
 26 28  1  0
 26 27  1  0
 27 17  1  0
 28 30  1  0
 29 28  2  0
M  END
$$$$
