HNR.pdb
     RDKit          3D

 30 30  0  0  1  0  0  0  0  0999 V2000
    8.9463  -15.6662   18.3202 N   0  0  0  0  0  0  0  0  0  0  0  0
    9.1100  -14.3004   18.7359 C   0  0  1  0  0  0  0  0  0  0  0  0
    8.2286  -13.4131   17.8887 C   0  0  0  0  0  0  0  0  0  0  0  0
    8.4227  -13.6631   16.4383 C   0  0  0  0  0  0  0  0  0  0  0  0
    9.2747  -14.5852   15.9040 C   0  0  0  0  0  0  0  0  0  0  0  0
    9.1670  -14.5116   14.5737 N   0  0  0  0  0  0  0  0  0  0  0  0
    8.2600  -13.5559   14.3018 C   0  0  0  0  0  0  0  0  0  0  0  0
    7.7807  -13.0116   15.4331 N   0  0  0  0  0  0  0  0  0  0  0  0
    8.6936  -14.1136   20.1585 C   0  0  0  0  0  0  0  0  0  0  0  0
    8.7487  -12.9799   20.6586 O   0  0  0  0  0  0  0  0  0  0  0  0
    5.5335  -14.8414   21.5455 N   0  0  0  0  0  0  0  0  0  0  0  0
    5.8127  -16.0973   22.1444 C   0  0  0  0  0  0  0  0  0  0  0  0
    4.9576  -16.9950   22.1750 O   0  0  0  0  0  0  0  0  0  0  0  0
    7.1597  -16.3241   22.7409 C   0  0  0  0  0  0  0  0  0  0  0  0
    8.0068  -15.1282   22.3636 C   0  0  2  0  0  0  0  0  0  0  0  0
    8.2401  -15.2050   20.9388 N   0  0  0  0  0  0  0  0  0  0  0  0
    9.2831  -15.0956   23.1271 C   0  0  0  0  0  0  0  0  0  0  0  0
    9.3002  -14.4732   24.2152 O   0  0  0  0  0  0  0  0  0  0  0  0
   10.3690  -19.4745   29.5433 N   0  0  0  0  0  0  0  0  0  0  0  0
   11.6239  -19.5718   28.8596 C   0  0  0  0  0  0  0  0  0  0  0  0
   12.7468  -19.7413   29.4939 N   0  0  0  0  0  0  0  0  0  0  0  0
   11.7016  -19.4857   27.4403 N   0  0  0  0  0  0  0  0  0  0  0  0
   10.9701  -18.4737   26.7430 C   0  0  0  0  0  0  0  0  0  0  0  0
   11.1831  -18.3902   25.2923 C   0  0  0  0  0  0  0  0  0  0  0  0
   10.5849  -17.3715   24.4500 C   0  0  0  0  0  0  0  0  0  0  0  0
   11.3674  -16.4934   23.5518 C   0  0  2  0  0  0  0  0  0  0  0  0
   10.4496  -15.7299   22.6746 N   0  0  0  0  0  0  0  0  0  0  0  0
   12.4544  -17.0179   22.7668 C   0  0  0  0  0  0  0  0  0  0  0  0
   12.4220  -17.8603   21.8603 O   0  0  0  0  0  0  0  0  0  0  0  0
   13.7515  -16.5233   23.0441 O   0  0  0  0  0  0  0  0  0  0  0  0
  2  1  1  6
  2  3  1  0
  2  9  1  0
  4  5  2  0
  4  3  1  0
  6  5  1  0
  7  8  2  0
  7  6  1  0
  8  4  1  0
  9 10  2  0
 11 12  1  0
 12 13  2  0
 14 12  1  0
 15 14  1  1
 16  9  1  0
 16 15  1  0
 17 15  1  0
 17 18  2  0
 20 19  1  0
 20 22  1  0
 21 20  2  0
 22 23  1  0
 23 24  1  0
 24 25  1  0
 26 25  1  6
 26 28  1  0
 26 27  1  0
 27 17  1  0
 28 30  1  0
 29 28  2  0
M  END
$$$$
