HNR.pdb
     RDKit          3D

 30 30  0  0  1  0  0  0  0  0999 V2000
   10.4962  -13.3288   20.3094 N   0  0  0  0  0  0  0  0  0  0  0  0
    9.3001  -13.7219   21.0019 C   0  0  1  0  0  0  0  0  0  0  0  0
    8.6927  -14.9179   20.3071 C   0  0  0  0  0  0  0  0  0  0  0  0
    8.1953  -14.5762   18.9507 C   0  0  0  0  0  0  0  0  0  0  0  0
    8.2986  -13.3514   18.3582 C   0  0  0  0  0  0  0  0  0  0  0  0
    7.7382  -13.4397   17.1479 N   0  0  0  0  0  0  0  0  0  0  0  0
    7.2993  -14.7034   17.0057 C   0  0  0  0  0  0  0  0  0  0  0  0
    7.5664  -15.4319   18.1028 N   0  0  0  0  0  0  0  0  0  0  0  0
    9.5973  -14.1279   22.4087 C   0  0  0  0  0  0  0  0  0  0  0  0
   10.7421  -14.5085   22.6969 O   0  0  0  0  0  0  0  0  0  0  0  0
    5.5331  -14.6508   26.3609 N   0  0  0  0  0  0  0  0  0  0  0  0
    6.5237  -14.5594   25.3489 C   0  0  0  0  0  0  0  0  0  0  0  0
    6.4068  -15.1808   24.2821 O   0  0  0  0  0  0  0  0  0  0  0  0
    7.7167  -13.6984   25.5884 C   0  0  0  0  0  0  0  0  0  0  0  0
    8.8596  -14.3177   24.8135 C   0  0  2  0  0  0  0  0  0  0  0  0
    8.5976  -14.0848   23.4108 N   0  0  0  0  0  0  0  0  0  0  0  0
    9.0032  -15.7682   25.1109 C   0  0  0  0  0  0  0  0  0  0  0  0
    8.1258  -16.5473   24.6695 O   0  0  0  0  0  0  0  0  0  0  0  0
   12.9264  -21.2579   25.0741 N   0  0  0  0  0  0  0  0  0  0  0  0
   12.6734  -21.2114   23.6651 C   0  0  0  0  0  0  0  0  0  0  0  0
   12.3487  -22.2714   22.9845 N   0  0  0  0  0  0  0  0  0  0  0  0
   12.7674  -19.9916   22.9364 N   0  0  0  0  0  0  0  0  0  0  0  0
   12.9088  -18.7504   23.6329 C   0  0  0  0  0  0  0  0  0  0  0  0
   11.6929  -18.1964   24.2424 C   0  0  0  0  0  0  0  0  0  0  0  0
   11.3765  -18.3140   25.6535 C   0  0  0  0  0  0  0  0  0  0  0  0
   10.1819  -17.7005   26.2751 C   0  0  2  0  0  0  0  0  0  0  0  0
   10.0731  -16.2831   25.8578 N   0  0  0  0  0  0  0  0  0  0  0  0
    9.9510  -17.8014   27.6927 C   0  0  0  0  0  0  0  0  0  0  0  0
    9.8551  -16.8951   28.5305 O   0  0  0  0  0  0  0  0  0  0  0  0
    9.8096  -19.1013   28.2351 O   0  0  0  0  0  0  0  0  0  0  0  0
  2  1  1  6
  2  3  1  0
  2  9  1  0
  4  5  2  0
  4  3  1  0
  6  5  1  0
  7  8  2  0
  7  6  1  0
  8  4  1  0
  9 10  2  0
 11 12  1  0
 12 13  2  0
 14 12  1  0
 15 14  1  1
 16  9  1  0
 16 15  1  0
 17 15  1  0
 17 18  2  0
 20 19  1  0
 20 22  1  0
 21 20  2  0
 22 23  1  0
 23 24  1  0
 24 25  1  0
 26 25  1  1
 26 28  1  0
 26 27  1  0
 27 17  1  0
 28 30  1  0
 29 28  2  0
M  END
$$$$
