HNR.pdb
     RDKit          3D

 30 30  0  0  1  0  0  0  0  0999 V2000
   10.7609  -15.0614   20.8390 N   0  0  0  0  0  0  0  0  0  0  0  0
    9.6063  -15.4122   21.6192 C   0  0  1  0  0  0  0  0  0  0  0  0
    8.4130  -15.5585   20.7045 C   0  0  0  0  0  0  0  0  0  0  0  0
    8.1808  -14.3341   19.8978 C   0  0  0  0  0  0  0  0  0  0  0  0
    9.0172  -13.2575   19.8397 C   0  0  0  0  0  0  0  0  0  0  0  0
    8.4676  -12.3633   19.0120 N   0  0  0  0  0  0  0  0  0  0  0  0
    7.3106  -12.8897   18.5716 C   0  0  0  0  0  0  0  0  0  0  0  0
    7.1038  -14.1076   19.1006 N   0  0  0  0  0  0  0  0  0  0  0  0
    9.7988  -16.7215   22.3127 C   0  0  0  0  0  0  0  0  0  0  0  0
    8.8397  -17.2341   22.9092 O   0  0  0  0  0  0  0  0  0  0  0  0
    9.9179  -19.8420   20.1351 N   0  0  0  0  0  0  0  0  0  0  0  0
   10.1443  -19.9993   21.5272 C   0  0  0  0  0  0  0  0  0  0  0  0
    9.2357  -20.3721   22.2845 O   0  0  0  0  0  0  0  0  0  0  0  0
   11.5013  -19.7077   22.0708 C   0  0  0  0  0  0  0  0  0  0  0  0
   11.3362  -18.5759   23.0617 C   0  0  2  0  0  0  0  0  0  0  0  0
   11.0519  -17.3811   22.2988 N   0  0  0  0  0  0  0  0  0  0  0  0
   12.5455  -18.4087   23.9118 C   0  0  0  0  0  0  0  0  0  0  0  0
   13.6660  -18.4387   23.3504 O   0  0  0  0  0  0  0  0  0  0  0  0
   11.0548  -21.4583   31.3373 N   0  0  0  0  0  0  0  0  0  0  0  0
   12.4718  -21.5592   31.5200 C   0  0  0  0  0  0  0  0  0  0  0  0
   12.9968  -22.1962   32.5253 N   0  0  0  0  0  0  0  0  0  0  0  0
   13.3806  -20.9604   30.6016 N   0  0  0  0  0  0  0  0  0  0  0  0
   12.8959  -20.0735   29.5897 C   0  0  0  0  0  0  0  0  0  0  0  0
   12.7746  -20.6261   28.2344 C   0  0  0  0  0  0  0  0  0  0  0  0
   12.3423  -19.8508   27.0867 C   0  0  0  0  0  0  0  0  0  0  0  0
   13.2543  -19.0079   26.2818 C   0  0  2  0  0  0  0  0  0  0  0  0
   12.4722  -18.2211   25.2999 N   0  0  0  0  0  0  0  0  0  0  0  0
   14.4063  -19.5762   25.6314 C   0  0  0  0  0  0  0  0  0  0  0  0
   14.4536  -20.4732   24.7796 O   0  0  0  0  0  0  0  0  0  0  0  0
   15.6742  -19.0609   25.9929 O   0  0  0  0  0  0  0  0  0  0  0  0
  2  1  1  6
  2  3  1  0
  2  9  1  0
  4  5  2  0
  4  3  1  0
  6  5  1  0
  7  8  2  0
  7  6  1  0
  8  4  1  0
  9 10  2  0
 11 12  1  0
 12 13  2  0
 14 12  1  0
 15 14  1  6
 16  9  1  0
 16 15  1  0
 17 15  1  0
 17 18  2  0
 20 19  1  0
 20 22  1  0
 21 20  2  0
 22 23  1  0
 23 24  1  0
 24 25  1  0
 26 25  1  6
 26 28  1  0
 26 27  1  0
 27 17  1  0
 28 30  1  0
 29 28  2  0
M  END
$$$$
