HNR.pdb
     RDKit          3D

 30 30  0  0  1  0  0  0  0  0999 V2000
    8.0512  -13.6084   16.8983 N   0  0  0  0  0  0  0  0  0  0  0  0
    8.2782  -15.0273   16.8796 C   0  0  1  0  0  0  0  0  0  0  0  0
    9.6279  -15.3075   16.2618 C   0  0  0  0  0  0  0  0  0  0  0  0
    9.5746  -15.2767   14.7785 C   0  0  0  0  0  0  0  0  0  0  0  0
    8.4870  -15.6019   14.0214 C   0  0  0  0  0  0  0  0  0  0  0  0
    8.8283  -15.4500   12.7380 N   0  0  0  0  0  0  0  0  0  0  0  0
   10.1085  -15.0371   12.7146 C   0  0  0  0  0  0  0  0  0  0  0  0
   10.5992  -14.9200   13.9601 N   0  0  0  0  0  0  0  0  0  0  0  0
    8.2961  -15.5911   18.2631 C   0  0  0  0  0  0  0  0  0  0  0  0
    8.5100  -14.8320   19.2204 O   0  0  0  0  0  0  0  0  0  0  0  0
    6.1834  -19.4399   17.7174 N   0  0  0  0  0  0  0  0  0  0  0  0
    6.3630  -19.0011   19.0550 C   0  0  0  0  0  0  0  0  0  0  0  0
    5.4033  -18.6007   19.7307 O   0  0  0  0  0  0  0  0  0  0  0  0
    7.7332  -19.0289   19.6413 C   0  0  0  0  0  0  0  0  0  0  0  0
    8.1651  -17.5872   19.7998 C   0  0  2  0  0  0  0  0  0  0  0  0
    8.0740  -16.9704   18.4954 N   0  0  0  0  0  0  0  0  0  0  0  0
    9.5392  -17.4835   20.3604 C   0  0  0  0  0  0  0  0  0  0  0  0
   10.4728  -18.0345   19.7310 O   0  0  0  0  0  0  0  0  0  0  0  0
   15.7439  -15.8177   19.5275 N   0  0  0  0  0  0  0  0  0  0  0  0
   15.5716  -14.4591   19.1078 C   0  0  0  0  0  0  0  0  0  0  0  0
   16.5811  -13.6850   18.8360 N   0  0  0  0  0  0  0  0  0  0  0  0
   14.2752  -13.8867   18.9682 N   0  0  0  0  0  0  0  0  0  0  0  0
   13.1111  -14.6976   19.1488 C   0  0  0  0  0  0  0  0  0  0  0  0
   12.9343  -15.3084   20.4726 C   0  0  0  0  0  0  0  0  0  0  0  0
   11.6815  -15.2915   21.2042 C   0  0  0  0  0  0  0  0  0  0  0  0
   11.1846  -16.4380   21.9970 C   0  0  2  0  0  0  0  0  0  0  0  0
    9.8181  -16.7988   21.5525 N   0  0  0  0  0  0  0  0  0  0  0  0
   11.2306  -16.4182   23.4359 C   0  0  0  0  0  0  0  0  0  0  0  0
   10.2929  -16.3629   24.2422 O   0  0  0  0  0  0  0  0  0  0  0  0
   12.5080  -16.4676   24.0440 O   0  0  0  0  0  0  0  0  0  0  0  0
  2  1  1  1
  2  3  1  0
  2  9  1  0
  4  5  2  0
  4  3  1  0
  6  5  1  0
  7  8  2  0
  7  6  1  0
  8  4  1  0
  9 10  2  0
 11 12  1  0
 12 13  2  0
 14 12  1  0
 15 14  1  6
 16  9  1  0
 16 15  1  0
 17 15  1  0
 17 18  2  0
 20 19  1  0
 20 22  1  0
 21 20  2  0
 22 23  1  0
 23 24  1  0
 24 25  1  0
 26 25  1  6
 26 28  1  0
 26 27  1  0
 27 17  1  0
 28 30  1  0
 29 28  2  0
M  END
$$$$
