HNR.pdb
     RDKit          3D

 30 30  0  0  1  0  0  0  0  0999 V2000
    9.7951  -15.7742   17.6832 N   0  0  0  0  0  0  0  0  0  0  0  0
    8.7134  -15.7183   18.6274 C   0  0  1  0  0  0  0  0  0  0  0  0
    7.4001  -15.7988   17.8853 C   0  0  0  0  0  0  0  0  0  0  0  0
    7.2351  -14.6752   16.9292 C   0  0  0  0  0  0  0  0  0  0  0  0
    8.1888  -13.7455   16.6325 C   0  0  0  0  0  0  0  0  0  0  0  0
    7.6668  -12.9038   15.7348 N   0  0  0  0  0  0  0  0  0  0  0  0
    6.4104  -13.3165   15.4882 C   0  0  0  0  0  0  0  0  0  0  0  0
    6.1124  -14.4095   16.2110 N   0  0  0  0  0  0  0  0  0  0  0  0
    8.7610  -16.8729   19.5745 C   0  0  0  0  0  0  0  0  0  0  0  0
    7.8709  -16.9869   20.4307 O   0  0  0  0  0  0  0  0  0  0  0  0
    9.8699  -20.5994   17.3282 N   0  0  0  0  0  0  0  0  0  0  0  0
    9.5201  -20.5360   18.7021 C   0  0  0  0  0  0  0  0  0  0  0  0
    8.3833  -20.8478   19.0872 O   0  0  0  0  0  0  0  0  0  0  0  0
   10.5473  -20.0858   19.6840 C   0  0  0  0  0  0  0  0  0  0  0  0
    9.9404  -18.9263   20.4438 C   0  0  2  0  0  0  0  0  0  0  0  0
    9.8008  -17.8321   19.5091 N   0  0  0  0  0  0  0  0  0  0  0  0
   10.7711  -18.5426   21.6167 C   0  0  0  0  0  0  0  0  0  0  0  0
   12.0078  -18.4269   21.4471 O   0  0  0  0  0  0  0  0  0  0  0  0
    8.5871  -13.7868   28.8498 N   0  0  0  0  0  0  0  0  0  0  0  0
    9.8608  -14.3455   29.1919 C   0  0  0  0  0  0  0  0  0  0  0  0
   10.4814  -14.0326   30.2915 N   0  0  0  0  0  0  0  0  0  0  0  0
   10.5139  -15.2775   28.3359 N   0  0  0  0  0  0  0  0  0  0  0  0
    9.9441  -15.6041   27.0654 C   0  0  0  0  0  0  0  0  0  0  0  0
   10.6868  -16.5647   26.2392 C   0  0  0  0  0  0  0  0  0  0  0  0
   10.2261  -17.0374   24.9471 C   0  0  0  0  0  0  0  0  0  0  0  0
   11.0217  -17.9291   24.0742 C   0  0  2  0  0  0  0  0  0  0  0  0
   10.2223  -18.3097   22.8864 N   0  0  0  0  0  0  0  0  0  0  0  0
   11.6737  -19.0971   24.6069 C   0  0  0  0  0  0  0  0  0  0  0  0
   11.2784  -20.2701   24.6181 O   0  0  0  0  0  0  0  0  0  0  0  0
   12.9426  -18.9136   25.2071 O   0  0  0  0  0  0  0  0  0  0  0  0
  2  1  1  6
  2  3  1  0
  2  9  1  0
  4  5  2  0
  4  3  1  0
  6  5  1  0
  7  8  2  0
  7  6  1  0
  8  4  1  0
  9 10  2  0
 11 12  1  0
 12 13  2  0
 14 12  1  0
 15 14  1  6
 16  9  1  0
 16 15  1  0
 17 15  1  0
 17 18  2  0
 20 19  1  0
 20 22  1  0
 21 20  2  0
 22 23  1  0
 23 24  1  0
 24 25  1  0
 26 25  1  1
 26 28  1  0
 26 27  1  0
 27 17  1  0
 28 30  1  0
 29 28  2  0
M  END
$$$$
