HNR.pdb
     RDKit          3D

 30 30  0  0  1  0  0  0  0  0999 V2000
    7.7205  -15.7849   16.6139 N   0  0  0  0  0  0  0  0  0  0  0  0
    8.7371  -14.7808   16.7662 C   0  0  1  0  0  0  0  0  0  0  0  0
    8.3429  -13.5505   15.9833 C   0  0  0  0  0  0  0  0  0  0  0  0
    8.0800  -13.8636   14.5561 C   0  0  0  0  0  0  0  0  0  0  0  0
    8.1420  -15.1067   13.9969 C   0  0  0  0  0  0  0  0  0  0  0  0
    7.8422  -14.9817   12.7003 N   0  0  0  0  0  0  0  0  0  0  0  0
    7.6005  -13.6779   12.4733 C   0  0  0  0  0  0  0  0  0  0  0  0
    7.7392  -12.9595   13.6004 N   0  0  0  0  0  0  0  0  0  0  0  0
    8.8835  -14.3709   18.1954 C   0  0  0  0  0  0  0  0  0  0  0  0
    8.9382  -13.1633   18.4733 O   0  0  0  0  0  0  0  0  0  0  0  0
    8.8366  -13.0917   22.9816 N   0  0  0  0  0  0  0  0  0  0  0  0
    7.8141  -13.8864   22.4014 C   0  0  0  0  0  0  0  0  0  0  0  0
    6.9219  -14.3901   23.1001 O   0  0  0  0  0  0  0  0  0  0  0  0
    7.8275  -14.1088   20.9275 C   0  0  0  0  0  0  0  0  0  0  0  0
    9.0165  -14.9982   20.6351 C   0  0  2  0  0  0  0  0  0  0  0  0
    8.9604  -15.3347   19.2302 N   0  0  0  0  0  0  0  0  0  0  0  0
    9.0164  -16.2151   21.4908 C   0  0  0  0  0  0  0  0  0  0  0  0
    7.9551  -16.5121   22.0883 O   0  0  0  0  0  0  0  0  0  0  0  0
   14.8765  -13.5832   17.4796 N   0  0  0  0  0  0  0  0  0  0  0  0
   15.0285  -13.8990   18.8685 C   0  0  0  0  0  0  0  0  0  0  0  0
   16.1950  -14.0882   19.4119 N   0  0  0  0  0  0  0  0  0  0  0  0
   13.8990  -14.0227   19.7268 N   0  0  0  0  0  0  0  0  0  0  0  0
   13.3575  -15.3144   20.0162 C   0  0  0  0  0  0  0  0  0  0  0  0
   13.2461  -15.6778   21.4348 C   0  0  0  0  0  0  0  0  0  0  0  0
   12.0134  -15.5824   22.1940 C   0  0  0  0  0  0  0  0  0  0  0  0
   11.2285  -16.7604   22.6257 C   0  0  2  0  0  0  0  0  0  0  0  0
   10.1489  -17.0280   21.6470 N   0  0  0  0  0  0  0  0  0  0  0  0
   10.6967  -16.8465   23.9609 C   0  0  0  0  0  0  0  0  0  0  0  0
    9.7179  -16.2641   24.4461 O   0  0  0  0  0  0  0  0  0  0  0  0
   11.3607  -17.7062   24.8685 O   0  0  0  0  0  0  0  0  0  0  0  0
  2  1  1  1
  2  3  1  0
  2  9  1  0
  4  5  2  0
  4  3  1  0
  6  5  1  0
  7  8  2  0
  7  6  1  0
  8  4  1  0
  9 10  2  0
 11 12  1  0
 12 13  2  0
 14 12  1  0
 15 14  1  1
 16  9  1  0
 16 15  1  0
 17 15  1  0
 17 18  2  0
 20 19  1  0
 20 22  1  0
 21 20  2  0
 22 23  1  0
 23 24  1  0
 24 25  1  0
 26 25  1  6
 26 28  1  0
 26 27  1  0
 27 17  1  0
 28 30  1  0
 29 28  2  0
M  END
$$$$
