HNR.pdb
     RDKit          3D

 30 30  0  0  1  0  0  0  0  0999 V2000
   13.8955  -19.4197   18.5637 N   0  0  0  0  0  0  0  0  0  0  0  0
   14.1416  -18.5417   19.6744 C   0  0  1  0  0  0  0  0  0  0  0  0
   14.1145  -17.1101   19.1929 C   0  0  0  0  0  0  0  0  0  0  0  0
   15.2080  -16.8298   18.2288 C   0  0  0  0  0  0  0  0  0  0  0  0
   15.0360  -16.4324   16.9348 C   0  0  0  0  0  0  0  0  0  0  0  0
   16.2490  -16.2822   16.3939 N   0  0  0  0  0  0  0  0  0  0  0  0
   17.1485  -16.5845   17.3475 C   0  0  0  0  0  0  0  0  0  0  0  0
   16.5372  -16.9272   18.4941 N   0  0  0  0  0  0  0  0  0  0  0  0
   13.0826  -18.6802   20.7192 C   0  0  0  0  0  0  0  0  0  0  0  0
   12.4046  -17.6876   21.0251 O   0  0  0  0  0  0  0  0  0  0  0  0
   11.2112  -22.8350   20.1851 N   0  0  0  0  0  0  0  0  0  0  0  0
   10.7441  -21.8049   21.0421 C   0  0  0  0  0  0  0  0  0  0  0  0
    9.7726  -21.1019   20.7262 O   0  0  0  0  0  0  0  0  0  0  0  0
   11.4436  -21.5782   22.3388 C   0  0  0  0  0  0  0  0  0  0  0  0
   11.8291  -20.1153   22.3722 C   0  0  2  0  0  0  0  0  0  0  0  0
   12.8437  -19.9198   21.3609 N   0  0  0  0  0  0  0  0  0  0  0  0
   12.3108  -19.7043   23.7184 C   0  0  0  0  0  0  0  0  0  0  0  0
   13.5189  -19.8961   23.9930 O   0  0  0  0  0  0  0  0  0  0  0  0
   10.6213  -12.3857   28.2764 N   0  0  0  0  0  0  0  0  0  0  0  0
    9.6145  -13.1933   27.6554 C   0  0  0  0  0  0  0  0  0  0  0  0
    8.4953  -12.6923   27.2213 N   0  0  0  0  0  0  0  0  0  0  0  0
    9.7928  -14.5956   27.4836 N   0  0  0  0  0  0  0  0  0  0  0  0
   10.2191  -15.1140   26.2206 C   0  0  0  0  0  0  0  0  0  0  0  0
   10.4203  -16.5665   26.1402 C   0  0  0  0  0  0  0  0  0  0  0  0
   11.7271  -17.1968   26.1266 C   0  0  0  0  0  0  0  0  0  0  0  0
   11.9262  -18.6583   26.0068 C   0  0  2  0  0  0  0  0  0  0  0  0
   11.4687  -19.1179   24.6747 N   0  0  0  0  0  0  0  0  0  0  0  0
   11.4352  -19.5575   27.0183 C   0  0  0  0  0  0  0  0  0  0  0  0
   10.5944  -20.4601   26.9133 O   0  0  0  0  0  0  0  0  0  0  0  0
   11.9661  -19.4171   28.3230 O   0  0  0  0  0  0  0  0  0  0  0  0
  2  1  1  6
  2  3  1  0
  2  9  1  0
  4  5  2  0
  4  3  1  0
  6  5  1  0
  7  8  2  0
  7  6  1  0
  8  4  1  0
  9 10  2  0
 11 12  1  0
 12 13  2  0
 14 12  1  0
 15 14  1  1
 16  9  1  0
 16 15  1  0
 17 15  1  0
 17 18  2  0
 20 19  1  0
 20 22  1  0
 21 20  2  0
 22 23  1  0
 23 24  1  0
 24 25  1  0
 26 25  1  1
 26 28  1  0
 26 27  1  0
 27 17  1  0
 28 30  1  0
 29 28  2  0
M  END
$$$$
