NCR.pdb
     RDKit          3D

 26 25  0  0  1  0  0  0  0  0999 V2000
   22.1247   -4.7505  -12.2931 N   0  0  0  0  0  0  0  0  0  0  0  0
   21.8848   -4.6094  -13.6761 C   0  0  0  0  0  0  0  0  0  0  0  0
   22.3623   -3.5575  -14.2134 O   0  0  0  0  0  0  0  0  0  0  0  0
   21.1582   -5.5296  -14.5513 C   0  0  0  0  0  0  0  0  0  0  0  0
   20.6624   -6.7688  -13.8576 C   0  0  2  0  0  0  0  0  0  0  0  0
   21.4716   -7.9118  -14.2874 N   0  0  0  0  0  0  0  0  0  0  0  0
   19.2425   -6.9945  -14.2607 C   0  0  0  0  0  0  0  0  0  0  0  0
   18.3180   -6.1643  -14.1557 O   0  0  0  0  0  0  0  0  0  0  0  0
   18.8332   -8.2600  -14.8283 N   0  0  0  0  0  0  0  0  0  0  0  0
   17.4817   -8.5397  -15.2230 C   0  0  1  0  0  0  0  0  0  0  0  0
   17.3405   -9.7550  -16.0890 C   0  0  0  0  0  0  0  0  0  0  0  0
   18.2134  -11.1953  -15.4528 S   0  0  0  0  0  0  0  0  0  0  0  0
   16.5552   -8.5757  -14.0459 C   0  0  0  0  0  0  0  0  0  0  0  0
   16.9185   -9.1353  -12.9698 O   0  0  0  0  0  0  0  0  0  0  0  0
   14.0783   -3.7868   -7.6976 N   0  0  0  0  0  0  0  0  0  0  0  0
   12.9324   -4.6032   -7.9461 C   0  0  0  0  0  0  0  0  0  0  0  0
   11.9707   -4.6580   -7.0969 N   0  0  0  0  0  0  0  0  0  0  0  0
   12.8462   -5.3609   -9.1318 N   0  0  0  0  0  0  0  0  0  0  0  0
   13.9936   -5.4676  -10.0790 C   0  0  0  0  0  0  0  0  0  0  0  0
   13.5536   -6.2833  -11.2295 C   0  0  0  0  0  0  0  0  0  0  0  0
   14.4134   -6.6963  -12.3093 C   0  0  0  0  0  0  0  0  0  0  0  0
   14.4032   -8.0540  -12.8885 C   0  0  2  0  0  0  0  0  0  0  0  0
   15.2774   -7.9935  -14.1142 N   0  0  0  0  0  0  0  0  0  0  0  0
   13.1237   -8.6330  -13.3307 C   0  0  0  0  0  0  0  0  0  0  0  0
   12.1833   -8.8051  -12.4503 O   0  0  0  0  0  0  0  0  0  0  0  0
   12.7537   -9.0295  -14.5901 O   0  0  0  0  0  0  0  0  0  0  0  0
  2  1  1  0
  3  2  2  0
  4  2  1  0
  5  4  1  0
  5  6  1  6
  7  9  1  0
  7  5  1  0
  8  7  2  0
 10 13  1  0
 10  9  1  0
 10 11  1  1
 12 11  1  0
 13 14  2  0
 16 17  2  0
 16 15  1  0
 18 16  1  0
 19 18  1  0
 20 19  1  0
 21 20  1  0
 22 21  1  6
 23 22  1  0
 23 13  1  0
 24 22  1  0
 24 26  1  0
 25 24  2  0
M  END
$$$$
