NCR.pdb
     RDKit          3D

 26 25  0  0  1  0  0  0  0  0999 V2000
   23.1601  -22.0614  -17.3835 N   0  0  0  0  0  0  0  0  0  0  0  0
   23.5047  -22.8365  -16.2563 C   0  0  0  0  0  0  0  0  0  0  0  0
   24.3591  -23.7589  -16.4623 O   0  0  0  0  0  0  0  0  0  0  0  0
   22.9959  -22.6970  -14.8916 C   0  0  0  0  0  0  0  0  0  0  0  0
   22.0377  -21.5516  -14.7112 C   0  0  2  0  0  0  0  0  0  0  0  0
   22.7525  -20.2924  -14.9341 N   0  0  0  0  0  0  0  0  0  0  0  0
   21.5283  -21.5841  -13.3080 C   0  0  0  0  0  0  0  0  0  0  0  0
   22.2277  -21.4879  -12.2801 O   0  0  0  0  0  0  0  0  0  0  0  0
   20.1149  -21.7378  -13.0439 N   0  0  0  0  0  0  0  0  0  0  0  0
   19.5536  -21.6678  -11.7246 C   0  0  1  0  0  0  0  0  0  0  0  0
   18.6218  -20.5114  -11.5210 C   0  0  0  0  0  0  0  0  0  0  0  0
   19.4543  -19.0010  -11.0046 S   0  0  0  0  0  0  0  0  0  0  0  0
   18.9346  -22.9693  -11.3143 C   0  0  0  0  0  0  0  0  0  0  0  0
   18.3297  -23.6812  -12.1690 O   0  0  0  0  0  0  0  0  0  0  0  0
   16.4542  -26.7878   -3.8668 N   0  0  0  0  0  0  0  0  0  0  0  0
   17.8153  -26.4796   -4.1735 C   0  0  0  0  0  0  0  0  0  0  0  0
   18.7715  -26.9605   -3.4640 N   0  0  0  0  0  0  0  0  0  0  0  0
   18.1231  -25.6399   -5.2633 N   0  0  0  0  0  0  0  0  0  0  0  0
   17.0566  -25.0395   -6.1159 C   0  0  0  0  0  0  0  0  0  0  0  0
   17.7177  -24.3174   -7.2224 C   0  0  0  0  0  0  0  0  0  0  0  0
   18.5794  -24.9366   -8.1970 C   0  0  0  0  0  0  0  0  0  0  0  0
   18.4209  -24.7647   -9.6544 C   0  0  2  0  0  0  0  0  0  0  0  0
   19.0141  -23.4197   -9.9849 N   0  0  0  0  0  0  0  0  0  0  0  0
   17.0661  -24.7636  -10.2310 C   0  0  0  0  0  0  0  0  0  0  0  0
   16.5563  -25.8942  -10.6198 O   0  0  0  0  0  0  0  0  0  0  0  0
   16.2182  -23.7030  -10.4218 O   0  0  0  0  0  0  0  0  0  0  0  0
  2  1  1  0
  3  2  2  0
  4  2  1  0
  5  4  1  0
  5  6  1  1
  7  9  1  0
  7  5  1  0
  8  7  2  0
 10 13  1  0
 10  9  1  0
 10 11  1  6
 12 11  1  0
 13 14  2  0
 16 17  2  0
 16 15  1  0
 18 16  1  0
 19 18  1  0
 20 19  1  0
 21 20  1  0
 22 21  1  1
 23 22  1  0
 23 13  1  0
 24 22  1  0
 24 26  1  0
 25 24  2  0
M  END
$$$$
