NCR.pdb
     RDKit          3D

 26 25  0  0  1  0  0  0  0  0999 V2000
   14.2011  -12.3676  -17.0217 N   0  0  0  0  0  0  0  0  0  0  0  0
   13.9893  -11.1583  -16.3269 C   0  0  0  0  0  0  0  0  0  0  0  0
   12.8655  -10.5943  -16.5327 O   0  0  0  0  0  0  0  0  0  0  0  0
   14.9073  -10.4897  -15.4045 C   0  0  0  0  0  0  0  0  0  0  0  0
   16.2127  -11.2119  -15.2116 C   0  0  2  0  0  0  0  0  0  0  0  0
   16.0440  -12.2329  -14.1747 N   0  0  0  0  0  0  0  0  0  0  0  0
   17.2341  -10.2203  -14.7613 C   0  0  0  0  0  0  0  0  0  0  0  0
   17.4652   -9.9038  -13.5774 O   0  0  0  0  0  0  0  0  0  0  0  0
   18.0615   -9.5299  -15.7256 N   0  0  0  0  0  0  0  0  0  0  0  0
   19.0916   -8.6030  -15.3509 C   0  0  1  0  0  0  0  0  0  0  0  0
   20.4821   -9.1249  -15.5541 C   0  0  0  0  0  0  0  0  0  0  0  0
   21.7597   -7.8825  -15.2985 S   0  0  0  0  0  0  0  0  0  0  0  0
   18.8935   -7.2631  -15.9917 C   0  0  0  0  0  0  0  0  0  0  0  0
   18.6975   -7.1797  -17.2398 O   0  0  0  0  0  0  0  0  0  0  0  0
   13.1119   -2.3873  -13.8842 N   0  0  0  0  0  0  0  0  0  0  0  0
   14.1095   -2.4317  -14.9061 C   0  0  0  0  0  0  0  0  0  0  0  0
   13.7951   -2.2437  -16.1369 N   0  0  0  0  0  0  0  0  0  0  0  0
   15.4555   -2.6843  -14.5714 N   0  0  0  0  0  0  0  0  0  0  0  0
   16.5501   -1.7517  -14.9675 C   0  0  0  0  0  0  0  0  0  0  0  0
   17.6364   -2.5582  -15.5609 C   0  0  0  0  0  0  0  0  0  0  0  0
   17.8348   -3.9633  -15.3116 C   0  0  0  0  0  0  0  0  0  0  0  0
   18.8963   -4.7649  -15.9516 C   0  0  2  0  0  0  0  0  0  0  0  0
   18.9206   -6.0848  -15.2254 N   0  0  0  0  0  0  0  0  0  0  0  0
   20.2810   -4.2645  -15.9306 C   0  0  0  0  0  0  0  0  0  0  0  0
   20.5755   -3.2234  -16.6507 O   0  0  0  0  0  0  0  0  0  0  0  0
   21.3548   -4.7478  -15.2282 O   0  0  0  0  0  0  0  0  0  0  0  0
  2  1  1  0
  3  2  2  0
  4  2  1  0
  5  4  1  0
  5  6  1  1
  7  9  1  0
  7  5  1  0
  8  7  2  0
 10 13  1  0
 10  9  1  0
 10 11  1  6
 12 11  1  0
 13 14  2  0
 16 17  2  0
 16 15  1  0
 18 16  1  0
 19 18  1  0
 20 19  1  0
 21 20  1  0
 22 21  1  1
 23 22  1  0
 23 13  1  0
 24 22  1  0
 24 26  1  0
 25 24  2  0
M  END
$$$$
