NCR.pdb
     RDKit          3D

 26 25  0  0  1  0  0  0  0  0999 V2000
   24.0028  -21.1434   -7.4487 N   0  0  0  0  0  0  0  0  0  0  0  0
   25.0550  -20.3521   -7.9555 C   0  0  0  0  0  0  0  0  0  0  0  0
   25.9677  -20.0487   -7.1199 O   0  0  0  0  0  0  0  0  0  0  0  0
   25.2123  -19.8496   -9.3205 C   0  0  0  0  0  0  0  0  0  0  0  0
   25.3615  -20.9306  -10.3558 C   0  0  2  0  0  0  0  0  0  0  0  0
   26.3757  -21.8865   -9.9042 N   0  0  0  0  0  0  0  0  0  0  0  0
   25.8165  -20.2989  -11.6299 C   0  0  0  0  0  0  0  0  0  0  0  0
   25.1866  -19.4407  -12.2794 O   0  0  0  0  0  0  0  0  0  0  0  0
   27.0853  -20.6658  -12.2186 N   0  0  0  0  0  0  0  0  0  0  0  0
   27.5101  -20.2065  -13.5106 C   0  0  1  0  0  0  0  0  0  0  0  0
   28.9815  -20.3560  -13.7552 C   0  0  0  0  0  0  0  0  0  0  0  0
   29.9764  -20.2057  -12.2624 S   0  0  0  0  0  0  0  0  0  0  0  0
   26.6917  -20.8094  -14.6115 C   0  0  0  0  0  0  0  0  0  0  0  0
   26.2747  -22.0007  -14.5122 O   0  0  0  0  0  0  0  0  0  0  0  0
   19.7471  -22.3891  -13.2639 N   0  0  0  0  0  0  0  0  0  0  0  0
   19.6778  -22.0069  -14.6389 C   0  0  0  0  0  0  0  0  0  0  0  0
   18.6001  -22.1842  -15.3143 N   0  0  0  0  0  0  0  0  0  0  0  0
   20.7978  -21.4292  -15.2708 N   0  0  0  0  0  0  0  0  0  0  0  0
   22.0762  -21.1946  -14.5391 C   0  0  0  0  0  0  0  0  0  0  0  0
   22.6837  -19.9603  -15.0779 C   0  0  0  0  0  0  0  0  0  0  0  0
   24.1014  -19.7109  -15.1372 C   0  0  0  0  0  0  0  0  0  0  0  0
   24.9559  -20.1175  -16.2701 C   0  0  2  0  0  0  0  0  0  0  0  0
   26.3742  -20.0694  -15.7639 N   0  0  0  0  0  0  0  0  0  0  0  0
   24.9377  -19.3139  -17.5037 C   0  0  0  0  0  0  0  0  0  0  0  0
   25.6469  -18.2255  -17.5457 O   0  0  0  0  0  0  0  0  0  0  0  0
   24.2611  -19.5545  -18.6718 O   0  0  0  0  0  0  0  0  0  0  0  0
  2  1  1  0
  3  2  2  0
  4  2  1  0
  5  4  1  0
  5  6  1  1
  7  9  1  0
  7  5  1  0
  8  7  2  0
 10 13  1  0
 10  9  1  0
 10 11  1  6
 12 11  1  0
 13 14  2  0
 16 17  2  0
 16 15  1  0
 18 16  1  0
 19 18  1  0
 20 19  1  0
 21 20  1  0
 22 21  1  1
 23 22  1  0
 23 13  1  0
 24 22  1  0
 24 26  1  0
 25 24  2  0
M  END
$$$$
