NCR.pdb
     RDKit          3D

 26 25  0  0  1  0  0  0  0  0999 V2000
   16.2857  -16.4617  -14.9783 N   0  0  0  0  0  0  0  0  0  0  0  0
   17.6514  -16.1460  -14.8194 C   0  0  0  0  0  0  0  0  0  0  0  0
   18.4321  -17.1407  -14.6634 O   0  0  0  0  0  0  0  0  0  0  0  0
   18.2627  -14.8167  -14.8168 C   0  0  0  0  0  0  0  0  0  0  0  0
   17.2753  -13.6902  -14.9541 C   0  0  2  0  0  0  0  0  0  0  0  0
   16.7935  -13.6446  -16.3368 N   0  0  0  0  0  0  0  0  0  0  0  0
   17.9775  -12.4112  -14.6374 C   0  0  0  0  0  0  0  0  0  0  0  0
   18.5864  -12.1609  -13.5783 O   0  0  0  0  0  0  0  0  0  0  0  0
   17.9936  -11.3267  -15.5938 N   0  0  0  0  0  0  0  0  0  0  0  0
   18.7445  -10.1196  -15.3950 C   0  0  1  0  0  0  0  0  0  0  0  0
   19.4729   -9.6485  -16.6176 C   0  0  0  0  0  0  0  0  0  0  0  0
   20.6413  -10.8547  -17.2664 S   0  0  0  0  0  0  0  0  0  0  0  0
   17.9057   -9.0371  -14.7868 C   0  0  0  0  0  0  0  0  0  0  0  0
   16.7169   -8.8574  -15.1837 O   0  0  0  0  0  0  0  0  0  0  0  0
   14.9379   -6.4890   -6.9253 N   0  0  0  0  0  0  0  0  0  0  0  0
   14.0834   -6.9008   -7.9938 C   0  0  0  0  0  0  0  0  0  0  0  0
   12.8065   -6.8397   -7.8719 N   0  0  0  0  0  0  0  0  0  0  0  0
   14.6366   -7.3813   -9.1982 N   0  0  0  0  0  0  0  0  0  0  0  0
   15.9331   -6.8660   -9.7258 C   0  0  0  0  0  0  0  0  0  0  0  0
   16.2229   -7.5810  -10.9858 C   0  0  0  0  0  0  0  0  0  0  0  0
   17.4513   -7.4549  -11.7279 C   0  0  0  0  0  0  0  0  0  0  0  0
   17.5060   -7.1700  -13.1753 C   0  0  2  0  0  0  0  0  0  0  0  0
   18.4187   -8.2093  -13.7729 N   0  0  0  0  0  0  0  0  0  0  0  0
   18.0221   -5.8676  -13.6286 C   0  0  0  0  0  0  0  0  0  0  0  0
   17.2942   -4.8092  -13.4313 O   0  0  0  0  0  0  0  0  0  0  0  0
   19.2124   -5.5879  -14.2489 O   0  0  0  0  0  0  0  0  0  0  0  0
  2  1  1  0
  3  2  2  0
  4  2  1  0
  5  4  1  0
  5  6  1  6
  7  9  1  0
  7  5  1  0
  8  7  2  0
 10 13  1  0
 10  9  1  0
 10 11  1  6
 12 11  1  0
 13 14  2  0
 16 17  2  0
 16 15  1  0
 18 16  1  0
 19 18  1  0
 20 19  1  0
 21 20  1  0
 22 21  1  1
 23 22  1  0
 23 13  1  0
 24 22  1  0
 24 26  1  0
 25 24  2  0
M  END
$$$$
