NCR.pdb
     RDKit          3D

 26 25  0  0  1  0  0  0  0  0999 V2000
   14.3996  -13.1563  -14.0577 N   0  0  0  0  0  0  0  0  0  0  0  0
   14.1629  -12.1803  -13.0670 C   0  0  0  0  0  0  0  0  0  0  0  0
   13.3890  -12.5343  -12.1188 O   0  0  0  0  0  0  0  0  0  0  0  0
   14.7047  -10.8224  -13.0086 C   0  0  0  0  0  0  0  0  0  0  0  0
   15.9664  -10.7027  -12.1983 C   0  0  2  0  0  0  0  0  0  0  0  0
   15.6512  -10.9397  -10.7874 N   0  0  0  0  0  0  0  0  0  0  0  0
   16.4940   -9.3148  -12.3561 C   0  0  0  0  0  0  0  0  0  0  0  0
   16.6975   -8.7352  -13.4413 O   0  0  0  0  0  0  0  0  0  0  0  0
   16.8182   -8.5167  -11.1947 N   0  0  0  0  0  0  0  0  0  0  0  0
   17.3353   -7.1806  -11.2834 C   0  0  1  0  0  0  0  0  0  0  0  0
   17.1236   -6.3633  -10.0447 C   0  0  0  0  0  0  0  0  0  0  0  0
   16.9775   -7.3530   -8.5480 S   0  0  0  0  0  0  0  0  0  0  0  0
   18.7656   -7.1668  -11.7300 C   0  0  0  0  0  0  0  0  0  0  0  0
   19.5870   -8.0039  -11.2529 O   0  0  0  0  0  0  0  0  0  0  0  0
   22.8668  -12.1178  -15.1519 N   0  0  0  0  0  0  0  0  0  0  0  0
   23.3776  -10.8682  -15.6200 C   0  0  0  0  0  0  0  0  0  0  0  0
   24.5922  -10.7673  -16.0242 N   0  0  0  0  0  0  0  0  0  0  0  0
   22.5489   -9.7279  -15.6421 N   0  0  0  0  0  0  0  0  0  0  0  0
   22.8220   -8.5435  -14.7775 C   0  0  0  0  0  0  0  0  0  0  0  0
   21.8168   -7.5096  -15.0991 C   0  0  0  0  0  0  0  0  0  0  0  0
   20.6491   -7.2351  -14.3011 C   0  0  0  0  0  0  0  0  0  0  0  0
   20.6488   -6.3244  -13.1395 C   0  0  2  0  0  0  0  0  0  0  0  0
   19.2172   -6.2329  -12.6788 N   0  0  0  0  0  0  0  0  0  0  0  0
   21.1070   -4.9367  -13.3189 C   0  0  0  0  0  0  0  0  0  0  0  0
   22.3680   -4.6726  -13.1478 O   0  0  0  0  0  0  0  0  0  0  0  0
   20.3728   -3.8308  -13.6625 O   0  0  0  0  0  0  0  0  0  0  0  0
  2  1  1  0
  3  2  2  0
  4  2  1  0
  5  4  1  0
  5  6  1  1
  7  9  1  0
  7  5  1  0
  8  7  2  0
 10 13  1  0
 10  9  1  0
 10 11  1  1
 12 11  1  0
 13 14  2  0
 16 17  2  0
 16 15  1  0
 18 16  1  0
 19 18  1  0
 20 19  1  0
 21 20  1  0
 22 21  1  6
 23 22  1  0
 23 13  1  0
 24 22  1  0
 24 26  1  0
 25 24  2  0
M  END
$$$$
