NCR.pdb
     RDKit          3D

 26 25  0  0  1  0  0  0  0  0999 V2000
   25.2638  -21.1204  -16.0620 N   0  0  0  0  0  0  0  0  0  0  0  0
   25.2499  -20.3164  -14.9029 C   0  0  0  0  0  0  0  0  0  0  0  0
   25.7938  -19.1703  -15.0210 O   0  0  0  0  0  0  0  0  0  0  0  0
   24.6834  -20.6498  -13.5958 C   0  0  0  0  0  0  0  0  0  0  0  0
   25.6171  -20.3983  -12.4435 C   0  0  2  0  0  0  0  0  0  0  0  0
   26.9129  -21.0160  -12.7363 N   0  0  0  0  0  0  0  0  0  0  0  0
   25.0363  -21.0332  -11.2233 C   0  0  0  0  0  0  0  0  0  0  0  0
   24.2909  -22.0328  -11.2107 O   0  0  0  0  0  0  0  0  0  0  0  0
   25.3198  -20.4960   -9.9110 N   0  0  0  0  0  0  0  0  0  0  0  0
   24.7643  -21.0424   -8.7054 C   0  0  1  0  0  0  0  0  0  0  0  0
   25.4318  -20.5569   -7.4541 C   0  0  0  0  0  0  0  0  0  0  0  0
   26.8165  -19.4486   -7.7627 S   0  0  0  0  0  0  0  0  0  0  0  0
   23.2764  -20.8730   -8.6525 C   0  0  0  0  0  0  0  0  0  0  0  0
   22.7246  -19.9168   -9.2724 O   0  0  0  0  0  0  0  0  0  0  0  0
   19.0613  -22.2458  -14.3352 N   0  0  0  0  0  0  0  0  0  0  0  0
   20.1956  -21.7306  -13.6356 C   0  0  0  0  0  0  0  0  0  0  0  0
   21.2398  -21.3444  -14.2754 N   0  0  0  0  0  0  0  0  0  0  0  0
   20.1794  -21.6415  -12.2287 N   0  0  0  0  0  0  0  0  0  0  0  0
   19.0008  -22.0842  -11.4287 C   0  0  0  0  0  0  0  0  0  0  0  0
   19.3281  -21.8930  -10.0008 C   0  0  0  0  0  0  0  0  0  0  0  0
   20.6681  -21.8084   -9.4783 C   0  0  0  0  0  0  0  0  0  0  0  0
   20.9771  -21.6388   -8.0449 C   0  0  2  0  0  0  0  0  0  0  0  0
   22.4734  -21.7651   -7.9207 N   0  0  0  0  0  0  0  0  0  0  0  0
   20.4077  -22.5877   -7.0736 C   0  0  0  0  0  0  0  0  0  0  0  0
   19.1196  -22.6007   -6.9009 O   0  0  0  0  0  0  0  0  0  0  0  0
   21.0593  -23.5078   -6.2933 O   0  0  0  0  0  0  0  0  0  0  0  0
  2  1  1  0
  3  2  2  0
  4  2  1  0
  5  4  1  0
  5  6  1  6
  7  9  1  0
  7  5  1  0
  8  7  2  0
 10 13  1  0
 10  9  1  0
 10 11  1  1
 12 11  1  0
 13 14  2  0
 16 17  2  0
 16 15  1  0
 18 16  1  0
 19 18  1  0
 20 19  1  0
 21 20  1  0
 22 21  1  6
 23 22  1  0
 23 13  1  0
 24 22  1  0
 24 26  1  0
 25 24  2  0
M  END
$$$$
