NCR.pdb
     RDKit          3D

 26 25  0  0  1  0  0  0  0  0999 V2000
   18.7465  -16.5033  -15.5109 N   0  0  0  0  0  0  0  0  0  0  0  0
   18.5395  -15.1565  -15.8760 C   0  0  0  0  0  0  0  0  0  0  0  0
   17.6321  -14.9552  -16.7475 O   0  0  0  0  0  0  0  0  0  0  0  0
   19.2429  -13.9787  -15.3672 C   0  0  0  0  0  0  0  0  0  0  0  0
   19.4563  -12.9029  -16.3967 C   0  0  2  0  0  0  0  0  0  0  0  0
   20.4614  -13.3579  -17.3604 N   0  0  0  0  0  0  0  0  0  0  0  0
   19.9620  -11.6826  -15.7005 C   0  0  0  0  0  0  0  0  0  0  0  0
   21.0109  -11.6125  -15.0297 O   0  0  0  0  0  0  0  0  0  0  0  0
   19.2236  -10.4411  -15.7667 N   0  0  0  0  0  0  0  0  0  0  0  0
   19.7184   -9.2070  -15.2255 C   0  0  1  0  0  0  0  0  0  0  0  0
   21.0933   -8.8434  -15.6993 C   0  0  0  0  0  0  0  0  0  0  0  0
   21.6562   -7.2395  -15.1063 S   0  0  0  0  0  0  0  0  0  0  0  0
   18.7422   -8.0860  -15.4151 C   0  0  0  0  0  0  0  0  0  0  0  0
   18.1022   -7.9796  -16.5024 O   0  0  0  0  0  0  0  0  0  0  0  0
   11.3610   -8.1167  -12.4126 N   0  0  0  0  0  0  0  0  0  0  0  0
   11.5023   -6.7126  -12.6362 C   0  0  0  0  0  0  0  0  0  0  0  0
   10.5992   -5.8917  -12.2368 N   0  0  0  0  0  0  0  0  0  0  0  0
   12.6403   -6.2123  -13.3013 N   0  0  0  0  0  0  0  0  0  0  0  0
   13.6658   -7.1206  -13.8914 C   0  0  0  0  0  0  0  0  0  0  0  0
   14.9469   -6.3859  -13.9344 C   0  0  0  0  0  0  0  0  0  0  0  0
   16.1535   -6.8907  -14.5386 C   0  0  0  0  0  0  0  0  0  0  0  0
   17.4188   -6.1325  -14.5937 C   0  0  2  0  0  0  0  0  0  0  0  0
   18.5208   -7.1412  -14.3980 N   0  0  0  0  0  0  0  0  0  0  0  0
   17.6597   -5.0706  -13.6026 C   0  0  0  0  0  0  0  0  0  0  0  0
   18.4815   -5.3097  -12.6245 O   0  0  0  0  0  0  0  0  0  0  0  0
   17.1302   -3.8066  -13.5569 O   0  0  0  0  0  0  0  0  0  0  0  0
  2  1  1  0
  3  2  2  0
  4  2  1  0
  5  4  1  0
  5  6  1  6
  7  9  1  0
  7  5  1  0
  8  7  2  0
 10 13  1  0
 10  9  1  0
 10 11  1  6
 12 11  1  0
 13 14  2  0
 16 17  2  0
 16 15  1  0
 18 16  1  0
 19 18  1  0
 20 19  1  0
 21 20  1  0
 22 21  1  1
 23 22  1  0
 23 13  1  0
 24 22  1  0
 24 26  1  0
 25 24  2  0
M  END
$$$$
