NCR.pdb
     RDKit          3D

 26 25  0  0  1  0  0  0  0  0999 V2000
   18.3345  -22.7774  -13.1763 N   0  0  0  0  0  0  0  0  0  0  0  0
   19.1557  -22.1180  -14.1148 C   0  0  0  0  0  0  0  0  0  0  0  0
   18.8079  -22.2421  -15.3342 O   0  0  0  0  0  0  0  0  0  0  0  0
   20.3480  -21.3144  -13.8441 C   0  0  0  0  0  0  0  0  0  0  0  0
   20.7623  -21.3044  -12.3981 C   0  0  2  0  0  0  0  0  0  0  0  0
   19.8012  -20.5070  -11.6323 N   0  0  0  0  0  0  0  0  0  0  0  0
   22.1111  -20.6712  -12.3020 C   0  0  0  0  0  0  0  0  0  0  0  0
   22.3963  -19.5131  -12.6662 O   0  0  0  0  0  0  0  0  0  0  0  0
   23.2285  -21.4048  -11.7503 N   0  0  0  0  0  0  0  0  0  0  0  0
   24.5525  -20.8586  -11.6554 C   0  0  1  0  0  0  0  0  0  0  0  0
   25.3360  -21.3643  -10.4818 C   0  0  0  0  0  0  0  0  0  0  0  0
   26.9905  -20.6639  -10.3675 S   0  0  0  0  0  0  0  0  0  0  0  0
   25.3072  -21.0040  -12.9417 C   0  0  0  0  0  0  0  0  0  0  0  0
   25.3881  -22.1350  -13.5051 O   0  0  0  0  0  0  0  0  0  0  0  0
   27.4719  -16.4245  -20.0041 N   0  0  0  0  0  0  0  0  0  0  0  0
   26.3731  -16.3674  -19.0926 C   0  0  0  0  0  0  0  0  0  0  0  0
   25.2215  -15.9520  -19.4804 N   0  0  0  0  0  0  0  0  0  0  0  0
   26.5436  -16.7679  -17.7517 N   0  0  0  0  0  0  0  0  0  0  0  0
   27.8639  -17.2294  -17.2333 C   0  0  0  0  0  0  0  0  0  0  0  0
   27.6658  -18.5560  -16.6139 C   0  0  0  0  0  0  0  0  0  0  0  0
   26.8766  -18.7915  -15.4318 C   0  0  0  0  0  0  0  0  0  0  0  0
   26.7045  -20.1218  -14.8157 C   0  0  2  0  0  0  0  0  0  0  0  0
   25.9329  -19.8970  -13.5413 N   0  0  0  0  0  0  0  0  0  0  0  0
   27.8994  -20.8939  -14.4361 C   0  0  0  0  0  0  0  0  0  0  0  0
   28.5787  -21.4862  -15.3725 O   0  0  0  0  0  0  0  0  0  0  0  0
   28.4334  -21.0854  -13.1878 O   0  0  0  0  0  0  0  0  0  0  0  0
  2  1  1  0
  3  2  2  0
  4  2  1  0
  5  4  1  0
  5  6  1  1
  7  9  1  0
  7  5  1  0
  8  7  2  0
 10 13  1  0
 10  9  1  0
 10 11  1  1
 12 11  1  0
 13 14  2  0
 16 17  2  0
 16 15  1  0
 18 16  1  0
 19 18  1  0
 20 19  1  0
 21 20  1  0
 22 21  1  1
 23 22  1  0
 23 13  1  0
 24 22  1  0
 24 26  1  0
 25 24  2  0
M  END
$$$$
