NCR.pdb
     RDKit          3D

 26 25  0  0  1  0  0  0  0  0999 V2000
   20.0239  -23.7135   -7.8141 N   0  0  0  0  0  0  0  0  0  0  0  0
   19.9250  -22.9478   -8.9948 C   0  0  0  0  0  0  0  0  0  0  0  0
   18.8700  -23.1330   -9.6846 O   0  0  0  0  0  0  0  0  0  0  0  0
   20.8892  -21.9736   -9.5067 C   0  0  0  0  0  0  0  0  0  0  0  0
   22.0552  -21.7280   -8.5886 C   0  0  2  0  0  0  0  0  0  0  0  0
   21.5888  -20.9888   -7.4129 N   0  0  0  0  0  0  0  0  0  0  0  0
   23.0608  -20.9014   -9.3199 C   0  0  0  0  0  0  0  0  0  0  0  0
   22.8259  -19.8291   -9.9117 O   0  0  0  0  0  0  0  0  0  0  0  0
   24.4434  -21.3192   -9.3889 N   0  0  0  0  0  0  0  0  0  0  0  0
   25.4564  -20.5617  -10.0675 C   0  0  1  0  0  0  0  0  0  0  0  0
   26.7620  -20.4983   -9.3335 C   0  0  0  0  0  0  0  0  0  0  0  0
   26.7223  -19.4241   -7.8894 S   0  0  0  0  0  0  0  0  0  0  0  0
   25.6290  -21.0106  -11.4866 C   0  0  0  0  0  0  0  0  0  0  0  0
   25.6922  -22.2458  -11.7578 O   0  0  0  0  0  0  0  0  0  0  0  0
   22.2721  -18.7847  -18.8351 N   0  0  0  0  0  0  0  0  0  0  0  0
   22.1596  -18.3911  -17.4661 C   0  0  0  0  0  0  0  0  0  0  0  0
   21.0208  -18.0667  -16.9694 N   0  0  0  0  0  0  0  0  0  0  0  0
   23.3039  -18.3544  -16.6434 N   0  0  0  0  0  0  0  0  0  0  0  0
   24.6558  -18.7088  -17.1647 C   0  0  0  0  0  0  0  0  0  0  0  0
   25.2359  -19.7225  -16.2600 C   0  0  0  0  0  0  0  0  0  0  0  0
   25.2218  -19.6320  -14.8222 C   0  0  0  0  0  0  0  0  0  0  0  0
   25.9002  -20.5981  -13.9359 C   0  0  2  0  0  0  0  0  0  0  0  0
   25.7223  -20.0769  -12.5334 N   0  0  0  0  0  0  0  0  0  0  0  0
   27.3447  -20.8294  -14.1029 C   0  0  0  0  0  0  0  0  0  0  0  0
   28.1746  -20.0186  -13.5172 O   0  0  0  0  0  0  0  0  0  0  0  0
   27.9765  -21.8207  -14.8087 O   0  0  0  0  0  0  0  0  0  0  0  0
  2  1  1  0
  3  2  2  0
  4  2  1  0
  5  4  1  0
  5  6  1  1
  7  9  1  0
  7  5  1  0
  8  7  2  0
 10 13  1  0
 10  9  1  0
 10 11  1  1
 12 11  1  0
 13 14  2  0
 16 17  2  0
 16 15  1  0
 18 16  1  0
 19 18  1  0
 20 19  1  0
 21 20  1  0
 22 21  1  6
 23 22  1  0
 23 13  1  0
 24 22  1  0
 24 26  1  0
 25 24  2  0
M  END
$$$$
