MVK.pdb
     RDKit          3D

 25 24  0  0  1  0  0  0  0  0999 V2000
    7.2282  -10.9893   26.8009 C   0  0  0  0  0  0  0  0  0  0  0  0
    5.9570  -11.9325   27.6310 S   0  0  0  0  0  0  0  0  0  0  0  0
    5.6522  -13.5589   27.0170 C   0  0  0  0  0  0  0  0  0  0  0  0
    6.6042  -14.1009   26.0301 C   0  0  0  0  0  0  0  0  0  0  0  0
    6.2576  -15.3481   25.3433 C   0  0  2  0  0  0  0  0  0  0  0  0
    6.0560  -16.4762   26.2005 N   0  0  0  0  0  0  0  0  0  0  0  0
    7.2466  -15.7208   24.2664 C   0  0  0  0  0  0  0  0  0  0  0  0
    8.0294  -16.6927   24.3984 O   0  0  0  0  0  0  0  0  0  0  0  0
    8.7548  -14.7914   19.5744 C   0  0  0  0  0  0  0  0  0  0  0  0
    8.0432  -14.4667   20.8368 C   0  0  2  0  0  0  0  0  0  0  0  0
    8.3738  -13.0812   21.3567 C   0  0  0  0  0  0  0  0  0  0  0  0
    8.2475  -15.4382   21.9741 C   0  0  2  0  0  0  0  0  0  0  0  0
    7.3294  -14.9836   23.0587 N   0  0  0  0  0  0  0  0  0  0  0  0
    9.6141  -15.2550   22.5393 C   0  0  0  0  0  0  0  0  0  0  0  0
    9.8137  -14.5365   23.5496 O   0  0  0  0  0  0  0  0  0  0  0  0
   10.7646  -15.8971   21.9631 N   0  0  0  0  0  0  0  0  0  0  0  0
   11.8274  -16.5217   22.6173 C   0  0  1  0  0  0  0  0  0  0  0  0
   11.6711  -17.4640   23.7288 C   0  0  0  0  0  0  0  0  0  0  0  0
   11.2980  -17.0476   25.0820 C   0  0  0  0  0  0  0  0  0  0  0  0
   11.1798  -18.1027   26.1059 C   0  0  0  0  0  0  0  0  0  0  0  0
   10.9832  -17.4818   27.5074 C   0  0  0  0  0  0  0  0  0  0  0  0
   10.8098  -18.5246   28.4724 N   0  0  0  0  0  0  0  0  0  0  0  0
   12.9818  -16.9581   21.7384 C   0  0  0  0  0  0  0  0  0  0  0  0
   14.2291  -16.9953   22.3267 O   0  0  0  0  0  0  0  0  0  0  0  0
   12.8247  -17.2623   20.5702 O   0  0  0  0  0  0  0  0  0  0  0  0
  2  1  1  0
  3  2  1  0
  4  5  1  0
  4  3  1  0
  5  6  1  1
  5  7  1  0
  7  8  2  0
 10 12  1  0
 10  9  1  6
 11 10  1  0
 12 14  1  0
 13  7  1  0
 12 13  1  1
 14 15  2  0
 16 17  1  0
 16 14  1  0
 17 23  1  0
 17 18  1  6
 19 18  1  0
 20 19  1  0
 21 20  1  0
 22 21  1  0
 23 25  2  0
 23 24  1  0
M  END
$$$$
