MVK.pdb
     RDKit          3D

 25 24  0  0  1  0  0  0  0  0999 V2000
    7.9905  -11.1697   26.6146 C   0  0  0  0  0  0  0  0  0  0  0  0
    6.6923  -11.9880   27.5310 S   0  0  0  0  0  0  0  0  0  0  0  0
    5.9998  -13.4362   26.7975 C   0  0  0  0  0  0  0  0  0  0  0  0
    6.8045  -14.1299   25.7750 C   0  0  0  0  0  0  0  0  0  0  0  0
    6.1910  -15.2432   25.0461 C   0  0  2  0  0  0  0  0  0  0  0  0
    5.8367  -16.3725   25.8506 N   0  0  0  0  0  0  0  0  0  0  0  0
    7.0254  -15.7137   23.8803 C   0  0  0  0  0  0  0  0  0  0  0  0
    7.5055  -16.8725   23.8388 O   0  0  0  0  0  0  0  0  0  0  0  0
    6.8500  -13.9429   20.0278 C   0  0  0  0  0  0  0  0  0  0  0  0
    8.1688  -14.2332   20.6458 C   0  0  2  0  0  0  0  0  0  0  0  0
    9.2385  -14.5557   19.6206 C   0  0  0  0  0  0  0  0  0  0  0  0
    8.1823  -15.3355   21.6770 C   0  0  2  0  0  0  0  0  0  0  0  0
    7.3000  -14.8606   22.7823 N   0  0  0  0  0  0  0  0  0  0  0  0
    9.5379  -15.4202   22.2902 C   0  0  0  0  0  0  0  0  0  0  0  0
    9.9964  -14.4884   22.9960 O   0  0  0  0  0  0  0  0  0  0  0  0
   10.3795  -16.5726   22.1119 N   0  0  0  0  0  0  0  0  0  0  0  0
   11.4603  -16.9859   22.8919 C   0  0  1  0  0  0  0  0  0  0  0  0
   11.5722  -18.3104   23.5089 C   0  0  0  0  0  0  0  0  0  0  0  0
   12.7628  -18.7543   24.2364 C   0  0  0  0  0  0  0  0  0  0  0  0
   12.5837  -19.1598   25.6432 C   0  0  0  0  0  0  0  0  0  0  0  0
   13.8968  -19.7418   26.2134 C   0  0  0  0  0  0  0  0  0  0  0  0
   13.6607  -20.2562   27.5282 N   0  0  0  0  0  0  0  0  0  0  0  0
   12.8268  -16.5228   22.4291 C   0  0  0  0  0  0  0  0  0  0  0  0
   12.9218  -16.0763   21.1274 O   0  0  0  0  0  0  0  0  0  0  0  0
   13.7974  -16.5407   23.1637 O   0  0  0  0  0  0  0  0  0  0  0  0
  2  1  1  0
  3  2  1  0
  4  5  1  0
  4  3  1  0
  5  6  1  1
  5  7  1  0
  7  8  2  0
 10 12  1  0
 10  9  1  6
 11 10  1  0
 12 14  1  0
 13  7  1  0
 12 13  1  1
 14 15  2  0
 16 17  1  0
 16 14  1  0
 17 23  1  0
 17 18  1  6
 19 18  1  0
 20 19  1  0
 21 20  1  0
 22 21  1  0
 23 25  2  0
 23 24  1  0
M  END
$$$$
