MVK.pdb
     RDKit          3D

 25 24  0  0  1  0  0  0  0  0999 V2000
    6.3508  -10.5145   26.5553 C   0  0  0  0  0  0  0  0  0  0  0  0
    6.4858  -12.0148   27.5173 S   0  0  0  0  0  0  0  0  0  0  0  0
    5.9649  -13.5067   26.7312 C   0  0  0  0  0  0  0  0  0  0  0  0
    6.8771  -14.1052   25.7393 C   0  0  0  0  0  0  0  0  0  0  0  0
    6.3936  -15.2384   24.9462 C   0  0  2  0  0  0  0  0  0  0  0  0
    6.0783  -16.4143   25.6986 N   0  0  0  0  0  0  0  0  0  0  0  0
    7.3289  -15.6112   23.8223 C   0  0  0  0  0  0  0  0  0  0  0  0
    8.0701  -16.6217   23.8896 O   0  0  0  0  0  0  0  0  0  0  0  0
    9.0424  -13.0473   20.6693 C   0  0  0  0  0  0  0  0  0  0  0  0
    8.1452  -14.2111   20.4548 C   0  0  2  0  0  0  0  0  0  0  0  0
    6.6874  -13.8127   20.3309 C   0  0  0  0  0  0  0  0  0  0  0  0
    8.2294  -15.3049   21.4918 C   0  0  2  0  0  0  0  0  0  0  0  0
    7.4061  -14.8304   22.6419 N   0  0  0  0  0  0  0  0  0  0  0  0
    9.6185  -15.3702   22.0276 C   0  0  0  0  0  0  0  0  0  0  0  0
   10.0103  -14.5873   22.9277 O   0  0  0  0  0  0  0  0  0  0  0  0
   10.5709  -16.3352   21.5482 N   0  0  0  0  0  0  0  0  0  0  0  0
   11.6738  -16.8701   22.2152 C   0  0  1  0  0  0  0  0  0  0  0  0
   11.5959  -17.9543   23.1980 C   0  0  0  0  0  0  0  0  0  0  0  0
   12.7772  -18.5479   23.8272 C   0  0  0  0  0  0  0  0  0  0  0  0
   12.5571  -19.6816   24.7448 C   0  0  0  0  0  0  0  0  0  0  0  0
   13.8892  -20.1264   25.3899 C   0  0  0  0  0  0  0  0  0  0  0  0
   13.6464  -21.2165   26.2852 N   0  0  0  0  0  0  0  0  0  0  0  0
   12.9375  -17.0184   21.3926 C   0  0  0  0  0  0  0  0  0  0  0  0
   14.1270  -17.0775   22.0889 O   0  0  0  0  0  0  0  0  0  0  0  0
   12.9128  -17.0830   20.1772 O   0  0  0  0  0  0  0  0  0  0  0  0
  2  1  1  0
  3  2  1  0
  4  5  1  0
  4  3  1  0
  5  6  1  1
  5  7  1  0
  7  8  2  0
 10 12  1  0
 10  9  1  1
 11 10  1  0
 12 14  1  0
 13  7  1  0
 12 13  1  1
 14 15  2  0
 16 17  1  0
 16 14  1  0
 17 23  1  0
 17 18  1  6
 19 18  1  0
 20 19  1  0
 21 20  1  0
 22 21  1  0
 23 25  2  0
 23 24  1  0
M  END
$$$$
