MVK.pdb
     RDKit          3D

 25 24  0  0  1  0  0  0  0  0999 V2000
    6.0497  -20.0942   22.9881 C   0  0  0  0  0  0  0  0  0  0  0  0
    4.8276  -19.1711   22.0667 S   0  0  0  0  0  0  0  0  0  0  0  0
    5.2525  -17.5145   21.6307 C   0  0  0  0  0  0  0  0  0  0  0  0
    6.1725  -16.7915   22.5279 C   0  0  0  0  0  0  0  0  0  0  0  0
    6.5213  -15.4075   22.1962 C   0  0  2  0  0  0  0  0  0  0  0  0
    6.9946  -15.2051   20.8608 N   0  0  0  0  0  0  0  0  0  0  0  0
    7.5083  -14.8018   23.1636 C   0  0  0  0  0  0  0  0  0  0  0  0
    8.7445  -14.8339   22.9502 O   0  0  0  0  0  0  0  0  0  0  0  0
    7.0142  -13.2761   27.6254 C   0  0  0  0  0  0  0  0  0  0  0  0
    7.3434  -12.7649   26.2705 C   0  0  2  0  0  0  0  0  0  0  0  0
    6.1231  -12.2731   25.5168 C   0  0  0  0  0  0  0  0  0  0  0  0
    8.0775  -13.7257   25.3668 C   0  0  2  0  0  0  0  0  0  0  0  0
    7.0743  -14.1703   24.3560 N   0  0  0  0  0  0  0  0  0  0  0  0
    8.4132  -14.9611   26.1295 C   0  0  0  0  0  0  0  0  0  0  0  0
    7.5273  -15.7875   26.4597 O   0  0  0  0  0  0  0  0  0  0  0  0
    9.7638  -15.2701   26.5149 N   0  0  0  0  0  0  0  0  0  0  0  0
   10.2392  -16.4043   27.1744 C   0  0  1  0  0  0  0  0  0  0  0  0
   11.2668  -17.3000   26.6365 C   0  0  0  0  0  0  0  0  0  0  0  0
   11.3584  -17.6488   25.2174 C   0  0  0  0  0  0  0  0  0  0  0  0
   12.5587  -18.3848   24.7779 C   0  0  0  0  0  0  0  0  0  0  0  0
   12.4484  -18.7634   23.2837 C   0  0  0  0  0  0  0  0  0  0  0  0
   13.6705  -19.3717   22.8531 N   0  0  0  0  0  0  0  0  0  0  0  0
   10.4110  -16.2751   28.6743 C   0  0  0  0  0  0  0  0  0  0  0  0
   10.7563  -17.4215   29.3596 O   0  0  0  0  0  0  0  0  0  0  0  0
   10.2540  -15.2157   29.2531 O   0  0  0  0  0  0  0  0  0  0  0  0
  2  1  1  0
  3  2  1  0
  4  5  1  0
  4  3  1  0
  5  6  1  6
  5  7  1  0
  7  8  2  0
 10 12  1  0
 10  9  1  1
 11 10  1  0
 12 14  1  0
 13  7  1  0
 12 13  1  6
 14 15  2  0
 16 17  1  0
 16 14  1  0
 17 23  1  0
 17 18  1  6
 19 18  1  0
 20 19  1  0
 21 20  1  0
 22 21  1  0
 23 25  2  0
 23 24  1  0
M  END
$$$$
