MVK.pdb
     RDKit          3D

 25 24  0  0  1  0  0  0  0  0999 V2000
    6.8960  -10.2785   26.2540 C   0  0  0  0  0  0  0  0  0  0  0  0
    6.8100  -11.6655   27.3780 S   0  0  0  0  0  0  0  0  0  0  0  0
    6.1313  -13.1624   26.7350 C   0  0  0  0  0  0  0  0  0  0  0  0
    6.9071  -13.8692   25.6993 C   0  0  0  0  0  0  0  0  0  0  0  0
    6.3101  -15.0497   25.0692 C   0  0  2  0  0  0  0  0  0  0  0  0
    6.0812  -16.1556   25.9482 N   0  0  0  0  0  0  0  0  0  0  0  0
    7.0860  -15.5306   23.8676 C   0  0  0  0  0  0  0  0  0  0  0  0
    7.7322  -16.6062   23.8878 O   0  0  0  0  0  0  0  0  0  0  0  0
    8.3712  -14.5520   19.1158 C   0  0  0  0  0  0  0  0  0  0  0  0
    7.7622  -14.2287   20.4312 C   0  0  2  0  0  0  0  0  0  0  0  0
    8.3260  -12.9608   21.0426 C   0  0  0  0  0  0  0  0  0  0  0  0
    7.8466  -15.3130   21.4780 C   0  0  2  0  0  0  0  0  0  0  0  0
    7.1144  -14.7819   22.6644 N   0  0  0  0  0  0  0  0  0  0  0  0
    9.2579  -15.4456   21.9377 C   0  0  0  0  0  0  0  0  0  0  0  0
    9.8363  -14.5157   22.5520 O   0  0  0  0  0  0  0  0  0  0  0  0
   10.0198  -16.6437   21.7090 N   0  0  0  0  0  0  0  0  0  0  0  0
   11.3402  -16.9138   22.0712 C   0  0  1  0  0  0  0  0  0  0  0  0
   11.7391  -17.9755   22.9992 C   0  0  0  0  0  0  0  0  0  0  0  0
   11.1198  -18.1621   24.3128 C   0  0  0  0  0  0  0  0  0  0  0  0
   11.3064  -19.4699   24.9689 C   0  0  0  0  0  0  0  0  0  0  0  0
   10.5182  -19.5301   26.2968 C   0  0  0  0  0  0  0  0  0  0  0  0
   10.7398  -20.7958   26.9275 N   0  0  0  0  0  0  0  0  0  0  0  0
   12.3687  -16.7912   20.9654 C   0  0  0  0  0  0  0  0  0  0  0  0
   13.6935  -16.7780   21.3498 O   0  0  0  0  0  0  0  0  0  0  0  0
   12.0497  -16.7080   19.7935 O   0  0  0  0  0  0  0  0  0  0  0  0
  2  1  1  0
  3  2  1  0
  4  5  1  0
  4  3  1  0
  5  6  1  1
  5  7  1  0
  7  8  2  0
 10 12  1  0
 10  9  1  6
 11 10  1  0
 12 14  1  0
 13  7  1  0
 12 13  1  1
 14 15  2  0
 16 17  1  0
 16 14  1  0
 17 23  1  0
 17 18  1  6
 19 18  1  0
 20 19  1  0
 21 20  1  0
 22 21  1  0
 23 25  2  0
 23 24  1  0
M  END
$$$$
