MVK.pdb
     RDKit          3D

 25 24  0  0  1  0  0  0  0  0999 V2000
    8.2418  -11.6003   27.3446 C   0  0  0  0  0  0  0  0  0  0  0  0
    6.4869  -11.9396   27.3462 S   0  0  0  0  0  0  0  0  0  0  0  0
    5.9938  -13.5527   26.8273 C   0  0  0  0  0  0  0  0  0  0  0  0
    6.8168  -14.2158   25.7991 C   0  0  0  0  0  0  0  0  0  0  0  0
    6.1722  -15.1924   24.9171 C   0  0  2  0  0  0  0  0  0  0  0  0
    5.5915  -16.3189   25.5819 N   0  0  0  0  0  0  0  0  0  0  0  0
    7.0837  -15.6860   23.8206 C   0  0  0  0  0  0  0  0  0  0  0  0
    7.7096  -16.7691   23.9217 O   0  0  0  0  0  0  0  0  0  0  0  0
    8.7352  -13.0931   20.8483 C   0  0  0  0  0  0  0  0  0  0  0  0
    8.1644  -14.4128   20.4768 C   0  0  2  0  0  0  0  0  0  0  0  0
    6.7447  -14.3114   19.9539 C   0  0  0  0  0  0  0  0  0  0  0  0
    8.1735  -15.4613   21.5628 C   0  0  2  0  0  0  0  0  0  0  0  0
    7.2685  -14.9415   22.6288 N   0  0  0  0  0  0  0  0  0  0  0  0
    9.5199  -15.4988   22.2003 C   0  0  0  0  0  0  0  0  0  0  0  0
    9.9091  -14.5799   22.9625 O   0  0  0  0  0  0  0  0  0  0  0  0
   10.4316  -16.5893   21.9818 N   0  0  0  0  0  0  0  0  0  0  0  0
   11.5788  -16.9184   22.7050 C   0  0  1  0  0  0  0  0  0  0  0  0
   11.7585  -18.1747   23.4379 C   0  0  0  0  0  0  0  0  0  0  0  0
   12.9926  -18.5148   24.1487 C   0  0  0  0  0  0  0  0  0  0  0  0
   13.0111  -19.7820   24.9033 C   0  0  0  0  0  0  0  0  0  0  0  0
   14.3477  -19.9444   25.6619 C   0  0  0  0  0  0  0  0  0  0  0  0
   14.3618  -21.2040   26.3417 N   0  0  0  0  0  0  0  0  0  0  0  0
   12.8960  -16.4977   22.0854 C   0  0  0  0  0  0  0  0  0  0  0  0
   12.8542  -16.0612   20.7774 O   0  0  0  0  0  0  0  0  0  0  0  0
   13.9433  -16.5399   22.7046 O   0  0  0  0  0  0  0  0  0  0  0  0
  2  1  1  0
  3  2  1  0
  4  5  1  0
  4  3  1  0
  5  6  1  1
  5  7  1  0
  7  8  2  0
 10 12  1  0
 10  9  1  1
 11 10  1  0
 12 14  1  0
 13  7  1  0
 12 13  1  1
 14 15  2  0
 16 17  1  0
 16 14  1  0
 17 23  1  0
 17 18  1  6
 19 18  1  0
 20 19  1  0
 21 20  1  0
 22 21  1  0
 23 25  2  0
 23 24  1  0
M  END
$$$$
