MVK.pdb
     RDKit          3D

 25 24  0  0  1  0  0  0  0  0999 V2000
    6.9954  -11.0562   26.8473 C   0  0  0  0  0  0  0  0  0  0  0  0
    6.6844  -12.4257   27.9529 S   0  0  0  0  0  0  0  0  0  0  0  0
    6.1263  -13.9275   27.2127 C   0  0  0  0  0  0  0  0  0  0  0  0
    6.9591  -14.5068   26.1426 C   0  0  0  0  0  0  0  0  0  0  0  0
    6.3761  -15.5531   25.2985 C   0  0  2  0  0  0  0  0  0  0  0  0
    6.0012  -16.7496   25.9884 N   0  0  0  0  0  0  0  0  0  0  0  0
    7.2515  -15.9175   24.1247 C   0  0  0  0  0  0  0  0  0  0  0  0
    7.7962  -17.0444   24.0337 O   0  0  0  0  0  0  0  0  0  0  0  0
    6.8410  -14.0725   20.4218 C   0  0  0  0  0  0  0  0  0  0  0  0
    8.2258  -14.2902   20.9122 C   0  0  2  0  0  0  0  0  0  0  0  0
    9.2068  -14.5749   19.7916 C   0  0  0  0  0  0  0  0  0  0  0  0
    8.3926  -15.3763   21.9473 C   0  0  2  0  0  0  0  0  0  0  0  0
    7.4930  -14.9961   23.0751 N   0  0  0  0  0  0  0  0  0  0  0  0
    9.7654  -15.3026   22.5223 C   0  0  0  0  0  0  0  0  0  0  0  0
   10.0651  -14.4498   23.3939 O   0  0  0  0  0  0  0  0  0  0  0  0
   10.8069  -16.2069   22.1152 N   0  0  0  0  0  0  0  0  0  0  0  0
   11.7289  -16.8836   22.9148 C   0  0  1  0  0  0  0  0  0  0  0  0
   11.3904  -17.5612   24.1694 C   0  0  0  0  0  0  0  0  0  0  0  0
   12.3800  -18.2606   24.9913 C   0  0  0  0  0  0  0  0  0  0  0  0
   11.9161  -18.8293   26.2707 C   0  0  0  0  0  0  0  0  0  0  0  0
   13.0800  -19.5273   27.0100 C   0  0  0  0  0  0  0  0  0  0  0  0
   12.6048  -20.0679   28.2473 N   0  0  0  0  0  0  0  0  0  0  0  0
   12.7886  -17.6770   22.1776 C   0  0  0  0  0  0  0  0  0  0  0  0
   13.9636  -17.0172   21.8828 O   0  0  0  0  0  0  0  0  0  0  0  0
   12.6190  -18.8394   21.8580 O   0  0  0  0  0  0  0  0  0  0  0  0
  2  1  1  0
  3  2  1  0
  4  5  1  0
  4  3  1  0
  5  6  1  1
  5  7  1  0
  7  8  2  0
 10 12  1  0
 10  9  1  6
 11 10  1  0
 12 14  1  0
 13  7  1  0
 12 13  1  1
 14 15  2  0
 16 17  1  0
 16 14  1  0
 17 23  1  0
 17 18  1  1
 19 18  1  0
 20 19  1  0
 21 20  1  0
 22 21  1  0
 23 25  2  0
 23 24  1  0
M  END
$$$$
