MVK.pdb
     RDKit          3D

 25 24  0  0  1  0  0  0  0  0999 V2000
    6.8681  -11.0768   26.2975 C   0  0  0  0  0  0  0  0  0  0  0  0
    5.9868  -12.0692   27.4947 S   0  0  0  0  0  0  0  0  0  0  0  0
    5.9185  -13.8053   27.1845 C   0  0  0  0  0  0  0  0  0  0  0  0
    6.8025  -14.3420   26.1334 C   0  0  0  0  0  0  0  0  0  0  0  0
    6.2661  -15.3630   25.2296 C   0  0  2  0  0  0  0  0  0  0  0  0
    5.9043  -16.5977   25.8563 N   0  0  0  0  0  0  0  0  0  0  0  0
    7.1784  -15.6536   24.0633 C   0  0  0  0  0  0  0  0  0  0  0  0
    8.0184  -16.5853   24.1000 O   0  0  0  0  0  0  0  0  0  0  0  0
    8.3811  -14.4007   19.3553 C   0  0  0  0  0  0  0  0  0  0  0  0
    7.7032  -14.1979   20.6609 C   0  0  2  0  0  0  0  0  0  0  0  0
    7.9836  -12.8342   21.2618 C   0  0  0  0  0  0  0  0  0  0  0  0
    7.9995  -15.2302   21.7219 C   0  0  2  0  0  0  0  0  0  0  0  0
    7.1209  -14.8816   22.8761 N   0  0  0  0  0  0  0  0  0  0  0  0
    9.3851  -15.0288   22.2320 C   0  0  0  0  0  0  0  0  0  0  0  0
    9.6577  -14.1069   23.0399 O   0  0  0  0  0  0  0  0  0  0  0  0
   10.4711  -15.8828   21.8328 N   0  0  0  0  0  0  0  0  0  0  0  0
   11.4710  -16.4433   22.6287 C   0  0  1  0  0  0  0  0  0  0  0  0
   11.2223  -17.1479   23.8893 C   0  0  0  0  0  0  0  0  0  0  0  0
   12.2711  -17.8491   24.6325 C   0  0  0  0  0  0  0  0  0  0  0  0
   11.8682  -18.5665   25.8567 C   0  0  0  0  0  0  0  0  0  0  0  0
   13.1094  -19.0897   26.6144 C   0  0  0  0  0  0  0  0  0  0  0  0
   12.6964  -19.7173   27.8328 N   0  0  0  0  0  0  0  0  0  0  0  0
   12.6102  -17.1130   21.8874 C   0  0  0  0  0  0  0  0  0  0  0  0
   12.4758  -17.2298   20.5195 O   0  0  0  0  0  0  0  0  0  0  0  0
   13.5985  -17.5299   22.4633 O   0  0  0  0  0  0  0  0  0  0  0  0
  2  1  1  0
  3  2  1  0
  4  5  1  0
  4  3  1  0
  5  6  1  1
  5  7  1  0
  7  8  2  0
 10 12  1  0
 10  9  1  6
 11 10  1  0
 12 14  1  0
 13  7  1  0
 12 13  1  1
 14 15  2  0
 16 17  1  0
 16 14  1  0
 17 23  1  0
 17 18  1  1
 19 18  1  0
 20 19  1  0
 21 20  1  0
 22 21  1  0
 23 25  2  0
 23 24  1  0
M  END
$$$$
