MVK.pdb
     RDKit          3D

 25 24  0  0  1  0  0  0  0  0999 V2000
    5.5989  -19.7472   23.1709 C   0  0  0  0  0  0  0  0  0  0  0  0
    5.2315  -19.1208   21.5377 S   0  0  0  0  0  0  0  0  0  0  0  0
    5.6396  -17.4317   21.2292 C   0  0  0  0  0  0  0  0  0  0  0  0
    6.5595  -16.7724   22.1745 C   0  0  0  0  0  0  0  0  0  0  0  0
    6.8770  -15.3578   21.9621 C   0  0  2  0  0  0  0  0  0  0  0  0
    7.4328  -15.0471   20.6804 N   0  0  0  0  0  0  0  0  0  0  0  0
    7.7713  -14.7883   23.0357 C   0  0  0  0  0  0  0  0  0  0  0  0
    9.0220  -14.8257   22.9398 O   0  0  0  0  0  0  0  0  0  0  0  0
    7.9964  -12.3092   27.3790 C   0  0  0  0  0  0  0  0  0  0  0  0
    7.3274  -12.8114   26.1519 C   0  0  2  0  0  0  0  0  0  0  0  0
    5.9962  -13.4777   26.4406 C   0  0  0  0  0  0  0  0  0  0  0  0
    8.1370  -13.7641   25.3058 C   0  0  2  0  0  0  0  0  0  0  0  0
    7.2300  -14.1863   24.1991 N   0  0  0  0  0  0  0  0  0  0  0  0
    8.3925  -15.0131   26.0774 C   0  0  0  0  0  0  0  0  0  0  0  0
    7.4496  -15.7364   26.4832 O   0  0  0  0  0  0  0  0  0  0  0  0
    9.7263  -15.4539   26.3855 N   0  0  0  0  0  0  0  0  0  0  0  0
   10.1266  -16.6394   27.0034 C   0  0  1  0  0  0  0  0  0  0  0  0
   11.0091  -17.6330   26.3859 C   0  0  0  0  0  0  0  0  0  0  0  0
   11.1165  -17.8146   24.9370 C   0  0  0  0  0  0  0  0  0  0  0  0
   12.1905  -18.6972   24.4437 C   0  0  0  0  0  0  0  0  0  0  0  0
   12.1293  -18.8212   22.9045 C   0  0  0  0  0  0  0  0  0  0  0  0
   13.1900  -19.6684   22.4505 N   0  0  0  0  0  0  0  0  0  0  0  0
   10.4241  -16.5458   28.4861 C   0  0  0  0  0  0  0  0  0  0  0  0
   10.3938  -15.2855   29.0461 O   0  0  0  0  0  0  0  0  0  0  0  0
   10.6781  -17.5295   29.1569 O   0  0  0  0  0  0  0  0  0  0  0  0
  2  1  1  0
  3  2  1  0
  4  5  1  0
  4  3  1  0
  5  6  1  6
  5  7  1  0
  7  8  2  0
 10 12  1  0
 10  9  1  1
 11 10  1  0
 12 14  1  0
 13  7  1  0
 12 13  1  6
 14 15  2  0
 16 17  1  0
 16 14  1  0
 17 23  1  0
 17 18  1  6
 19 18  1  0
 20 19  1  0
 21 20  1  0
 22 21  1  0
 23 25  2  0
 23 24  1  0
M  END
$$$$
