MVK.pdb
     RDKit          3D

 25 24  0  0  1  0  0  0  0  0999 V2000
    7.3618  -10.7849   26.5930 C   0  0  0  0  0  0  0  0  0  0  0  0
    6.8636  -12.1330   27.6555 S   0  0  0  0  0  0  0  0  0  0  0  0
    6.1611  -13.5450   26.8633 C   0  0  0  0  0  0  0  0  0  0  0  0
    6.9065  -14.1299   25.7335 C   0  0  0  0  0  0  0  0  0  0  0  0
    6.3177  -15.2729   25.0305 C   0  0  2  0  0  0  0  0  0  0  0  0
    6.1284  -16.4444   25.8304 N   0  0  0  0  0  0  0  0  0  0  0  0
    7.0760  -15.6490   23.7814 C   0  0  0  0  0  0  0  0  0  0  0  0
    7.6525  -16.7581   23.6693 O   0  0  0  0  0  0  0  0  0  0  0  0
    8.1912  -14.2993   19.0831 C   0  0  0  0  0  0  0  0  0  0  0  0
    7.6869  -14.0534   20.4581 C   0  0  2  0  0  0  0  0  0  0  0  0
    8.2851  -12.8109   21.0886 C   0  0  0  0  0  0  0  0  0  0  0  0
    7.8665  -15.1892   21.4362 C   0  0  2  0  0  0  0  0  0  0  0  0
    7.1663  -14.7595   22.6816 N   0  0  0  0  0  0  0  0  0  0  0  0
    9.3017  -15.2812   21.8266 C   0  0  0  0  0  0  0  0  0  0  0  0
    9.8212  -14.4501   22.6114 O   0  0  0  0  0  0  0  0  0  0  0  0
   10.1557  -16.3276   21.3326 N   0  0  0  0  0  0  0  0  0  0  0  0
   11.2201  -16.9562   21.9801 C   0  0  1  0  0  0  0  0  0  0  0  0
   11.0648  -17.9532   23.0429 C   0  0  0  0  0  0  0  0  0  0  0  0
   12.2007  -18.5817   23.7201 C   0  0  0  0  0  0  0  0  0  0  0  0
   11.8987  -19.5288   24.8098 C   0  0  0  0  0  0  0  0  0  0  0  0
   13.2029  -20.0878   25.4222 C   0  0  0  0  0  0  0  0  0  0  0  0
   12.8841  -20.9605   26.5111 N   0  0  0  0  0  0  0  0  0  0  0  0
   12.4032  -17.3225   21.1074 C   0  0  0  0  0  0  0  0  0  0  0  0
   13.6504  -16.9534   21.5671 O   0  0  0  0  0  0  0  0  0  0  0  0
   12.2681  -17.9132   20.0515 O   0  0  0  0  0  0  0  0  0  0  0  0
  2  1  1  0
  3  2  1  0
  4  5  1  0
  4  3  1  0
  5  6  1  1
  5  7  1  0
  7  8  2  0
 10 12  1  0
 10  9  1  6
 11 10  1  0
 12 14  1  0
 13  7  1  0
 12 13  1  1
 14 15  2  0
 16 17  1  0
 16 14  1  0
 17 23  1  0
 17 18  1  6
 19 18  1  0
 20 19  1  0
 21 20  1  0
 22 21  1  0
 23 25  2  0
 23 24  1  0
M  END
$$$$
