FQR.pdb
     RDKit          3D

 32 32  0  0  1  0  0  0  0  0999 V2000
    4.6931  -16.8664   23.8804 N   0  0  0  0  0  0  0  0  0  0  0  0
    5.7916  -15.9071   23.8626 C   0  0  1  0  0  0  0  0  0  0  0  0
    6.3089  -15.8877   25.2965 C   0  0  0  0  0  0  0  0  0  0  0  0
    6.5933  -14.5033   25.6935 C   0  0  0  0  0  0  0  0  0  0  0  0
    7.9300  -14.1052   25.7769 C   0  0  0  0  0  0  0  0  0  0  0  0
    8.2888  -12.8323   26.1518 C   0  0  0  0  0  0  0  0  0  0  0  0
    7.2870  -11.9370   26.4513 C   0  0  0  0  0  0  0  0  0  0  0  0
    5.9340  -12.2780   26.3846 C   0  0  0  0  0  0  0  0  0  0  0  0
    5.6503  -13.5537   26.0060 C   0  0  0  0  0  0  0  0  0  0  0  0
    6.8523  -16.4844   22.9720 C   0  0  0  0  0  0  0  0  0  0  0  0
    6.5608  -17.4160   22.2174 O   0  0  0  0  0  0  0  0  0  0  0  0
    8.9288  -12.9955   18.9512 N   0  0  0  0  0  0  0  0  0  0  0  0
    7.7910  -13.8729   18.8367 C   0  0  0  0  0  0  0  0  0  0  0  0
    7.2602  -13.9900   17.7111 O   0  0  0  0  0  0  0  0  0  0  0  0
    7.3488  -14.5619   20.0721 C   0  0  0  0  0  0  0  0  0  0  0  0
    8.0977  -14.1854   21.3055 C   0  0  0  0  0  0  0  0  0  0  0  0
    8.8504  -15.3327   21.9431 C   0  0  2  0  0  0  0  0  0  0  0  0
    8.1321  -15.9360   23.0322 N   0  0  0  0  0  0  0  0  0  0  0  0
   10.2047  -14.8560   22.2923 C   0  0  0  0  0  0  0  0  0  0  0  0
   10.3867  -13.5991   22.4736 O   0  0  0  0  0  0  0  0  0  0  0  0
    8.4503  -19.4748   24.8992 N   0  0  0  0  0  0  0  0  0  0  0  0
    9.5951  -20.0609   25.5320 C   0  0  0  0  0  0  0  0  0  0  0  0
    9.9718  -21.2391   25.2453 N   0  0  0  0  0  0  0  0  0  0  0  0
   10.3324  -19.3270   26.4895 N   0  0  0  0  0  0  0  0  0  0  0  0
   10.2653  -17.9180   26.5968 C   0  0  0  0  0  0  0  0  0  0  0  0
   11.3602  -17.1459   25.9287 C   0  0  0  0  0  0  0  0  0  0  0  0
   10.8877  -16.6825   24.5842 C   0  0  0  0  0  0  0  0  0  0  0  0
   11.9396  -15.9461   23.7694 C   0  0  2  0  0  0  0  0  0  0  0  0
   11.3495  -15.6590   22.4550 N   0  0  0  0  0  0  0  0  0  0  0  0
   13.0763  -16.8432   23.5484 C   0  0  0  0  0  0  0  0  0  0  0  0
   13.1106  -17.6939   22.4698 O   0  0  0  0  0  0  0  0  0  0  0  0
   14.0419  -16.8488   24.3444 O   0  0  0  0  0  0  0  0  0  0  0  0
  2  1  1  1
  3  2  1  0
  3  4  1  0
  4  5  2  0
  5  6  1  0
  7  6  2  0
  8  7  1  0
  9  4  1  0
  9  8  2  0
 10 11  2  0
 10  2  1  0
 12 13  1  0
 13 14  2  0
 15 13  1  0
 15 16  1  0
 17 16  1  1
 17 18  1  0
 18 10  1  0
 19 29  1  0
 19 17  1  0
 20 19  2  0
 22 21  1  0
 22 23  2  0
 24 22  1  0
 25 24  1  0
 26 27  1  0
 26 25  1  0
 28 27  1  1
 28 29  1  0
 28 30  1  0
 30 31  1  0
 32 30  2  0
M  END
$$$$
