FQR.pdb
     RDKit          3D

 32 32  0  0  1  0  0  0  0  0999 V2000
    6.0441  -16.6319   24.9490 N   0  0  0  0  0  0  0  0  0  0  0  0
    7.3851  -16.0585   24.9416 C   0  0  1  0  0  0  0  0  0  0  0  0
    7.4463  -15.2065   26.2043 C   0  0  0  0  0  0  0  0  0  0  0  0
    7.1063  -13.8175   25.8722 C   0  0  0  0  0  0  0  0  0  0  0  0
    6.0488  -13.2175   26.5608 C   0  0  0  0  0  0  0  0  0  0  0  0
    5.6541  -11.9256   26.3067 C   0  0  0  0  0  0  0  0  0  0  0  0
    6.3325  -11.2175   25.3404 C   0  0  0  0  0  0  0  0  0  0  0  0
    7.3975  -11.7648   24.6210 C   0  0  0  0  0  0  0  0  0  0  0  0
    7.7357  -13.0474   24.9239 C   0  0  0  0  0  0  0  0  0  0  0  0
    8.3437  -17.2042   25.0826 C   0  0  0  0  0  0  0  0  0  0  0  0
    8.0566  -18.1376   25.8368 O   0  0  0  0  0  0  0  0  0  0  0  0
   12.9426  -18.6506   20.7135 N   0  0  0  0  0  0  0  0  0  0  0  0
   11.7821  -17.7987   20.7864 C   0  0  0  0  0  0  0  0  0  0  0  0
   11.6155  -16.9661   19.8691 O   0  0  0  0  0  0  0  0  0  0  0  0
   10.8843  -17.9871   21.9504 C   0  0  0  0  0  0  0  0  0  0  0  0
   11.5690  -18.0198   23.2749 C   0  0  0  0  0  0  0  0  0  0  0  0
   10.6244  -18.0884   24.4548 C   0  0  2  0  0  0  0  0  0  0  0  0
    9.5261  -17.1674   24.3459 N   0  0  0  0  0  0  0  0  0  0  0  0
   11.4218  -17.9467   25.6906 C   0  0  0  0  0  0  0  0  0  0  0  0
   11.7514  -16.7691   26.0785 O   0  0  0  0  0  0  0  0  0  0  0  0
   15.1874  -21.1727   32.0926 N   0  0  0  0  0  0  0  0  0  0  0  0
   13.8938  -21.6603   31.7138 C   0  0  0  0  0  0  0  0  0  0  0  0
   12.9861  -21.8537   32.5804 N   0  0  0  0  0  0  0  0  0  0  0  0
   13.6046  -21.9301   30.3564 N   0  0  0  0  0  0  0  0  0  0  0  0
   13.1811  -20.9324   29.4473 C   0  0  0  0  0  0  0  0  0  0  0  0
   12.4227  -19.7798   30.0285 C   0  0  0  0  0  0  0  0  0  0  0  0
   11.7877  -18.9974   28.9193 C   0  0  0  0  0  0  0  0  0  0  0  0
   12.6872  -18.7761   27.7132 C   0  0  2  0  0  0  0  0  0  0  0  0
   11.8689  -18.9980   26.5135 N   0  0  0  0  0  0  0  0  0  0  0  0
   13.7381  -19.7967   27.7167 C   0  0  0  0  0  0  0  0  0  0  0  0
   14.5202  -20.0072   28.8268 O   0  0  0  0  0  0  0  0  0  0  0  0
   13.9414  -20.4987   26.7009 O   0  0  0  0  0  0  0  0  0  0  0  0
  2  1  1  1
  3  2  1  0
  3  4  1  0
  4  5  2  0
  5  6  1  0
  7  6  2  0
  8  7  1  0
  9  4  1  0
  9  8  2  0
 10 11  2  0
 10  2  1  0
 12 13  1  0
 13 14  2  0
 15 13  1  0
 15 16  1  0
 17 16  1  6
 17 18  1  0
 18 10  1  0
 19 29  1  0
 19 17  1  0
 20 19  2  0
 22 21  1  0
 22 23  2  0
 24 22  1  0
 25 24  1  0
 26 27  1  0
 26 25  1  0
 28 27  1  1
 28 29  1  0
 28 30  1  0
 30 31  1  0
 32 30  2  0
M  END
$$$$
