FQR.pdb
     RDKit          3D

 32 32  0  0  1  0  0  0  0  0999 V2000
    6.8351  -15.8426   25.9473 N   0  0  0  0  0  0  0  0  0  0  0  0
    6.8210  -14.9081   24.8277 C   0  0  1  0  0  0  0  0  0  0  0  0
    7.8351  -13.8355   25.2089 C   0  0  0  0  0  0  0  0  0  0  0  0
    7.1585  -12.7688   25.9570 C   0  0  0  0  0  0  0  0  0  0  0  0
    7.5340  -12.5591   27.2864 C   0  0  0  0  0  0  0  0  0  0  0  0
    6.9459  -11.5909   28.0652 C   0  0  0  0  0  0  0  0  0  0  0  0
    5.9584  -10.8152   27.5012 C   0  0  0  0  0  0  0  0  0  0  0  0
    5.5427  -10.9787   26.1777 C   0  0  0  0  0  0  0  0  0  0  0  0
    6.1673  -11.9544   25.4641 C   0  0  0  0  0  0  0  0  0  0  0  0
    7.3346  -15.6588   23.6343 C   0  0  0  0  0  0  0  0  0  0  0  0
    7.4410  -16.8864   23.6977 O   0  0  0  0  0  0  0  0  0  0  0  0
    8.4605  -12.7532   17.8768 N   0  0  0  0  0  0  0  0  0  0  0  0
    8.4538  -14.1769   17.6511 C   0  0  0  0  0  0  0  0  0  0  0  0
    8.2712  -14.5776   16.4814 O   0  0  0  0  0  0  0  0  0  0  0  0
    8.6648  -15.0440   18.8343 C   0  0  0  0  0  0  0  0  0  0  0  0
    8.1282  -14.5023   20.1159 C   0  0  0  0  0  0  0  0  0  0  0  0
    8.2283  -15.4630   21.2805 C   0  0  2  0  0  0  0  0  0  0  0  0
    7.6684  -14.9318   22.4932 N   0  0  0  0  0  0  0  0  0  0  0  0
    9.6350  -15.9002   21.3958 C   0  0  0  0  0  0  0  0  0  0  0  0
   10.2020  -16.4248   20.3716 O   0  0  0  0  0  0  0  0  0  0  0  0
    8.5775  -20.7127   24.6184 N   0  0  0  0  0  0  0  0  0  0  0  0
    9.4184  -20.3252   25.7126 C   0  0  0  0  0  0  0  0  0  0  0  0
    8.9454  -20.1711   26.8809 N   0  0  0  0  0  0  0  0  0  0  0  0
   10.8010  -20.1126   25.5068 N   0  0  0  0  0  0  0  0  0  0  0  0
   11.3269  -19.5798   24.3065 C   0  0  0  0  0  0  0  0  0  0  0  0
   11.2110  -18.0978   24.1283 C   0  0  0  0  0  0  0  0  0  0  0  0
   11.8838  -17.7006   22.8495 C   0  0  0  0  0  0  0  0  0  0  0  0
   11.8540  -16.2074   22.5627 C   0  0  2  0  0  0  0  0  0  0  0  0
   10.4437  -15.7961   22.5435 N   0  0  0  0  0  0  0  0  0  0  0  0
   12.3921  -15.9755   21.2202 C   0  0  0  0  0  0  0  0  0  0  0  0
   12.1720  -16.8717   20.2020 O   0  0  0  0  0  0  0  0  0  0  0  0
   13.0659  -14.9493   20.9774 O   0  0  0  0  0  0  0  0  0  0  0  0
  2  1  1  1
  3  2  1  0
  3  4  1  0
  4  5  2  0
  5  6  1  0
  7  6  2  0
  8  7  1  0
  9  4  1  0
  9  8  2  0
 10 11  2  0
 10  2  1  0
 12 13  1  0
 13 14  2  0
 15 13  1  0
 15 16  1  0
 17 16  1  6
 17 18  1  0
 18 10  1  0
 19 29  1  0
 19 17  1  0
 20 19  2  0
 22 21  1  0
 22 23  2  0
 24 22  1  0
 25 24  1  0
 26 27  1  0
 26 25  1  0
 28 27  1  6
 28 29  1  0
 28 30  1  0
 30 31  1  0
 32 30  2  0
M  END
$$$$
