FQR.pdb
     RDKit          3D

 32 32  0  0  1  0  0  0  0  0999 V2000
    8.1288  -17.0307   18.8292 N   0  0  0  0  0  0  0  0  0  0  0  0
    9.0555  -16.0414   19.3673 C   0  0  1  0  0  0  0  0  0  0  0  0
    8.3848  -15.5385   20.6406 C   0  0  0  0  0  0  0  0  0  0  0  0
    8.1492  -14.0937   20.5296 C   0  0  0  0  0  0  0  0  0  0  0  0
    8.3994  -13.4801   19.2994 C   0  0  0  0  0  0  0  0  0  0  0  0
    8.2177  -12.1310   19.1083 C   0  0  0  0  0  0  0  0  0  0  0  0
    7.7765  -11.3779   20.1729 C   0  0  0  0  0  0  0  0  0  0  0  0
    7.5093  -11.9367   21.4249 C   0  0  0  0  0  0  0  0  0  0  0  0
    7.7097  -13.2771   21.5438 C   0  0  0  0  0  0  0  0  0  0  0  0
   10.3071  -16.7814   19.7381 C   0  0  0  0  0  0  0  0  0  0  0  0
   10.2181  -17.9376   20.1594 O   0  0  0  0  0  0  0  0  0  0  0  0
   15.1972  -14.9755   16.8704 N   0  0  0  0  0  0  0  0  0  0  0  0
   14.7920  -14.0629   17.9099 C   0  0  0  0  0  0  0  0  0  0  0  0
   15.0622  -12.8522   17.7564 O   0  0  0  0  0  0  0  0  0  0  0  0
   14.0869  -14.6456   19.0760 C   0  0  0  0  0  0  0  0  0  0  0  0
   13.9254  -16.1276   19.0382 C   0  0  0  0  0  0  0  0  0  0  0  0
   12.8216  -16.6498   19.9314 C   0  0  2  0  0  0  0  0  0  0  0  0
   11.5280  -16.1271   19.5854 N   0  0  0  0  0  0  0  0  0  0  0  0
   13.2192  -16.4194   21.3357 C   0  0  0  0  0  0  0  0  0  0  0  0
   13.1249  -15.2332   21.8151 O   0  0  0  0  0  0  0  0  0  0  0  0
   12.4790  -23.6091   23.0740 N   0  0  0  0  0  0  0  0  0  0  0  0
   12.2584  -22.2032   22.9030 C   0  0  0  0  0  0  0  0  0  0  0  0
   11.5861  -21.7592   21.9217 N   0  0  0  0  0  0  0  0  0  0  0  0
   12.7861  -21.2816   23.8365 N   0  0  0  0  0  0  0  0  0  0  0  0
   12.6000  -19.8836   23.7264 C   0  0  0  0  0  0  0  0  0  0  0  0
   13.1951  -19.0444   24.8139 C   0  0  0  0  0  0  0  0  0  0  0  0
   14.4358  -18.3788   24.3006 C   0  0  0  0  0  0  0  0  0  0  0  0
   14.1888  -17.0641   23.5773 C   0  0  2  0  0  0  0  0  0  0  0  0
   13.7018  -17.3931   22.2308 N   0  0  0  0  0  0  0  0  0  0  0  0
   15.4674  -16.3673   23.4182 C   0  0  0  0  0  0  0  0  0  0  0  0
   16.0823  -15.7586   24.4857 O   0  0  0  0  0  0  0  0  0  0  0  0
   16.0245  -16.3153   22.2988 O   0  0  0  0  0  0  0  0  0  0  0  0
  2  1  1  1
  3  2  1  0
  3  4  1  0
  4  5  2  0
  5  6  1  0
  7  6  2  0
  8  7  1  0
  9  4  1  0
  9  8  2  0
 10 11  2  0
 10  2  1  0
 12 13  1  0
 13 14  2  0
 15 13  1  0
 15 16  1  0
 17 16  1  6
 17 18  1  0
 18 10  1  0
 19 29  1  0
 19 17  1  0
 20 19  2  0
 22 21  1  0
 22 23  2  0
 24 22  1  0
 25 24  1  0
 26 27  1  0
 26 25  1  0
 28 27  1  1
 28 29  1  0
 28 30  1  0
 30 31  1  0
 32 30  2  0
M  END
$$$$
