FQR.pdb
     RDKit          3D

 32 32  0  0  1  0  0  0  0  0999 V2000
    8.0061  -16.0528   15.9808 N   0  0  0  0  0  0  0  0  0  0  0  0
    8.5709  -15.3269   17.1127 C   0  0  1  0  0  0  0  0  0  0  0  0
    7.4302  -14.4491   17.6150 C   0  0  0  0  0  0  0  0  0  0  0  0
    7.7737  -13.9130   18.9378 C   0  0  0  0  0  0  0  0  0  0  0  0
    7.2676  -14.5678   20.0635 C   0  0  0  0  0  0  0  0  0  0  0  0
    7.5282  -14.1288   21.3399 C   0  0  0  0  0  0  0  0  0  0  0  0
    8.3125  -13.0080   21.4936 C   0  0  0  0  0  0  0  0  0  0  0  0
    8.8464  -12.3134   20.4056 C   0  0  0  0  0  0  0  0  0  0  0  0
    8.5494  -12.8029   19.1714 C   0  0  0  0  0  0  0  0  0  0  0  0
    8.8939  -16.3499   18.1618 C   0  0  0  0  0  0  0  0  0  0  0  0
    8.1116  -17.2857   18.3485 O   0  0  0  0  0  0  0  0  0  0  0  0
   14.1078  -19.2177   18.6768 N   0  0  0  0  0  0  0  0  0  0  0  0
   13.4872  -19.6540   19.9024 C   0  0  0  0  0  0  0  0  0  0  0  0
   14.0169  -20.6072   20.5132 O   0  0  0  0  0  0  0  0  0  0  0  0
   12.2680  -18.9287   20.3314 C   0  0  0  0  0  0  0  0  0  0  0  0
   11.8484  -17.8154   19.4323 C   0  0  0  0  0  0  0  0  0  0  0  0
   10.5865  -17.1081   19.8757 C   0  0  2  0  0  0  0  0  0  0  0  0
   10.0762  -16.2010   18.8842 N   0  0  0  0  0  0  0  0  0  0  0  0
   10.8440  -16.4925   21.1940 C   0  0  0  0  0  0  0  0  0  0  0  0
   11.6838  -15.5255   21.2679 O   0  0  0  0  0  0  0  0  0  0  0  0
    5.2624  -13.8931   26.7716 N   0  0  0  0  0  0  0  0  0  0  0  0
    6.2648  -13.0007   26.2681 C   0  0  0  0  0  0  0  0  0  0  0  0
    6.0653  -11.7475   26.2246 N   0  0  0  0  0  0  0  0  0  0  0  0
    7.5044  -13.5067   25.8136 N   0  0  0  0  0  0  0  0  0  0  0  0
    7.9779  -14.7968   26.1489 C   0  0  0  0  0  0  0  0  0  0  0  0
    9.3474  -15.1521   25.6594 C   0  0  0  0  0  0  0  0  0  0  0  0
    9.2288  -15.9384   24.3892 C   0  0  0  0  0  0  0  0  0  0  0  0
   10.5520  -16.1962   23.6854 C   0  0  2  0  0  0  0  0  0  0  0  0
   10.2453  -16.8635   22.4130 N   0  0  0  0  0  0  0  0  0  0  0  0
   11.3374  -17.1353   24.4898 C   0  0  0  0  0  0  0  0  0  0  0  0
   12.1614  -16.6921   25.4962 O   0  0  0  0  0  0  0  0  0  0  0  0
   11.2696  -18.3656   24.2716 O   0  0  0  0  0  0  0  0  0  0  0  0
  2  1  1  6
  3  2  1  0
  3  4  1  0
  4  5  2  0
  5  6  1  0
  7  6  2  0
  8  7  1  0
  9  4  1  0
  9  8  2  0
 10 11  2  0
 10  2  1  0
 12 13  1  0
 13 14  2  0
 15 13  1  0
 15 16  1  0
 17 16  1  6
 17 18  1  0
 18 10  1  0
 19 29  1  0
 19 17  1  0
 20 19  2  0
 22 21  1  0
 22 23  2  0
 24 22  1  0
 25 24  1  0
 26 27  1  0
 26 25  1  0
 28 27  1  1
 28 29  1  0
 28 30  1  0
 30 31  1  0
 32 30  2  0
M  END
$$$$
