FQR.pdb
     RDKit          3D

 32 32  0  0  1  0  0  0  0  0999 V2000
    7.5968  -18.4953   28.2533 N   0  0  0  0  0  0  0  0  0  0  0  0
    7.3891  -17.5601   27.1537 C   0  0  1  0  0  0  0  0  0  0  0  0
    8.4123  -16.4549   27.3899 C   0  0  0  0  0  0  0  0  0  0  0  0
    7.7742  -15.1484   27.1877 C   0  0  0  0  0  0  0  0  0  0  0  0
    8.5993  -14.0361   27.0022 C   0  0  0  0  0  0  0  0  0  0  0  0
    8.0887  -12.7732   26.8177 C   0  0  0  0  0  0  0  0  0  0  0  0
    6.7207  -12.6193   26.8198 C   0  0  0  0  0  0  0  0  0  0  0  0
    5.8470  -13.6943   26.9995 C   0  0  0  0  0  0  0  0  0  0  0  0
    6.4198  -14.9157   27.1758 C   0  0  0  0  0  0  0  0  0  0  0  0
    7.7473  -18.2916   25.8935 C   0  0  0  0  0  0  0  0  0  0  0  0
    8.7702  -18.9811   25.8699 O   0  0  0  0  0  0  0  0  0  0  0  0
    4.1210  -18.2557   20.1275 N   0  0  0  0  0  0  0  0  0  0  0  0
    4.0449  -17.6218   21.4199 C   0  0  0  0  0  0  0  0  0  0  0  0
    2.9241  -17.2257   21.8063 O   0  0  0  0  0  0  0  0  0  0  0  0
    5.3110  -17.4950   22.1798 C   0  0  0  0  0  0  0  0  0  0  0  0
    5.9051  -18.7854   22.6334 C   0  0  0  0  0  0  0  0  0  0  0  0
    7.1626  -18.6275   23.4598 C   0  0  2  0  0  0  0  0  0  0  0  0
    6.8997  -18.1635   24.7947 N   0  0  0  0  0  0  0  0  0  0  0  0
    8.1119  -17.7910   22.6967 C   0  0  0  0  0  0  0  0  0  0  0  0
    8.5236  -18.2115   21.5568 O   0  0  0  0  0  0  0  0  0  0  0  0
    7.9543  -15.4868   17.7894 N   0  0  0  0  0  0  0  0  0  0  0  0
    7.7474  -14.0819   17.9843 C   0  0  0  0  0  0  0  0  0  0  0  0
    8.2002  -13.2313   17.1575 N   0  0  0  0  0  0  0  0  0  0  0  0
    7.0243  -13.6183   19.1074 N   0  0  0  0  0  0  0  0  0  0  0  0
    7.4294  -13.8680   20.4395 C   0  0  0  0  0  0  0  0  0  0  0  0
    8.8961  -14.0677   20.6637 C   0  0  0  0  0  0  0  0  0  0  0  0
    9.1330  -14.4110   22.1031 C   0  0  0  0  0  0  0  0  0  0  0  0
    9.6517  -15.8218   22.3340 C   0  0  2  0  0  0  0  0  0  0  0  0
    8.6251  -16.5431   23.0985 N   0  0  0  0  0  0  0  0  0  0  0  0
   10.8491  -15.7509   23.1748 C   0  0  0  0  0  0  0  0  0  0  0  0
   12.0396  -15.2785   22.6771 O   0  0  0  0  0  0  0  0  0  0  0  0
   10.8063  -16.1220   24.3692 O   0  0  0  0  0  0  0  0  0  0  0  0
  2  1  1  1
  3  2  1  0
  3  4  1  0
  4  5  2  0
  5  6  1  0
  7  6  2  0
  8  7  1  0
  9  4  1  0
  9  8  2  0
 10 11  2  0
 10  2  1  0
 12 13  1  0
 13 14  2  0
 15 13  1  0
 15 16  1  0
 17 16  1  6
 17 18  1  0
 18 10  1  0
 19 29  1  0
 19 17  1  0
 20 19  2  0
 22 21  1  0
 22 23  2  0
 24 22  1  0
 25 24  1  0
 26 27  1  0
 26 25  1  0
 28 27  1  1
 28 29  1  0
 28 30  1  0
 30 31  1  0
 32 30  2  0
M  END
$$$$
