FQR.pdb
     RDKit          3D

 32 32  0  0  1  0  0  0  0  0999 V2000
    6.5807  -17.9397   20.0399 N   0  0  0  0  0  0  0  0  0  0  0  0
    7.2392  -16.6411   20.1230 C   0  0  1  0  0  0  0  0  0  0  0  0
    6.4742  -15.8903   21.2070 C   0  0  0  0  0  0  0  0  0  0  0  0
    7.1319  -14.6036   21.4657 C   0  0  0  0  0  0  0  0  0  0  0  0
    7.4826  -13.8129   20.3683 C   0  0  0  0  0  0  0  0  0  0  0  0
    8.1119  -12.5998   20.5163 C   0  0  0  0  0  0  0  0  0  0  0  0
    8.3980  -12.1679   21.7917 C   0  0  0  0  0  0  0  0  0  0  0  0
    8.0704  -12.9149   22.9257 C   0  0  0  0  0  0  0  0  0  0  0  0
    7.4485  -14.1051   22.7066 C   0  0  0  0  0  0  0  0  0  0  0  0
    8.6369  -16.8977   20.6051 C   0  0  0  0  0  0  0  0  0  0  0  0
    8.8108  -17.6451   21.5712 O   0  0  0  0  0  0  0  0  0  0  0  0
   13.6643  -14.0584   17.7611 N   0  0  0  0  0  0  0  0  0  0  0  0
   14.2837  -14.7103   18.8877 C   0  0  0  0  0  0  0  0  0  0  0  0
   15.5125  -14.5473   19.0482 O   0  0  0  0  0  0  0  0  0  0  0  0
   13.4023  -15.5214   19.7605 C   0  0  0  0  0  0  0  0  0  0  0  0
   11.9557  -15.4884   19.3997 C   0  0  0  0  0  0  0  0  0  0  0  0
   11.0815  -16.3538   20.2806 C   0  0  2  0  0  0  0  0  0  0  0  0
    9.6889  -16.2789   19.9324 N   0  0  0  0  0  0  0  0  0  0  0  0
   11.3788  -16.0230   21.6897 C   0  0  0  0  0  0  0  0  0  0  0  0
   11.2351  -14.8095   22.0803 O   0  0  0  0  0  0  0  0  0  0  0  0
    8.4367  -19.8325   28.1395 N   0  0  0  0  0  0  0  0  0  0  0  0
    7.7255  -19.5769   26.9215 C   0  0  0  0  0  0  0  0  0  0  0  0
    6.4666  -19.4114   26.9193 N   0  0  0  0  0  0  0  0  0  0  0  0
    8.4223  -19.4987   25.6938 N   0  0  0  0  0  0  0  0  0  0  0  0
    9.7920  -19.1555   25.6073 C   0  0  0  0  0  0  0  0  0  0  0  0
   10.1184  -17.8988   24.8621 C   0  0  0  0  0  0  0  0  0  0  0  0
   11.5885  -17.6288   24.9702 C   0  0  0  0  0  0  0  0  0  0  0  0
   12.0902  -16.5166   24.0625 C   0  0  2  0  0  0  0  0  0  0  0  0
   11.8129  -16.9257   22.6790 N   0  0  0  0  0  0  0  0  0  0  0  0
   13.5450  -16.4159   24.2020 C   0  0  0  0  0  0  0  0  0  0  0  0
   14.3873  -17.1757   23.4265 O   0  0  0  0  0  0  0  0  0  0  0  0
   14.0476  -15.6299   25.0361 O   0  0  0  0  0  0  0  0  0  0  0  0
  2  1  1  1
  3  2  1  0
  3  4  1  0
  4  5  2  0
  5  6  1  0
  7  6  2  0
  8  7  1  0
  9  4  1  0
  9  8  2  0
 10 11  2  0
 10  2  1  0
 12 13  1  0
 13 14  2  0
 15 13  1  0
 15 16  1  0
 17 16  1  6
 17 18  1  0
 18 10  1  0
 19 29  1  0
 19 17  1  0
 20 19  2  0
 22 21  1  0
 22 23  2  0
 24 22  1  0
 25 24  1  0
 26 27  1  0
 26 25  1  0
 28 27  1  1
 28 29  1  0
 28 30  1  0
 30 31  1  0
 32 30  2  0
M  END
$$$$
