FQR.pdb
     RDKit          3D

 32 32  0  0  1  0  0  0  0  0999 V2000
    7.7717  -18.0590   18.0750 N   0  0  0  0  0  0  0  0  0  0  0  0
    8.1604  -16.7997   18.6995 C   0  0  1  0  0  0  0  0  0  0  0  0
    6.8887  -16.2946   19.3715 C   0  0  0  0  0  0  0  0  0  0  0  0
    7.2070  -15.1268   20.2022 C   0  0  0  0  0  0  0  0  0  0  0  0
    7.5402  -13.9330   19.5570 C   0  0  0  0  0  0  0  0  0  0  0  0
    7.8635  -12.7937   20.2549 C   0  0  0  0  0  0  0  0  0  0  0  0
    7.8545  -12.8502   21.6303 C   0  0  0  0  0  0  0  0  0  0  0  0
    7.5287  -14.0149   22.3292 C   0  0  0  0  0  0  0  0  0  0  0  0
    7.2182  -15.1048   21.5763 C   0  0  0  0  0  0  0  0  0  0  0  0
    9.1675  -17.1380   19.7593 C   0  0  0  0  0  0  0  0  0  0  0  0
    8.9215  -18.0517   20.5511 O   0  0  0  0  0  0  0  0  0  0  0  0
   15.1964  -14.2470   20.0529 N   0  0  0  0  0  0  0  0  0  0  0  0
   13.9737  -14.0560   19.3139 C   0  0  0  0  0  0  0  0  0  0  0  0
   14.0472  -13.4688   18.2130 O   0  0  0  0  0  0  0  0  0  0  0  0
   12.7300  -14.5760   19.9299 C   0  0  0  0  0  0  0  0  0  0  0  0
   12.7423  -16.0350   20.2382 C   0  0  0  0  0  0  0  0  0  0  0  0
   11.4208  -16.5681   20.7467 C   0  0  2  0  0  0  0  0  0  0  0  0
   10.3503  -16.4023   19.8018 N   0  0  0  0  0  0  0  0  0  0  0  0
   11.1643  -15.9705   22.0735 C   0  0  0  0  0  0  0  0  0  0  0  0
   11.0366  -14.6969   22.1603 O   0  0  0  0  0  0  0  0  0  0  0  0
    6.4902  -18.2838   22.0721 N   0  0  0  0  0  0  0  0  0  0  0  0
    5.7604  -18.5568   23.2752 C   0  0  0  0  0  0  0  0  0  0  0  0
    4.8925  -19.4825   23.3202 N   0  0  0  0  0  0  0  0  0  0  0  0
    6.0025  -17.7962   24.4423 N   0  0  0  0  0  0  0  0  0  0  0  0
    6.9083  -16.7102   24.4784 C   0  0  0  0  0  0  0  0  0  0  0  0
    8.3637  -17.0576   24.5251 C   0  0  0  0  0  0  0  0  0  0  0  0
    9.1722  -15.7958   24.5309 C   0  0  0  0  0  0  0  0  0  0  0  0
   10.6769  -16.0152   24.5515 C   0  0  2  0  0  0  0  0  0  0  0  0
   11.0382  -16.6716   23.2878 N   0  0  0  0  0  0  0  0  0  0  0  0
   11.0014  -16.9480   25.6334 C   0  0  0  0  0  0  0  0  0  0  0  0
   10.9227  -16.5635   26.9503 O   0  0  0  0  0  0  0  0  0  0  0  0
   11.3580  -18.1190   25.3733 O   0  0  0  0  0  0  0  0  0  0  0  0
  2  1  1  1
  3  2  1  0
  3  4  1  0
  4  5  2  0
  5  6  1  0
  7  6  2  0
  8  7  1  0
  9  4  1  0
  9  8  2  0
 10 11  2  0
 10  2  1  0
 12 13  1  0
 13 14  2  0
 15 13  1  0
 15 16  1  0
 17 16  1  6
 17 18  1  0
 18 10  1  0
 19 29  1  0
 19 17  1  0
 20 19  2  0
 22 21  1  0
 22 23  2  0
 24 22  1  0
 25 24  1  0
 26 27  1  0
 26 25  1  0
 28 27  1  6
 28 29  1  0
 28 30  1  0
 30 31  1  0
 32 30  2  0
M  END
$$$$
