FQR.pdb
     RDKit          3D

 32 32  0  0  1  0  0  0  0  0999 V2000
    7.7877  -17.1556   20.4805 N   0  0  0  0  0  0  0  0  0  0  0  0
    8.7963  -16.2476   21.0146 C   0  0  1  0  0  0  0  0  0  0  0  0
    8.0231  -15.3152   21.9403 C   0  0  0  0  0  0  0  0  0  0  0  0
    7.4825  -14.1938   21.1622 C   0  0  0  0  0  0  0  0  0  0  0  0
    6.3777  -14.4359   20.3417 C   0  0  0  0  0  0  0  0  0  0  0  0
    5.8136  -13.4483   19.5697 C   0  0  0  0  0  0  0  0  0  0  0  0
    6.3684  -12.1893   19.6187 C   0  0  0  0  0  0  0  0  0  0  0  0
    7.4719  -11.8886   20.4207 C   0  0  0  0  0  0  0  0  0  0  0  0
    7.9793  -12.9124   21.1592 C   0  0  0  0  0  0  0  0  0  0  0  0
    9.7330  -17.0816   21.8383 C   0  0  0  0  0  0  0  0  0  0  0  0
    9.2701  -17.9707   22.5577 O   0  0  0  0  0  0  0  0  0  0  0  0
   16.0648  -16.1162   22.2129 N   0  0  0  0  0  0  0  0  0  0  0  0
   15.1197  -15.3442   21.4457 C   0  0  0  0  0  0  0  0  0  0  0  0
   15.5272  -14.2867   20.9184 O   0  0  0  0  0  0  0  0  0  0  0  0
   13.7399  -15.8766   21.3504 C   0  0  0  0  0  0  0  0  0  0  0  0
   13.5128  -17.1681   22.0608 C   0  0  0  0  0  0  0  0  0  0  0  0
   12.1192  -17.3212   22.6295 C   0  0  2  0  0  0  0  0  0  0  0  0
   11.0986  -16.8173   21.7517 N   0  0  0  0  0  0  0  0  0  0  0  0
   12.1082  -16.7305   23.9838 C   0  0  0  0  0  0  0  0  0  0  0  0
   11.9566  -15.4619   24.1004 O   0  0  0  0  0  0  0  0  0  0  0  0
    7.7326  -21.7005   26.9432 N   0  0  0  0  0  0  0  0  0  0  0  0
    6.6035  -20.8303   27.0931 C   0  0  0  0  0  0  0  0  0  0  0  0
    5.5574  -21.2122   27.7030 N   0  0  0  0  0  0  0  0  0  0  0  0
    6.6403  -19.5196   26.5642 N   0  0  0  0  0  0  0  0  0  0  0  0
    7.7142  -19.0365   25.7802 C   0  0  0  0  0  0  0  0  0  0  0  0
    8.8369  -18.3789   26.5207 C   0  0  0  0  0  0  0  0  0  0  0  0
    9.9889  -18.1693   25.5854 C   0  0  0  0  0  0  0  0  0  0  0  0
   11.1898  -17.4800   26.2143 C   0  0  2  0  0  0  0  0  0  0  0  0
   12.2474  -17.4334   25.1957 N   0  0  0  0  0  0  0  0  0  0  0  0
   11.6844  -18.3091   27.3160 C   0  0  0  0  0  0  0  0  0  0  0  0
   11.2860  -18.0808   28.6111 O   0  0  0  0  0  0  0  0  0  0  0  0
   12.4836  -19.2459   27.0933 O   0  0  0  0  0  0  0  0  0  0  0  0
  2  1  1  1
  3  2  1  0
  3  4  1  0
  4  5  2  0
  5  6  1  0
  7  6  2  0
  8  7  1  0
  9  4  1  0
  9  8  2  0
 10 11  2  0
 10  2  1  0
 12 13  1  0
 13 14  2  0
 15 13  1  0
 15 16  1  0
 17 16  1  6
 17 18  1  0
 18 10  1  0
 19 29  1  0
 19 17  1  0
 20 19  2  0
 22 21  1  0
 22 23  2  0
 24 22  1  0
 25 24  1  0
 26 27  1  0
 26 25  1  0
 28 27  1  6
 28 29  1  0
 28 30  1  0
 30 31  1  0
 32 30  2  0
M  END
$$$$
