FQR.pdb
     RDKit          3D

 32 32  0  0  1  0  0  0  0  0999 V2000
    7.5376  -17.7931   20.2207 N   0  0  0  0  0  0  0  0  0  0  0  0
    8.5441  -17.0813   21.0000 C   0  0  1  0  0  0  0  0  0  0  0  0
    7.7426  -16.1746   21.9272 C   0  0  0  0  0  0  0  0  0  0  0  0
    7.5470  -14.8697   21.2836 C   0  0  0  0  0  0  0  0  0  0  0  0
    8.5126  -13.8821   21.4944 C   0  0  0  0  0  0  0  0  0  0  0  0
    8.4049  -12.6283   20.9411 C   0  0  0  0  0  0  0  0  0  0  0  0
    7.3049  -12.3559   20.1594 C   0  0  0  0  0  0  0  0  0  0  0  0
    6.3087  -13.3036   19.9132 C   0  0  0  0  0  0  0  0  0  0  0  0
    6.4790  -14.5236   20.4910 C   0  0  0  0  0  0  0  0  0  0  0  0
    9.2565  -18.1117   21.8260 C   0  0  0  0  0  0  0  0  0  0  0  0
    8.6768  -19.1654   22.1018 O   0  0  0  0  0  0  0  0  0  0  0  0
   14.9560  -20.2172   22.2833 N   0  0  0  0  0  0  0  0  0  0  0  0
   14.6009  -19.0068   21.5858 C   0  0  0  0  0  0  0  0  0  0  0  0
   15.3976  -18.5802   20.7223 O   0  0  0  0  0  0  0  0  0  0  0  0
   13.3144  -18.3718   21.9576 C   0  0  0  0  0  0  0  0  0  0  0  0
   12.5263  -19.1036   22.9907 C   0  0  0  0  0  0  0  0  0  0  0  0
   11.2292  -18.4240   23.3714 C   0  0  2  0  0  0  0  0  0  0  0  0
   10.5558  -17.8344   22.2466 N   0  0  0  0  0  0  0  0  0  0  0  0
   11.5097  -17.4857   24.4778 C   0  0  0  0  0  0  0  0  0  0  0  0
   12.7283  -17.1652   24.7186 O   0  0  0  0  0  0  0  0  0  0  0  0
    6.2228  -21.3529   23.8926 N   0  0  0  0  0  0  0  0  0  0  0  0
    6.0836  -20.1175   23.1793 C   0  0  0  0  0  0  0  0  0  0  0  0
    5.8759  -20.1030   21.9267 N   0  0  0  0  0  0  0  0  0  0  0  0
    6.1705  -18.8851   23.8670 N   0  0  0  0  0  0  0  0  0  0  0  0
    6.7139  -18.7670   25.1677 C   0  0  0  0  0  0  0  0  0  0  0  0
    7.8542  -17.8104   25.3292 C   0  0  0  0  0  0  0  0  0  0  0  0
    8.9294  -18.4580   26.1479 C   0  0  0  0  0  0  0  0  0  0  0  0
   10.0617  -17.5246   26.5471 C   0  0  2  0  0  0  0  0  0  0  0  0
   10.5528  -16.8860   25.3185 N   0  0  0  0  0  0  0  0  0  0  0  0
   11.1619  -18.3252   27.0898 C   0  0  0  0  0  0  0  0  0  0  0  0
   11.2576  -19.6708   26.8282 O   0  0  0  0  0  0  0  0  0  0  0  0
   12.0389  -17.7920   27.8056 O   0  0  0  0  0  0  0  0  0  0  0  0
  2  1  1  6
  3  2  1  0
  3  4  1  0
  4  5  2  0
  5  6  1  0
  7  6  2  0
  8  7  1  0
  9  4  1  0
  9  8  2  0
 10 11  2  0
 10  2  1  0
 12 13  1  0
 13 14  2  0
 15 13  1  0
 15 16  1  0
 17 16  1  6
 17 18  1  0
 18 10  1  0
 19 29  1  0
 19 17  1  0
 20 19  2  0
 22 21  1  0
 22 23  2  0
 24 22  1  0
 25 24  1  0
 26 27  1  0
 26 25  1  0
 28 27  1  6
 28 29  1  0
 28 30  1  0
 30 31  1  0
 32 30  2  0
M  END
$$$$
