LCK.pdb
     RDKit          3D

 24 23  0  0  1  0  0  0  0  0999 V2000
    8.7737  -12.3666   19.0840 C   0  0  0  0  0  0  0  0  0  0  0  0
    8.0571  -13.4294   19.8899 C   0  0  2  0  0  0  0  0  0  0  0  0
    7.4514  -12.7142   21.1048 C   0  0  0  0  0  0  0  0  0  0  0  0
    9.1072  -14.3685   20.4416 C   0  0  0  0  0  0  0  0  0  0  0  0
    9.7900  -15.1544   19.3463 C   0  0  2  0  0  0  0  0  0  0  0  0
    8.8139  -15.8724   18.5907 N   0  0  0  0  0  0  0  0  0  0  0  0
   10.7471  -16.0880   20.0430 C   0  0  0  0  0  0  0  0  0  0  0  0
   10.3846  -17.2680   20.3006 O   0  0  0  0  0  0  0  0  0  0  0  0
   12.0391  -15.6491   20.4057 N   0  0  0  0  0  0  0  0  0  0  0  0
   12.9756  -16.6285   20.9507 C   0  0  1  0  0  0  0  0  0  0  0  0
   14.3454  -15.9878   20.8858 C   0  0  0  0  0  0  0  0  0  0  0  0
   14.5319  -14.5763   21.9800 S   0  0  0  0  0  0  0  0  0  0  0  0
   12.6372  -16.9478   22.3479 C   0  0  0  0  0  0  0  0  0  0  0  0
   11.9668  -16.0739   22.9967 O   0  0  0  0  0  0  0  0  0  0  0  0
   12.9686  -18.1160   23.0525 N   0  0  0  0  0  0  0  0  0  0  0  0
   12.4960  -18.3273   24.4769 C   0  0  1  0  0  0  0  0  0  0  0  0
   11.9462  -19.7051   24.5057 C   0  0  0  0  0  0  0  0  0  0  0  0
   11.5081  -20.3765   25.7122 C   0  0  0  0  0  0  0  0  0  0  0  0
   11.1272  -21.7947   25.7611 C   0  0  0  0  0  0  0  0  0  0  0  0
   10.6732  -22.1493   27.2097 C   0  0  0  0  0  0  0  0  0  0  0  0
   10.4386  -23.5550   27.3384 N   0  0  0  0  0  0  0  0  0  0  0  0
   13.7561  -18.2444   25.2462 C   0  0  0  0  0  0  0  0  0  0  0  0
   13.7028  -18.0261   26.6406 O   0  0  0  0  0  0  0  0  0  0  0  0
   14.8896  -18.3487   24.7824 O   0  0  0  0  0  0  0  0  0  0  0  0
  2  1  1  6
  3  2  1  0
  4  2  1  0
  4  5  1  0
  5  6  1  1
  7  5  1  0
  7  8  2  0
  9  7  1  0
 10  9  1  0
 10 11  1  1
 11 12  1  0
 13 10  1  0
 14 13  2  0
 15 13  1  0
 16 17  1  6
 16 15  1  0
 17 18  1  0
 19 18  1  0
 20 21  1  0
 20 19  1  0
 22 16  1  0
 23 22  1  0
 24 22  2  0
M  END
$$$$
