LCK.pdb
     RDKit          3D

 24 23  0  0  1  0  0  0  0  0999 V2000
    5.2255  -16.9714   20.4577 C   0  0  0  0  0  0  0  0  0  0  0  0
    6.5662  -17.6186   20.7334 C   0  0  2  0  0  0  0  0  0  0  0  0
    6.2641  -19.0064   21.3137 C   0  0  0  0  0  0  0  0  0  0  0  0
    7.2289  -16.8378   21.8470 C   0  0  0  0  0  0  0  0  0  0  0  0
    7.4951  -15.4048   21.4478 C   0  0  2  0  0  0  0  0  0  0  0  0
    8.3910  -15.3747   20.3361 N   0  0  0  0  0  0  0  0  0  0  0  0
    8.0968  -14.7430   22.6614 C   0  0  0  0  0  0  0  0  0  0  0  0
    9.3365  -14.8419   22.8705 O   0  0  0  0  0  0  0  0  0  0  0  0
    7.2831  -14.0179   23.5589 N   0  0  0  0  0  0  0  0  0  0  0  0
    7.9034  -13.4531   24.7546 C   0  0  1  0  0  0  0  0  0  0  0  0
    6.9066  -12.4668   25.3243 C   0  0  0  0  0  0  0  0  0  0  0  0
    7.3557  -11.8472   26.9486 S   0  0  0  0  0  0  0  0  0  0  0  0
    8.1834  -14.5096   25.7416 C   0  0  0  0  0  0  0  0  0  0  0  0
    7.1994  -15.2406   26.1038 O   0  0  0  0  0  0  0  0  0  0  0  0
    9.4215  -14.8084   26.3322 N   0  0  0  0  0  0  0  0  0  0  0  0
    9.5548  -15.9391   27.3325 C   0  0  1  0  0  0  0  0  0  0  0  0
   10.7713  -16.6827   26.9216 C   0  0  0  0  0  0  0  0  0  0  0  0
   11.0777  -18.0324   27.3491 C   0  0  0  0  0  0  0  0  0  0  0  0
   12.2765  -18.7677   26.9238 C   0  0  0  0  0  0  0  0  0  0  0  0
   12.1914  -20.2302   27.4569 C   0  0  0  0  0  0  0  0  0  0  0  0
   13.3267  -20.9916   27.0338 N   0  0  0  0  0  0  0  0  0  0  0  0
    9.7806  -15.2160   28.6024 C   0  0  0  0  0  0  0  0  0  0  0  0
    9.7661  -15.9329   29.8193 O   0  0  0  0  0  0  0  0  0  0  0  0
    9.9867  -14.0096   28.7157 O   0  0  0  0  0  0  0  0  0  0  0  0
  2  1  1  1
  3  2  1  0
  4  2  1  0
  4  5  1  0
  5  6  1  6
  7  5  1  0
  7  8  2  0
  9  7  1  0
 10  9  1  0
 10 11  1  1
 11 12  1  0
 13 10  1  0
 14 13  2  0
 15 13  1  0
 16 17  1  6
 16 15  1  0
 17 18  1  0
 19 18  1  0
 20 21  1  0
 20 19  1  0
 22 16  1  0
 23 22  1  0
 24 22  2  0
M  END
$$$$
