LCK.pdb
     RDKit          3D

 24 23  0  0  1  0  0  0  0  0999 V2000
    7.8983  -12.9099   27.4204 C   0  0  0  0  0  0  0  0  0  0  0  0
    7.4418  -13.5144   26.1095 C   0  0  2  0  0  0  0  0  0  0  0  0
    6.4518  -12.5158   25.4955 C   0  0  0  0  0  0  0  0  0  0  0  0
    6.6352  -14.7524   26.4348 C   0  0  0  0  0  0  0  0  0  0  0  0
    6.2020  -15.4854   25.1862 C   0  0  2  0  0  0  0  0  0  0  0  0
    5.3802  -16.5973   25.5432 N   0  0  0  0  0  0  0  0  0  0  0  0
    7.4722  -15.9313   24.5075 C   0  0  0  0  0  0  0  0  0  0  0  0
    8.1142  -16.9105   24.9759 O   0  0  0  0  0  0  0  0  0  0  0  0
    7.9427  -15.2614   23.3572 N   0  0  0  0  0  0  0  0  0  0  0  0
    9.0137  -15.8834   22.5829 C   0  0  1  0  0  0  0  0  0  0  0  0
    9.1094  -15.1042   21.2888 C   0  0  0  0  0  0  0  0  0  0  0  0
    7.7180  -15.3689   20.1852 S   0  0  0  0  0  0  0  0  0  0  0  0
   10.2917  -15.8059   23.3104 C   0  0  0  0  0  0  0  0  0  0  0  0
   10.6821  -14.6447   23.6753 O   0  0  0  0  0  0  0  0  0  0  0  0
   11.1353  -16.8743   23.6539 N   0  0  0  0  0  0  0  0  0  0  0  0
   12.4583  -16.6291   24.3515 C   0  0  1  0  0  0  0  0  0  0  0  0
   12.6165  -17.7610   25.2977 C   0  0  0  0  0  0  0  0  0  0  0  0
   11.8574  -17.9035   26.5231 C   0  0  0  0  0  0  0  0  0  0  0  0
   11.9608  -19.0680   27.4130 C   0  0  0  0  0  0  0  0  0  0  0  0
   10.9914  -18.8741   28.6184 C   0  0  0  0  0  0  0  0  0  0  0  0
   11.0452  -20.0005   29.4994 N   0  0  0  0  0  0  0  0  0  0  0  0
   13.4280  -16.7295   23.2397 C   0  0  0  0  0  0  0  0  0  0  0  0
   13.0592  -17.4108   22.0588 O   0  0  0  0  0  0  0  0  0  0  0  0
   14.5661  -16.2654   23.2345 O   0  0  0  0  0  0  0  0  0  0  0  0
  2  1  1  1
  3  2  1  0
  4  2  1  0
  4  5  1  0
  5  6  1  1
  7  5  1  0
  7  8  2  0
  9  7  1  0
 10  9  1  0
 10 11  1  6
 11 12  1  0
 13 10  1  0
 14 13  2  0
 15 13  1  0
 16 17  1  1
 16 15  1  0
 17 18  1  0
 19 18  1  0
 20 21  1  0
 20 19  1  0
 22 16  1  0
 23 22  1  0
 24 22  2  0
M  END
$$$$
