LCK.pdb
     RDKit          3D

 24 23  0  0  1  0  0  0  0  0999 V2000
    5.7315  -12.3788   26.0441 C   0  0  0  0  0  0  0  0  0  0  0  0
    6.4344  -13.2368   27.0747 C   0  0  2  0  0  0  0  0  0  0  0  0
    7.4834  -12.3374   27.7418 C   0  0  0  0  0  0  0  0  0  0  0  0
    7.2118  -14.2994   26.3294 C   0  0  0  0  0  0  0  0  0  0  0  0
    6.3276  -15.0902   25.3932 C   0  0  2  0  0  0  0  0  0  0  0  0
    5.6460  -16.1105   26.1238 N   0  0  0  0  0  0  0  0  0  0  0  0
    7.2477  -15.6758   24.3522 C   0  0  0  0  0  0  0  0  0  0  0  0
    7.7856  -16.7971   24.5610 O   0  0  0  0  0  0  0  0  0  0  0  0
    7.5078  -14.9782   23.1526 N   0  0  0  0  0  0  0  0  0  0  0  0
    8.4587  -15.5570   22.2071 C   0  0  1  0  0  0  0  0  0  0  0  0
    8.5247  -14.6029   21.0338 C   0  0  0  0  0  0  0  0  0  0  0  0
    9.6316  -15.1442   19.7277 S   0  0  0  0  0  0  0  0  0  0  0  0
    9.7898  -15.6859   22.8238 C   0  0  0  0  0  0  0  0  0  0  0  0
   10.1648  -14.7399   23.5974 O   0  0  0  0  0  0  0  0  0  0  0  0
   10.6997  -16.7421   22.6584 N   0  0  0  0  0  0  0  0  0  0  0  0
   12.0102  -16.7679   23.4193 C   0  0  1  0  0  0  0  0  0  0  0  0
   11.9548  -17.9954   24.2511 C   0  0  0  0  0  0  0  0  0  0  0  0
   12.1092  -18.0045   25.6913 C   0  0  0  0  0  0  0  0  0  0  0  0
   12.1261  -19.2313   26.4996 C   0  0  0  0  0  0  0  0  0  0  0  0
   12.2204  -18.8454   28.0071 C   0  0  0  0  0  0  0  0  0  0  0  0
   11.2070  -19.5122   28.7662 N   0  0  0  0  0  0  0  0  0  0  0  0
   13.0055  -16.9083   22.3348 C   0  0  0  0  0  0  0  0  0  0  0  0
   14.3522  -16.5619   22.5820 O   0  0  0  0  0  0  0  0  0  0  0  0
   12.7758  -17.3095   21.1959 O   0  0  0  0  0  0  0  0  0  0  0  0
  2  1  1  6
  3  2  1  0
  4  2  1  0
  4  5  1  0
  5  6  1  1
  7  5  1  0
  7  8  2  0
  9  7  1  0
 10  9  1  0
 10 11  1  6
 11 12  1  0
 13 10  1  0
 14 13  2  0
 15 13  1  0
 16 17  1  1
 16 15  1  0
 17 18  1  0
 19 18  1  0
 20 21  1  0
 20 19  1  0
 22 16  1  0
 23 22  1  0
 24 22  2  0
M  END
$$$$
