LCK.pdb
     RDKit          3D

 24 23  0  0  1  0  0  0  0  0999 V2000
    7.4435  -12.5850   27.2673 C   0  0  0  0  0  0  0  0  0  0  0  0
    7.2589  -13.3396   25.9677 C   0  0  2  0  0  0  0  0  0  0  0  0
    6.4340  -12.4257   25.0518 C   0  0  0  0  0  0  0  0  0  0  0  0
    6.3824  -14.5383   26.2571 C   0  0  0  0  0  0  0  0  0  0  0  0
    6.0931  -15.3380   25.0079 C   0  0  2  0  0  0  0  0  0  0  0  0
    5.3007  -16.4785   25.3408 N   0  0  0  0  0  0  0  0  0  0  0  0
    7.4367  -15.7401   24.4546 C   0  0  0  0  0  0  0  0  0  0  0  0
    8.1284  -16.5973   25.0688 O   0  0  0  0  0  0  0  0  0  0  0  0
    7.9203  -15.1645   23.2595 N   0  0  0  0  0  0  0  0  0  0  0  0
    8.9383  -15.8899   22.5039 C   0  0  1  0  0  0  0  0  0  0  0  0
    9.0575  -15.1865   21.1690 C   0  0  0  0  0  0  0  0  0  0  0  0
    7.5894  -15.3322   20.1454 S   0  0  0  0  0  0  0  0  0  0  0  0
   10.2313  -15.8522   23.2076 C   0  0  0  0  0  0  0  0  0  0  0  0
   10.5807  -14.7344   23.7199 O   0  0  0  0  0  0  0  0  0  0  0  0
   11.1299  -16.9166   23.3832 N   0  0  0  0  0  0  0  0  0  0  0  0
   12.3498  -16.7681   24.2701 C   0  0  1  0  0  0  0  0  0  0  0  0
   12.4432  -18.0435   25.0226 C   0  0  0  0  0  0  0  0  0  0  0  0
   12.3435  -18.1415   26.4644 C   0  0  0  0  0  0  0  0  0  0  0  0
   12.3986  -19.4129   27.1988 C   0  0  0  0  0  0  0  0  0  0  0  0
   12.3164  -19.1205   28.7278 C   0  0  0  0  0  0  0  0  0  0  0  0
   12.3382  -20.3381   29.4794 N   0  0  0  0  0  0  0  0  0  0  0  0
   13.4472  -16.6532   23.2857 C   0  0  0  0  0  0  0  0  0  0  0  0
   14.6937  -16.1313   23.6963 O   0  0  0  0  0  0  0  0  0  0  0  0
   13.3868  -16.9756   22.1011 O   0  0  0  0  0  0  0  0  0  0  0  0
  2  1  1  1
  3  2  1  0
  4  2  1  0
  4  5  1  0
  5  6  1  1
  7  5  1  0
  7  8  2  0
  9  7  1  0
 10  9  1  0
 10 11  1  6
 11 12  1  0
 13 10  1  0
 14 13  2  0
 15 13  1  0
 16 17  1  1
 16 15  1  0
 17 18  1  0
 19 18  1  0
 20 21  1  0
 20 19  1  0
 22 16  1  0
 23 22  1  0
 24 22  2  0
M  END
$$$$
