LCK.pdb
     RDKit          3D

 24 23  0  0  1  0  0  0  0  0999 V2000
    6.7214  -12.8273   19.1752 C   0  0  0  0  0  0  0  0  0  0  0  0
    8.1122  -13.2736   19.5740 C   0  0  2  0  0  0  0  0  0  0  0  0
    8.9906  -12.0156   19.5556 C   0  0  0  0  0  0  0  0  0  0  0  0
    8.6390  -14.1644   18.4704 C   0  0  0  0  0  0  0  0  0  0  0  0
   10.0028  -14.7242   18.8025 C   0  0  2  0  0  0  0  0  0  0  0  0
   10.4575  -15.5490   17.7290 N   0  0  0  0  0  0  0  0  0  0  0  0
    9.8258  -15.5168   20.0727 C   0  0  0  0  0  0  0  0  0  0  0  0
    9.2638  -14.9791   21.0653 O   0  0  0  0  0  0  0  0  0  0  0  0
   10.2838  -16.8498   20.1546 N   0  0  0  0  0  0  0  0  0  0  0  0
   10.0289  -17.5953   21.3845 C   0  0  1  0  0  0  0  0  0  0  0  0
   10.3900  -19.0355   21.0903 C   0  0  0  0  0  0  0  0  0  0  0  0
    9.0417  -19.9844   20.3794 S   0  0  0  0  0  0  0  0  0  0  0  0
   10.8646  -17.0834   22.4837 C   0  0  0  0  0  0  0  0  0  0  0  0
   11.9877  -16.5630   22.1647 O   0  0  0  0  0  0  0  0  0  0  0  0
   10.5620  -17.1001   23.8545 N   0  0  0  0  0  0  0  0  0  0  0  0
   11.4089  -16.3313   24.8488 C   0  0  1  0  0  0  0  0  0  0  0  0
   10.5299  -16.1132   26.0241 C   0  0  0  0  0  0  0  0  0  0  0  0
   10.9941  -15.6036   27.2981 C   0  0  0  0  0  0  0  0  0  0  0  0
   10.1165  -15.3898   28.4570 C   0  0  0  0  0  0  0  0  0  0  0  0
   10.9470  -14.7542   29.6130 C   0  0  0  0  0  0  0  0  0  0  0  0
   10.1060  -14.4335   30.7255 N   0  0  0  0  0  0  0  0  0  0  0  0
   12.4843  -17.2960   25.1642 C   0  0  0  0  0  0  0  0  0  0  0  0
   12.2073  -18.6802   25.1205 O   0  0  0  0  0  0  0  0  0  0  0  0
   13.6388  -17.0095   25.4735 O   0  0  0  0  0  0  0  0  0  0  0  0
  2  1  1  6
  3  2  1  0
  4  2  1  0
  4  5  1  0
  5  6  1  6
  7  5  1  0
  7  8  2  0
  9  7  1  0
 10  9  1  0
 10 11  1  6
 11 12  1  0
 13 10  1  0
 14 13  2  0
 15 13  1  0
 16 17  1  1
 16 15  1  0
 17 18  1  0
 19 18  1  0
 20 21  1  0
 20 19  1  0
 22 16  1  0
 23 22  1  0
 24 22  2  0
M  END
$$$$
