LCK.pdb
     RDKit          3D

 24 23  0  0  1  0  0  0  0  0999 V2000
    7.8908  -12.6977   27.2488 C   0  0  0  0  0  0  0  0  0  0  0  0
    7.2853  -13.3345   26.0158 C   0  0  2  0  0  0  0  0  0  0  0  0
    6.3292  -12.2938   25.4182 C   0  0  0  0  0  0  0  0  0  0  0  0
    6.4144  -14.4825   26.4767 C   0  0  0  0  0  0  0  0  0  0  0  0
    5.8705  -15.2782   25.3127 C   0  0  2  0  0  0  0  0  0  0  0  0
    5.1093  -16.3835   25.8007 N   0  0  0  0  0  0  0  0  0  0  0  0
    7.0734  -15.7378   24.5286 C   0  0  0  0  0  0  0  0  0  0  0  0
    7.7902  -16.6703   24.9835 O   0  0  0  0  0  0  0  0  0  0  0  0
    7.3983  -15.1322   23.2953 N   0  0  0  0  0  0  0  0  0  0  0  0
    8.3638  -15.8021   22.4279 C   0  0  1  0  0  0  0  0  0  0  0  0
    8.3812  -15.0226   21.1305 C   0  0  0  0  0  0  0  0  0  0  0  0
    8.7450  -13.2773   21.3447 S   0  0  0  0  0  0  0  0  0  0  0  0
    9.7042  -15.7903   23.0378 C   0  0  0  0  0  0  0  0  0  0  0  0
   10.0031  -14.7803   23.7620 O   0  0  0  0  0  0  0  0  0  0  0  0
   10.6981  -16.7741   22.9144 N   0  0  0  0  0  0  0  0  0  0  0  0
   11.8412  -16.8555   23.9060 C   0  0  1  0  0  0  0  0  0  0  0  0
   11.8115  -18.2459   24.4231 C   0  0  0  0  0  0  0  0  0  0  0  0
   12.8608  -18.8307   25.2326 C   0  0  0  0  0  0  0  0  0  0  0  0
   12.6081  -19.6109   26.4517 C   0  0  0  0  0  0  0  0  0  0  0  0
   13.9705  -19.9514   27.1287 C   0  0  0  0  0  0  0  0  0  0  0  0
   13.7645  -20.5287   28.4218 N   0  0  0  0  0  0  0  0  0  0  0  0
   13.0245  -16.6358   23.0468 C   0  0  0  0  0  0  0  0  0  0  0  0
   12.9315  -16.8938   21.6613 O   0  0  0  0  0  0  0  0  0  0  0  0
   14.1239  -16.2377   23.4257 O   0  0  0  0  0  0  0  0  0  0  0  0
  2  1  1  1
  3  2  1  0
  4  2  1  0
  4  5  1  0
  5  6  1  1
  7  5  1  0
  7  8  2  0
  9  7  1  0
 10  9  1  0
 10 11  1  6
 11 12  1  0
 13 10  1  0
 14 13  2  0
 15 13  1  0
 16 17  1  6
 16 15  1  0
 17 18  1  0
 19 18  1  0
 20 21  1  0
 20 19  1  0
 22 16  1  0
 23 22  1  0
 24 22  2  0
M  END
$$$$
