LCK.pdb
     RDKit          3D

 24 23  0  0  1  0  0  0  0  0999 V2000
    6.3711  -12.1068   27.7522 C   0  0  0  0  0  0  0  0  0  0  0  0
    6.9267  -12.2384   26.3499 C   0  0  2  0  0  0  0  0  0  0  0  0
    6.6062  -10.9200   25.6334 C   0  0  0  0  0  0  0  0  0  0  0  0
    6.1218  -13.3040   25.6388 C   0  0  0  0  0  0  0  0  0  0  0  0
    6.5059  -14.6940   26.0906 C   0  0  2  0  0  0  0  0  0  0  0  0
    7.5331  -14.6107   27.0792 N   0  0  0  0  0  0  0  0  0  0  0  0
    6.9844  -15.4124   24.8545 C   0  0  0  0  0  0  0  0  0  0  0  0
    6.2762  -16.3301   24.3580 O   0  0  0  0  0  0  0  0  0  0  0  0
    8.2142  -15.0641   24.2547 N   0  0  0  0  0  0  0  0  0  0  0  0
    8.7395  -15.9273   23.2001 C   0  0  1  0  0  0  0  0  0  0  0  0
    8.9369  -15.0435   21.9873 C   0  0  0  0  0  0  0  0  0  0  0  0
    9.6014  -15.9132   20.5638 S   0  0  0  0  0  0  0  0  0  0  0  0
   10.0266  -16.5168   23.6057 C   0  0  0  0  0  0  0  0  0  0  0  0
   10.8690  -15.7384   24.1699 O   0  0  0  0  0  0  0  0  0  0  0  0
   10.4345  -17.8503   23.4436 N   0  0  0  0  0  0  0  0  0  0  0  0
   11.8099  -18.3041   23.8898 C   0  0  1  0  0  0  0  0  0  0  0  0
   11.5781  -19.5462   24.6677 C   0  0  0  0  0  0  0  0  0  0  0  0
   11.4185  -19.5816   26.1069 C   0  0  0  0  0  0  0  0  0  0  0  0
   11.0433  -20.7899   26.8540 C   0  0  0  0  0  0  0  0  0  0  0  0
   11.1022  -20.4819   28.3811 C   0  0  0  0  0  0  0  0  0  0  0  0
   10.7217  -21.6303   29.1455 N   0  0  0  0  0  0  0  0  0  0  0  0
   12.4795  -18.6016   22.6054 C   0  0  0  0  0  0  0  0  0  0  0  0
   13.8898  -18.6608   22.5573 O   0  0  0  0  0  0  0  0  0  0  0  0
   11.9166  -18.8101   21.5328 O   0  0  0  0  0  0  0  0  0  0  0  0
  2  1  1  1
  3  2  1  0
  4  2  1  0
  4  5  1  0
  5  6  1  1
  7  5  1  0
  7  8  2  0
  9  7  1  0
 10  9  1  0
 10 11  1  6
 11 12  1  0
 13 10  1  0
 14 13  2  0
 15 13  1  0
 16 17  1  1
 16 15  1  0
 17 18  1  0
 19 18  1  0
 20 21  1  0
 20 19  1  0
 22 16  1  0
 23 22  1  0
 24 22  2  0
M  END
$$$$
