LCK.pdb
     RDKit          3D

 24 23  0  0  1  0  0  0  0  0999 V2000
    5.3313  -12.2041   25.7089 C   0  0  0  0  0  0  0  0  0  0  0  0
    6.1766  -12.8263   26.8002 C   0  0  2  0  0  0  0  0  0  0  0  0
    7.0867  -11.7104   27.3300 C   0  0  0  0  0  0  0  0  0  0  0  0
    7.0945  -13.8356   26.1461 C   0  0  0  0  0  0  0  0  0  0  0  0
    6.3211  -14.9464   25.4741 C   0  0  2  0  0  0  0  0  0  0  0  0
    5.8948  -15.8948   26.4530 N   0  0  0  0  0  0  0  0  0  0  0  0
    7.2691  -15.5662   24.4791 C   0  0  0  0  0  0  0  0  0  0  0  0
    8.0442  -16.4881   24.8528 O   0  0  0  0  0  0  0  0  0  0  0  0
    7.2922  -15.1215   23.1392 N   0  0  0  0  0  0  0  0  0  0  0  0
    8.2298  -15.7547   22.2154 C   0  0  1  0  0  0  0  0  0  0  0  0
    8.0700  -15.0388   20.8915 C   0  0  0  0  0  0  0  0  0  0  0  0
    9.1641  -15.6507   19.6060 S   0  0  0  0  0  0  0  0  0  0  0  0
    9.6128  -15.6098   22.7000 C   0  0  0  0  0  0  0  0  0  0  0  0
   10.0154  -14.4247   22.9595 O   0  0  0  0  0  0  0  0  0  0  0  0
   10.5460  -16.6367   22.9137 N   0  0  0  0  0  0  0  0  0  0  0  0
   11.9427  -16.3284   23.4146 C   0  0  1  0  0  0  0  0  0  0  0  0
   11.9787  -16.8360   24.8085 C   0  0  0  0  0  0  0  0  0  0  0  0
   11.7331  -18.2160   25.1737 C   0  0  0  0  0  0  0  0  0  0  0  0
   11.8774  -18.7333   26.5413 C   0  0  0  0  0  0  0  0  0  0  0  0
   11.3473  -20.1986   26.5889 C   0  0  0  0  0  0  0  0  0  0  0  0
   11.5063  -20.7536   27.8983 N   0  0  0  0  0  0  0  0  0  0  0  0
   12.7889  -17.1561   22.5284 C   0  0  0  0  0  0  0  0  0  0  0  0
   12.1777  -17.9629   21.5433 O   0  0  0  0  0  0  0  0  0  0  0  0
   14.0160  -17.2194   22.5599 O   0  0  0  0  0  0  0  0  0  0  0  0
  2  1  1  6
  3  2  1  0
  4  2  1  0
  4  5  1  0
  5  6  1  1
  7  5  1  0
  7  8  2  0
  9  7  1  0
 10  9  1  0
 10 11  1  6
 11 12  1  0
 13 10  1  0
 14 13  2  0
 15 13  1  0
 16 17  1  1
 16 15  1  0
 17 18  1  0
 19 18  1  0
 20 21  1  0
 20 19  1  0
 22 16  1  0
 23 22  1  0
 24 22  2  0
M  END
$$$$
