LCK.pdb
     RDKit          3D

 24 23  0  0  1  0  0  0  0  0999 V2000
    7.6509  -14.3031   18.6250 C   0  0  0  0  0  0  0  0  0  0  0  0
    7.3034  -13.3983   19.7883 C   0  0  2  0  0  0  0  0  0  0  0  0
    7.4058  -11.9606   19.2621 C   0  0  0  0  0  0  0  0  0  0  0  0
    8.3998  -13.5419   20.8208 C   0  0  0  0  0  0  0  0  0  0  0  0
    8.2910  -14.8445   21.5791 C   0  0  2  0  0  0  0  0  0  0  0  0
    6.9197  -15.2319   21.6735 N   0  0  0  0  0  0  0  0  0  0  0  0
    8.8866  -14.5817   22.9390 C   0  0  0  0  0  0  0  0  0  0  0  0
   10.1054  -14.2715   23.0321 O   0  0  0  0  0  0  0  0  0  0  0  0
    8.0905  -14.6809   24.1007 N   0  0  0  0  0  0  0  0  0  0  0  0
    8.7317  -14.4858   25.3985 C   0  0  1  0  0  0  0  0  0  0  0  0
    7.7227  -13.7648   26.2663 C   0  0  0  0  0  0  0  0  0  0  0  0
    8.2635  -13.5410   27.9638 S   0  0  0  0  0  0  0  0  0  0  0  0
    9.0794  -15.7819   26.0051 C   0  0  0  0  0  0  0  0  0  0  0  0
    8.1820  -16.6920   25.9830 O   0  0  0  0  0  0  0  0  0  0  0  0
   10.2977  -16.1341   26.6074 N   0  0  0  0  0  0  0  0  0  0  0  0
   10.4766  -17.4844   27.2719 C   0  0  1  0  0  0  0  0  0  0  0  0
   11.5764  -18.1442   26.5258 C   0  0  0  0  0  0  0  0  0  0  0  0
   12.1792  -19.4018   26.9174 C   0  0  0  0  0  0  0  0  0  0  0  0
   13.2997  -20.0248   26.1997 C   0  0  0  0  0  0  0  0  0  0  0  0
   13.7207  -21.3267   26.9468 C   0  0  0  0  0  0  0  0  0  0  0  0
   14.8920  -21.8960   26.3539 N   0  0  0  0  0  0  0  0  0  0  0  0
   10.9109  -17.1131   28.6357 C   0  0  0  0  0  0  0  0  0  0  0  0
   10.9192  -18.0950   29.6509 O   0  0  0  0  0  0  0  0  0  0  0  0
   11.2792  -15.9964   28.9938 O   0  0  0  0  0  0  0  0  0  0  0  0
  2  1  1  6
  3  2  1  0
  4  2  1  0
  4  5  1  0
  5  6  1  1
  7  5  1  0
  7  8  2  0
  9  7  1  0
 10  9  1  0
 10 11  1  1
 11 12  1  0
 13 10  1  0
 14 13  2  0
 15 13  1  0
 16 17  1  6
 16 15  1  0
 17 18  1  0
 19 18  1  0
 20 21  1  0
 20 19  1  0
 22 16  1  0
 23 22  1  0
 24 22  2  0
M  END
$$$$
