LCK.pdb
     RDKit          3D

 24 23  0  0  1  0  0  0  0  0999 V2000
    8.3513  -13.3382   18.0280 C   0  0  0  0  0  0  0  0  0  0  0  0
    7.4096  -13.3224   19.2135 C   0  0  2  0  0  0  0  0  0  0  0  0
    6.8462  -11.8977   19.2979 C   0  0  0  0  0  0  0  0  0  0  0  0
    8.2439  -13.5139   20.4609 C   0  0  0  0  0  0  0  0  0  0  0  0
    8.8612  -14.8921   20.5185 C   0  0  2  0  0  0  0  0  0  0  0  0
    7.8479  -15.8803   20.3284 N   0  0  0  0  0  0  0  0  0  0  0  0
    9.4947  -15.0042   21.8820 C   0  0  0  0  0  0  0  0  0  0  0  0
    9.7689  -13.9552   22.5260 O   0  0  0  0  0  0  0  0  0  0  0  0
    9.7801  -16.2706   22.4370 N   0  0  0  0  0  0  0  0  0  0  0  0
   10.1880  -16.3368   23.8380 C   0  0  1  0  0  0  0  0  0  0  0  0
    9.0205  -15.8112   24.6452 C   0  0  0  0  0  0  0  0  0  0  0  0
    9.2644  -15.9244   26.4205 S   0  0  0  0  0  0  0  0  0  0  0  0
   10.4816  -17.7264   24.2273 C   0  0  0  0  0  0  0  0  0  0  0  0
    9.5290  -18.5721   24.1213 O   0  0  0  0  0  0  0  0  0  0  0  0
   11.7020  -18.2315   24.7032 N   0  0  0  0  0  0  0  0  0  0  0  0
   11.8820  -19.7128   24.9681 C   0  0  1  0  0  0  0  0  0  0  0  0
   13.1702  -20.0709   24.3248 C   0  0  0  0  0  0  0  0  0  0  0  0
   13.3238  -20.3235   22.9067 C   0  0  0  0  0  0  0  0  0  0  0  0
   14.5967  -20.7100   22.2828 C   0  0  0  0  0  0  0  0  0  0  0  0
   14.3999  -20.7971   20.7388 C   0  0  0  0  0  0  0  0  0  0  0  0
   15.6057  -21.2235   20.0967 N   0  0  0  0  0  0  0  0  0  0  0  0
   11.9951  -19.7614   26.4416 C   0  0  0  0  0  0  0  0  0  0  0  0
   11.9244  -21.0087   27.1006 O   0  0  0  0  0  0  0  0  0  0  0  0
   12.1492  -18.7932   27.1830 O   0  0  0  0  0  0  0  0  0  0  0  0
  2  1  1  6
  3  2  1  0
  4  2  1  0
  4  5  1  0
  5  6  1  1
  7  5  1  0
  7  8  2  0
  9  7  1  0
 10  9  1  0
 10 11  1  1
 11 12  1  0
 13 10  1  0
 14 13  2  0
 15 13  1  0
 16 17  1  6
 16 15  1  0
 17 18  1  0
 19 18  1  0
 20 21  1  0
 20 19  1  0
 22 16  1  0
 23 22  1  0
 24 22  2  0
M  END
$$$$
