LCK.pdb
     RDKit          3D

 24 23  0  0  1  0  0  0  0  0999 V2000
    8.3437  -14.3051   19.0641 C   0  0  0  0  0  0  0  0  0  0  0  0
    7.5715  -13.5317   20.1120 C   0  0  2  0  0  0  0  0  0  0  0  0
    7.5757  -12.0664   19.6568 C   0  0  0  0  0  0  0  0  0  0  0  0
    8.3760  -13.5713   21.3926 C   0  0  0  0  0  0  0  0  0  0  0  0
    8.4306  -14.9628   21.9796 C   0  0  2  0  0  0  0  0  0  0  0  0
    7.1043  -15.4367   22.2155 N   0  0  0  0  0  0  0  0  0  0  0  0
    9.2106  -14.8389   23.2639 C   0  0  0  0  0  0  0  0  0  0  0  0
   10.4111  -14.4549   23.2251 O   0  0  0  0  0  0  0  0  0  0  0  0
    8.6060  -15.1491   24.5015 N   0  0  0  0  0  0  0  0  0  0  0  0
    9.4097  -15.0261   25.7149 C   0  0  1  0  0  0  0  0  0  0  0  0
    8.5916  -14.1998   26.6839 C   0  0  0  0  0  0  0  0  0  0  0  0
    9.3595  -14.0122   28.2961 S   0  0  0  0  0  0  0  0  0  0  0  0
    9.6820  -16.3529   26.2931 C   0  0  0  0  0  0  0  0  0  0  0  0
    8.6967  -17.1631   26.3754 O   0  0  0  0  0  0  0  0  0  0  0  0
   10.9139  -16.8329   26.7653 N   0  0  0  0  0  0  0  0  0  0  0  0
   11.0352  -18.2266   27.3482 C   0  0  1  0  0  0  0  0  0  0  0  0
   12.2780  -18.7878   26.7633 C   0  0  0  0  0  0  0  0  0  0  0  0
   12.2996  -19.8159   25.7432 C   0  0  0  0  0  0  0  0  0  0  0  0
   13.5351  -20.3639   25.1669 C   0  0  0  0  0  0  0  0  0  0  0  0
   13.1648  -21.4077   24.0698 C   0  0  0  0  0  0  0  0  0  0  0  0
   14.3313  -21.8296   23.3563 N   0  0  0  0  0  0  0  0  0  0  0  0
   11.2060  -17.9544   28.7916 C   0  0  0  0  0  0  0  0  0  0  0  0
   11.1404  -19.0250   29.7105 O   0  0  0  0  0  0  0  0  0  0  0  0
   11.4060  -16.8516   29.2963 O   0  0  0  0  0  0  0  0  0  0  0  0
  2  1  1  6
  3  2  1  0
  4  2  1  0
  4  5  1  0
  5  6  1  1
  7  5  1  0
  7  8  2  0
  9  7  1  0
 10  9  1  0
 10 11  1  1
 11 12  1  0
 13 10  1  0
 14 13  2  0
 15 13  1  0
 16 17  1  6
 16 15  1  0
 17 18  1  0
 19 18  1  0
 20 21  1  0
 20 19  1  0
 22 16  1  0
 23 22  1  0
 24 22  2  0
M  END
$$$$
