IKS.pdb
     RDKit          3D

 24 23  0  0  1  0  0  0  0  0999 V2000
    7.0625  -12.0876   28.1634 C   0  0  0  0  0  0  0  0  0  0  0  0
    6.2816  -13.0535   27.3377 C   0  0  0  0  0  0  0  0  0  0  0  0
    7.1141  -13.7394   26.2782 C   0  0  2  0  0  0  0  0  0  0  0  0
    7.6174  -12.6806   25.3208 C   0  0  0  0  0  0  0  0  0  0  0  0
    6.3001  -14.7329   25.4816 C   0  0  2  0  0  0  0  0  0  0  0  0
    5.8546  -15.8390   26.3164 N   0  0  0  0  0  0  0  0  0  0  0  0
    7.1351  -15.2367   24.3615 C   0  0  0  0  0  0  0  0  0  0  0  0
    7.7428  -16.3283   24.4595 O   0  0  0  0  0  0  0  0  0  0  0  0
    7.2650  -14.5135   23.1775 N   0  0  0  0  0  0  0  0  0  0  0  0
    7.9331  -15.0149   21.9572 C   0  0  1  0  0  0  0  0  0  0  0  0
    7.7168  -14.0418   20.8489 C   0  0  0  0  0  0  0  0  0  0  0  0
    8.3525  -14.4826   19.5750 C   0  0  0  0  0  0  0  0  0  0  0  0
    7.9798  -13.5767   18.4081 C   0  0  0  0  0  0  0  0  0  0  0  0
    8.5212  -14.2248   17.1333 C   0  0  0  0  0  0  0  0  0  0  0  0
    8.1219  -13.4812   15.9675 N   0  0  0  0  0  0  0  0  0  0  0  0
    9.3220  -15.2341   22.3649 C   0  0  0  0  0  0  0  0  0  0  0  0
    9.9337  -14.3120   22.9605 O   0  0  0  0  0  0  0  0  0  0  0  0
   11.0396  -18.7919   23.0563 O   0  0  0  0  0  0  0  0  0  0  0  0
   11.5891  -17.5981   23.5257 C   0  0  0  0  0  0  0  0  0  0  0  0
   11.4594  -16.4993   22.5157 C   0  0  2  0  0  0  0  0  0  0  0  0
   10.0339  -16.4220   22.1401 N   0  0  0  0  0  0  0  0  0  0  0  0
   12.2746  -16.7194   21.3205 C   0  0  0  0  0  0  0  0  0  0  0  0
   11.7377  -16.8782   20.0516 O   0  0  0  0  0  0  0  0  0  0  0  0
   13.5258  -16.7710   21.4244 O   0  0  0  0  0  0  0  0  0  0  0  0
  1  2  1  0
  3  4  1  6
  3  2  1  0
  5  6  1  1
  5  3  1  0
  7  5  1  0
  8  7  2  0
  9  7  1  0
 10  9  1  0
 10 11  1  6
 11 12  1  0
 12 13  1  0
 13 14  1  0
 14 15  1  0
 16 10  1  0
 17 16  2  0
 18 19  1  0
 20 19  1  1
 20 21  1  0
 21 16  1  0
 22 20  1  0
 22 23  1  0
 24 22  2  0
M  END
$$$$
