IKS.pdb
     RDKit          3D

 24 23  0  0  1  0  0  0  0  0999 V2000
    7.0598  -11.9115   28.0249 C   0  0  0  0  0  0  0  0  0  0  0  0
    6.2619  -12.8913   27.2326 C   0  0  0  0  0  0  0  0  0  0  0  0
    7.0719  -13.5947   26.1671 C   0  0  2  0  0  0  0  0  0  0  0  0
    7.5339  -12.5554   25.1685 C   0  0  0  0  0  0  0  0  0  0  0  0
    6.2476  -14.6182   25.4205 C   0  0  2  0  0  0  0  0  0  0  0  0
    5.7909  -15.6768   26.3091 N   0  0  0  0  0  0  0  0  0  0  0  0
    7.0773  -15.1855   24.3272 C   0  0  0  0  0  0  0  0  0  0  0  0
    7.6916  -16.2660   24.4873 O   0  0  0  0  0  0  0  0  0  0  0  0
    7.1947  -14.5357   23.1001 N   0  0  0  0  0  0  0  0  0  0  0  0
    7.8822  -15.0957   21.9167 C   0  0  1  0  0  0  0  0  0  0  0  0
    7.6904  -14.1742   20.7607 C   0  0  0  0  0  0  0  0  0  0  0  0
    8.4201  -14.6309   19.5441 C   0  0  0  0  0  0  0  0  0  0  0  0
    8.1786  -13.7100   18.3546 C   0  0  0  0  0  0  0  0  0  0  0  0
    8.9080  -14.3119   17.1531 C   0  0  0  0  0  0  0  0  0  0  0  0
    8.8658  -13.4196   16.0246 N   0  0  0  0  0  0  0  0  0  0  0  0
    9.2626  -15.3009   22.3592 C   0  0  0  0  0  0  0  0  0  0  0  0
    9.8863  -14.3382   22.8722 O   0  0  0  0  0  0  0  0  0  0  0  0
   10.9562  -18.8717   23.1364 O   0  0  0  0  0  0  0  0  0  0  0  0
   11.5450  -17.6940   23.5990 C   0  0  0  0  0  0  0  0  0  0  0  0
   11.3840  -16.5761   22.6148 C   0  0  2  0  0  0  0  0  0  0  0  0
    9.9534  -16.5177   22.2556 N   0  0  0  0  0  0  0  0  0  0  0  0
   12.1904  -16.7548   21.4068 C   0  0  0  0  0  0  0  0  0  0  0  0
   13.5755  -16.8249   21.4195 O   0  0  0  0  0  0  0  0  0  0  0  0
   11.6214  -16.8519   20.2906 O   0  0  0  0  0  0  0  0  0  0  0  0
  1  2  1  0
  3  4  1  6
  3  2  1  0
  5  6  1  1
  5  3  1  0
  7  5  1  0
  8  7  2  0
  9  7  1  0
 10  9  1  0
 10 11  1  6
 11 12  1  0
 12 13  1  0
 13 14  1  0
 14 15  1  0
 16 10  1  0
 17 16  2  0
 18 19  1  0
 20 19  1  1
 20 21  1  0
 21 16  1  0
 22 20  1  0
 22 23  1  0
 24 22  2  0
M  END
$$$$
