IKS.pdb
     RDKit          3D

 24 23  0  0  1  0  0  0  0  0999 V2000
    9.0084  -13.8181   28.6674 C   0  0  0  0  0  0  0  0  0  0  0  0
    7.8472  -14.3520   27.8985 C   0  0  0  0  0  0  0  0  0  0  0  0
    8.2317  -14.8938   26.5402 C   0  0  2  0  0  0  0  0  0  0  0  0
    8.8993  -13.7790   25.7639 C   0  0  0  0  0  0  0  0  0  0  0  0
    7.0225  -15.3445   25.7535 C   0  0  2  0  0  0  0  0  0  0  0  0
    6.3700  -16.4776   26.3932 N   0  0  0  0  0  0  0  0  0  0  0  0
    7.4609  -15.7093   24.3823 C   0  0  0  0  0  0  0  0  0  0  0  0
    7.6446  -16.9088   24.0690 O   0  0  0  0  0  0  0  0  0  0  0  0
    7.6789  -14.7334   23.4117 N   0  0  0  0  0  0  0  0  0  0  0  0
    8.0772  -15.0132   22.0154 C   0  0  1  0  0  0  0  0  0  0  0  0
    7.8454  -13.7941   21.1894 C   0  0  0  0  0  0  0  0  0  0  0  0
    8.5301  -13.8660   19.8675 C   0  0  0  0  0  0  0  0  0  0  0  0
    7.5528  -13.7081   18.7094 C   0  0  0  0  0  0  0  0  0  0  0  0
    8.3333  -13.9424   17.4156 C   0  0  0  0  0  0  0  0  0  0  0  0
    7.5298  -13.6249   16.2644 N   0  0  0  0  0  0  0  0  0  0  0  0
    9.4634  -15.4733   22.1161 C   0  0  0  0  0  0  0  0  0  0  0  0
   10.2575  -14.8520   22.8661 O   0  0  0  0  0  0  0  0  0  0  0  0
   10.7320  -19.1391   20.9329 O   0  0  0  0  0  0  0  0  0  0  0  0
   11.4598  -18.4075   21.8724 C   0  0  0  0  0  0  0  0  0  0  0  0
   11.4042  -16.9380   21.5869 C   0  0  2  0  0  0  0  0  0  0  0  0
    9.9807  -16.5810   21.4277 N   0  0  0  0  0  0  0  0  0  0  0  0
   12.1467  -16.5586   20.3843 C   0  0  0  0  0  0  0  0  0  0  0  0
   13.5211  -16.6994   20.2621 O   0  0  0  0  0  0  0  0  0  0  0  0
   11.5295  -16.0791   19.4003 O   0  0  0  0  0  0  0  0  0  0  0  0
  1  2  1  0
  3  4  1  6
  3  2  1  0
  5  6  1  1
  5  3  1  0
  7  5  1  0
  8  7  2  0
  9  7  1  0
 10  9  1  0
 10 11  1  6
 11 12  1  0
 12 13  1  0
 13 14  1  0
 14 15  1  0
 16 10  1  0
 17 16  2  0
 18 19  1  0
 20 19  1  6
 20 21  1  0
 21 16  1  0
 22 20  1  0
 22 23  1  0
 24 22  2  0
M  END
$$$$
