IKS.pdb
     RDKit          3D

 24 23  0  0  1  0  0  0  0  0999 V2000
    6.7987  -11.8952   27.9742 C   0  0  0  0  0  0  0  0  0  0  0  0
    6.0752  -12.9682   27.2328 C   0  0  0  0  0  0  0  0  0  0  0  0
    6.9320  -13.6542   26.1928 C   0  0  2  0  0  0  0  0  0  0  0  0
    7.3383  -12.6198   25.1653 C   0  0  0  0  0  0  0  0  0  0  0  0
    6.1742  -14.7465   25.4738 C   0  0  2  0  0  0  0  0  0  0  0  0
    5.7881  -15.8104   26.3891 N   0  0  0  0  0  0  0  0  0  0  0  0
    7.0369  -15.2855   24.3918 C   0  0  0  0  0  0  0  0  0  0  0  0
    7.6042  -16.3955   24.5213 O   0  0  0  0  0  0  0  0  0  0  0  0
    7.2382  -14.5760   23.2095 N   0  0  0  0  0  0  0  0  0  0  0  0
    7.8920  -15.1254   22.0023 C   0  0  1  0  0  0  0  0  0  0  0  0
    7.6042  -14.2327   20.8437 C   0  0  0  0  0  0  0  0  0  0  0  0
    8.2308  -14.7205   19.5824 C   0  0  0  0  0  0  0  0  0  0  0  0
    8.1803  -13.6724   18.4778 C   0  0  0  0  0  0  0  0  0  0  0  0
    8.7704  -14.3057   17.2174 C   0  0  0  0  0  0  0  0  0  0  0  0
    8.7133  -13.3924   16.1065 N   0  0  0  0  0  0  0  0  0  0  0  0
    9.2998  -15.2630   22.3799 C   0  0  0  0  0  0  0  0  0  0  0  0
    9.8876  -14.2835   22.9034 O   0  0  0  0  0  0  0  0  0  0  0  0
   11.0901  -18.6087   23.5041 O   0  0  0  0  0  0  0  0  0  0  0  0
   11.6239  -17.3449   23.7598 C   0  0  0  0  0  0  0  0  0  0  0  0
   11.4838  -16.4395   22.5746 C   0  0  2  0  0  0  0  0  0  0  0  0
   10.0555  -16.4316   22.2017 N   0  0  0  0  0  0  0  0  0  0  0  0
   12.2914  -16.8634   21.4302 C   0  0  0  0  0  0  0  0  0  0  0  0
   11.7521  -17.1697   20.1897 O   0  0  0  0  0  0  0  0  0  0  0  0
   13.5380  -16.9619   21.5538 O   0  0  0  0  0  0  0  0  0  0  0  0
  1  2  1  0
  3  4  1  6
  3  2  1  0
  5  6  1  1
  5  3  1  0
  7  5  1  0
  8  7  2  0
  9  7  1  0
 10  9  1  0
 10 11  1  6
 11 12  1  0
 12 13  1  0
 13 14  1  0
 14 15  1  0
 16 10  1  0
 17 16  2  0
 18 19  1  0
 20 19  1  1
 20 21  1  0
 21 16  1  0
 22 20  1  0
 22 23  1  0
 24 22  2  0
M  END
$$$$
