IKS.pdb
     RDKit          3D

 24 23  0  0  1  0  0  0  0  0999 V2000
    6.8262  -11.5475   27.4017 C   0  0  0  0  0  0  0  0  0  0  0  0
    6.1717  -12.5769   26.5434 C   0  0  0  0  0  0  0  0  0  0  0  0
    7.1312  -13.6344   26.0463 C   0  0  2  0  0  0  0  0  0  0  0  0
    8.1455  -12.9603   25.1476 C   0  0  0  0  0  0  0  0  0  0  0  0
    6.4251  -14.6941   25.2322 C   0  0  2  0  0  0  0  0  0  0  0  0
    5.3669  -15.3319   26.0019 N   0  0  0  0  0  0  0  0  0  0  0  0
    7.4264  -15.7019   24.7995 C   0  0  0  0  0  0  0  0  0  0  0  0
    7.7986  -16.6080   25.5811 O   0  0  0  0  0  0  0  0  0  0  0  0
    7.9766  -15.6677   23.5197 N   0  0  0  0  0  0  0  0  0  0  0  0
    8.8339  -16.7276   22.9466 C   0  0  1  0  0  0  0  0  0  0  0  0
    8.8983  -16.5551   21.4673 C   0  0  0  0  0  0  0  0  0  0  0  0
    9.7831  -17.5626   20.8167 C   0  0  0  0  0  0  0  0  0  0  0  0
    9.7060  -17.4927   19.2967 C   0  0  0  0  0  0  0  0  0  0  0  0
   10.6152  -18.5891   18.7405 C   0  0  0  0  0  0  0  0  0  0  0  0
   10.5612  -18.6232   17.3026 N   0  0  0  0  0  0  0  0  0  0  0  0
   10.1012  -16.6028   23.6689 C   0  0  0  0  0  0  0  0  0  0  0  0
   10.6461  -15.4733   23.7504 O   0  0  0  0  0  0  0  0  0  0  0  0
   11.5106  -19.3131   26.2752 O   0  0  0  0  0  0  0  0  0  0  0  0
   12.0586  -18.0297   26.2723 C   0  0  0  0  0  0  0  0  0  0  0  0
   12.0959  -17.4516   24.8907 C   0  0  2  0  0  0  0  0  0  0  0  0
   10.7637  -17.6702   24.2934 N   0  0  0  0  0  0  0  0  0  0  0  0
   13.1235  -18.0572   24.0429 C   0  0  0  0  0  0  0  0  0  0  0  0
   14.4777  -18.0131   24.3388 O   0  0  0  0  0  0  0  0  0  0  0  0
   12.7857  -18.6523   22.9889 O   0  0  0  0  0  0  0  0  0  0  0  0
  1  2  1  0
  3  4  1  6
  3  2  1  0
  5  6  1  1
  5  3  1  0
  7  5  1  0
  8  7  2  0
  9  7  1  0
 10  9  1  0
 10 11  1  6
 11 12  1  0
 12 13  1  0
 13 14  1  0
 14 15  1  0
 16 10  1  0
 17 16  2  0
 18 19  1  0
 20 19  1  1
 20 21  1  0
 21 16  1  0
 22 20  1  0
 22 23  1  0
 24 22  2  0
M  END
$$$$
