IKS.pdb
     RDKit          3D

 24 23  0  0  1  0  0  0  0  0999 V2000
    6.9980  -11.4436   27.6211 C   0  0  0  0  0  0  0  0  0  0  0  0
    6.2753  -12.5783   26.9770 C   0  0  0  0  0  0  0  0  0  0  0  0
    7.1769  -13.4625   26.1454 C   0  0  2  0  0  0  0  0  0  0  0  0
    7.7483  -12.6236   25.0226 C   0  0  0  0  0  0  0  0  0  0  0  0
    6.4169  -14.6110   25.5230 C   0  0  2  0  0  0  0  0  0  0  0  0
    5.8666  -15.4927   26.5422 N   0  0  0  0  0  0  0  0  0  0  0  0
    7.3408  -15.3625   24.6359 C   0  0  0  0  0  0  0  0  0  0  0  0
    8.1275  -16.2154   25.1096 O   0  0  0  0  0  0  0  0  0  0  0  0
    7.3584  -15.1413   23.2602 N   0  0  0  0  0  0  0  0  0  0  0  0
    8.1305  -15.9479   22.2906 C   0  0  1  0  0  0  0  0  0  0  0  0
    7.8781  -15.4295   20.9158 C   0  0  0  0  0  0  0  0  0  0  0  0
    8.8028  -16.0214   19.9079 C   0  0  0  0  0  0  0  0  0  0  0  0
    8.1283  -17.1127   19.0862 C   0  0  0  0  0  0  0  0  0  0  0  0
    9.1858  -17.7046   18.1538 C   0  0  0  0  0  0  0  0  0  0  0  0
    8.8475  -17.4681   16.7750 N   0  0  0  0  0  0  0  0  0  0  0  0
    9.5120  -15.8699   22.7687 C   0  0  0  0  0  0  0  0  0  0  0  0
   10.0312  -14.7395   22.9463 O   0  0  0  0  0  0  0  0  0  0  0  0
   11.6243  -19.0301   24.2690 O   0  0  0  0  0  0  0  0  0  0  0  0
   12.0055  -17.7231   24.5756 C   0  0  0  0  0  0  0  0  0  0  0  0
   11.7255  -16.7884   23.4389 C   0  0  2  0  0  0  0  0  0  0  0  0
   10.3141  -16.9853   23.0535 N   0  0  0  0  0  0  0  0  0  0  0  0
   12.5909  -17.0174   22.2813 C   0  0  0  0  0  0  0  0  0  0  0  0
   13.9589  -16.7895   22.2966 O   0  0  0  0  0  0  0  0  0  0  0  0
   12.0920  -17.4416   21.2088 O   0  0  0  0  0  0  0  0  0  0  0  0
  1  2  1  0
  3  4  1  6
  3  2  1  0
  5  6  1  1
  5  3  1  0
  7  5  1  0
  8  7  2  0
  9  7  1  0
 10  9  1  0
 10 11  1  6
 11 12  1  0
 12 13  1  0
 13 14  1  0
 14 15  1  0
 16 10  1  0
 17 16  2  0
 18 19  1  0
 20 19  1  1
 20 21  1  0
 21 16  1  0
 22 20  1  0
 22 23  1  0
 24 22  2  0
M  END
$$$$
