IKS.pdb
     RDKit          3D

 24 23  0  0  1  0  0  0  0  0999 V2000
    6.6888  -10.7063   26.8428 C   0  0  0  0  0  0  0  0  0  0  0  0
    7.2352  -12.0871   26.9816 C   0  0  0  0  0  0  0  0  0  0  0  0
    6.8998  -12.9804   25.8087 C   0  0  2  0  0  0  0  0  0  0  0  0
    5.3938  -13.1144   25.7386 C   0  0  0  0  0  0  0  0  0  0  0  0
    7.4794  -14.3662   25.9755 C   0  0  2  0  0  0  0  0  0  0  0  0
    8.8106  -14.3136   26.5620 N   0  0  0  0  0  0  0  0  0  0  0  0
    7.5289  -15.0204   24.6432 C   0  0  0  0  0  0  0  0  0  0  0  0
    6.7882  -15.9977   24.3843 O   0  0  0  0  0  0  0  0  0  0  0  0
    8.3954  -14.5682   23.6500 N   0  0  0  0  0  0  0  0  0  0  0  0
    8.4273  -15.0858   22.2651 C   0  0  1  0  0  0  0  0  0  0  0  0
    8.3272  -13.9414   21.3152 C   0  0  0  0  0  0  0  0  0  0  0  0
    8.4187  -14.3755   19.8924 C   0  0  0  0  0  0  0  0  0  0  0  0
    8.0578  -13.2521   18.9287 C   0  0  0  0  0  0  0  0  0  0  0  0
    8.1958  -13.8035   17.5092 C   0  0  0  0  0  0  0  0  0  0  0  0
    7.8419  -12.8071   16.5326 N   0  0  0  0  0  0  0  0  0  0  0  0
    9.6575  -15.8767   22.1989 C   0  0  0  0  0  0  0  0  0  0  0  0
   10.3044  -15.9061   21.1221 O   0  0  0  0  0  0  0  0  0  0  0  0
   11.5667  -17.7619   25.4496 O   0  0  0  0  0  0  0  0  0  0  0  0
   12.2300  -17.1991   24.3584 C   0  0  0  0  0  0  0  0  0  0  0  0
   11.4428  -17.3611   23.0941 C   0  0  2  0  0  0  0  0  0  0  0  0
   10.1810  -16.6154   23.2707 N   0  0  0  0  0  0  0  0  0  0  0  0
   11.1506  -18.7592   22.7754 C   0  0  0  0  0  0  0  0  0  0  0  0
   12.1335  -19.7008   22.5093 O   0  0  0  0  0  0  0  0  0  0  0  0
    9.9567  -19.1491   22.7349 O   0  0  0  0  0  0  0  0  0  0  0  0
  1  2  1  0
  3  4  1  1
  3  2  1  0
  5  6  1  6
  5  3  1  0
  7  5  1  0
  8  7  2  0
  9  7  1  0
 10  9  1  0
 10 11  1  6
 11 12  1  0
 12 13  1  0
 13 14  1  0
 14 15  1  0
 16 10  1  0
 17 16  2  0
 18 19  1  0
 20 19  1  1
 20 21  1  0
 21 16  1  0
 22 20  1  0
 22 23  1  0
 24 22  2  0
M  END
$$$$
