IKS.pdb
     RDKit          3D

 24 23  0  0  1  0  0  0  0  0999 V2000
    6.0447  -12.0026   27.1267 C   0  0  0  0  0  0  0  0  0  0  0  0
    6.6814  -13.2192   27.7090 C   0  0  0  0  0  0  0  0  0  0  0  0
    7.4006  -14.0638   26.6816 C   0  0  2  0  0  0  0  0  0  0  0  0
    8.2413  -13.1423   25.8244 C   0  0  0  0  0  0  0  0  0  0  0  0
    6.4328  -14.7853   25.7722 C   0  0  2  0  0  0  0  0  0  0  0  0
    5.7737  -15.8813   26.4674 N   0  0  0  0  0  0  0  0  0  0  0  0
    7.1824  -15.2975   24.5968 C   0  0  0  0  0  0  0  0  0  0  0  0
    7.6249  -16.4699   24.5836 O   0  0  0  0  0  0  0  0  0  0  0  0
    7.4129  -14.4929   23.4826 N   0  0  0  0  0  0  0  0  0  0  0  0
    7.9587  -14.9775   22.1965 C   0  0  1  0  0  0  0  0  0  0  0  0
    7.7839  -13.9174   21.1631 C   0  0  0  0  0  0  0  0  0  0  0  0
    8.3075  -14.3323   19.8308 C   0  0  0  0  0  0  0  0  0  0  0  0
    7.7624  -13.4602   18.7068 C   0  0  0  0  0  0  0  0  0  0  0  0
    8.2179  -14.0785   17.3845 C   0  0  0  0  0  0  0  0  0  0  0  0
    7.8443  -13.2467   16.2709 N   0  0  0  0  0  0  0  0  0  0  0  0
    9.3378  -15.3595   22.5057 C   0  0  0  0  0  0  0  0  0  0  0  0
   10.0576  -14.5630   23.1589 O   0  0  0  0  0  0  0  0  0  0  0  0
   10.7595  -19.0989   22.6521 O   0  0  0  0  0  0  0  0  0  0  0  0
   11.4727  -18.0385   23.2129 C   0  0  0  0  0  0  0  0  0  0  0  0
   11.3628  -16.8000   22.3775 C   0  0  2  0  0  0  0  0  0  0  0  0
    9.9262  -16.5745   22.1236 N   0  0  0  0  0  0  0  0  0  0  0  0
   12.0800  -16.9002   21.1058 C   0  0  0  0  0  0  0  0  0  0  0  0
   13.4533  -17.0723   21.0178 O   0  0  0  0  0  0  0  0  0  0  0  0
   11.4405  -16.8295   20.0264 O   0  0  0  0  0  0  0  0  0  0  0  0
  1  2  1  0
  3  4  1  6
  3  2  1  0
  5  6  1  1
  5  3  1  0
  7  5  1  0
  8  7  2  0
  9  7  1  0
 10  9  1  0
 10 11  1  6
 11 12  1  0
 12 13  1  0
 13 14  1  0
 14 15  1  0
 16 10  1  0
 17 16  2  0
 18 19  1  0
 20 19  1  6
 20 21  1  0
 21 16  1  0
 22 20  1  0
 22 23  1  0
 24 22  2  0
M  END
$$$$
