IKS.pdb
     RDKit          3D

 24 23  0  0  1  0  0  0  0  0999 V2000
    6.7755  -11.7043   27.5068 C   0  0  0  0  0  0  0  0  0  0  0  0
    6.1208  -12.7611   26.6828 C   0  0  0  0  0  0  0  0  0  0  0  0
    7.1085  -13.6519   25.9638 C   0  0  2  0  0  0  0  0  0  0  0  0
    7.9137  -12.7885   25.0166 C   0  0  0  0  0  0  0  0  0  0  0  0
    6.4124  -14.7128   25.1427 C   0  0  2  0  0  0  0  0  0  0  0  0
    5.5737  -15.5599   25.9782 N   0  0  0  0  0  0  0  0  0  0  0  0
    7.4443  -15.5289   24.4537 C   0  0  0  0  0  0  0  0  0  0  0  0
    7.9316  -16.5418   25.0079 O   0  0  0  0  0  0  0  0  0  0  0  0
    7.8965  -15.1926   23.1793 N   0  0  0  0  0  0  0  0  0  0  0  0
    8.7459  -16.0597   22.3346 C   0  0  1  0  0  0  0  0  0  0  0  0
    8.7166  -15.5533   20.9328 C   0  0  0  0  0  0  0  0  0  0  0  0
    7.6568  -16.2087   20.1151 C   0  0  0  0  0  0  0  0  0  0  0  0
    7.8396  -17.7198   20.0494 C   0  0  0  0  0  0  0  0  0  0  0  0
    6.8304  -18.2602   19.0357 C   0  0  0  0  0  0  0  0  0  0  0  0
    6.8572  -19.6987   18.9986 N   0  0  0  0  0  0  0  0  0  0  0  0
   10.0505  -16.0519   22.9989 C   0  0  0  0  0  0  0  0  0  0  0  0
   10.6120  -14.9503   23.2236 O   0  0  0  0  0  0  0  0  0  0  0  0
   11.4677  -19.0993   25.1812 O   0  0  0  0  0  0  0  0  0  0  0  0
   12.0035  -17.8213   25.3462 C   0  0  0  0  0  0  0  0  0  0  0  0
   12.0608  -17.0778   24.0469 C   0  0  2  0  0  0  0  0  0  0  0  0
   10.7322  -17.2050   23.4160 N   0  0  0  0  0  0  0  0  0  0  0  0
   13.0900  -17.5867   23.1395 C   0  0  0  0  0  0  0  0  0  0  0  0
   14.4412  -17.6000   23.4519 O   0  0  0  0  0  0  0  0  0  0  0  0
   12.7566  -18.0393   22.0157 O   0  0  0  0  0  0  0  0  0  0  0  0
  1  2  1  0
  3  4  1  6
  3  2  1  0
  5  6  1  1
  5  3  1  0
  7  5  1  0
  8  7  2  0
  9  7  1  0
 10  9  1  0
 10 11  1  6
 11 12  1  0
 12 13  1  0
 13 14  1  0
 14 15  1  0
 16 10  1  0
 17 16  2  0
 18 19  1  0
 20 19  1  1
 20 21  1  0
 21 16  1  0
 22 20  1  0
 22 23  1  0
 24 22  2  0
M  END
$$$$
