IKS.pdb
     RDKit          3D

 24 23  0  0  1  0  0  0  0  0999 V2000
    6.5303  -11.7726   28.0036 C   0  0  0  0  0  0  0  0  0  0  0  0
    5.9537  -12.8990   27.2141 C   0  0  0  0  0  0  0  0  0  0  0  0
    6.9290  -13.4900   26.2212 C   0  0  2  0  0  0  0  0  0  0  0  0
    7.3099  -12.4047   25.2372 C   0  0  0  0  0  0  0  0  0  0  0  0
    6.3131  -14.6271   25.4390 C   0  0  2  0  0  0  0  0  0  0  0  0
    5.9822  -15.7465   26.3087 N   0  0  0  0  0  0  0  0  0  0  0  0
    7.2753  -15.0551   24.3919 C   0  0  0  0  0  0  0  0  0  0  0  0
    8.0401  -16.0285   24.5875 O   0  0  0  0  0  0  0  0  0  0  0  0
    7.3538  -14.3898   23.1699 N   0  0  0  0  0  0  0  0  0  0  0  0
    8.0937  -14.8871   21.9901 C   0  0  1  0  0  0  0  0  0  0  0  0
    7.9695  -13.8955   20.8840 C   0  0  0  0  0  0  0  0  0  0  0  0
    7.6856  -14.5423   19.5716 C   0  0  0  0  0  0  0  0  0  0  0  0
    8.3725  -13.8203   18.4192 C   0  0  0  0  0  0  0  0  0  0  0  0
    8.0260  -14.5734   17.1344 C   0  0  0  0  0  0  0  0  0  0  0  0
    8.6588  -13.9651   15.9938 N   0  0  0  0  0  0  0  0  0  0  0  0
    9.4480  -15.1371   22.4868 C   0  0  0  0  0  0  0  0  0  0  0  0
   10.0731  -14.2013   23.0458 O   0  0  0  0  0  0  0  0  0  0  0  0
   10.9652  -18.8017   23.1239 O   0  0  0  0  0  0  0  0  0  0  0  0
   11.5750  -17.7026   23.7302 C   0  0  0  0  0  0  0  0  0  0  0  0
   11.5057  -16.4861   22.8588 C   0  0  2  0  0  0  0  0  0  0  0  0
   10.1115  -16.3693   22.3877 N   0  0  0  0  0  0  0  0  0  0  0  0
   12.4117  -16.5498   21.7114 C   0  0  0  0  0  0  0  0  0  0  0  0
   13.7922  -16.6028   21.8336 O   0  0  0  0  0  0  0  0  0  0  0  0
   11.9382  -16.5581   20.5475 O   0  0  0  0  0  0  0  0  0  0  0  0
  1  2  1  0
  3  4  1  6
  3  2  1  0
  5  6  1  1
  5  3  1  0
  7  5  1  0
  8  7  2  0
  9  7  1  0
 10  9  1  0
 10 11  1  6
 11 12  1  0
 12 13  1  0
 13 14  1  0
 14 15  1  0
 16 10  1  0
 17 16  2  0
 18 19  1  0
 20 19  1  6
 20 21  1  0
 21 16  1  0
 22 20  1  0
 22 23  1  0
 24 22  2  0
M  END
$$$$
