IKS.pdb
     RDKit          3D

 24 23  0  0  1  0  0  0  0  0999 V2000
    6.6466  -11.9663   28.0401 C   0  0  0  0  0  0  0  0  0  0  0  0
    5.9818  -13.0300   27.2332 C   0  0  0  0  0  0  0  0  0  0  0  0
    6.9014  -13.6672   26.2161 C   0  0  2  0  0  0  0  0  0  0  0  0
    7.3210  -12.5980   25.2304 C   0  0  0  0  0  0  0  0  0  0  0  0
    6.2067  -14.7630   25.4409 C   0  0  2  0  0  0  0  0  0  0  0  0
    5.7927  -15.8481   26.3183 N   0  0  0  0  0  0  0  0  0  0  0  0
    7.1383  -15.2684   24.4006 C   0  0  0  0  0  0  0  0  0  0  0  0
    7.6989  -16.3814   24.5325 O   0  0  0  0  0  0  0  0  0  0  0  0
    7.4130  -14.5231   23.2556 N   0  0  0  0  0  0  0  0  0  0  0  0
    8.0842  -15.0545   22.0498 C   0  0  1  0  0  0  0  0  0  0  0  0
    7.7921  -14.1581   20.8951 C   0  0  0  0  0  0  0  0  0  0  0  0
    8.5012  -14.5818   19.6546 C   0  0  0  0  0  0  0  0  0  0  0  0
    8.1333  -13.7095   18.4609 C   0  0  0  0  0  0  0  0  0  0  0  0
    8.7469  -14.3524   17.2166 C   0  0  0  0  0  0  0  0  0  0  0  0
    8.3553  -13.6461   16.0253 N   0  0  0  0  0  0  0  0  0  0  0  0
    9.4909  -15.1738   22.4374 C   0  0  0  0  0  0  0  0  0  0  0  0
    9.9120  -14.5027   23.4128 O   0  0  0  0  0  0  0  0  0  0  0  0
   11.2556  -18.2887   23.5548 O   0  0  0  0  0  0  0  0  0  0  0  0
   11.4876  -16.9231   23.7243 C   0  0  0  0  0  0  0  0  0  0  0  0
   11.7383  -16.2419   22.4138 C   0  0  2  0  0  0  0  0  0  0  0  0
   10.4214  -16.0016   21.7914 N   0  0  0  0  0  0  0  0  0  0  0  0
   12.5767  -17.0293   21.5090 C   0  0  0  0  0  0  0  0  0  0  0  0
   13.9223  -17.2747   21.7383 O   0  0  0  0  0  0  0  0  0  0  0  0
   12.0742  -17.5175   20.4659 O   0  0  0  0  0  0  0  0  0  0  0  0
  1  2  1  0
  3  4  1  6
  3  2  1  0
  5  6  1  1
  5  3  1  0
  7  5  1  0
  8  7  2  0
  9  7  1  0
 10  9  1  0
 10 11  1  6
 11 12  1  0
 12 13  1  0
 13 14  1  0
 14 15  1  0
 16 10  1  0
 17 16  2  0
 18 19  1  0
 20 19  1  1
 20 21  1  0
 21 16  1  0
 22 20  1  0
 22 23  1  0
 24 22  2  0
M  END
$$$$
