IKS.pdb
     RDKit          3D

 24 23  0  0  1  0  0  0  0  0999 V2000
    7.1932  -11.3492   27.6518 C   0  0  0  0  0  0  0  0  0  0  0  0
    6.3899  -12.4852   27.1144 C   0  0  0  0  0  0  0  0  0  0  0  0
    7.2011  -13.4386   26.2663 C   0  0  2  0  0  0  0  0  0  0  0  0
    7.8635  -12.6378   25.1659 C   0  0  0  0  0  0  0  0  0  0  0  0
    6.3308  -14.4880   25.6138 C   0  0  2  0  0  0  0  0  0  0  0  0
    5.7462  -15.3788   26.6056 N   0  0  0  0  0  0  0  0  0  0  0  0
    7.1611  -15.2594   24.6541 C   0  0  0  0  0  0  0  0  0  0  0  0
    7.8444  -16.2355   25.0426 O   0  0  0  0  0  0  0  0  0  0  0  0
    7.2029  -14.9210   23.3030 N   0  0  0  0  0  0  0  0  0  0  0  0
    7.9343  -15.6846   22.2692 C   0  0  1  0  0  0  0  0  0  0  0  0
    7.6778  -15.0685   20.9362 C   0  0  0  0  0  0  0  0  0  0  0  0
    8.4823  -15.7030   19.8539 C   0  0  0  0  0  0  0  0  0  0  0  0
    7.9954  -17.1101   19.5311 C   0  0  0  0  0  0  0  0  0  0  0  0
    8.7930  -17.6059   18.3245 C   0  0  0  0  0  0  0  0  0  0  0  0
    8.3701  -18.9251   17.9340 N   0  0  0  0  0  0  0  0  0  0  0  0
    9.3247  -15.6810   22.7277 C   0  0  0  0  0  0  0  0  0  0  0  0
    9.8589  -14.5875   23.0408 O   0  0  0  0  0  0  0  0  0  0  0  0
   11.2439  -18.8780   24.1924 O   0  0  0  0  0  0  0  0  0  0  0  0
   11.7448  -17.5972   24.4293 C   0  0  0  0  0  0  0  0  0  0  0  0
   11.5348  -16.6985   23.2494 C   0  0  2  0  0  0  0  0  0  0  0  0
   10.1196  -16.8305   22.8504 N   0  0  0  0  0  0  0  0  0  0  0  0
   12.4007  -17.0273   22.1164 C   0  0  0  0  0  0  0  0  0  0  0  0
   13.7850  -16.9616   22.1721 O   0  0  0  0  0  0  0  0  0  0  0  0
   11.8870  -17.3898   21.0284 O   0  0  0  0  0  0  0  0  0  0  0  0
  1  2  1  0
  3  4  1  6
  3  2  1  0
  5  6  1  1
  5  3  1  0
  7  5  1  0
  8  7  2  0
  9  7  1  0
 10  9  1  0
 10 11  1  6
 11 12  1  0
 12 13  1  0
 13 14  1  0
 14 15  1  0
 16 10  1  0
 17 16  2  0
 18 19  1  0
 20 19  1  1
 20 21  1  0
 21 16  1  0
 22 20  1  0
 22 23  1  0
 24 22  2  0
M  END
$$$$
