IKS.pdb
     RDKit          3D

 24 23  0  0  1  0  0  0  0  0999 V2000
    7.1051  -11.9513   28.0643 C   0  0  0  0  0  0  0  0  0  0  0  0
    6.3203  -12.9682   27.3062 C   0  0  0  0  0  0  0  0  0  0  0  0
    7.1277  -13.6642   26.2339 C   0  0  2  0  0  0  0  0  0  0  0  0
    7.5748  -12.6202   25.2334 C   0  0  0  0  0  0  0  0  0  0  0  0
    6.3055  -14.6926   25.4918 C   0  0  2  0  0  0  0  0  0  0  0  0
    5.8694  -15.7598   26.3806 N   0  0  0  0  0  0  0  0  0  0  0  0
    7.1285  -15.2466   24.3867 C   0  0  0  0  0  0  0  0  0  0  0  0
    7.6873  -16.3621   24.5045 O   0  0  0  0  0  0  0  0  0  0  0  0
    7.3011  -14.5451   23.1951 N   0  0  0  0  0  0  0  0  0  0  0  0
    8.0764  -15.0378   22.0363 C   0  0  1  0  0  0  0  0  0  0  0  0
    7.8007  -14.1654   20.8594 C   0  0  0  0  0  0  0  0  0  0  0  0
    8.4621  -14.6605   19.6190 C   0  0  0  0  0  0  0  0  0  0  0  0
    8.1984  -13.7472   18.4283 C   0  0  0  0  0  0  0  0  0  0  0  0
    8.9438  -14.3317   17.2281 C   0  0  0  0  0  0  0  0  0  0  0  0
    8.6788  -13.5700   16.0360 N   0  0  0  0  0  0  0  0  0  0  0  0
    9.4615  -15.0682   22.5097 C   0  0  0  0  0  0  0  0  0  0  0  0
    9.7236  -14.6160   23.6525 O   0  0  0  0  0  0  0  0  0  0  0  0
   11.3624  -16.9993   24.7119 O   0  0  0  0  0  0  0  0  0  0  0  0
   11.1006  -17.2681   23.3678 C   0  0  0  0  0  0  0  0  0  0  0  0
   11.6722  -16.2099   22.4747 C   0  0  2  0  0  0  0  0  0  0  0  0
   10.5388  -15.5788   21.7701 N   0  0  0  0  0  0  0  0  0  0  0  0
   12.6287  -16.7366   21.5004 C   0  0  0  0  0  0  0  0  0  0  0  0
   13.9994  -16.7520   21.7110 O   0  0  0  0  0  0  0  0  0  0  0  0
   12.2104  -17.2036   20.4113 O   0  0  0  0  0  0  0  0  0  0  0  0
  1  2  1  0
  3  4  1  6
  3  2  1  0
  5  6  1  1
  5  3  1  0
  7  5  1  0
  8  7  2  0
  9  7  1  0
 10  9  1  0
 10 11  1  6
 11 12  1  0
 12 13  1  0
 13 14  1  0
 14 15  1  0
 16 10  1  0
 17 16  2  0
 18 19  1  0
 20 19  1  6
 20 21  1  0
 21 16  1  0
 22 20  1  0
 22 23  1  0
 24 22  2  0
M  END
$$$$
