IKS.pdb
     RDKit          3D

 24 23  0  0  1  0  0  0  0  0999 V2000
    7.8597  -11.5661   20.5669 C   0  0  0  0  0  0  0  0  0  0  0  0
    7.5969  -12.9263   20.0144 C   0  0  0  0  0  0  0  0  0  0  0  0
    7.9667  -14.0381   20.9700 C   0  0  2  0  0  0  0  0  0  0  0  0
    9.4604  -13.9743   21.2061 C   0  0  0  0  0  0  0  0  0  0  0  0
    7.6477  -15.3996   20.3966 C   0  0  2  0  0  0  0  0  0  0  0  0
    6.2276  -15.5284   20.1036 N   0  0  0  0  0  0  0  0  0  0  0  0
    8.0675  -16.4342   21.3759 C   0  0  0  0  0  0  0  0  0  0  0  0
    7.3543  -16.6962   22.3725 O   0  0  0  0  0  0  0  0  0  0  0  0
    9.2593  -17.1380   21.2144 N   0  0  0  0  0  0  0  0  0  0  0  0
    9.6470  -18.3243   22.0075 C   0  0  1  0  0  0  0  0  0  0  0  0
   10.2401  -19.3456   21.0978 C   0  0  0  0  0  0  0  0  0  0  0  0
   10.6628  -20.5759   21.8251 C   0  0  0  0  0  0  0  0  0  0  0  0
   11.2517  -21.6203   20.8851 C   0  0  0  0  0  0  0  0  0  0  0  0
   11.5865  -22.8547   21.7231 C   0  0  0  0  0  0  0  0  0  0  0  0
   10.3894  -23.5477   22.1209 N   0  0  0  0  0  0  0  0  0  0  0  0
   10.5288  -17.7950   23.0494 C   0  0  0  0  0  0  0  0  0  0  0  0
   11.3498  -16.8919   22.7503 O   0  0  0  0  0  0  0  0  0  0  0  0
    9.8498  -18.1175   27.0123 O   0  0  0  0  0  0  0  0  0  0  0  0
   10.7165  -17.1459   26.5101 C   0  0  0  0  0  0  0  0  0  0  0  0
   11.4961  -17.6583   25.3380 C   0  0  2  0  0  0  0  0  0  0  0  0
   10.5224  -18.2258   24.3846 N   0  0  0  0  0  0  0  0  0  0  0  0
   12.4805  -18.6771   25.7048 C   0  0  0  0  0  0  0  0  0  0  0  0
   12.4248  -19.9871   25.2527 O   0  0  0  0  0  0  0  0  0  0  0  0
   13.4327  -18.3732   26.4664 O   0  0  0  0  0  0  0  0  0  0  0  0
  1  2  1  0
  3  4  1  6
  3  2  1  0
  5  6  1  1
  5  3  1  0
  7  5  1  0
  8  7  2  0
  9  7  1  0
 10  9  1  0
 10 11  1  6
 11 12  1  0
 12 13  1  0
 13 14  1  0
 14 15  1  0
 16 10  1  0
 17 16  2  0
 18 19  1  0
 20 19  1  1
 20 21  1  0
 21 16  1  0
 22 20  1  0
 22 23  1  0
 24 22  2  0
M  END
$$$$
