IKS.pdb
     RDKit          3D

 24 23  0  0  1  0  0  0  0  0999 V2000
    7.0132  -11.9306   28.1597 C   0  0  0  0  0  0  0  0  0  0  0  0
    6.2730  -12.9554   27.3681 C   0  0  0  0  0  0  0  0  0  0  0  0
    7.1417  -13.6660   26.3550 C   0  0  2  0  0  0  0  0  0  0  0  0
    7.6609  -12.6332   25.3778 C   0  0  0  0  0  0  0  0  0  0  0  0
    6.3604  -14.6936   25.5690 C   0  0  2  0  0  0  0  0  0  0  0  0
    5.9345  -15.7954   26.4196 N   0  0  0  0  0  0  0  0  0  0  0  0
    7.2183  -15.1962   24.4659 C   0  0  0  0  0  0  0  0  0  0  0  0
    7.8684  -16.2597   24.5970 O   0  0  0  0  0  0  0  0  0  0  0  0
    7.3236  -14.5031   23.2617 N   0  0  0  0  0  0  0  0  0  0  0  0
    7.9565  -15.0395   22.0375 C   0  0  1  0  0  0  0  0  0  0  0  0
    7.6861  -14.1114   20.9028 C   0  0  0  0  0  0  0  0  0  0  0  0
    8.2717  -14.5967   19.6211 C   0  0  0  0  0  0  0  0  0  0  0  0
    7.8914  -13.7046   18.4461 C   0  0  0  0  0  0  0  0  0  0  0  0
    8.4048  -14.3789   17.1734 C   0  0  0  0  0  0  0  0  0  0  0  0
    7.9321  -13.6926   15.9999 N   0  0  0  0  0  0  0  0  0  0  0  0
    9.3621  -15.2230   22.4033 C   0  0  0  0  0  0  0  0  0  0  0  0
    9.9951  -14.2534   22.8914 O   0  0  0  0  0  0  0  0  0  0  0  0
   11.0047  -18.8256   22.9650 O   0  0  0  0  0  0  0  0  0  0  0  0
   11.6192  -17.7123   23.5397 C   0  0  0  0  0  0  0  0  0  0  0  0
   11.4813  -16.4994   22.6713 C   0  0  2  0  0  0  0  0  0  0  0  0
   10.0681  -16.4258   22.2510 N   0  0  0  0  0  0  0  0  0  0  0  0
   12.3468  -16.5368   21.4919 C   0  0  0  0  0  0  0  0  0  0  0  0
   11.8624  -16.5521   20.1924 O   0  0  0  0  0  0  0  0  0  0  0  0
   13.5946  -16.5566   21.6392 O   0  0  0  0  0  0  0  0  0  0  0  0
  1  2  1  0
  3  4  1  6
  3  2  1  0
  5  6  1  1
  5  3  1  0
  7  5  1  0
  8  7  2  0
  9  7  1  0
 10  9  1  0
 10 11  1  6
 11 12  1  0
 12 13  1  0
 13 14  1  0
 14 15  1  0
 16 10  1  0
 17 16  2  0
 18 19  1  0
 20 19  1  6
 20 21  1  0
 21 16  1  0
 22 20  1  0
 22 23  1  0
 24 22  2  0
M  END
$$$$
