IKS.pdb
     RDKit          3D

 24 23  0  0  1  0  0  0  0  0999 V2000
    7.0626  -12.2535   28.1047 C   0  0  0  0  0  0  0  0  0  0  0  0
    6.2672  -13.1815   27.2497 C   0  0  0  0  0  0  0  0  0  0  0  0
    7.0853  -13.8323   26.1574 C   0  0  2  0  0  0  0  0  0  0  0  0
    7.6112  -12.7389   25.2524 C   0  0  0  0  0  0  0  0  0  0  0  0
    6.2506  -14.7683   25.3138 C   0  0  2  0  0  0  0  0  0  0  0  0
    5.7573  -15.8888   26.1011 N   0  0  0  0  0  0  0  0  0  0  0  0
    7.0845  -15.2580   24.1867 C   0  0  0  0  0  0  0  0  0  0  0  0
    7.6461  -16.3768   24.2476 O   0  0  0  0  0  0  0  0  0  0  0  0
    7.2645  -14.4914   23.0371 N   0  0  0  0  0  0  0  0  0  0  0  0
    7.9319  -14.9684   21.8067 C   0  0  1  0  0  0  0  0  0  0  0  0
    7.7881  -13.9343   20.7426 C   0  0  0  0  0  0  0  0  0  0  0  0
    8.5362  -14.2881   19.5031 C   0  0  0  0  0  0  0  0  0  0  0  0
    7.8010  -13.8412   18.2458 C   0  0  0  0  0  0  0  0  0  0  0  0
    8.6298  -14.2956   17.0439 C   0  0  0  0  0  0  0  0  0  0  0  0
    8.1361  -13.7088   15.8259 N   0  0  0  0  0  0  0  0  0  0  0  0
    9.2992  -15.2773   22.2291 C   0  0  0  0  0  0  0  0  0  0  0  0
    9.9083  -14.4594   22.9635 O   0  0  0  0  0  0  0  0  0  0  0  0
   10.9608  -18.8422   22.8073 O   0  0  0  0  0  0  0  0  0  0  0  0
   11.5368  -17.6488   23.2449 C   0  0  0  0  0  0  0  0  0  0  0  0
   11.4240  -16.5723   22.2092 C   0  0  2  0  0  0  0  0  0  0  0  0
    9.9925  -16.4436   21.8721 N   0  0  0  0  0  0  0  0  0  0  0  0
   12.1935  -16.8587   20.9978 C   0  0  0  0  0  0  0  0  0  0  0  0
   13.5756  -16.9735   20.9833 O   0  0  0  0  0  0  0  0  0  0  0  0
   11.5937  -17.0121   19.9044 O   0  0  0  0  0  0  0  0  0  0  0  0
  1  2  1  0
  3  4  1  6
  3  2  1  0
  5  6  1  1
  5  3  1  0
  7  5  1  0
  8  7  2  0
  9  7  1  0
 10  9  1  0
 10 11  1  6
 11 12  1  0
 12 13  1  0
 13 14  1  0
 14 15  1  0
 16 10  1  0
 17 16  2  0
 18 19  1  0
 20 19  1  1
 20 21  1  0
 21 16  1  0
 22 20  1  0
 22 23  1  0
 24 22  2  0
M  END
$$$$
