NTA.pdb
     RDKit          3D

 21 20  0  0  1  0  0  0  0  0999 V2000
   11.8107  -18.6453   14.7356 N   0  0  0  0  0  0  0  0  0  0  0  0
   10.8899  -18.4677   15.7869 C   0  0  0  0  0  0  0  0  0  0  0  0
    9.9049  -19.2323   15.9334 O   0  0  0  0  0  0  0  0  0  0  0  0
   11.1002  -17.3425   16.7416 C   0  0  0  0  0  0  0  0  0  0  0  0
    9.8872  -16.4142   16.7305 C   0  0  2  0  0  0  0  0  0  0  0  0
    9.9565  -15.6273   15.5159 N   0  0  0  0  0  0  0  0  0  0  0  0
    9.9468  -15.5854   17.9433 C   0  0  0  0  0  0  0  0  0  0  0  0
   10.8482  -14.7366   18.1635 O   0  0  0  0  0  0  0  0  0  0  0  0
    7.5933  -13.0843   18.9268 C   0  0  0  0  0  0  0  0  0  0  0  0
    7.6129  -14.0961   20.0263 C   0  0  1  0  0  0  0  0  0  0  0  0
    6.4694  -14.8814   19.9923 O   0  0  0  0  0  0  0  0  0  0  0  0
    8.8767  -14.8965   20.1055 C   0  0  2  0  0  0  0  0  0  0  0  0
    8.9362  -15.7402   18.9320 N   0  0  0  0  0  0  0  0  0  0  0  0
    9.0585  -15.6612   21.3244 C   0  0  0  0  0  0  0  0  0  0  0  0
    8.8303  -16.8992   21.2799 O   0  0  0  0  0  0  0  0  0  0  0  0
   10.3152  -15.2770   24.8688 C   0  0  0  0  0  0  0  0  0  0  0  0
    9.5290  -15.9600   23.7570 C   0  0  2  0  0  0  0  0  0  0  0  0
    9.4719  -15.1479   22.5733 N   0  0  0  0  0  0  0  0  0  0  0  0
    8.2315  -16.3917   24.2540 C   0  0  0  0  0  0  0  0  0  0  0  0
    8.1313  -17.4034   25.1854 O   0  0  0  0  0  0  0  0  0  0  0  0
    7.1868  -15.8472   23.8399 O   0  0  0  0  0  0  0  0  0  0  0  0
  1  2  1  0
  2  3  2  0
  4  2  1  0
  4  5  1  0
  5  6  1  6
  7  5  1  0
  7 13  1  0
  8  7  2  0
 10  9  1  6
 10 12  1  0
 10 11  1  0
 12 13  1  6
 12 14  1  0
 14 15  2  0
 17 16  1  1
 17 19  1  0
 18 14  1  0
 18 17  1  0
 19 20  1  0
 21 19  2  0
M  END
$$$$
