NTA.pdb
     RDKit          3D

 21 20  0  0  1  0  0  0  0  0999 V2000
   13.3309  -16.0796   18.9177 N   0  0  0  0  0  0  0  0  0  0  0  0
   13.5054  -14.9432   19.7318 C   0  0  0  0  0  0  0  0  0  0  0  0
   14.6485  -14.5226   20.0363 O   0  0  0  0  0  0  0  0  0  0  0  0
   12.2973  -14.2315   20.2376 C   0  0  0  0  0  0  0  0  0  0  0  0
   11.0361  -14.9980   19.8436 C   0  0  2  0  0  0  0  0  0  0  0  0
   10.8344  -14.7967   18.4231 N   0  0  0  0  0  0  0  0  0  0  0  0
    9.9241  -14.4749   20.6506 C   0  0  0  0  0  0  0  0  0  0  0  0
    9.3038  -13.4154   20.3784 O   0  0  0  0  0  0  0  0  0  0  0  0
    6.7144  -15.9410   21.1500 C   0  0  0  0  0  0  0  0  0  0  0  0
    7.3326  -15.8278   22.5057 C   0  0  1  0  0  0  0  0  0  0  0  0
    7.7486  -17.0706   22.9619 O   0  0  0  0  0  0  0  0  0  0  0  0
    8.3918  -14.7741   22.6147 C   0  0  2  0  0  0  0  0  0  0  0  0
    9.5150  -15.1956   21.8064 N   0  0  0  0  0  0  0  0  0  0  0  0
    8.8009  -14.4341   23.9639 C   0  0  0  0  0  0  0  0  0  0  0  0
    9.8984  -14.8933   24.3776 O   0  0  0  0  0  0  0  0  0  0  0  0
    7.6927  -12.3108   26.9001 C   0  0  0  0  0  0  0  0  0  0  0  0
    8.5558  -13.3526   26.1996 C   0  0  2  0  0  0  0  0  0  0  0  0
    8.0803  -13.6279   24.8722 N   0  0  0  0  0  0  0  0  0  0  0  0
    8.7029  -14.5293   27.0426 C   0  0  0  0  0  0  0  0  0  0  0  0
    8.2843  -15.7687   26.6072 O   0  0  0  0  0  0  0  0  0  0  0  0
    9.2133  -14.4294   28.1779 O   0  0  0  0  0  0  0  0  0  0  0  0
  1  2  1  0
  2  3  2  0
  4  2  1  0
  4  5  1  0
  5  6  1  6
  7  5  1  0
  7 13  1  0
  8  7  2  0
 10  9  1  6
 10 12  1  0
 10 11  1  0
 12 13  1  6
 12 14  1  0
 14 15  2  0
 17 16  1  1
 17 19  1  0
 18 14  1  0
 18 17  1  0
 19 20  1  0
 21 19  2  0
M  END
$$$$
