NTA.pdb
     RDKit          3D

 21 20  0  0  1  0  0  0  0  0999 V2000
   11.3934  -20.4591   16.9940 N   0  0  0  0  0  0  0  0  0  0  0  0
   10.1981  -19.7137   17.0090 C   0  0  0  0  0  0  0  0  0  0  0  0
    9.4240  -19.6939   16.0207 O   0  0  0  0  0  0  0  0  0  0  0  0
    9.8547  -18.9343   18.2323 C   0  0  0  0  0  0  0  0  0  0  0  0
    9.2874  -17.5711   17.8412 C   0  0  2  0  0  0  0  0  0  0  0  0
    9.8922  -17.1975   16.5787 N   0  0  0  0  0  0  0  0  0  0  0  0
    9.6079  -16.6265   18.9211 C   0  0  0  0  0  0  0  0  0  0  0  0
   10.6636  -15.9442   18.9596 O   0  0  0  0  0  0  0  0  0  0  0  0
    7.2997  -13.8735   20.3367 C   0  0  0  0  0  0  0  0  0  0  0  0
    7.7051  -14.8291   21.4117 C   0  0  1  0  0  0  0  0  0  0  0  0
    6.6395  -15.6396   21.7766 O   0  0  0  0  0  0  0  0  0  0  0  0
    8.9564  -15.5972   21.1146 C   0  0  2  0  0  0  0  0  0  0  0  0
    8.6828  -16.4636   19.9890 N   0  0  0  0  0  0  0  0  0  0  0  0
    9.5207  -16.3315   22.2307 C   0  0  0  0  0  0  0  0  0  0  0  0
    9.2696  -17.5633   22.3096 O   0  0  0  0  0  0  0  0  0  0  0  0
   12.2640  -16.2710   24.6833 C   0  0  0  0  0  0  0  0  0  0  0  0
   10.8112  -16.5870   24.3514 C   0  0  2  0  0  0  0  0  0  0  0  0
   10.3351  -15.7945   23.2518 N   0  0  0  0  0  0  0  0  0  0  0  0
    9.9940  -16.5031   25.5522 C   0  0  0  0  0  0  0  0  0  0  0  0
   10.2611  -17.2975   26.6470 O   0  0  0  0  0  0  0  0  0  0  0  0
    9.0348  -15.7053   25.6054 O   0  0  0  0  0  0  0  0  0  0  0  0
  1  2  1  0
  2  3  2  0
  4  2  1  0
  4  5  1  0
  5  6  1  6
  7  5  1  0
  7 13  1  0
  8  7  2  0
 10  9  1  6
 10 12  1  0
 10 11  1  0
 12 13  1  6
 12 14  1  0
 14 15  2  0
 17 16  1  1
 17 19  1  0
 18 14  1  0
 18 17  1  0
 19 20  1  0
 21 19  2  0
M  END
$$$$
