NTA.pdb
     RDKit          3D

 21 20  0  0  1  0  0  0  0  0999 V2000
   13.2125  -16.6619   13.1221 N   0  0  0  0  0  0  0  0  0  0  0  0
   11.9674  -16.4468   12.4992 C   0  0  0  0  0  0  0  0  0  0  0  0
   11.8330  -16.5300   11.2536 O   0  0  0  0  0  0  0  0  0  0  0  0
   10.7890  -16.1132   13.3488 C   0  0  0  0  0  0  0  0  0  0  0  0
   11.2281  -15.9210   14.7991 C   0  0  2  0  0  0  0  0  0  0  0  0
   11.6766  -17.2087   15.2890 N   0  0  0  0  0  0  0  0  0  0  0  0
   10.0759  -15.4022   15.5505 C   0  0  0  0  0  0  0  0  0  0  0  0
    9.4825  -14.3310   15.2643 O   0  0  0  0  0  0  0  0  0  0  0  0
    7.1446  -17.6381   16.4608 C   0  0  0  0  0  0  0  0  0  0  0  0
    7.5963  -16.9220   17.6921 C   0  0  1  0  0  0  0  0  0  0  0  0
    8.1740  -17.8067   18.5916 O   0  0  0  0  0  0  0  0  0  0  0  0
    8.4408  -15.7132   17.4280 C   0  0  2  0  0  0  0  0  0  0  0  0
    9.5934  -16.1411   16.6658 N   0  0  0  0  0  0  0  0  0  0  0  0
    8.8267  -14.9504   18.5995 C   0  0  0  0  0  0  0  0  0  0  0  0
    9.9342  -15.2192   19.1360 O   0  0  0  0  0  0  0  0  0  0  0  0
    7.5702  -12.1404   20.8098 C   0  0  0  0  0  0  0  0  0  0  0  0
    8.4381  -13.3456   20.4708 C   0  0  2  0  0  0  0  0  0  0  0  0
    8.0732  -13.9218   19.2064 N   0  0  0  0  0  0  0  0  0  0  0  0
    8.4449  -14.2856   21.5813 C   0  0  0  0  0  0  0  0  0  0  0  0
    9.1300  -14.0028   22.7439 O   0  0  0  0  0  0  0  0  0  0  0  0
    7.8260  -15.3667   21.4936 O   0  0  0  0  0  0  0  0  0  0  0  0
  1  2  1  0
  2  3  2  0
  4  2  1  0
  4  5  1  0
  5  6  1  1
  7  5  1  0
  7 13  1  0
  8  7  2  0
 10  9  1  6
 10 12  1  0
 10 11  1  0
 12 13  1  1
 12 14  1  0
 14 15  2  0
 17 16  1  1
 17 19  1  0
 18 14  1  0
 18 17  1  0
 19 20  1  0
 21 19  2  0
M  END
$$$$
