NTA.pdb
     RDKit          3D

 21 20  0  0  1  0  0  0  0  0999 V2000
   18.1204  -18.8795   18.6366 N   0  0  0  0  0  0  0  0  0  0  0  0
   16.7320  -19.0738   18.4981 C   0  0  0  0  0  0  0  0  0  0  0  0
   16.2636  -20.1120   17.9699 O   0  0  0  0  0  0  0  0  0  0  0  0
   15.8071  -18.0152   18.9938 C   0  0  0  0  0  0  0  0  0  0  0  0
   14.4969  -18.0571   18.2096 C   0  0  2  0  0  0  0  0  0  0  0  0
   14.7556  -17.4822   16.9051 N   0  0  0  0  0  0  0  0  0  0  0  0
   13.4949  -17.2977   18.9715 C   0  0  0  0  0  0  0  0  0  0  0  0
   13.4599  -16.0414   19.0179 O   0  0  0  0  0  0  0  0  0  0  0  0
    9.8487  -17.9999   18.5662 C   0  0  0  0  0  0  0  0  0  0  0  0
   10.1485  -18.0076   20.0301 C   0  0  1  0  0  0  0  0  0  0  0  0
   10.0370  -19.2900   20.5482 O   0  0  0  0  0  0  0  0  0  0  0  0
   11.4327  -17.3309   20.4003 C   0  0  2  0  0  0  0  0  0  0  0  0
   12.5031  -18.0085   19.7022 N   0  0  0  0  0  0  0  0  0  0  0  0
   11.7004  -17.2300   21.8221 C   0  0  0  0  0  0  0  0  0  0  0  0
   12.6105  -17.9573   22.3008 O   0  0  0  0  0  0  0  0  0  0  0  0
   10.6263  -15.2617   24.8732 C   0  0  0  0  0  0  0  0  0  0  0  0
   11.2856  -16.4284   24.1488 C   0  0  2  0  0  0  0  0  0  0  0  0
   11.0324  -16.3851   22.7354 N   0  0  0  0  0  0  0  0  0  0  0  0
   10.9216  -17.6840   24.7875 C   0  0  0  0  0  0  0  0  0  0  0  0
   11.4321  -18.0241   26.0222 O   0  0  0  0  0  0  0  0  0  0  0  0
   10.1372  -18.4733   24.2207 O   0  0  0  0  0  0  0  0  0  0  0  0
  1  2  1  0
  2  3  2  0
  4  2  1  0
  4  5  1  0
  5  6  1  6
  7  5  1  0
  7 13  1  0
  8  7  2  0
 10  9  1  6
 10 12  1  0
 10 11  1  0
 12 13  1  6
 12 14  1  0
 14 15  2  0
 17 16  1  1
 17 19  1  0
 18 14  1  0
 18 17  1  0
 19 20  1  0
 21 19  2  0
M  END
$$$$
