NTA.pdb
     RDKit          3D

 21 20  0  0  1  0  0  0  0  0999 V2000
   15.1369  -17.5076   19.7142 N   0  0  0  0  0  0  0  0  0  0  0  0
   13.7374  -17.3535   19.6675 C   0  0  0  0  0  0  0  0  0  0  0  0
   13.0079  -18.1637   19.0448 O   0  0  0  0  0  0  0  0  0  0  0  0
   13.1194  -16.1978   20.3776 C   0  0  0  0  0  0  0  0  0  0  0  0
   12.2426  -15.4006   19.4139 C   0  0  2  0  0  0  0  0  0  0  0  0
   13.1249  -14.6070   18.5828 N   0  0  0  0  0  0  0  0  0  0  0  0
   11.3309  -14.5739   20.2181 C   0  0  0  0  0  0  0  0  0  0  0  0
   11.6843  -13.5239   20.8131 O   0  0  0  0  0  0  0  0  0  0  0  0
    8.0267  -13.0616   19.0353 C   0  0  0  0  0  0  0  0  0  0  0  0
    7.8079  -13.9952   20.1813 C   0  0  1  0  0  0  0  0  0  0  0  0
    7.2656  -15.1946   19.7421 O   0  0  0  0  0  0  0  0  0  0  0  0
    9.0031  -14.1767   21.0660 C   0  0  2  0  0  0  0  0  0  0  0  0
    9.9704  -14.9701   20.3397 N   0  0  0  0  0  0  0  0  0  0  0  0
    8.7327  -14.7316   22.3784 C   0  0  0  0  0  0  0  0  0  0  0  0
    9.1000  -15.9156   22.6018 O   0  0  0  0  0  0  0  0  0  0  0  0
    7.0909  -13.7802   25.6628 C   0  0  0  0  0  0  0  0  0  0  0  0
    7.8121  -14.7127   24.6979 C   0  0  2  0  0  0  0  0  0  0  0  0
    8.0897  -14.0664   23.4452 N   0  0  0  0  0  0  0  0  0  0  0  0
    7.0871  -15.9686   24.5798 C   0  0  0  0  0  0  0  0  0  0  0  0
    7.0133  -16.8457   25.6410 O   0  0  0  0  0  0  0  0  0  0  0  0
    6.5196  -16.2685   23.5086 O   0  0  0  0  0  0  0  0  0  0  0  0
  1  2  1  0
  2  3  2  0
  4  2  1  0
  4  5  1  0
  5  6  1  1
  7  5  1  0
  7 13  1  0
  8  7  2  0
 10  9  1  6
 10 12  1  0
 10 11  1  0
 12 13  1  6
 12 14  1  0
 14 15  2  0
 17 16  1  1
 17 19  1  0
 18 14  1  0
 18 17  1  0
 19 20  1  0
 21 19  2  0
M  END
$$$$
