NTA.pdb
     RDKit          3D

 21 20  0  0  1  0  0  0  0  0999 V2000
   12.3536  -21.3373   20.4890 N   0  0  0  0  0  0  0  0  0  0  0  0
   12.7338  -20.2099   19.7348 C   0  0  0  0  0  0  0  0  0  0  0  0
   13.2806  -20.3257   18.6105 O   0  0  0  0  0  0  0  0  0  0  0  0
   12.4760  -18.8527   20.2947 C   0  0  0  0  0  0  0  0  0  0  0  0
   11.4215  -18.1332   19.4560 C   0  0  2  0  0  0  0  0  0  0  0  0
   12.0660  -17.6951   18.2345 N   0  0  0  0  0  0  0  0  0  0  0  0
   10.9040  -17.0119   20.2536 C   0  0  0  0  0  0  0  0  0  0  0  0
   11.6303  -16.1040   20.7329 O   0  0  0  0  0  0  0  0  0  0  0  0
    6.8274  -14.5685   21.6200 C   0  0  0  0  0  0  0  0  0  0  0  0
    7.5736  -15.5877   20.8218 C   0  0  1  0  0  0  0  0  0  0  0  0
    7.5784  -15.2510   19.4757 O   0  0  0  0  0  0  0  0  0  0  0  0
    8.9359  -15.9116   21.3542 C   0  0  2  0  0  0  0  0  0  0  0  0
    9.5064  -16.9354   20.5063 N   0  0  0  0  0  0  0  0  0  0  0  0
    8.9887  -16.2855   22.7545 C   0  0  0  0  0  0  0  0  0  0  0  0
    8.9287  -17.5115   23.0371 O   0  0  0  0  0  0  0  0  0  0  0  0
    9.1600  -14.6859   26.1896 C   0  0  0  0  0  0  0  0  0  0  0  0
    9.0282  -15.8456   25.2107 C   0  0  2  0  0  0  0  0  0  0  0  0
    9.1024  -15.3986   23.8474 N   0  0  0  0  0  0  0  0  0  0  0  0
    7.8444  -16.6318   25.5229 C   0  0  0  0  0  0  0  0  0  0  0  0
    7.8976  -17.6559   26.4444 O   0  0  0  0  0  0  0  0  0  0  0  0
    6.7592  -16.3863   24.9558 O   0  0  0  0  0  0  0  0  0  0  0  0
  1  2  1  0
  2  3  2  0
  4  2  1  0
  4  5  1  0
  5  6  1  6
  7  5  1  0
  7 13  1  0
  8  7  2  0
 10  9  1  1
 10 12  1  0
 10 11  1  0
 12 13  1  6
 12 14  1  0
 14 15  2  0
 17 16  1  1
 17 19  1  0
 18 14  1  0
 18 17  1  0
 19 20  1  0
 21 19  2  0
M  END
$$$$
