NTA.pdb
     RDKit          3D

 21 20  0  0  1  0  0  0  0  0999 V2000
   14.5199  -16.3225   17.5612 N   0  0  0  0  0  0  0  0  0  0  0  0
   14.5235  -14.9189   17.6812 C   0  0  0  0  0  0  0  0  0  0  0  0
   15.4115  -14.2156   17.1396 O   0  0  0  0  0  0  0  0  0  0  0  0
   13.4429  -14.2642   18.4720 C   0  0  0  0  0  0  0  0  0  0  0  0
   12.5534  -15.3243   19.1189 C   0  0  2  0  0  0  0  0  0  0  0  0
   11.8069  -15.9683   18.0572 N   0  0  0  0  0  0  0  0  0  0  0  0
   11.6821  -14.6459   20.0893 C   0  0  0  0  0  0  0  0  0  0  0  0
   12.1109  -13.9203   21.0227 O   0  0  0  0  0  0  0  0  0  0  0  0
    8.3252  -12.8316   18.9708 C   0  0  0  0  0  0  0  0  0  0  0  0
    8.1167  -13.8139   20.0774 C   0  0  1  0  0  0  0  0  0  0  0  0
    7.4606  -14.9453   19.6137 O   0  0  0  0  0  0  0  0  0  0  0  0
    9.3523  -14.1287   20.8638 C   0  0  2  0  0  0  0  0  0  0  0  0
   10.2735  -14.8091   19.9801 N   0  0  0  0  0  0  0  0  0  0  0  0
    9.1413  -14.8710   22.0917 C   0  0  0  0  0  0  0  0  0  0  0  0
    9.4360  -16.0956   22.0950 O   0  0  0  0  0  0  0  0  0  0  0  0
    7.9892  -14.3587   25.6639 C   0  0  0  0  0  0  0  0  0  0  0  0
    8.3193  -15.1845   24.4271 C   0  0  2  0  0  0  0  0  0  0  0  0
    8.6311  -14.3492   23.3007 N   0  0  0  0  0  0  0  0  0  0  0  0
    7.2675  -16.1592   24.1810 C   0  0  0  0  0  0  0  0  0  0  0  0
    7.0403  -17.1935   25.0640 O   0  0  0  0  0  0  0  0  0  0  0  0
    6.5538  -16.0697   23.1602 O   0  0  0  0  0  0  0  0  0  0  0  0
  1  2  1  0
  2  3  2  0
  4  2  1  0
  4  5  1  0
  5  6  1  6
  7  5  1  0
  7 13  1  0
  8  7  2  0
 10  9  1  6
 10 12  1  0
 10 11  1  0
 12 13  1  6
 12 14  1  0
 14 15  2  0
 17 16  1  1
 17 19  1  0
 18 14  1  0
 18 17  1  0
 19 20  1  0
 21 19  2  0
M  END
$$$$
