NTA.pdb
     RDKit          3D

 21 20  0  0  1  0  0  0  0  0999 V2000
    8.9740  -15.5033   13.8675 N   0  0  0  0  0  0  0  0  0  0  0  0
    9.3730  -16.0471   15.1042 C   0  0  0  0  0  0  0  0  0  0  0  0
    9.8938  -17.1868   15.1833 O   0  0  0  0  0  0  0  0  0  0  0  0
    9.1673  -15.2414   16.3413 C   0  0  0  0  0  0  0  0  0  0  0  0
    9.6725  -16.0141   17.5582 C   0  0  2  0  0  0  0  0  0  0  0  0
    8.8854  -17.2265   17.6574 N   0  0  0  0  0  0  0  0  0  0  0  0
    9.5205  -15.1456   18.7346 C   0  0  0  0  0  0  0  0  0  0  0  0
   10.1462  -14.0657   18.8889 O   0  0  0  0  0  0  0  0  0  0  0  0
    6.5307  -13.5236   20.1471 C   0  0  0  0  0  0  0  0  0  0  0  0
    7.0773  -14.4329   21.1995 C   0  0  1  0  0  0  0  0  0  0  0  0
    6.2490  -15.5317   21.3786 O   0  0  0  0  0  0  0  0  0  0  0  0
    8.5162  -14.8032   21.0082 C   0  0  2  0  0  0  0  0  0  0  0  0
    8.6196  -15.5342   19.7642 N   0  0  0  0  0  0  0  0  0  0  0  0
    9.1284  -15.5260   22.1064 C   0  0  0  0  0  0  0  0  0  0  0  0
    9.5752  -16.6802   21.8725 O   0  0  0  0  0  0  0  0  0  0  0  0
   10.0189  -15.0811   25.7635 C   0  0  0  0  0  0  0  0  0  0  0  0
    9.8140  -15.8762   24.4803 C   0  0  2  0  0  0  0  0  0  0  0  0
    9.2753  -15.0570   23.4303 N   0  0  0  0  0  0  0  0  0  0  0  0
    9.0482  -17.0822   24.7560 C   0  0  0  0  0  0  0  0  0  0  0  0
    9.5825  -18.1019   25.5148 O   0  0  0  0  0  0  0  0  0  0  0  0
    7.8904  -17.2084   24.3054 O   0  0  0  0  0  0  0  0  0  0  0  0
  1  2  1  0
  2  3  2  0
  4  2  1  0
  4  5  1  0
  5  6  1  1
  7  5  1  0
  7 13  1  0
  8  7  2  0
 10  9  1  6
 10 12  1  0
 10 11  1  0
 12 13  1  6
 12 14  1  0
 14 15  2  0
 17 16  1  1
 17 19  1  0
 18 14  1  0
 18 17  1  0
 19 20  1  0
 21 19  2  0
M  END
$$$$
