NTA.pdb
     RDKit          3D

 21 20  0  0  1  0  0  0  0  0999 V2000
   15.5077  -15.4342   17.9012 N   0  0  0  0  0  0  0  0  0  0  0  0
   14.3864  -15.9118   18.6076 C   0  0  0  0  0  0  0  0  0  0  0  0
   14.1579  -17.1409   18.7237 O   0  0  0  0  0  0  0  0  0  0  0  0
   13.4562  -14.9256   19.2274 C   0  0  0  0  0  0  0  0  0  0  0  0
   12.0133  -15.2653   18.8591 C   0  0  2  0  0  0  0  0  0  0  0  0
   11.8594  -15.0161   17.4402 N   0  0  0  0  0  0  0  0  0  0  0  0
   11.1317  -14.4212   19.6786 C   0  0  0  0  0  0  0  0  0  0  0  0
   11.3502  -13.2047   19.9106 O   0  0  0  0  0  0  0  0  0  0  0  0
    7.8981  -13.1155   19.1160 C   0  0  0  0  0  0  0  0  0  0  0  0
    7.7806  -14.0540   20.2728 C   0  0  1  0  0  0  0  0  0  0  0  0
    7.2155  -15.2571   19.8747 O   0  0  0  0  0  0  0  0  0  0  0  0
    9.0448  -14.2268   21.0578 C   0  0  2  0  0  0  0  0  0  0  0  0
    9.9626  -14.9974   20.2478 N   0  0  0  0  0  0  0  0  0  0  0  0
    8.8874  -14.7998   22.3808 C   0  0  0  0  0  0  0  0  0  0  0  0
    9.2512  -15.9938   22.5500 O   0  0  0  0  0  0  0  0  0  0  0  0
    7.4847  -13.9002   25.7880 C   0  0  0  0  0  0  0  0  0  0  0  0
    8.1015  -14.8282   24.7492 C   0  0  2  0  0  0  0  0  0  0  0  0
    8.3593  -14.1424   23.5135 N   0  0  0  0  0  0  0  0  0  0  0  0
    7.2962  -16.0322   24.6129 C   0  0  0  0  0  0  0  0  0  0  0  0
    7.3290  -17.0185   25.5758 O   0  0  0  0  0  0  0  0  0  0  0  0
    6.5610  -16.1872   23.6154 O   0  0  0  0  0  0  0  0  0  0  0  0
  1  2  1  0
  2  3  2  0
  4  2  1  0
  4  5  1  0
  5  6  1  6
  7  5  1  0
  7 13  1  0
  8  7  2  0
 10  9  1  6
 10 12  1  0
 10 11  1  0
 12 13  1  6
 12 14  1  0
 14 15  2  0
 17 16  1  1
 17 19  1  0
 18 14  1  0
 18 17  1  0
 19 20  1  0
 21 19  2  0
M  END
$$$$
