NTA.pdb
     RDKit          3D

 21 20  0  0  1  0  0  0  0  0999 V2000
   15.0807  -17.4141   15.6788 N   0  0  0  0  0  0  0  0  0  0  0  0
   13.7533  -17.0110   15.9237 C   0  0  0  0  0  0  0  0  0  0  0  0
   12.8619  -17.1178   15.0459 O   0  0  0  0  0  0  0  0  0  0  0  0
   13.4106  -16.4459   17.2597 C   0  0  0  0  0  0  0  0  0  0  0  0
   12.7875  -15.0608   17.0971 C   0  0  2  0  0  0  0  0  0  0  0  0
   13.8153  -14.1833   16.5747 N   0  0  0  0  0  0  0  0  0  0  0  0
   12.2976  -14.6329   18.4154 C   0  0  0  0  0  0  0  0  0  0  0  0
   13.0279  -14.1046   19.2924 O   0  0  0  0  0  0  0  0  0  0  0  0
    9.0843  -12.5306   18.9374 C   0  0  0  0  0  0  0  0  0  0  0  0
    9.0301  -13.7919   19.7369 C   0  0  1  0  0  0  0  0  0  0  0  0
    8.1149  -14.6809   19.1914 O   0  0  0  0  0  0  0  0  0  0  0  0
   10.3678  -14.4112   20.0036 C   0  0  2  0  0  0  0  0  0  0  0  0
   10.9237  -14.8198   18.7321 N   0  0  0  0  0  0  0  0  0  0  0  0
   10.3750  -15.4972   20.9648 C   0  0  0  0  0  0  0  0  0  0  0  0
   10.5483  -16.6659   20.5283 O   0  0  0  0  0  0  0  0  0  0  0  0
   11.5983  -17.1869   23.2337 C   0  0  0  0  0  0  0  0  0  0  0  0
   10.2360  -16.5051   23.2436 C   0  0  2  0  0  0  0  0  0  0  0  0
   10.2048  -15.3720   22.3610 N   0  0  0  0  0  0  0  0  0  0  0  0
    9.8318  -16.2147   24.6107 C   0  0  0  0  0  0  0  0  0  0  0  0
    9.7665  -17.2152   25.5572 O   0  0  0  0  0  0  0  0  0  0  0  0
    9.5372  -15.0481   24.9448 O   0  0  0  0  0  0  0  0  0  0  0  0
  1  2  1  0
  2  3  2  0
  4  2  1  0
  4  5  1  0
  5  6  1  1
  7  5  1  0
  7 13  1  0
  8  7  2  0
 10  9  1  6
 10 12  1  0
 10 11  1  0
 12 13  1  6
 12 14  1  0
 14 15  2  0
 17 16  1  1
 17 19  1  0
 18 14  1  0
 18 17  1  0
 19 20  1  0
 21 19  2  0
M  END
$$$$
