NTA.pdb
     RDKit          3D

 21 20  0  0  1  0  0  0  0  0999 V2000
    9.9672  -21.1935   15.7519 N   0  0  0  0  0  0  0  0  0  0  0  0
    9.4439  -19.8859   15.7822 C   0  0  0  0  0  0  0  0  0  0  0  0
    9.8909  -18.9821   15.0340 O   0  0  0  0  0  0  0  0  0  0  0  0
    8.3338  -19.5798   16.7286 C   0  0  0  0  0  0  0  0  0  0  0  0
    8.6275  -18.2803   17.4758 C   0  0  2  0  0  0  0  0  0  0  0  0
    9.5670  -17.5235   16.6735 N   0  0  0  0  0  0  0  0  0  0  0  0
    9.1709  -18.6356   18.7949 C   0  0  0  0  0  0  0  0  0  0  0  0
    8.5709  -19.3699   19.6208 O   0  0  0  0  0  0  0  0  0  0  0  0
   12.4583  -20.2841   19.2996 C   0  0  0  0  0  0  0  0  0  0  0  0
   12.4491  -19.0172   20.0919 C   0  0  1  0  0  0  0  0  0  0  0  0
   13.2660  -18.0627   19.5027 O   0  0  0  0  0  0  0  0  0  0  0  0
   11.0802  -18.5030   20.4172 C   0  0  2  0  0  0  0  0  0  0  0  0
   10.4448  -18.1286   19.1728 N   0  0  0  0  0  0  0  0  0  0  0  0
   11.0295  -17.4277   21.3891 C   0  0  0  0  0  0  0  0  0  0  0  0
   10.8933  -16.2524   20.9570 O   0  0  0  0  0  0  0  0  0  0  0  0
    9.7461  -15.8570   23.8765 C   0  0  0  0  0  0  0  0  0  0  0  0
   11.1393  -16.4406   23.6785 C   0  0  2  0  0  0  0  0  0  0  0  0
   11.1188  -17.5702   22.7911 N   0  0  0  0  0  0  0  0  0  0  0  0
   11.7613  -16.6992   24.9681 C   0  0  0  0  0  0  0  0  0  0  0  0
   12.1406  -17.9750   25.3278 O   0  0  0  0  0  0  0  0  0  0  0  0
   11.9601  -15.7622   25.7693 O   0  0  0  0  0  0  0  0  0  0  0  0
  1  2  1  0
  2  3  2  0
  4  2  1  0
  4  5  1  0
  5  6  1  6
  7  5  1  0
  7 13  1  0
  8  7  2  0
 10  9  1  6
 10 12  1  0
 10 11  1  0
 12 13  1  6
 12 14  1  0
 14 15  2  0
 17 16  1  1
 17 19  1  0
 18 14  1  0
 18 17  1  0
 19 20  1  0
 21 19  2  0
M  END
$$$$
