NTA.pdb
     RDKit          3D

 21 20  0  0  1  0  0  0  0  0999 V2000
    8.6767  -19.0278   14.3413 N   0  0  0  0  0  0  0  0  0  0  0  0
    9.5181  -18.3197   15.2217 C   0  0  0  0  0  0  0  0  0  0  0  0
   10.7669  -18.4414   15.1770 O   0  0  0  0  0  0  0  0  0  0  0  0
    8.9001  -17.4074   16.2255 C   0  0  0  0  0  0  0  0  0  0  0  0
    9.5919  -17.5724   17.5773 C   0  0  2  0  0  0  0  0  0  0  0  0
    9.6329  -18.9905   17.8714 N   0  0  0  0  0  0  0  0  0  0  0  0
    8.8196  -16.8126   18.5710 C   0  0  0  0  0  0  0  0  0  0  0  0
    8.4820  -15.6106   18.4204 O   0  0  0  0  0  0  0  0  0  0  0  0
    5.5237  -17.7613   19.9132 C   0  0  0  0  0  0  0  0  0  0  0  0
    6.4427  -17.5993   21.0803 C   0  0  1  0  0  0  0  0  0  0  0  0
    6.7353  -18.8301   21.6504 O   0  0  0  0  0  0  0  0  0  0  0  0
    7.6613  -16.7756   20.7963 C   0  0  2  0  0  0  0  0  0  0  0  0
    8.4245  -17.4587   19.7749 N   0  0  0  0  0  0  0  0  0  0  0  0
    8.4799  -16.4501   21.9484 C   0  0  0  0  0  0  0  0  0  0  0  0
    9.6037  -17.0103   22.0468 O   0  0  0  0  0  0  0  0  0  0  0  0
    8.5406  -14.1880   24.9766 C   0  0  0  0  0  0  0  0  0  0  0  0
    8.9152  -15.4355   24.1865 C   0  0  2  0  0  0  0  0  0  0  0  0
    8.1367  -15.5546   22.9850 N   0  0  0  0  0  0  0  0  0  0  0  0
    8.8730  -16.6059   25.0498 C   0  0  0  0  0  0  0  0  0  0  0  0
    9.8204  -16.7944   26.0335 O   0  0  0  0  0  0  0  0  0  0  0  0
    7.9720  -17.4589   24.9086 O   0  0  0  0  0  0  0  0  0  0  0  0
  1  2  1  0
  2  3  2  0
  4  2  1  0
  4  5  1  0
  5  6  1  1
  7  5  1  0
  7 13  1  0
  8  7  2  0
 10  9  1  6
 10 12  1  0
 10 11  1  0
 12 13  1  6
 12 14  1  0
 14 15  2  0
 17 16  1  1
 17 19  1  0
 18 14  1  0
 18 17  1  0
 19 20  1  0
 21 19  2  0
M  END
$$$$
