LHT.pdb
     RDKit          3D

 26 26  0  0  1  0  0  0  0  0999 V2000
   21.8041  -15.7601  -20.3543 C   0  0  0  0  0  0  0  0  0  0  0  0
   22.2638  -15.0108  -19.1254 C   0  0  1  0  0  0  0  0  0  0  0  0
   23.7576  -14.8642  -19.1101 C   0  0  0  0  0  0  0  0  0  0  0  0
   21.5556  -13.6764  -19.0053 C   0  0  0  0  0  0  0  0  0  0  0  0
   22.0424  -12.8895  -17.8044 C   0  0  2  0  0  0  0  0  0  0  0  0
   21.9529  -13.7559  -16.6586 N   0  0  0  0  0  0  0  0  0  0  0  0
   21.1863  -11.7194  -17.6133 C   0  0  0  0  0  0  0  0  0  0  0  0
   20.9760  -10.9277  -18.5606 O   0  0  0  0  0  0  0  0  0  0  0  0
   20.5923  -11.4800  -16.3518 N   0  0  0  0  0  0  0  0  0  0  0  0
   19.6389  -10.4172  -16.1096 C   0  0  1  0  0  0  0  0  0  0  0  0
   18.3251  -10.9037  -15.5882 C   0  0  0  0  0  0  0  0  0  0  0  0
   17.6339  -11.8881  -16.4084 C   0  0  0  0  0  0  0  0  0  0  0  0
   17.4179  -13.2205  -16.2560 C   0  0  0  0  0  0  0  0  0  0  0  0
   16.7156  -13.6867  -17.3021 N   0  0  0  0  0  0  0  0  0  0  0  0
   16.4765  -12.6637  -18.1295 C   0  0  0  0  0  0  0  0  0  0  0  0
   17.0289  -11.5735  -17.5953 N   0  0  0  0  0  0  0  0  0  0  0  0
   20.2413   -9.3304  -15.3155 C   0  0  0  0  0  0  0  0  0  0  0  0
   20.7197   -9.5950  -14.1841 O   0  0  0  0  0  0  0  0  0  0  0  0
   22.9501   -7.0823  -16.2996 C   0  0  0  0  0  0  0  0  0  0  0  0
   21.8201   -6.1636  -15.8891 C   0  0  1  0  0  0  0  0  0  0  0  0
   21.1790   -5.7785  -17.0883 O   0  0  0  0  0  0  0  0  0  0  0  0
   20.8344   -6.8989  -15.0001 C   0  0  2  0  0  0  0  0  0  0  0  0
   20.3023   -7.9912  -15.7824 N   0  0  0  0  0  0  0  0  0  0  0  0
   19.8073   -6.0203  -14.4496 C   0  0  0  0  0  0  0  0  0  0  0  0
   20.1036   -5.0026  -13.5587 O   0  0  0  0  0  0  0  0  0  0  0  0
   18.6058   -6.1704  -14.7782 O   0  0  0  0  0  0  0  0  0  0  0  0
  2  1  1  6
  2  4  1  0
  2  3  1  0
  4  5  1  0
  5  6  1  1
  7  9  1  0
  7  5  1  0
  8  7  2  0
 10  9  1  0
 11 12  1  0
 10 11  1  1
 12 16  1  0
 12 13  2  0
 13 14  1  0
 15 14  1  0
 16 15  2  0
 17 23  1  0
 17 10  1  0
 18 17  2  0
 20 19  1  6
 20 22  1  0
 21 20  1  0
 22 23  1  6
 22 24  1  0
 24 25  1  0
 26 24  2  0
M  END
$$$$
