LHT.pdb
     RDKit          3D

 26 26  0  0  1  0  0  0  0  0999 V2000
   17.9698   -9.6677  -23.0773 C   0  0  0  0  0  0  0  0  0  0  0  0
   19.2562   -9.1948  -22.4412 C   0  0  1  0  0  0  0  0  0  0  0  0
   19.6936   -7.8810  -23.0206 C   0  0  0  0  0  0  0  0  0  0  0  0
   19.1291   -9.1417  -20.9320 C   0  0  0  0  0  0  0  0  0  0  0  0
   20.3829   -8.5890  -20.2831 C   0  0  2  0  0  0  0  0  0  0  0  0
   21.4192   -9.5749  -20.4427 N   0  0  0  0  0  0  0  0  0  0  0  0
   20.1297   -8.3568  -18.8616 C   0  0  0  0  0  0  0  0  0  0  0  0
   19.0405   -7.8671  -18.4845 O   0  0  0  0  0  0  0  0  0  0  0  0
   21.1203   -8.6869  -17.9069 N   0  0  0  0  0  0  0  0  0  0  0  0
   20.9447   -8.5028  -16.4812 C   0  0  1  0  0  0  0  0  0  0  0  0
   21.0502   -9.7727  -15.6998 C   0  0  0  0  0  0  0  0  0  0  0  0
   19.8981  -10.6608  -15.7596 C   0  0  0  0  0  0  0  0  0  0  0  0
   18.6905  -10.5570  -16.3729 C   0  0  0  0  0  0  0  0  0  0  0  0
   17.9616  -11.6579  -16.1239 N   0  0  0  0  0  0  0  0  0  0  0  0
   18.6909  -12.4721  -15.3537 C   0  0  0  0  0  0  0  0  0  0  0  0
   19.8626  -11.8755  -15.1296 N   0  0  0  0  0  0  0  0  0  0  0  0
   21.7932   -7.4077  -15.9759 C   0  0  0  0  0  0  0  0  0  0  0  0
   23.0292   -7.4411  -16.1999 O   0  0  0  0  0  0  0  0  0  0  0  0
   21.5048   -3.9641  -16.7936 C   0  0  0  0  0  0  0  0  0  0  0  0
   21.4929   -3.9455  -15.2807 C   0  0  1  0  0  0  0  0  0  0  0  0
   20.1342   -3.8440  -14.9052 O   0  0  0  0  0  0  0  0  0  0  0  0
   22.0768   -5.2331  -14.7293 C   0  0  2  0  0  0  0  0  0  0  0  0
   21.2651   -6.3124  -15.2434 N   0  0  0  0  0  0  0  0  0  0  0  0
   22.1848   -5.2256  -13.2740 C   0  0  0  0  0  0  0  0  0  0  0  0
   22.9864   -4.3230  -12.5958 O   0  0  0  0  0  0  0  0  0  0  0  0
   21.5394   -6.0552  -12.5888 O   0  0  0  0  0  0  0  0  0  0  0  0
  2  1  1  6
  2  4  1  0
  2  3  1  0
  4  5  1  0
  5  6  1  1
  7  9  1  0
  7  5  1  0
  8  7  2  0
 10  9  1  0
 11 12  1  0
 10 11  1  1
 12 16  1  0
 12 13  2  0
 13 14  1  0
 15 14  1  0
 16 15  2  0
 17 23  1  0
 17 10  1  0
 18 17  2  0
 20 19  1  6
 20 22  1  0
 21 20  1  0
 22 23  1  1
 22 24  1  0
 24 25  1  0
 26 24  2  0
M  END
$$$$
