LHT.pdb
     RDKit          3D

 26 26  0  0  1  0  0  0  0  0999 V2000
   30.8421  -28.6349  -23.6290 C   0  0  0  0  0  0  0  0  0  0  0  0
   30.4886  -27.5171  -22.6759 C   0  0  1  0  0  0  0  0  0  0  0  0
   29.2404  -26.8082  -23.1147 C   0  0  0  0  0  0  0  0  0  0  0  0
   30.3875  -28.0276  -21.2525 C   0  0  0  0  0  0  0  0  0  0  0  0
   29.8831  -26.9552  -20.3070 C   0  0  2  0  0  0  0  0  0  0  0  0
   30.9952  -26.0940  -20.0021 N   0  0  0  0  0  0  0  0  0  0  0  0
   29.3882  -27.5836  -19.0827 C   0  0  0  0  0  0  0  0  0  0  0  0
   30.1896  -27.9705  -18.2015 O   0  0  0  0  0  0  0  0  0  0  0  0
   27.9969  -27.7557  -18.8923 N   0  0  0  0  0  0  0  0  0  0  0  0
   27.4180  -28.2640  -17.6660 C   0  0  1  0  0  0  0  0  0  0  0  0
   26.2214  -27.4936  -17.2089 C   0  0  0  0  0  0  0  0  0  0  0  0
   26.4517  -26.1001  -16.8555 C   0  0  0  0  0  0  0  0  0  0  0  0
   27.5769  -25.3411  -16.8018 C   0  0  0  0  0  0  0  0  0  0  0  0
   27.2622  -24.0941  -16.4133 N   0  0  0  0  0  0  0  0  0  0  0  0
   25.9407  -24.0428  -16.2156 C   0  0  0  0  0  0  0  0  0  0  0  0
   25.4445  -25.2522  -16.4811 N   0  0  0  0  0  0  0  0  0  0  0  0
   27.2090  -29.7219  -17.7387 C   0  0  0  0  0  0  0  0  0  0  0  0
   26.8055  -30.2271  -18.8162 O   0  0  0  0  0  0  0  0  0  0  0  0
   29.7175  -32.2307  -16.9986 C   0  0  0  0  0  0  0  0  0  0  0  0
   28.5328  -32.6407  -16.1514 C   0  0  1  0  0  0  0  0  0  0  0  0
   28.7969  -32.1496  -14.8528 O   0  0  0  0  0  0  0  0  0  0  0  0
   27.2577  -32.0121  -16.6821 C   0  0  2  0  0  0  0  0  0  0  0  0
   27.4474  -30.5804  -16.6335 N   0  0  0  0  0  0  0  0  0  0  0  0
   26.0666  -32.4678  -15.9727 C   0  0  0  0  0  0  0  0  0  0  0  0
   25.2859  -31.6138  -15.2121 O   0  0  0  0  0  0  0  0  0  0  0  0
   25.7149  -33.6705  -16.0370 O   0  0  0  0  0  0  0  0  0  0  0  0
  2  1  1  6
  2  4  1  0
  2  3  1  0
  4  5  1  0
  5  6  1  1
  7  9  1  0
  7  5  1  0
  8  7  2  0
 10  9  1  0
 11 12  1  0
 10 11  1  6
 12 16  1  0
 12 13  2  0
 13 14  1  0
 15 14  1  0
 16 15  2  0
 17 23  1  0
 17 10  1  0
 18 17  2  0
 20 19  1  6
 20 22  1  0
 21 20  1  0
 22 23  1  1
 22 24  1  0
 24 25  1  0
 26 24  2  0
M  END
$$$$
