LHT.pdb
     RDKit          3D

 26 26  0  0  1  0  0  0  0  0999 V2000
   30.9711  -22.9693  -18.5612 C   0  0  0  0  0  0  0  0  0  0  0  0
   29.7683  -23.5814  -17.8818 C   0  0  1  0  0  0  0  0  0  0  0  0
   29.9585  -25.0555  -17.6730 C   0  0  0  0  0  0  0  0  0  0  0  0
   29.4455  -22.8564  -16.5906 C   0  0  0  0  0  0  0  0  0  0  0  0
   28.2147  -23.4314  -15.9177 C   0  0  2  0  0  0  0  0  0  0  0  0
   27.5543  -24.2747  -16.8790 N   0  0  0  0  0  0  0  0  0  0  0  0
   27.3272  -22.3397  -15.5185 C   0  0  0  0  0  0  0  0  0  0  0  0
   27.7388  -21.4366  -14.7548 O   0  0  0  0  0  0  0  0  0  0  0  0
   25.9964  -22.3032  -15.9975 N   0  0  0  0  0  0  0  0  0  0  0  0
   25.0624  -21.2451  -15.6733 C   0  0  1  0  0  0  0  0  0  0  0  0
   24.3500  -20.6939  -16.8663 C   0  0  0  0  0  0  0  0  0  0  0  0
   23.3886  -19.6321  -16.6060 C   0  0  0  0  0  0  0  0  0  0  0  0
   23.0331  -18.9740  -15.4722 C   0  0  0  0  0  0  0  0  0  0  0  0
   22.0851  -18.0653  -15.7560 N   0  0  0  0  0  0  0  0  0  0  0  0
   21.8260  -18.1322  -17.0661 C   0  0  0  0  0  0  0  0  0  0  0  0
   22.6106  -19.0774  -17.5861 N   0  0  0  0  0  0  0  0  0  0  0  0
   24.1732  -21.6391  -14.5648 C   0  0  0  0  0  0  0  0  0  0  0  0
   23.5836  -22.7473  -14.6206 O   0  0  0  0  0  0  0  0  0  0  0  0
   25.0582  -21.5492  -10.9734 C   0  0  0  0  0  0  0  0  0  0  0  0
   23.7392  -20.8134  -11.0640 C   0  0  1  0  0  0  0  0  0  0  0  0
   24.0603  -19.4374  -11.0335 O   0  0  0  0  0  0  0  0  0  0  0  0
   23.0367  -21.1417  -12.3684 C   0  0  2  0  0  0  0  0  0  0  0  0
   23.9572  -20.8111  -13.4321 N   0  0  0  0  0  0  0  0  0  0  0  0
   21.7403  -20.4828  -12.4921 C   0  0  0  0  0  0  0  0  0  0  0  0
   20.6967  -20.7323  -11.6171 O   0  0  0  0  0  0  0  0  0  0  0  0
   21.5374  -19.6571  -13.4147 O   0  0  0  0  0  0  0  0  0  0  0  0
  2  1  1  1
  2  4  1  0
  2  3  1  0
  4  5  1  0
  5  6  1  6
  7  9  1  0
  7  5  1  0
  8  7  2  0
 10  9  1  0
 11 12  1  0
 10 11  1  6
 12 16  1  0
 12 13  2  0
 13 14  1  0
 15 14  1  0
 16 15  2  0
 17 23  1  0
 17 10  1  0
 18 17  2  0
 20 19  1  6
 20 22  1  0
 21 20  1  0
 22 23  1  6
 22 24  1  0
 24 25  1  0
 26 24  2  0
M  END
$$$$
