LHT.pdb
     RDKit          3D

 26 26  0  0  1  0  0  0  0  0999 V2000
   26.4286  -20.6593  -20.9201 C   0  0  0  0  0  0  0  0  0  0  0  0
   26.2587  -19.6244  -19.8324 C   0  0  1  0  0  0  0  0  0  0  0  0
   26.0174  -18.2627  -20.4161 C   0  0  0  0  0  0  0  0  0  0  0  0
   25.1709  -20.0318  -18.8592 C   0  0  0  0  0  0  0  0  0  0  0  0
   24.9921  -19.0064  -17.7570 C   0  0  2  0  0  0  0  0  0  0  0  0
   26.2929  -18.4696  -17.4549 N   0  0  0  0  0  0  0  0  0  0  0  0
   24.4350  -19.6604  -16.5735 C   0  0  0  0  0  0  0  0  0  0  0  0
   23.3929  -20.3492  -16.6627 O   0  0  0  0  0  0  0  0  0  0  0  0
   25.0764  -19.5145  -15.3209 N   0  0  0  0  0  0  0  0  0  0  0  0
   24.5572  -20.0749  -14.0906 C   0  0  1  0  0  0  0  0  0  0  0  0
   25.4754  -19.9015  -12.9237 C   0  0  0  0  0  0  0  0  0  0  0  0
   24.9754  -20.3684  -11.6386 C   0  0  0  0  0  0  0  0  0  0  0  0
   23.8027  -20.9425  -11.2640 C   0  0  0  0  0  0  0  0  0  0  0  0
   23.8243  -21.1938   -9.9444 N   0  0  0  0  0  0  0  0  0  0  0  0
   25.0036  -20.7856   -9.4642 C   0  0  0  0  0  0  0  0  0  0  0  0
   25.7044  -20.2856  -10.4831 N   0  0  0  0  0  0  0  0  0  0  0  0
   23.1729  -19.6304  -13.8440 C   0  0  0  0  0  0  0  0  0  0  0  0
   22.9149  -18.4008  -13.8629 O   0  0  0  0  0  0  0  0  0  0  0  0
   20.0610  -21.5267  -15.3273 C   0  0  0  0  0  0  0  0  0  0  0  0
   20.0807  -20.1306  -14.7443 C   0  0  1  0  0  0  0  0  0  0  0  0
   18.7268  -19.7480  -14.6096 O   0  0  0  0  0  0  0  0  0  0  0  0
   20.7451  -20.1343  -13.3801 C   0  0  2  0  0  0  0  0  0  0  0  0
   22.1161  -20.5423  -13.5854 N   0  0  0  0  0  0  0  0  0  0  0  0
   20.0311  -20.9551  -12.4073 C   0  0  0  0  0  0  0  0  0  0  0  0
   18.7337  -20.6752  -12.0129 O   0  0  0  0  0  0  0  0  0  0  0  0
   20.5889  -21.9552  -11.8946 O   0  0  0  0  0  0  0  0  0  0  0  0
  2  1  1  6
  2  4  1  0
  2  3  1  0
  4  5  1  0
  5  6  1  1
  7  9  1  0
  7  5  1  0
  8  7  2  0
 10  9  1  0
 11 12  1  0
 10 11  1  1
 12 16  1  0
 12 13  2  0
 13 14  1  0
 15 14  1  0
 16 15  2  0
 17 23  1  0
 17 10  1  0
 18 17  2  0
 20 19  1  1
 20 22  1  0
 21 20  1  0
 22 23  1  6
 22 24  1  0
 24 25  1  0
 26 24  2  0
M  END
$$$$
