LHT.pdb
     RDKit          3D

 26 26  0  0  1  0  0  0  0  0999 V2000
   25.6832  -15.6071  -20.3055 C   0  0  0  0  0  0  0  0  0  0  0  0
   26.4316  -16.6742  -19.5412 C   0  0  1  0  0  0  0  0  0  0  0  0
   27.3698  -16.0639  -18.5411 C   0  0  0  0  0  0  0  0  0  0  0  0
   25.4730  -17.6585  -18.9016 C   0  0  0  0  0  0  0  0  0  0  0  0
   26.2013  -18.6698  -18.0384 C   0  0  2  0  0  0  0  0  0  0  0  0
   26.9480  -19.5281  -18.9201 N   0  0  0  0  0  0  0  0  0  0  0  0
   25.2245  -19.4560  -17.2858 C   0  0  0  0  0  0  0  0  0  0  0  0
   24.6359  -20.4198  -17.8270 O   0  0  0  0  0  0  0  0  0  0  0  0
   24.9427  -19.1263  -15.9391 N   0  0  0  0  0  0  0  0  0  0  0  0
   24.0323  -19.8858  -15.1073 C   0  0  1  0  0  0  0  0  0  0  0  0
   24.6428  -20.3449  -13.8224 C   0  0  0  0  0  0  0  0  0  0  0  0
   25.8201  -21.1935  -13.9382 C   0  0  0  0  0  0  0  0  0  0  0  0
   25.9753  -22.5398  -14.0308 C   0  0  0  0  0  0  0  0  0  0  0  0
   27.2821  -22.8386  -14.1192 N   0  0  0  0  0  0  0  0  0  0  0  0
   27.9722  -21.6938  -14.0844 C   0  0  0  0  0  0  0  0  0  0  0  0
   27.0945  -20.6953  -13.9751 N   0  0  0  0  0  0  0  0  0  0  0  0
   22.7434  -19.1868  -14.9505 C   0  0  0  0  0  0  0  0  0  0  0  0
   22.7007  -18.1322  -14.2687 O   0  0  0  0  0  0  0  0  0  0  0  0
   20.7387  -17.6266  -17.3603 C   0  0  0  0  0  0  0  0  0  0  0  0
   19.7743  -18.6103  -16.7345 C   0  0  1  0  0  0  0  0  0  0  0  0
   19.7588  -19.7351  -17.5901 O   0  0  0  0  0  0  0  0  0  0  0  0
   20.2591  -19.0264  -15.3580 C   0  0  2  0  0  0  0  0  0  0  0  0
   21.5439  -19.6614  -15.5431 N   0  0  0  0  0  0  0  0  0  0  0  0
   19.2933  -19.8586  -14.6477 C   0  0  0  0  0  0  0  0  0  0  0  0
   18.0756  -19.3680  -14.2077 O   0  0  0  0  0  0  0  0  0  0  0  0
   19.5500  -21.0644  -14.4144 O   0  0  0  0  0  0  0  0  0  0  0  0
  2  1  1  1
  2  4  1  0
  2  3  1  0
  4  5  1  0
  5  6  1  6
  7  9  1  0
  7  5  1  0
  8  7  2  0
 10  9  1  0
 11 12  1  0
 10 11  1  1
 12 16  1  0
 12 13  2  0
 13 14  1  0
 15 14  1  0
 16 15  2  0
 17 23  1  0
 17 10  1  0
 18 17  2  0
 20 19  1  6
 20 22  1  0
 21 20  1  0
 22 23  1  6
 22 24  1  0
 24 25  1  0
 26 24  2  0
M  END
$$$$
