LHT.pdb
     RDKit          3D

 26 26  0  0  1  0  0  0  0  0999 V2000
   23.9347  -32.8313   -7.2879 C   0  0  0  0  0  0  0  0  0  0  0  0
   25.3160  -33.1268   -7.8244 C   0  0  1  0  0  0  0  0  0  0  0  0
   26.0577  -31.8589   -8.1331 C   0  0  0  0  0  0  0  0  0  0  0  0
   26.0862  -34.0255   -6.8779 C   0  0  0  0  0  0  0  0  0  0  0  0
   27.4526  -34.3812   -7.4302 C   0  0  2  0  0  0  0  0  0  0  0  0
   27.2459  -35.2375   -8.5684 N   0  0  0  0  0  0  0  0  0  0  0  0
   28.2191  -35.0894   -6.4056 C   0  0  0  0  0  0  0  0  0  0  0  0
   28.2096  -36.3408   -6.3603 O   0  0  0  0  0  0  0  0  0  0  0  0
   28.9755  -34.3571   -5.4604 N   0  0  0  0  0  0  0  0  0  0  0  0
   29.7537  -34.9794   -4.4095 C   0  0  1  0  0  0  0  0  0  0  0  0
   31.1915  -34.5704   -4.4121 C   0  0  0  0  0  0  0  0  0  0  0  0
   32.0883  -35.3821   -5.2225 C   0  0  0  0  0  0  0  0  0  0  0  0
   31.9233  -36.5660   -5.8677 C   0  0  0  0  0  0  0  0  0  0  0  0
   33.0662  -36.9058   -6.4868 N   0  0  0  0  0  0  0  0  0  0  0  0
   33.9685  -35.9488   -6.2456 C   0  0  0  0  0  0  0  0  0  0  0  0
   33.3839  -35.0246   -5.4819 N   0  0  0  0  0  0  0  0  0  0  0  0
   29.0875  -34.8449   -3.1009 C   0  0  0  0  0  0  0  0  0  0  0  0
   28.8911  -33.6957   -2.6320 O   0  0  0  0  0  0  0  0  0  0  0  0
   25.9307  -36.7789   -1.8798 C   0  0  0  0  0  0  0  0  0  0  0  0
   27.0668  -36.9870   -0.9024 C   0  0  1  0  0  0  0  0  0  0  0  0
   27.6683  -38.2140   -1.2632 O   0  0  0  0  0  0  0  0  0  0  0  0
   28.0842  -35.8678   -1.0248 C   0  0  2  0  0  0  0  0  0  0  0  0
   28.6573  -35.9684   -2.3475 N   0  0  0  0  0  0  0  0  0  0  0  0
   29.0767  -35.8884    0.0449 C   0  0  0  0  0  0  0  0  0  0  0  0
   28.7409  -35.6717    1.3706 O   0  0  0  0  0  0  0  0  0  0  0  0
   30.2838  -36.1078   -0.2180 O   0  0  0  0  0  0  0  0  0  0  0  0
  2  1  1  1
  2  4  1  0
  2  3  1  0
  4  5  1  0
  5  6  1  6
  7  9  1  0
  7  5  1  0
  8  7  2  0
 10  9  1  0
 11 12  1  0
 10 11  1  1
 12 16  1  0
 12 13  2  0
 13 14  1  0
 15 14  1  0
 16 15  2  0
 17 23  1  0
 17 10  1  0
 18 17  2  0
 20 19  1  6
 20 22  1  0
 21 20  1  0
 22 23  1  6
 22 24  1  0
 24 25  1  0
 26 24  2  0
M  END
$$$$
