LHT.pdb
     RDKit          3D

 26 26  0  0  1  0  0  0  0  0999 V2000
   17.1437   -5.8275  -20.3615 C   0  0  0  0  0  0  0  0  0  0  0  0
   17.9450   -6.7120  -19.4350 C   0  0  1  0  0  0  0  0  0  0  0  0
   19.2785   -7.0531  -20.0339 C   0  0  0  0  0  0  0  0  0  0  0  0
   18.0771   -6.0835  -18.0623 C   0  0  0  0  0  0  0  0  0  0  0  0
   18.9518   -6.9165  -17.1462 C   0  0  2  0  0  0  0  0  0  0  0  0
   18.1851   -8.0688  -16.7514 N   0  0  0  0  0  0  0  0  0  0  0  0
   19.3085   -6.1269  -15.9681 C   0  0  0  0  0  0  0  0  0  0  0  0
   18.4315   -5.8007  -15.1358 O   0  0  0  0  0  0  0  0  0  0  0  0
   20.6513   -5.7291  -15.7673 N   0  0  0  0  0  0  0  0  0  0  0  0
   21.0822   -4.9173  -14.6481 C   0  0  1  0  0  0  0  0  0  0  0  0
   22.0441   -5.6158  -13.7418 C   0  0  0  0  0  0  0  0  0  0  0  0
   21.5703   -6.8496  -13.1311 C   0  0  0  0  0  0  0  0  0  0  0  0
   20.3555   -7.4571  -13.1136 C   0  0  0  0  0  0  0  0  0  0  0  0
   20.4298   -8.5948  -12.4029 N   0  0  0  0  0  0  0  0  0  0  0  0
   21.6851   -8.7260  -11.9612 C   0  0  0  0  0  0  0  0  0  0  0  0
   22.3799   -7.6744  -12.3978 N   0  0  0  0  0  0  0  0  0  0  0  0
   21.5291   -3.5852  -15.0957 C   0  0  0  0  0  0  0  0  0  0  0  0
   22.4261   -3.5057  -15.9720 O   0  0  0  0  0  0  0  0  0  0  0  0
   19.5417   -1.0525  -16.6680 C   0  0  0  0  0  0  0  0  0  0  0  0
   20.1414   -0.3488  -15.4703 C   0  0  1  0  0  0  0  0  0  0  0  0
   19.1590   -0.4052  -14.4559 O   0  0  0  0  0  0  0  0  0  0  0  0
   21.3938   -1.0679  -15.0042 C   0  0  2  0  0  0  0  0  0  0  0  0
   20.9822   -2.3842  -14.5726 N   0  0  0  0  0  0  0  0  0  0  0  0
   22.1266   -0.3221  -13.9861 C   0  0  0  0  0  0  0  0  0  0  0  0
   22.6593    0.9330  -14.2279 O   0  0  0  0  0  0  0  0  0  0  0  0
   22.2945   -0.8117  -12.8433 O   0  0  0  0  0  0  0  0  0  0  0  0
  2  1  1  6
  2  4  1  0
  2  3  1  0
  4  5  1  0
  5  6  1  1
  7  9  1  0
  7  5  1  0
  8  7  2  0
 10  9  1  0
 11 12  1  0
 10 11  1  6
 12 16  1  0
 12 13  2  0
 13 14  1  0
 15 14  1  0
 16 15  2  0
 17 23  1  0
 17 10  1  0
 18 17  2  0
 20 19  1  6
 20 22  1  0
 21 20  1  0
 22 23  1  1
 22 24  1  0
 24 25  1  0
 26 24  2  0
M  END
$$$$
