LHT.pdb
     RDKit          3D

 26 26  0  0  1  0  0  0  0  0999 V2000
   26.9689  -31.4736  -16.5947 C   0  0  0  0  0  0  0  0  0  0  0  0
   27.6441  -30.2526  -17.1746 C   0  0  1  0  0  0  0  0  0  0  0  0
   27.8486  -29.1993  -16.1249 C   0  0  0  0  0  0  0  0  0  0  0  0
   28.9370  -30.6257  -17.8718 C   0  0  0  0  0  0  0  0  0  0  0  0
   29.6363  -29.4086  -18.4445 C   0  0  2  0  0  0  0  0  0  0  0  0
   28.8483  -28.9439  -19.5556 N   0  0  0  0  0  0  0  0  0  0  0  0
   30.9714  -29.7895  -18.9042 C   0  0  0  0  0  0  0  0  0  0  0  0
   31.1424  -30.2114  -20.0709 O   0  0  0  0  0  0  0  0  0  0  0  0
   32.0758  -29.6810  -18.0267 N   0  0  0  0  0  0  0  0  0  0  0  0
   33.4196  -30.0852  -18.3845 C   0  0  1  0  0  0  0  0  0  0  0  0
   34.4788  -29.1913  -17.8246 C   0  0  0  0  0  0  0  0  0  0  0  0
   34.5695  -27.8603  -18.4074 C   0  0  0  0  0  0  0  0  0  0  0  0
   33.9817  -27.2915  -19.4918 C   0  0  0  0  0  0  0  0  0  0  0  0
   34.3947  -26.0189  -19.6138 N   0  0  0  0  0  0  0  0  0  0  0  0
   35.2456  -25.7620  -18.6148 C   0  0  0  0  0  0  0  0  0  0  0  0
   35.3558  -26.8709  -17.8817 N   0  0  0  0  0  0  0  0  0  0  0  0
   33.6341  -31.5197  -18.1187 C   0  0  0  0  0  0  0  0  0  0  0  0
   33.4759  -31.9536  -16.9500 O   0  0  0  0  0  0  0  0  0  0  0  0
   31.7843  -34.2847  -19.3569 C   0  0  0  0  0  0  0  0  0  0  0  0
   33.2018  -34.5664  -19.8050 C   0  0  1  0  0  0  0  0  0  0  0  0
   33.3002  -34.0592  -21.1206 O   0  0  0  0  0  0  0  0  0  0  0  0
   34.1943  -33.8489  -18.9091 C   0  0  2  0  0  0  0  0  0  0  0  0
   34.0136  -32.4334  -19.1368 N   0  0  0  0  0  0  0  0  0  0  0  0
   35.5667  -34.3024  -19.1110 C   0  0  0  0  0  0  0  0  0  0  0  0
   35.9761  -35.5866  -18.7943 O   0  0  0  0  0  0  0  0  0  0  0  0
   36.4260  -33.5216  -19.5867 O   0  0  0  0  0  0  0  0  0  0  0  0
  2  1  1  1
  2  4  1  0
  2  3  1  0
  4  5  1  0
  5  6  1  6
  7  9  1  0
  7  5  1  0
  8  7  2  0
 10  9  1  0
 11 12  1  0
 10 11  1  1
 12 16  1  0
 12 13  2  0
 13 14  1  0
 15 14  1  0
 16 15  2  0
 17 23  1  0
 17 10  1  0
 18 17  2  0
 20 19  1  1
 20 22  1  0
 21 20  1  0
 22 23  1  6
 22 24  1  0
 24 25  1  0
 26 24  2  0
M  END
$$$$
