LHT.pdb
     RDKit          3D

 26 26  0  0  1  0  0  0  0  0999 V2000
   27.4676  -20.7006   -3.5873 C   0  0  0  0  0  0  0  0  0  0  0  0
   28.0327  -19.9515   -4.7716 C   0  0  1  0  0  0  0  0  0  0  0  0
   29.4448  -20.3748   -5.0540 C   0  0  0  0  0  0  0  0  0  0  0  0
   27.1369  -20.0976   -5.9853 C   0  0  0  0  0  0  0  0  0  0  0  0
   27.7298  -19.4188   -7.2044 C   0  0  2  0  0  0  0  0  0  0  0  0
   27.8649  -18.0200   -6.8936 N   0  0  0  0  0  0  0  0  0  0  0  0
   26.8269  -19.5923   -8.3417 C   0  0  0  0  0  0  0  0  0  0  0  0
   25.8354  -18.8404   -8.4830 O   0  0  0  0  0  0  0  0  0  0  0  0
   27.0744  -20.6150   -9.2875 N   0  0  0  0  0  0  0  0  0  0  0  0
   26.5071  -20.6213  -10.6199 C   0  0  1  0  0  0  0  0  0  0  0  0
   27.3702  -21.3052  -11.6308 C   0  0  0  0  0  0  0  0  0  0  0  0
   26.9114  -21.2468  -13.0113 C   0  0  0  0  0  0  0  0  0  0  0  0
   26.7852  -20.2218  -13.8936 C   0  0  0  0  0  0  0  0  0  0  0  0
   26.3101  -20.6870  -15.0611 N   0  0  0  0  0  0  0  0  0  0  0  0
   26.1286  -22.0061  -14.9384 C   0  0  0  0  0  0  0  0  0  0  0  0
   26.4901  -22.3511  -13.7017 N   0  0  0  0  0  0  0  0  0  0  0  0
   25.1083  -21.0875  -10.6023 C   0  0  0  0  0  0  0  0  0  0  0  0
   24.7730  -21.9790   -9.7827 O   0  0  0  0  0  0  0  0  0  0  0  0
   21.8270  -19.3379  -10.0746 C   0  0  0  0  0  0  0  0  0  0  0  0
   21.8383  -19.9005  -11.4792 C   0  0  1  0  0  0  0  0  0  0  0  0
   22.3134  -18.8600  -12.3093 O   0  0  0  0  0  0  0  0  0  0  0  0
   22.7776  -21.0890  -11.5674 C   0  0  2  0  0  0  0  0  0  0  0  0
   24.1216  -20.5654  -11.4793 N   0  0  0  0  0  0  0  0  0  0  0  0
   22.5453  -21.9044  -12.7553 C   0  0  0  0  0  0  0  0  0  0  0  0
   21.3585  -22.5864  -12.9645 O   0  0  0  0  0  0  0  0  0  0  0  0
   23.4352  -22.0085  -13.6335 O   0  0  0  0  0  0  0  0  0  0  0  0
  2  1  1  1
  2  4  1  0
  2  3  1  0
  4  5  1  0
  5  6  1  1
  7  9  1  0
  7  5  1  0
  8  7  2  0
 10  9  1  0
 11 12  1  0
 10 11  1  6
 12 16  1  0
 12 13  2  0
 13 14  1  0
 15 14  1  0
 16 15  2  0
 17 23  1  0
 17 10  1  0
 18 17  2  0
 20 19  1  1
 20 22  1  0
 21 20  1  0
 22 23  1  6
 22 24  1  0
 24 25  1  0
 26 24  2  0
M  END
$$$$
