LHT.pdb
     RDKit          3D

 26 26  0  0  1  0  0  0  0  0999 V2000
   30.3222  -22.8040  -17.7035 C   0  0  0  0  0  0  0  0  0  0  0  0
   28.8120  -22.8450  -17.7306 C   0  0  1  0  0  0  0  0  0  0  0  0
   28.2962  -22.8027  -19.1396 C   0  0  0  0  0  0  0  0  0  0  0  0
   28.2866  -24.0418  -16.9635 C   0  0  0  0  0  0  0  0  0  0  0  0
   26.7846  -24.1859  -17.1099 C   0  0  2  0  0  0  0  0  0  0  0  0
   26.1736  -23.3458  -16.1136 N   0  0  0  0  0  0  0  0  0  0  0  0
   26.4083  -25.5811  -16.8851 C   0  0  0  0  0  0  0  0  0  0  0  0
   26.4606  -26.0731  -15.7346 O   0  0  0  0  0  0  0  0  0  0  0  0
   25.9828  -26.3796  -17.9727 N   0  0  0  0  0  0  0  0  0  0  0  0
   25.4611  -27.7218  -17.8188 C   0  0  1  0  0  0  0  0  0  0  0  0
   24.2402  -27.9834  -18.6407 C   0  0  0  0  0  0  0  0  0  0  0  0
   23.0497  -27.2267  -18.2806 C   0  0  0  0  0  0  0  0  0  0  0  0
   22.1785  -27.3257  -17.2432 C   0  0  0  0  0  0  0  0  0  0  0  0
   21.2292  -26.3820  -17.3591 N   0  0  0  0  0  0  0  0  0  0  0  0
   21.4818  -25.6740  -18.4650 C   0  0  0  0  0  0  0  0  0  0  0  0
   22.5810  -26.1793  -19.0269 N   0  0  0  0  0  0  0  0  0  0  0  0
   26.5258  -28.7297  -17.9769 C   0  0  0  0  0  0  0  0  0  0  0  0
   27.4168  -28.5447  -18.8435 O   0  0  0  0  0  0  0  0  0  0  0  0
   26.6698  -32.0812  -15.3391 C   0  0  0  0  0  0  0  0  0  0  0  0
   27.9039  -31.4351  -15.9298 C   0  0  1  0  0  0  0  0  0  0  0  0
   28.8782  -32.4563  -16.0033 O   0  0  0  0  0  0  0  0  0  0  0  0
   27.6128  -30.9103  -17.3236 C   0  0  2  0  0  0  0  0  0  0  0  0
   26.5834  -29.9058  -17.1840 N   0  0  0  0  0  0  0  0  0  0  0  0
   27.2698  -31.9711  -18.2654 C   0  0  0  0  0  0  0  0  0  0  0  0
   25.9611  -32.2510  -18.6206 O   0  0  0  0  0  0  0  0  0  0  0  0
   28.1729  -32.6691  -18.7863 O   0  0  0  0  0  0  0  0  0  0  0  0
  2  1  1  6
  2  4  1  0
  2  3  1  0
  4  5  1  0
  5  6  1  1
  7  9  1  0
  7  5  1  0
  8  7  2  0
 10  9  1  0
 11 12  1  0
 10 11  1  6
 12 16  1  0
 12 13  2  0
 13 14  1  0
 15 14  1  0
 16 15  2  0
 17 23  1  0
 17 10  1  0
 18 17  2  0
 20 19  1  6
 20 22  1  0
 21 20  1  0
 22 23  1  1
 22 24  1  0
 24 25  1  0
 26 24  2  0
M  END
$$$$
