LHT.pdb
     RDKit          3D

 26 26  0  0  1  0  0  0  0  0999 V2000
   20.4847  -15.9289  -18.3505 C   0  0  0  0  0  0  0  0  0  0  0  0
   20.4079  -14.5833  -19.0334 C   0  0  1  0  0  0  0  0  0  0  0  0
   19.0470  -14.3547  -19.6239 C   0  0  0  0  0  0  0  0  0  0  0  0
   20.8176  -13.4704  -18.0898 C   0  0  0  0  0  0  0  0  0  0  0  0
   20.6302  -12.1042  -18.7197 C   0  0  2  0  0  0  0  0  0  0  0  0
   21.5570  -12.0063  -19.8165 N   0  0  0  0  0  0  0  0  0  0  0  0
   20.9206  -11.0700  -17.7272 C   0  0  0  0  0  0  0  0  0  0  0  0
   20.2851  -11.0317  -16.6488 O   0  0  0  0  0  0  0  0  0  0  0  0
   21.9246  -10.1075  -17.9864 N   0  0  0  0  0  0  0  0  0  0  0  0
   22.2957   -9.0711  -17.0455 C   0  0  1  0  0  0  0  0  0  0  0  0
   23.7699   -8.8345  -16.9717 C   0  0  0  0  0  0  0  0  0  0  0  0
   24.5569   -9.8812  -16.3356 C   0  0  0  0  0  0  0  0  0  0  0  0
   24.2121  -11.0374  -15.7116 C   0  0  0  0  0  0  0  0  0  0  0  0
   25.3194  -11.6688  -15.2869 N   0  0  0  0  0  0  0  0  0  0  0  0
   26.3773  -10.9276  -15.6327 C   0  0  0  0  0  0  0  0  0  0  0  0
   25.9235   -9.8455  -16.2669 N   0  0  0  0  0  0  0  0  0  0  0  0
   21.4953   -7.8501  -17.2532 C   0  0  0  0  0  0  0  0  0  0  0  0
   21.6378   -7.2019  -18.3202 O   0  0  0  0  0  0  0  0  0  0  0  0
   18.0562   -7.3769  -17.6433 C   0  0  0  0  0  0  0  0  0  0  0  0
   18.3647   -6.4922  -16.4552 C   0  0  1  0  0  0  0  0  0  0  0  0
   18.0415   -7.2550  -15.3101 O   0  0  0  0  0  0  0  0  0  0  0  0
   19.8394   -6.1355  -16.4277 C   0  0  2  0  0  0  0  0  0  0  0  0
   20.5659   -7.3771  -16.2901 N   0  0  0  0  0  0  0  0  0  0  0  0
   20.1627   -5.1526  -15.3986 C   0  0  0  0  0  0  0  0  0  0  0  0
   21.0025   -5.4418  -14.3364 O   0  0  0  0  0  0  0  0  0  0  0  0
   19.6763   -3.9974  -15.4539 O   0  0  0  0  0  0  0  0  0  0  0  0
  2  1  1  1
  2  4  1  0
  2  3  1  0
  4  5  1  0
  5  6  1  6
  7  9  1  0
  7  5  1  0
  8  7  2  0
 10  9  1  0
 11 12  1  0
 10 11  1  6
 12 16  1  0
 12 13  2  0
 13 14  1  0
 15 14  1  0
 16 15  2  0
 17 23  1  0
 17 10  1  0
 18 17  2  0
 20 19  1  6
 20 22  1  0
 21 20  1  0
 22 23  1  1
 22 24  1  0
 24 25  1  0
 26 24  2  0
M  END
$$$$
