LHT.pdb
     RDKit          3D

 26 26  0  0  1  0  0  0  0  0999 V2000
   22.1387  -11.9386  -21.6224 C   0  0  0  0  0  0  0  0  0  0  0  0
   22.9303  -11.1064  -20.6407 C   0  0  1  0  0  0  0  0  0  0  0  0
   23.9741  -10.2890  -21.3446 C   0  0  0  0  0  0  0  0  0  0  0  0
   22.0133  -10.2532  -19.7875 C   0  0  0  0  0  0  0  0  0  0  0  0
   22.7954   -9.3594  -18.8452 C   0  0  2  0  0  0  0  0  0  0  0  0
   23.5442  -10.2158  -17.9636 N   0  0  0  0  0  0  0  0  0  0  0  0
   21.8639   -8.5390  -18.0719 C   0  0  0  0  0  0  0  0  0  0  0  0
   21.0260   -7.8132  -18.6545 O   0  0  0  0  0  0  0  0  0  0  0  0
   21.9093   -8.5652  -16.6581 N   0  0  0  0  0  0  0  0  0  0  0  0
   21.0150   -7.7953  -15.8185 C   0  0  1  0  0  0  0  0  0  0  0  0
   20.4428   -8.5799  -14.6821 C   0  0  0  0  0  0  0  0  0  0  0  0
   19.3808   -9.5168  -15.0194 C   0  0  0  0  0  0  0  0  0  0  0  0
   18.7620   -9.8196  -16.1901 C   0  0  0  0  0  0  0  0  0  0  0  0
   17.8326  -10.7663  -15.9778 N   0  0  0  0  0  0  0  0  0  0  0  0
   17.8471  -11.0769  -14.6772 C   0  0  0  0  0  0  0  0  0  0  0  0
   18.7808  -10.3253  -14.0920 N   0  0  0  0  0  0  0  0  0  0  0  0
   21.6261   -6.5129  -15.4230 C   0  0  0  0  0  0  0  0  0  0  0  0
   22.7776   -6.5157  -14.9199 O   0  0  0  0  0  0  0  0  0  0  0  0
   22.9178   -4.0801  -17.2697 C   0  0  0  0  0  0  0  0  0  0  0  0
   21.9046   -3.2781  -16.4827 C   0  0  1  0  0  0  0  0  0  0  0  0
   20.7652   -3.1729  -17.3122 O   0  0  0  0  0  0  0  0  0  0  0  0
   21.5344   -4.0017  -15.2013 C   0  0  2  0  0  0  0  0  0  0  0  0
   20.9609   -5.2700  -15.5897 N   0  0  0  0  0  0  0  0  0  0  0  0
   20.6665   -3.2088  -14.3364 C   0  0  0  0  0  0  0  0  0  0  0  0
   21.0654   -1.9971  -13.7979 O   0  0  0  0  0  0  0  0  0  0  0  0
   19.5137   -3.6159  -14.0546 O   0  0  0  0  0  0  0  0  0  0  0  0
  2  1  1  6
  2  4  1  0
  2  3  1  0
  4  5  1  0
  5  6  1  1
  7  9  1  0
  7  5  1  0
  8  7  2  0
 10  9  1  0
 11 12  1  0
 10 11  1  1
 12 16  1  0
 12 13  2  0
 13 14  1  0
 15 14  1  0
 16 15  2  0
 17 23  1  0
 17 10  1  0
 18 17  2  0
 20 19  1  6
 20 22  1  0
 21 20  1  0
 22 23  1  6
 22 24  1  0
 24 25  1  0
 26 24  2  0
M  END
$$$$
