LHT.pdb
     RDKit          3D

 26 26  0  0  1  0  0  0  0  0999 V2000
   16.3763  -13.4021  -16.9582 C   0  0  0  0  0  0  0  0  0  0  0  0
   17.5779  -12.9095  -17.7305 C   0  0  1  0  0  0  0  0  0  0  0  0
   17.4947  -13.3138  -19.1736 C   0  0  0  0  0  0  0  0  0  0  0  0
   17.7560  -11.4138  -17.5635 C   0  0  0  0  0  0  0  0  0  0  0  0
   18.2514  -11.0599  -16.1751 C   0  0  2  0  0  0  0  0  0  0  0  0
   17.2179  -11.4285  -15.2436 N   0  0  0  0  0  0  0  0  0  0  0  0
   18.4987   -9.6204  -16.1020 C   0  0  0  0  0  0  0  0  0  0  0  0
   19.2675   -9.0680  -16.9219 O   0  0  0  0  0  0  0  0  0  0  0  0
   17.8664   -8.8473  -15.1000 N   0  0  0  0  0  0  0  0  0  0  0  0
   18.0382   -7.4150  -14.9726 C   0  0  1  0  0  0  0  0  0  0  0  0
   16.7792   -6.6944  -14.6118 C   0  0  0  0  0  0  0  0  0  0  0  0
   15.7761   -6.5898  -15.6618 C   0  0  0  0  0  0  0  0  0  0  0  0
   15.7821   -6.9387  -16.9746 C   0  0  0  0  0  0  0  0  0  0  0  0
   14.5966   -6.6337  -17.5282 N   0  0  0  0  0  0  0  0  0  0  0  0
   13.8247   -6.0900  -16.5813 C   0  0  0  0  0  0  0  0  0  0  0  0
   14.5316   -6.0604  -15.4505 N   0  0  0  0  0  0  0  0  0  0  0  0
   19.1906   -7.0901  -14.1119 C   0  0  0  0  0  0  0  0  0  0  0  0
   19.1599   -7.4230  -12.9006 O   0  0  0  0  0  0  0  0  0  0  0  0
   22.3262   -8.3825  -14.0855 C   0  0  0  0  0  0  0  0  0  0  0  0
   22.6372   -6.9109  -14.2501 C   0  0  1  0  0  0  0  0  0  0  0  0
   22.8327   -6.7089  -15.6352 O   0  0  0  0  0  0  0  0  0  0  0  0
   21.4707   -6.0653  -13.7736 C   0  0  2  0  0  0  0  0  0  0  0  0
   20.3384   -6.4132  -14.6013 N   0  0  0  0  0  0  0  0  0  0  0  0
   21.7739   -4.6378  -13.7688 C   0  0  0  0  0  0  0  0  0  0  0  0
   21.1738   -3.7506  -14.6462 O   0  0  0  0  0  0  0  0  0  0  0  0
   22.6037   -4.1714  -12.9514 O   0  0  0  0  0  0  0  0  0  0  0  0
  2  1  1  1
  2  4  1  0
  2  3  1  0
  4  5  1  0
  5  6  1  1
  7  9  1  0
  7  5  1  0
  8  7  2  0
 10  9  1  0
 11 12  1  0
 10 11  1  1
 12 16  1  0
 12 13  2  0
 13 14  1  0
 15 14  1  0
 16 15  2  0
 17 23  1  0
 17 10  1  0
 18 17  2  0
 20 19  1  6
 20 22  1  0
 21 20  1  0
 22 23  1  6
 22 24  1  0
 24 25  1  0
 26 24  2  0
M  END
$$$$
