LHT.pdb
     RDKit          3D

 26 26  0  0  1  0  0  0  0  0999 V2000
   24.4468   -3.5801  -17.5725 C   0  0  0  0  0  0  0  0  0  0  0  0
   24.2043   -5.0697  -17.6453 C   0  0  1  0  0  0  0  0  0  0  0  0
   25.3235   -5.8309  -16.9967 C   0  0  0  0  0  0  0  0  0  0  0  0
   22.8526   -5.4297  -17.0620 C   0  0  0  0  0  0  0  0  0  0  0  0
   22.5473   -6.9058  -17.2246 C   0  0  2  0  0  0  0  0  0  0  0  0
   22.3682   -7.1547  -18.6308 N   0  0  0  0  0  0  0  0  0  0  0  0
   21.3184   -7.2282  -16.5003 C   0  0  0  0  0  0  0  0  0  0  0  0
   20.2020   -6.9358  -16.9867 O   0  0  0  0  0  0  0  0  0  0  0  0
   21.3906   -7.8738  -15.2434 N   0  0  0  0  0  0  0  0  0  0  0  0
   20.2231   -8.2587  -14.4780 C   0  0  1  0  0  0  0  0  0  0  0  0
   20.0498   -9.7389  -14.3610 C   0  0  0  0  0  0  0  0  0  0  0  0
   18.8405  -10.1924  -13.6891 C   0  0  0  0  0  0  0  0  0  0  0  0
   17.8300   -9.5277  -13.0709 C   0  0  0  0  0  0  0  0  0  0  0  0
   16.9310  -10.4086  -12.6011 N   0  0  0  0  0  0  0  0  0  0  0  0
   17.3543  -11.6383  -12.9120 C   0  0  0  0  0  0  0  0  0  0  0  0
   18.5081  -11.5149  -13.5699 N   0  0  0  0  0  0  0  0  0  0  0  0
   20.1661   -7.5382  -13.1926 C   0  0  0  0  0  0  0  0  0  0  0  0
   21.2121   -7.4367  -12.5037 O   0  0  0  0  0  0  0  0  0  0  0  0
   16.9697   -4.8583  -12.4806 C   0  0  0  0  0  0  0  0  0  0  0  0
   18.4086   -4.7418  -12.0272 C   0  0  1  0  0  0  0  0  0  0  0  0
   18.4025   -3.8253  -10.9513 O   0  0  0  0  0  0  0  0  0  0  0  0
   18.9241   -6.0855  -11.5463 C   0  0  2  0  0  0  0  0  0  0  0  0
   18.9700   -6.9520  -12.7018 N   0  0  0  0  0  0  0  0  0  0  0  0
   18.1404   -6.6274  -10.4408 C   0  0  0  0  0  0  0  0  0  0  0  0
   18.1390   -6.0507   -9.1819 O   0  0  0  0  0  0  0  0  0  0  0  0
   17.4345   -7.6508  -10.6094 O   0  0  0  0  0  0  0  0  0  0  0  0
  2  1  1  1
  2  4  1  0
  2  3  1  0
  4  5  1  0
  5  6  1  6
  7  9  1  0
  7  5  1  0
  8  7  2  0
 10  9  1  0
 11 12  1  0
 10 11  1  1
 12 16  1  0
 12 13  2  0
 13 14  1  0
 15 14  1  0
 16 15  2  0
 17 23  1  0
 17 10  1  0
 18 17  2  0
 20 19  1  1
 20 22  1  0
 21 20  1  0
 22 23  1  6
 22 24  1  0
 24 25  1  0
 26 24  2  0
M  END
$$$$
