WQT.pdb
     RDKit          3D

 31 32  0  0  1  0  0  0  0  0999 V2000
   21.0515  -21.3958   -7.3837 N   0  0  0  0  0  0  0  0  0  0  0  0
   20.1459  -22.1362   -8.2504 C   0  0  1  0  0  0  0  0  0  0  0  0
   20.9171  -22.6287   -9.4823 C   0  0  0  0  0  0  0  0  0  0  0  0
   21.2925  -21.4513  -10.2721 C   0  0  0  0  0  0  0  0  0  0  0  0
   22.4332  -20.6916  -10.1179 C   0  0  0  0  0  0  0  0  0  0  0  0
   22.4046  -19.7118  -11.0235 N   0  0  0  0  0  0  0  0  0  0  0  0
   21.2902  -19.7768  -11.7856 C   0  0  0  0  0  0  0  0  0  0  0  0
   20.7935  -19.0256  -12.8311 C   0  0  0  0  0  0  0  0  0  0  0  0
   19.5917  -19.3515  -13.4235 C   0  0  0  0  0  0  0  0  0  0  0  0
   18.8870  -20.4427  -12.9573 C   0  0  0  0  0  0  0  0  0  0  0  0
   19.3801  -21.1960  -11.9126 C   0  0  0  0  0  0  0  0  0  0  0  0
   20.5893  -20.8780  -11.3075 C   0  0  0  0  0  0  0  0  0  0  0  0
   19.6782  -23.3617   -7.5621 C   0  0  0  0  0  0  0  0  0  0  0  0
   20.5158  -24.0242   -6.9208 O   0  0  0  0  0  0  0  0  0  0  0  0
   18.6875  -25.7028   -4.0371 N   0  0  0  0  0  0  0  0  0  0  0  0
   17.3533  -26.2323   -4.0994 C   0  0  0  0  0  0  0  0  0  0  0  0
   17.0042  -27.2100   -3.4021 O   0  0  0  0  0  0  0  0  0  0  0  0
   16.3658  -25.5753   -5.0374 C   0  0  0  0  0  0  0  0  0  0  0  0
   17.1129  -24.5371   -5.7919 C   0  0  0  0  0  0  0  0  0  0  0  0
   17.8819  -24.9783   -6.9875 C   0  0  2  0  0  0  0  0  0  0  0  0
   18.3352  -23.7409   -7.6443 N   0  0  0  0  0  0  0  0  0  0  0  0
   17.1801  -25.8498   -7.9393 C   0  0  0  0  0  0  0  0  0  0  0  0
   16.1923  -25.3935   -8.6011 O   0  0  0  0  0  0  0  0  0  0  0  0
   18.6880  -29.1824  -10.1479 C   0  0  0  0  0  0  0  0  0  0  0  0
   17.4300  -29.3389   -9.3294 C   0  0  1  0  0  0  0  0  0  0  0  0
   17.7801  -29.8458   -8.0907 O   0  0  0  0  0  0  0  0  0  0  0  0
   16.7112  -27.9982   -9.1654 C   0  0  2  0  0  0  0  0  0  0  0  0
   17.5011  -27.1992   -8.2128 N   0  0  0  0  0  0  0  0  0  0  0  0
   15.3498  -28.2249   -8.6833 C   0  0  0  0  0  0  0  0  0  0  0  0
   15.0925  -28.0587   -7.3338 O   0  0  0  0  0  0  0  0  0  0  0  0
   14.3990  -28.5645   -9.4366 O   0  0  0  0  0  0  0  0  0  0  0  0
  2  1  1  1
  2  3  1  0
  3  4  1  0
  4  5  2  0
  5  6  1  0
  7  6  1  0
  8  7  2  0
  9  8  1  0
 10 11  1  0
 10  9  2  0
 11 12  2  0
 12  4  1  0
 12  7  1  0
 13 21  1  0
 13  2  1  0
 14 13  2  0
 16 17  2  0
 16 15  1  0
 18 16  1  0
 19 18  1  0
 20 21  1  0
 20 19  1  1
 22 20  1  0
 23 22  2  0
 25 24  1  6
 25 26  1  0
 25 27  1  0
 27 29  1  0
 27 28  1  1
 28 22  1  0
 29 30  1  0
 31 29  2  0
M  END
$$$$
