WQT.pdb
     RDKit          3D

 31 32  0  0  1  0  0  0  0  0999 V2000
   14.5637  -14.0052  -20.3720 N   0  0  0  0  0  0  0  0  0  0  0  0
   15.4939  -13.3987  -19.4305 C   0  0  1  0  0  0  0  0  0  0  0  0
   15.9876  -12.0619  -19.9998 C   0  0  0  0  0  0  0  0  0  0  0  0
   16.9514  -12.3604  -21.0642 C   0  0  0  0  0  0  0  0  0  0  0  0
   16.6732  -12.9523  -22.2783 C   0  0  0  0  0  0  0  0  0  0  0  0
   17.8147  -13.0516  -22.9626 N   0  0  0  0  0  0  0  0  0  0  0  0
   18.8557  -12.5507  -22.2608 C   0  0  0  0  0  0  0  0  0  0  0  0
   20.2067  -12.4156  -22.5068 C   0  0  0  0  0  0  0  0  0  0  0  0
   21.0397  -11.8452  -21.5676 C   0  0  0  0  0  0  0  0  0  0  0  0
   20.5052  -11.4084  -20.3725 C   0  0  0  0  0  0  0  0  0  0  0  0
   19.1554  -11.5417  -20.1229 C   0  0  0  0  0  0  0  0  0  0  0  0
   18.3059  -12.1145  -21.0609 C   0  0  0  0  0  0  0  0  0  0  0  0
   14.7880  -13.0557  -18.1742 C   0  0  0  0  0  0  0  0  0  0  0  0
   13.5786  -12.7661  -18.2471 O   0  0  0  0  0  0  0  0  0  0  0  0
   13.8504  -16.2388  -13.6592 N   0  0  0  0  0  0  0  0  0  0  0  0
   15.0717  -16.2265  -14.4159 C   0  0  0  0  0  0  0  0  0  0  0  0
   15.9680  -17.0774  -14.2254 O   0  0  0  0  0  0  0  0  0  0  0  0
   15.2546  -15.1496  -15.4617 C   0  0  0  0  0  0  0  0  0  0  0  0
   14.7847  -13.8772  -14.8572 C   0  0  0  0  0  0  0  0  0  0  0  0
   14.7883  -12.6651  -15.7211 C   0  0  2  0  0  0  0  0  0  0  0  0
   15.4787  -13.0643  -16.9589 N   0  0  0  0  0  0  0  0  0  0  0  0
   15.3907  -11.4515  -15.1534 C   0  0  0  0  0  0  0  0  0  0  0  0
   14.9613  -10.9942  -14.0451 O   0  0  0  0  0  0  0  0  0  0  0  0
   19.2878  -10.6052  -15.1507 C   0  0  0  0  0  0  0  0  0  0  0  0
   18.4661   -9.4002  -15.5375 C   0  0  1  0  0  0  0  0  0  0  0  0
   18.4899   -9.2848  -16.9159 O   0  0  0  0  0  0  0  0  0  0  0  0
   17.0238   -9.5383  -15.0458 C   0  0  2  0  0  0  0  0  0  0  0  0
   16.4448  -10.7068  -15.7306 N   0  0  0  0  0  0  0  0  0  0  0  0
   16.2824   -8.3140  -15.3437 C   0  0  0  0  0  0  0  0  0  0  0  0
   16.6283   -7.1545  -14.6723 O   0  0  0  0  0  0  0  0  0  0  0  0
   15.3436   -8.2630  -16.1820 O   0  0  0  0  0  0  0  0  0  0  0  0
  2  1  1  6
  2  3  1  0
  3  4  1  0
  4  5  2  0
  5  6  1  0
  7  6  1  0
  8  7  2  0
  9  8  1  0
 10 11  1  0
 10  9  2  0
 11 12  2  0
 12  4  1  0
 12  7  1  0
 13 21  1  0
 13  2  1  0
 14 13  2  0
 16 17  2  0
 16 15  1  0
 18 16  1  0
 19 18  1  0
 20 21  1  0
 20 19  1  1
 22 20  1  0
 23 22  2  0
 25 24  1  6
 25 26  1  0
 25 27  1  0
 27 29  1  0
 27 28  1  6
 28 22  1  0
 29 30  1  0
 31 29  2  0
M  END
$$$$
