WQT.pdb
     RDKit          3D

 31 32  0  0  1  0  0  0  0  0999 V2000
   28.0964  -19.6826  -18.1251 N   0  0  0  0  0  0  0  0  0  0  0  0
   27.4624  -19.0663  -16.9685 C   0  0  1  0  0  0  0  0  0  0  0  0
   26.6081  -17.8799  -17.4343 C   0  0  0  0  0  0  0  0  0  0  0  0
   27.4539  -17.0250  -18.2739 C   0  0  0  0  0  0  0  0  0  0  0  0
   28.8212  -17.1222  -18.4257 C   0  0  0  0  0  0  0  0  0  0  0  0
   29.2140  -16.1652  -19.2688 N   0  0  0  0  0  0  0  0  0  0  0  0
   28.1676  -15.4231  -19.6948 C   0  0  0  0  0  0  0  0  0  0  0  0
   28.0345  -14.3466  -20.5476 C   0  0  0  0  0  0  0  0  0  0  0  0
   26.7964  -13.7905  -20.7915 C   0  0  0  0  0  0  0  0  0  0  0  0
   25.6858  -14.3248  -20.1704 C   0  0  0  0  0  0  0  0  0  0  0  0
   25.8148  -15.4008  -19.3173 C   0  0  0  0  0  0  0  0  0  0  0  0
   27.0563  -15.9698  -19.0635 C   0  0  0  0  0  0  0  0  0  0  0  0
   26.5114  -20.0176  -16.3481 C   0  0  0  0  0  0  0  0  0  0  0  0
   26.1243  -20.9831  -17.0334 O   0  0  0  0  0  0  0  0  0  0  0  0
   25.2169  -23.4696  -14.5065 N   0  0  0  0  0  0  0  0  0  0  0  0
   24.8201  -23.4530  -13.1256 C   0  0  0  0  0  0  0  0  0  0  0  0
   24.2523  -24.4334  -12.5962 O   0  0  0  0  0  0  0  0  0  0  0  0
   25.1065  -22.2098  -12.3138 C   0  0  0  0  0  0  0  0  0  0  0  0
   25.8522  -21.2791  -13.1987 C   0  0  0  0  0  0  0  0  0  0  0  0
   25.1522  -20.7787  -14.4132 C   0  0  2  0  0  0  0  0  0  0  0  0
   26.0778  -19.8167  -15.0343 N   0  0  0  0  0  0  0  0  0  0  0  0
   23.8280  -20.1758  -14.2108 C   0  0  0  0  0  0  0  0  0  0  0  0
   23.7163  -19.1243  -13.5012 O   0  0  0  0  0  0  0  0  0  0  0  0
   20.1603  -21.6857  -15.8902 C   0  0  0  0  0  0  0  0  0  0  0  0
   20.4446  -20.2143  -15.7139 C   0  0  1  0  0  0  0  0  0  0  0  0
   19.2375  -19.5556  -15.5621 O   0  0  0  0  0  0  0  0  0  0  0  0
   21.3347  -19.9694  -14.4937 C   0  0  2  0  0  0  0  0  0  0  0  0
   22.6118  -20.6585  -14.7464 N   0  0  0  0  0  0  0  0  0  0  0  0
   20.6743  -20.4768  -13.2922 C   0  0  0  0  0  0  0  0  0  0  0  0
   19.5481  -19.8177  -12.8313 O   0  0  0  0  0  0  0  0  0  0  0  0
   21.0804  -21.4850  -12.6556 O   0  0  0  0  0  0  0  0  0  0  0  0
  2  1  1  6
  2  3  1  0
  3  4  1  0
  4  5  2  0
  5  6  1  0
  7  6  1  0
  8  7  2  0
  9  8  1  0
 10 11  1  0
 10  9  2  0
 11 12  2  0
 12  4  1  0
 12  7  1  0
 13 21  1  0
 13  2  1  0
 14 13  2  0
 16 17  2  0
 16 15  1  0
 18 16  1  0
 19 18  1  0
 20 21  1  0
 20 19  1  1
 22 20  1  0
 23 22  2  0
 25 24  1  1
 25 26  1  0
 25 27  1  0
 27 29  1  0
 27 28  1  6
 28 22  1  0
 29 30  1  0
 31 29  2  0
M  END
$$$$
