WQT.pdb
     RDKit          3D

 31 32  0  0  1  0  0  0  0  0999 V2000
   26.3828  -23.0214  -11.6211 N   0  0  0  0  0  0  0  0  0  0  0  0
   25.7837  -21.6946  -11.6102 C   0  0  1  0  0  0  0  0  0  0  0  0
   26.8759  -20.6461  -11.8604 C   0  0  0  0  0  0  0  0  0  0  0  0
   27.8645  -20.7679  -10.7839 C   0  0  0  0  0  0  0  0  0  0  0  0
   29.1477  -21.2593  -10.9023 C   0  0  0  0  0  0  0  0  0  0  0  0
   29.7246  -21.2067   -9.7002 N   0  0  0  0  0  0  0  0  0  0  0  0
   28.8839  -20.6992   -8.7713 C   0  0  0  0  0  0  0  0  0  0  0  0
   28.9852  -20.4404   -7.4198 C   0  0  0  0  0  0  0  0  0  0  0  0
   27.9230  -19.9023   -6.7244 C   0  0  0  0  0  0  0  0  0  0  0  0
   26.7510  -19.6238   -7.3979 C   0  0  0  0  0  0  0  0  0  0  0  0
   26.6458  -19.8811   -8.7487 C   0  0  0  0  0  0  0  0  0  0  0  0
   27.7086  -20.4229   -9.4604 C   0  0  0  0  0  0  0  0  0  0  0  0
   24.8393  -21.5583  -12.7431 C   0  0  0  0  0  0  0  0  0  0  0  0
   24.9637  -22.3440  -13.7018 O   0  0  0  0  0  0  0  0  0  0  0  0
   19.1054  -21.0475  -13.0741 N   0  0  0  0  0  0  0  0  0  0  0  0
   19.7721  -20.9423  -11.8057 C   0  0  0  0  0  0  0  0  0  0  0  0
   19.1453  -20.6741  -10.7573 O   0  0  0  0  0  0  0  0  0  0  0  0
   21.2671  -21.1654  -11.7624 C   0  0  0  0  0  0  0  0  0  0  0  0
   21.7022  -21.4421  -13.1551 C   0  0  0  0  0  0  0  0  0  0  0  0
   22.7759  -20.5811  -13.7220 C   0  0  2  0  0  0  0  0  0  0  0  0
   23.8488  -20.5722  -12.7135 N   0  0  0  0  0  0  0  0  0  0  0  0
   22.3963  -19.2119  -14.0951 C   0  0  0  0  0  0  0  0  0  0  0  0
   22.1664  -18.3517  -13.1846 O   0  0  0  0  0  0  0  0  0  0  0  0
   23.8178  -16.9778  -17.2384 C   0  0  0  0  0  0  0  0  0  0  0  0
   22.3141  -17.0152  -17.1182 C   0  0  1  0  0  0  0  0  0  0  0  0
   21.8354  -17.9872  -17.9785 O   0  0  0  0  0  0  0  0  0  0  0  0
   21.8855  -17.3257  -15.6826 C   0  0  2  0  0  0  0  0  0  0  0  0
   22.2561  -18.7261  -15.4154 N   0  0  0  0  0  0  0  0  0  0  0  0
   20.4466  -17.1100  -15.5405 C   0  0  0  0  0  0  0  0  0  0  0  0
   19.9651  -15.8143  -15.6058 O   0  0  0  0  0  0  0  0  0  0  0  0
   19.6232  -18.0463  -15.3611 O   0  0  0  0  0  0  0  0  0  0  0  0
  2  1  1  6
  2  3  1  0
  3  4  1  0
  4  5  2  0
  5  6  1  0
  7  6  1  0
  8  7  2  0
  9  8  1  0
 10 11  1  0
 10  9  2  0
 11 12  2  0
 12  4  1  0
 12  7  1  0
 13 21  1  0
 13  2  1  0
 14 13  2  0
 16 17  2  0
 16 15  1  0
 18 16  1  0
 19 18  1  0
 20 21  1  0
 20 19  1  1
 22 20  1  0
 23 22  2  0
 25 24  1  1
 25 26  1  0
 25 27  1  0
 27 29  1  0
 27 28  1  6
 28 22  1  0
 29 30  1  0
 31 29  2  0
M  END
$$$$
