WQT.pdb
     RDKit          3D

 31 32  0  0  1  0  0  0  0  0999 V2000
   15.0051  -20.6220    3.1504 N   0  0  0  0  0  0  0  0  0  0  0  0
   16.0628  -21.4526    3.7081 C   0  0  1  0  0  0  0  0  0  0  0  0
   17.3268  -21.3021    2.8511 C   0  0  0  0  0  0  0  0  0  0  0  0
   17.5872  -22.5958    2.2113 C   0  0  0  0  0  0  0  0  0  0  0  0
   16.7559  -23.2560    1.3309 C   0  0  0  0  0  0  0  0  0  0  0  0
   17.3488  -24.3981    0.9777 N   0  0  0  0  0  0  0  0  0  0  0  0
   18.5490  -24.5388    1.5833 C   0  0  0  0  0  0  0  0  0  0  0  0
   19.5321  -25.5067    1.5594 C   0  0  0  0  0  0  0  0  0  0  0  0
   20.6810  -25.3619    2.3079 C   0  0  0  0  0  0  0  0  0  0  0  0
   20.8385  -24.2326    3.0855 C   0  0  0  0  0  0  0  0  0  0  0  0
   19.8582  -23.2629    3.1121 C   0  0  0  0  0  0  0  0  0  0  0  0
   18.6963  -23.3971    2.3626 C   0  0  0  0  0  0  0  0  0  0  0  0
   16.4369  -20.9572    5.0530 C   0  0  0  0  0  0  0  0  0  0  0  0
   16.2279  -19.7562    5.3094 O   0  0  0  0  0  0  0  0  0  0  0  0
   16.8018  -24.8094    9.5143 N   0  0  0  0  0  0  0  0  0  0  0  0
   17.0658  -23.6734   10.3534 C   0  0  0  0  0  0  0  0  0  0  0  0
   17.0921  -23.7726   11.5998 O   0  0  0  0  0  0  0  0  0  0  0  0
   17.3149  -22.3371    9.6910 C   0  0  0  0  0  0  0  0  0  0  0  0
   17.1480  -22.5423    8.2297 C   0  0  0  0  0  0  0  0  0  0  0  0
   17.3007  -21.3528    7.3482 C   0  0  2  0  0  0  0  0  0  0  0  0
   17.0040  -21.8293    5.9869 N   0  0  0  0  0  0  0  0  0  0  0  0
   18.5963  -20.6616    7.3905 C   0  0  0  0  0  0  0  0  0  0  0  0
   19.5474  -21.0597    6.6431 O   0  0  0  0  0  0  0  0  0  0  0  0
   19.6018  -17.7076   10.2871 C   0  0  0  0  0  0  0  0  0  0  0  0
   20.1639  -17.6030    8.8906 C   0  0  1  0  0  0  0  0  0  0  0  0
   21.4144  -17.0166    8.9704 O   0  0  0  0  0  0  0  0  0  0  0  0
   20.2703  -18.9822    8.2368 C   0  0  2  0  0  0  0  0  0  0  0  0
   18.9119  -19.5509    8.2063 N   0  0  0  0  0  0  0  0  0  0  0  0
   21.1910  -19.8207    9.0025 C   0  0  0  0  0  0  0  0  0  0  0  0
   22.5389  -19.5076    8.9825 O   0  0  0  0  0  0  0  0  0  0  0  0
   20.8174  -20.8150    9.6797 O   0  0  0  0  0  0  0  0  0  0  0  0
  2  1  1  6
  2  3  1  0
  3  4  1  0
  4  5  2  0
  5  6  1  0
  7  6  1  0
  8  7  2  0
  9  8  1  0
 10 11  1  0
 10  9  2  0
 11 12  2  0
 12  4  1  0
 12  7  1  0
 13 21  1  0
 13  2  1  0
 14 13  2  0
 16 17  2  0
 16 15  1  0
 18 16  1  0
 19 18  1  0
 20 21  1  0
 20 19  1  1
 22 20  1  0
 23 22  2  0
 25 24  1  1
 25 26  1  0
 25 27  1  0
 27 29  1  0
 27 28  1  1
 28 22  1  0
 29 30  1  0
 31 29  2  0
M  END
$$$$
