WQT.pdb
     RDKit          3D

 31 32  0  0  1  0  0  0  0  0999 V2000
   25.9635  -19.0676  -11.2587 N   0  0  0  0  0  0  0  0  0  0  0  0
   26.1756  -20.4707  -11.5839 C   0  0  1  0  0  0  0  0  0  0  0  0
   25.7833  -21.3330  -10.3768 C   0  0  0  0  0  0  0  0  0  0  0  0
   26.5809  -20.8836   -9.2310 C   0  0  0  0  0  0  0  0  0  0  0  0
   26.1219  -20.1721   -8.1424 C   0  0  0  0  0  0  0  0  0  0  0  0
   27.1530  -19.9559   -7.3234 N   0  0  0  0  0  0  0  0  0  0  0  0
   28.2929  -20.4923   -7.8131 C   0  0  0  0  0  0  0  0  0  0  0  0
   29.5983  -20.5496   -7.3696 C   0  0  0  0  0  0  0  0  0  0  0  0
   30.5673  -21.1890   -8.1137 C   0  0  0  0  0  0  0  0  0  0  0  0
   30.2160  -21.7743   -9.3132 C   0  0  0  0  0  0  0  0  0  0  0  0
   28.9124  -21.7192   -9.7599 C   0  0  0  0  0  0  0  0  0  0  0  0
   27.9272  -21.0782   -9.0196 C   0  0  0  0  0  0  0  0  0  0  0  0
   25.2604  -20.8795  -12.6746 C   0  0  0  0  0  0  0  0  0  0  0  0
   24.1397  -20.3382  -12.7270 O   0  0  0  0  0  0  0  0  0  0  0  0
   27.1982  -24.5185  -17.1543 N   0  0  0  0  0  0  0  0  0  0  0  0
   27.4680  -23.1264  -17.3865 C   0  0  0  0  0  0  0  0  0  0  0  0
   28.3522  -22.7565  -18.1897 O   0  0  0  0  0  0  0  0  0  0  0  0
   26.6504  -22.1034  -16.6305 C   0  0  0  0  0  0  0  0  0  0  0  0
   25.7416  -22.8575  -15.7301 C   0  0  0  0  0  0  0  0  0  0  0  0
   24.8674  -22.0681  -14.8201 C   0  0  2  0  0  0  0  0  0  0  0  0
   25.6650  -21.8432  -13.6030 N   0  0  0  0  0  0  0  0  0  0  0  0
   23.5604  -22.6516  -14.4896 C   0  0  0  0  0  0  0  0  0  0  0  0
   23.4913  -23.6079  -13.6514 O   0  0  0  0  0  0  0  0  0  0  0  0
   19.8707  -20.7383  -15.3048 C   0  0  0  0  0  0  0  0  0  0  0  0
   20.1601  -21.6343  -14.1257 C   0  0  1  0  0  0  0  0  0  0  0  0
   18.9552  -22.0980  -13.6287 O   0  0  0  0  0  0  0  0  0  0  0  0
   21.0482  -22.8111  -14.5352 C   0  0  2  0  0  0  0  0  0  0  0  0
   22.3167  -22.2442  -15.0243 N   0  0  0  0  0  0  0  0  0  0  0  0
   20.3755  -23.6009  -15.5651 C   0  0  0  0  0  0  0  0  0  0  0  0
   19.3460  -24.4427  -15.1823 O   0  0  0  0  0  0  0  0  0  0  0  0
   20.6874  -23.5529  -16.7846 O   0  0  0  0  0  0  0  0  0  0  0  0
  2  1  1  1
  2  3  1  0
  3  4  1  0
  4  5  2  0
  5  6  1  0
  7  6  1  0
  8  7  2  0
  9  8  1  0
 10 11  1  0
 10  9  2  0
 11 12  2  0
 12  4  1  0
 12  7  1  0
 13 21  1  0
 13  2  1  0
 14 13  2  0
 16 17  2  0
 16 15  1  0
 18 16  1  0
 19 18  1  0
 20 21  1  0
 20 19  1  6
 22 20  1  0
 23 22  2  0
 25 24  1  6
 25 26  1  0
 25 27  1  0
 27 29  1  0
 27 28  1  6
 28 22  1  0
 29 30  1  0
 31 29  2  0
M  END
$$$$
