WQT.pdb
     RDKit          3D

 31 32  0  0  1  0  0  0  0  0999 V2000
   20.8540  -12.1932  -15.9668 N   0  0  0  0  0  0  0  0  0  0  0  0
   20.4987  -11.1996  -16.9698 C   0  0  1  0  0  0  0  0  0  0  0  0
   18.9730  -11.0386  -17.0016 C   0  0  0  0  0  0  0  0  0  0  0  0
   18.4060  -12.2777  -17.5439 C   0  0  0  0  0  0  0  0  0  0  0  0
   18.1314  -13.4302  -16.8380 C   0  0  0  0  0  0  0  0  0  0  0  0
   17.6281  -14.3273  -17.6881 N   0  0  0  0  0  0  0  0  0  0  0  0
   17.5505  -13.8292  -18.9423 C   0  0  0  0  0  0  0  0  0  0  0  0
   17.1161  -14.3305  -20.1522 C   0  0  0  0  0  0  0  0  0  0  0  0
   17.1618  -13.5562  -21.2923 C   0  0  0  0  0  0  0  0  0  0  0  0
   17.6492  -12.2676  -21.2102 C   0  0  0  0  0  0  0  0  0  0  0  0
   18.0842  -11.7629  -20.0027 C   0  0  0  0  0  0  0  0  0  0  0  0
   18.0433  -12.5328  -18.8472 C   0  0  0  0  0  0  0  0  0  0  0  0
   21.0270   -9.8732  -16.5750 C   0  0  0  0  0  0  0  0  0  0  0  0
   20.9236   -9.5382  -15.3797 O   0  0  0  0  0  0  0  0  0  0  0  0
   25.5124   -7.6436  -19.5968 N   0  0  0  0  0  0  0  0  0  0  0  0
   25.4923   -6.5528  -18.6617 C   0  0  0  0  0  0  0  0  0  0  0  0
   26.4151   -5.7098  -18.6200 O   0  0  0  0  0  0  0  0  0  0  0  0
   24.3175   -6.4425  -17.7161 C   0  0  0  0  0  0  0  0  0  0  0  0
   23.4659   -7.6373  -17.9452 C   0  0  0  0  0  0  0  0  0  0  0  0
   22.2365   -7.7723  -17.1170 C   0  0  2  0  0  0  0  0  0  0  0  0
   21.6185   -9.0429  -17.5316 N   0  0  0  0  0  0  0  0  0  0  0  0
   21.2676   -6.6704  -17.1891 C   0  0  0  0  0  0  0  0  0  0  0  0
   20.9207   -6.2099  -18.3246 O   0  0  0  0  0  0  0  0  0  0  0  0
   18.4625   -5.9264  -14.3137 C   0  0  0  0  0  0  0  0  0  0  0  0
   18.3391   -5.4353  -15.7352 C   0  0  1  0  0  0  0  0  0  0  0  0
   17.4137   -4.4072  -15.7589 O   0  0  0  0  0  0  0  0  0  0  0  0
   19.6872   -4.9422  -16.2648 C   0  0  2  0  0  0  0  0  0  0  0  0
   20.6501   -6.0419  -16.0834 N   0  0  0  0  0  0  0  0  0  0  0  0
   20.0933   -3.7415  -15.5364 C   0  0  0  0  0  0  0  0  0  0  0  0
   19.4133   -2.5612  -15.7806 O   0  0  0  0  0  0  0  0  0  0  0  0
   21.0326   -3.7286  -14.6971 O   0  0  0  0  0  0  0  0  0  0  0  0
  2  1  1  1
  2  3  1  0
  3  4  1  0
  4  5  2  0
  5  6  1  0
  7  6  1  0
  8  7  2  0
  9  8  1  0
 10 11  1  0
 10  9  2  0
 11 12  2  0
 12  4  1  0
 12  7  1  0
 13 21  1  0
 13  2  1  0
 14 13  2  0
 16 17  2  0
 16 15  1  0
 18 16  1  0
 19 18  1  0
 20 21  1  0
 20 19  1  6
 22 20  1  0
 23 22  2  0
 25 24  1  1
 25 26  1  0
 25 27  1  0
 27 29  1  0
 27 28  1  1
 28 22  1  0
 29 30  1  0
 31 29  2  0
M  END
$$$$
