WQT.pdb
     RDKit          3D

 31 32  0  0  1  0  0  0  0  0999 V2000
   28.0898  -21.7324  -14.6724 N   0  0  0  0  0  0  0  0  0  0  0  0
   26.9495  -21.7678  -13.7679 C   0  0  1  0  0  0  0  0  0  0  0  0
   26.8089  -20.4033  -13.0801 C   0  0  0  0  0  0  0  0  0  0  0  0
   27.6878  -20.4043  -11.9060 C   0  0  0  0  0  0  0  0  0  0  0  0
   29.0285  -20.0816  -11.8864 C   0  0  0  0  0  0  0  0  0  0  0  0
   29.4671  -20.2069  -10.6324 N   0  0  0  0  0  0  0  0  0  0  0  0
   28.4774  -20.6017   -9.8007 C   0  0  0  0  0  0  0  0  0  0  0  0
   28.4047  -20.8684   -8.4489 C   0  0  0  0  0  0  0  0  0  0  0  0
   27.2161  -21.2635   -7.8721 C   0  0  0  0  0  0  0  0  0  0  0  0
   26.0938  -21.3899   -8.6653 C   0  0  0  0  0  0  0  0  0  0  0  0
   26.1624  -21.1241  -10.0169 C   0  0  0  0  0  0  0  0  0  0  0  0
   27.3537  -20.7255  -10.6097 C   0  0  0  0  0  0  0  0  0  0  0  0
   25.6987  -21.9508  -14.5402 C   0  0  0  0  0  0  0  0  0  0  0  0
   25.5649  -21.2992  -15.5934 O   0  0  0  0  0  0  0  0  0  0  0  0
   23.1159  -27.2260  -14.9453 N   0  0  0  0  0  0  0  0  0  0  0  0
   24.1512  -26.7861  -15.8393 C   0  0  0  0  0  0  0  0  0  0  0  0
   24.8032  -27.5960  -16.5343 O   0  0  0  0  0  0  0  0  0  0  0  0
   24.4410  -25.3044  -15.9247 C   0  0  0  0  0  0  0  0  0  0  0  0
   23.4942  -24.6261  -15.0035 C   0  0  0  0  0  0  0  0  0  0  0  0
   23.5534  -23.1405  -14.9310 C   0  0  2  0  0  0  0  0  0  0  0  0
   24.7158  -22.8326  -14.0812 N   0  0  0  0  0  0  0  0  0  0  0  0
   22.3501  -22.4549  -14.4412 C   0  0  0  0  0  0  0  0  0  0  0  0
   22.1853  -22.2887  -13.1894 O   0  0  0  0  0  0  0  0  0  0  0  0
   20.9233  -18.9647  -15.3183 C   0  0  0  0  0  0  0  0  0  0  0  0
   19.8643  -20.0210  -15.5174 C   0  0  1  0  0  0  0  0  0  0  0  0
   19.8480  -20.3705  -16.8559 O   0  0  0  0  0  0  0  0  0  0  0  0
   20.1483  -21.2527  -14.6553 C   0  0  2  0  0  0  0  0  0  0  0  0
   21.3120  -21.9345  -15.2476 N   0  0  0  0  0  0  0  0  0  0  0  0
   18.9700  -22.1177  -14.6285 C   0  0  0  0  0  0  0  0  0  0  0  0
   17.9157  -21.7693  -13.8025 O   0  0  0  0  0  0  0  0  0  0  0  0
   18.8675  -23.1652  -15.3205 O   0  0  0  0  0  0  0  0  0  0  0  0
  2  1  1  6
  2  3  1  0
  3  4  1  0
  4  5  2  0
  5  6  1  0
  7  6  1  0
  8  7  2  0
  9  8  1  0
 10 11  1  0
 10  9  2  0
 11 12  2  0
 12  4  1  0
 12  7  1  0
 13 21  1  0
 13  2  1  0
 14 13  2  0
 16 17  2  0
 16 15  1  0
 18 16  1  0
 19 18  1  0
 20 21  1  0
 20 19  1  1
 22 20  1  0
 23 22  2  0
 25 24  1  6
 25 26  1  0
 25 27  1  0
 27 29  1  0
 27 28  1  6
 28 22  1  0
 29 30  1  0
 31 29  2  0
M  END
$$$$
