WQT.pdb
     RDKit          3D

 31 32  0  0  1  0  0  0  0  0999 V2000
   28.3161  -22.0926  -13.3294 N   0  0  0  0  0  0  0  0  0  0  0  0
   27.1050  -21.8271  -12.5664 C   0  0  1  0  0  0  0  0  0  0  0  0
   27.1566  -20.3936  -12.0213 C   0  0  0  0  0  0  0  0  0  0  0  0
   28.0451  -20.3930  -10.8545 C   0  0  0  0  0  0  0  0  0  0  0  0
   29.4218  -20.4729  -10.8735 C   0  0  0  0  0  0  0  0  0  0  0  0
   29.8565  -20.4445   -9.6121 N   0  0  0  0  0  0  0  0  0  0  0  0
   28.8295  -20.3485   -8.7385 C   0  0  0  0  0  0  0  0  0  0  0  0
   28.7381  -20.2840   -7.3632 C   0  0  0  0  0  0  0  0  0  0  0  0
   27.5105  -20.1862   -6.7430 C   0  0  0  0  0  0  0  0  0  0  0  0
   26.3678  -20.1532   -7.5163 C   0  0  0  0  0  0  0  0  0  0  0  0
   26.4550  -20.2175   -8.8912 C   0  0  0  0  0  0  0  0  0  0  0  0
   27.6856  -20.3162   -9.5278 C   0  0  0  0  0  0  0  0  0  0  0  0
   25.9259  -21.8662  -13.4622 C   0  0  0  0  0  0  0  0  0  0  0  0
   26.0062  -21.2745  -14.5555 O   0  0  0  0  0  0  0  0  0  0  0  0
   23.9179  -25.5017  -15.9292 N   0  0  0  0  0  0  0  0  0  0  0  0
   22.4986  -25.3308  -15.7852 C   0  0  0  0  0  0  0  0  0  0  0  0
   21.6946  -25.8065  -16.6166 O   0  0  0  0  0  0  0  0  0  0  0  0
   21.9888  -24.5540  -14.5921 C   0  0  0  0  0  0  0  0  0  0  0  0
   23.1801  -24.1223  -13.8177 C   0  0  0  0  0  0  0  0  0  0  0  0
   23.6667  -22.7312  -14.0265 C   0  0  2  0  0  0  0  0  0  0  0  0
   24.7723  -22.5519  -13.0706 N   0  0  0  0  0  0  0  0  0  0  0  0
   22.6746  -21.6568  -13.8876 C   0  0  0  0  0  0  0  0  0  0  0  0
   22.2448  -21.3419  -12.7309 O   0  0  0  0  0  0  0  0  0  0  0  0
   22.2870  -18.0069  -15.7438 C   0  0  0  0  0  0  0  0  0  0  0  0
   21.0933  -18.9214  -15.8699 C   0  0  1  0  0  0  0  0  0  0  0  0
   21.1860  -19.5896  -17.0777 O   0  0  0  0  0  0  0  0  0  0  0  0
   21.0459  -19.9247  -14.7157 C   0  0  2  0  0  0  0  0  0  0  0  0
   22.1249  -20.9002  -14.9478 N   0  0  0  0  0  0  0  0  0  0  0  0
   19.7338  -20.5681  -14.6759 C   0  0  0  0  0  0  0  0  0  0  0  0
   18.6759  -19.8731  -14.1165 O   0  0  0  0  0  0  0  0  0  0  0  0
   19.5189  -21.7249  -15.1260 O   0  0  0  0  0  0  0  0  0  0  0  0
  2  1  1  6
  2  3  1  0
  3  4  1  0
  4  5  2  0
  5  6  1  0
  7  6  1  0
  8  7  2  0
  9  8  1  0
 10 11  1  0
 10  9  2  0
 11 12  2  0
 12  4  1  0
 12  7  1  0
 13 21  1  0
 13  2  1  0
 14 13  2  0
 16 17  2  0
 16 15  1  0
 18 16  1  0
 19 18  1  0
 20 21  1  0
 20 19  1  1
 22 20  1  0
 23 22  2  0
 25 24  1  1
 25 26  1  0
 25 27  1  0
 27 29  1  0
 27 28  1  6
 28 22  1  0
 29 30  1  0
 31 29  2  0
M  END
$$$$
