WQT.pdb
     RDKit          3D

 31 32  0  0  1  0  0  0  0  0999 V2000
   28.8069  -21.2703  -10.9880 N   0  0  0  0  0  0  0  0  0  0  0  0
   27.4862  -21.3280  -10.3782 C   0  0  1  0  0  0  0  0  0  0  0  0
   27.3790  -20.2378   -9.3036 C   0  0  0  0  0  0  0  0  0  0  0  0
   28.3942  -20.5180   -8.2828 C   0  0  0  0  0  0  0  0  0  0  0  0
   29.5825  -21.1916   -8.4730 C   0  0  0  0  0  0  0  0  0  0  0  0
   30.2235  -21.2403   -7.3035 N   0  0  0  0  0  0  0  0  0  0  0  0
   29.5172  -20.6267   -6.3280 C   0  0  0  0  0  0  0  0  0  0  0  0
   29.7270  -20.4033   -4.9826 C   0  0  0  0  0  0  0  0  0  0  0  0
   28.7942  -19.7237   -4.2279 C   0  0  0  0  0  0  0  0  0  0  0  0
   27.6423  -19.2668   -4.8356 C   0  0  0  0  0  0  0  0  0  0  0  0
   27.4291  -19.4880   -6.1800 C   0  0  0  0  0  0  0  0  0  0  0  0
   28.3610  -20.1711   -6.9510 C   0  0  0  0  0  0  0  0  0  0  0  0
   26.4513  -20.9935  -11.3838 C   0  0  0  0  0  0  0  0  0  0  0  0
   26.6696  -20.0322  -12.1454 O   0  0  0  0  0  0  0  0  0  0  0  0
   24.3631  -25.4854  -14.0341 N   0  0  0  0  0  0  0  0  0  0  0  0
   23.3998  -24.6529  -14.7000 C   0  0  0  0  0  0  0  0  0  0  0  0
   22.6210  -25.1150  -15.5625 O   0  0  0  0  0  0  0  0  0  0  0  0
   23.3452  -23.1871  -14.3326 C   0  0  0  0  0  0  0  0  0  0  0  0
   24.2505  -22.9999  -13.1704 C   0  0  0  0  0  0  0  0  0  0  0  0
   24.3957  -21.6209  -12.6293 C   0  0  2  0  0  0  0  0  0  0  0  0
   25.2765  -21.7477  -11.4562 N   0  0  0  0  0  0  0  0  0  0  0  0
   23.1557  -20.9150  -12.2796 C   0  0  0  0  0  0  0  0  0  0  0  0
   22.6979  -20.9955  -11.0940 O   0  0  0  0  0  0  0  0  0  0  0  0
   20.7790  -18.6927  -15.0608 C   0  0  0  0  0  0  0  0  0  0  0  0
   20.9503  -18.2355  -13.6330 C   0  0  1  0  0  0  0  0  0  0  0  0
   19.8127  -17.5412  -13.2617 O   0  0  0  0  0  0  0  0  0  0  0  0
   21.1688  -19.4263  -12.6974 C   0  0  2  0  0  0  0  0  0  0  0  0
   22.3851  -20.1183  -13.1572 N   0  0  0  0  0  0  0  0  0  0  0  0
   19.9999  -20.3035  -12.7353 C   0  0  0  0  0  0  0  0  0  0  0  0
   18.8295  -19.8676  -12.1392 O   0  0  0  0  0  0  0  0  0  0  0  0
   20.0059  -21.4374  -13.2840 O   0  0  0  0  0  0  0  0  0  0  0  0
  2  1  1  6
  2  3  1  0
  3  4  1  0
  4  5  2  0
  5  6  1  0
  7  6  1  0
  8  7  2  0
  9  8  1  0
 10 11  1  0
 10  9  2  0
 11 12  2  0
 12  4  1  0
 12  7  1  0
 13 21  1  0
 13  2  1  0
 14 13  2  0
 16 17  2  0
 16 15  1  0
 18 16  1  0
 19 18  1  0
 20 21  1  0
 20 19  1  1
 22 20  1  0
 23 22  2  0
 25 24  1  6
 25 26  1  0
 25 27  1  0
 27 29  1  0
 27 28  1  6
 28 22  1  0
 29 30  1  0
 31 29  2  0
M  END
$$$$
