WQT.pdb
     RDKit          3D

 31 32  0  0  1  0  0  0  0  0999 V2000
   26.5127  -22.8335  -11.3264 N   0  0  0  0  0  0  0  0  0  0  0  0
   25.9385  -21.5172  -11.0874 C   0  0  1  0  0  0  0  0  0  0  0  0
   27.0211  -20.4497  -11.2946 C   0  0  0  0  0  0  0  0  0  0  0  0
   28.0406  -20.6430  -10.2581 C   0  0  0  0  0  0  0  0  0  0  0  0
   29.2414  -21.3054  -10.4041 C   0  0  0  0  0  0  0  0  0  0  0  0
   29.8824  -21.2650   -9.2344 N   0  0  0  0  0  0  0  0  0  0  0  0
   29.1642  -20.6016   -8.3010 C   0  0  0  0  0  0  0  0  0  0  0  0
   29.3689  -20.2861   -6.9734 C   0  0  0  0  0  0  0  0  0  0  0  0
   28.4231  -19.5757   -6.2647 C   0  0  0  0  0  0  0  0  0  0  0  0
   27.2634  -19.1813   -6.9005 C   0  0  0  0  0  0  0  0  0  0  0  0
   27.0552  -19.4947   -8.2274 C   0  0  0  0  0  0  0  0  0  0  0  0
   28.0002  -20.2097   -8.9521 C   0  0  0  0  0  0  0  0  0  0  0  0
   24.9000  -21.2280  -12.1033 C   0  0  0  0  0  0  0  0  0  0  0  0
   25.1124  -21.5978  -13.2738 O   0  0  0  0  0  0  0  0  0  0  0  0
   20.9539  -20.6102   -9.2253 N   0  0  0  0  0  0  0  0  0  0  0  0
   20.5783  -21.7804   -9.9696 C   0  0  0  0  0  0  0  0  0  0  0  0
   20.1378  -22.8037   -9.4014 O   0  0  0  0  0  0  0  0  0  0  0  0
   20.7279  -21.7501  -11.4740 C   0  0  0  0  0  0  0  0  0  0  0  0
   21.3738  -20.4577  -11.8172 C   0  0  0  0  0  0  0  0  0  0  0  0
   22.5922  -20.5052  -12.6708 C   0  0  2  0  0  0  0  0  0  0  0  0
   23.7279  -20.5609  -11.7353 N   0  0  0  0  0  0  0  0  0  0  0  0
   22.7635  -19.4132  -13.6384 C   0  0  0  0  0  0  0  0  0  0  0  0
   23.0529  -18.2442  -13.2243 O   0  0  0  0  0  0  0  0  0  0  0  0
   24.8799  -19.0441  -17.0042 C   0  0  0  0  0  0  0  0  0  0  0  0
   23.4047  -18.8071  -17.2153 C   0  0  1  0  0  0  0  0  0  0  0  0
   22.8354  -19.9885  -17.6558 O   0  0  0  0  0  0  0  0  0  0  0  0
   22.7312  -18.3492  -15.9200 C   0  0  2  0  0  0  0  0  0  0  0  0
   22.6388  -19.5283  -15.0420 N   0  0  0  0  0  0  0  0  0  0  0  0
   21.4128  -17.7932  -16.2201 C   0  0  0  0  0  0  0  0  0  0  0  0
   21.3447  -16.5757  -16.8744 O   0  0  0  0  0  0  0  0  0  0  0  0
   20.3353  -18.3684  -15.9120 O   0  0  0  0  0  0  0  0  0  0  0  0
  2  1  1  6
  2  3  1  0
  3  4  1  0
  4  5  2  0
  5  6  1  0
  7  6  1  0
  8  7  2  0
  9  8  1  0
 10 11  1  0
 10  9  2  0
 11 12  2  0
 12  4  1  0
 12  7  1  0
 13 21  1  0
 13  2  1  0
 14 13  2  0
 16 17  2  0
 16 15  1  0
 18 16  1  0
 19 18  1  0
 20 21  1  0
 20 19  1  1
 22 20  1  0
 23 22  2  0
 25 24  1  1
 25 26  1  0
 25 27  1  0
 27 29  1  0
 27 28  1  1
 28 22  1  0
 29 30  1  0
 31 29  2  0
M  END
$$$$
