WQT.pdb
     RDKit          3D

 31 32  0  0  1  0  0  0  0  0999 V2000
   32.1945   -6.2475  -15.1380 N   0  0  0  0  0  0  0  0  0  0  0  0
   33.3885   -6.5833  -15.9003 C   0  0  1  0  0  0  0  0  0  0  0  0
   33.4484   -5.7041  -17.1566 C   0  0  0  0  0  0  0  0  0  0  0  0
   32.3203   -6.0784  -18.0158 C   0  0  0  0  0  0  0  0  0  0  0  0
   31.1134   -5.4188  -18.1161 C   0  0  0  0  0  0  0  0  0  0  0  0
   30.3560   -6.0717  -18.9999 N   0  0  0  0  0  0  0  0  0  0  0  0
   31.0013   -7.1477  -19.5028 C   0  0  0  0  0  0  0  0  0  0  0  0
   30.6739   -8.1245  -20.4207 C   0  0  0  0  0  0  0  0  0  0  0  0
   31.5716   -9.1221  -20.7376 C   0  0  0  0  0  0  0  0  0  0  0  0
   32.8077   -9.1335  -20.1237 C   0  0  0  0  0  0  0  0  0  0  0  0
   33.1386   -8.1589  -19.2058 C   0  0  0  0  0  0  0  0  0  0  0  0
   32.2432   -7.1487  -18.8782 C   0  0  0  0  0  0  0  0  0  0  0  0
   34.5990   -6.2382  -15.1194 C   0  0  0  0  0  0  0  0  0  0  0  0
   34.5027   -5.3365  -14.2653 O   0  0  0  0  0  0  0  0  0  0  0  0
   36.8195   -7.0570  -11.4490 N   0  0  0  0  0  0  0  0  0  0  0  0
   38.1718   -7.4777  -11.6912 C   0  0  0  0  0  0  0  0  0  0  0  0
   39.0635   -7.3448  -10.8245 O   0  0  0  0  0  0  0  0  0  0  0  0
   38.5004   -8.0928  -13.0330 C   0  0  0  0  0  0  0  0  0  0  0  0
   37.2723   -7.9991  -13.8626 C   0  0  0  0  0  0  0  0  0  0  0  0
   36.9570   -6.6794  -14.4745 C   0  0  2  0  0  0  0  0  0  0  0  0
   35.7986   -6.9175  -15.3517 N   0  0  0  0  0  0  0  0  0  0  0  0
   38.0426   -6.0158  -15.2087 C   0  0  0  0  0  0  0  0  0  0  0  0
   38.4418   -6.5003  -16.3167 O   0  0  0  0  0  0  0  0  0  0  0  0
   41.3330   -2.2799  -15.6885 C   0  0  0  0  0  0  0  0  0  0  0  0
   40.2202   -2.9571  -14.9268 C   0  0  1  0  0  0  0  0  0  0  0  0
   39.1408   -2.0931  -14.8786 O   0  0  0  0  0  0  0  0  0  0  0  0
   39.8139   -4.2698  -15.5996 C   0  0  2  0  0  0  0  0  0  0  0  0
   38.7183   -4.8433  -14.7994 N   0  0  0  0  0  0  0  0  0  0  0  0
   40.9656   -5.1681  -15.6629 C   0  0  0  0  0  0  0  0  0  0  0  0
   41.2063   -6.0073  -14.5892 O   0  0  0  0  0  0  0  0  0  0  0  0
   41.7501   -5.2153  -16.6473 O   0  0  0  0  0  0  0  0  0  0  0  0
  2  1  1  1
  2  3  1  0
  3  4  1  0
  4  5  2  0
  5  6  1  0
  7  6  1  0
  8  7  2  0
  9  8  1  0
 10 11  1  0
 10  9  2  0
 11 12  2  0
 12  4  1  0
 12  7  1  0
 13 21  1  0
 13  2  1  0
 14 13  2  0
 16 17  2  0
 16 15  1  0
 18 16  1  0
 19 18  1  0
 20 21  1  0
 20 19  1  6
 22 20  1  0
 23 22  2  0
 25 24  1  6
 25 26  1  0
 25 27  1  0
 27 29  1  0
 27 28  1  1
 28 22  1  0
 29 30  1  0
 31 29  2  0
M  END
$$$$
