WQT.pdb
     RDKit          3D

 31 32  0  0  1  0  0  0  0  0999 V2000
   24.4777  -19.8071   -9.1804 N   0  0  0  0  0  0  0  0  0  0  0  0
   25.8119  -20.0396   -9.7145 C   0  0  1  0  0  0  0  0  0  0  0  0
   26.3805  -21.3289   -9.1069 C   0  0  0  0  0  0  0  0  0  0  0  0
   26.5578  -21.1026   -7.6688 C   0  0  0  0  0  0  0  0  0  0  0  0
   25.5962  -21.2521   -6.6916 C   0  0  0  0  0  0  0  0  0  0  0  0
   26.1495  -20.9500   -5.5154 N   0  0  0  0  0  0  0  0  0  0  0  0
   27.4479  -20.6016   -5.6560 C   0  0  0  0  0  0  0  0  0  0  0  0
   28.4411  -20.2140   -4.7801 C   0  0  0  0  0  0  0  0  0  0  0  0
   29.7069  -19.9154   -5.2383 C   0  0  0  0  0  0  0  0  0  0  0  0
   29.9715  -20.0087   -6.5897 C   0  0  0  0  0  0  0  0  0  0  0  0
   28.9815  -20.3958   -7.4683 C   0  0  0  0  0  0  0  0  0  0  0  0
   27.7026  -20.6993   -7.0191 C   0  0  0  0  0  0  0  0  0  0  0  0
   25.7348  -20.2912  -11.1722 C   0  0  0  0  0  0  0  0  0  0  0  0
   24.6056  -20.4298  -11.6796 O   0  0  0  0  0  0  0  0  0  0  0  0
   29.8612  -21.5714  -14.8369 N   0  0  0  0  0  0  0  0  0  0  0  0
   29.3732  -20.5909  -15.7669 C   0  0  0  0  0  0  0  0  0  0  0  0
   29.7069  -20.6090  -16.9719 O   0  0  0  0  0  0  0  0  0  0  0  0
   28.4351  -19.5220  -15.2530 C   0  0  0  0  0  0  0  0  0  0  0  0
   28.2126  -19.8002  -13.8114 C   0  0  0  0  0  0  0  0  0  0  0  0
   26.8418  -20.2032  -13.3942 C   0  0  2  0  0  0  0  0  0  0  0  0
   26.9058  -20.3659  -11.9322 N   0  0  0  0  0  0  0  0  0  0  0  0
   26.2840  -21.4038  -14.0310 C   0  0  0  0  0  0  0  0  0  0  0  0
   26.7203  -22.5533  -13.6991 O   0  0  0  0  0  0  0  0  0  0  0  0
   23.2391  -23.2465  -13.7689 C   0  0  0  0  0  0  0  0  0  0  0  0
   23.3530  -22.8745  -15.2268 C   0  0  1  0  0  0  0  0  0  0  0  0
   22.6414  -21.7059  -15.4320 O   0  0  0  0  0  0  0  0  0  0  0  0
   24.8156  -22.6778  -15.6307 C   0  0  2  0  0  0  0  0  0  0  0  0
   25.2677  -21.4191  -15.0137 N   0  0  0  0  0  0  0  0  0  0  0  0
   24.9228  -22.6353  -17.0881 C   0  0  0  0  0  0  0  0  0  0  0  0
   24.8825  -23.8292  -17.7867 O   0  0  0  0  0  0  0  0  0  0  0  0
   25.0503  -21.5646  -17.7393 O   0  0  0  0  0  0  0  0  0  0  0  0
  2  1  1  1
  2  3  1  0
  3  4  1  0
  4  5  2  0
  5  6  1  0
  7  6  1  0
  8  7  2  0
  9  8  1  0
 10 11  1  0
 10  9  2  0
 11 12  2  0
 12  4  1  0
 12  7  1  0
 13 21  1  0
 13  2  1  0
 14 13  2  0
 16 17  2  0
 16 15  1  0
 18 16  1  0
 19 18  1  0
 20 21  1  0
 20 19  1  6
 22 20  1  0
 23 22  2  0
 25 24  1  1
 25 26  1  0
 25 27  1  0
 27 29  1  0
 27 28  1  1
 28 22  1  0
 29 30  1  0
 31 29  2  0
M  END
$$$$
