AAS.pdb
     RDKit          3D

 17 16  0  0  1  0  0  0  0  0999 V2000
   -2.8182  -22.6124   27.6408 C   0  0  0  0  0  0  0  0  0  0  0  0
   -4.0700  -23.4404   27.6995 C   0  0  2  0  0  0  0  0  0  0  0  0
   -4.9107  -23.0910   26.5935 N   0  0  0  0  0  0  0  0  0  0  0  0
   -4.7687  -23.3190   29.0059 C   0  0  0  0  0  0  0  0  0  0  0  0
   -4.1651  -23.6593   30.0309 O   0  0  0  0  0  0  0  0  0  0  0  0
   -8.0187  -21.8052   30.2436 C   0  0  0  0  0  0  0  0  0  0  0  0
   -6.8462  -22.7523   30.3221 C   0  0  2  0  0  0  0  0  0  0  0  0
   -6.0934  -22.8291   29.1057 N   0  0  0  0  0  0  0  0  0  0  0  0
   -7.3717  -24.0726   30.7576 C   0  0  0  0  0  0  0  0  0  0  0  0
   -7.8379  -24.8476   29.8821 O   0  0  0  0  0  0  0  0  0  0  0  0
   -6.8739  -25.3133   34.5611 O   0  0  0  0  0  0  0  0  0  0  0  0
   -7.0222  -26.3744   33.6610 C   0  0  0  0  0  0  0  0  0  0  0  0
   -7.8379  -25.8452   32.4997 C   0  0  2  0  0  0  0  0  0  0  0  0
   -7.3888  -24.5288   32.0868 N   0  0  0  0  0  0  0  0  0  0  0  0
   -9.2228  -25.7058   32.9727 C   0  0  0  0  0  0  0  0  0  0  0  0
   -9.7539  -24.5877   33.0562 O   0  0  0  0  0  0  0  0  0  0  0  0
   -9.9410  -26.8253   33.3276 O   0  0  0  0  0  0  0  0  0  0  0  0
  2  1  1  1
  2  3  1  0
  4  5  2  0
  4  2  1  0
  7  6  1  6
  7  8  1  0
  8  4  1  0
  9  7  1  0
 10  9  2  0
 11 12  1  0
 13 12  1  1
 13 15  1  0
 13 14  1  0
 14  9  1  0
 15 17  1  0
 16 15  2  0
M  END
$$$$
