AAS.pdb
     RDKit          3D

 17 16  0  0  1  0  0  0  0  0999 V2000
    7.5398  -11.3416   26.5275 C   0  0  0  0  0  0  0  0  0  0  0  0
    6.3997  -12.0991   25.9091 C   0  0  2  0  0  0  0  0  0  0  0  0
    5.4528  -12.4303   26.9317 N   0  0  0  0  0  0  0  0  0  0  0  0
    6.8578  -13.2920   25.1498 C   0  0  0  0  0  0  0  0  0  0  0  0
    7.0757  -14.3388   25.7722 O   0  0  0  0  0  0  0  0  0  0  0  0
    7.5473  -14.0742   21.4799 C   0  0  0  0  0  0  0  0  0  0  0  0
    7.4966  -14.3702   22.9591 C   0  0  2  0  0  0  0  0  0  0  0  0
    7.0490  -13.2607   23.7471 N   0  0  0  0  0  0  0  0  0  0  0  0
    8.8432  -14.8544   23.3603 C   0  0  0  0  0  0  0  0  0  0  0  0
    9.7400  -14.0017   23.5906 O   0  0  0  0  0  0  0  0  0  0  0  0
   11.6114  -18.1767   25.3818 O   0  0  0  0  0  0  0  0  0  0  0  0
   10.3210  -17.8049   24.9886 C   0  0  0  0  0  0  0  0  0  0  0  0
   10.4812  -16.6737   23.9942 C   0  0  2  0  0  0  0  0  0  0  0  0
    9.1978  -16.2068   23.5044 N   0  0  0  0  0  0  0  0  0  0  0  0
   11.2186  -17.2125   22.8422 C   0  0  0  0  0  0  0  0  0  0  0  0
   10.6160  -17.5983   21.8288 O   0  0  0  0  0  0  0  0  0  0  0  0
   12.5924  -17.2912   22.8848 O   0  0  0  0  0  0  0  0  0  0  0  0
  2  1  1  1
  2  3  1  0
  4  5  2  0
  4  2  1  0
  7  6  1  6
  7  8  1  0
  8  4  1  0
  9  7  1  0
 10  9  2  0
 11 12  1  0
 13 12  1  1
 13 15  1  0
 13 14  1  0
 14  9  1  0
 15 17  1  0
 16 15  2  0
M  END
$$$$
