AAS.pdb
     RDKit          3D

 17 16  0  0  1  0  0  0  0  0999 V2000
   12.8933  -20.0581   14.6976 C   0  0  0  0  0  0  0  0  0  0  0  0
   11.6514  -19.2286   14.8576 C   0  0  2  0  0  0  0  0  0  0  0  0
   11.4526  -18.4551   13.6685 N   0  0  0  0  0  0  0  0  0  0  0  0
   11.6851  -18.3889   16.0837 C   0  0  0  0  0  0  0  0  0  0  0  0
   11.8759  -17.1728   15.9600 O   0  0  0  0  0  0  0  0  0  0  0  0
   11.0628  -18.9996   19.7944 C   0  0  0  0  0  0  0  0  0  0  0  0
   11.4437  -18.1778   18.5870 C   0  0  2  0  0  0  0  0  0  0  0  0
   11.5062  -18.9400   17.3757 N   0  0  0  0  0  0  0  0  0  0  0  0
   12.7249  -17.4940   18.9029 C   0  0  0  0  0  0  0  0  0  0  0  0
   13.8004  -18.1073   18.6765 O   0  0  0  0  0  0  0  0  0  0  0  0
   13.5417  -13.7729   18.0753 O   0  0  0  0  0  0  0  0  0  0  0  0
   13.8716  -13.9787   19.4195 C   0  0  0  0  0  0  0  0  0  0  0  0
   14.0752  -15.4697   19.5912 C   0  0  2  0  0  0  0  0  0  0  0  0
   12.8305  -16.2000   19.4414 N   0  0  0  0  0  0  0  0  0  0  0  0
   14.5453  -15.6858   20.9673 C   0  0  0  0  0  0  0  0  0  0  0  0
   13.8304  -16.2692   21.7965 O   0  0  0  0  0  0  0  0  0  0  0  0
   15.7913  -15.2373   21.3433 O   0  0  0  0  0  0  0  0  0  0  0  0
  2  1  1  6
  2  3  1  0
  4  5  2  0
  4  2  1  0
  7  6  1  1
  7  8  1  0
  8  4  1  0
  9  7  1  0
 10  9  2  0
 11 12  1  0
 13 12  1  1
 13 15  1  0
 13 14  1  0
 14  9  1  0
 15 17  1  0
 16 15  2  0
M  END
$$$$
