AAS.pdb
     RDKit          3D

 17 16  0  0  1  0  0  0  0  0999 V2000
    7.7280  -16.9848   16.2269 C   0  0  0  0  0  0  0  0  0  0  0  0
    8.1856  -15.5589   16.1110 C   0  0  2  0  0  0  0  0  0  0  0  0
    9.0641  -15.4427   14.9855 N   0  0  0  0  0  0  0  0  0  0  0  0
    8.8012  -15.0577   17.3676 C   0  0  0  0  0  0  0  0  0  0  0  0
    9.9833  -15.3406   17.5985 O   0  0  0  0  0  0  0  0  0  0  0  0
    7.6554  -12.8770   20.2781 C   0  0  0  0  0  0  0  0  0  0  0  0
    8.5867  -13.8210   19.5572 C   0  0  2  0  0  0  0  0  0  0  0  0
    8.0766  -14.2729   18.2972 N   0  0  0  0  0  0  0  0  0  0  0  0
    8.8923  -14.9386   20.4881 C   0  0  0  0  0  0  0  0  0  0  0  0
    8.1373  -15.9457   20.4797 O   0  0  0  0  0  0  0  0  0  0  0  0
   12.4050  -16.3063   21.5483 O   0  0  0  0  0  0  0  0  0  0  0  0
   11.6897  -16.0838   22.7301 C   0  0  0  0  0  0  0  0  0  0  0  0
   10.2264  -16.0199   22.3443 C   0  0  2  0  0  0  0  0  0  0  0  0
    9.9716  -14.9589   21.3880 N   0  0  0  0  0  0  0  0  0  0  0  0
    9.4717  -15.6987   23.5643 C   0  0  0  0  0  0  0  0  0  0  0  0
    8.8686  -14.6198   23.6703 O   0  0  0  0  0  0  0  0  0  0  0  0
    9.4315  -16.6023   24.6021 O   0  0  0  0  0  0  0  0  0  0  0  0
  2  1  1  1
  2  3  1  0
  4  5  2  0
  4  2  1  0
  7  6  1  1
  7  8  1  0
  8  4  1  0
  9  7  1  0
 10  9  2  0
 11 12  1  0
 13 12  1  1
 13 15  1  0
 13 14  1  0
 14  9  1  0
 15 17  1  0
 16 15  2  0
M  END
$$$$
