AAS.pdb
     RDKit          3D

 17 16  0  0  1  0  0  0  0  0999 V2000
    8.0604  -15.6129   16.5011 C   0  0  0  0  0  0  0  0  0  0  0  0
    7.7152  -14.3235   17.1897 C   0  0  2  0  0  0  0  0  0  0  0  0
    8.1430  -13.2296   16.3697 N   0  0  0  0  0  0  0  0  0  0  0  0
    8.2676  -14.2517   18.5678 C   0  0  0  0  0  0  0  0  0  0  0  0
    9.4194  -13.8262   18.7196 O   0  0  0  0  0  0  0  0  0  0  0  0
    6.9178  -14.8931   22.0726 C   0  0  0  0  0  0  0  0  0  0  0  0
    7.9930  -14.6182   21.0497 C   0  0  2  0  0  0  0  0  0  0  0  0
    7.5169  -14.6537   19.6990 N   0  0  0  0  0  0  0  0  0  0  0  0
    9.0960  -15.5835   21.2962 C   0  0  0  0  0  0  0  0  0  0  0  0
    9.1098  -16.6552   20.6362 O   0  0  0  0  0  0  0  0  0  0  0  0
   13.4739  -16.6400   22.9527 O   0  0  0  0  0  0  0  0  0  0  0  0
   12.5149  -15.6370   22.7726 C   0  0  0  0  0  0  0  0  0  0  0  0
   11.2088  -16.3384   22.4626 C   0  0  2  0  0  0  0  0  0  0  0  0
   10.1375  -15.3906   22.2200 N   0  0  0  0  0  0  0  0  0  0  0  0
   10.8424  -17.1159   23.6552 C   0  0  0  0  0  0  0  0  0  0  0  0
    9.9827  -16.6963   24.4452 O   0  0  0  0  0  0  0  0  0  0  0  0
   11.4575  -18.3226   23.9014 O   0  0  0  0  0  0  0  0  0  0  0  0
  2  1  1  6
  2  3  1  0
  4  5  2  0
  4  2  1  0
  7  6  1  1
  7  8  1  0
  8  4  1  0
  9  7  1  0
 10  9  2  0
 11 12  1  0
 13 12  1  1
 13 15  1  0
 13 14  1  0
 14  9  1  0
 15 17  1  0
 16 15  2  0
M  END
$$$$
