AAS.pdb
     RDKit          3D

 17 16  0  0  1  0  0  0  0  0999 V2000
    8.6319  -18.9506   15.5076 C   0  0  0  0  0  0  0  0  0  0  0  0
    7.5880  -17.9736   15.9678 C   0  0  2  0  0  0  0  0  0  0  0  0
    7.7589  -16.7417   15.2571 N   0  0  0  0  0  0  0  0  0  0  0  0
    7.5986  -17.7860   17.4423 C   0  0  0  0  0  0  0  0  0  0  0  0
    8.3513  -16.9293   17.9221 O   0  0  0  0  0  0  0  0  0  0  0  0
    5.5703  -19.1271   20.3676 C   0  0  0  0  0  0  0  0  0  0  0  0
    6.7469  -18.4299   19.7291 C   0  0  2  0  0  0  0  0  0  0  0  0
    6.7776  -18.5549   18.3024 N   0  0  0  0  0  0  0  0  0  0  0  0
    7.9772  -18.9524   20.3788 C   0  0  0  0  0  0  0  0  0  0  0  0
    8.5184  -19.9797   19.8931 O   0  0  0  0  0  0  0  0  0  0  0  0
   10.8131  -16.7133   21.9018 O   0  0  0  0  0  0  0  0  0  0  0  0
   10.5473  -17.7233   22.8330 C   0  0  0  0  0  0  0  0  0  0  0  0
    9.8460  -18.8335   22.0783 C   0  0  2  0  0  0  0  0  0  0  0  0
    8.5911  -18.3818   21.5071 N   0  0  0  0  0  0  0  0  0  0  0  0
    9.5279  -19.8854   23.0547 C   0  0  0  0  0  0  0  0  0  0  0  0
    8.3538  -20.1031   23.3912 O   0  0  0  0  0  0  0  0  0  0  0  0
   10.5408  -20.6390   23.6035 O   0  0  0  0  0  0  0  0  0  0  0  0
  2  1  1  1
  2  3  1  0
  4  5  2  0
  4  2  1  0
  7  6  1  1
  7  8  1  0
  8  4  1  0
  9  7  1  0
 10  9  2  0
 11 12  1  0
 13 12  1  1
 13 15  1  0
 13 14  1  0
 14  9  1  0
 15 17  1  0
 16 15  2  0
M  END
$$$$
