AAS.pdb
     RDKit          3D

 17 16  0  0  1  0  0  0  0  0999 V2000
    6.3142  -14.1931   19.6706 C   0  0  0  0  0  0  0  0  0  0  0  0
    7.6626  -13.6752   20.0825 C   0  0  2  0  0  0  0  0  0  0  0  0
    8.6303  -14.0659   19.1012 N   0  0  0  0  0  0  0  0  0  0  0  0
    8.0390  -14.1040   21.4551 C   0  0  0  0  0  0  0  0  0  0  0  0
    8.7449  -15.1117   21.5849 O   0  0  0  0  0  0  0  0  0  0  0  0
    7.4978  -12.7347   24.9717 C   0  0  0  0  0  0  0  0  0  0  0  0
    7.9395  -13.7570   23.9529 C   0  0  2  0  0  0  0  0  0  0  0  0
    7.6144  -13.3958   22.6054 N   0  0  0  0  0  0  0  0  0  0  0  0
    7.3561  -15.0635   24.3548 C   0  0  0  0  0  0  0  0  0  0  0  0
    6.1570  -15.2997   24.0535 O   0  0  0  0  0  0  0  0  0  0  0  0
    8.9931  -18.5319   23.9429 O   0  0  0  0  0  0  0  0  0  0  0  0
    7.6269  -18.3087   24.1470 C   0  0  0  0  0  0  0  0  0  0  0  0
    7.5134  -17.3860   25.3427 C   0  0  2  0  0  0  0  0  0  0  0  0
    8.0472  -16.0682   25.0536 N   0  0  0  0  0  0  0  0  0  0  0  0
    8.3363  -17.9649   26.4146 C   0  0  0  0  0  0  0  0  0  0  0  0
    9.3092  -17.3452   26.8710 O   0  0  0  0  0  0  0  0  0  0  0  0
    8.0270  -19.2077   26.9197 O   0  0  0  0  0  0  0  0  0  0  0  0
  2  1  1  6
  2  3  1  0
  4  5  2  0
  4  2  1  0
  7  6  1  1
  7  8  1  0
  8  4  1  0
  9  7  1  0
 10  9  2  0
 11 12  1  0
 13 12  1  6
 13 15  1  0
 13 14  1  0
 14  9  1  0
 15 17  1  0
 16 15  2  0
M  END
$$$$
