AAS.pdb
     RDKit          3D

 17 16  0  0  1  0  0  0  0  0999 V2000
    7.3485  -16.5756   15.8624 C   0  0  0  0  0  0  0  0  0  0  0  0
    8.0807  -15.2656   15.9234 C   0  0  2  0  0  0  0  0  0  0  0  0
    9.0930  -15.2512   14.9099 N   0  0  0  0  0  0  0  0  0  0  0  0
    8.6267  -14.9843   17.2770 C   0  0  0  0  0  0  0  0  0  0  0  0
    9.7081  -15.4948   17.5941 O   0  0  0  0  0  0  0  0  0  0  0  0
    7.5506  -12.8436   20.2450 C   0  0  0  0  0  0  0  0  0  0  0  0
    8.4292  -13.8273   19.5112 C   0  0  2  0  0  0  0  0  0  0  0  0
    7.9475  -14.1556   18.2027 N   0  0  0  0  0  0  0  0  0  0  0  0
    8.5826  -15.0207   20.3837 C   0  0  0  0  0  0  0  0  0  0  0  0
    7.6706  -15.8882   20.3741 O   0  0  0  0  0  0  0  0  0  0  0  0
   12.1212  -16.3722   21.2893 O   0  0  0  0  0  0  0  0  0  0  0  0
   11.0624  -17.2751   21.4359 C   0  0  0  0  0  0  0  0  0  0  0  0
    9.8909  -16.4832   21.9787 C   0  0  2  0  0  0  0  0  0  0  0  0
    9.6799  -15.2591   21.2290 N   0  0  0  0  0  0  0  0  0  0  0  0
   10.2309  -16.0985   23.3562 C   0  0  0  0  0  0  0  0  0  0  0  0
   10.3275  -14.9033   23.6745 O   0  0  0  0  0  0  0  0  0  0  0  0
   10.4450  -17.0720   24.3058 O   0  0  0  0  0  0  0  0  0  0  0  0
  2  1  1  1
  2  3  1  0
  4  5  2  0
  4  2  1  0
  7  6  1  1
  7  8  1  0
  8  4  1  0
  9  7  1  0
 10  9  2  0
 11 12  1  0
 13 12  1  6
 13 15  1  0
 13 14  1  0
 14  9  1  0
 15 17  1  0
 16 15  2  0
M  END
$$$$
