AAS.pdb
     RDKit          3D

 17 16  0  0  1  0  0  0  0  0999 V2000
    7.6387  -13.2284   16.2729 C   0  0  0  0  0  0  0  0  0  0  0  0
    8.3187  -14.5674   16.2487 C   0  0  2  0  0  0  0  0  0  0  0  0
    7.4326  -15.5283   15.6628 N   0  0  0  0  0  0  0  0  0  0  0  0
    8.8003  -14.9825   17.5923 C   0  0  0  0  0  0  0  0  0  0  0  0
    9.7654  -14.3839   18.0833 O   0  0  0  0  0  0  0  0  0  0  0  0
    7.4488  -17.1152   20.3984 C   0  0  0  0  0  0  0  0  0  0  0  0
    8.5653  -16.4431   19.6369 C   0  0  2  0  0  0  0  0  0  0  0  0
    8.1889  -16.0344   18.3166 N   0  0  0  0  0  0  0  0  0  0  0  0
    9.7264  -17.3709   19.6427 C   0  0  0  0  0  0  0  0  0  0  0  0
   10.1299  -17.8151   20.7492 O   0  0  0  0  0  0  0  0  0  0  0  0
   10.8883  -19.0334   16.2322 O   0  0  0  0  0  0  0  0  0  0  0  0
   11.2751  -19.7867   17.3462 C   0  0  0  0  0  0  0  0  0  0  0  0
   11.4570  -18.8082   18.4878 C   0  0  2  0  0  0  0  0  0  0  0  0
   10.4174  -17.7961   18.4951 N   0  0  0  0  0  0  0  0  0  0  0  0
   12.7362  -18.1187   18.2660 C   0  0  0  0  0  0  0  0  0  0  0  0
   12.7679  -16.8984   18.0448 O   0  0  0  0  0  0  0  0  0  0  0  0
   13.9135  -18.8313   18.3033 O   0  0  0  0  0  0  0  0  0  0  0  0
  2  1  1  1
  2  3  1  0
  4  5  2  0
  4  2  1  0
  7  6  1  6
  7  8  1  0
  8  4  1  0
  9  7  1  0
 10  9  2  0
 11 12  1  0
 13 12  1  6
 13 15  1  0
 13 14  1  0
 14  9  1  0
 15 17  1  0
 16 15  2  0
M  END
$$$$
