AAS.pdb
     RDKit          3D

 17 16  0  0  1  0  0  0  0  0999 V2000
   -0.4003  -27.3276   28.4612 C   0  0  0  0  0  0  0  0  0  0  0  0
   -1.4233  -26.4257   29.0903 C   0  0  2  0  0  0  0  0  0  0  0  0
   -1.0314  -26.1483   30.4399 N   0  0  0  0  0  0  0  0  0  0  0  0
   -2.7995  -26.9802   28.9999 C   0  0  0  0  0  0  0  0  0  0  0  0
   -3.3419  -27.0328   27.8892 O   0  0  0  0  0  0  0  0  0  0  0  0
   -5.1715  -28.7249   31.4095 C   0  0  0  0  0  0  0  0  0  0  0  0
   -4.7967  -28.0481   30.1135 C   0  0  2  0  0  0  0  0  0  0  0  0
   -3.4977  -27.4448   30.1408 N   0  0  0  0  0  0  0  0  0  0  0  0
   -5.8752  -27.0771   29.7928 C   0  0  0  0  0  0  0  0  0  0  0  0
   -5.7566  -25.8948   30.2079 O   0  0  0  0  0  0  0  0  0  0  0  0
   -9.8636  -25.9617   27.2695 O   0  0  0  0  0  0  0  0  0  0  0  0
   -9.0436  -27.0110   27.6992 C   0  0  0  0  0  0  0  0  0  0  0  0
   -8.0230  -26.4047   28.6399 C   0  0  2  0  0  0  0  0  0  0  0  0
   -7.0314  -27.3798   29.0532 N   0  0  0  0  0  0  0  0  0  0  0  0
   -8.7469  -25.9796   29.8467 C   0  0  0  0  0  0  0  0  0  0  0  0
   -8.9794  -26.7840   30.7621 O   0  0  0  0  0  0  0  0  0  0  0  0
   -9.1729  -24.6759   29.9658 O   0  0  0  0  0  0  0  0  0  0  0  0
  2  1  1  1
  2  3  1  0
  4  5  2  0
  4  2  1  0
  7  6  1  1
  7  8  1  0
  8  4  1  0
  9  7  1  0
 10  9  2  0
 11 12  1  0
 13 12  1  6
 13 15  1  0
 13 14  1  0
 14  9  1  0
 15 17  1  0
 16 15  2  0
M  END
$$$$
