AAS.pdb
     RDKit          3D

 17 16  0  0  1  0  0  0  0  0999 V2000
   -2.3355  -25.2464   29.8820 C   0  0  0  0  0  0  0  0  0  0  0  0
   -3.7278  -25.4419   29.3535 C   0  0  2  0  0  0  0  0  0  0  0  0
   -3.7672  -25.0276   27.9828 N   0  0  0  0  0  0  0  0  0  0  0  0
   -4.7510  -24.7556   30.1850 C   0  0  0  0  0  0  0  0  0  0  0  0
   -4.8669  -25.0888   31.3709 O   0  0  0  0  0  0  0  0  0  0  0  0
   -7.0073  -21.7356   29.7710 C   0  0  0  0  0  0  0  0  0  0  0  0
   -6.5864  -23.0377   30.4077 C   0  0  2  0  0  0  0  0  0  0  0  0
   -5.5873  -23.7409   29.6597 N   0  0  0  0  0  0  0  0  0  0  0  0
   -7.8166  -23.8434   30.6233 C   0  0  0  0  0  0  0  0  0  0  0  0
   -8.1698  -24.6466   29.7208 O   0  0  0  0  0  0  0  0  0  0  0  0
   -8.9752  -25.3589   34.0868 O   0  0  0  0  0  0  0  0  0  0  0  0
  -10.0814  -24.7386   33.4957 C   0  0  0  0  0  0  0  0  0  0  0  0
   -9.7758  -24.6279   32.0164 C   0  0  2  0  0  0  0  0  0  0  0  0
   -8.6263  -23.7775   31.7702 N   0  0  0  0  0  0  0  0  0  0  0  0
  -10.9369  -23.9870   31.3822 C   0  0  0  0  0  0  0  0  0  0  0  0
  -10.8651  -22.8230   30.9590 O   0  0  0  0  0  0  0  0  0  0  0  0
  -12.1180  -24.6826   31.2549 O   0  0  0  0  0  0  0  0  0  0  0  0
  2  1  1  1
  2  3  1  0
  4  5  2  0
  4  2  1  0
  7  6  1  6
  7  8  1  0
  8  4  1  0
  9  7  1  0
 10  9  2  0
 11 12  1  0
 13 12  1  1
 13 15  1  0
 13 14  1  0
 14  9  1  0
 15 17  1  0
 16 15  2  0
M  END
$$$$
