AAS.pdb
     RDKit          3D

 17 16  0  0  1  0  0  0  0  0999 V2000
    7.2120  -17.0611   16.3857 C   0  0  0  0  0  0  0  0  0  0  0  0
    7.9317  -15.7579   16.1863 C   0  0  2  0  0  0  0  0  0  0  0  0
    8.8547  -15.8982   15.0999 N   0  0  0  0  0  0  0  0  0  0  0  0
    8.5864  -15.2762   17.4308 C   0  0  0  0  0  0  0  0  0  0  0  0
    9.7439  -15.6434   17.6678 O   0  0  0  0  0  0  0  0  0  0  0  0
    7.6161  -12.9269   20.2743 C   0  0  0  0  0  0  0  0  0  0  0  0
    8.4999  -13.9170   19.5555 C   0  0  2  0  0  0  0  0  0  0  0  0
    7.9259  -14.4169   18.3419 N   0  0  0  0  0  0  0  0  0  0  0  0
    8.8329  -14.9962   20.5215 C   0  0  0  0  0  0  0  0  0  0  0  0
    8.0242  -15.9520   20.6506 O   0  0  0  0  0  0  0  0  0  0  0  0
   12.4398  -16.3279   21.4321 O   0  0  0  0  0  0  0  0  0  0  0  0
   11.7626  -16.1013   22.6354 C   0  0  0  0  0  0  0  0  0  0  0  0
   10.2865  -16.0557   22.2989 C   0  0  2  0  0  0  0  0  0  0  0  0
    9.9946  -15.0333   21.3118 N   0  0  0  0  0  0  0  0  0  0  0  0
    9.5737  -15.6892   23.5312 C   0  0  0  0  0  0  0  0  0  0  0  0
    9.5156  -16.4774   24.4875 O   0  0  0  0  0  0  0  0  0  0  0  0
    8.9628  -14.4594   23.6287 O   0  0  0  0  0  0  0  0  0  0  0  0
  2  1  1  1
  2  3  1  0
  4  5  2  0
  4  2  1  0
  7  6  1  1
  7  8  1  0
  8  4  1  0
  9  7  1  0
 10  9  2  0
 11 12  1  0
 13 12  1  1
 13 15  1  0
 13 14  1  0
 14  9  1  0
 15 17  1  0
 16 15  2  0
M  END
$$$$
