AAS.pdb
     RDKit          3D

 17 16  0  0  1  0  0  0  0  0999 V2000
    2.4921  -22.1229   19.4920 C   0  0  0  0  0  0  0  0  0  0  0  0
    2.1431  -21.1794   20.6074 C   0  0  2  0  0  0  0  0  0  0  0  0
    1.0752  -20.3267   20.1780 N   0  0  0  0  0  0  0  0  0  0  0  0
    3.3220  -20.4147   21.0922 C   0  0  0  0  0  0  0  0  0  0  0  0
    3.8040  -19.5452   20.3558 O   0  0  0  0  0  0  0  0  0  0  0  0
    5.1231  -20.0433   24.4075 C   0  0  0  0  0  0  0  0  0  0  0  0
    5.0037  -19.9202   22.9079 C   0  0  2  0  0  0  0  0  0  0  0  0
    3.9009  -20.6538   22.3621 N   0  0  0  0  0  0  0  0  0  0  0  0
    6.3092  -20.3259   22.3249 C   0  0  0  0  0  0  0  0  0  0  0  0
    6.5001  -21.5456   22.0796 O   0  0  0  0  0  0  0  0  0  0  0  0
    9.0520  -17.5477   21.2706 O   0  0  0  0  0  0  0  0  0  0  0  0
    9.2005  -18.7433   20.5589 C   0  0  0  0  0  0  0  0  0  0  0  0
    8.6240  -19.8397   21.4304 C   0  0  2  0  0  0  0  0  0  0  0  0
    7.3602  -19.4431   22.0224 N   0  0  0  0  0  0  0  0  0  0  0  0
    9.5724  -20.0594   22.5320 C   0  0  0  0  0  0  0  0  0  0  0  0
   10.6982  -20.5326   22.3135 O   0  0  0  0  0  0  0  0  0  0  0  0
    9.2110  -19.7378   23.8208 O   0  0  0  0  0  0  0  0  0  0  0  0
  2  1  1  6
  2  3  1  0
  4  5  2  0
  4  2  1  0
  7  6  1  1
  7  8  1  0
  8  4  1  0
  9  7  1  0
 10  9  2  0
 11 12  1  0
 13 12  1  6
 13 15  1  0
 13 14  1  0
 14  9  1  0
 15 17  1  0
 16 15  2  0
M  END
$$$$
