IHA.pdb
     RDKit          3D

 24 24  0  0  1  0  0  0  0  0999 V2000
   26.7123  -15.8499  -18.5637 C   0  0  0  0  0  0  0  0  0  0  0  0
   26.6040  -14.9329  -17.3370 C   0  0  0  0  0  0  0  0  0  0  0  0
   25.4527  -14.0103  -17.5955 C   0  0  2  0  0  0  0  0  0  0  0  0
   25.6245  -13.3554  -18.9361 C   0  0  0  0  0  0  0  0  0  0  0  0
   25.2104  -13.0052  -16.5047 C   0  0  2  0  0  0  0  0  0  0  0  0
   24.9659  -13.6603  -15.2510 N   0  0  0  0  0  0  0  0  0  0  0  0
   24.0882  -12.0793  -16.7937 C   0  0  0  0  0  0  0  0  0  0  0  0
   24.1522  -11.2213  -17.7102 O   0  0  0  0  0  0  0  0  0  0  0  0
   22.8920  -12.1278  -16.0403 N   0  0  0  0  0  0  0  0  0  0  0  0
   21.6956  -11.3822  -16.2915 C   0  0  1  0  0  0  0  0  0  0  0  0
   20.4250  -12.0161  -15.8183 C   0  0  0  0  0  0  0  0  0  0  0  0
   19.1934  -11.2786  -16.0741 C   0  0  0  0  0  0  0  0  0  0  0  0
   18.9643  -10.0895  -16.6910 C   0  0  0  0  0  0  0  0  0  0  0  0
   17.6246   -9.8773  -16.6337 N   0  0  0  0  0  0  0  0  0  0  0  0
   17.0416  -10.9044  -16.0000 C   0  0  0  0  0  0  0  0  0  0  0  0
   17.9862  -11.7729  -15.6494 N   0  0  0  0  0  0  0  0  0  0  0  0
   21.8019   -9.9992  -15.6698 C   0  0  0  0  0  0  0  0  0  0  0  0
   22.0910   -9.8700  -14.4552 O   0  0  0  0  0  0  0  0  0  0  0  0
   21.7020   -6.5366  -17.0912 C   0  0  0  0  0  0  0  0  0  0  0  0
   21.8835   -7.4943  -15.9157 C   0  0  2  0  0  0  0  0  0  0  0  0
   21.5836   -8.8209  -16.4199 N   0  0  0  0  0  0  0  0  0  0  0  0
   21.0465   -7.1135  -14.7803 C   0  0  0  0  0  0  0  0  0  0  0  0
   19.8750   -7.5434  -14.6694 O   0  0  0  0  0  0  0  0  0  0  0  0
   21.5455   -6.2658  -13.8071 O   0  0  0  0  0  0  0  0  0  0  0  0
  2  3  1  0
  2  1  1  0
  3  4  1  6
  3  5  1  0
  5  6  1  1
  7  5  1  0
  7  9  1  0
  8  7  2  0
 10  9  1  0
 11 12  1  0
 10 11  1  1
 12 16  1  0
 13 12  2  0
 13 14  1  0
 14 15  1  0
 16 15  2  0
 17 10  1  0
 18 17  2  0
 20 21  1  0
 20 19  1  6
 21 17  1  0
 22 20  1  0
 23 22  2  0
 24 22  1  0
M  END
$$$$
