IHA.pdb
     RDKit          3D

 24 24  0  0  1  0  0  0  0  0999 V2000
   24.2287  -27.8491  -16.6449 C   0  0  0  0  0  0  0  0  0  0  0  0
   25.6721  -27.6797  -16.1494 C   0  0  0  0  0  0  0  0  0  0  0  0
   26.5461  -27.7113  -17.3655 C   0  0  2  0  0  0  0  0  0  0  0  0
   26.2375  -28.9384  -18.1746 C   0  0  0  0  0  0  0  0  0  0  0  0
   28.0148  -27.5840  -17.0734 C   0  0  2  0  0  0  0  0  0  0  0  0
   28.3136  -26.3004  -16.5046 N   0  0  0  0  0  0  0  0  0  0  0  0
   28.8741  -27.7978  -18.2633 C   0  0  0  0  0  0  0  0  0  0  0  0
   29.1228  -26.8746  -19.0794 O   0  0  0  0  0  0  0  0  0  0  0  0
   29.4514  -29.0620  -18.5267 N   0  0  0  0  0  0  0  0  0  0  0  0
   30.3617  -29.3795  -19.5855 C   0  0  1  0  0  0  0  0  0  0  0  0
   31.6937  -29.9113  -19.1579 C   0  0  0  0  0  0  0  0  0  0  0  0
   32.6893  -28.9264  -18.7513 C   0  0  0  0  0  0  0  0  0  0  0  0
   32.6767  -27.5676  -18.7728 C   0  0  0  0  0  0  0  0  0  0  0  0
   33.8786  -27.1633  -18.2880 N   0  0  0  0  0  0  0  0  0  0  0  0
   34.6136  -28.2397  -17.9760 C   0  0  0  0  0  0  0  0  0  0  0  0
   33.9022  -29.3292  -18.2528 N   0  0  0  0  0  0  0  0  0  0  0  0
   29.7278  -30.3823  -20.5359 C   0  0  0  0  0  0  0  0  0  0  0  0
   29.1071  -31.3769  -20.0874 O   0  0  0  0  0  0  0  0  0  0  0  0
   28.9908  -30.3382  -24.1770 C   0  0  0  0  0  0  0  0  0  0  0  0
   29.1129  -31.1123  -22.8662 C   0  0  2  0  0  0  0  0  0  0  0  0
   29.8091  -30.2397  -21.9401 N   0  0  0  0  0  0  0  0  0  0  0  0
   29.7894  -32.3926  -23.0612 C   0  0  0  0  0  0  0  0  0  0  0  0
   31.0050  -32.5278  -22.7901 O   0  0  0  0  0  0  0  0  0  0  0  0
   29.0861  -33.4785  -23.5521 O   0  0  0  0  0  0  0  0  0  0  0  0
  2  3  1  0
  2  1  1  0
  3  4  1  1
  3  5  1  0
  5  6  1  6
  7  5  1  0
  7  9  1  0
  8  7  2  0
 10  9  1  0
 11 12  1  0
 10 11  1  1
 12 16  1  0
 13 12  2  0
 13 14  1  0
 14 15  1  0
 16 15  2  0
 17 10  1  0
 18 17  2  0
 20 21  1  0
 20 19  1  6
 21 17  1  0
 22 20  1  0
 23 22  2  0
 24 22  1  0
M  END
$$$$
