IHA.pdb
     RDKit          3D

 24 24  0  0  1  0  0  0  0  0999 V2000
   25.9304  -20.7254   -8.2363 C   0  0  0  0  0  0  0  0  0  0  0  0
   25.1025  -21.4277   -9.3221 C   0  0  0  0  0  0  0  0  0  0  0  0
   25.6695  -20.9919  -10.6382 C   0  0  2  0  0  0  0  0  0  0  0  0
   25.8288  -19.4985  -10.6472 C   0  0  0  0  0  0  0  0  0  0  0  0
   24.9029  -21.4837  -11.8336 C   0  0  2  0  0  0  0  0  0  0  0  0
   24.8300  -22.9173  -11.8399 N   0  0  0  0  0  0  0  0  0  0  0  0
   25.4651  -21.0223  -13.1262 C   0  0  0  0  0  0  0  0  0  0  0  0
   26.6397  -21.2992  -13.4782 O   0  0  0  0  0  0  0  0  0  0  0  0
   24.6923  -20.2448  -14.0202 N   0  0  0  0  0  0  0  0  0  0  0  0
   25.1129  -19.7373  -15.2914 C   0  0  1  0  0  0  0  0  0  0  0  0
   24.6823  -20.5346  -16.4826 C   0  0  0  0  0  0  0  0  0  0  0  0
   25.1761  -21.9041  -16.5641 C   0  0  0  0  0  0  0  0  0  0  0  0
   24.5970  -23.0931  -16.2511 C   0  0  0  0  0  0  0  0  0  0  0  0
   25.5209  -24.0527  -16.5132 N   0  0  0  0  0  0  0  0  0  0  0  0
   26.6388  -23.4750  -16.9745 C   0  0  0  0  0  0  0  0  0  0  0  0
   26.4471  -22.1592  -17.0128 N   0  0  0  0  0  0  0  0  0  0  0  0
   24.6270  -18.3081  -15.4699 C   0  0  0  0  0  0  0  0  0  0  0  0
   23.4147  -18.0253  -15.3086 O   0  0  0  0  0  0  0  0  0  0  0  0
   26.3440  -15.0338  -16.0196 C   0  0  0  0  0  0  0  0  0  0  0  0
   25.0728  -15.8776  -15.9549 C   0  0  2  0  0  0  0  0  0  0  0  0
   25.5041  -17.2558  -15.8188 N   0  0  0  0  0  0  0  0  0  0  0  0
   24.2244  -15.6588  -17.1241 C   0  0  0  0  0  0  0  0  0  0  0  0
   24.2182  -16.4710  -18.0779 O   0  0  0  0  0  0  0  0  0  0  0  0
   23.4117  -14.5407  -17.1891 O   0  0  0  0  0  0  0  0  0  0  0  0
  2  3  1  0
  2  1  1  0
  3  4  1  1
  3  5  1  0
  5  6  1  6
  7  5  1  0
  7  9  1  0
  8  7  2  0
 10  9  1  0
 11 12  1  0
 10 11  1  6
 12 16  1  0
 13 12  2  0
 13 14  1  0
 14 15  1  0
 16 15  2  0
 17 10  1  0
 18 17  2  0
 20 21  1  0
 20 19  1  6
 21 17  1  0
 22 20  1  0
 23 22  2  0
 24 22  1  0
M  END
$$$$
