IHA.pdb
     RDKit          3D

 24 24  0  0  1  0  0  0  0  0999 V2000
   24.4234  -22.1111  -17.7547 C   0  0  0  0  0  0  0  0  0  0  0  0
   25.5756  -22.6487  -16.8939 C   0  0  0  0  0  0  0  0  0  0  0  0
   25.9628  -23.9720  -17.4793 C   0  0  2  0  0  0  0  0  0  0  0  0
   24.7383  -24.8254  -17.6466 C   0  0  0  0  0  0  0  0  0  0  0  0
   27.0485  -24.6866  -16.7249 C   0  0  2  0  0  0  0  0  0  0  0  0
   28.2136  -23.8577  -16.5979 N   0  0  0  0  0  0  0  0  0  0  0  0
   27.4393  -25.9801  -17.3365 C   0  0  0  0  0  0  0  0  0  0  0  0
   27.8454  -26.0596  -18.5235 O   0  0  0  0  0  0  0  0  0  0  0  0
   27.3683  -27.1850  -16.5989 N   0  0  0  0  0  0  0  0  0  0  0  0
   27.7407  -28.4891  -17.0585 C   0  0  1  0  0  0  0  0  0  0  0  0
   28.7134  -29.2282  -16.1939 C   0  0  0  0  0  0  0  0  0  0  0  0
   29.0995  -30.5619  -16.6392 C   0  0  0  0  0  0  0  0  0  0  0  0
   28.6476  -31.3401  -17.6576 C   0  0  0  0  0  0  0  0  0  0  0  0
   29.3558  -32.4970  -17.6023 N   0  0  0  0  0  0  0  0  0  0  0  0
   30.2203  -32.4370  -16.5799 C   0  0  0  0  0  0  0  0  0  0  0  0
   30.0783  -31.2594  -15.9778 N   0  0  0  0  0  0  0  0  0  0  0  0
   26.5030  -29.3537  -17.2351 C   0  0  0  0  0  0  0  0  0  0  0  0
   25.6901  -29.4987  -16.2896 O   0  0  0  0  0  0  0  0  0  0  0  0
   24.5668  -30.5605  -20.0798 C   0  0  0  0  0  0  0  0  0  0  0  0
   25.0341  -30.8297  -18.6510 C   0  0  2  0  0  0  0  0  0  0  0  0
   26.2200  -30.0191  -18.4498 N   0  0  0  0  0  0  0  0  0  0  0  0
   25.2718  -32.2535  -18.4245 C   0  0  0  0  0  0  0  0  0  0  0  0
   26.3988  -32.7603  -18.6305 O   0  0  0  0  0  0  0  0  0  0  0  0
   24.2435  -33.0632  -17.9756 O   0  0  0  0  0  0  0  0  0  0  0  0
  2  3  1  0
  2  1  1  0
  3  4  1  1
  3  5  1  0
  5  6  1  6
  7  5  1  0
  7  9  1  0
  8  7  2  0
 10  9  1  0
 11 12  1  0
 10 11  1  1
 12 16  1  0
 13 12  2  0
 13 14  1  0
 14 15  1  0
 16 15  2  0
 17 10  1  0
 18 17  2  0
 20 21  1  0
 20 19  1  6
 21 17  1  0
 22 20  1  0
 23 22  2  0
 24 22  1  0
M  END
$$$$
