IHA.pdb
     RDKit          3D

 24 24  0  0  1  0  0  0  0  0999 V2000
   20.9040  -29.1523  -12.2925 C   0  0  0  0  0  0  0  0  0  0  0  0
   21.8680  -30.3311  -12.0948 C   0  0  0  0  0  0  0  0  0  0  0  0
   22.0735  -30.4698  -10.6176 C   0  0  2  0  0  0  0  0  0  0  0  0
   22.5633  -29.1668  -10.0536 C   0  0  0  0  0  0  0  0  0  0  0  0
   22.9548  -31.6213  -10.2226 C   0  0  2  0  0  0  0  0  0  0  0  0
   22.4026  -32.8666  -10.6752 N   0  0  0  0  0  0  0  0  0  0  0  0
   23.2001  -31.7032   -8.7621 C   0  0  0  0  0  0  0  0  0  0  0  0
   23.5718  -30.7064   -8.0925 O   0  0  0  0  0  0  0  0  0  0  0  0
   23.0232  -32.9191   -8.0613 N   0  0  0  0  0  0  0  0  0  0  0  0
   23.2445  -33.1373   -6.6635 C   0  0  1  0  0  0  0  0  0  0  0  0
   22.2469  -34.0183   -5.9788 C   0  0  0  0  0  0  0  0  0  0  0  0
   20.9927  -33.3931   -5.5759 C   0  0  0  0  0  0  0  0  0  0  0  0
   20.5636  -32.1053   -5.6413 C   0  0  0  0  0  0  0  0  0  0  0  0
   19.3144  -32.0877   -5.1100 N   0  0  0  0  0  0  0  0  0  0  0  0
   18.9801  -33.3277   -4.7268 C   0  0  0  0  0  0  0  0  0  0  0  0
   19.9953  -34.1414   -5.0039 N   0  0  0  0  0  0  0  0  0  0  0  0
   24.6311  -33.7183   -6.4388 C   0  0  0  0  0  0  0  0  0  0  0  0
   25.0632  -34.6341   -7.1805 O   0  0  0  0  0  0  0  0  0  0  0  0
   27.4287  -32.9377   -4.0721 C   0  0  0  0  0  0  0  0  0  0  0  0
   26.8035  -33.7985   -5.1677 C   0  0  2  0  0  0  0  0  0  0  0  0
   25.4775  -33.2598   -5.4034 N   0  0  0  0  0  0  0  0  0  0  0  0
   26.7867  -35.2112   -4.7949 C   0  0  0  0  0  0  0  0  0  0  0  0
   25.7308  -35.7642   -4.4091 O   0  0  0  0  0  0  0  0  0  0  0  0
   27.9490  -35.9587   -4.8653 O   0  0  0  0  0  0  0  0  0  0  0  0
  2  3  1  0
  2  1  1  0
  3  4  1  6
  3  5  1  0
  5  6  1  1
  7  5  1  0
  7  9  1  0
  8  7  2  0
 10  9  1  0
 11 12  1  0
 10 11  1  6
 12 16  1  0
 13 12  2  0
 13 14  1  0
 14 15  1  0
 16 15  2  0
 17 10  1  0
 18 17  2  0
 20 21  1  0
 20 19  1  1
 21 17  1  0
 22 20  1  0
 23 22  2  0
 24 22  1  0
M  END
$$$$
