IHA.pdb
     RDKit          3D

 24 24  0  0  1  0  0  0  0  0999 V2000
   17.9563  -12.1594  -21.1312 C   0  0  0  0  0  0  0  0  0  0  0  0
   19.1908  -12.0710  -20.2224 C   0  0  0  0  0  0  0  0  0  0  0  0
   18.8186  -11.1699  -19.0853 C   0  0  2  0  0  0  0  0  0  0  0  0
   18.3024   -9.8666  -19.6248 C   0  0  0  0  0  0  0  0  0  0  0  0
   19.9124  -10.9673  -18.0749 C   0  0  2  0  0  0  0  0  0  0  0  0
   20.4231  -12.2275  -17.6146 N   0  0  0  0  0  0  0  0  0  0  0  0
   19.4927  -10.1588  -16.9043 C   0  0  0  0  0  0  0  0  0  0  0  0
   18.6429  -10.5760  -16.0772 O   0  0  0  0  0  0  0  0  0  0  0  0
   20.0385   -8.8745  -16.6732 N   0  0  0  0  0  0  0  0  0  0  0  0
   19.7384   -8.0056  -15.5752 C   0  0  1  0  0  0  0  0  0  0  0  0
   20.8589   -7.7665  -14.6124 C   0  0  0  0  0  0  0  0  0  0  0  0
   21.5266   -8.9492  -14.0817 C   0  0  0  0  0  0  0  0  0  0  0  0
   21.2658  -10.2751  -14.2268 C   0  0  0  0  0  0  0  0  0  0  0  0
   22.2031  -10.9343  -13.4990 N   0  0  0  0  0  0  0  0  0  0  0  0
   23.0199  -10.0431  -12.9202 C   0  0  0  0  0  0  0  0  0  0  0  0
   22.6215   -8.8217  -13.2651 N   0  0  0  0  0  0  0  0  0  0  0  0
   19.2542   -6.6603  -16.0912 C   0  0  0  0  0  0  0  0  0  0  0  0
   19.8080   -6.1240  -17.0819 O   0  0  0  0  0  0  0  0  0  0  0  0
   16.4150   -4.3901  -15.2055 C   0  0  0  0  0  0  0  0  0  0  0  0
   17.7336   -4.6598  -15.9272 C   0  0  2  0  0  0  0  0  0  0  0  0
   18.1791   -5.9684  -15.4880 N   0  0  0  0  0  0  0  0  0  0  0  0
   18.7125   -3.6071  -15.6657 C   0  0  0  0  0  0  0  0  0  0  0  0
   18.5907   -2.4708  -16.1791 O   0  0  0  0  0  0  0  0  0  0  0  0
   19.7941   -3.8584  -14.8401 O   0  0  0  0  0  0  0  0  0  0  0  0
  2  3  1  0
  2  1  1  0
  3  4  1  6
  3  5  1  0
  5  6  1  1
  7  5  1  0
  7  9  1  0
  8  7  2  0
 10  9  1  0
 11 12  1  0
 10 11  1  6
 12 16  1  0
 13 12  2  0
 13 14  1  0
 14 15  1  0
 16 15  2  0
 17 10  1  0
 18 17  2  0
 20 21  1  0
 20 19  1  1
 21 17  1  0
 22 20  1  0
 23 22  2  0
 24 22  1  0
M  END
$$$$
