IHA.pdb
     RDKit          3D

 24 24  0  0  1  0  0  0  0  0999 V2000
   28.9381  -12.4098  -15.6792 C   0  0  0  0  0  0  0  0  0  0  0  0
   27.6243  -13.1759  -15.8905 C   0  0  0  0  0  0  0  0  0  0  0  0
   26.6394  -12.1890  -16.4379 C   0  0  2  0  0  0  0  0  0  0  0  0
   26.5125  -11.0284  -15.4930 C   0  0  0  0  0  0  0  0  0  0  0  0
   25.3024  -12.7801  -16.7866 C   0  0  2  0  0  0  0  0  0  0  0  0
   25.4556  -13.9206  -17.6446 N   0  0  0  0  0  0  0  0  0  0  0  0
   24.3784  -11.8130  -17.4277 C   0  0  0  0  0  0  0  0  0  0  0  0
   24.4746  -11.5055  -18.6428 O   0  0  0  0  0  0  0  0  0  0  0  0
   23.3440  -11.1941  -16.6876 N   0  0  0  0  0  0  0  0  0  0  0  0
   22.3114  -10.3494  -17.2079 C   0  0  1  0  0  0  0  0  0  0  0  0
   20.9677  -10.9896  -17.3652 C   0  0  0  0  0  0  0  0  0  0  0  0
   20.8861  -12.1172  -18.2861 C   0  0  0  0  0  0  0  0  0  0  0  0
   20.9848  -12.1867  -19.6397 C   0  0  0  0  0  0  0  0  0  0  0  0
   20.8173  -13.4923  -19.9719 N   0  0  0  0  0  0  0  0  0  0  0  0
   20.6204  -14.2098  -18.8571 C   0  0  0  0  0  0  0  0  0  0  0  0
   20.6590  -13.3851  -17.8141 N   0  0  0  0  0  0  0  0  0  0  0  0
   22.1555   -9.1160  -16.3332 C   0  0  0  0  0  0  0  0  0  0  0  0
   22.0820   -9.2284  -15.0852 O   0  0  0  0  0  0  0  0  0  0  0  0
   22.0386   -5.4335  -17.0061 C   0  0  0  0  0  0  0  0  0  0  0  0
   21.8552   -6.6293  -16.0740 C   0  0  2  0  0  0  0  0  0  0  0  0
   22.0878   -7.8135  -16.8786 N   0  0  0  0  0  0  0  0  0  0  0  0
   20.5376   -6.6191  -15.4425 C   0  0  0  0  0  0  0  0  0  0  0  0
   19.6013   -7.3196  -15.8920 O   0  0  0  0  0  0  0  0  0  0  0  0
   20.3099   -5.8275  -14.3306 O   0  0  0  0  0  0  0  0  0  0  0  0
  2  3  1  0
  2  1  1  0
  3  4  1  1
  3  5  1  0
  5  6  1  6
  7  5  1  0
  7  9  1  0
  8  7  2  0
 10  9  1  0
 11 12  1  0
 10 11  1  1
 12 16  1  0
 13 12  2  0
 13 14  1  0
 14 15  1  0
 16 15  2  0
 17 10  1  0
 18 17  2  0
 20 21  1  0
 20 19  1  6
 21 17  1  0
 22 20  1  0
 23 22  2  0
 24 22  1  0
M  END
$$$$
