IHA.pdb
     RDKit          3D

 24 24  0  0  1  0  0  0  0  0999 V2000
   21.3021  -11.2205    8.1600 C   0  0  0  0  0  0  0  0  0  0  0  0
   20.6816  -11.2033    6.7556 C   0  0  0  0  0  0  0  0  0  0  0  0
   19.6043  -12.2440    6.7535 C   0  0  2  0  0  0  0  0  0  0  0  0
   20.1770  -13.5614    7.1921 C   0  0  0  0  0  0  0  0  0  0  0  0
   18.8596  -12.3587    5.4531 C   0  0  2  0  0  0  0  0  0  0  0  0
   18.1471  -11.1467    5.1633 N   0  0  0  0  0  0  0  0  0  0  0  0
   17.9112  -13.4985    5.4144 C   0  0  0  0  0  0  0  0  0  0  0  0
   16.8170  -13.4754    6.0327 O   0  0  0  0  0  0  0  0  0  0  0  0
   18.2063  -14.6662    4.6726 N   0  0  0  0  0  0  0  0  0  0  0  0
   17.3726  -15.8222    4.5351 C   0  0  1  0  0  0  0  0  0  0  0  0
   17.3468  -16.4451    3.1745 C   0  0  0  0  0  0  0  0  0  0  0  0
   16.5094  -17.6280    3.0144 C   0  0  0  0  0  0  0  0  0  0  0  0
   16.8214  -18.9328    2.7968 C   0  0  0  0  0  0  0  0  0  0  0  0
   15.6433  -19.6024    2.7152 N   0  0  0  0  0  0  0  0  0  0  0  0
   14.6319  -18.7380    2.8771 C   0  0  0  0  0  0  0  0  0  0  0  0
   15.1424  -17.5235    3.0616 N   0  0  0  0  0  0  0  0  0  0  0  0
   17.7834  -16.8850    5.5413 C   0  0  0  0  0  0  0  0  0  0  0  0
   18.9894  -17.2112    5.6630 O   0  0  0  0  0  0  0  0  0  0  0  0
   16.1569  -18.5357    8.4225 C   0  0  0  0  0  0  0  0  0  0  0  0
   17.2036  -18.5797    7.3114 C   0  0  2  0  0  0  0  0  0  0  0  0
   16.8414  -17.5392    6.3679 N   0  0  0  0  0  0  0  0  0  0  0  0
   17.2789  -19.9039    6.6984 C   0  0  0  0  0  0  0  0  0  0  0  0
   17.8536  -20.8526    7.2807 O   0  0  0  0  0  0  0  0  0  0  0  0
   16.7100  -20.1241    5.4564 O   0  0  0  0  0  0  0  0  0  0  0  0
  2  3  1  0
  2  1  1  0
  3  4  1  6
  3  5  1  0
  5  6  1  1
  7  5  1  0
  7  9  1  0
  8  7  2  0
 10  9  1  0
 11 12  1  0
 10 11  1  6
 12 16  1  0
 13 12  2  0
 13 14  1  0
 14 15  1  0
 16 15  2  0
 17 10  1  0
 18 17  2  0
 20 21  1  0
 20 19  1  1
 21 17  1  0
 22 20  1  0
 23 22  2  0
 24 22  1  0
M  END
$$$$
