IHA.pdb
     RDKit          3D

 24 24  0  0  1  0  0  0  0  0999 V2000
   21.4453  -16.0119  -20.6190 C   0  0  0  0  0  0  0  0  0  0  0  0
   22.0142  -14.9951  -19.6190 C   0  0  0  0  0  0  0  0  0  0  0  0
   20.9798  -13.9224  -19.4677 C   0  0  2  0  0  0  0  0  0  0  0  0
   20.6377  -13.3599  -20.8176 C   0  0  0  0  0  0  0  0  0  0  0  0
   21.3464  -12.8457  -18.4854 C   0  0  2  0  0  0  0  0  0  0  0  0
   21.8252  -13.4151  -17.2577 N   0  0  0  0  0  0  0  0  0  0  0  0
   20.2305  -11.9160  -18.1846 C   0  0  0  0  0  0  0  0  0  0  0  0
   19.5129  -11.4220  -19.0908 O   0  0  0  0  0  0  0  0  0  0  0  0
   19.9296  -11.5466  -16.8528 N   0  0  0  0  0  0  0  0  0  0  0  0
   18.9078  -10.6365  -16.4307 C   0  0  1  0  0  0  0  0  0  0  0  0
   18.1161  -11.0603  -15.2333 C   0  0  0  0  0  0  0  0  0  0  0  0
   17.1616  -12.1444  -15.4328 C   0  0  0  0  0  0  0  0  0  0  0  0
   16.7943  -12.8309  -16.5468 C   0  0  0  0  0  0  0  0  0  0  0  0
   15.8524  -13.7264  -16.1547 N   0  0  0  0  0  0  0  0  0  0  0  0
   15.6425  -13.5981  -14.8372 C   0  0  0  0  0  0  0  0  0  0  0  0
   16.4351  -12.6340  -14.3771 N   0  0  0  0  0  0  0  0  0  0  0  0
   19.5101   -9.2698  -16.1480 C   0  0  0  0  0  0  0  0  0  0  0  0
   20.5015   -9.1585  -15.3862 O   0  0  0  0  0  0  0  0  0  0  0  0
   18.7957   -5.7956  -17.3485 C   0  0  0  0  0  0  0  0  0  0  0  0
   19.4660   -6.7622  -16.3745 C   0  0  2  0  0  0  0  0  0  0  0  0
   18.9884   -8.0873  -16.7209 N   0  0  0  0  0  0  0  0  0  0  0  0
   19.1890   -6.4015  -14.9860 C   0  0  0  0  0  0  0  0  0  0  0  0
   18.3254   -7.0172  -14.3194 O   0  0  0  0  0  0  0  0  0  0  0  0
   19.8855   -5.3657  -14.3887 O   0  0  0  0  0  0  0  0  0  0  0  0
  2  3  1  0
  2  1  1  0
  3  4  1  6
  3  5  1  0
  5  6  1  1
  7  5  1  0
  7  9  1  0
  8  7  2  0
 10  9  1  0
 11 12  1  0
 10 11  1  1
 12 16  1  0
 13 12  2  0
 13 14  1  0
 14 15  1  0
 16 15  2  0
 17 10  1  0
 18 17  2  0
 20 21  1  0
 20 19  1  6
 21 17  1  0
 22 20  1  0
 23 22  2  0
 24 22  1  0
M  END
$$$$
