IHA.pdb
     RDKit          3D

 24 24  0  0  1  0  0  0  0  0999 V2000
   26.8678  -20.3501   -6.1083 C   0  0  0  0  0  0  0  0  0  0  0  0
   25.6494  -20.4949   -7.0316 C   0  0  0  0  0  0  0  0  0  0  0  0
   26.1227  -20.1698   -8.4150 C   0  0  2  0  0  0  0  0  0  0  0  0
   26.7930  -18.8258   -8.4142 C   0  0  0  0  0  0  0  0  0  0  0  0
   25.0573  -20.2671   -9.4705 C   0  0  2  0  0  0  0  0  0  0  0  0
   24.4222  -21.5541   -9.4389 N   0  0  0  0  0  0  0  0  0  0  0  0
   25.5596  -20.0090  -10.8420 C   0  0  0  0  0  0  0  0  0  0  0  0
   25.8783  -18.8561  -11.2284 O   0  0  0  0  0  0  0  0  0  0  0  0
   25.6996  -21.0620  -11.7761 N   0  0  0  0  0  0  0  0  0  0  0  0
   26.1372  -20.9440  -13.1345 C   0  0  1  0  0  0  0  0  0  0  0  0
   26.8532  -22.1346  -13.6909 C   0  0  0  0  0  0  0  0  0  0  0  0
   27.3537  -22.0159  -15.0553 C   0  0  0  0  0  0  0  0  0  0  0  0
   27.2074  -21.0396  -15.9893 C   0  0  0  0  0  0  0  0  0  0  0  0
   27.8769  -21.4588  -17.0934 N   0  0  0  0  0  0  0  0  0  0  0  0
   28.4213  -22.6592  -16.8504 C   0  0  0  0  0  0  0  0  0  0  0  0
   28.1118  -23.0173  -15.6072 N   0  0  0  0  0  0  0  0  0  0  0  0
   24.9561  -20.6292  -14.0380 C   0  0  0  0  0  0  0  0  0  0  0  0
   23.9035  -21.3094  -13.9665 O   0  0  0  0  0  0  0  0  0  0  0  0
   23.9565  -17.6695  -15.9679 C   0  0  0  0  0  0  0  0  0  0  0  0
   23.8417  -19.1793  -15.7693 C   0  0  2  0  0  0  0  0  0  0  0  0
   24.9924  -19.5759  -14.9803 N   0  0  0  0  0  0  0  0  0  0  0  0
   23.7570  -19.8828  -17.0471 C   0  0  0  0  0  0  0  0  0  0  0  0
   24.7894  -20.2844  -17.6322 O   0  0  0  0  0  0  0  0  0  0  0  0
   22.5228  -20.1143  -17.6284 O   0  0  0  0  0  0  0  0  0  0  0  0
  2  3  1  0
  2  1  1  0
  3  4  1  1
  3  5  1  0
  5  6  1  6
  7  5  1  0
  7  9  1  0
  8  7  2  0
 10  9  1  0
 11 12  1  0
 10 11  1  6
 12 16  1  0
 13 12  2  0
 13 14  1  0
 14 15  1  0
 16 15  2  0
 17 10  1  0
 18 17  2  0
 20 21  1  0
 20 19  1  6
 21 17  1  0
 22 20  1  0
 23 22  2  0
 24 22  1  0
M  END
$$$$
