IHA.pdb
     RDKit          3D

 24 24  0  0  1  0  0  0  0  0999 V2000
   28.0912  -12.0728  -16.0303 C   0  0  0  0  0  0  0  0  0  0  0  0
   26.6640  -12.6105  -15.8522 C   0  0  0  0  0  0  0  0  0  0  0  0
   25.7386  -11.4875  -16.2076 C   0  0  2  0  0  0  0  0  0  0  0  0
   26.0389  -10.2961  -15.3437 C   0  0  0  0  0  0  0  0  0  0  0  0
   24.2816  -11.8545  -16.1743 C   0  0  2  0  0  0  0  0  0  0  0  0
   24.0162  -12.9730  -17.0340 N   0  0  0  0  0  0  0  0  0  0  0  0
   23.3822  -10.7350  -16.5454 C   0  0  0  0  0  0  0  0  0  0  0  0
   23.1778  -10.4143  -17.7435 O   0  0  0  0  0  0  0  0  0  0  0  0
   22.7144   -9.9784  -15.5541 N   0  0  0  0  0  0  0  0  0  0  0  0
   21.8158   -8.8860  -15.7768 C   0  0  1  0  0  0  0  0  0  0  0  0
   20.3727   -9.1655  -15.4950 C   0  0  0  0  0  0  0  0  0  0  0  0
   19.7975  -10.3395  -16.1407 C   0  0  0  0  0  0  0  0  0  0  0  0
   19.5015  -11.5778  -15.6652 C   0  0  0  0  0  0  0  0  0  0  0  0
   18.9954  -12.2812  -16.7102 N   0  0  0  0  0  0  0  0  0  0  0  0
   18.9787  -11.5018  -17.8004 C   0  0  0  0  0  0  0  0  0  0  0  0
   19.4662  -10.3086  -17.4716 N   0  0  0  0  0  0  0  0  0  0  0  0
   22.2414   -7.6830  -14.9507 C   0  0  0  0  0  0  0  0  0  0  0  0
   22.4430   -7.7996  -13.7172 O   0  0  0  0  0  0  0  0  0  0  0  0
   23.1893   -4.1613  -15.7808 C   0  0  0  0  0  0  0  0  0  0  0  0
   22.8420   -5.2448  -14.7621 C   0  0  2  0  0  0  0  0  0  0  0  0
   22.4249   -6.4049  -15.5263 N   0  0  0  0  0  0  0  0  0  0  0  0
   21.8238   -4.7872  -13.8194 C   0  0  0  0  0  0  0  0  0  0  0  0
   22.1159   -4.0095  -12.8816 O   0  0  0  0  0  0  0  0  0  0  0  0
   20.5143   -5.2130  -13.9554 O   0  0  0  0  0  0  0  0  0  0  0  0
  2  3  1  0
  2  1  1  0
  3  4  1  1
  3  5  1  0
  5  6  1  6
  7  5  1  0
  7  9  1  0
  8  7  2  0
 10  9  1  0
 11 12  1  0
 10 11  1  1
 12 16  1  0
 13 12  2  0
 13 14  1  0
 14 15  1  0
 16 15  2  0
 17 10  1  0
 18 17  2  0
 20 21  1  0
 20 19  1  6
 21 17  1  0
 22 20  1  0
 23 22  2  0
 24 22  1  0
M  END
$$$$
