IHA.pdb
     RDKit          3D

 24 24  0  0  1  0  0  0  0  0999 V2000
   24.6798  -15.4784  -17.5100 C   0  0  0  0  0  0  0  0  0  0  0  0
   24.9721  -14.3844  -16.4730 C   0  0  0  0  0  0  0  0  0  0  0  0
   24.2974  -13.1407  -16.9645 C   0  0  2  0  0  0  0  0  0  0  0  0
   24.7498  -12.8434  -18.3655 C   0  0  0  0  0  0  0  0  0  0  0  0
   24.4561  -11.9529  -16.0575 C   0  0  2  0  0  0  0  0  0  0  0  0
   24.0839  -12.2842  -14.7113 N   0  0  0  0  0  0  0  0  0  0  0  0
   23.6801  -10.7674  -16.4961 C   0  0  0  0  0  0  0  0  0  0  0  0
   23.8424  -10.2473  -17.6289 O   0  0  0  0  0  0  0  0  0  0  0  0
   22.7189  -10.1715  -15.6466 N   0  0  0  0  0  0  0  0  0  0  0  0
   21.8997   -9.0368  -15.9499 C   0  0  1  0  0  0  0  0  0  0  0  0
   20.4230   -9.2556  -15.8418 C   0  0  0  0  0  0  0  0  0  0  0  0
   19.8252  -10.1634  -16.8137 C   0  0  0  0  0  0  0  0  0  0  0  0
   19.7264  -10.0995  -18.1677 C   0  0  0  0  0  0  0  0  0  0  0  0
   19.0561  -11.2135  -18.5583 N   0  0  0  0  0  0  0  0  0  0  0  0
   18.7487  -11.9453  -17.4784 C   0  0  0  0  0  0  0  0  0  0  0  0
   19.2114  -11.3185  -16.4002 N   0  0  0  0  0  0  0  0  0  0  0  0
   22.2776   -7.8662  -15.0569 C   0  0  0  0  0  0  0  0  0  0  0  0
   22.4530   -8.0380  -13.8259 O   0  0  0  0  0  0  0  0  0  0  0  0
   23.1913   -4.2990  -15.7164 C   0  0  0  0  0  0  0  0  0  0  0  0
   22.8820   -5.4409  -14.7506 C   0  0  2  0  0  0  0  0  0  0  0  0
   22.4445   -6.5579  -15.5659 N   0  0  0  0  0  0  0  0  0  0  0  0
   21.8937   -5.0438  -13.7505 C   0  0  0  0  0  0  0  0  0  0  0  0
   20.6930   -5.3841  -13.8593 O   0  0  0  0  0  0  0  0  0  0  0  0
   22.2792   -4.2802  -12.6628 O   0  0  0  0  0  0  0  0  0  0  0  0
  2  3  1  0
  2  1  1  0
  3  4  1  6
  3  5  1  0
  5  6  1  1
  7  5  1  0
  7  9  1  0
  8  7  2  0
 10  9  1  0
 11 12  1  0
 10 11  1  1
 12 16  1  0
 13 12  2  0
 13 14  1  0
 14 15  1  0
 16 15  2  0
 17 10  1  0
 18 17  2  0
 20 21  1  0
 20 19  1  6
 21 17  1  0
 22 20  1  0
 23 22  2  0
 24 22  1  0
M  END
$$$$
