IHA.pdb
     RDKit          3D

 24 24  0  0  1  0  0  0  0  0999 V2000
   11.2948  -11.0295   -9.1438 C   0  0  0  0  0  0  0  0  0  0  0  0
   12.3575  -11.4305  -10.1769 C   0  0  0  0  0  0  0  0  0  0  0  0
   13.5677  -10.5962   -9.8887 C   0  0  2  0  0  0  0  0  0  0  0  0
   13.1832   -9.1445   -9.8640 C   0  0  0  0  0  0  0  0  0  0  0  0
   14.7290  -10.8556  -10.8066 C   0  0  2  0  0  0  0  0  0  0  0  0
   15.1511  -12.2251  -10.7226 N   0  0  0  0  0  0  0  0  0  0  0  0
   15.8935   -9.9738  -10.5491 C   0  0  0  0  0  0  0  0  0  0  0  0
   16.6686  -10.1613   -9.5773 O   0  0  0  0  0  0  0  0  0  0  0  0
   16.1778   -8.8773  -11.3963 N   0  0  0  0  0  0  0  0  0  0  0  0
   17.2736   -7.9642  -11.2702 C   0  0  1  0  0  0  0  0  0  0  0  0
   18.2318   -7.9384  -12.4196 C   0  0  0  0  0  0  0  0  0  0  0  0
   19.3799   -7.0487  -12.2918 C   0  0  0  0  0  0  0  0  0  0  0  0
   19.8156   -6.2789  -11.2600 C   0  0  0  0  0  0  0  0  0  0  0  0
   20.9319   -5.6426  -11.6983 N   0  0  0  0  0  0  0  0  0  0  0  0
   21.1799   -6.0073  -12.9639 C   0  0  0  0  0  0  0  0  0  0  0  0
   20.2401   -6.8681  -13.3451 N   0  0  0  0  0  0  0  0  0  0  0  0
   16.7544   -6.5531  -11.0469 C   0  0  0  0  0  0  0  0  0  0  0  0
   15.9839   -6.0208  -11.8829 O   0  0  0  0  0  0  0  0  0  0  0  0
   17.1141   -4.0514   -8.2821 C   0  0  0  0  0  0  0  0  0  0  0  0
   16.6439   -4.4396   -9.6823 C   0  0  2  0  0  0  0  0  0  0  0  0
   17.1109   -5.7941   -9.9088 N   0  0  0  0  0  0  0  0  0  0  0  0
   17.1233   -3.4956  -10.6892 C   0  0  0  0  0  0  0  0  0  0  0  0
   18.1926   -3.7009  -11.3089 O   0  0  0  0  0  0  0  0  0  0  0  0
   16.3928   -2.3545  -10.9704 O   0  0  0  0  0  0  0  0  0  0  0  0
  2  3  1  0
  2  1  1  0
  3  4  1  6
  3  5  1  0
  5  6  1  1
  7  5  1  0
  7  9  1  0
  8  7  2  0
 10  9  1  0
 11 12  1  0
 10 11  1  6
 12 16  1  0
 13 12  2  0
 13 14  1  0
 14 15  1  0
 16 15  2  0
 17 10  1  0
 18 17  2  0
 20 21  1  0
 20 19  1  1
 21 17  1  0
 22 20  1  0
 23 22  2  0
 24 22  1  0
M  END
$$$$
