IHA.pdb
     RDKit          3D

 24 24  0  0  1  0  0  0  0  0999 V2000
   24.7231  -28.1940   -8.6333 C   0  0  0  0  0  0  0  0  0  0  0  0
   23.8608  -28.8722   -9.7076 C   0  0  0  0  0  0  0  0  0  0  0  0
   23.1572  -30.0096   -9.0333 C   0  0  2  0  0  0  0  0  0  0  0  0
   24.1592  -30.8616   -8.3081 C   0  0  0  0  0  0  0  0  0  0  0  0
   22.2826  -30.8224   -9.9460 C   0  0  2  0  0  0  0  0  0  0  0  0
   21.3464  -29.9829  -10.6384 N   0  0  0  0  0  0  0  0  0  0  0  0
   21.5410  -31.9005   -9.2475 C   0  0  0  0  0  0  0  0  0  0  0  0
   20.4619  -31.6814   -8.6412 O   0  0  0  0  0  0  0  0  0  0  0  0
   22.0262  -33.2292   -9.2373 N   0  0  0  0  0  0  0  0  0  0  0  0
   21.4150  -34.3549   -8.5973 C   0  0  1  0  0  0  0  0  0  0  0  0
   20.9832  -35.4624   -9.5067 C   0  0  0  0  0  0  0  0  0  0  0  0
   19.8308  -35.1946  -10.3591 C   0  0  0  0  0  0  0  0  0  0  0  0
   18.9246  -34.1818  -10.3608 C   0  0  0  0  0  0  0  0  0  0  0  0
   18.0545  -34.4447  -11.3692 N   0  0  0  0  0  0  0  0  0  0  0  0
   18.4112  -35.5865  -11.9737 C   0  0  0  0  0  0  0  0  0  0  0  0
   19.4970  -36.0609  -11.3691 N   0  0  0  0  0  0  0  0  0  0  0  0
   22.3530  -34.9328   -7.5499 C   0  0  0  0  0  0  0  0  0  0  0  0
   23.5700  -35.0974   -7.8097 O   0  0  0  0  0  0  0  0  0  0  0  0
   23.4150  -37.0701   -5.7411 C   0  0  0  0  0  0  0  0  0  0  0  0
   22.7908  -35.7780   -5.2186 C   0  0  2  0  0  0  0  0  0  0  0  0
   21.9024  -35.3027   -6.2621 N   0  0  0  0  0  0  0  0  0  0  0  0
   23.8122  -34.8002   -4.8506 C   0  0  0  0  0  0  0  0  0  0  0  0
   23.5612  -33.5728   -4.8536 O   0  0  0  0  0  0  0  0  0  0  0  0
   25.0791  -35.2255   -4.4917 O   0  0  0  0  0  0  0  0  0  0  0  0
  2  3  1  0
  2  1  1  0
  3  4  1  6
  3  5  1  0
  5  6  1  1
  7  5  1  0
  7  9  1  0
  8  7  2  0
 10  9  1  0
 11 12  1  0
 10 11  1  6
 12 16  1  0
 13 12  2  0
 13 14  1  0
 14 15  1  0
 16 15  2  0
 17 10  1  0
 18 17  2  0
 20 21  1  0
 20 19  1  6
 21 17  1  0
 22 20  1  0
 23 22  2  0
 24 22  1  0
M  END
$$$$
