NNW.pdb
     RDKit          3D

 31 32  0  0  1  0  0  0  0  0999 V2000
    8.3735  -12.7828   17.7775 N   0  0  0  0  0  0  0  0  0  0  0  0
    7.7130  -14.0260   17.6489 C   0  0  0  0  0  0  0  0  0  0  0  0
    7.0008  -14.2405   16.6486 O   0  0  0  0  0  0  0  0  0  0  0  0
    7.8766  -15.0454   18.6948 C   0  0  0  0  0  0  0  0  0  0  0  0
    8.5429  -14.4738   19.9466 C   0  0  2  0  0  0  0  0  0  0  0  0
    9.7052  -13.6900   19.6023 N   0  0  0  0  0  0  0  0  0  0  0  0
    8.8647  -15.6064   20.8304 C   0  0  0  0  0  0  0  0  0  0  0  0
    7.9280  -16.3474   21.2237 O   0  0  0  0  0  0  0  0  0  0  0  0
   12.7409  -17.3637   19.4698 N   0  0  0  0  0  0  0  0  0  0  0  0
   11.9671  -18.0186   20.4558 C   0  0  0  0  0  0  0  0  0  0  0  0
   11.3533  -19.0748   20.1468 O   0  0  0  0  0  0  0  0  0  0  0  0
   11.8667  -17.4836   21.8459 C   0  0  0  0  0  0  0  0  0  0  0  0
   10.4853  -16.9366   22.1208 C   0  0  2  0  0  0  0  0  0  0  0  0
   10.2041  -15.8501   21.2257 N   0  0  0  0  0  0  0  0  0  0  0  0
   10.4429  -16.4953   23.5475 C   0  0  0  0  0  0  0  0  0  0  0  0
   11.1009  -15.4857   23.8884 O   0  0  0  0  0  0  0  0  0  0  0  0
    9.6921  -17.1705   24.5307 N   0  0  0  0  0  0  0  0  0  0  0  0
    9.6308  -16.8000   25.9433 C   0  0  1  0  0  0  0  0  0  0  0  0
    8.2326  -16.8079   26.4377 C   0  0  0  0  0  0  0  0  0  0  0  0
    7.3446  -15.7587   25.9463 C   0  0  0  0  0  0  0  0  0  0  0  0
    6.2407  -15.9821   25.1357 C   0  0  0  0  0  0  0  0  0  0  0  0
    5.6547  -14.7962   24.8426 N   0  0  0  0  0  0  0  0  0  0  0  0
    6.3459  -13.7956   25.4417 C   0  0  0  0  0  0  0  0  0  0  0  0
    6.1920  -12.4290   25.4947 C   0  0  0  0  0  0  0  0  0  0  0  0
    7.0374  -11.6002   26.2063 C   0  0  0  0  0  0  0  0  0  0  0  0
    8.0772  -12.1943   26.8870 C   0  0  0  0  0  0  0  0  0  0  0  0
    8.2491  -13.5599   26.8463 C   0  0  0  0  0  0  0  0  0  0  0  0
    7.4029  -14.3985   26.1323 C   0  0  0  0  0  0  0  0  0  0  0  0
   10.5715  -17.6572   26.6728 C   0  0  0  0  0  0  0  0  0  0  0  0
   11.0420  -17.4445   27.9572 O   0  0  0  0  0  0  0  0  0  0  0  0
   11.0342  -18.7108   26.1075 O   0  0  0  0  0  0  0  0  0  0  0  0
  2  1  1  0
  2  4  1  0
  3  2  2  0
  4  5  1  0
  5  6  1  6
  7  8  2  0
  7  5  1  0
 10  9  1  0
 10 11  2  0
 13 12  1  6
 12 10  1  0
 13 14  1  0
 14  7  1  0
 15 13  1  0
 16 15  2  0
 17 15  1  0
 18 17  1  0
 18 19  1  1
 19 20  1  0
 20 28  1  0
 21 20  2  0
 21 22  1  0
 22 23  1  0
 23 24  1  0
 24 25  2  0
 26 25  1  0
 27 26  2  0
 28 23  2  0
 28 27  1  0
 29 30  1  0
 29 18  1  0
 31 29  2  0
M  END
$$$$
