NNW.pdb
     RDKit          3D

 31 32  0  0  1  0  0  0  0  0999 V2000
    7.4367  -12.8467   16.5124 N   0  0  0  0  0  0  0  0  0  0  0  0
    7.6805  -14.2044   16.2031 C   0  0  0  0  0  0  0  0  0  0  0  0
    7.7153  -14.5641   15.0101 O   0  0  0  0  0  0  0  0  0  0  0  0
    7.8896  -15.1696   17.2916 C   0  0  0  0  0  0  0  0  0  0  0  0
    9.1063  -14.8096   18.1447 C   0  0  2  0  0  0  0  0  0  0  0  0
   10.2821  -14.6410   17.3244 N   0  0  0  0  0  0  0  0  0  0  0  0
    9.2663  -15.8701   19.1532 C   0  0  0  0  0  0  0  0  0  0  0  0
    8.2424  -16.2952   19.7466 O   0  0  0  0  0  0  0  0  0  0  0  0
   13.1680  -18.4034   18.1338 N   0  0  0  0  0  0  0  0  0  0  0  0
   12.1275  -18.7374   19.0314 C   0  0  0  0  0  0  0  0  0  0  0  0
   11.2852  -19.6104   18.6903 O   0  0  0  0  0  0  0  0  0  0  0  0
   12.0119  -18.0784   20.3659 C   0  0  0  0  0  0  0  0  0  0  0  0
   10.6930  -17.3541   20.5035 C   0  0  2  0  0  0  0  0  0  0  0  0
   10.5503  -16.3957   19.4443 N   0  0  0  0  0  0  0  0  0  0  0  0
   10.6698  -16.6954   21.8442 C   0  0  0  0  0  0  0  0  0  0  0  0
   11.6803  -16.0604   22.2241 O   0  0  0  0  0  0  0  0  0  0  0  0
    9.5551  -16.7597   22.7042 N   0  0  0  0  0  0  0  0  0  0  0  0
    9.4613  -16.1076   24.0090 C   0  0  1  0  0  0  0  0  0  0  0  0
    8.3576  -15.1174   24.0335 C   0  0  0  0  0  0  0  0  0  0  0  0
    7.9104  -14.6480   25.3414 C   0  0  0  0  0  0  0  0  0  0  0  0
    7.7392  -15.4641   26.4506 C   0  0  0  0  0  0  0  0  0  0  0  0
    7.2917  -14.7177   27.4891 N   0  0  0  0  0  0  0  0  0  0  0  0
    7.1644  -13.4281   27.0911 C   0  0  0  0  0  0  0  0  0  0  0  0
    6.7744  -12.2693   27.7226 C   0  0  0  0  0  0  0  0  0  0  0  0
    6.7440  -11.0395   27.0944 C   0  0  0  0  0  0  0  0  0  0  0  0
    7.1267  -10.9974   25.7718 C   0  0  0  0  0  0  0  0  0  0  0  0
    7.5197  -12.1457   25.1213 C   0  0  0  0  0  0  0  0  0  0  0  0
    7.5519  -13.3851   25.7473 C   0  0  0  0  0  0  0  0  0  0  0  0
    9.4007  -17.1575   25.0316 C   0  0  0  0  0  0  0  0  0  0  0  0
   10.0264  -17.1316   26.2661 O   0  0  0  0  0  0  0  0  0  0  0  0
    8.7219  -18.2212   24.8047 O   0  0  0  0  0  0  0  0  0  0  0  0
  2  1  1  0
  2  4  1  0
  3  2  2  0
  4  5  1  0
  5  6  1  6
  7  8  2  0
  7  5  1  0
 10  9  1  0
 10 11  2  0
 13 12  1  6
 12 10  1  0
 13 14  1  0
 14  7  1  0
 15 13  1  0
 16 15  2  0
 17 15  1  0
 18 17  1  0
 18 19  1  6
 19 20  1  0
 20 28  1  0
 21 20  2  0
 21 22  1  0
 22 23  1  0
 23 24  1  0
 24 25  2  0
 26 25  1  0
 27 26  2  0
 28 23  2  0
 28 27  1  0
 29 30  1  0
 29 18  1  0
 31 29  2  0
M  END
$$$$
