NNW.pdb
     RDKit          3D

 31 32  0  0  1  0  0  0  0  0999 V2000
    8.8902  -12.7271   19.1488 N   0  0  0  0  0  0  0  0  0  0  0  0
    8.0557  -13.5360   18.3441 C   0  0  0  0  0  0  0  0  0  0  0  0
    7.8572  -13.2189   17.1550 O   0  0  0  0  0  0  0  0  0  0  0  0
    7.4362  -14.7375   18.9209 C   0  0  0  0  0  0  0  0  0  0  0  0
    7.9528  -15.0221   20.3316 C   0  0  2  0  0  0  0  0  0  0  0  0
    8.2434  -13.7948   21.0338 N   0  0  0  0  0  0  0  0  0  0  0  0
    9.1323  -15.8933   20.2012 C   0  0  0  0  0  0  0  0  0  0  0  0
    9.5824  -16.1280   19.0508 O   0  0  0  0  0  0  0  0  0  0  0  0
   13.3278  -15.7454   20.0042 N   0  0  0  0  0  0  0  0  0  0  0  0
   12.3742  -14.7040   20.0828 C   0  0  0  0  0  0  0  0  0  0  0  0
   12.3932  -13.7933   19.2121 O   0  0  0  0  0  0  0  0  0  0  0  0
   11.3532  -14.6667   21.1713 C   0  0  0  0  0  0  0  0  0  0  0  0
   11.0750  -16.0527   21.7051 C   0  0  2  0  0  0  0  0  0  0  0  0
    9.7421  -16.4525   21.3524 N   0  0  0  0  0  0  0  0  0  0  0  0
   11.2621  -16.0189   23.1869 C   0  0  0  0  0  0  0  0  0  0  0  0
   12.3869  -15.7181   23.6482 O   0  0  0  0  0  0  0  0  0  0  0  0
   10.2227  -16.3140   24.0918 N   0  0  0  0  0  0  0  0  0  0  0  0
   10.3659  -16.3766   25.5450 C   0  0  1  0  0  0  0  0  0  0  0  0
    9.9356  -15.1072   26.1797 C   0  0  0  0  0  0  0  0  0  0  0  0
    8.5314  -14.7333   26.0405 C   0  0  0  0  0  0  0  0  0  0  0  0
    7.5166  -15.6138   25.6929 C   0  0  0  0  0  0  0  0  0  0  0  0
    6.3436  -14.9390   25.6264 N   0  0  0  0  0  0  0  0  0  0  0  0
    6.5607  -13.6341   25.9228 C   0  0  0  0  0  0  0  0  0  0  0  0
    5.7455  -12.5295   26.0184 C   0  0  0  0  0  0  0  0  0  0  0  0
    6.2094  -11.2752   26.3643 C   0  0  0  0  0  0  0  0  0  0  0  0
    7.5571  -11.1500   26.6206 C   0  0  0  0  0  0  0  0  0  0  0  0
    8.3900  -12.2427   26.5297 C   0  0  0  0  0  0  0  0  0  0  0  0
    7.9297  -13.5061   26.1820 C   0  0  0  0  0  0  0  0  0  0  0  0
    9.6823  -17.5879   26.0111 C   0  0  0  0  0  0  0  0  0  0  0  0
    9.7728  -18.1403   27.2772 O   0  0  0  0  0  0  0  0  0  0  0  0
    8.9233  -18.2342   25.2049 O   0  0  0  0  0  0  0  0  0  0  0  0
  2  1  1  0
  2  4  1  0
  3  2  2  0
  4  5  1  0
  5  6  1  6
  7  8  2  0
  7  5  1  0
 10  9  1  0
 10 11  2  0
 13 12  1  1
 12 10  1  0
 13 14  1  0
 14  7  1  0
 15 13  1  0
 16 15  2  0
 17 15  1  0
 18 17  1  0
 18 19  1  1
 19 20  1  0
 20 28  1  0
 21 20  2  0
 21 22  1  0
 22 23  1  0
 23 24  1  0
 24 25  2  0
 26 25  1  0
 27 26  2  0
 28 23  2  0
 28 27  1  0
 29 30  1  0
 29 18  1  0
 31 29  2  0
M  END
$$$$
