NNW.pdb
     RDKit          3D

 31 32  0  0  1  0  0  0  0  0999 V2000
    7.8039  -12.9125   17.0988 N   0  0  0  0  0  0  0  0  0  0  0  0
    8.3747  -14.0227   16.4355 C   0  0  0  0  0  0  0  0  0  0  0  0
    8.6664  -13.9306   15.2271 O   0  0  0  0  0  0  0  0  0  0  0  0
    8.6158  -15.2666   17.1802 C   0  0  0  0  0  0  0  0  0  0  0  0
    8.1779  -15.1490   18.6404 C   0  0  2  0  0  0  0  0  0  0  0  0
    8.4057  -13.8152   19.1434 N   0  0  0  0  0  0  0  0  0  0  0  0
    8.9083  -16.1747   19.4032 C   0  0  0  0  0  0  0  0  0  0  0  0
    9.0683  -17.3093   18.8851 O   0  0  0  0  0  0  0  0  0  0  0  0
   13.7048  -13.8031   20.5076 N   0  0  0  0  0  0  0  0  0  0  0  0
   13.0197  -15.0097   20.2347 C   0  0  0  0  0  0  0  0  0  0  0  0
   13.6693  -16.0894   20.2197 O   0  0  0  0  0  0  0  0  0  0  0  0
   11.5511  -15.0253   19.9668 C   0  0  0  0  0  0  0  0  0  0  0  0
   10.8329  -15.9500   20.9219 C   0  0  2  0  0  0  0  0  0  0  0  0
    9.4172  -15.8826   20.6937 N   0  0  0  0  0  0  0  0  0  0  0  0
   11.1833  -15.5335   22.3132 C   0  0  0  0  0  0  0  0  0  0  0  0
   11.7945  -14.4542   22.4861 O   0  0  0  0  0  0  0  0  0  0  0  0
   10.8553  -16.3077   23.4443 N   0  0  0  0  0  0  0  0  0  0  0  0
    9.8629  -15.9431   24.4535 C   0  0  1  0  0  0  0  0  0  0  0  0
    8.6000  -15.4896   23.8218 C   0  0  0  0  0  0  0  0  0  0  0  0
    7.5526  -14.9894   24.7071 C   0  0  0  0  0  0  0  0  0  0  0  0
    6.3649  -15.6567   24.9713 C   0  0  0  0  0  0  0  0  0  0  0  0
    5.6083  -14.9067   25.8086 N   0  0  0  0  0  0  0  0  0  0  0  0
    6.2696  -13.7606   26.1035 C   0  0  0  0  0  0  0  0  0  0  0  0
    5.9851  -12.6726   26.8967 C   0  0  0  0  0  0  0  0  0  0  0  0
    6.8496  -11.6072   27.0569 C   0  0  0  0  0  0  0  0  0  0  0  0
    8.0476  -11.6599   26.3790 C   0  0  0  0  0  0  0  0  0  0  0  0
    8.3512  -12.7391   25.5796 C   0  0  0  0  0  0  0  0  0  0  0  0
    7.4861  -13.8131   25.4142 C   0  0  0  0  0  0  0  0  0  0  0  0
    9.7419  -17.0659   25.3896 C   0  0  0  0  0  0  0  0  0  0  0  0
   10.2252  -18.3481   25.1931 O   0  0  0  0  0  0  0  0  0  0  0  0
    9.1343  -16.8947   26.5056 O   0  0  0  0  0  0  0  0  0  0  0  0
  2  1  1  0
  2  4  1  0
  3  2  2  0
  4  5  1  0
  5  6  1  1
  7  8  2  0
  7  5  1  0
 10  9  1  0
 10 11  2  0
 13 12  1  6
 12 10  1  0
 13 14  1  0
 14  7  1  0
 15 13  1  0
 16 15  2  0
 17 15  1  0
 18 17  1  0
 18 19  1  6
 19 20  1  0
 20 28  1  0
 21 20  2  0
 21 22  1  0
 22 23  1  0
 23 24  1  0
 24 25  2  0
 26 25  1  0
 27 26  2  0
 28 23  2  0
 28 27  1  0
 29 30  1  0
 29 18  1  0
 31 29  2  0
M  END
$$$$
