NNW.pdb
     RDKit          3D

 31 32  0  0  1  0  0  0  0  0999 V2000
    5.6459  -18.0536   19.6940 N   0  0  0  0  0  0  0  0  0  0  0  0
    6.8495  -18.2017   18.9676 C   0  0  0  0  0  0  0  0  0  0  0  0
    6.8510  -18.0012   17.7373 O   0  0  0  0  0  0  0  0  0  0  0  0
    8.0792  -18.5885   19.6734 C   0  0  0  0  0  0  0  0  0  0  0  0
    7.8608  -18.6878   21.1834 C   0  0  2  0  0  0  0  0  0  0  0  0
    7.2960  -17.4665   21.7062 N   0  0  0  0  0  0  0  0  0  0  0  0
    9.1582  -19.0194   21.7951 C   0  0  0  0  0  0  0  0  0  0  0  0
    9.9068  -19.8422   21.2088 O   0  0  0  0  0  0  0  0  0  0  0  0
   12.6051  -15.5951   21.5396 N   0  0  0  0  0  0  0  0  0  0  0  0
   11.2877  -15.2906   21.9538 C   0  0  0  0  0  0  0  0  0  0  0  0
   11.0111  -14.1065   22.2845 O   0  0  0  0  0  0  0  0  0  0  0  0
   10.2276  -16.3404   22.0047 C   0  0  0  0  0  0  0  0  0  0  0  0
   10.5702  -17.4122   23.0133 C   0  0  2  0  0  0  0  0  0  0  0  0
    9.5483  -18.4204   23.0194 N   0  0  0  0  0  0  0  0  0  0  0  0
   10.7013  -16.7580   24.3501 C   0  0  0  0  0  0  0  0  0  0  0  0
   11.5759  -15.8758   24.5089 O   0  0  0  0  0  0  0  0  0  0  0  0
    9.8804  -17.0941   25.4452 N   0  0  0  0  0  0  0  0  0  0  0  0
   10.2314  -16.8976   26.8504 C   0  0  1  0  0  0  0  0  0  0  0  0
    9.2578  -16.0049   27.5247 C   0  0  0  0  0  0  0  0  0  0  0  0
    8.1623  -15.4792   26.7157 C   0  0  0  0  0  0  0  0  0  0  0  0
    7.2258  -16.2649   26.0589 C   0  0  0  0  0  0  0  0  0  0  0  0
    6.3682  -15.4644   25.3812 N   0  0  0  0  0  0  0  0  0  0  0  0
    6.7164  -14.1688   25.5763 C   0  0  0  0  0  0  0  0  0  0  0  0
    6.1981  -12.9674   25.1500 C   0  0  0  0  0  0  0  0  0  0  0  0
    6.7316  -11.7445   25.5074 C   0  0  0  0  0  0  0  0  0  0  0  0
    7.8360  -11.7548   26.3307 C   0  0  0  0  0  0  0  0  0  0  0  0
    8.3705  -12.9461   26.7678 C   0  0  0  0  0  0  0  0  0  0  0  0
    7.8389  -14.1788   26.4116 C   0  0  0  0  0  0  0  0  0  0  0  0
   10.4114  -18.2210   27.4569 C   0  0  0  0  0  0  0  0  0  0  0  0
   11.6020  -18.9211   27.5501 O   0  0  0  0  0  0  0  0  0  0  0  0
    9.3992  -18.8297   27.9557 O   0  0  0  0  0  0  0  0  0  0  0  0
  2  1  1  0
  2  4  1  0
  3  2  2  0
  4  5  1  0
  5  6  1  1
  7  8  2  0
  7  5  1  0
 10  9  1  0
 10 11  2  0
 13 12  1  6
 12 10  1  0
 13 14  1  0
 14  7  1  0
 15 13  1  0
 16 15  2  0
 17 15  1  0
 18 17  1  0
 18 19  1  1
 19 20  1  0
 20 28  1  0
 21 20  2  0
 21 22  1  0
 22 23  1  0
 23 24  1  0
 24 25  2  0
 26 25  1  0
 27 26  2  0
 28 23  2  0
 28 27  1  0
 29 30  1  0
 29 18  1  0
 31 29  2  0
M  END
$$$$
