NNW.pdb
     RDKit          3D

 31 32  0  0  1  0  0  0  0  0999 V2000
    9.8886  -17.1844   18.1905 N   0  0  0  0  0  0  0  0  0  0  0  0
    8.8852  -18.1792   18.1477 C   0  0  0  0  0  0  0  0  0  0  0  0
    8.8681  -18.9916   17.2024 O   0  0  0  0  0  0  0  0  0  0  0  0
    7.8792  -18.2406   19.2174 C   0  0  0  0  0  0  0  0  0  0  0  0
    7.9850  -17.0467   20.1666 C   0  0  2  0  0  0  0  0  0  0  0  0
    8.2591  -15.8300   19.4396 N   0  0  0  0  0  0  0  0  0  0  0  0
    9.0278  -17.3622   21.1567 C   0  0  0  0  0  0  0  0  0  0  0  0
    8.9342  -18.4337   21.8080 O   0  0  0  0  0  0  0  0  0  0  0  0
   14.4663  -15.5667   23.4199 N   0  0  0  0  0  0  0  0  0  0  0  0
   13.4286  -16.4660   23.0819 C   0  0  0  0  0  0  0  0  0  0  0  0
   13.3882  -17.5908   23.6485 O   0  0  0  0  0  0  0  0  0  0  0  0
   12.3880  -16.1072   22.0733 C   0  0  0  0  0  0  0  0  0  0  0  0
   11.0643  -16.7578   22.4011 C   0  0  2  0  0  0  0  0  0  0  0  0
   10.1112  -16.4722   21.3663 N   0  0  0  0  0  0  0  0  0  0  0  0
   10.6103  -16.2316   23.7236 C   0  0  0  0  0  0  0  0  0  0  0  0
   10.6921  -15.0019   23.9461 O   0  0  0  0  0  0  0  0  0  0  0  0
   10.0931  -17.0640   24.7365 N   0  0  0  0  0  0  0  0  0  0  0  0
    9.6886  -16.6159   26.0677 C   0  0  1  0  0  0  0  0  0  0  0  0
    8.2119  -16.5380   26.1797 C   0  0  0  0  0  0  0  0  0  0  0  0
    7.5555  -15.3870   25.5670 C   0  0  0  0  0  0  0  0  0  0  0  0
    7.0779  -15.3587   24.2644 C   0  0  0  0  0  0  0  0  0  0  0  0
    6.5528  -14.1363   24.0080 N   0  0  0  0  0  0  0  0  0  0  0  0
    6.6720  -13.3578   25.1115 C   0  0  0  0  0  0  0  0  0  0  0  0
    6.3046  -12.0659   25.4113 C   0  0  0  0  0  0  0  0  0  0  0  0
    6.5221  -11.4853   26.6456 C   0  0  0  0  0  0  0  0  0  0  0  0
    7.1386  -12.2571   27.6057 C   0  0  0  0  0  0  0  0  0  0  0  0
    7.5148  -13.5518   27.3257 C   0  0  0  0  0  0  0  0  0  0  0  0
    7.2992  -14.1410   26.0865 C   0  0  0  0  0  0  0  0  0  0  0  0
   10.3598  -17.4718   27.0520 C   0  0  0  0  0  0  0  0  0  0  0  0
   11.2086  -18.5286   26.7707 O   0  0  0  0  0  0  0  0  0  0  0  0
   10.1690  -17.2649   28.3028 O   0  0  0  0  0  0  0  0  0  0  0  0
  2  1  1  0
  2  4  1  0
  3  2  2  0
  4  5  1  0
  5  6  1  6
  7  8  2  0
  7  5  1  0
 10  9  1  0
 10 11  2  0
 13 12  1  6
 12 10  1  0
 13 14  1  0
 14  7  1  0
 15 13  1  0
 16 15  2  0
 17 15  1  0
 18 17  1  0
 18 19  1  6
 19 20  1  0
 20 28  1  0
 21 20  2  0
 21 22  1  0
 22 23  1  0
 23 24  1  0
 24 25  2  0
 26 25  1  0
 27 26  2  0
 28 23  2  0
 28 27  1  0
 29 30  1  0
 29 18  1  0
 31 29  2  0
M  END
$$$$
