NNW.pdb
     RDKit          3D

 31 32  0  0  1  0  0  0  0  0999 V2000
    7.3337  -22.3185   18.3915 N   0  0  0  0  0  0  0  0  0  0  0  0
    8.4568  -21.8242   19.0933 C   0  0  0  0  0  0  0  0  0  0  0  0
    9.1618  -22.6121   19.7537 O   0  0  0  0  0  0  0  0  0  0  0  0
    8.7761  -20.3909   19.0329 C   0  0  0  0  0  0  0  0  0  0  0  0
    9.0163  -19.8028   20.4237 C   0  0  2  0  0  0  0  0  0  0  0  0
    7.9275  -20.1225   21.3161 N   0  0  0  0  0  0  0  0  0  0  0  0
    9.2085  -18.3523   20.2613 C   0  0  0  0  0  0  0  0  0  0  0  0
   10.0851  -17.9483   19.4554 O   0  0  0  0  0  0  0  0  0  0  0  0
    6.8692  -12.9143   21.1619 N   0  0  0  0  0  0  0  0  0  0  0  0
    7.5129  -13.8722   20.3446 C   0  0  0  0  0  0  0  0  0  0  0  0
    8.2654  -13.4738   19.4157 O   0  0  0  0  0  0  0  0  0  0  0  0
    7.3175  -15.3361   20.5630 C   0  0  0  0  0  0  0  0  0  0  0  0
    8.6340  -16.0273   20.8317 C   0  0  2  0  0  0  0  0  0  0  0  0
    8.4190  -17.4365   21.0014 N   0  0  0  0  0  0  0  0  0  0  0  0
    9.2321  -15.4138   22.0556 C   0  0  0  0  0  0  0  0  0  0  0  0
    9.5568  -14.2045   22.0295 O   0  0  0  0  0  0  0  0  0  0  0  0
    9.4489  -16.1415   23.2429 N   0  0  0  0  0  0  0  0  0  0  0  0
   10.2594  -15.6870   24.3712 C   0  0  1  0  0  0  0  0  0  0  0  0
    9.4665  -15.6649   25.6243 C   0  0  0  0  0  0  0  0  0  0  0  0
    8.1787  -14.9783   25.5876 C   0  0  0  0  0  0  0  0  0  0  0  0
    6.9631  -15.6046   25.3514 C   0  0  0  0  0  0  0  0  0  0  0  0
    5.9748  -14.6778   25.3590 N   0  0  0  0  0  0  0  0  0  0  0  0
    6.5099  -13.4550   25.5956 C   0  0  0  0  0  0  0  0  0  0  0  0
    5.9809  -12.1908   25.7221 C   0  0  0  0  0  0  0  0  0  0  0  0
    6.7481  -11.0737   25.9895 C   0  0  0  0  0  0  0  0  0  0  0  0
    8.1055  -11.2602   26.1315 C   0  0  0  0  0  0  0  0  0  0  0  0
    8.6548  -12.5168   26.0080 C   0  0  0  0  0  0  0  0  0  0  0  0
    7.8889  -13.6437   25.7388 C   0  0  0  0  0  0  0  0  0  0  0  0
   11.4806  -16.4992   24.4019 C   0  0  0  0  0  0  0  0  0  0  0  0
   11.7286  -17.6293   23.6420 O   0  0  0  0  0  0  0  0  0  0  0  0
   12.4340  -16.1756   25.1957 O   0  0  0  0  0  0  0  0  0  0  0  0
  2  1  1  0
  2  4  1  0
  3  2  2  0
  4  5  1  0
  5  6  1  1
  7  8  2  0
  7  5  1  0
 10  9  1  0
 10 11  2  0
 13 12  1  1
 12 10  1  0
 13 14  1  0
 14  7  1  0
 15 13  1  0
 16 15  2  0
 17 15  1  0
 18 17  1  0
 18 19  1  1
 19 20  1  0
 20 28  1  0
 21 20  2  0
 21 22  1  0
 22 23  1  0
 23 24  1  0
 24 25  2  0
 26 25  1  0
 27 26  2  0
 28 23  2  0
 28 27  1  0
 29 30  1  0
 29 18  1  0
 31 29  2  0
M  END
$$$$
