NNW.pdb
     RDKit          3D

 31 32  0  0  1  0  0  0  0  0999 V2000
    6.1216  -21.6625   19.5008 N   0  0  0  0  0  0  0  0  0  0  0  0
    7.3804  -21.8629   20.1118 C   0  0  0  0  0  0  0  0  0  0  0  0
    7.6739  -22.9906   20.5545 O   0  0  0  0  0  0  0  0  0  0  0  0
    8.3231  -20.7400   20.2148 C   0  0  0  0  0  0  0  0  0  0  0  0
    8.6027  -20.3640   21.6702 C   0  0  2  0  0  0  0  0  0  0  0  0
    7.3725  -20.1753   22.4017 N   0  0  0  0  0  0  0  0  0  0  0  0
    9.4462  -19.1575   21.6592 C   0  0  0  0  0  0  0  0  0  0  0  0
   10.5485  -19.1999   21.0557 O   0  0  0  0  0  0  0  0  0  0  0  0
   11.2429  -14.4863   20.8384 N   0  0  0  0  0  0  0  0  0  0  0  0
   10.0063  -14.4626   21.5240 C   0  0  0  0  0  0  0  0  0  0  0  0
    9.6349  -13.3915   22.0743 O   0  0  0  0  0  0  0  0  0  0  0  0
    9.1402  -15.6758   21.6053 C   0  0  0  0  0  0  0  0  0  0  0  0
    9.8600  -16.8142   22.2903 C   0  0  2  0  0  0  0  0  0  0  0  0
    9.0186  -17.9770   22.3174 N   0  0  0  0  0  0  0  0  0  0  0  0
   10.2181  -16.3656   23.6697 C   0  0  0  0  0  0  0  0  0  0  0  0
   11.0253  -15.4180   23.8074 O   0  0  0  0  0  0  0  0  0  0  0  0
    9.6853  -16.9672   24.8275 N   0  0  0  0  0  0  0  0  0  0  0  0
   10.1541  -16.7273   26.1910 C   0  0  1  0  0  0  0  0  0  0  0  0
    9.0234  -16.4103   27.0968 C   0  0  0  0  0  0  0  0  0  0  0  0
    7.9297  -15.6153   26.5467 C   0  0  0  0  0  0  0  0  0  0  0  0
    6.8275  -16.1459   25.8914 C   0  0  0  0  0  0  0  0  0  0  0  0
    6.0202  -15.1359   25.4864 N   0  0  0  0  0  0  0  0  0  0  0  0
    6.5636  -13.9515   25.8600 C   0  0  0  0  0  0  0  0  0  0  0  0
    6.1732  -12.6387   25.7261 C   0  0  0  0  0  0  0  0  0  0  0  0
    6.9066  -11.5777   26.2205 C   0  0  0  0  0  0  0  0  0  0  0  0
    8.0820  -11.8743   26.8748 C   0  0  0  0  0  0  0  0  0  0  0  0
    8.4909  -13.1812   27.0188 C   0  0  0  0  0  0  0  0  0  0  0  0
    7.7582  -14.2521   26.5236 C   0  0  0  0  0  0  0  0  0  0  0  0
   10.9885  -17.8675   26.5853 C   0  0  0  0  0  0  0  0  0  0  0  0
   11.2307  -19.0017   25.8296 O   0  0  0  0  0  0  0  0  0  0  0  0
   11.5638  -17.8623   27.7311 O   0  0  0  0  0  0  0  0  0  0  0  0
  2  1  1  0
  2  4  1  0
  3  2  2  0
  4  5  1  0
  5  6  1  1
  7  8  2  0
  7  5  1  0
 10  9  1  0
 10 11  2  0
 13 12  1  1
 12 10  1  0
 13 14  1  0
 14  7  1  0
 15 13  1  0
 16 15  2  0
 17 15  1  0
 18 17  1  0
 18 19  1  1
 19 20  1  0
 20 28  1  0
 21 20  2  0
 21 22  1  0
 22 23  1  0
 23 24  1  0
 24 25  2  0
 26 25  1  0
 27 26  2  0
 28 23  2  0
 28 27  1  0
 29 30  1  0
 29 18  1  0
 31 29  2  0
M  END
$$$$
