NNW.pdb
     RDKit          3D

 31 32  0  0  1  0  0  0  0  0999 V2000
    6.8647  -18.7761   18.2046 N   0  0  0  0  0  0  0  0  0  0  0  0
    6.8782  -18.0779   19.4337 C   0  0  0  0  0  0  0  0  0  0  0  0
    5.8080  -17.6455   19.9043 O   0  0  0  0  0  0  0  0  0  0  0  0
    8.1523  -17.8735   20.1373 C   0  0  0  0  0  0  0  0  0  0  0  0
    9.3372  -18.4138   19.3362 C   0  0  2  0  0  0  0  0  0  0  0  0
    9.2312  -19.8420   19.1547 N   0  0  0  0  0  0  0  0  0  0  0  0
   10.5650  -18.0227   20.0481 C   0  0  0  0  0  0  0  0  0  0  0  0
   11.1823  -18.8973   20.7077 O   0  0  0  0  0  0  0  0  0  0  0  0
   14.6651  -15.5204   21.7788 N   0  0  0  0  0  0  0  0  0  0  0  0
   14.1860  -14.7991   20.6608 C   0  0  0  0  0  0  0  0  0  0  0  0
   14.8906  -13.8667   20.1895 O   0  0  0  0  0  0  0  0  0  0  0  0
   12.8700  -15.1219   20.0343 C   0  0  0  0  0  0  0  0  0  0  0  0
   12.2417  -16.3346   20.6807 C   0  0  2  0  0  0  0  0  0  0  0  0
   11.0352  -16.6867   19.9871 N   0  0  0  0  0  0  0  0  0  0  0  0
   11.9730  -16.0030   22.1124 C   0  0  0  0  0  0  0  0  0  0  0  0
   12.9378  -15.7219   22.8598 O   0  0  0  0  0  0  0  0  0  0  0  0
   10.6747  -15.9948   22.6605 N   0  0  0  0  0  0  0  0  0  0  0  0
   10.3522  -15.6897   24.0531 C   0  0  1  0  0  0  0  0  0  0  0  0
    9.0371  -15.0127   24.1612 C   0  0  0  0  0  0  0  0  0  0  0  0
    8.7106  -14.3880   25.4396 C   0  0  0  0  0  0  0  0  0  0  0  0
    9.1829  -14.8255   26.6690 C   0  0  0  0  0  0  0  0  0  0  0  0
    8.6687  -14.0433   27.6486 N   0  0  0  0  0  0  0  0  0  0  0  0
    7.8691  -13.0995   27.0941 C   0  0  0  0  0  0  0  0  0  0  0  0
    7.1241  -12.0610   27.6045 C   0  0  0  0  0  0  0  0  0  0  0  0
    6.3868  -11.2002   26.8151 C   0  0  0  0  0  0  0  0  0  0  0  0
    6.4145  -11.4126   25.4543 C   0  0  0  0  0  0  0  0  0  0  0  0
    7.1529  -12.4464   24.9235 C   0  0  0  0  0  0  0  0  0  0  0  0
    7.8959  -13.3156   25.7119 C   0  0  0  0  0  0  0  0  0  0  0  0
   10.5002  -16.9259   24.8288 C   0  0  0  0  0  0  0  0  0  0  0  0
   10.8763  -18.1617   24.3312 O   0  0  0  0  0  0  0  0  0  0  0  0
   10.2641  -16.9124   26.0889 O   0  0  0  0  0  0  0  0  0  0  0  0
  2  1  1  0
  2  4  1  0
  3  2  2  0
  4  5  1  0
  5  6  1  1
  7  8  2  0
  7  5  1  0
 10  9  1  0
 10 11  2  0
 13 12  1  6
 12 10  1  0
 13 14  1  0
 14  7  1  0
 15 13  1  0
 16 15  2  0
 17 15  1  0
 18 17  1  0
 18 19  1  6
 19 20  1  0
 20 28  1  0
 21 20  2  0
 21 22  1  0
 22 23  1  0
 23 24  1  0
 24 25  2  0
 26 25  1  0
 27 26  2  0
 28 23  2  0
 28 27  1  0
 29 30  1  0
 29 18  1  0
 31 29  2  0
M  END
$$$$
