IYG.pdb
     RDKit          3D

 25 25  0  0  1  0  0  0  0  0999 V2000
   20.7012  -13.4261  -17.1600 C   0  0  0  0  0  0  0  0  0  0  0  0
   20.2389  -11.9810  -17.3049 C   0  0  0  0  0  0  0  0  0  0  0  0
   21.0772  -11.1192  -16.4268 C   0  0  2  0  0  0  0  0  0  0  0  0
   21.2026  -11.6706  -15.0184 C   0  0  0  0  0  0  0  0  0  0  0  0
   20.7353   -9.6708  -16.4518 C   0  0  2  0  0  0  0  0  0  0  0  0
   20.6666   -9.2576  -17.8665 N   0  0  0  0  0  0  0  0  0  0  0  0
   21.6326   -8.7709  -15.7298 C   0  0  0  0  0  0  0  0  0  0  0  0
   21.7494   -8.9249  -14.4597 O   0  0  0  0  0  0  0  0  0  0  0  0
   27.0926  -11.9389  -16.3399 O   0  0  0  0  0  0  0  0  0  0  0  0
   26.4985  -10.6995  -16.2002 C   0  0  0  0  0  0  0  0  0  0  0  0
   26.2339  -10.1051  -14.9977 C   0  0  0  0  0  0  0  0  0  0  0  0
   25.6416   -8.8723  -14.9123 C   0  0  0  0  0  0  0  0  0  0  0  0
   25.2823   -8.1687  -16.0478 C   0  0  0  0  0  0  0  0  0  0  0  0
   24.6462   -6.8557  -15.9275 C   0  0  0  0  0  0  0  0  0  0  0  0
   23.2394   -6.8529  -15.4080 C   0  0  2  0  0  0  0  0  0  0  0  0
   22.4114   -7.7252  -16.2619 N   0  0  0  0  0  0  0  0  0  0  0  0
   22.6520   -5.5105  -15.4326 C   0  0  0  0  0  0  0  0  0  0  0  0
   22.2820   -5.0284  -16.5556 O   0  0  0  0  0  0  0  0  0  0  0  0
   25.5483   -8.7659  -17.2687 C   0  0  0  0  0  0  0  0  0  0  0  0
   26.1410   -9.9993  -17.3417 C   0  0  0  0  0  0  0  0  0  0  0  0
   22.4400   -4.6702  -14.3161 N   0  0  0  0  0  0  0  0  0  0  0  0
   21.8242   -3.3685  -14.3968 C   0  0  0  0  0  0  0  0  0  0  0  0
   20.3665   -3.3624  -14.2665 C   0  0  0  0  0  0  0  0  0  0  0  0
   19.6870   -4.5590  -14.1803 O   0  0  0  0  0  0  0  0  0  0  0  0
   19.7323   -2.2909  -14.2325 O   0  0  0  0  0  0  0  0  0  0  0  0
  2  1  1  0
  3  2  1  0
  3  5  1  0
  3  4  1  1
  5  7  1  0
  5  6  1  6
  7  8  2  0
  9 10  1  0
 10 20  2  0
 10 11  1  0
 11 12  2  0
 12 13  1  0
 13 14  1  0
 15 14  1  6
 16 15  1  0
 16  7  1  0
 17 21  1  0
 17 15  1  0
 18 17  2  0
 19 13  2  0
 20 19  1  0
 22 21  1  0
 23 22  1  0
 24 23  1  0
 25 23  2  0
M  END
$$$$
