IYG.pdb
     RDKit          3D

 25 25  0  0  1  0  0  0  0  0999 V2000
   25.1161  -19.5081  -19.3593 C   0  0  0  0  0  0  0  0  0  0  0  0
   26.1656  -19.4222  -18.2575 C   0  0  0  0  0  0  0  0  0  0  0  0
   25.6380  -20.0958  -17.0392 C   0  0  2  0  0  0  0  0  0  0  0  0
   24.1922  -19.7331  -16.7534 C   0  0  0  0  0  0  0  0  0  0  0  0
   26.5075  -19.9951  -15.8355 C   0  0  2  0  0  0  0  0  0  0  0  0
   27.8231  -20.5598  -16.1925 N   0  0  0  0  0  0  0  0  0  0  0  0
   26.0211  -20.6393  -14.6171 C   0  0  0  0  0  0  0  0  0  0  0  0
   26.1611  -21.9119  -14.5092 O   0  0  0  0  0  0  0  0  0  0  0  0
   31.3000  -21.1713  -10.8543 O   0  0  0  0  0  0  0  0  0  0  0  0
   29.9468  -20.9083  -10.9449 C   0  0  0  0  0  0  0  0  0  0  0  0
   29.4073  -19.9087  -11.7057 C   0  0  0  0  0  0  0  0  0  0  0  0
   28.0559  -19.6881  -11.7617 C   0  0  0  0  0  0  0  0  0  0  0  0
   27.1705  -20.4731  -11.0452 C   0  0  0  0  0  0  0  0  0  0  0  0
   25.7320  -20.2121  -11.1192 C   0  0  0  0  0  0  0  0  0  0  0  0
   25.0202  -20.7894  -12.3063 C   0  0  2  0  0  0  0  0  0  0  0  0
   25.4010  -20.0276  -13.5106 N   0  0  0  0  0  0  0  0  0  0  0  0
   23.5642  -20.7054  -12.1626 C   0  0  0  0  0  0  0  0  0  0  0  0
   23.0447  -21.0130  -11.0374 O   0  0  0  0  0  0  0  0  0  0  0  0
   27.7116  -21.4874  -10.2729 C   0  0  0  0  0  0  0  0  0  0  0  0
   29.0648  -21.6985  -10.2248 C   0  0  0  0  0  0  0  0  0  0  0  0
   22.6474  -20.3045  -13.1608 N   0  0  0  0  0  0  0  0  0  0  0  0
   21.2167  -20.2945  -12.9791 C   0  0  0  0  0  0  0  0  0  0  0  0
   20.4558  -19.6956  -14.0765 C   0  0  0  0  0  0  0  0  0  0  0  0
   19.1233  -19.3926  -13.8934 O   0  0  0  0  0  0  0  0  0  0  0  0
   20.9961  -19.4563  -15.1730 O   0  0  0  0  0  0  0  0  0  0  0  0
  2  1  1  0
  3  2  1  0
  3  5  1  0
  3  4  1  1
  5  7  1  0
  5  6  1  6
  7  8  2  0
  9 10  1  0
 10 20  2  0
 10 11  1  0
 11 12  2  0
 12 13  1  0
 13 14  1  0
 15 14  1  1
 16 15  1  0
 16  7  1  0
 17 21  1  0
 17 15  1  0
 18 17  2  0
 19 13  2  0
 20 19  1  0
 22 21  1  0
 23 22  1  0
 24 23  1  0
 25 23  2  0
M  END
$$$$
