IYG.pdb
     RDKit          3D

 25 25  0  0  1  0  0  0  0  0999 V2000
   32.5421  -22.3597   -9.6140 C   0  0  0  0  0  0  0  0  0  0  0  0
   31.1133  -21.9796   -9.2437 C   0  0  0  0  0  0  0  0  0  0  0  0
   30.3384  -21.7520  -10.4944 C   0  0  2  0  0  0  0  0  0  0  0  0
   31.1094  -20.9373  -11.5168 C   0  0  0  0  0  0  0  0  0  0  0  0
   28.9476  -21.2611  -10.2947 C   0  0  2  0  0  0  0  0  0  0  0  0
   28.2773  -22.1967   -9.3715 N   0  0  0  0  0  0  0  0  0  0  0  0
   28.1290  -21.0984  -11.4945 C   0  0  0  0  0  0  0  0  0  0  0  0
   27.5465  -22.1383  -11.9742 O   0  0  0  0  0  0  0  0  0  0  0  0
   21.8304  -21.4517   -9.8297 O   0  0  0  0  0  0  0  0  0  0  0  0
   22.8168  -20.8478  -10.5853 C   0  0  0  0  0  0  0  0  0  0  0  0
   23.8518  -20.1243  -10.0612 C   0  0  0  0  0  0  0  0  0  0  0  0
   24.8065  -19.5438  -10.8548 C   0  0  0  0  0  0  0  0  0  0  0  0
   24.7650  -19.6648  -12.2321 C   0  0  0  0  0  0  0  0  0  0  0  0
   25.7949  -19.0299  -13.0563 C   0  0  0  0  0  0  0  0  0  0  0  0
   26.9880  -19.8773  -13.3842 C   0  0  2  0  0  0  0  0  0  0  0  0
   27.8864  -19.9130  -12.2150 N   0  0  0  0  0  0  0  0  0  0  0  0
   27.7451  -19.3374  -14.5169 C   0  0  0  0  0  0  0  0  0  0  0  0
   28.2933  -18.1909  -14.3918 O   0  0  0  0  0  0  0  0  0  0  0  0
   23.7188  -20.3968  -12.7684 C   0  0  0  0  0  0  0  0  0  0  0  0
   22.7699  -20.9728  -11.9648 C   0  0  0  0  0  0  0  0  0  0  0  0
   27.9443  -19.9681  -15.7661 N   0  0  0  0  0  0  0  0  0  0  0  0
   28.7569  -19.4175  -16.8227 C   0  0  0  0  0  0  0  0  0  0  0  0
   28.0306  -19.0588  -18.0416 C   0  0  0  0  0  0  0  0  0  0  0  0
   26.6604  -19.2060  -18.0841 O   0  0  0  0  0  0  0  0  0  0  0  0
   28.6339  -18.6227  -19.0402 O   0  0  0  0  0  0  0  0  0  0  0  0
  2  1  1  0
  3  2  1  0
  3  5  1  0
  3  4  1  6
  5  7  1  0
  5  6  1  1
  7  8  2  0
  9 10  1  0
 10 20  2  0
 10 11  1  0
 11 12  2  0
 12 13  1  0
 13 14  1  0
 15 14  1  1
 16 15  1  0
 16  7  1  0
 17 21  1  0
 17 15  1  0
 18 17  2  0
 19 13  2  0
 20 19  1  0
 22 21  1  0
 23 22  1  0
 24 23  1  0
 25 23  2  0
M  END
$$$$
