IYG.pdb
     RDKit          3D

 25 25  0  0  1  0  0  0  0  0999 V2000
   21.0480  -18.2985  -18.5386 C   0  0  0  0  0  0  0  0  0  0  0  0
   20.9763  -19.1358  -17.2671 C   0  0  0  0  0  0  0  0  0  0  0  0
   22.3531  -19.3056  -16.7267 C   0  0  2  0  0  0  0  0  0  0  0  0
   23.3345  -19.7935  -17.7765 C   0  0  0  0  0  0  0  0  0  0  0  0
   22.4414  -20.0710  -15.4533 C   0  0  2  0  0  0  0  0  0  0  0  0
   21.5810  -19.3892  -14.4675 N   0  0  0  0  0  0  0  0  0  0  0  0
   23.7760  -20.2509  -14.8853 C   0  0  0  0  0  0  0  0  0  0  0  0
   24.3588  -19.2258  -14.3752 O   0  0  0  0  0  0  0  0  0  0  0  0
   22.8333  -20.1394   -8.7137 O   0  0  0  0  0  0  0  0  0  0  0  0
   23.6042  -20.6530   -9.7387 C   0  0  0  0  0  0  0  0  0  0  0  0
   24.9655  -20.5450   -9.8050 C   0  0  0  0  0  0  0  0  0  0  0  0
   25.6855  -21.0723  -10.8449 C   0  0  0  0  0  0  0  0  0  0  0  0
   25.0622  -21.7427  -11.8820 C   0  0  0  0  0  0  0  0  0  0  0  0
   25.8553  -22.2917  -12.9832 C   0  0  0  0  0  0  0  0  0  0  0  0
   25.8852  -21.4758  -14.2412 C   0  0  2  0  0  0  0  0  0  0  0  0
   24.5293  -21.4389  -14.8208 N   0  0  0  0  0  0  0  0  0  0  0  0
   26.7871  -22.0513  -15.2427 C   0  0  0  0  0  0  0  0  0  0  0  0
   26.4325  -23.1252  -15.8358 O   0  0  0  0  0  0  0  0  0  0  0  0
   23.6833  -21.8553  -11.8199 C   0  0  0  0  0  0  0  0  0  0  0  0
   22.9738  -21.3238  -10.7749 C   0  0  0  0  0  0  0  0  0  0  0  0
   28.0396  -21.5292  -15.6381 N   0  0  0  0  0  0  0  0  0  0  0  0
   28.8703  -22.1214  -16.6576 C   0  0  0  0  0  0  0  0  0  0  0  0
   28.5592  -21.7109  -18.0275 C   0  0  0  0  0  0  0  0  0  0  0  0
   29.3548  -20.7747  -18.6534 O   0  0  0  0  0  0  0  0  0  0  0  0
   27.5859  -22.1960  -18.6347 O   0  0  0  0  0  0  0  0  0  0  0  0
  2  1  1  0
  3  2  1  0
  3  5  1  0
  3  4  1  6
  5  7  1  0
  5  6  1  1
  7  8  2  0
  9 10  1  0
 10 20  2  0
 10 11  1  0
 11 12  2  0
 12 13  1  0
 13 14  1  0
 15 14  1  1
 16 15  1  0
 16  7  1  0
 17 21  1  0
 17 15  1  0
 18 17  2  0
 19 13  2  0
 20 19  1  0
 22 21  1  0
 23 22  1  0
 24 23  1  0
 25 23  2  0
M  END
$$$$
