IYG.pdb
     RDKit          3D

 25 25  0  0  1  0  0  0  0  0999 V2000
   26.3334  -12.9117  -16.4827 C   0  0  0  0  0  0  0  0  0  0  0  0
   26.0633  -11.6770  -17.3345 C   0  0  0  0  0  0  0  0  0  0  0  0
   25.4593  -10.6233  -16.4735 C   0  0  2  0  0  0  0  0  0  0  0  0
   24.3229  -11.1518  -15.6174 C   0  0  0  0  0  0  0  0  0  0  0  0
   25.1136   -9.3567  -17.1746 C   0  0  2  0  0  0  0  0  0  0  0  0
   26.3028   -8.9371  -17.9405 N   0  0  0  0  0  0  0  0  0  0  0  0
   24.6611   -8.2455  -16.3399 C   0  0  0  0  0  0  0  0  0  0  0  0
   25.4516   -7.8188  -15.4214 O   0  0  0  0  0  0  0  0  0  0  0  0
   28.3402   -3.4544  -18.0035 O   0  0  0  0  0  0  0  0  0  0  0  0
   27.0809   -3.8925  -17.6421 C   0  0  0  0  0  0  0  0  0  0  0  0
   26.3425   -4.7889  -18.3636 C   0  0  0  0  0  0  0  0  0  0  0  0
   25.0959   -5.1922  -17.9619 C   0  0  0  0  0  0  0  0  0  0  0  0
   24.5245   -4.7065  -16.7995 C   0  0  0  0  0  0  0  0  0  0  0  0
   23.1890   -5.1503  -16.3967 C   0  0  0  0  0  0  0  0  0  0  0  0
   23.1349   -6.3941  -15.5607 C   0  0  2  0  0  0  0  0  0  0  0  0
   23.4339   -7.5590  -16.4148 N   0  0  0  0  0  0  0  0  0  0  0  0
   21.8087   -6.5972  -14.9710 C   0  0  0  0  0  0  0  0  0  0  0  0
   21.3704   -5.7282  -14.1444 O   0  0  0  0  0  0  0  0  0  0  0  0
   25.2682   -3.7983  -16.0646 C   0  0  0  0  0  0  0  0  0  0  0  0
   26.5139   -3.4023  -16.4762 C   0  0  0  0  0  0  0  0  0  0  0  0
   20.9357   -7.6783  -15.2293 N   0  0  0  0  0  0  0  0  0  0  0  0
   19.6176   -7.7999  -14.6566 C   0  0  0  0  0  0  0  0  0  0  0  0
   18.5316   -7.2657  -15.4795 C   0  0  0  0  0  0  0  0  0  0  0  0
   17.2305   -7.3630  -15.0339 O   0  0  0  0  0  0  0  0  0  0  0  0
   18.7675   -6.7248  -16.5764 O   0  0  0  0  0  0  0  0  0  0  0  0
  2  1  1  0
  3  2  1  0
  3  5  1  0
  3  4  1  6
  5  7  1  0
  5  6  1  1
  7  8  2  0
  9 10  1  0
 10 20  2  0
 10 11  1  0
 11 12  2  0
 12 13  1  0
 13 14  1  0
 15 14  1  6
 16 15  1  0
 16  7  1  0
 17 21  1  0
 17 15  1  0
 18 17  2  0
 19 13  2  0
 20 19  1  0
 22 21  1  0
 23 22  1  0
 24 23  1  0
 25 23  2  0
M  END
$$$$
