IYG.pdb
     RDKit          3D

 25 25  0  0  1  0  0  0  0  0999 V2000
   25.1976  -20.5414  -19.6820 C   0  0  0  0  0  0  0  0  0  0  0  0
   26.2735  -20.4168  -18.6098 C   0  0  0  0  0  0  0  0  0  0  0  0
   25.6885  -20.8031  -17.2964 C   0  0  2  0  0  0  0  0  0  0  0  0
   24.3240  -20.1817  -17.0616 C   0  0  0  0  0  0  0  0  0  0  0  0
   26.6007  -20.6516  -16.1301 C   0  0  2  0  0  0  0  0  0  0  0  0
   27.7889  -21.4877  -16.3871 N   0  0  0  0  0  0  0  0  0  0  0  0
   26.0510  -20.9857  -14.8177 C   0  0  0  0  0  0  0  0  0  0  0  0
   25.9890  -22.2254  -14.4863 O   0  0  0  0  0  0  0  0  0  0  0  0
   31.0592  -21.7308  -10.5399 O   0  0  0  0  0  0  0  0  0  0  0  0
   29.7582  -21.3066  -10.7300 C   0  0  0  0  0  0  0  0  0  0  0  0
   28.6821  -21.7957  -10.0430 C   0  0  0  0  0  0  0  0  0  0  0  0
   27.4092  -21.3411  -10.2690 C   0  0  0  0  0  0  0  0  0  0  0  0
   27.1544  -20.3594  -11.2098 C   0  0  0  0  0  0  0  0  0  0  0  0
   25.7842  -19.8959  -11.4347 C   0  0  0  0  0  0  0  0  0  0  0  0
   25.0366  -20.5716  -12.5453 C   0  0  2  0  0  0  0  0  0  0  0  0
   25.5669  -20.0979  -13.8376 N   0  0  0  0  0  0  0  0  0  0  0  0
   23.6047  -20.2617  -12.5059 C   0  0  0  0  0  0  0  0  0  0  0  0
   23.2059  -19.1603  -13.0141 O   0  0  0  0  0  0  0  0  0  0  0  0
   28.2409  -19.8602  -11.9085 C   0  0  0  0  0  0  0  0  0  0  0  0
   29.5094  -20.3225  -11.6738 C   0  0  0  0  0  0  0  0  0  0  0  0
   22.5883  -21.0751  -11.9555 N   0  0  0  0  0  0  0  0  0  0  0  0
   21.1836  -20.7531  -12.0128 C   0  0  0  0  0  0  0  0  0  0  0  0
   20.5473  -20.9796  -13.3112 C   0  0  0  0  0  0  0  0  0  0  0  0
   19.3271  -20.3970  -13.5807 O   0  0  0  0  0  0  0  0  0  0  0  0
   21.0936  -21.6914  -14.1751 O   0  0  0  0  0  0  0  0  0  0  0  0
  2  1  1  0
  3  2  1  0
  3  5  1  0
  3  4  1  1
  5  7  1  0
  5  6  1  6
  7  8  2  0
  9 10  1  0
 10 20  2  0
 10 11  1  0
 11 12  2  0
 12 13  1  0
 13 14  1  0
 15 14  1  1
 16 15  1  0
 16  7  1  0
 17 21  1  0
 17 15  1  0
 18 17  2  0
 19 13  2  0
 20 19  1  0
 22 21  1  0
 23 22  1  0
 24 23  1  0
 25 23  2  0
M  END
$$$$
