IYG.pdb
     RDKit          3D

 25 25  0  0  1  0  0  0  0  0999 V2000
   15.8477  -10.5803  -20.3685 C   0  0  0  0  0  0  0  0  0  0  0  0
   17.2961  -10.6146  -19.8952 C   0  0  0  0  0  0  0  0  0  0  0  0
   17.4545   -9.6565  -18.7668 C   0  0  2  0  0  0  0  0  0  0  0  0
   16.8969   -8.2819  -19.0875 C   0  0  0  0  0  0  0  0  0  0  0  0
   18.8176   -9.6024  -18.1714 C   0  0  2  0  0  0  0  0  0  0  0  0
   19.1908  -10.9797  -17.7965 N   0  0  0  0  0  0  0  0  0  0  0  0
   18.9967   -8.7235  -17.0174 C   0  0  0  0  0  0  0  0  0  0  0  0
   18.6027   -9.1453  -15.8696 O   0  0  0  0  0  0  0  0  0  0  0  0
   23.9762  -11.3356  -14.2672 O   0  0  0  0  0  0  0  0  0  0  0  0
   23.2953  -10.1619  -14.5268 C   0  0  0  0  0  0  0  0  0  0  0  0
   22.5979   -9.4541  -13.5877 C   0  0  0  0  0  0  0  0  0  0  0  0
   21.9379   -8.2934  -13.8961 C   0  0  0  0  0  0  0  0  0  0  0  0
   21.9477   -7.7823  -15.1815 C   0  0  0  0  0  0  0  0  0  0  0  0
   21.2296   -6.5431  -15.4845 C   0  0  0  0  0  0  0  0  0  0  0  0
   19.7594   -6.6832  -15.7448 C   0  0  2  0  0  0  0  0  0  0  0  0
   19.5641   -7.4348  -16.9988 N   0  0  0  0  0  0  0  0  0  0  0  0
   19.1059   -5.3801  -15.8949 C   0  0  0  0  0  0  0  0  0  0  0  0
   19.2774   -4.7348  -16.9834 O   0  0  0  0  0  0  0  0  0  0  0  0
   22.6528   -8.4951  -16.1368 C   0  0  0  0  0  0  0  0  0  0  0  0
   23.3091   -9.6547  -15.8166 C   0  0  0  0  0  0  0  0  0  0  0  0
   18.2790   -4.7447  -14.9408 N   0  0  0  0  0  0  0  0  0  0  0  0
   17.7278   -3.4227  -15.1101 C   0  0  0  0  0  0  0  0  0  0  0  0
   16.3219   -3.3837  -15.5149 C   0  0  0  0  0  0  0  0  0  0  0  0
   15.6600   -2.1748  -15.5561 O   0  0  0  0  0  0  0  0  0  0  0  0
   15.7161   -4.4276  -15.8224 O   0  0  0  0  0  0  0  0  0  0  0  0
  2  1  1  0
  3  2  1  0
  3  5  1  0
  3  4  1  6
  5  7  1  0
  5  6  1  1
  7  8  2  0
  9 10  1  0
 10 20  2  0
 10 11  1  0
 11 12  2  0
 12 13  1  0
 13 14  1  0
 15 14  1  6
 16 15  1  0
 16  7  1  0
 17 21  1  0
 17 15  1  0
 18 17  2  0
 19 13  2  0
 20 19  1  0
 22 21  1  0
 23 22  1  0
 24 23  1  0
 25 23  2  0
M  END
$$$$
