IYG.pdb
     RDKit          3D

 25 25  0  0  1  0  0  0  0  0999 V2000
   27.6036  -20.9293  -20.5978 C   0  0  0  0  0  0  0  0  0  0  0  0
   28.3518  -21.1836  -19.2946 C   0  0  0  0  0  0  0  0  0  0  0  0
   27.3597  -21.3565  -18.1981 C   0  0  2  0  0  0  0  0  0  0  0  0
   26.2950  -20.2749  -18.2006 C   0  0  0  0  0  0  0  0  0  0  0  0
   27.9439  -21.5888  -16.8490 C   0  0  2  0  0  0  0  0  0  0  0  0
   28.7804  -22.8014  -16.9328 N   0  0  0  0  0  0  0  0  0  0  0  0
   27.0024  -21.7285  -15.7399 C   0  0  0  0  0  0  0  0  0  0  0  0
   26.3276  -22.8184  -15.6537 O   0  0  0  0  0  0  0  0  0  0  0  0
   22.8832  -21.0158   -7.8714 O   0  0  0  0  0  0  0  0  0  0  0  0
   23.6630  -20.8275   -8.9961 C   0  0  0  0  0  0  0  0  0  0  0  0
   23.2461  -20.1683  -10.1190 C   0  0  0  0  0  0  0  0  0  0  0  0
   24.0592  -20.0080  -11.2105 C   0  0  0  0  0  0  0  0  0  0  0  0
   25.3481  -20.5101  -11.2249 C   0  0  0  0  0  0  0  0  0  0  0  0
   26.1934  -20.3292  -12.4062 C   0  0  0  0  0  0  0  0  0  0  0  0
   25.7725  -21.0778  -13.6356 C   0  0  2  0  0  0  0  0  0  0  0  0
   26.7313  -20.7957  -14.7204 N   0  0  0  0  0  0  0  0  0  0  0  0
   24.4418  -20.6690  -14.0938 C   0  0  0  0  0  0  0  0  0  0  0  0
   24.2756  -19.4644  -14.4835 O   0  0  0  0  0  0  0  0  0  0  0  0
   25.7758  -21.1786  -10.0899 C   0  0  0  0  0  0  0  0  0  0  0  0
   24.9537  -21.3327   -9.0044 C   0  0  0  0  0  0  0  0  0  0  0  0
   23.2915  -21.4879  -14.1577 N   0  0  0  0  0  0  0  0  0  0  0  0
   22.0125  -21.0381  -14.6495 C   0  0  0  0  0  0  0  0  0  0  0  0
   20.9651  -20.9166  -13.6346 C   0  0  0  0  0  0  0  0  0  0  0  0
   21.1908  -21.4017  -12.3638 O   0  0  0  0  0  0  0  0  0  0  0  0
   19.8733  -20.3810  -13.9038 O   0  0  0  0  0  0  0  0  0  0  0  0
  2  1  1  0
  3  2  1  0
  3  5  1  0
  3  4  1  1
  5  7  1  0
  5  6  1  6
  7  8  2  0
  9 10  1  0
 10 20  2  0
 10 11  1  0
 11 12  2  0
 12 13  1  0
 13 14  1  0
 15 14  1  1
 16 15  1  0
 16  7  1  0
 17 21  1  0
 17 15  1  0
 18 17  2  0
 19 13  2  0
 20 19  1  0
 22 21  1  0
 23 22  1  0
 24 23  1  0
 25 23  2  0
M  END
$$$$
