LSM.pdb
     RDKit          3D

 23 22  0  0  1  0  0  0  0  0999 V2000
    6.9514  -12.4775   23.9241 C   0  0  0  0  0  0  0  0  0  0  0  0
    6.1756  -13.1300   25.0144 C   0  0  2  0  0  0  0  0  0  0  0  0
    6.1468  -12.2066   26.2403 C   0  0  0  0  0  0  0  0  0  0  0  0
    6.6719  -14.4468   25.4870 C   0  0  0  0  0  0  0  0  0  0  0  0
    6.7253  -15.5626   24.4959 C   0  0  2  0  0  0  0  0  0  0  0  0
    5.5658  -16.4209   24.8778 N   0  0  0  0  0  0  0  0  0  0  0  0
    7.9553  -16.3310   24.5625 C   0  0  0  0  0  0  0  0  0  0  0  0
    8.2578  -17.0507   25.5673 O   0  0  0  0  0  0  0  0  0  0  0  0
   11.3015  -15.7727   22.1170 O   0  0  0  0  0  0  0  0  0  0  0  0
   10.7987  -17.0485   22.2107 C   0  0  0  0  0  0  0  0  0  0  0  0
   10.0725  -17.2675   23.5463 C   0  0  2  0  0  0  0  0  0  0  0  0
    8.9379  -16.3566   23.5204 N   0  0  0  0  0  0  0  0  0  0  0  0
   10.9417  -16.8559   24.6784 C   0  0  0  0  0  0  0  0  0  0  0  0
   11.3382  -15.6649   24.8372 O   0  0  0  0  0  0  0  0  0  0  0  0
   10.8125  -13.1110   28.2068 C   0  0  0  0  0  0  0  0  0  0  0  0
   10.4404  -14.4415   29.3432 S   0  0  0  0  0  0  0  0  0  0  0  0
   11.4005  -15.9598   28.9512 C   0  0  0  0  0  0  0  0  0  0  0  0
   11.0631  -16.3362   27.5548 C   0  0  0  0  0  0  0  0  0  0  0  0
   11.9616  -17.3537   26.9302 C   0  0  2  0  0  0  0  0  0  0  0  0
   11.3904  -17.7881   25.6709 N   0  0  0  0  0  0  0  0  0  0  0  0
   12.2451  -18.5193   27.7556 C   0  0  0  0  0  0  0  0  0  0  0  0
   11.8027  -19.8108   27.5005 O   0  0  0  0  0  0  0  0  0  0  0  0
   12.9435  -18.3813   28.7896 O   0  0  0  0  0  0  0  0  0  0  0  0
  2  1  1  6
  2  3  1  0
  4  2  1  0
  5  4  1  0
  5  6  1  1
  7  5  1  0
  8  7  2  0
  9 10  1  0
 11 10  1  6
 11 12  1  0
 12  7  1  0
 13 11  1  0
 13 20  1  0
 14 13  2  0
 16 17  1  0
 16 15  1  0
 19 18  1  1
 18 17  1  0
 19 21  1  0
 20 19  1  0
 21 23  2  0
 21 22  1  0
M  END
$$$$
