LSM.pdb
     RDKit          3D

 23 22  0  0  1  0  0  0  0  0999 V2000
    7.4393  -12.2835   19.6332 C   0  0  0  0  0  0  0  0  0  0  0  0
    8.3336  -13.4738   19.6367 C   0  0  2  0  0  0  0  0  0  0  0  0
    9.7949  -13.0116   19.5521 C   0  0  0  0  0  0  0  0  0  0  0  0
    8.1358  -14.4569   18.5422 C   0  0  0  0  0  0  0  0  0  0  0  0
    8.9263  -15.7228   18.5977 C   0  0  2  0  0  0  0  0  0  0  0  0
    8.3953  -16.5133   17.4486 N   0  0  0  0  0  0  0  0  0  0  0  0
    8.7428  -16.4601   19.8348 C   0  0  0  0  0  0  0  0  0  0  0  0
    7.6013  -16.8620   20.2279 O   0  0  0  0  0  0  0  0  0  0  0  0
   11.8202  -18.3705   21.7221 O   0  0  0  0  0  0  0  0  0  0  0  0
   10.5109  -18.7441   21.9102 C   0  0  0  0  0  0  0  0  0  0  0  0
    9.5828  -17.5217   21.9702 C   0  0  2  0  0  0  0  0  0  0  0  0
    9.8114  -16.8047   20.7245 N   0  0  0  0  0  0  0  0  0  0  0  0
    9.9899  -16.6200   23.0782 C   0  0  0  0  0  0  0  0  0  0  0  0
   10.8459  -15.7001   22.9307 O   0  0  0  0  0  0  0  0  0  0  0  0
    7.5837  -12.1016   28.7935 C   0  0  0  0  0  0  0  0  0  0  0  0
    7.3858  -13.2900   27.4712 S   0  0  0  0  0  0  0  0  0  0  0  0
    8.9669  -14.1433   27.0807 C   0  0  0  0  0  0  0  0  0  0  0  0
    8.7061  -15.0243   25.9140 C   0  0  0  0  0  0  0  0  0  0  0  0
    9.8564  -15.8756   25.4837 C   0  0  2  0  0  0  0  0  0  0  0  0
    9.4351  -16.7349   24.3952 N   0  0  0  0  0  0  0  0  0  0  0  0
   10.4515  -16.6894   26.5344 C   0  0  0  0  0  0  0  0  0  0  0  0
   10.3647  -18.0725   26.6251 O   0  0  0  0  0  0  0  0  0  0  0  0
   11.1029  -16.1273   27.4485 O   0  0  0  0  0  0  0  0  0  0  0  0
  2  1  1  6
  2  3  1  0
  4  2  1  0
  5  4  1  0
  5  6  1  6
  7  5  1  0
  8  7  2  0
  9 10  1  0
 11 10  1  6
 11 12  1  0
 12  7  1  0
 13 11  1  0
 13 20  1  0
 14 13  2  0
 16 17  1  0
 16 15  1  0
 19 18  1  1
 18 17  1  0
 19 21  1  0
 20 19  1  0
 21 23  2  0
 21 22  1  0
M  END
$$$$
