LSM.pdb
     RDKit          3D

 23 22  0  0  1  0  0  0  0  0999 V2000
    7.5295  -12.3560   19.4944 C   0  0  0  0  0  0  0  0  0  0  0  0
    8.5071  -13.4749   19.5884 C   0  0  2  0  0  0  0  0  0  0  0  0
    9.9319  -12.9159   19.4707 C   0  0  0  0  0  0  0  0  0  0  0  0
    8.3876  -14.5491   18.5708 C   0  0  0  0  0  0  0  0  0  0  0  0
    8.9874  -15.8782   18.8936 C   0  0  2  0  0  0  0  0  0  0  0  0
    8.5295  -16.7470   17.7700 N   0  0  0  0  0  0  0  0  0  0  0  0
    8.5303  -16.4217   20.1599 C   0  0  0  0  0  0  0  0  0  0  0  0
    7.3197  -16.7567   20.3625 O   0  0  0  0  0  0  0  0  0  0  0  0
   11.0082  -18.2053   22.9205 O   0  0  0  0  0  0  0  0  0  0  0  0
    9.6598  -18.4458   22.8059 C   0  0  0  0  0  0  0  0  0  0  0  0
    8.8786  -17.1469   22.5568 C   0  0  2  0  0  0  0  0  0  0  0  0
    9.3824  -16.6325   21.2920 N   0  0  0  0  0  0  0  0  0  0  0  0
    9.2037  -16.1422   23.6014 C   0  0  0  0  0  0  0  0  0  0  0  0
   10.2744  -15.4684   23.5914 O   0  0  0  0  0  0  0  0  0  0  0  0
    5.4084  -12.0147   25.6745 C   0  0  0  0  0  0  0  0  0  0  0  0
    6.7651  -11.6959   26.7960 S   0  0  0  0  0  0  0  0  0  0  0  0
    7.6103  -13.2489   27.3005 C   0  0  0  0  0  0  0  0  0  0  0  0
    7.4217  -14.2225   26.1951 C   0  0  0  0  0  0  0  0  0  0  0  0
    8.6596  -14.9266   25.7427 C   0  0  2  0  0  0  0  0  0  0  0  0
    8.3187  -15.8694   24.6960 N   0  0  0  0  0  0  0  0  0  0  0  0
    9.3960  -15.6192   26.7908 C   0  0  0  0  0  0  0  0  0  0  0  0
   10.2088  -15.0101   27.7379 O   0  0  0  0  0  0  0  0  0  0  0  0
    9.3119  -16.8690   26.8737 O   0  0  0  0  0  0  0  0  0  0  0  0
  2  1  1  6
  2  3  1  0
  4  2  1  0
  5  4  1  0
  5  6  1  6
  7  5  1  0
  8  7  2  0
  9 10  1  0
 11 10  1  1
 11 12  1  0
 12  7  1  0
 13 11  1  0
 13 20  1  0
 14 13  2  0
 16 17  1  0
 16 15  1  0
 19 18  1  1
 18 17  1  0
 19 21  1  0
 20 19  1  0
 21 23  2  0
 21 22  1  0
M  END
$$$$
