LSM.pdb
     RDKit          3D

 23 22  0  0  1  0  0  0  0  0999 V2000
    8.1810  -13.7501   17.8806 C   0  0  0  0  0  0  0  0  0  0  0  0
    7.8978  -13.7267   19.3420 C   0  0  2  0  0  0  0  0  0  0  0  0
    7.7007  -12.2742   19.7980 C   0  0  0  0  0  0  0  0  0  0  0  0
    8.9336  -14.3128   20.2292 C   0  0  0  0  0  0  0  0  0  0  0  0
    9.0499  -15.8012   20.2682 C   0  0  2  0  0  0  0  0  0  0  0  0
    7.8937  -16.2605   19.4438 N   0  0  0  0  0  0  0  0  0  0  0  0
    8.9529  -16.3495   21.6089 C   0  0  0  0  0  0  0  0  0  0  0  0
    7.8382  -16.5217   22.1978 O   0  0  0  0  0  0  0  0  0  0  0  0
   12.3202  -17.6676   23.8036 O   0  0  0  0  0  0  0  0  0  0  0  0
   11.0979  -18.2900   23.8914 C   0  0  0  0  0  0  0  0  0  0  0  0
    9.9459  -17.2858   23.7372 C   0  0  2  0  0  0  0  0  0  0  0  0
   10.0845  -16.7460   22.3928 N   0  0  0  0  0  0  0  0  0  0  0  0
   10.1179  -16.1554   24.6854 C   0  0  0  0  0  0  0  0  0  0  0  0
   10.8945  -15.1834   24.4557 O   0  0  0  0  0  0  0  0  0  0  0  0
    6.1473  -12.3267   26.2120 C   0  0  0  0  0  0  0  0  0  0  0  0
    6.8892  -12.1438   27.8295 S   0  0  0  0  0  0  0  0  0  0  0  0
    8.4736  -13.0676   27.9598 C   0  0  0  0  0  0  0  0  0  0  0  0
    8.4251  -14.1540   26.9485 C   0  0  0  0  0  0  0  0  0  0  0  0
    9.6349  -15.0290   26.8892 C   0  0  2  0  0  0  0  0  0  0  0  0
    9.4099  -16.0926   25.9305 N   0  0  0  0  0  0  0  0  0  0  0  0
   10.0430  -15.6084   28.1612 C   0  0  0  0  0  0  0  0  0  0  0  0
   10.0939  -16.9669   28.4454 O   0  0  0  0  0  0  0  0  0  0  0  0
   10.3829  -14.8466   29.0994 O   0  0  0  0  0  0  0  0  0  0  0  0
  2  1  1  6
  2  3  1  0
  4  2  1  0
  5  4  1  0
  5  6  1  6
  7  5  1  0
  8  7  2  0
  9 10  1  0
 11 10  1  1
 11 12  1  0
 12  7  1  0
 13 11  1  0
 13 20  1  0
 14 13  2  0
 16 17  1  0
 16 15  1  0
 19 18  1  1
 18 17  1  0
 19 21  1  0
 20 19  1  0
 21 23  2  0
 21 22  1  0
M  END
$$$$
