LSM.pdb
     RDKit          3D

 23 22  0  0  1  0  0  0  0  0999 V2000
    7.8441  -12.8752   24.2709 C   0  0  0  0  0  0  0  0  0  0  0  0
    6.6087  -13.1247   25.0635 C   0  0  2  0  0  0  0  0  0  0  0  0
    6.6613  -12.3025   26.3587 C   0  0  0  0  0  0  0  0  0  0  0  0
    6.3484  -14.5303   25.4637 C   0  0  0  0  0  0  0  0  0  0  0  0
    6.4073  -15.5754   24.3985 C   0  0  2  0  0  0  0  0  0  0  0  0
    5.3447  -16.5422   24.8028 N   0  0  0  0  0  0  0  0  0  0  0  0
    7.6910  -16.2497   24.3266 C   0  0  0  0  0  0  0  0  0  0  0  0
    8.1518  -16.9462   25.2866 O   0  0  0  0  0  0  0  0  0  0  0  0
   10.6210  -15.4275   21.4621 O   0  0  0  0  0  0  0  0  0  0  0  0
   10.3210  -16.7495   21.6894 C   0  0  0  0  0  0  0  0  0  0  0  0
    9.7910  -16.9664   23.1146 C   0  0  2  0  0  0  0  0  0  0  0  0
    8.5557  -16.2001   23.1856 N   0  0  0  0  0  0  0  0  0  0  0  0
   10.7290  -16.3823   24.1073 C   0  0  0  0  0  0  0  0  0  0  0  0
   10.7025  -15.1607   24.4355 O   0  0  0  0  0  0  0  0  0  0  0  0
    9.6982  -13.1491   29.1378 C   0  0  0  0  0  0  0  0  0  0  0  0
   10.2953  -14.8132   28.8652 S   0  0  0  0  0  0  0  0  0  0  0  0
   10.6589  -15.1235   27.0898 C   0  0  0  0  0  0  0  0  0  0  0  0
   10.9744  -16.5688   26.9592 C   0  0  0  0  0  0  0  0  0  0  0  0
   12.1654  -16.8913   26.1164 C   0  0  2  0  0  0  0  0  0  0  0  0
   11.7318  -17.1707   24.7619 N   0  0  0  0  0  0  0  0  0  0  0  0
   12.9822  -17.9972   26.5961 C   0  0  0  0  0  0  0  0  0  0  0  0
   14.3437  -17.9334   26.8624 O   0  0  0  0  0  0  0  0  0  0  0  0
   12.4439  -19.1136   26.7958 O   0  0  0  0  0  0  0  0  0  0  0  0
  2  1  1  1
  2  3  1  0
  4  2  1  0
  5  4  1  0
  5  6  1  1
  7  5  1  0
  8  7  2  0
  9 10  1  0
 11 10  1  6
 11 12  1  0
 12  7  1  0
 13 11  1  0
 13 20  1  0
 14 13  2  0
 16 17  1  0
 16 15  1  0
 19 18  1  1
 18 17  1  0
 19 21  1  0
 20 19  1  0
 21 23  2  0
 21 22  1  0
M  END
$$$$
