LSM.pdb
     RDKit          3D

 23 22  0  0  1  0  0  0  0  0999 V2000
    9.6439  -13.2840   20.3973 C   0  0  0  0  0  0  0  0  0  0  0  0
    8.9374  -13.1184   19.0973 C   0  0  2  0  0  0  0  0  0  0  0  0
    7.8155  -12.0830   19.2571 C   0  0  0  0  0  0  0  0  0  0  0  0
    8.3125  -14.3352   18.5208 C   0  0  0  0  0  0  0  0  0  0  0  0
    8.9219  -15.6549   18.8636 C   0  0  2  0  0  0  0  0  0  0  0  0
    8.5308  -16.5254   17.7162 N   0  0  0  0  0  0  0  0  0  0  0  0
    8.4189  -16.2141   20.1053 C   0  0  0  0  0  0  0  0  0  0  0  0
    7.1770  -16.3807   20.3262 O   0  0  0  0  0  0  0  0  0  0  0  0
   10.7332  -18.4674   22.5168 O   0  0  0  0  0  0  0  0  0  0  0  0
    9.3631  -18.5466   22.5932 C   0  0  0  0  0  0  0  0  0  0  0  0
    8.7123  -17.1650   22.4296 C   0  0  2  0  0  0  0  0  0  0  0  0
    9.2566  -16.6284   21.1911 N   0  0  0  0  0  0  0  0  0  0  0  0
    9.1411  -16.2607   23.5272 C   0  0  0  0  0  0  0  0  0  0  0  0
   10.3183  -15.8059   23.6168 O   0  0  0  0  0  0  0  0  0  0  0  0
    6.5199  -10.8751   26.9873 C   0  0  0  0  0  0  0  0  0  0  0  0
    5.7367  -12.3486   26.3428 S   0  0  0  0  0  0  0  0  0  0  0  0
    6.9060  -13.3617   25.3493 C   0  0  0  0  0  0  0  0  0  0  0  0
    7.5524  -14.3174   26.2843 C   0  0  0  0  0  0  0  0  0  0  0  0
    8.6967  -15.0937   25.7179 C   0  0  2  0  0  0  0  0  0  0  0  0
    8.2423  -15.8420   24.5628 N   0  0  0  0  0  0  0  0  0  0  0  0
    9.3511  -16.0010   26.6500 C   0  0  0  0  0  0  0  0  0  0  0  0
   10.2967  -15.6334   27.5984 O   0  0  0  0  0  0  0  0  0  0  0  0
    9.0603  -17.2219   26.6213 O   0  0  0  0  0  0  0  0  0  0  0  0
  2  1  1  1
  2  3  1  0
  4  2  1  0
  5  4  1  0
  5  6  1  6
  7  5  1  0
  8  7  2  0
  9 10  1  0
 11 10  1  1
 11 12  1  0
 12  7  1  0
 13 11  1  0
 13 20  1  0
 14 13  2  0
 16 17  1  0
 16 15  1  0
 19 18  1  1
 18 17  1  0
 19 21  1  0
 20 19  1  0
 21 23  2  0
 21 22  1  0
M  END
$$$$
