LSM.pdb
     RDKit          3D

 23 22  0  0  1  0  0  0  0  0999 V2000
   10.0142  -12.8074   19.0419 C   0  0  0  0  0  0  0  0  0  0  0  0
    8.7111  -13.2310   18.4595 C   0  0  2  0  0  0  0  0  0  0  0  0
    7.6939  -12.0910   18.6078 C   0  0  0  0  0  0  0  0  0  0  0  0
    8.0818  -14.4400   19.0476 C   0  0  0  0  0  0  0  0  0  0  0  0
    8.9200  -15.6709   19.1609 C   0  0  2  0  0  0  0  0  0  0  0  0
    8.4919  -16.4903   17.9894 N   0  0  0  0  0  0  0  0  0  0  0  0
    8.6944  -16.4075   20.3914 C   0  0  0  0  0  0  0  0  0  0  0  0
    7.9023  -17.4011   20.4576 O   0  0  0  0  0  0  0  0  0  0  0  0
   10.2264  -19.0266   23.5483 O   0  0  0  0  0  0  0  0  0  0  0  0
   10.1393  -18.1671   22.4792 C   0  0  0  0  0  0  0  0  0  0  0  0
    9.2336  -16.9680   22.7971 C   0  0  2  0  0  0  0  0  0  0  0  0
    9.3305  -16.0954   21.6365 N   0  0  0  0  0  0  0  0  0  0  0  0
    9.7670  -16.2141   23.9605 C   0  0  0  0  0  0  0  0  0  0  0  0
   10.8930  -15.6374   23.9426 O   0  0  0  0  0  0  0  0  0  0  0  0
    5.4576  -12.9205   26.9409 C   0  0  0  0  0  0  0  0  0  0  0  0
    6.9503  -12.0017   27.2984 S   0  0  0  0  0  0  0  0  0  0  0  0
    8.4224  -13.1002   27.3802 C   0  0  0  0  0  0  0  0  0  0  0  0
    8.2873  -14.0871   26.2788 C   0  0  0  0  0  0  0  0  0  0  0  0
    9.3795  -15.1031   26.1908 C   0  0  2  0  0  0  0  0  0  0  0  0
    9.0351  -16.0904   25.1871 N   0  0  0  0  0  0  0  0  0  0  0  0
    9.6975  -15.7801   27.4402 C   0  0  0  0  0  0  0  0  0  0  0  0
    9.5412  -17.1391   27.6794 O   0  0  0  0  0  0  0  0  0  0  0  0
   10.1520  -15.1107   28.4001 O   0  0  0  0  0  0  0  0  0  0  0  0
  2  1  1  1
  2  3  1  0
  4  2  1  0
  5  4  1  0
  5  6  1  6
  7  5  1  0
  8  7  2  0
  9 10  1  0
 11 10  1  6
 11 12  1  0
 12  7  1  0
 13 11  1  0
 13 20  1  0
 14 13  2  0
 16 17  1  0
 16 15  1  0
 19 18  1  1
 18 17  1  0
 19 21  1  0
 20 19  1  0
 21 23  2  0
 21 22  1  0
M  END
$$$$
