LSM.pdb
     RDKit          3D

 23 22  0  0  1  0  0  0  0  0999 V2000
    9.2740  -13.3185   20.4099 C   0  0  0  0  0  0  0  0  0  0  0  0
    8.2128  -13.4979   19.3811 C   0  0  2  0  0  0  0  0  0  0  0  0
    7.2915  -12.2700   19.3821 C   0  0  0  0  0  0  0  0  0  0  0  0
    7.3358  -14.6861   19.5311 C   0  0  0  0  0  0  0  0  0  0  0  0
    7.9932  -16.0058   19.7697 C   0  0  2  0  0  0  0  0  0  0  0  0
    7.1396  -16.9613   19.0045 N   0  0  0  0  0  0  0  0  0  0  0  0
    8.0289  -16.3840   21.1709 C   0  0  0  0  0  0  0  0  0  0  0  0
    6.9819  -16.4342   21.8921 O   0  0  0  0  0  0  0  0  0  0  0  0
   11.5772  -17.6319   23.1435 O   0  0  0  0  0  0  0  0  0  0  0  0
   10.3562  -18.2338   23.3333 C   0  0  0  0  0  0  0  0  0  0  0  0
    9.2101  -17.2149   23.2462 C   0  0  2  0  0  0  0  0  0  0  0  0
    9.2278  -16.7336   21.8729 N   0  0  0  0  0  0  0  0  0  0  0  0
    9.4891  -16.0499   24.1245 C   0  0  0  0  0  0  0  0  0  0  0  0
   10.2744  -15.1157   23.7911 O   0  0  0  0  0  0  0  0  0  0  0  0
    6.4537  -11.2341   25.8555 C   0  0  0  0  0  0  0  0  0  0  0  0
    6.8602  -11.7752   27.5114 S   0  0  0  0  0  0  0  0  0  0  0  0
    8.3576  -12.8420   27.5304 C   0  0  0  0  0  0  0  0  0  0  0  0
    8.1247  -13.9316   26.5485 C   0  0  0  0  0  0  0  0  0  0  0  0
    9.2750  -14.8618   26.3384 C   0  0  2  0  0  0  0  0  0  0  0  0
    8.8821  -15.9082   25.4157 N   0  0  0  0  0  0  0  0  0  0  0  0
    9.8112  -15.4669   27.5495 C   0  0  0  0  0  0  0  0  0  0  0  0
   10.6135  -14.8222   28.4820 O   0  0  0  0  0  0  0  0  0  0  0  0
    9.5465  -16.6677   27.8022 O   0  0  0  0  0  0  0  0  0  0  0  0
  2  1  1  1
  2  3  1  0
  4  2  1  0
  5  4  1  0
  5  6  1  6
  7  5  1  0
  8  7  2  0
  9 10  1  0
 11 10  1  6
 11 12  1  0
 12  7  1  0
 13 11  1  0
 13 20  1  0
 14 13  2  0
 16 17  1  0
 16 15  1  0
 19 18  1  1
 18 17  1  0
 19 21  1  0
 20 19  1  0
 21 23  2  0
 21 22  1  0
M  END
$$$$
