LSM.pdb
     RDKit          3D

 23 22  0  0  1  0  0  0  0  0999 V2000
    9.3695  -13.5284   18.5677 C   0  0  0  0  0  0  0  0  0  0  0  0
    7.9908  -13.6816   19.1082 C   0  0  2  0  0  0  0  0  0  0  0  0
    7.3623  -12.2940   19.2977 C   0  0  0  0  0  0  0  0  0  0  0  0
    7.8609  -14.3871   20.4078 C   0  0  0  0  0  0  0  0  0  0  0  0
    8.4081  -15.7736   20.5004 C   0  0  2  0  0  0  0  0  0  0  0  0
    7.4106  -16.5904   19.7488 N   0  0  0  0  0  0  0  0  0  0  0  0
    8.5189  -16.2569   21.8649 C   0  0  0  0  0  0  0  0  0  0  0  0
    7.5179  -16.3311   22.6469 O   0  0  0  0  0  0  0  0  0  0  0  0
   12.2163  -17.2878   23.7115 O   0  0  0  0  0  0  0  0  0  0  0  0
   11.0817  -18.0422   23.8929 C   0  0  0  0  0  0  0  0  0  0  0  0
    9.8163  -17.1739   23.8316 C   0  0  2  0  0  0  0  0  0  0  0  0
    9.7470  -16.6923   22.4600 N   0  0  0  0  0  0  0  0  0  0  0  0
    9.9651  -15.9844   24.7088 C   0  0  0  0  0  0  0  0  0  0  0  0
   10.5308  -14.9196   24.3256 O   0  0  0  0  0  0  0  0  0  0  0  0
    6.6423  -11.3126   26.1451 C   0  0  0  0  0  0  0  0  0  0  0  0
    6.8157  -12.0242   27.7772 S   0  0  0  0  0  0  0  0  0  0  0  0
    8.4176  -12.9064   27.9682 C   0  0  0  0  0  0  0  0  0  0  0  0
    8.4076  -14.0346   27.0026 C   0  0  0  0  0  0  0  0  0  0  0  0
    9.6721  -14.8276   26.9303 C   0  0  2  0  0  0  0  0  0  0  0  0
    9.4737  -15.9662   26.0556 N   0  0  0  0  0  0  0  0  0  0  0  0
   10.1866  -15.2908   28.2113 C   0  0  0  0  0  0  0  0  0  0  0  0
   10.3795  -16.6196   28.5660 O   0  0  0  0  0  0  0  0  0  0  0  0
   10.4906  -14.4470   29.0896 O   0  0  0  0  0  0  0  0  0  0  0  0
  2  1  1  1
  2  3  1  0
  4  2  1  0
  5  4  1  0
  5  6  1  6
  7  5  1  0
  8  7  2  0
  9 10  1  0
 11 10  1  6
 11 12  1  0
 12  7  1  0
 13 11  1  0
 13 20  1  0
 14 13  2  0
 16 17  1  0
 16 15  1  0
 19 18  1  1
 18 17  1  0
 19 21  1  0
 20 19  1  0
 21 23  2  0
 21 22  1  0
M  END
$$$$
