LSM.pdb
     RDKit          3D

 23 22  0  0  1  0  0  0  0  0999 V2000
    9.1439  -13.6414   18.4823 C   0  0  0  0  0  0  0  0  0  0  0  0
    7.9100  -13.5910   19.3139 C   0  0  2  0  0  0  0  0  0  0  0  0
    7.5425  -12.1263   19.5892 C   0  0  0  0  0  0  0  0  0  0  0  0
    7.9697  -14.2685   20.6334 C   0  0  0  0  0  0  0  0  0  0  0  0
    8.3052  -15.7237   20.6497 C   0  0  2  0  0  0  0  0  0  0  0  0
    7.1283  -16.3578   19.9866 N   0  0  0  0  0  0  0  0  0  0  0  0
    8.4694  -16.2597   21.9889 C   0  0  0  0  0  0  0  0  0  0  0  0
    7.4978  -16.3761   22.8022 O   0  0  0  0  0  0  0  0  0  0  0  0
   12.2187  -17.4984   23.5773 O   0  0  0  0  0  0  0  0  0  0  0  0
   11.0547  -18.1884   23.8186 C   0  0  0  0  0  0  0  0  0  0  0  0
    9.8442  -17.2443   23.8685 C   0  0  2  0  0  0  0  0  0  0  0  0
    9.7221  -16.7051   22.5223 N   0  0  0  0  0  0  0  0  0  0  0  0
   10.1193  -16.1019   24.7771 C   0  0  0  0  0  0  0  0  0  0  0  0
   10.7995  -15.0957   24.4226 O   0  0  0  0  0  0  0  0  0  0  0  0
    6.0795  -12.7267   26.9131 C   0  0  0  0  0  0  0  0  0  0  0  0
    7.3915  -11.8254   27.7295 S   0  0  0  0  0  0  0  0  0  0  0  0
    8.8921  -12.8636   27.9551 C   0  0  0  0  0  0  0  0  0  0  0  0
    8.7655  -14.0146   27.0252 C   0  0  0  0  0  0  0  0  0  0  0  0
    9.9201  -14.9630   27.0181 C   0  0  2  0  0  0  0  0  0  0  0  0
    9.6284  -16.0656   26.1237 N   0  0  0  0  0  0  0  0  0  0  0  0
   10.2965  -15.4902   28.3222 C   0  0  0  0  0  0  0  0  0  0  0  0
   10.8626  -14.7523   29.3537 O   0  0  0  0  0  0  0  0  0  0  0  0
   10.1077  -16.7067   28.5679 O   0  0  0  0  0  0  0  0  0  0  0  0
  2  1  1  1
  2  3  1  0
  4  2  1  0
  5  4  1  0
  5  6  1  1
  7  5  1  0
  8  7  2  0
  9 10  1  0
 11 10  1  6
 11 12  1  0
 12  7  1  0
 13 11  1  0
 13 20  1  0
 14 13  2  0
 16 17  1  0
 16 15  1  0
 19 18  1  1
 18 17  1  0
 19 21  1  0
 20 19  1  0
 21 23  2  0
 21 22  1  0
M  END
$$$$
