LSM.pdb
     RDKit          3D

 23 22  0  0  1  0  0  0  0  0999 V2000
    6.9268  -12.8875   25.8358 C   0  0  0  0  0  0  0  0  0  0  0  0
    7.5480  -13.6537   24.7206 C   0  0  2  0  0  0  0  0  0  0  0  0
    8.3676  -12.6980   23.8424 C   0  0  0  0  0  0  0  0  0  0  0  0
    6.6213  -14.3746   23.8124 C   0  0  0  0  0  0  0  0  0  0  0  0
    7.2220  -15.2694   22.7785 C   0  0  2  0  0  0  0  0  0  0  0  0
    6.0328  -15.8906   22.1249 N   0  0  0  0  0  0  0  0  0  0  0  0
    8.0763  -16.3009   23.3387 C   0  0  0  0  0  0  0  0  0  0  0  0
    7.7023  -17.0535   24.2941 O   0  0  0  0  0  0  0  0  0  0  0  0
   12.0854  -16.8814   22.1294 O   0  0  0  0  0  0  0  0  0  0  0  0
   11.2687  -17.9603   22.3704 C   0  0  0  0  0  0  0  0  0  0  0  0
   10.2188  -17.6391   23.4445 C   0  0  2  0  0  0  0  0  0  0  0  0
    9.4061  -16.5719   22.8801 N   0  0  0  0  0  0  0  0  0  0  0  0
   10.8762  -17.0955   24.6606 C   0  0  0  0  0  0  0  0  0  0  0  0
   11.2635  -15.8943   24.7486 O   0  0  0  0  0  0  0  0  0  0  0  0
   10.6838  -12.8581   28.5981 C   0  0  0  0  0  0  0  0  0  0  0  0
   10.1101  -14.3913   29.3193 S   0  0  0  0  0  0  0  0  0  0  0  0
   11.2357  -15.7912   28.9269 C   0  0  0  0  0  0  0  0  0  0  0  0
   10.8332  -16.3093   27.5946 C   0  0  0  0  0  0  0  0  0  0  0  0
   11.7244  -17.3623   27.0203 C   0  0  2  0  0  0  0  0  0  0  0  0
   11.1156  -17.9027   25.8211 N   0  0  0  0  0  0  0  0  0  0  0  0
   12.0545  -18.4548   27.9247 C   0  0  0  0  0  0  0  0  0  0  0  0
   11.6881  -19.7826   27.7473 O   0  0  0  0  0  0  0  0  0  0  0  0
   12.7236  -18.2119   28.9587 O   0  0  0  0  0  0  0  0  0  0  0  0
  2  1  1  1
  2  3  1  0
  4  2  1  0
  5  4  1  0
  5  6  1  1
  7  5  1  0
  8  7  2  0
  9 10  1  0
 11 10  1  6
 11 12  1  0
 12  7  1  0
 13 11  1  0
 13 20  1  0
 14 13  2  0
 16 17  1  0
 16 15  1  0
 19 18  1  1
 18 17  1  0
 19 21  1  0
 20 19  1  0
 21 23  2  0
 21 22  1  0
M  END
$$$$
