VHY.pdb
     RDKit          3D

 30 31  0  0  1  0  0  0  0  0999 V2000
   18.6596  -11.7193  -17.9754 C   0  0  0  0  0  0  0  0  0  0  0  0
   18.8534  -13.0226  -17.2498 C   0  0  1  0  0  0  0  0  0  0  0  0
   17.9833  -14.0582  -17.9259 C   0  0  0  0  0  0  0  0  0  0  0  0
   20.3042  -13.4364  -17.2995 C   0  0  2  0  0  0  0  0  0  0  0  0
   20.4687  -14.6809  -16.5084 N   0  0  0  0  0  0  0  0  0  0  0  0
   21.1221  -12.3858  -16.6584 C   0  0  0  0  0  0  0  0  0  0  0  0
   21.0364  -12.2373  -15.4033 O   0  0  0  0  0  0  0  0  0  0  0  0
   22.0144  -11.5125  -17.3185 N   0  0  0  0  0  0  0  0  0  0  0  0
   22.7697  -10.5090  -16.5588 C   0  0  1  0  0  0  0  0  0  0  0  0
   24.1408  -10.5391  -17.2218 C   0  0  0  0  0  0  0  0  0  0  0  0
   24.9821  -11.6663  -16.8465 C   0  0  0  0  0  0  0  0  0  0  0  0
   24.5917  -12.5339  -15.8153 C   0  0  0  0  0  0  0  0  0  0  0  0
   25.5086  -13.4740  -15.6565 N   0  0  0  0  0  0  0  0  0  0  0  0
   26.4883  -13.2341  -16.5653 C   0  0  0  0  0  0  0  0  0  0  0  0
   26.1566  -12.1413  -17.2751 N   0  0  0  0  0  0  0  0  0  0  0  0
   22.2127   -9.1586  -16.7598 C   0  0  0  0  0  0  0  0  0  0  0  0
   21.6337   -8.8907  -17.8312 O   0  0  0  0  0  0  0  0  0  0  0  0
   17.6357   -2.1112  -16.9653 O   0  0  0  0  0  0  0  0  0  0  0  0
   18.2776   -3.3422  -16.7876 C   0  0  0  0  0  0  0  0  0  0  0  0
   19.2247   -3.7134  -17.7115 C   0  0  0  0  0  0  0  0  0  0  0  0
   19.8958   -4.9341  -17.5802 C   0  0  0  0  0  0  0  0  0  0  0  0
   19.5862   -5.7446  -16.5134 C   0  0  0  0  0  0  0  0  0  0  0  0
   20.2826   -7.0397  -16.3564 C   0  0  0  0  0  0  0  0  0  0  0  0
   21.7215   -6.8275  -16.0642 C   0  0  2  0  0  0  0  0  0  0  0  0
   22.3027   -8.1433  -15.7868 N   0  0  0  0  0  0  0  0  0  0  0  0
   22.0435   -5.9135  -14.9694 C   0  0  0  0  0  0  0  0  0  0  0  0
   22.0993   -6.2613  -13.6207 O   0  0  0  0  0  0  0  0  0  0  0  0
   18.6341   -5.3880  -15.5710 C   0  0  0  0  0  0  0  0  0  0  0  0
   17.9884   -4.1723  -15.7311 C   0  0  0  0  0  0  0  0  0  0  0  0
   22.3018   -4.6966  -15.2103 O   0  0  0  0  0  0  0  0  0  0  0  0
  2  1  1  6
  3  2  1  0
  4  5  1  1
  4  2  1  0
  6  4  1  0
  7  6  2  0
  8  6  1  0
  9 16  1  0
  9  8  1  0
  9 10  1  6
 11 10  1  0
 11 15  1  0
 12 13  1  0
 12 11  2  0
 13 14  1  0
 14 15  2  0
 16 17  2  0
 18 19  1  0
 19 29  2  0
 19 20  1  0
 20 21  2  0
 21 22  1  0
 22 23  1  0
 24 23  1  1
 25 24  1  0
 25 16  1  0
 26 24  1  0
 27 26  1  0
 28 22  2  0
 29 28  1  0
 30 26  2  0
M  END
$$$$
