VHY.pdb
     RDKit          3D

 30 31  0  0  1  0  0  0  0  0999 V2000
   22.5661  -38.3235  -15.1100 C   0  0  0  0  0  0  0  0  0  0  0  0
   23.5524  -37.5286  -14.2990 C   0  0  1  0  0  0  0  0  0  0  0  0
   24.3568  -38.5042  -13.4696 C   0  0  0  0  0  0  0  0  0  0  0  0
   24.4582  -36.7361  -15.2102 C   0  0  2  0  0  0  0  0  0  0  0  0
   25.2947  -37.6841  -15.9870 N   0  0  0  0  0  0  0  0  0  0  0  0
   25.3642  -35.9121  -14.3831 C   0  0  0  0  0  0  0  0  0  0  0  0
   26.5204  -36.3611  -14.1255 O   0  0  0  0  0  0  0  0  0  0  0  0
   25.0660  -34.6424  -13.8415 N   0  0  0  0  0  0  0  0  0  0  0  0
   26.0665  -33.9208  -13.0460 C   0  0  1  0  0  0  0  0  0  0  0  0
   26.0723  -32.5354  -13.6793 C   0  0  0  0  0  0  0  0  0  0  0  0
   26.8686  -32.4157  -14.8922 C   0  0  0  0  0  0  0  0  0  0  0  0
   27.5425  -33.5300  -15.4143 C   0  0  0  0  0  0  0  0  0  0  0  0
   28.1937  -33.1797  -16.5112 N   0  0  0  0  0  0  0  0  0  0  0  0
   27.9559  -31.8582  -16.7122 C   0  0  0  0  0  0  0  0  0  0  0  0
   27.1556  -31.4119  -15.7281 N   0  0  0  0  0  0  0  0  0  0  0  0
   25.6238  -33.7644  -11.6483 C   0  0  0  0  0  0  0  0  0  0  0  0
   24.4052  -33.6677  -11.4015 O   0  0  0  0  0  0  0  0  0  0  0  0
   25.2904  -34.0835   -2.9499 O   0  0  0  0  0  0  0  0  0  0  0  0
   25.7018  -34.1610   -4.2854 C   0  0  0  0  0  0  0  0  0  0  0  0
   26.4039  -33.1001   -4.8051 C   0  0  0  0  0  0  0  0  0  0  0  0
   26.8385  -33.1271   -6.1348 C   0  0  0  0  0  0  0  0  0  0  0  0
   26.5477  -34.2316   -6.9005 C   0  0  0  0  0  0  0  0  0  0  0  0
   26.9964  -34.2802   -8.3088 C   0  0  0  0  0  0  0  0  0  0  0  0
   25.9978  -33.6377   -9.1981 C   0  0  2  0  0  0  0  0  0  0  0  0
   26.5221  -33.7198  -10.5635 N   0  0  0  0  0  0  0  0  0  0  0  0
   25.6423  -32.2520   -8.8966 C   0  0  0  0  0  0  0  0  0  0  0  0
   24.6645  -31.8516   -7.9874 O   0  0  0  0  0  0  0  0  0  0  0  0
   25.8408  -35.3115   -6.3947 C   0  0  0  0  0  0  0  0  0  0  0  0
   25.4254  -35.2521   -5.0740 C   0  0  0  0  0  0  0  0  0  0  0  0
   26.2407  -31.2992   -9.4796 O   0  0  0  0  0  0  0  0  0  0  0  0
  2  1  1  6
  3  2  1  0
  4  5  1  1
  4  2  1  0
  6  4  1  0
  7  6  2  0
  8  6  1  0
  9 16  1  0
  9  8  1  0
  9 10  1  6
 11 10  1  0
 11 15  1  0
 12 13  1  0
 12 11  2  0
 13 14  1  0
 14 15  2  0
 16 17  2  0
 18 19  1  0
 19 29  2  0
 19 20  1  0
 20 21  2  0
 21 22  1  0
 22 23  1  0
 24 23  1  1
 25 24  1  0
 25 16  1  0
 26 24  1  0
 27 26  1  0
 28 22  2  0
 29 28  1  0
 30 26  2  0
M  END
$$$$
