VHY.pdb
     RDKit          3D

 30 31  0  0  1  0  0  0  0  0999 V2000
   22.0779  -12.8243  -20.0324 C   0  0  0  0  0  0  0  0  0  0  0  0
   21.2076  -11.8846  -19.2437 C   0  0  1  0  0  0  0  0  0  0  0  0
   20.2154  -12.7206  -18.4670 C   0  0  0  0  0  0  0  0  0  0  0  0
   22.0511  -11.0565  -18.3050 C   0  0  2  0  0  0  0  0  0  0  0  0
   22.7506  -11.9694  -17.3673 N   0  0  0  0  0  0  0  0  0  0  0  0
   21.1623  -10.1874  -17.5060 C   0  0  0  0  0  0  0  0  0  0  0  0
   20.4887   -9.2988  -18.1072 O   0  0  0  0  0  0  0  0  0  0  0  0
   20.9801  -10.2515  -16.1070 N   0  0  0  0  0  0  0  0  0  0  0  0
   20.1048   -9.2891  -15.4272 C   0  0  1  0  0  0  0  0  0  0  0  0
   19.3384  -10.1613  -14.4411 C   0  0  0  0  0  0  0  0  0  0  0  0
   18.0282  -10.6023  -14.8976 C   0  0  0  0  0  0  0  0  0  0  0  0
   17.5334  -10.1918  -16.1446 C   0  0  0  0  0  0  0  0  0  0  0  0
   16.3343  -10.7153  -16.3394 N   0  0  0  0  0  0  0  0  0  0  0  0
   16.0398  -11.4587  -15.2421 C   0  0  0  0  0  0  0  0  0  0  0  0
   17.0706  -11.3807  -14.3821 N   0  0  0  0  0  0  0  0  0  0  0  0
   20.8888   -8.3193  -14.6406 C   0  0  0  0  0  0  0  0  0  0  0  0
   21.8031   -8.7319  -13.8996 O   0  0  0  0  0  0  0  0  0  0  0  0
   23.5130   -3.8217  -19.4917 O   0  0  0  0  0  0  0  0  0  0  0  0
   23.3642   -4.3910  -18.2218 C   0  0  0  0  0  0  0  0  0  0  0  0
   23.2021   -5.7534  -18.1423 C   0  0  0  0  0  0  0  0  0  0  0  0
   23.0491   -6.3726  -16.8969 C   0  0  0  0  0  0  0  0  0  0  0  0
   23.0649   -5.5905  -15.7660 C   0  0  0  0  0  0  0  0  0  0  0  0
   22.9035   -6.2245  -14.4398 C   0  0  0  0  0  0  0  0  0  0  0  0
   21.5240   -6.0277  -13.9305 C   0  0  2  0  0  0  0  0  0  0  0  0
   20.6533   -6.9308  -14.6870 N   0  0  0  0  0  0  0  0  0  0  0  0
   20.9866   -4.6694  -13.9925 C   0  0  0  0  0  0  0  0  0  0  0  0
   21.4790   -3.5759  -13.2820 O   0  0  0  0  0  0  0  0  0  0  0  0
   23.2271   -4.2150  -15.8254 C   0  0  0  0  0  0  0  0  0  0  0  0
   23.3760   -3.6341  -17.0747 C   0  0  0  0  0  0  0  0  0  0  0  0
   19.9944   -4.4100  -14.7368 O   0  0  0  0  0  0  0  0  0  0  0  0
  2  1  1  1
  3  2  1  0
  4  5  1  1
  4  2  1  0
  6  4  1  0
  7  6  2  0
  8  6  1  0
  9 16  1  0
  9  8  1  0
  9 10  1  1
 11 10  1  0
 11 15  1  0
 12 13  1  0
 12 11  2  0
 13 14  1  0
 14 15  2  0
 16 17  2  0
 18 19  1  0
 19 29  2  0
 19 20  1  0
 20 21  2  0
 21 22  1  0
 22 23  1  0
 24 23  1  6
 25 24  1  0
 25 16  1  0
 26 24  1  0
 27 26  1  0
 28 22  2  0
 29 28  1  0
 30 26  2  0
M  END
$$$$
