VHY.pdb
     RDKit          3D

 30 31  0  0  1  0  0  0  0  0999 V2000
   30.0262   -9.1039  -18.1286 C   0  0  0  0  0  0  0  0  0  0  0  0
   30.4590   -9.9669  -19.2820 C   0  0  1  0  0  0  0  0  0  0  0  0
   31.9502  -10.1852  -19.1578 C   0  0  0  0  0  0  0  0  0  0  0  0
   29.7266  -11.2863  -19.2497 C   0  0  2  0  0  0  0  0  0  0  0  0
   30.1875  -12.1116  -20.3935 N   0  0  0  0  0  0  0  0  0  0  0  0
   28.2818  -11.0344  -19.4317 C   0  0  0  0  0  0  0  0  0  0  0  0
   27.8781  -10.6315  -20.5627 O   0  0  0  0  0  0  0  0  0  0  0  0
   27.2811  -11.2057  -18.4500 N   0  0  0  0  0  0  0  0  0  0  0  0
   25.8693  -10.9782  -18.7812 C   0  0  1  0  0  0  0  0  0  0  0  0
   25.2288  -12.3303  -18.4949 C   0  0  0  0  0  0  0  0  0  0  0  0
   25.3681  -13.3155  -19.5576 C   0  0  0  0  0  0  0  0  0  0  0  0
   26.3593  -14.3058  -19.4850 C   0  0  0  0  0  0  0  0  0  0  0  0
   26.2919  -15.0792  -20.5560 N   0  0  0  0  0  0  0  0  0  0  0  0
   25.2752  -14.6105  -21.3240 C   0  0  0  0  0  0  0  0  0  0  0  0
   24.7281  -13.5472  -20.7089 N   0  0  0  0  0  0  0  0  0  0  0  0
   25.2584   -9.9984  -17.8642 C   0  0  0  0  0  0  0  0  0  0  0  0
   25.5527  -10.0304  -16.6528 O   0  0  0  0  0  0  0  0  0  0  0  0
   20.8377   -3.1040  -14.8160 O   0  0  0  0  0  0  0  0  0  0  0  0
   21.5833   -4.0105  -15.5785 C   0  0  0  0  0  0  0  0  0  0  0  0
   22.8695   -4.2828  -15.1782 C   0  0  0  0  0  0  0  0  0  0  0  0
   23.6576   -5.1816  -15.9054 C   0  0  0  0  0  0  0  0  0  0  0  0
   23.1173   -5.7792  -17.0197 C   0  0  0  0  0  0  0  0  0  0  0  0
   23.9336   -6.7313  -17.8035 C   0  0  0  0  0  0  0  0  0  0  0  0
   23.7372   -8.1170  -17.3113 C   0  0  2  0  0  0  0  0  0  0  0  0
   24.3475   -9.0137  -18.2959 N   0  0  0  0  0  0  0  0  0  0  0  0
   22.3598   -8.5375  -17.0592 C   0  0  0  0  0  0  0  0  0  0  0  0
   21.6502   -8.3055  -15.8820 O   0  0  0  0  0  0  0  0  0  0  0  0
   21.8223   -5.5177  -17.4395 C   0  0  0  0  0  0  0  0  0  0  0  0
   21.0693   -4.6226  -16.6964 C   0  0  0  0  0  0  0  0  0  0  0  0
   21.7122   -9.1657  -17.9490 O   0  0  0  0  0  0  0  0  0  0  0  0
  2  1  1  1
  3  2  1  0
  4  5  1  6
  4  2  1  0
  6  4  1  0
  7  6  2  0
  8  6  1  0
  9 16  1  0
  9  8  1  0
  9 10  1  1
 11 10  1  0
 11 15  1  0
 12 13  1  0
 12 11  2  0
 13 14  1  0
 14 15  2  0
 16 17  2  0
 18 19  1  0
 19 29  2  0
 19 20  1  0
 20 21  2  0
 21 22  1  0
 22 23  1  0
 24 23  1  6
 25 24  1  0
 25 16  1  0
 26 24  1  0
 27 26  1  0
 28 22  2  0
 29 28  1  0
 30 26  2  0
M  END
$$$$
