VHY.pdb
     RDKit          3D

 30 31  0  0  1  0  0  0  0  0999 V2000
   29.3849  -18.4842  -14.4178 C   0  0  0  0  0  0  0  0  0  0  0  0
   28.6644  -18.1416  -15.6930 C   0  0  1  0  0  0  0  0  0  0  0  0
   29.7043  -17.9809  -16.7790 C   0  0  0  0  0  0  0  0  0  0  0  0
   27.6895  -19.2368  -16.0516 C   0  0  2  0  0  0  0  0  0  0  0  0
   27.0044  -18.8656  -17.3144 N   0  0  0  0  0  0  0  0  0  0  0  0
   26.6620  -19.3261  -14.9933 C   0  0  0  0  0  0  0  0  0  0  0  0
   25.6000  -18.6484  -15.1256 O   0  0  0  0  0  0  0  0  0  0  0  0
   26.7441  -20.1128  -13.8233 N   0  0  0  0  0  0  0  0  0  0  0  0
   25.5950  -20.2167  -12.9160 C   0  0  1  0  0  0  0  0  0  0  0  0
   24.5726  -20.9829  -13.7456 C   0  0  0  0  0  0  0  0  0  0  0  0
   23.3012  -21.2307  -13.0813 C   0  0  0  0  0  0  0  0  0  0  0  0
   22.5694  -20.1701  -12.5261 C   0  0  0  0  0  0  0  0  0  0  0  0
   21.4578  -20.6364  -11.9814 N   0  0  0  0  0  0  0  0  0  0  0  0
   21.4529  -21.9806  -12.1718 C   0  0  0  0  0  0  0  0  0  0  0  0
   22.5705  -22.3237  -12.8362 N   0  0  0  0  0  0  0  0  0  0  0  0
   25.9181  -21.0453  -11.7400 C   0  0  0  0  0  0  0  0  0  0  0  0
   26.8963  -21.8174  -11.7877 O   0  0  0  0  0  0  0  0  0  0  0  0
   29.3153  -19.8508   -4.1525 O   0  0  0  0  0  0  0  0  0  0  0  0
   28.7123  -19.9101   -5.4142 C   0  0  0  0  0  0  0  0  0  0  0  0
   29.2394  -20.7791   -6.3391 C   0  0  0  0  0  0  0  0  0  0  0  0
   28.6740  -20.8770   -7.6153 C   0  0  0  0  0  0  0  0  0  0  0  0
   27.5883  -20.0890   -7.9169 C   0  0  0  0  0  0  0  0  0  0  0  0
   26.9762  -20.1757   -9.2603 C   0  0  0  0  0  0  0  0  0  0  0  0
   25.8516  -21.1433   -9.2610 C   0  0  2  0  0  0  0  0  0  0  0  0
   25.1666  -21.0057  -10.5486 N   0  0  0  0  0  0  0  0  0  0  0  0
   24.8778  -21.0221   -8.1772 C   0  0  0  0  0  0  0  0  0  0  0  0
   24.9148  -21.7331   -6.9788 O   0  0  0  0  0  0  0  0  0  0  0  0
   27.0422  -19.2065   -6.9978 C   0  0  0  0  0  0  0  0  0  0  0  0
   27.6265  -19.1345   -5.7433 C   0  0  0  0  0  0  0  0  0  0  0  0
   23.9024  -20.2201   -8.2835 O   0  0  0  0  0  0  0  0  0  0  0  0
  2  1  1  1
  3  2  1  0
  4  5  1  6
  4  2  1  0
  6  4  1  0
  7  6  2  0
  8  6  1  0
  9 16  1  0
  9  8  1  0
  9 10  1  6
 11 10  1  0
 11 15  1  0
 12 13  1  0
 12 11  2  0
 13 14  1  0
 14 15  2  0
 16 17  2  0
 18 19  1  0
 19 29  2  0
 19 20  1  0
 20 21  2  0
 21 22  1  0
 22 23  1  0
 24 23  1  1
 25 24  1  0
 25 16  1  0
 26 24  1  0
 27 26  1  0
 28 22  2  0
 29 28  1  0
 30 26  2  0
M  END
$$$$
