VHY.pdb
     RDKit          3D

 30 31  0  0  1  0  0  0  0  0999 V2000
   27.4823  -11.4880  -15.4081 C   0  0  0  0  0  0  0  0  0  0  0  0
   26.2989  -10.6023  -15.6864 C   0  0  1  0  0  0  0  0  0  0  0  0
   26.7407   -9.5412  -16.6690 C   0  0  0  0  0  0  0  0  0  0  0  0
   25.1630  -11.4144  -16.2598 C   0  0  2  0  0  0  0  0  0  0  0  0
   25.5991  -11.9878  -17.5571 N   0  0  0  0  0  0  0  0  0  0  0  0
   24.0214  -10.5152  -16.5278 C   0  0  0  0  0  0  0  0  0  0  0  0
   23.9991   -9.8796  -17.6234 O   0  0  0  0  0  0  0  0  0  0  0  0
   22.9242  -10.2904  -15.6674 N   0  0  0  0  0  0  0  0  0  0  0  0
   21.8864   -9.3164  -16.0263 C   0  0  1  0  0  0  0  0  0  0  0  0
   20.6014  -10.1250  -15.9031 C   0  0  0  0  0  0  0  0  0  0  0  0
   20.2949  -10.9729  -17.0462 C   0  0  0  0  0  0  0  0  0  0  0  0
   21.1302  -10.9776  -18.1734 C   0  0  0  0  0  0  0  0  0  0  0  0
   20.6523  -11.8192  -19.0752 N   0  0  0  0  0  0  0  0  0  0  0  0
   19.5215  -12.3619  -18.5556 C   0  0  0  0  0  0  0  0  0  0  0  0
   19.3193  -11.8419  -17.3321 N   0  0  0  0  0  0  0  0  0  0  0  0
   21.8163   -8.2245  -15.0380 C   0  0  0  0  0  0  0  0  0  0  0  0
   22.2318   -8.4228  -13.8790 O   0  0  0  0  0  0  0  0  0  0  0  0
   25.0417   -2.6960  -18.3973 O   0  0  0  0  0  0  0  0  0  0  0  0
   24.4778   -3.3995  -17.3267 C   0  0  0  0  0  0  0  0  0  0  0  0
   24.8710   -4.7021  -17.1342 C   0  0  0  0  0  0  0  0  0  0  0  0
   24.3376   -5.4497  -16.0786 C   0  0  0  0  0  0  0  0  0  0  0  0
   23.4191   -4.8532  -15.2472 C   0  0  0  0  0  0  0  0  0  0  0  0
   22.8419   -5.6259  -14.1261 C   0  0  0  0  0  0  0  0  0  0  0  0
   21.3973   -5.8762  -14.3527 C   0  0  2  0  0  0  0  0  0  0  0  0
   21.2971   -6.9506  -15.3435 N   0  0  0  0  0  0  0  0  0  0  0  0
   20.5917   -4.7367  -14.7885 C   0  0  0  0  0  0  0  0  0  0  0  0
   20.2675   -3.6325  -14.0019 O   0  0  0  0  0  0  0  0  0  0  0  0
   23.0098   -3.5408  -15.4248 C   0  0  0  0  0  0  0  0  0  0  0  0
   23.5579   -2.8289  -16.4800 C   0  0  0  0  0  0  0  0  0  0  0  0
   20.1268   -4.6983  -15.9667 O   0  0  0  0  0  0  0  0  0  0  0  0
  2  1  1  6
  3  2  1  0
  4  5  1  6
  4  2  1  0
  6  4  1  0
  7  6  2  0
  8  6  1  0
  9 16  1  0
  9  8  1  0
  9 10  1  1
 11 10  1  0
 11 15  1  0
 12 13  1  0
 12 11  2  0
 13 14  1  0
 14 15  2  0
 16 17  2  0
 18 19  1  0
 19 29  2  0
 19 20  1  0
 20 21  2  0
 21 22  1  0
 22 23  1  0
 24 23  1  6
 25 24  1  0
 25 16  1  0
 26 24  1  0
 27 26  1  0
 28 22  2  0
 29 28  1  0
 30 26  2  0
M  END
$$$$
