VHY.pdb
     RDKit          3D

 30 31  0  0  1  0  0  0  0  0999 V2000
   28.2057  -16.1271  -18.5459 C   0  0  0  0  0  0  0  0  0  0  0  0
   27.4387  -14.8402  -18.4114 C   0  0  1  0  0  0  0  0  0  0  0  0
   27.9106  -13.9081  -19.5046 C   0  0  0  0  0  0  0  0  0  0  0  0
   25.9574  -15.1000  -18.5403 C   0  0  2  0  0  0  0  0  0  0  0  0
   25.2413  -13.8023  -18.4680 N   0  0  0  0  0  0  0  0  0  0  0  0
   25.5155  -15.9207  -17.3936 C   0  0  0  0  0  0  0  0  0  0  0  0
   25.6535  -15.4490  -16.2261 O   0  0  0  0  0  0  0  0  0  0  0  0
   24.9370  -17.2068  -17.4695 N   0  0  0  0  0  0  0  0  0  0  0  0
   24.5988  -17.9425  -16.2452 C   0  0  1  0  0  0  0  0  0  0  0  0
   23.2301  -18.5292  -16.5660 C   0  0  0  0  0  0  0  0  0  0  0  0
   22.1005  -17.6677  -16.2481 C   0  0  0  0  0  0  0  0  0  0  0  0
   22.3027  -16.4360  -15.6074 C   0  0  0  0  0  0  0  0  0  0  0  0
   21.1383  -15.8355  -15.4246 N   0  0  0  0  0  0  0  0  0  0  0  0
   20.1824  -16.6537  -15.9344 C   0  0  0  0  0  0  0  0  0  0  0  0
   20.7780  -17.7540  -16.4271 N   0  0  0  0  0  0  0  0  0  0  0  0
   25.5226  -19.0715  -16.0300 C   0  0  0  0  0  0  0  0  0  0  0  0
   26.0982  -19.5843  -17.0102 O   0  0  0  0  0  0  0  0  0  0  0  0
   24.8071  -20.7030   -8.6233 O   0  0  0  0  0  0  0  0  0  0  0  0
   25.5063  -20.5882   -9.8303 C   0  0  0  0  0  0  0  0  0  0  0  0
   26.0080  -21.7362  -10.3950 C   0  0  0  0  0  0  0  0  0  0  0  0
   26.7148  -21.6767  -11.6011 C   0  0  0  0  0  0  0  0  0  0  0  0
   26.8924  -20.4521  -12.2007 C   0  0  0  0  0  0  0  0  0  0  0  0
   27.6376  -20.3665  -13.4752 C   0  0  0  0  0  0  0  0  0  0  0  0
   26.7552  -20.7001  -14.6202 C   0  0  2  0  0  0  0  0  0  0  0  0
   25.7913  -19.6051  -14.7538 N   0  0  0  0  0  0  0  0  0  0  0  0
   26.0384  -21.9725  -14.5505 C   0  0  0  0  0  0  0  0  0  0  0  0
   24.6560  -22.1124  -14.4397 O   0  0  0  0  0  0  0  0  0  0  0  0
   26.3941  -19.2830  -11.6470 C   0  0  0  0  0  0  0  0  0  0  0  0
   25.6990  -19.3777  -10.4519 C   0  0  0  0  0  0  0  0  0  0  0  0
   26.6766  -23.0665  -14.5909 O   0  0  0  0  0  0  0  0  0  0  0  0
  2  1  1  6
  3  2  1  0
  4  5  1  1
  4  2  1  0
  6  4  1  0
  7  6  2  0
  8  6  1  0
  9 16  1  0
  9  8  1  0
  9 10  1  6
 11 10  1  0
 11 15  1  0
 12 13  1  0
 12 11  2  0
 13 14  1  0
 14 15  2  0
 16 17  2  0
 18 19  1  0
 19 29  2  0
 19 20  1  0
 20 21  2  0
 21 22  1  0
 22 23  1  0
 24 23  1  1
 25 24  1  0
 25 16  1  0
 26 24  1  0
 27 26  1  0
 28 22  2  0
 29 28  1  0
 30 26  2  0
M  END
$$$$
