VHY.pdb
     RDKit          3D

 30 31  0  0  1  0  0  0  0  0999 V2000
   20.7999   -9.9422  -20.8536 C   0  0  0  0  0  0  0  0  0  0  0  0
   19.9041  -11.1254  -21.0989 C   0  0  1  0  0  0  0  0  0  0  0  0
   19.8894  -11.3892  -22.5878 C   0  0  0  0  0  0  0  0  0  0  0  0
   20.4184  -12.3324  -20.3526 C   0  0  2  0  0  0  0  0  0  0  0  0
   19.4698  -13.4550  -20.5575 N   0  0  0  0  0  0  0  0  0  0  0  0
   20.4437  -12.0246  -18.9074 C   0  0  0  0  0  0  0  0  0  0  0  0
   19.3402  -11.9173  -18.2947 O   0  0  0  0  0  0  0  0  0  0  0  0
   21.6014  -11.8377  -18.1205 N   0  0  0  0  0  0  0  0  0  0  0  0
   21.4855  -11.4563  -16.7078 C   0  0  1  0  0  0  0  0  0  0  0  0
   22.3539  -12.4900  -16.0023 C   0  0  0  0  0  0  0  0  0  0  0  0
   21.7397  -13.7991  -15.8338 C   0  0  0  0  0  0  0  0  0  0  0  0
   20.4078  -14.0153  -16.2181 C   0  0  0  0  0  0  0  0  0  0  0  0
   20.0739  -15.2712  -15.9710 N   0  0  0  0  0  0  0  0  0  0  0  0
   21.1639  -15.8760  -15.4330 C   0  0  0  0  0  0  0  0  0  0  0  0
   22.1598  -14.9758  -15.3567 N   0  0  0  0  0  0  0  0  0  0  0  0
   22.0882  -10.1332  -16.4623 C   0  0  0  0  0  0  0  0  0  0  0  0
   23.0132   -9.7378  -17.1993 O   0  0  0  0  0  0  0  0  0  0  0  0
   23.1035   -1.7750  -16.4555 O   0  0  0  0  0  0  0  0  0  0  0  0
   22.7644   -3.1322  -16.5011 C   0  0  0  0  0  0  0  0  0  0  0  0
   23.7856   -4.0482  -16.5817 C   0  0  0  0  0  0  0  0  0  0  0  0
   23.5009   -5.4173  -16.6299 C   0  0  0  0  0  0  0  0  0  0  0  0
   22.1862   -5.8184  -16.5950 C   0  0  0  0  0  0  0  0  0  0  0  0
   21.8631   -7.2606  -16.6462 C   0  0  0  0  0  0  0  0  0  0  0  0
   22.1846   -7.9147  -15.3541 C   0  0  2  0  0  0  0  0  0  0  0  0
   21.6634   -9.2820  -15.4227 N   0  0  0  0  0  0  0  0  0  0  0  0
   21.6843   -7.2642  -14.1441 C   0  0  0  0  0  0  0  0  0  0  0  0
   22.3963   -6.3507  -13.3684 O   0  0  0  0  0  0  0  0  0  0  0  0
   21.1422   -4.9100  -16.5137 C   0  0  0  0  0  0  0  0  0  0  0  0
   21.4594   -3.5618  -16.4676 C   0  0  0  0  0  0  0  0  0  0  0  0
   20.5157   -7.5143  -13.7227 O   0  0  0  0  0  0  0  0  0  0  0  0
  2  1  1  6
  3  2  1  0
  4  5  1  1
  4  2  1  0
  6  4  1  0
  7  6  2  0
  8  6  1  0
  9 16  1  0
  9  8  1  0
  9 10  1  1
 11 10  1  0
 11 15  1  0
 12 13  1  0
 12 11  2  0
 13 14  1  0
 14 15  2  0
 16 17  2  0
 18 19  1  0
 19 29  2  0
 19 20  1  0
 20 21  2  0
 21 22  1  0
 22 23  1  0
 24 23  1  6
 25 24  1  0
 25 16  1  0
 26 24  1  0
 27 26  1  0
 28 22  2  0
 29 28  1  0
 30 26  2  0
M  END
$$$$
