VHY.pdb
     RDKit          3D

 30 31  0  0  1  0  0  0  0  0999 V2000
   24.2539  -26.1093  -17.8704 C   0  0  0  0  0  0  0  0  0  0  0  0
   25.3891  -26.9599  -17.3702 C   0  0  1  0  0  0  0  0  0  0  0  0
   25.3491  -28.2693  -18.1256 C   0  0  0  0  0  0  0  0  0  0  0  0
   26.7060  -26.2580  -17.5972 C   0  0  2  0  0  0  0  0  0  0  0  0
   27.7887  -27.0789  -17.0007 N   0  0  0  0  0  0  0  0  0  0  0  0
   26.6839  -24.9614  -16.8886 C   0  0  0  0  0  0  0  0  0  0  0  0
   27.6026  -24.7162  -16.0517 O   0  0  0  0  0  0  0  0  0  0  0  0
   25.7215  -23.9417  -17.0572 N   0  0  0  0  0  0  0  0  0  0  0  0
   26.0002  -22.5747  -16.6009 C   0  0  1  0  0  0  0  0  0  0  0  0
   27.0764  -22.1034  -17.5706 C   0  0  0  0  0  0  0  0  0  0  0  0
   28.4451  -22.3046  -17.1171 C   0  0  0  0  0  0  0  0  0  0  0  0
   29.3477  -23.0529  -17.8877 C   0  0  0  0  0  0  0  0  0  0  0  0
   30.5204  -23.0974  -17.2773 N   0  0  0  0  0  0  0  0  0  0  0  0
   30.3975  -22.3918  -16.1238 C   0  0  0  0  0  0  0  0  0  0  0  0
   29.1409  -21.9202  -16.0415 N   0  0  0  0  0  0  0  0  0  0  0  0
   24.8268  -21.7015  -16.7870 C   0  0  0  0  0  0  0  0  0  0  0  0
   24.2787  -21.6461  -17.9058 O   0  0  0  0  0  0  0  0  0  0  0  0
   18.2850  -16.0640  -15.5096 O   0  0  0  0  0  0  0  0  0  0  0  0
   19.3839  -16.9075  -15.3093 C   0  0  0  0  0  0  0  0  0  0  0  0
   19.2123  -18.2523  -15.5342 C   0  0  0  0  0  0  0  0  0  0  0  0
   20.2789  -19.1387  -15.3487 C   0  0  0  0  0  0  0  0  0  0  0  0
   21.4910  -18.6344  -14.9396 C   0  0  0  0  0  0  0  0  0  0  0  0
   22.6312  -19.5540  -14.7362 C   0  0  0  0  0  0  0  0  0  0  0  0
   23.1828  -19.9991  -16.0394 C   0  0  2  0  0  0  0  0  0  0  0  0
   24.2864  -20.9175  -15.7483 N   0  0  0  0  0  0  0  0  0  0  0  0
   23.6480  -18.9536  -16.9494 C   0  0  0  0  0  0  0  0  0  0  0  0
   22.8811  -18.3569  -17.9489 O   0  0  0  0  0  0  0  0  0  0  0  0
   21.6840  -17.2814  -14.7076 C   0  0  0  0  0  0  0  0  0  0  0  0
   20.6068  -16.4314  -14.9009 C   0  0  0  0  0  0  0  0  0  0  0  0
   24.8348  -18.5174  -16.8656 O   0  0  0  0  0  0  0  0  0  0  0  0
  2  1  1  6
  3  2  1  0
  4  5  1  1
  4  2  1  0
  6  4  1  0
  7  6  2  0
  8  6  1  0
  9 16  1  0
  9  8  1  0
  9 10  1  6
 11 10  1  0
 11 15  1  0
 12 13  1  0
 12 11  2  0
 13 14  1  0
 14 15  2  0
 16 17  2  0
 18 19  1  0
 19 29  2  0
 19 20  1  0
 20 21  2  0
 21 22  1  0
 22 23  1  0
 24 23  1  1
 25 24  1  0
 25 16  1  0
 26 24  1  0
 27 26  1  0
 28 22  2  0
 29 28  1  0
 30 26  2  0
M  END
$$$$
