DWV.pdb
     RDKit          3D

 30 31  0  0  1  0  0  0  0  0999 V2000
   27.3733  -20.1330  -18.0663 N   0  0  0  0  0  0  0  0  0  0  0  0
   27.0047  -19.2319  -17.0114 C   0  0  1  0  0  0  0  0  0  0  0  0
   26.1764  -18.1154  -17.5761 C   0  0  0  0  0  0  0  0  0  0  0  0
   26.8583  -17.3352  -18.6259 C   0  0  0  0  0  0  0  0  0  0  0  0
   28.0808  -17.0613  -18.4566 O   0  0  0  0  0  0  0  0  0  0  0  0
   26.4327  -19.8873  -15.8338 C   0  0  0  0  0  0  0  0  0  0  0  0
   25.4993  -20.7111  -16.0163 O   0  0  0  0  0  0  0  0  0  0  0  0
   26.2034  -16.9098  -19.7601 O   0  0  0  0  0  0  0  0  0  0  0  0
   26.8412  -19.6713  -14.4978 N   0  0  0  0  0  0  0  0  0  0  0  0
   26.1979  -20.3304  -13.3833 C   0  0  1  0  0  0  0  0  0  0  0  0
   26.9764  -20.1486  -12.1315 C   0  0  0  0  0  0  0  0  0  0  0  0
   26.3140  -20.7562  -10.9554 C   0  0  0  0  0  0  0  0  0  0  0  0
   25.5883  -21.9284  -10.9716 C   0  0  0  0  0  0  0  0  0  0  0  0
   25.1294  -22.1890   -9.7155 N   0  0  0  0  0  0  0  0  0  0  0  0
   25.5347  -21.2209   -8.8816 C   0  0  0  0  0  0  0  0  0  0  0  0
   25.3879  -20.9463   -7.5359 C   0  0  0  0  0  0  0  0  0  0  0  0
   25.9483  -19.8296   -6.9654 C   0  0  0  0  0  0  0  0  0  0  0  0
   26.6834  -18.9310   -7.7095 C   0  0  0  0  0  0  0  0  0  0  0  0
   26.8327  -19.2037   -9.0609 C   0  0  0  0  0  0  0  0  0  0  0  0
   26.2772  -20.3197   -9.6506 C   0  0  0  0  0  0  0  0  0  0  0  0
   24.8113  -19.8142  -13.2919 C   0  0  0  0  0  0  0  0  0  0  0  0
   24.5378  -18.6327  -13.6186 O   0  0  0  0  0  0  0  0  0  0  0  0
   20.4728  -19.3954  -14.3255 C   0  0  0  0  0  0  0  0  0  0  0  0
   21.8561  -20.0081  -14.3172 C   0  0  2  0  0  0  0  0  0  0  0  0
   21.8127  -21.2519  -15.1303 C   0  0  0  0  0  0  0  0  0  0  0  0
   22.3315  -20.1914  -12.9090 C   0  0  2  0  0  0  0  0  0  0  0  0
   23.7158  -20.6080  -12.8364 N   0  0  0  0  0  0  0  0  0  0  0  0
   21.4447  -20.9989  -12.0506 C   0  0  0  0  0  0  0  0  0  0  0  0
   20.4167  -20.4440  -11.2786 O   0  0  0  0  0  0  0  0  0  0  0  0
   21.5555  -22.2460  -11.9561 O   0  0  0  0  0  0  0  0  0  0  0  0
  2  3  1  0
  2  1  1  6
  4  8  1  0
  4  3  1  0
  5  4  2  0
  6  2  1  0
  7  6  2  0
  9  6  1  0
 10  9  1  0
 11 12  1  0
 10 11  1  1
 12 13  2  0
 13 14  1  0
 15 14  1  0
 16 15  2  0
 17 16  1  0
 18 19  1  0
 18 17  2  0
 19 20  2  0
 20 12  1  0
 20 15  1  0
 21 10  1  0
 21 22  2  0
 24 26  1  0
 24 23  1  1
 25 24  1  0
 26 27  1  6
 27 21  1  0
 28 26  1  0
 29 28  1  0
 30 28  2  0
M  END
$$$$
