DWV.pdb
     RDKit          3D

 30 31  0  0  1  0  0  0  0  0999 V2000
   28.4359  -22.2220  -15.1132 N   0  0  0  0  0  0  0  0  0  0  0  0
   27.3268  -21.3109  -15.0971 C   0  0  1  0  0  0  0  0  0  0  0  0
   26.6876  -21.2794  -16.4543 C   0  0  0  0  0  0  0  0  0  0  0  0
   27.3537  -20.3741  -17.4095 C   0  0  0  0  0  0  0  0  0  0  0  0
   28.1513  -20.8842  -18.2472 O   0  0  0  0  0  0  0  0  0  0  0  0
   26.3977  -21.5148  -13.9842 C   0  0  0  0  0  0  0  0  0  0  0  0
   25.8017  -22.6206  -13.9127 O   0  0  0  0  0  0  0  0  0  0  0  0
   27.1281  -19.0156  -17.4057 O   0  0  0  0  0  0  0  0  0  0  0  0
   26.1089  -20.5677  -12.9752 N   0  0  0  0  0  0  0  0  0  0  0  0
   25.2223  -20.8677  -11.8733 C   0  0  1  0  0  0  0  0  0  0  0  0
   25.6215  -20.1289  -10.6481 C   0  0  0  0  0  0  0  0  0  0  0  0
   26.9001  -20.6141  -10.0815 C   0  0  0  0  0  0  0  0  0  0  0  0
   27.8146  -21.4019  -10.7480 C   0  0  0  0  0  0  0  0  0  0  0  0
   28.8730  -21.6521   -9.9274 N   0  0  0  0  0  0  0  0  0  0  0  0
   28.6749  -21.0505   -8.7460 C   0  0  0  0  0  0  0  0  0  0  0  0
   29.3716  -20.9457   -7.5580 C   0  0  0  0  0  0  0  0  0  0  0  0
   28.8772  -20.2281   -6.4963 C   0  0  0  0  0  0  0  0  0  0  0  0
   27.6627  -19.5790   -6.5672 C   0  0  0  0  0  0  0  0  0  0  0  0
   26.9606  -19.6823   -7.7586 C   0  0  0  0  0  0  0  0  0  0  0  0
   27.4413  -20.3984   -8.8346 C   0  0  0  0  0  0  0  0  0  0  0  0
   23.8381  -20.5700  -12.3128 C   0  0  0  0  0  0  0  0  0  0  0  0
   23.4859  -19.3971  -12.5915 O   0  0  0  0  0  0  0  0  0  0  0  0
   20.9968  -23.5967  -13.6965 C   0  0  0  0  0  0  0  0  0  0  0  0
   21.1000  -22.1386  -14.0867 C   0  0  2  0  0  0  0  0  0  0  0  0
   22.0263  -22.0372  -15.2450 C   0  0  0  0  0  0  0  0  0  0  0  0
   21.4834  -21.3117  -12.8984 C   0  0  2  0  0  0  0  0  0  0  0  0
   22.8330  -21.5747  -12.4465 N   0  0  0  0  0  0  0  0  0  0  0  0
   20.5016  -21.3072  -11.7978 C   0  0  0  0  0  0  0  0  0  0  0  0
   19.2136  -20.7728  -11.9255 O   0  0  0  0  0  0  0  0  0  0  0  0
   20.7597  -21.7863  -10.6663 O   0  0  0  0  0  0  0  0  0  0  0  0
  2  3  1  0
  2  1  1  6
  4  8  1  0
  4  3  1  0
  5  4  2  0
  6  2  1  0
  7  6  2  0
  9  6  1  0
 10  9  1  0
 11 12  1  0
 10 11  1  1
 12 13  2  0
 13 14  1  0
 15 14  1  0
 16 15  2  0
 17 16  1  0
 18 19  1  0
 18 17  2  0
 19 20  2  0
 20 12  1  0
 20 15  1  0
 21 10  1  0
 21 22  2  0
 24 26  1  0
 24 23  1  1
 25 24  1  0
 26 27  1  1
 27 21  1  0
 28 26  1  0
 29 28  1  0
 30 28  2  0
M  END
$$$$
