DWV.pdb
     RDKit          3D

 30 31  0  0  1  0  0  0  0  0999 V2000
   28.5310  -22.4494  -15.2264 N   0  0  0  0  0  0  0  0  0  0  0  0
   27.7536  -21.2866  -14.9034 C   0  0  1  0  0  0  0  0  0  0  0  0
   27.0983  -20.7635  -16.1478 C   0  0  0  0  0  0  0  0  0  0  0  0
   28.0484  -20.2848  -17.1694 C   0  0  0  0  0  0  0  0  0  0  0  0
   28.9546  -19.4833  -16.8023 O   0  0  0  0  0  0  0  0  0  0  0  0
   26.8538  -21.4634  -13.7622 C   0  0  0  0  0  0  0  0  0  0  0  0
   26.2499  -22.5621  -13.6561 O   0  0  0  0  0  0  0  0  0  0  0  0
   27.9686  -20.6851  -18.4846 O   0  0  0  0  0  0  0  0  0  0  0  0
   26.6016  -20.4972  -12.7615 N   0  0  0  0  0  0  0  0  0  0  0  0
   25.6139  -20.7053  -11.7265 C   0  0  1  0  0  0  0  0  0  0  0  0
   25.9331  -19.9095  -10.5136 C   0  0  0  0  0  0  0  0  0  0  0  0
   27.1624  -20.3760   -9.8335 C   0  0  0  0  0  0  0  0  0  0  0  0
   28.1459  -21.1481  -10.4146 C   0  0  0  0  0  0  0  0  0  0  0  0
   29.1292  -21.3835   -9.5014 N   0  0  0  0  0  0  0  0  0  0  0  0
   28.8151  -20.7875   -8.3425 C   0  0  0  0  0  0  0  0  0  0  0  0
   29.3992  -20.6744   -7.0959 C   0  0  0  0  0  0  0  0  0  0  0  0
   28.7993  -19.9668   -6.0831 C   0  0  0  0  0  0  0  0  0  0  0  0
   27.5861  -19.3365   -6.2636 C   0  0  0  0  0  0  0  0  0  0  0  0
   26.9969  -19.4482   -7.5140 C   0  0  0  0  0  0  0  0  0  0  0  0
   27.5846  -20.1544   -8.5424 C   0  0  0  0  0  0  0  0  0  0  0  0
   24.2840  -20.3909  -12.3009 C   0  0  0  0  0  0  0  0  0  0  0  0
   24.0528  -19.2723  -12.8233 O   0  0  0  0  0  0  0  0  0  0  0  0
   21.3576  -23.1831  -13.7764 C   0  0  0  0  0  0  0  0  0  0  0  0
   21.4923  -21.6959  -14.0193 C   0  0  2  0  0  0  0  0  0  0  0  0
   22.4466  -21.4981  -15.1418 C   0  0  0  0  0  0  0  0  0  0  0  0
   21.8606  -20.9960  -12.7477 C   0  0  2  0  0  0  0  0  0  0  0  0
   23.1988  -21.3183  -12.2998 N   0  0  0  0  0  0  0  0  0  0  0  0
   20.8580  -21.0899  -11.6701 C   0  0  0  0  0  0  0  0  0  0  0  0
   19.5650  -20.5642  -11.7821 O   0  0  0  0  0  0  0  0  0  0  0  0
   21.1014  -21.6518  -10.5740 O   0  0  0  0  0  0  0  0  0  0  0  0
  2  3  1  0
  2  1  1  6
  4  8  1  0
  4  3  1  0
  5  4  2  0
  6  2  1  0
  7  6  2  0
  9  6  1  0
 10  9  1  0
 11 12  1  0
 10 11  1  1
 12 13  2  0
 13 14  1  0
 15 14  1  0
 16 15  2  0
 17 16  1  0
 18 19  1  0
 18 17  2  0
 19 20  2  0
 20 12  1  0
 20 15  1  0
 21 10  1  0
 21 22  2  0
 24 26  1  0
 24 23  1  1
 25 24  1  0
 26 27  1  1
 27 21  1  0
 28 26  1  0
 29 28  1  0
 30 28  2  0
M  END
$$$$
