DWV.pdb
     RDKit          3D

 30 31  0  0  1  0  0  0  0  0999 V2000
   29.0290  -21.1795  -14.1405 N   0  0  0  0  0  0  0  0  0  0  0  0
   28.1246  -20.2018  -13.6051 C   0  0  1  0  0  0  0  0  0  0  0  0
   27.4471  -19.4791  -14.7321 C   0  0  0  0  0  0  0  0  0  0  0  0
   28.3481  -18.6141  -15.5168 C   0  0  0  0  0  0  0  0  0  0  0  0
   29.2318  -17.9616  -14.8911 O   0  0  0  0  0  0  0  0  0  0  0  0
   27.2218  -20.7188  -12.5750 C   0  0  0  0  0  0  0  0  0  0  0  0
   26.6067  -21.7893  -12.8177 O   0  0  0  0  0  0  0  0  0  0  0  0
   28.2469  -18.5067  -16.8860 O   0  0  0  0  0  0  0  0  0  0  0  0
   26.9783  -20.1130  -11.3212 N   0  0  0  0  0  0  0  0  0  0  0  0
   25.9896  -20.6274  -10.4003 C   0  0  1  0  0  0  0  0  0  0  0  0
   26.1740  -20.0557   -9.0418 C   0  0  0  0  0  0  0  0  0  0  0  0
   27.4318  -20.5023   -8.4017 C   0  0  0  0  0  0  0  0  0  0  0  0
   28.4106  -21.2545   -9.0159 C   0  0  0  0  0  0  0  0  0  0  0  0
   29.4256  -21.4753   -8.1343 N   0  0  0  0  0  0  0  0  0  0  0  0
   29.1367  -20.8892   -6.9639 C   0  0  0  0  0  0  0  0  0  0  0  0
   29.7568  -20.7700   -5.7355 C   0  0  0  0  0  0  0  0  0  0  0  0
   29.1757  -20.0769   -4.7018 C   0  0  0  0  0  0  0  0  0  0  0  0
   27.9465  -19.4679   -4.8424 C   0  0  0  0  0  0  0  0  0  0  0  0
   27.3212  -19.5858   -6.0745 C   0  0  0  0  0  0  0  0  0  0  0  0
   27.8895  -20.2777   -7.1233 C   0  0  0  0  0  0  0  0  0  0  0  0
   24.6508  -20.3537  -10.9750 C   0  0  0  0  0  0  0  0  0  0  0  0
   24.2844  -19.1801  -11.2317 O   0  0  0  0  0  0  0  0  0  0  0  0
   21.2295  -21.6478  -14.1036 C   0  0  0  0  0  0  0  0  0  0  0  0
   22.5026  -21.9266  -13.3352 C   0  0  2  0  0  0  0  0  0  0  0  0
   22.6469  -23.4003  -13.2040 C   0  0  0  0  0  0  0  0  0  0  0  0
   22.4991  -21.1754  -12.0396 C   0  0  2  0  0  0  0  0  0  0  0  0
   23.7071  -21.3834  -11.2698 N   0  0  0  0  0  0  0  0  0  0  0  0
   21.2733  -21.3265  -11.2334 C   0  0  0  0  0  0  0  0  0  0  0  0
   20.0069  -20.9411  -11.6899 O   0  0  0  0  0  0  0  0  0  0  0  0
   21.2867  -21.8144  -10.0767 O   0  0  0  0  0  0  0  0  0  0  0  0
  2  3  1  0
  2  1  1  6
  4  8  1  0
  4  3  1  0
  5  4  2  0
  6  2  1  0
  7  6  2  0
  9  6  1  0
 10  9  1  0
 11 12  1  0
 10 11  1  1
 12 13  2  0
 13 14  1  0
 15 14  1  0
 16 15  2  0
 17 16  1  0
 18 19  1  0
 18 17  2  0
 19 20  2  0
 20 12  1  0
 20 15  1  0
 21 10  1  0
 21 22  2  0
 24 26  1  0
 24 23  1  1
 25 24  1  0
 26 27  1  1
 27 21  1  0
 28 26  1  0
 29 28  1  0
 30 28  2  0
M  END
$$$$
