DWV.pdb
     RDKit          3D

 30 31  0  0  1  0  0  0  0  0999 V2000
   28.4763  -22.0186  -15.6137 N   0  0  0  0  0  0  0  0  0  0  0  0
   27.4659  -21.0315  -15.3583 C   0  0  1  0  0  0  0  0  0  0  0  0
   26.6455  -20.8253  -16.5976 C   0  0  0  0  0  0  0  0  0  0  0  0
   27.4208  -20.3426  -17.7559 C   0  0  0  0  0  0  0  0  0  0  0  0
   27.4414  -21.0643  -18.7937 O   0  0  0  0  0  0  0  0  0  0  0  0
   26.6901  -21.2672  -14.1393 C   0  0  0  0  0  0  0  0  0  0  0  0
   26.0562  -22.3502  -14.0477 O   0  0  0  0  0  0  0  0  0  0  0  0
   28.1063  -19.1486  -17.7285 O   0  0  0  0  0  0  0  0  0  0  0  0
   26.5898  -20.3746  -13.0476 N   0  0  0  0  0  0  0  0  0  0  0  0
   25.7563  -20.6570  -11.9005 C   0  0  1  0  0  0  0  0  0  0  0  0
   26.1685  -19.8462  -10.7262 C   0  0  0  0  0  0  0  0  0  0  0  0
   27.2736  -20.4692   -9.9635 C   0  0  0  0  0  0  0  0  0  0  0  0
   28.2311  -21.3065  -10.4955 C   0  0  0  0  0  0  0  0  0  0  0  0
   29.0916  -21.6869   -9.5101 N   0  0  0  0  0  0  0  0  0  0  0  0
   28.7227  -21.1221   -8.3518 C   0  0  0  0  0  0  0  0  0  0  0  0
   29.1883  -21.1327   -7.0514 C   0  0  0  0  0  0  0  0  0  0  0  0
   28.5616  -20.4204   -6.0582 C   0  0  0  0  0  0  0  0  0  0  0  0
   27.4386  -19.6618   -6.3132 C   0  0  0  0  0  0  0  0  0  0  0  0
   26.9685  -19.6491   -7.6177 C   0  0  0  0  0  0  0  0  0  0  0  0
   27.5848  -20.3579   -8.6274 C   0  0  0  0  0  0  0  0  0  0  0  0
   24.3462  -20.4351  -12.3007 C   0  0  0  0  0  0  0  0  0  0  0  0
   23.9504  -19.3035  -12.6755 O   0  0  0  0  0  0  0  0  0  0  0  0
   20.2179  -21.9712  -14.3094 C   0  0  0  0  0  0  0  0  0  0  0  0
   21.6184  -22.2631  -13.8169 C   0  0  2  0  0  0  0  0  0  0  0  0
   21.6772  -23.6947  -13.4208 C   0  0  0  0  0  0  0  0  0  0  0  0
   21.9997  -21.2947  -12.7401 C   0  0  2  0  0  0  0  0  0  0  0  0
   23.3634  -21.4703  -12.2879 N   0  0  0  0  0  0  0  0  0  0  0  0
   21.0371  -21.1865  -11.6279 C   0  0  0  0  0  0  0  0  0  0  0  0
   19.7764  -20.5923  -11.7641 O   0  0  0  0  0  0  0  0  0  0  0  0
   21.2881  -21.6240  -10.4781 O   0  0  0  0  0  0  0  0  0  0  0  0
  2  3  1  0
  2  1  1  6
  4  8  1  0
  4  3  1  0
  5  4  2  0
  6  2  1  0
  7  6  2  0
  9  6  1  0
 10  9  1  0
 11 12  1  0
 10 11  1  1
 12 13  2  0
 13 14  1  0
 15 14  1  0
 16 15  2  0
 17 16  1  0
 18 19  1  0
 18 17  2  0
 19 20  2  0
 20 12  1  0
 20 15  1  0
 21 10  1  0
 21 22  2  0
 24 26  1  0
 24 23  1  1
 25 24  1  0
 26 27  1  1
 27 21  1  0
 28 26  1  0
 29 28  1  0
 30 28  2  0
M  END
$$$$
