DWV.pdb
     RDKit          3D

 30 31  0  0  1  0  0  0  0  0999 V2000
   26.7175  -23.3540  -15.3037 N   0  0  0  0  0  0  0  0  0  0  0  0
   27.1375  -22.1656  -14.6168 C   0  0  1  0  0  0  0  0  0  0  0  0
   26.9393  -20.9766  -15.5104 C   0  0  0  0  0  0  0  0  0  0  0  0
   28.0927  -20.6830  -16.3816 C   0  0  0  0  0  0  0  0  0  0  0  0
   28.5820  -21.6357  -17.0532 O   0  0  0  0  0  0  0  0  0  0  0  0
   26.5821  -22.0220  -13.2698 C   0  0  0  0  0  0  0  0  0  0  0  0
   25.4255  -22.4713  -13.0613 O   0  0  0  0  0  0  0  0  0  0  0  0
   28.6337  -19.4200  -16.4748 O   0  0  0  0  0  0  0  0  0  0  0  0
   27.2383  -21.4156  -12.1743 N   0  0  0  0  0  0  0  0  0  0  0  0
   26.5893  -21.2378  -10.8947 C   0  0  1  0  0  0  0  0  0  0  0  0
   27.5486  -20.7503   -9.8707 C   0  0  0  0  0  0  0  0  0  0  0  0
   26.8925  -20.4269   -8.5838 C   0  0  0  0  0  0  0  0  0  0  0  0
   25.5306  -20.4131   -8.3693 C   0  0  0  0  0  0  0  0  0  0  0  0
   25.2845  -20.0795   -7.0715 N   0  0  0  0  0  0  0  0  0  0  0  0
   26.4460  -19.8754   -6.4343 C   0  0  0  0  0  0  0  0  0  0  0  0
   26.8255  -19.5266   -5.1528 C   0  0  0  0  0  0  0  0  0  0  0  0
   28.1479  -19.3941   -4.8063 C   0  0  0  0  0  0  0  0  0  0  0  0
   29.1580  -19.6033   -5.7214 C   0  0  0  0  0  0  0  0  0  0  0  0
   28.7804  -19.9536   -7.0090 C   0  0  0  0  0  0  0  0  0  0  0  0
   27.4579  -20.0910   -7.3747 C   0  0  0  0  0  0  0  0  0  0  0  0
   25.4345  -20.3303  -11.0957 C   0  0  0  0  0  0  0  0  0  0  0  0
   25.6030  -19.1381  -11.4534 O   0  0  0  0  0  0  0  0  0  0  0  0
   22.0622  -18.8705  -13.4541 C   0  0  0  0  0  0  0  0  0  0  0  0
   23.0547  -19.9015  -12.9631 C   0  0  2  0  0  0  0  0  0  0  0  0
   22.8476  -21.1481  -13.7460 C   0  0  0  0  0  0  0  0  0  0  0  0
   22.9406  -20.0627  -11.4786 C   0  0  2  0  0  0  0  0  0  0  0  0
   24.0813  -20.7408  -10.9008 N   0  0  0  0  0  0  0  0  0  0  0  0
   21.6527  -20.6047  -11.0065 C   0  0  0  0  0  0  0  0  0  0  0  0
   21.5496  -21.7779  -10.2491 O   0  0  0  0  0  0  0  0  0  0  0  0
   20.5571  -20.0444  -11.2555 O   0  0  0  0  0  0  0  0  0  0  0  0
  2  3  1  0
  2  1  1  6
  4  8  1  0
  4  3  1  0
  5  4  2  0
  6  2  1  0
  7  6  2  0
  9  6  1  0
 10  9  1  0
 11 12  1  0
 10 11  1  1
 12 13  2  0
 13 14  1  0
 15 14  1  0
 16 15  2  0
 17 16  1  0
 18 19  1  0
 18 17  2  0
 19 20  2  0
 20 12  1  0
 20 15  1  0
 21 10  1  0
 21 22  2  0
 24 26  1  0
 24 23  1  6
 25 24  1  0
 26 27  1  6
 27 21  1  0
 28 26  1  0
 29 28  1  0
 30 28  2  0
M  END
$$$$
