DWV.pdb
     RDKit          3D

 30 31  0  0  1  0  0  0  0  0999 V2000
   28.4933  -21.8033  -15.5857 N   0  0  0  0  0  0  0  0  0  0  0  0
   28.1876  -20.6651  -14.7662 C   0  0  1  0  0  0  0  0  0  0  0  0
   27.4533  -19.6440  -15.5847 C   0  0  0  0  0  0  0  0  0  0  0  0
   28.2188  -19.1391  -16.7400 C   0  0  0  0  0  0  0  0  0  0  0  0
   27.6416  -19.1142  -17.8644 O   0  0  0  0  0  0  0  0  0  0  0  0
   27.5570  -20.9973  -13.4874 C   0  0  0  0  0  0  0  0  0  0  0  0
   26.5738  -21.7823  -13.5047 O   0  0  0  0  0  0  0  0  0  0  0  0
   29.5200  -18.7045  -16.6192 O   0  0  0  0  0  0  0  0  0  0  0  0
   27.9600  -20.5069  -12.2242 N   0  0  0  0  0  0  0  0  0  0  0  0
   27.2393  -20.8261  -11.0123 C   0  0  1  0  0  0  0  0  0  0  0  0
   27.9306  -20.2774   -9.8176 C   0  0  0  0  0  0  0  0  0  0  0  0
   27.1672  -20.4942   -8.5680 C   0  0  0  0  0  0  0  0  0  0  0  0
   25.8893  -21.0071   -8.4983 C   0  0  0  0  0  0  0  0  0  0  0  0
   25.5033  -21.0729   -7.1933 N   0  0  0  0  0  0  0  0  0  0  0  0
   26.4921  -20.6179   -6.4110 C   0  0  0  0  0  0  0  0  0  0  0  0
   26.6830  -20.4466   -5.0538 C   0  0  0  0  0  0  0  0  0  0  0  0
   27.8557  -19.9369   -4.5521 C   0  0  0  0  0  0  0  0  0  0  0  0
   28.8966  -19.5727   -5.3800 C   0  0  0  0  0  0  0  0  0  0  0  0
   28.7082  -19.7434   -6.7432 C   0  0  0  0  0  0  0  0  0  0  0  0
   27.5378  -20.2535   -7.2646 C   0  0  0  0  0  0  0  0  0  0  0  0
   25.8516  -20.3283  -11.1672 C   0  0  0  0  0  0  0  0  0  0  0  0
   25.6008  -19.0976  -11.1571 O   0  0  0  0  0  0  0  0  0  0  0  0
   21.7418  -20.9883  -13.6297 C   0  0  0  0  0  0  0  0  0  0  0  0
   23.0611  -21.5095  -13.1034 C   0  0  2  0  0  0  0  0  0  0  0  0
   22.9417  -22.9824  -12.9416 C   0  0  0  0  0  0  0  0  0  0  0  0
   23.4512  -20.7683  -11.8620 C   0  0  2  0  0  0  0  0  0  0  0  0
   24.7299  -21.1951  -11.3350 N   0  0  0  0  0  0  0  0  0  0  0  0
   22.4033  -20.6879  -10.8273 C   0  0  0  0  0  0  0  0  0  0  0  0
   21.3630  -19.7514  -10.8651 O   0  0  0  0  0  0  0  0  0  0  0  0
   22.3765  -21.4604   -9.8379 O   0  0  0  0  0  0  0  0  0  0  0  0
  2  3  1  0
  2  1  1  6
  4  8  1  0
  4  3  1  0
  5  4  2  0
  6  2  1  0
  7  6  2  0
  9  6  1  0
 10  9  1  0
 11 12  1  0
 10 11  1  1
 12 13  2  0
 13 14  1  0
 15 14  1  0
 16 15  2  0
 17 16  1  0
 18 19  1  0
 18 17  2  0
 19 20  2  0
 20 12  1  0
 20 15  1  0
 21 10  1  0
 21 22  2  0
 24 26  1  0
 24 23  1  1
 25 24  1  0
 26 27  1  1
 27 21  1  0
 28 26  1  0
 29 28  1  0
 30 28  2  0
M  END
$$$$
