DWV.pdb
     RDKit          3D

 30 31  0  0  1  0  0  0  0  0999 V2000
   28.1317  -22.3644  -15.5042 N   0  0  0  0  0  0  0  0  0  0  0  0
   27.9330  -21.1326  -14.7945 C   0  0  1  0  0  0  0  0  0  0  0  0
   27.2964  -20.1274  -15.7088 C   0  0  0  0  0  0  0  0  0  0  0  0
   28.1644  -19.6937  -16.8197 C   0  0  0  0  0  0  0  0  0  0  0  0
   28.1107  -20.3482  -17.9000 O   0  0  0  0  0  0  0  0  0  0  0  0
   27.2744  -21.2867  -13.4960 C   0  0  0  0  0  0  0  0  0  0  0  0
   26.1657  -21.8809  -13.4675 O   0  0  0  0  0  0  0  0  0  0  0  0
   29.0123  -18.6147  -16.7046 O   0  0  0  0  0  0  0  0  0  0  0  0
   27.7805  -20.8202  -12.2612 N   0  0  0  0  0  0  0  0  0  0  0  0
   27.0633  -21.0055  -11.0196 C   0  0  1  0  0  0  0  0  0  0  0  0
   27.8963  -20.6087   -9.8555 C   0  0  0  0  0  0  0  0  0  0  0  0
   27.1560  -20.6775   -8.5755 C   0  0  0  0  0  0  0  0  0  0  0  0
   25.8560  -21.1147   -8.4337 C   0  0  0  0  0  0  0  0  0  0  0  0
   25.5016  -21.0484   -7.1199 N   0  0  0  0  0  0  0  0  0  0  0  0
   26.5324  -20.5809   -6.4017 C   0  0  0  0  0  0  0  0  0  0  0  0
   26.7673  -20.3045   -5.0689 C   0  0  0  0  0  0  0  0  0  0  0  0
   27.9769  -19.8161   -4.6390 C   0  0  0  0  0  0  0  0  0  0  0  0
   29.0128  -19.5793   -5.5178 C   0  0  0  0  0  0  0  0  0  0  0  0
   28.7802  -19.8557   -6.8567 C   0  0  0  0  0  0  0  0  0  0  0  0
   27.5723  -20.3462   -7.3062 C   0  0  0  0  0  0  0  0  0  0  0  0
   25.7913  -20.2503  -11.1153 C   0  0  0  0  0  0  0  0  0  0  0  0
   25.7836  -18.9943  -11.1252 O   0  0  0  0  0  0  0  0  0  0  0  0
   22.5930  -21.1754  -13.5316 C   0  0  0  0  0  0  0  0  0  0  0  0
   22.9632  -19.8934  -12.8186 C   0  0  2  0  0  0  0  0  0  0  0  0
   24.0648  -19.2464  -13.5786 C   0  0  0  0  0  0  0  0  0  0  0  0
   23.2689  -20.1723  -11.3793 C   0  0  2  0  0  0  0  0  0  0  0  0
   24.5158  -20.8854  -11.2010 N   0  0  0  0  0  0  0  0  0  0  0  0
   22.1579  -20.7596  -10.6073 C   0  0  0  0  0  0  0  0  0  0  0  0
   22.2456  -22.0020   -9.9673 O   0  0  0  0  0  0  0  0  0  0  0  0
   21.0531  -20.1785  -10.4731 O   0  0  0  0  0  0  0  0  0  0  0  0
  2  3  1  0
  2  1  1  6
  4  8  1  0
  4  3  1  0
  5  4  2  0
  6  2  1  0
  7  6  2  0
  9  6  1  0
 10  9  1  0
 11 12  1  0
 10 11  1  1
 12 13  2  0
 13 14  1  0
 15 14  1  0
 16 15  2  0
 17 16  1  0
 18 19  1  0
 18 17  2  0
 19 20  2  0
 20 12  1  0
 20 15  1  0
 21 10  1  0
 21 22  2  0
 24 26  1  0
 24 23  1  6
 25 24  1  0
 26 27  1  6
 27 21  1  0
 28 26  1  0
 29 28  1  0
 30 28  2  0
M  END
$$$$
