DWV.pdb
     RDKit          3D

 30 31  0  0  1  0  0  0  0  0999 V2000
   22.3840  -22.6176  -16.9483 N   0  0  0  0  0  0  0  0  0  0  0  0
   22.2253  -21.4967  -16.0658 C   0  0  1  0  0  0  0  0  0  0  0  0
   22.4153  -20.2238  -16.8373 C   0  0  0  0  0  0  0  0  0  0  0  0
   23.5350  -20.2660  -17.7966 C   0  0  0  0  0  0  0  0  0  0  0  0
   24.2474  -21.3100  -17.8257 O   0  0  0  0  0  0  0  0  0  0  0  0
   21.0131  -21.5440  -15.2462 C   0  0  0  0  0  0  0  0  0  0  0  0
   20.7621  -20.5531  -14.5125 O   0  0  0  0  0  0  0  0  0  0  0  0
   23.8122  -19.2142  -18.6412 O   0  0  0  0  0  0  0  0  0  0  0  0
   20.0933  -22.6168  -15.2066 N   0  0  0  0  0  0  0  0  0  0  0  0
   18.8391  -22.5253  -14.4935 C   0  0  1  0  0  0  0  0  0  0  0  0
   17.6933  -22.4344  -15.4344 C   0  0  0  0  0  0  0  0  0  0  0  0
   17.6719  -21.1583  -16.1844 C   0  0  0  0  0  0  0  0  0  0  0  0
   17.3461  -19.9298  -15.6500 C   0  0  0  0  0  0  0  0  0  0  0  0
   17.4367  -18.9798  -16.6224 N   0  0  0  0  0  0  0  0  0  0  0  0
   17.8118  -19.5534  -17.7744 C   0  0  0  0  0  0  0  0  0  0  0  0
   18.0619  -19.1202  -19.0619 C   0  0  0  0  0  0  0  0  0  0  0  0
   18.4443  -19.9923  -20.0516 C   0  0  0  0  0  0  0  0  0  0  0  0
   18.5963  -21.3407  -19.8060 C   0  0  0  0  0  0  0  0  0  0  0  0
   18.3459  -21.7789  -18.5143 C   0  0  0  0  0  0  0  0  0  0  0  0
   17.9611  -20.9178  -17.5083 C   0  0  0  0  0  0  0  0  0  0  0  0
   18.7544  -23.6872  -13.5768 C   0  0  0  0  0  0  0  0  0  0  0  0
   19.1000  -24.8347  -13.9529 O   0  0  0  0  0  0  0  0  0  0  0  0
   17.1232  -23.5574   -9.4165 C   0  0  0  0  0  0  0  0  0  0  0  0
   18.3710  -24.2751   -9.8822 C   0  0  2  0  0  0  0  0  0  0  0  0
   19.5369  -23.3943   -9.6088 C   0  0  0  0  0  0  0  0  0  0  0  0
   18.2212  -24.6975  -11.3111 C   0  0  2  0  0  0  0  0  0  0  0  0
   18.2848  -23.5833  -12.2328 N   0  0  0  0  0  0  0  0  0  0  0  0
   17.0853  -25.5989  -11.5800 C   0  0  0  0  0  0  0  0  0  0  0  0
   17.0421  -26.9264  -11.1363 O   0  0  0  0  0  0  0  0  0  0  0  0
   16.0756  -25.2310  -12.2294 O   0  0  0  0  0  0  0  0  0  0  0  0
  2  3  1  0
  2  1  1  6
  4  8  1  0
  4  3  1  0
  5  4  2  0
  6  2  1  0
  7  6  2  0
  9  6  1  0
 10  9  1  0
 11 12  1  0
 10 11  1  6
 12 13  2  0
 13 14  1  0
 15 14  1  0
 16 15  2  0
 17 16  1  0
 18 19  1  0
 18 17  2  0
 19 20  2  0
 20 12  1  0
 20 15  1  0
 21 10  1  0
 21 22  2  0
 24 26  1  0
 24 23  1  6
 25 24  1  0
 26 27  1  6
 27 21  1  0
 28 26  1  0
 29 28  1  0
 30 28  2  0
M  END
$$$$
