DWV.pdb
     RDKit          3D

 30 31  0  0  1  0  0  0  0  0999 V2000
   28.1063  -21.9415  -15.5858 N   0  0  0  0  0  0  0  0  0  0  0  0
   27.9281  -20.7867  -14.7519 C   0  0  1  0  0  0  0  0  0  0  0  0
   27.2524  -19.7027  -15.5391 C   0  0  0  0  0  0  0  0  0  0  0  0
   28.0698  -19.1656  -16.6433 C   0  0  0  0  0  0  0  0  0  0  0  0
   27.9392  -19.6937  -17.7845 O   0  0  0  0  0  0  0  0  0  0  0  0
   27.3197  -21.0728  -13.4513 C   0  0  0  0  0  0  0  0  0  0  0  0
   26.2870  -21.7914  -13.4322 O   0  0  0  0  0  0  0  0  0  0  0  0
   28.9517  -18.1243  -16.4585 O   0  0  0  0  0  0  0  0  0  0  0  0
   27.7957  -20.6061  -12.2047 N   0  0  0  0  0  0  0  0  0  0  0  0
   27.0904  -20.8641  -10.9694 C   0  0  1  0  0  0  0  0  0  0  0  0
   27.8818  -20.4126   -9.7963 C   0  0  0  0  0  0  0  0  0  0  0  0
   27.1752  -20.6316   -8.5141 C   0  0  0  0  0  0  0  0  0  0  0  0
   25.9518  -21.2529   -8.3788 C   0  0  0  0  0  0  0  0  0  0  0  0
   25.6087  -21.2849   -7.0607 N   0  0  0  0  0  0  0  0  0  0  0  0
   26.5724  -20.7026   -6.3334 C   0  0  0  0  0  0  0  0  0  0  0  0
   26.7833  -20.4441   -4.9931 C   0  0  0  0  0  0  0  0  0  0  0  0
   27.9175  -19.8055   -4.5544 C   0  0  0  0  0  0  0  0  0  0  0  0
   28.8982  -19.3930   -5.4317 C   0  0  0  0  0  0  0  0  0  0  0  0
   28.6896  -19.6510   -6.7782 C   0  0  0  0  0  0  0  0  0  0  0  0
   27.5571  -20.2907   -7.2365 C   0  0  0  0  0  0  0  0  0  0  0  0
   25.7605  -20.2162  -11.0643 C   0  0  0  0  0  0  0  0  0  0  0  0
   25.6487  -18.9651  -11.0626 O   0  0  0  0  0  0  0  0  0  0  0  0
   22.4074  -21.7480  -13.1416 C   0  0  0  0  0  0  0  0  0  0  0  0
   22.7340  -20.3386  -12.6990 C   0  0  2  0  0  0  0  0  0  0  0  0
   23.6680  -19.7492  -13.6940 C   0  0  0  0  0  0  0  0  0  0  0  0
   23.2363  -20.3434  -11.2882 C   0  0  2  0  0  0  0  0  0  0  0  0
   24.5425  -20.9541  -11.1622 N   0  0  0  0  0  0  0  0  0  0  0  0
   22.2745  -20.8364  -10.2845 C   0  0  0  0  0  0  0  0  0  0  0  0
   21.0826  -20.1690   -9.9767 O   0  0  0  0  0  0  0  0  0  0  0  0
   22.4642  -21.8948   -9.6364 O   0  0  0  0  0  0  0  0  0  0  0  0
  2  3  1  0
  2  1  1  6
  4  8  1  0
  4  3  1  0
  5  4  2  0
  6  2  1  0
  7  6  2  0
  9  6  1  0
 10  9  1  0
 11 12  1  0
 10 11  1  1
 12 13  2  0
 13 14  1  0
 15 14  1  0
 16 15  2  0
 17 16  1  0
 18 19  1  0
 18 17  2  0
 19 20  2  0
 20 12  1  0
 20 15  1  0
 21 10  1  0
 21 22  2  0
 24 26  1  0
 24 23  1  6
 25 24  1  0
 26 27  1  6
 27 21  1  0
 28 26  1  0
 29 28  1  0
 30 28  2  0
M  END
$$$$
