DWV.pdb
     RDKit          3D

 30 31  0  0  1  0  0  0  0  0999 V2000
   28.9019  -22.7369  -16.1218 N   0  0  0  0  0  0  0  0  0  0  0  0
   28.6197  -21.4975  -15.4549 C   0  0  1  0  0  0  0  0  0  0  0  0
   28.0523  -20.5187  -16.4405 C   0  0  0  0  0  0  0  0  0  0  0  0
   29.0154  -20.0739  -17.4654 C   0  0  0  0  0  0  0  0  0  0  0  0
   28.6034  -19.9697  -18.6560 O   0  0  0  0  0  0  0  0  0  0  0  0
   27.8489  -21.6422  -14.2186 C   0  0  0  0  0  0  0  0  0  0  0  0
   26.7940  -22.3267  -14.2618 O   0  0  0  0  0  0  0  0  0  0  0  0
   30.3242  -19.7770  -17.1566 O   0  0  0  0  0  0  0  0  0  0  0  0
   28.1899  -21.0732  -12.9702 N   0  0  0  0  0  0  0  0  0  0  0  0
   27.3387  -21.2059  -11.8092 C   0  0  1  0  0  0  0  0  0  0  0  0
   28.0344  -20.7471  -10.5796 C   0  0  0  0  0  0  0  0  0  0  0  0
   27.1116  -20.5677   -9.4362 C   0  0  0  0  0  0  0  0  0  0  0  0
   25.7406  -20.7013   -9.4950 C   0  0  0  0  0  0  0  0  0  0  0  0
   25.2144  -20.4719   -8.2594 N   0  0  0  0  0  0  0  0  0  0  0  0
   26.2023  -20.1927   -7.3975 C   0  0  0  0  0  0  0  0  0  0  0  0
   26.2877  -19.8856   -6.0536 C   0  0  0  0  0  0  0  0  0  0  0  0
   27.4963  -19.6443   -5.4473 C   0  0  0  0  0  0  0  0  0  0  0  0
   28.6804  -19.6976   -6.1520 C   0  0  0  0  0  0  0  0  0  0  0  0
   28.5981  -20.0056   -7.5016 C   0  0  0  0  0  0  0  0  0  0  0  0
   27.3937  -20.2507   -8.1269 C   0  0  0  0  0  0  0  0  0  0  0  0
   26.0828  -20.4672  -12.0826 C   0  0  0  0  0  0  0  0  0  0  0  0
   26.0857  -19.2207  -12.2369 O   0  0  0  0  0  0  0  0  0  0  0  0
   22.7330  -21.9184  -14.2185 C   0  0  0  0  0  0  0  0  0  0  0  0
   23.1550  -20.5032  -13.8900 C   0  0  2  0  0  0  0  0  0  0  0  0
   24.1919  -20.0928  -14.8730 C   0  0  0  0  0  0  0  0  0  0  0  0
   23.5736  -20.4087  -12.4552 C   0  0  2  0  0  0  0  0  0  0  0  0
   24.8119  -21.1087  -12.1872 N   0  0  0  0  0  0  0  0  0  0  0  0
   22.5166  -20.7189  -11.4745 C   0  0  0  0  0  0  0  0  0  0  0  0
   21.4119  -19.8873  -11.2536 O   0  0  0  0  0  0  0  0  0  0  0  0
   22.5395  -21.7573  -10.7690 O   0  0  0  0  0  0  0  0  0  0  0  0
  2  3  1  0
  2  1  1  6
  4  8  1  0
  4  3  1  0
  5  4  2  0
  6  2  1  0
  7  6  2  0
  9  6  1  0
 10  9  1  0
 11 12  1  0
 10 11  1  1
 12 13  2  0
 13 14  1  0
 15 14  1  0
 16 15  2  0
 17 16  1  0
 18 19  1  0
 18 17  2  0
 19 20  2  0
 20 12  1  0
 20 15  1  0
 21 10  1  0
 21 22  2  0
 24 26  1  0
 24 23  1  6
 25 24  1  0
 26 27  1  6
 27 21  1  0
 28 26  1  0
 29 28  1  0
 30 28  2  0
M  END
$$$$
