DWV.pdb
     RDKit          3D

 30 31  0  0  1  0  0  0  0  0999 V2000
   28.3234  -19.8293  -15.7059 N   0  0  0  0  0  0  0  0  0  0  0  0
   26.9833  -19.7706  -16.2170 C   0  0  1  0  0  0  0  0  0  0  0  0
   26.9861  -20.1511  -17.6684 C   0  0  0  0  0  0  0  0  0  0  0  0
   28.2299  -19.7976  -18.3781 C   0  0  0  0  0  0  0  0  0  0  0  0
   28.6792  -20.6207  -19.2260 O   0  0  0  0  0  0  0  0  0  0  0  0
   25.9964  -20.4767  -15.3980 C   0  0  0  0  0  0  0  0  0  0  0  0
   24.8126  -20.5290  -15.8211 O   0  0  0  0  0  0  0  0  0  0  0  0
   28.8951  -18.6156  -18.1398 O   0  0  0  0  0  0  0  0  0  0  0  0
   26.2607  -21.1088  -14.1614 N   0  0  0  0  0  0  0  0  0  0  0  0
   25.2201  -21.7533  -13.3920 C   0  0  1  0  0  0  0  0  0  0  0  0
   25.7717  -22.3767  -12.1617 C   0  0  0  0  0  0  0  0  0  0  0  0
   26.7428  -21.5023  -11.4663 C   0  0  0  0  0  0  0  0  0  0  0  0
   27.9604  -21.1057  -11.9772 C   0  0  0  0  0  0  0  0  0  0  0  0
   28.5868  -20.3034  -11.0715 N   0  0  0  0  0  0  0  0  0  0  0  0
   27.8130  -20.1660   -9.9856 C   0  0  0  0  0  0  0  0  0  0  0  0
   27.9065  -19.4982   -8.7801 C   0  0  0  0  0  0  0  0  0  0  0  0
   26.9032  -19.5614   -7.8443 C   0  0  0  0  0  0  0  0  0  0  0  0
   25.7561  -20.2942   -8.0647 C   0  0  0  0  0  0  0  0  0  0  0  0
   25.6590  -20.9660   -9.2740 C   0  0  0  0  0  0  0  0  0  0  0  0
   26.6563  -20.9139  -10.2251 C   0  0  0  0  0  0  0  0  0  0  0  0
   24.1696  -20.7440  -13.1177 C   0  0  0  0  0  0  0  0  0  0  0  0
   24.4622  -19.6171  -12.6464 O   0  0  0  0  0  0  0  0  0  0  0  0
   20.6601  -20.3518  -15.2554 C   0  0  0  0  0  0  0  0  0  0  0  0
   21.2053  -19.3374  -14.2742 C   0  0  2  0  0  0  0  0  0  0  0  0
   22.1925  -18.4885  -14.9917 C   0  0  0  0  0  0  0  0  0  0  0  0
   21.7357  -20.0295  -13.0567 C   0  0  2  0  0  0  0  0  0  0  0  0
   22.7836  -20.9790  -13.3656 N   0  0  0  0  0  0  0  0  0  0  0  0
   20.7078  -20.5840  -12.1560 C   0  0  0  0  0  0  0  0  0  0  0  0
   20.5586  -21.9562  -11.9206 O   0  0  0  0  0  0  0  0  0  0  0  0
   19.8940  -19.8552  -11.5372 O   0  0  0  0  0  0  0  0  0  0  0  0
  2  3  1  0
  2  1  1  1
  4  8  1  0
  4  3  1  0
  5  4  2  0
  6  2  1  0
  7  6  2  0
  9  6  1  0
 10  9  1  0
 11 12  1  0
 10 11  1  1
 12 13  2  0
 13 14  1  0
 15 14  1  0
 16 15  2  0
 17 16  1  0
 18 19  1  0
 18 17  2  0
 19 20  2  0
 20 12  1  0
 20 15  1  0
 21 10  1  0
 21 22  2  0
 24 26  1  0
 24 23  1  6
 25 24  1  0
 26 27  1  6
 27 21  1  0
 28 26  1  0
 29 28  1  0
 30 28  2  0
M  END
$$$$
