DWV.pdb
     RDKit          3D

 30 31  0  0  1  0  0  0  0  0999 V2000
   22.6303  -11.5103  -19.9638 N   0  0  0  0  0  0  0  0  0  0  0  0
   23.2401  -10.3851  -19.3136 C   0  0  1  0  0  0  0  0  0  0  0  0
   23.8582   -9.4877  -20.3451 C   0  0  0  0  0  0  0  0  0  0  0  0
   24.9176  -10.1329  -21.1432 C   0  0  0  0  0  0  0  0  0  0  0  0
   25.6494  -10.9892  -20.5692 O   0  0  0  0  0  0  0  0  0  0  0  0
   22.3734   -9.7068  -18.3481 C   0  0  0  0  0  0  0  0  0  0  0  0
   21.2268   -9.3590  -18.7322 O   0  0  0  0  0  0  0  0  0  0  0  0
   25.1196   -9.8271  -22.4706 O   0  0  0  0  0  0  0  0  0  0  0  0
   22.7172   -9.4050  -17.0104 N   0  0  0  0  0  0  0  0  0  0  0  0
   21.7514   -8.8832  -16.0696 C   0  0  1  0  0  0  0  0  0  0  0  0
   21.5334   -9.8293  -14.9455 C   0  0  0  0  0  0  0  0  0  0  0  0
   20.7276  -11.0068  -15.3400 C   0  0  0  0  0  0  0  0  0  0  0  0
   21.2171  -12.2861  -15.4974 C   0  0  0  0  0  0  0  0  0  0  0  0
   20.1980  -13.1147  -15.8590 N   0  0  0  0  0  0  0  0  0  0  0  0
   19.0590  -12.4128  -15.9419 C   0  0  0  0  0  0  0  0  0  0  0  0
   17.7426  -12.6928  -16.2529 C   0  0  0  0  0  0  0  0  0  0  0  0
   16.7792  -11.7139  -16.2467 C   0  0  0  0  0  0  0  0  0  0  0  0
   17.0814  -10.4063  -15.9298 C   0  0  0  0  0  0  0  0  0  0  0  0
   18.4021  -10.1218  -15.6172 C   0  0  0  0  0  0  0  0  0  0  0  0
   19.3824  -11.0917  -15.6184 C   0  0  0  0  0  0  0  0  0  0  0  0
   22.2240   -7.5488  -15.6299 C   0  0  0  0  0  0  0  0  0  0  0  0
   23.4351   -7.3459  -15.3659 O   0  0  0  0  0  0  0  0  0  0  0  0
   21.5726   -4.1454  -17.2773 C   0  0  0  0  0  0  0  0  0  0  0  0
   21.1942   -4.0044  -15.8192 C   0  0  2  0  0  0  0  0  0  0  0  0
   21.5862   -2.6419  -15.3723 C   0  0  0  0  0  0  0  0  0  0  0  0
   21.7864   -5.1247  -15.0211 C   0  0  2  0  0  0  0  0  0  0  0  0
   21.3535   -6.4274  -15.4799 N   0  0  0  0  0  0  0  0  0  0  0  0
   21.6856   -4.9704  -13.5578 C   0  0  0  0  0  0  0  0  0  0  0  0
   22.6023   -4.2280  -12.8033 O   0  0  0  0  0  0  0  0  0  0  0  0
   20.7637   -5.4989  -12.8891 O   0  0  0  0  0  0  0  0  0  0  0  0
  2  3  1  0
  2  1  1  6
  4  8  1  0
  4  3  1  0
  5  4  2  0
  6  2  1  0
  7  6  2  0
  9  6  1  0
 10  9  1  0
 11 12  1  0
 10 11  1  1
 12 13  2  0
 13 14  1  0
 15 14  1  0
 16 15  2  0
 17 16  1  0
 18 19  1  0
 18 17  2  0
 19 20  2  0
 20 12  1  0
 20 15  1  0
 21 10  1  0
 21 22  2  0
 24 26  1  0
 24 23  1  6
 25 24  1  0
 26 27  1  6
 27 21  1  0
 28 26  1  0
 29 28  1  0
 30 28  2  0
M  END
$$$$
