DWV.pdb
     RDKit          3D

 30 31  0  0  1  0  0  0  0  0999 V2000
   50.5877   20.9934  -66.9604 N   0  0  0  0  0  0  0  0  0  0  0  0
   51.0682   19.8112  -67.6177 C   0  0  1  0  0  0  0  0  0  0  0  0
   50.5749   18.5980  -66.8854 C   0  0  0  0  0  0  0  0  0  0  0  0
   51.0268   18.5194  -65.4835 C   0  0  0  0  0  0  0  0  0  0  0  0
   51.3606   19.5956  -64.9104 O   0  0  0  0  0  0  0  0  0  0  0  0
   50.8390   19.7924  -69.0636 C   0  0  0  0  0  0  0  0  0  0  0  0
   51.4496   18.9271  -69.7430 O   0  0  0  0  0  0  0  0  0  0  0  0
   51.0904   17.3236  -64.8035 O   0  0  0  0  0  0  0  0  0  0  0  0
   49.9847   20.6710  -69.7683 N   0  0  0  0  0  0  0  0  0  0  0  0
   49.7231   22.0172  -69.3107 C   0  0  1  0  0  0  0  0  0  0  0  0
   49.6938   22.9732  -70.4472 C   0  0  0  0  0  0  0  0  0  0  0  0
   50.7595   23.9967  -70.3583 C   0  0  0  0  0  0  0  0  0  0  0  0
   50.8128   25.0067  -69.4212 C   0  0  0  0  0  0  0  0  0  0  0  0
   51.9303   25.7566  -69.6335 N   0  0  0  0  0  0  0  0  0  0  0  0
   52.6064   25.2648  -70.6813 C   0  0  0  0  0  0  0  0  0  0  0  0
   53.7718   25.5877  -71.3487 C   0  0  0  0  0  0  0  0  0  0  0  0
   54.2082   24.8568  -72.4267 C   0  0  0  0  0  0  0  0  0  0  0  0
   53.5033   23.7670  -72.8924 C   0  0  0  0  0  0  0  0  0  0  0  0
   52.3328   23.4402  -72.2245 C   0  0  0  0  0  0  0  0  0  0  0  0
   51.8795   24.1625  -71.1408 C   0  0  0  0  0  0  0  0  0  0  0  0
   48.4620   21.9930  -68.5319 C   0  0  0  0  0  0  0  0  0  0  0  0
   47.9769   23.0478  -68.0528 O   0  0  0  0  0  0  0  0  0  0  0  0
   45.2317   21.5731  -66.1851 C   0  0  0  0  0  0  0  0  0  0  0  0
   46.7443   21.5528  -66.1654 C   0  0  2  0  0  0  0  0  0  0  0  0
   47.2277   22.8871  -66.6081 C   0  0  0  0  0  0  0  0  0  0  0  0
   47.2561   20.3980  -66.9699 C   0  0  2  0  0  0  0  0  0  0  0  0
   47.7285   20.7947  -68.2793 N   0  0  0  0  0  0  0  0  0  0  0  0
   46.3645   19.2239  -67.0142 C   0  0  0  0  0  0  0  0  0  0  0  0
   44.9769   19.3121  -66.8483 O   0  0  0  0  0  0  0  0  0  0  0  0
   46.7960   18.0604  -67.2053 O   0  0  0  0  0  0  0  0  0  0  0  0
  2  3  1  0
  2  1  1  1
  4  8  1  0
  4  3  1  0
  5  4  2  0
  6  2  1  0
  7  6  2  0
  9  6  1  0
 10  9  1  0
 11 12  1  0
 10 11  1  6
 12 13  2  0
 13 14  1  0
 15 14  1  0
 16 15  2  0
 17 16  1  0
 18 19  1  0
 18 17  2  0
 19 20  2  0
 20 12  1  0
 20 15  1  0
 21 10  1  0
 21 22  2  0
 24 26  1  0
 24 23  1  6
 25 24  1  0
 26 27  1  6
 27 21  1  0
 28 26  1  0
 29 28  1  0
 30 28  2  0
M  END
$$$$
