DWV.pdb
     RDKit          3D

 30 31  0  0  1  0  0  0  0  0999 V2000
   28.1675  -21.6935  -15.3791 N   0  0  0  0  0  0  0  0  0  0  0  0
   28.0318  -20.5701  -14.4960 C   0  0  1  0  0  0  0  0  0  0  0  0
   27.3778  -19.4358  -15.2288 C   0  0  0  0  0  0  0  0  0  0  0  0
   28.3162  -18.6036  -16.0050 C   0  0  0  0  0  0  0  0  0  0  0  0
   29.1915  -19.1940  -16.7002 O   0  0  0  0  0  0  0  0  0  0  0  0
   27.4310  -20.8932  -13.2006 C   0  0  0  0  0  0  0  0  0  0  0  0
   26.3844  -21.5916  -13.1972 O   0  0  0  0  0  0  0  0  0  0  0  0
   28.2579  -17.2278  -15.9869 O   0  0  0  0  0  0  0  0  0  0  0  0
   27.9288  -20.4833  -11.9425 N   0  0  0  0  0  0  0  0  0  0  0  0
   27.2373  -20.7848  -10.7092 C   0  0  1  0  0  0  0  0  0  0  0  0
   27.9989  -20.2907   -9.5335 C   0  0  0  0  0  0  0  0  0  0  0  0
   27.3025  -20.5509   -8.2534 C   0  0  0  0  0  0  0  0  0  0  0  0
   26.0782  -21.1726   -8.1287 C   0  0  0  0  0  0  0  0  0  0  0  0
   25.7461  -21.2482   -6.8095 N   0  0  0  0  0  0  0  0  0  0  0  0
   26.7180  -20.6939   -6.0713 C   0  0  0  0  0  0  0  0  0  0  0  0
   26.9410  -20.4816   -4.7248 C   0  0  0  0  0  0  0  0  0  0  0  0
   28.0810  -19.8619   -4.2746 C   0  0  0  0  0  0  0  0  0  0  0  0
   29.0557  -19.4229   -5.1457 C   0  0  0  0  0  0  0  0  0  0  0  0
   28.8348  -19.6344   -6.4983 C   0  0  0  0  0  0  0  0  0  0  0  0
   27.6963  -20.2547   -6.9683 C   0  0  0  0  0  0  0  0  0  0  0  0
   25.8722  -20.2151  -10.8054 C   0  0  0  0  0  0  0  0  0  0  0  0
   25.6880  -18.9726  -10.8044 O   0  0  0  0  0  0  0  0  0  0  0  0
   21.7562  -20.3117  -13.1548 C   0  0  0  0  0  0  0  0  0  0  0  0
   23.0726  -20.9286  -12.7361 C   0  0  2  0  0  0  0  0  0  0  0  0
   22.9850  -22.3955  -12.9609 C   0  0  0  0  0  0  0  0  0  0  0  0
   23.4099  -20.5245  -11.3341 C   0  0  2  0  0  0  0  0  0  0  0  0
   24.6991  -21.0224  -10.9038 N   0  0  0  0  0  0  0  0  0  0  0  0
   22.3444  -20.7617  -10.3423 C   0  0  0  0  0  0  0  0  0  0  0  0
   21.1454  -20.0386  -10.3220 O   0  0  0  0  0  0  0  0  0  0  0  0
   22.4447  -21.6344   -9.4453 O   0  0  0  0  0  0  0  0  0  0  0  0
  2  3  1  0
  2  1  1  6
  4  8  1  0
  4  3  1  0
  5  4  2  0
  6  2  1  0
  7  6  2  0
  9  6  1  0
 10  9  1  0
 11 12  1  0
 10 11  1  1
 12 13  2  0
 13 14  1  0
 15 14  1  0
 16 15  2  0
 17 16  1  0
 18 19  1  0
 18 17  2  0
 19 20  2  0
 20 12  1  0
 20 15  1  0
 21 10  1  0
 21 22  2  0
 24 26  1  0
 24 23  1  1
 25 24  1  0
 26 27  1  1
 27 21  1  0
 28 26  1  0
 29 28  1  0
 30 28  2  0
M  END
$$$$
