DWV.pdb
     RDKit          3D

 30 31  0  0  1  0  0  0  0  0999 V2000
   28.5860  -22.0054  -15.3662 N   0  0  0  0  0  0  0  0  0  0  0  0
   28.2442  -20.8453  -14.5929 C   0  0  1  0  0  0  0  0  0  0  0  0
   27.4972  -19.8723  -15.4570 C   0  0  0  0  0  0  0  0  0  0  0  0
   28.2682  -19.3865  -16.6169 C   0  0  0  0  0  0  0  0  0  0  0  0
   27.7265  -19.4585  -17.7569 O   0  0  0  0  0  0  0  0  0  0  0  0
   27.6054  -21.1450  -13.3102 C   0  0  0  0  0  0  0  0  0  0  0  0
   26.5907  -21.8890  -13.3199 O   0  0  0  0  0  0  0  0  0  0  0  0
   29.5372  -18.8683  -16.4842 O   0  0  0  0  0  0  0  0  0  0  0  0
   28.0331  -20.6653  -12.0510 N   0  0  0  0  0  0  0  0  0  0  0  0
   27.2810  -20.9115  -10.8411 C   0  0  1  0  0  0  0  0  0  0  0  0
   28.0165  -20.4267   -9.6451 C   0  0  0  0  0  0  0  0  0  0  0  0
   27.2224  -20.5444   -8.4015 C   0  0  0  0  0  0  0  0  0  0  0  0
   25.8982  -20.9232   -8.3390 C   0  0  0  0  0  0  0  0  0  0  0  0
   25.4942  -20.9283   -7.0378 N   0  0  0  0  0  0  0  0  0  0  0  0
   26.5164  -20.5638   -6.2509 C   0  0  0  0  0  0  0  0  0  0  0  0
   26.7100  -20.3908   -4.8943 C   0  0  0  0  0  0  0  0  0  0  0  0
   27.9234  -19.9952   -4.3866 C   0  0  0  0  0  0  0  0  0  0  0  0
   29.0044  -19.7524   -5.2076 C   0  0  0  0  0  0  0  0  0  0  0  0
   28.8133  -19.9251   -6.5702 C   0  0  0  0  0  0  0  0  0  0  0  0
   27.6023  -20.3216   -7.0975 C   0  0  0  0  0  0  0  0  0  0  0  0
   25.9469  -20.2856  -11.0028 C   0  0  0  0  0  0  0  0  0  0  0  0
   25.8328  -19.0569  -11.2373 O   0  0  0  0  0  0  0  0  0  0  0  0
   22.0311  -20.2525  -13.4291 C   0  0  0  0  0  0  0  0  0  0  0  0
   23.3241  -20.8401  -12.9077 C   0  0  2  0  0  0  0  0  0  0  0  0
   23.3578  -22.2791  -13.2792 C   0  0  0  0  0  0  0  0  0  0  0  0
   23.4635  -20.5636  -11.4425 C   0  0  2  0  0  0  0  0  0  0  0  0
   24.7274  -21.0209  -10.9053 N   0  0  0  0  0  0  0  0  0  0  0  0
   22.3102  -20.9698  -10.6178 C   0  0  0  0  0  0  0  0  0  0  0  0
   22.4283  -21.7976   -9.4946 O   0  0  0  0  0  0  0  0  0  0  0  0
   21.1387  -20.5963  -10.8720 O   0  0  0  0  0  0  0  0  0  0  0  0
  2  3  1  0
  2  1  1  6
  4  8  1  0
  4  3  1  0
  5  4  2  0
  6  2  1  0
  7  6  2  0
  9  6  1  0
 10  9  1  0
 11 12  1  0
 10 11  1  1
 12 13  2  0
 13 14  1  0
 15 14  1  0
 16 15  2  0
 17 16  1  0
 18 19  1  0
 18 17  2  0
 19 20  2  0
 20 12  1  0
 20 15  1  0
 21 10  1  0
 21 22  2  0
 24 26  1  0
 24 23  1  1
 25 24  1  0
 26 27  1  1
 27 21  1  0
 28 26  1  0
 29 28  1  0
 30 28  2  0
M  END
$$$$
