DWV.pdb
     RDKit          3D

 30 31  0  0  1  0  0  0  0  0999 V2000
   28.0975  -21.9451  -17.0137 N   0  0  0  0  0  0  0  0  0  0  0  0
   27.8373  -20.8159  -16.1666 C   0  0  1  0  0  0  0  0  0  0  0  0
   27.2088  -19.7197  -16.9758 C   0  0  0  0  0  0  0  0  0  0  0  0
   28.0443  -19.2474  -18.0959 C   0  0  0  0  0  0  0  0  0  0  0  0
   29.2985  -19.2491  -17.9375 O   0  0  0  0  0  0  0  0  0  0  0  0
   27.1336  -21.1452  -14.9257 C   0  0  0  0  0  0  0  0  0  0  0  0
   26.1947  -21.9805  -14.9877 O   0  0  0  0  0  0  0  0  0  0  0  0
   27.4964  -18.8149  -19.2829 O   0  0  0  0  0  0  0  0  0  0  0  0
   27.4195  -20.5997  -13.6532 N   0  0  0  0  0  0  0  0  0  0  0  0
   26.6320  -20.9248  -12.4851 C   0  0  1  0  0  0  0  0  0  0  0  0
   27.3347  -20.5283  -11.2380 C   0  0  0  0  0  0  0  0  0  0  0  0
   26.4900  -20.6880  -10.0329 C   0  0  0  0  0  0  0  0  0  0  0  0
   25.3663  -21.4827   -9.9517 C   0  0  0  0  0  0  0  0  0  0  0  0
   24.8440  -21.3937   -8.6965 N   0  0  0  0  0  0  0  0  0  0  0  0
   25.5944  -20.5642   -7.9577 C   0  0  0  0  0  0  0  0  0  0  0  0
   25.5675  -20.0950   -6.6589 C   0  0  0  0  0  0  0  0  0  0  0  0
   26.5181  -19.2209   -6.1911 C   0  0  0  0  0  0  0  0  0  0  0  0
   27.5433  -18.7712   -6.9963 C   0  0  0  0  0  0  0  0  0  0  0  0
   27.5731  -19.2403   -8.3010 C   0  0  0  0  0  0  0  0  0  0  0  0
   26.6273  -20.1180   -8.7877 C   0  0  0  0  0  0  0  0  0  0  0  0
   25.3056  -20.2814  -12.6409 C   0  0  0  0  0  0  0  0  0  0  0  0
   25.2069  -19.0553  -12.8945 O   0  0  0  0  0  0  0  0  0  0  0  0
   20.9692  -19.8762  -14.3382 C   0  0  0  0  0  0  0  0  0  0  0  0
   22.2863  -20.5944  -14.1425 C   0  0  2  0  0  0  0  0  0  0  0  0
   22.1042  -22.0099  -14.5585 C   0  0  0  0  0  0  0  0  0  0  0  0
   22.7732  -20.4073  -12.7387 C   0  0  2  0  0  0  0  0  0  0  0  0
   24.0764  -20.9965  -12.5161 N   0  0  0  0  0  0  0  0  0  0  0  0
   21.7993  -20.7576  -11.6879 C   0  0  0  0  0  0  0  0  0  0  0  0
   20.8092  -19.8749  -11.2395 O   0  0  0  0  0  0  0  0  0  0  0  0
   21.7955  -21.8791  -11.1234 O   0  0  0  0  0  0  0  0  0  0  0  0
  2  3  1  0
  2  1  1  6
  4  8  1  0
  4  3  1  0
  5  4  2  0
  6  2  1  0
  7  6  2  0
  9  6  1  0
 10  9  1  0
 11 12  1  0
 10 11  1  1
 12 13  2  0
 13 14  1  0
 15 14  1  0
 16 15  2  0
 17 16  1  0
 18 19  1  0
 18 17  2  0
 19 20  2  0
 20 12  1  0
 20 15  1  0
 21 10  1  0
 21 22  2  0
 24 26  1  0
 24 23  1  1
 25 24  1  0
 26 27  1  1
 27 21  1  0
 28 26  1  0
 29 28  1  0
 30 28  2  0
M  END
$$$$
