EWQ.pdb
     RDKit          3D

 33 34  0  0  1  0  0  0  0  0999 V2000
    9.2022  -17.9572   19.2820 N   0  0  0  0  0  0  0  0  0  0  0  0
    9.9448  -16.7011   19.2739 C   0  0  1  0  0  0  0  0  0  0  0  0
    9.5746  -15.8577   18.1031 C   0  0  0  0  0  0  0  0  0  0  0  0
    9.5912  -16.5420   16.7782 C   0  0  0  0  0  0  0  0  0  0  0  0
    9.1344  -15.5381   15.7634 C   0  0  0  0  0  0  0  0  0  0  0  0
    8.8455  -14.3935   16.1556 O   0  0  0  0  0  0  0  0  0  0  0  0
    9.7691  -16.0644   20.5835 C   0  0  0  0  0  0  0  0  0  0  0  0
   10.4251  -15.0338   20.9208 O   0  0  0  0  0  0  0  0  0  0  0  0
    9.0217  -15.8260   14.4277 O   0  0  0  0  0  0  0  0  0  0  0  0
    8.8568  -16.5453   21.5744 N   0  0  0  0  0  0  0  0  0  0  0  0
    8.7269  -15.9599   22.8856 C   0  0  1  0  0  0  0  0  0  0  0  0
    7.4381  -16.5239   23.4873 C   0  0  0  0  0  0  0  0  0  0  0  0
    6.8538  -15.5659   24.4634 C   0  0  0  0  0  0  0  0  0  0  0  0
    5.7740  -15.7636   25.3064 C   0  0  0  0  0  0  0  0  0  0  0  0
    5.5612  -14.6433   26.0354 N   0  0  0  0  0  0  0  0  0  0  0  0
    6.4698  -13.7085   25.6992 C   0  0  0  0  0  0  0  0  0  0  0  0
    6.6663  -12.4207   26.1535 C   0  0  0  0  0  0  0  0  0  0  0  0
    7.7044  -11.7114   25.5955 C   0  0  0  0  0  0  0  0  0  0  0  0
    8.5230  -12.2667   24.6144 C   0  0  0  0  0  0  0  0  0  0  0  0
    8.3099  -13.5499   24.1767 C   0  0  0  0  0  0  0  0  0  0  0  0
    7.2794  -14.2776   24.7190 C   0  0  0  0  0  0  0  0  0  0  0  0
    9.8808  -16.3322   23.7490 C   0  0  0  0  0  0  0  0  0  0  0  0
   10.7194  -17.1686   23.3272 O   0  0  0  0  0  0  0  0  0  0  0  0
   10.0759  -14.9621   29.7104 N   0  0  0  0  0  0  0  0  0  0  0  0
   11.3526  -15.5867   29.6456 C   0  0  0  0  0  0  0  0  0  0  0  0
   11.9328  -15.8664   30.7129 O   0  0  0  0  0  0  0  0  0  0  0  0
   11.8857  -15.8522   28.2881 C   0  0  0  0  0  0  0  0  0  0  0  0
   10.9779  -15.4441   27.1802 C   0  0  0  0  0  0  0  0  0  0  0  0
   11.1332  -16.2383   25.9074 C   0  0  2  0  0  0  0  0  0  0  0  0
   10.0534  -15.7696   25.0251 N   0  0  0  0  0  0  0  0  0  0  0  0
   10.9393  -17.6913   26.1102 C   0  0  0  0  0  0  0  0  0  0  0  0
    9.7904  -18.1728   26.2206 O   0  0  0  0  0  0  0  0  0  0  0  0
   12.0205  -18.5494   26.1825 O   0  0  0  0  0  0  0  0  0  0  0  0
  2  1  1  1
  2  3  1  0
  3  4  1  0
  4  5  1  0
  5  6  2  0
  7  8  2  0
  7  2  1  0
  9  5  1  0
 10  7  1  0
 11 10  1  0
 11 12  1  1
 12 13  1  0
 13 14  2  0
 13 21  1  0
 14 15  1  0
 15 16  1  0
 16 17  2  0
 18 17  1  0
 19 18  2  0
 20 21  2  0
 20 19  1  0
 21 16  1  0
 22 11  1  0
 23 22  2  0
 24 25  1  0
 25 26  2  0
 25 27  1  0
 27 28  1  0
 29 28  1  1
 29 30  1  0
 30 22  1  0
 31 33  1  0
 31 29  1  0
 32 31  2  0
M  END
$$$$
