EWQ.pdb
     RDKit          3D

 33 34  0  0  1  0  0  0  0  0999 V2000
    9.2145  -18.8239   21.5659 N   0  0  0  0  0  0  0  0  0  0  0  0
   10.4952  -18.3338   22.0650 C   0  0  1  0  0  0  0  0  0  0  0  0
   11.2329  -17.5743   21.0172 C   0  0  0  0  0  0  0  0  0  0  0  0
   10.4240  -17.1311   19.8453 C   0  0  0  0  0  0  0  0  0  0  0  0
   11.3738  -16.4961   18.8752 C   0  0  0  0  0  0  0  0  0  0  0  0
   12.5754  -16.4233   19.1891 O   0  0  0  0  0  0  0  0  0  0  0  0
   10.2435  -17.5990   23.3091 C   0  0  0  0  0  0  0  0  0  0  0  0
   11.1456  -16.9127   23.8761 O   0  0  0  0  0  0  0  0  0  0  0  0
   10.9770  -15.9945   17.6626 O   0  0  0  0  0  0  0  0  0  0  0  0
    8.9786  -17.5949   23.9766 N   0  0  0  0  0  0  0  0  0  0  0  0
    8.7459  -16.9289   25.2339 C   0  0  1  0  0  0  0  0  0  0  0  0
    7.3232  -16.3692   25.1723 C   0  0  0  0  0  0  0  0  0  0  0  0
    7.3101  -15.0481   24.4892 C   0  0  0  0  0  0  0  0  0  0  0  0
    7.4875  -14.7859   23.1418 C   0  0  0  0  0  0  0  0  0  0  0  0
    7.4058  -13.4519   22.9284 N   0  0  0  0  0  0  0  0  0  0  0  0
    7.1790  -12.8225   24.0967 C   0  0  0  0  0  0  0  0  0  0  0  0
    7.0208  -11.4856   24.3983 C   0  0  0  0  0  0  0  0  0  0  0  0
    6.7977  -11.1632   25.7167 C   0  0  0  0  0  0  0  0  0  0  0  0
    6.7340  -12.1418   26.7063 C   0  0  0  0  0  0  0  0  0  0  0  0
    6.8942  -13.4664   26.3844 C   0  0  0  0  0  0  0  0  0  0  0  0
    7.1181  -13.8126   25.0746 C   0  0  0  0  0  0  0  0  0  0  0  0
    8.8525  -17.8863   26.3686 C   0  0  0  0  0  0  0  0  0  0  0  0
    8.2016  -18.9612   26.3290 O   0  0  0  0  0  0  0  0  0  0  0  0
   12.5533  -21.3144   26.0787 N   0  0  0  0  0  0  0  0  0  0  0  0
   13.2196  -20.1681   26.5944 C   0  0  0  0  0  0  0  0  0  0  0  0
   14.4391  -20.0382   26.3711 O   0  0  0  0  0  0  0  0  0  0  0  0
   12.3858  -19.2151   27.3652 C   0  0  0  0  0  0  0  0  0  0  0  0
   10.9518  -19.6022   27.4754 C   0  0  0  0  0  0  0  0  0  0  0  0
   10.1189  -18.7069   28.3583 C   0  0  2  0  0  0  0  0  0  0  0  0
    9.6646  -17.6153   27.4830 N   0  0  0  0  0  0  0  0  0  0  0  0
   10.9002  -18.0967   29.4571 C   0  0  0  0  0  0  0  0  0  0  0  0
   11.2999  -16.9145   29.3761 O   0  0  0  0  0  0  0  0  0  0  0  0
   11.2065  -18.8167   30.5965 O   0  0  0  0  0  0  0  0  0  0  0  0
  2  1  1  6
  2  3  1  0
  3  4  1  0
  4  5  1  0
  5  6  2  0
  7  8  2  0
  7  2  1  0
  9  5  1  0
 10  7  1  0
 11 10  1  0
 11 12  1  6
 12 13  1  0
 13 14  2  0
 13 21  1  0
 14 15  1  0
 15 16  1  0
 16 17  2  0
 18 17  1  0
 19 18  2  0
 20 21  2  0
 20 19  1  0
 21 16  1  0
 22 11  1  0
 23 22  2  0
 24 25  1  0
 25 26  2  0
 25 27  1  0
 27 28  1  0
 29 28  1  6
 29 30  1  0
 30 22  1  0
 31 33  1  0
 31 29  1  0
 32 31  2  0
M  END
$$$$
