EWQ.pdb
     RDKit          3D

 33 34  0  0  1  0  0  0  0  0999 V2000
    7.7243  -14.4668   19.8541 N   0  0  0  0  0  0  0  0  0  0  0  0
    8.1651  -15.6617   20.5664 C   0  0  1  0  0  0  0  0  0  0  0  0
    8.9577  -16.5610   19.6820 C   0  0  0  0  0  0  0  0  0  0  0  0
    8.2120  -17.1792   18.5480 C   0  0  0  0  0  0  0  0  0  0  0  0
    8.0035  -18.6215   18.8982 C   0  0  0  0  0  0  0  0  0  0  0  0
    7.3412  -19.3276   18.1170 O   0  0  0  0  0  0  0  0  0  0  0  0
    8.8462  -15.2311   21.7919 C   0  0  0  0  0  0  0  0  0  0  0  0
    9.4565  -14.1228   21.8652 O   0  0  0  0  0  0  0  0  0  0  0  0
    8.5088  -19.1931   20.0373 O   0  0  0  0  0  0  0  0  0  0  0  0
    8.8782  -16.0135   22.9888 N   0  0  0  0  0  0  0  0  0  0  0  0
    9.4374  -15.5421   24.2313 C   0  0  1  0  0  0  0  0  0  0  0  0
    8.4518  -15.9427   25.3309 C   0  0  0  0  0  0  0  0  0  0  0  0
    7.3381  -14.9608   25.4180 C   0  0  0  0  0  0  0  0  0  0  0  0
    6.0539  -15.0851   24.9169 C   0  0  0  0  0  0  0  0  0  0  0  0
    5.3477  -13.9675   25.2065 N   0  0  0  0  0  0  0  0  0  0  0  0
    6.1278  -13.1058   25.8858 C   0  0  0  0  0  0  0  0  0  0  0  0
    5.8722  -11.8499   26.3964 C   0  0  0  0  0  0  0  0  0  0  0  0
    6.9034  -11.2189   27.0525 C   0  0  0  0  0  0  0  0  0  0  0  0
    8.1523  -11.8193   27.1963 C   0  0  0  0  0  0  0  0  0  0  0  0
    8.3853  -13.0697   26.6805 C   0  0  0  0  0  0  0  0  0  0  0  0
    7.3710  -13.7194   26.0213 C   0  0  0  0  0  0  0  0  0  0  0  0
   10.7573  -16.1783   24.4937 C   0  0  0  0  0  0  0  0  0  0  0  0
   11.2432  -16.1304   25.6523 O   0  0  0  0  0  0  0  0  0  0  0  0
   11.8575  -21.5304   24.5146 N   0  0  0  0  0  0  0  0  0  0  0  0
   11.3073  -21.0022   23.3136 C   0  0  0  0  0  0  0  0  0  0  0  0
   10.6017  -21.7464   22.6048 O   0  0  0  0  0  0  0  0  0  0  0  0
   11.6304  -19.5877   23.0096 C   0  0  0  0  0  0  0  0  0  0  0  0
   12.4534  -18.9080   24.0483 C   0  0  0  0  0  0  0  0  0  0  0  0
   12.7702  -17.4617   23.7607 C   0  0  2  0  0  0  0  0  0  0  0  0
   11.4721  -16.8312   23.4750 N   0  0  0  0  0  0  0  0  0  0  0  0
   13.6198  -17.2877   22.5616 C   0  0  0  0  0  0  0  0  0  0  0  0
   14.8111  -17.6682   22.5626 O   0  0  0  0  0  0  0  0  0  0  0  0
   13.1187  -16.7017   21.4144 O   0  0  0  0  0  0  0  0  0  0  0  0
  2  1  1  6
  2  3  1  0
  3  4  1  0
  4  5  1  0
  5  6  2  0
  7  8  2  0
  7  2  1  0
  9  5  1  0
 10  7  1  0
 11 10  1  0
 11 12  1  1
 12 13  1  0
 13 14  2  0
 13 21  1  0
 14 15  1  0
 15 16  1  0
 16 17  2  0
 18 17  1  0
 19 18  2  0
 20 21  2  0
 20 19  1  0
 21 16  1  0
 22 11  1  0
 23 22  2  0
 24 25  1  0
 25 26  2  0
 25 27  1  0
 27 28  1  0
 29 28  1  6
 29 30  1  0
 30 22  1  0
 31 33  1  0
 31 29  1  0
 32 31  2  0
M  END
$$$$
