EWQ.pdb
     RDKit          3D

 33 34  0  0  1  0  0  0  0  0999 V2000
    9.2002  -18.4596   21.3769 N   0  0  0  0  0  0  0  0  0  0  0  0
   10.5504  -17.9455   21.5822 C   0  0  1  0  0  0  0  0  0  0  0  0
   10.9541  -17.0230   20.4845 C   0  0  0  0  0  0  0  0  0  0  0  0
   10.8542  -17.5745   19.1025 C   0  0  0  0  0  0  0  0  0  0  0  0
   11.2761  -16.4831   18.1661 C   0  0  0  0  0  0  0  0  0  0  0  0
   12.4045  -16.5554   17.6472 O   0  0  0  0  0  0  0  0  0  0  0  0
   10.6164  -17.3769   22.9326 C   0  0  0  0  0  0  0  0  0  0  0  0
   11.6387  -16.7533   23.3478 O   0  0  0  0  0  0  0  0  0  0  0  0
   10.4757  -15.4134   17.8583 O   0  0  0  0  0  0  0  0  0  0  0  0
    9.5493  -17.4766   23.8797 N   0  0  0  0  0  0  0  0  0  0  0  0
    9.6462  -17.0043   25.2384 C   0  0  1  0  0  0  0  0  0  0  0  0
    8.2201  -16.6814   25.6889 C   0  0  0  0  0  0  0  0  0  0  0  0
    7.7261  -15.4494   25.0178 C   0  0  0  0  0  0  0  0  0  0  0  0
    7.2378  -15.3208   23.7291 C   0  0  0  0  0  0  0  0  0  0  0  0
    6.8943  -14.0311   23.5047 N   0  0  0  0  0  0  0  0  0  0  0  0
    7.1411  -13.3012   24.6087 C   0  0  0  0  0  0  0  0  0  0  0  0
    6.9630  -11.9593   24.8751 C   0  0  0  0  0  0  0  0  0  0  0  0
    7.3212  -11.5166   26.1272 C   0  0  0  0  0  0  0  0  0  0  0  0
    7.8415  -12.3830   27.0862 C   0  0  0  0  0  0  0  0  0  0  0  0
    8.0105  -13.7147   26.8001 C   0  0  0  0  0  0  0  0  0  0  0  0
    7.6601  -14.1800   25.5567 C   0  0  0  0  0  0  0  0  0  0  0  0
   10.2197  -18.0538   26.1247 C   0  0  0  0  0  0  0  0  0  0  0  0
    9.9758  -19.2632   25.8826 O   0  0  0  0  0  0  0  0  0  0  0  0
   15.5321  -17.9146   30.6517 N   0  0  0  0  0  0  0  0  0  0  0  0
   15.0417  -18.7924   29.6452 C   0  0  0  0  0  0  0  0  0  0  0  0
   15.8561  -19.2971   28.8477 O   0  0  0  0  0  0  0  0  0  0  0  0
   13.5785  -19.0304   29.6373 C   0  0  0  0  0  0  0  0  0  0  0  0
   12.8153  -18.1379   28.7213 C   0  0  0  0  0  0  0  0  0  0  0  0
   11.6203  -18.7788   28.0608 C   0  0  2  0  0  0  0  0  0  0  0  0
   11.0275  -17.7226   27.2258 N   0  0  0  0  0  0  0  0  0  0  0  0
   10.5885  -19.2064   29.0317 C   0  0  0  0  0  0  0  0  0  0  0  0
   10.7991  -20.1654   29.8062 O   0  0  0  0  0  0  0  0  0  0  0  0
    9.3701  -18.5579   29.1058 O   0  0  0  0  0  0  0  0  0  0  0  0
  2  1  1  6
  2  3  1  0
  3  4  1  0
  4  5  1  0
  5  6  2  0
  7  8  2  0
  7  2  1  0
  9  5  1  0
 10  7  1  0
 11 10  1  0
 11 12  1  1
 12 13  1  0
 13 14  2  0
 13 21  1  0
 14 15  1  0
 15 16  1  0
 16 17  2  0
 18 17  1  0
 19 18  2  0
 20 21  2  0
 20 19  1  0
 21 16  1  0
 22 11  1  0
 23 22  2  0
 24 25  1  0
 25 26  2  0
 25 27  1  0
 27 28  1  0
 29 28  1  1
 29 30  1  0
 30 22  1  0
 31 33  1  0
 31 29  1  0
 32 31  2  0
M  END
$$$$
