EWQ.pdb
     RDKit          3D

 33 34  0  0  1  0  0  0  0  0999 V2000
    9.6132  -18.5840   21.2756 N   0  0  0  0  0  0  0  0  0  0  0  0
   10.9348  -18.1308   21.6969 C   0  0  1  0  0  0  0  0  0  0  0  0
   11.5841  -17.2964   20.6476 C   0  0  0  0  0  0  0  0  0  0  0  0
   11.2702  -17.6659   19.2372 C   0  0  0  0  0  0  0  0  0  0  0  0
   12.0581  -16.7418   18.3588 C   0  0  0  0  0  0  0  0  0  0  0  0
   13.0055  -16.1137   18.8642 O   0  0  0  0  0  0  0  0  0  0  0  0
   10.7950  -17.4890   23.0083 C   0  0  0  0  0  0  0  0  0  0  0  0
   11.7559  -16.8718   23.5579 O   0  0  0  0  0  0  0  0  0  0  0  0
   11.7806  -16.5598   17.0287 O   0  0  0  0  0  0  0  0  0  0  0  0
    9.5815  -17.5049   23.7651 N   0  0  0  0  0  0  0  0  0  0  0  0
    9.4415  -16.8767   25.0552 C   0  0  1  0  0  0  0  0  0  0  0  0
    7.9626  -16.5130   25.2030 C   0  0  0  0  0  0  0  0  0  0  0  0
    7.6871  -15.1852   24.5921 C   0  0  0  0  0  0  0  0  0  0  0  0
    7.5863  -14.8724   23.2476 C   0  0  0  0  0  0  0  0  0  0  0  0
    7.3283  -13.5508   23.1112 N   0  0  0  0  0  0  0  0  0  0  0  0
    7.2552  -12.9788   24.3278 C   0  0  0  0  0  0  0  0  0  0  0  0
    7.0165  -11.6752   24.7113 C   0  0  0  0  0  0  0  0  0  0  0  0
    7.0064  -11.4116   26.0613 C   0  0  0  0  0  0  0  0  0  0  0  0
    7.2274  -12.4150   27.0022 C   0  0  0  0  0  0  0  0  0  0  0  0
    7.4631  -13.7056   26.5989 C   0  0  0  0  0  0  0  0  0  0  0  0
    7.4780  -13.9930   25.2563 C   0  0  0  0  0  0  0  0  0  0  0  0
    9.8328  -17.8116   26.1453 C   0  0  0  0  0  0  0  0  0  0  0  0
    9.2323  -18.9105   26.2575 O   0  0  0  0  0  0  0  0  0  0  0  0
   15.3311  -17.5895   28.9353 N   0  0  0  0  0  0  0  0  0  0  0  0
   14.7601  -18.6310   29.7186 C   0  0  0  0  0  0  0  0  0  0  0  0
   15.4653  -19.1737   30.5916 O   0  0  0  0  0  0  0  0  0  0  0  0
   13.3514  -18.9818   29.4183 C   0  0  0  0  0  0  0  0  0  0  0  0
   12.7184  -18.1382   28.3666 C   0  0  0  0  0  0  0  0  0  0  0  0
   11.2734  -18.4609   28.0790 C   0  0  2  0  0  0  0  0  0  0  0  0
   10.8584  -17.4931   27.0516 N   0  0  0  0  0  0  0  0  0  0  0  0
   10.3960  -18.2621   29.2540 C   0  0  0  0  0  0  0  0  0  0  0  0
   10.1470  -19.2088   30.0322 O   0  0  0  0  0  0  0  0  0  0  0  0
    9.8318  -17.0284   29.5191 O   0  0  0  0  0  0  0  0  0  0  0  0
  2  1  1  6
  2  3  1  0
  3  4  1  0
  4  5  1  0
  5  6  2  0
  7  8  2  0
  7  2  1  0
  9  5  1  0
 10  7  1  0
 11 10  1  0
 11 12  1  1
 12 13  1  0
 13 14  2  0
 13 21  1  0
 14 15  1  0
 15 16  1  0
 16 17  2  0
 18 17  1  0
 19 18  2  0
 20 21  2  0
 20 19  1  0
 21 16  1  0
 22 11  1  0
 23 22  2  0
 24 25  1  0
 25 26  2  0
 25 27  1  0
 27 28  1  0
 29 28  1  1
 29 30  1  0
 30 22  1  0
 31 33  1  0
 31 29  1  0
 32 31  2  0
M  END
$$$$
