EWQ.pdb
     RDKit          3D

 33 34  0  0  1  0  0  0  0  0999 V2000
   10.2288  -15.7482   18.1785 N   0  0  0  0  0  0  0  0  0  0  0  0
    9.1961  -16.4078   18.9708 C   0  0  1  0  0  0  0  0  0  0  0  0
    9.2690  -17.8894   18.8347 C   0  0  0  0  0  0  0  0  0  0  0  0
   10.6071  -18.4995   19.0826 C   0  0  0  0  0  0  0  0  0  0  0  0
   10.4641  -19.9732   18.8500 C   0  0  0  0  0  0  0  0  0  0  0  0
    9.3445  -20.4137   18.5334 O   0  0  0  0  0  0  0  0  0  0  0  0
    9.2882  -15.9010   20.3441 C   0  0  0  0  0  0  0  0  0  0  0  0
   10.4022  -15.6350   20.8868 O   0  0  0  0  0  0  0  0  0  0  0  0
   11.5091  -20.8523   18.9706 O   0  0  0  0  0  0  0  0  0  0  0  0
    8.1464  -15.6676   21.1733 N   0  0  0  0  0  0  0  0  0  0  0  0
    8.2355  -15.3475   22.5762 C   0  0  1  0  0  0  0  0  0  0  0  0
    6.8000  -15.1567   23.0702 C   0  0  0  0  0  0  0  0  0  0  0  0
    6.7840  -14.8532   24.5262 C   0  0  0  0  0  0  0  0  0  0  0  0
    6.6026  -15.7359   25.5767 C   0  0  0  0  0  0  0  0  0  0  0  0
    6.6542  -15.0589   26.7474 N   0  0  0  0  0  0  0  0  0  0  0  0
    6.8648  -13.7519   26.5024 C   0  0  0  0  0  0  0  0  0  0  0  0
    6.9921  -12.6722   27.3518 C   0  0  0  0  0  0  0  0  0  0  0  0
    7.2059  -11.4425   26.7738 C   0  0  0  0  0  0  0  0  0  0  0  0
    7.2905  -11.2910   25.3914 C   0  0  0  0  0  0  0  0  0  0  0  0
    7.1609  -12.3787   24.5644 C   0  0  0  0  0  0  0  0  0  0  0  0
    6.9469  -13.6167   25.1184 C   0  0  0  0  0  0  0  0  0  0  0  0
    8.8764  -16.4572   23.3335 C   0  0  0  0  0  0  0  0  0  0  0  0
    8.5122  -17.6406   23.1155 O   0  0  0  0  0  0  0  0  0  0  0  0
   13.9237  -17.6205   22.5331 N   0  0  0  0  0  0  0  0  0  0  0  0
   13.9981  -16.7193   23.6315 C   0  0  0  0  0  0  0  0  0  0  0  0
   15.1047  -16.2236   23.9204 O   0  0  0  0  0  0  0  0  0  0  0  0
   12.7275  -16.4478   24.3455 C   0  0  0  0  0  0  0  0  0  0  0  0
   11.7904  -17.6043   24.3945 C   0  0  0  0  0  0  0  0  0  0  0  0
   10.4653  -17.3196   25.0562 C   0  0  2  0  0  0  0  0  0  0  0  0
    9.8793  -16.2112   24.2867 N   0  0  0  0  0  0  0  0  0  0  0  0
   10.6095  -16.8591   26.4552 C   0  0  0  0  0  0  0  0  0  0  0  0
   10.2660  -15.7029   26.7853 O   0  0  0  0  0  0  0  0  0  0  0  0
   11.1263  -17.6936   27.4284 O   0  0  0  0  0  0  0  0  0  0  0  0
  2  1  1  6
  2  3  1  0
  3  4  1  0
  4  5  1  0
  5  6  2  0
  7  8  2  0
  7  2  1  0
  9  5  1  0
 10  7  1  0
 11 10  1  0
 11 12  1  1
 12 13  1  0
 13 14  2  0
 13 21  1  0
 14 15  1  0
 15 16  1  0
 16 17  2  0
 18 17  1  0
 19 18  2  0
 20 21  2  0
 20 19  1  0
 21 16  1  0
 22 11  1  0
 23 22  2  0
 24 25  1  0
 25 26  2  0
 25 27  1  0
 27 28  1  0
 29 28  1  6
 29 30  1  0
 30 22  1  0
 31 33  1  0
 31 29  1  0
 32 31  2  0
M  END
$$$$
