EWQ.pdb
     RDKit          3D

 33 34  0  0  1  0  0  0  0  0999 V2000
    9.2707  -19.0686   20.9466 N   0  0  0  0  0  0  0  0  0  0  0  0
   10.6101  -18.5173   21.1238 C   0  0  1  0  0  0  0  0  0  0  0  0
   11.2858  -18.2980   19.8145 C   0  0  0  0  0  0  0  0  0  0  0  0
   10.6742  -18.9904   18.6437 C   0  0  0  0  0  0  0  0  0  0  0  0
   11.5025  -18.6356   17.4460 C   0  0  0  0  0  0  0  0  0  0  0  0
   10.9178  -18.2428   16.4207 O   0  0  0  0  0  0  0  0  0  0  0  0
   10.5001  -17.3296   21.9772 C   0  0  0  0  0  0  0  0  0  0  0  0
   11.4947  -16.5809   22.2148 O   0  0  0  0  0  0  0  0  0  0  0  0
   12.8705  -18.7250   17.4322 O   0  0  0  0  0  0  0  0  0  0  0  0
    9.2801  -16.9225   22.6030 N   0  0  0  0  0  0  0  0  0  0  0  0
    9.1978  -15.8446   23.5570 C   0  0  1  0  0  0  0  0  0  0  0  0
    7.7682  -15.3048   23.4801 C   0  0  0  0  0  0  0  0  0  0  0  0
    7.6701  -13.9854   24.1595 C   0  0  0  0  0  0  0  0  0  0  0  0
    8.3217  -12.8094   23.8308 C   0  0  0  0  0  0  0  0  0  0  0  0
    7.9609  -11.8368   24.7001 N   0  0  0  0  0  0  0  0  0  0  0  0
    7.0882  -12.3353   25.5958 C   0  0  0  0  0  0  0  0  0  0  0  0
    6.4413  -11.7494   26.6643 C   0  0  0  0  0  0  0  0  0  0  0  0
    5.5955  -12.5479   27.3986 C   0  0  0  0  0  0  0  0  0  0  0  0
    5.3989  -13.8898   27.0796 C   0  0  0  0  0  0  0  0  0  0  0  0
    6.0527  -14.4528   26.0121 C   0  0  0  0  0  0  0  0  0  0  0  0
    6.9023  -13.6754   25.2643 C   0  0  0  0  0  0  0  0  0  0  0  0
    9.4683  -16.3354   24.9360 C   0  0  0  0  0  0  0  0  0  0  0  0
    8.8330  -17.3298   25.3700 O   0  0  0  0  0  0  0  0  0  0  0  0
   15.0237  -17.3990   26.8591 N   0  0  0  0  0  0  0  0  0  0  0  0
   14.4158  -16.8964   25.6751 C   0  0  0  0  0  0  0  0  0  0  0  0
   15.1502  -16.5639   24.7243 O   0  0  0  0  0  0  0  0  0  0  0  0
   12.9357  -16.8124   25.6814 C   0  0  0  0  0  0  0  0  0  0  0  0
   12.3516  -16.3497   26.9710 C   0  0  0  0  0  0  0  0  0  0  0  0
   10.8441  -16.3469   27.0199 C   0  0  2  0  0  0  0  0  0  0  0  0
   10.4178  -15.7119   25.7632 N   0  0  0  0  0  0  0  0  0  0  0  0
   10.3075  -15.5310   28.1319 C   0  0  0  0  0  0  0  0  0  0  0  0
   10.4875  -15.8749   29.3207 O   0  0  0  0  0  0  0  0  0  0  0  0
    9.5961  -14.3721   27.8841 O   0  0  0  0  0  0  0  0  0  0  0  0
  2  1  1  6
  2  3  1  0
  3  4  1  0
  4  5  1  0
  5  6  2  0
  7  8  2  0
  7  2  1  0
  9  5  1  0
 10  7  1  0
 11 10  1  0
 11 12  1  1
 12 13  1  0
 13 14  2  0
 13 21  1  0
 14 15  1  0
 15 16  1  0
 16 17  2  0
 18 17  1  0
 19 18  2  0
 20 21  2  0
 20 19  1  0
 21 16  1  0
 22 11  1  0
 23 22  2  0
 24 25  1  0
 25 26  2  0
 25 27  1  0
 27 28  1  0
 29 28  1  6
 29 30  1  0
 30 22  1  0
 31 33  1  0
 31 29  1  0
 32 31  2  0
M  END
$$$$
