EWQ.pdb
     RDKit          3D

 33 34  0  0  1  0  0  0  0  0999 V2000
    9.7466  -19.5094   21.3570 N   0  0  0  0  0  0  0  0  0  0  0  0
   10.7566  -18.5403   20.9445 C   0  0  1  0  0  0  0  0  0  0  0  0
   10.8123  -18.4100   19.4616 C   0  0  0  0  0  0  0  0  0  0  0  0
    9.5716  -17.9039   18.8069 C   0  0  0  0  0  0  0  0  0  0  0  0
    9.8757  -17.7642   17.3459 C   0  0  0  0  0  0  0  0  0  0  0  0
   11.0237  -18.0402   16.9541 O   0  0  0  0  0  0  0  0  0  0  0  0
   10.5081  -17.2916   21.6728 C   0  0  0  0  0  0  0  0  0  0  0  0
   11.2772  -16.2899   21.5670 O   0  0  0  0  0  0  0  0  0  0  0  0
    8.9474  -17.3471   16.4274 O   0  0  0  0  0  0  0  0  0  0  0  0
    9.3941  -17.1024   22.5496 N   0  0  0  0  0  0  0  0  0  0  0  0
    9.1922  -15.9077   23.3311 C   0  0  1  0  0  0  0  0  0  0  0  0
    7.6802  -15.6831   23.3985 C   0  0  0  0  0  0  0  0  0  0  0  0
    7.3753  -14.2507   23.6576 C   0  0  0  0  0  0  0  0  0  0  0  0
    7.2888  -13.2200   22.7378 C   0  0  0  0  0  0  0  0  0  0  0  0
    6.9933  -12.0665   23.3811 N   0  0  0  0  0  0  0  0  0  0  0  0
    6.8814  -12.3037   24.7016 C   0  0  0  0  0  0  0  0  0  0  0  0
    6.5965  -11.4650   25.7594 C   0  0  0  0  0  0  0  0  0  0  0  0
    6.5546  -12.0300   27.0128 C   0  0  0  0  0  0  0  0  0  0  0  0
    6.7893  -13.3893   27.2085 C   0  0  0  0  0  0  0  0  0  0  0  0
    7.0711  -14.2060   26.1420 C   0  0  0  0  0  0  0  0  0  0  0  0
    7.1184  -13.6646   24.8810 C   0  0  0  0  0  0  0  0  0  0  0  0
    9.7292  -16.0784   24.7087 C   0  0  0  0  0  0  0  0  0  0  0  0
    9.3102  -15.3310   25.6287 O   0  0  0  0  0  0  0  0  0  0  0  0
    7.1622  -19.3879   27.3789 N   0  0  0  0  0  0  0  0  0  0  0  0
    8.1867  -19.5221   28.3570 C   0  0  0  0  0  0  0  0  0  0  0  0
    7.9226  -20.1233   29.4165 O   0  0  0  0  0  0  0  0  0  0  0  0
    9.4998  -18.9225   28.0192 C   0  0  0  0  0  0  0  0  0  0  0  0
    9.5261  -18.1902   26.7226 C   0  0  0  0  0  0  0  0  0  0  0  0
   10.8517  -17.5590   26.3772 C   0  0  2  0  0  0  0  0  0  0  0  0
   10.6943  -17.0564   25.0036 N   0  0  0  0  0  0  0  0  0  0  0  0
   11.9658  -18.5331   26.3668 C   0  0  0  0  0  0  0  0  0  0  0  0
   12.3977  -19.0204   27.4344 O   0  0  0  0  0  0  0  0  0  0  0  0
   12.5546  -18.9267   25.1799 O   0  0  0  0  0  0  0  0  0  0  0  0
  2  1  1  6
  2  3  1  0
  3  4  1  0
  4  5  1  0
  5  6  2  0
  7  8  2  0
  7  2  1  0
  9  5  1  0
 10  7  1  0
 11 10  1  0
 11 12  1  1
 12 13  1  0
 13 14  2  0
 13 21  1  0
 14 15  1  0
 15 16  1  0
 16 17  2  0
 18 17  1  0
 19 18  2  0
 20 21  2  0
 20 19  1  0
 21 16  1  0
 22 11  1  0
 23 22  2  0
 24 25  1  0
 25 26  2  0
 25 27  1  0
 27 28  1  0
 29 28  1  6
 29 30  1  0
 30 22  1  0
 31 33  1  0
 31 29  1  0
 32 31  2  0
M  END
$$$$
