EWQ.pdb
     RDKit          3D

 33 34  0  0  1  0  0  0  0  0999 V2000
    9.8319  -18.1547   21.3842 N   0  0  0  0  0  0  0  0  0  0  0  0
   11.0519  -17.7711   22.0869 C   0  0  1  0  0  0  0  0  0  0  0  0
   11.9511  -16.9644   21.2153 C   0  0  0  0  0  0  0  0  0  0  0  0
   11.7046  -17.0746   19.7486 C   0  0  0  0  0  0  0  0  0  0  0  0
   12.7099  -16.1939   19.0703 C   0  0  0  0  0  0  0  0  0  0  0  0
   12.2999  -15.3611   18.2421 O   0  0  0  0  0  0  0  0  0  0  0  0
   10.6640  -17.1305   23.3480 C   0  0  0  0  0  0  0  0  0  0  0  0
   11.4621  -16.3896   23.9964 O   0  0  0  0  0  0  0  0  0  0  0  0
   14.0555  -16.2665   19.3223 O   0  0  0  0  0  0  0  0  0  0  0  0
    9.3725  -17.2854   23.9428 N   0  0  0  0  0  0  0  0  0  0  0  0
    9.0483  -16.8235   25.2695 C   0  0  1  0  0  0  0  0  0  0  0  0
    7.5727  -16.4199   25.2404 C   0  0  0  0  0  0  0  0  0  0  0  0
    7.4136  -15.0615   24.6563 C   0  0  0  0  0  0  0  0  0  0  0  0
    7.5090  -14.6916   23.3260 C   0  0  0  0  0  0  0  0  0  0  0  0
    7.3006  -13.3590   23.2134 N   0  0  0  0  0  0  0  0  0  0  0  0
    7.0696  -12.8352   24.4319 C   0  0  0  0  0  0  0  0  0  0  0  0
    6.8070  -11.5424   24.8356 C   0  0  0  0  0  0  0  0  0  0  0  0
    6.6132  -11.3337   26.1812 C   0  0  0  0  0  0  0  0  0  0  0  0
    6.6788  -12.3802   27.0987 C   0  0  0  0  0  0  0  0  0  0  0  0
    6.9415  -13.6592   26.6755 C   0  0  0  0  0  0  0  0  0  0  0  0
    7.1386  -13.8920   25.3368 C   0  0  0  0  0  0  0  0  0  0  0  0
    9.2457  -17.9070   26.2709 C   0  0  0  0  0  0  0  0  0  0  0  0
    8.6394  -18.9985   26.1229 O   0  0  0  0  0  0  0  0  0  0  0  0
   12.6689  -20.8461   24.9671 N   0  0  0  0  0  0  0  0  0  0  0  0
   13.1440  -20.5492   26.2748 C   0  0  0  0  0  0  0  0  0  0  0  0
   14.1241  -21.1847   26.7102 O   0  0  0  0  0  0  0  0  0  0  0  0
   12.4152  -19.4907   27.0139 C   0  0  0  0  0  0  0  0  0  0  0  0
   11.0635  -19.8940   27.4918 C   0  0  0  0  0  0  0  0  0  0  0  0
   10.3413  -18.8504   28.3069 C   0  0  2  0  0  0  0  0  0  0  0  0
   10.0945  -17.7369   27.3778 N   0  0  0  0  0  0  0  0  0  0  0  0
   11.1610  -18.3236   29.4208 C   0  0  0  0  0  0  0  0  0  0  0  0
   11.4980  -19.0636   30.3710 O   0  0  0  0  0  0  0  0  0  0  0  0
   11.5729  -17.0043   29.4380 O   0  0  0  0  0  0  0  0  0  0  0  0
  2  1  1  6
  2  3  1  0
  3  4  1  0
  4  5  1  0
  5  6  2  0
  7  8  2  0
  7  2  1  0
  9  5  1  0
 10  7  1  0
 11 10  1  0
 11 12  1  6
 12 13  1  0
 13 14  2  0
 13 21  1  0
 14 15  1  0
 15 16  1  0
 16 17  2  0
 18 17  1  0
 19 18  2  0
 20 21  2  0
 20 19  1  0
 21 16  1  0
 22 11  1  0
 23 22  2  0
 24 25  1  0
 25 26  2  0
 25 27  1  0
 27 28  1  0
 29 28  1  6
 29 30  1  0
 30 22  1  0
 31 33  1  0
 31 29  1  0
 32 31  2  0
M  END
$$$$
