EWQ.pdb
     RDKit          3D

 33 34  0  0  1  0  0  0  0  0999 V2000
    6.1970  -15.1793   20.9637 N   0  0  0  0  0  0  0  0  0  0  0  0
    7.2806  -16.1492   21.0841 C   0  0  1  0  0  0  0  0  0  0  0  0
    8.0152  -16.3068   19.7979 C   0  0  0  0  0  0  0  0  0  0  0  0
    7.4955  -17.3590   18.8776 C   0  0  0  0  0  0  0  0  0  0  0  0
    8.5913  -17.6646   17.9018 C   0  0  0  0  0  0  0  0  0  0  0  0
    9.6959  -17.1163   18.0657 O   0  0  0  0  0  0  0  0  0  0  0  0
    8.1069  -15.7626   22.2326 C   0  0  0  0  0  0  0  0  0  0  0  0
    8.6742  -14.6312   22.2992 O   0  0  0  0  0  0  0  0  0  0  0  0
    8.4293  -18.5183   16.8415 O   0  0  0  0  0  0  0  0  0  0  0  0
    8.3381  -16.6163   23.3566 N   0  0  0  0  0  0  0  0  0  0  0  0
    9.2756  -16.3093   24.4079 C   0  0  1  0  0  0  0  0  0  0  0  0
    8.5071  -16.4333   25.7252 C   0  0  0  0  0  0  0  0  0  0  0  0
    7.4391  -15.4013   25.8067 C   0  0  0  0  0  0  0  0  0  0  0  0
    6.0821  -15.5630   25.5874 C   0  0  0  0  0  0  0  0  0  0  0  0
    5.4539  -14.3767   25.7600 N   0  0  0  0  0  0  0  0  0  0  0  0
    6.3566  -13.4331   26.0877 C   0  0  0  0  0  0  0  0  0  0  0  0
    6.2140  -12.0883   26.3606 C   0  0  0  0  0  0  0  0  0  0  0  0
    7.3567  -11.3872   26.6683 C   0  0  0  0  0  0  0  0  0  0  0  0
    8.6047  -12.0055   26.7034 C   0  0  0  0  0  0  0  0  0  0  0  0
    8.7241  -13.3449   26.4285 C   0  0  0  0  0  0  0  0  0  0  0  0
    7.5972  -14.0657   26.1186 C   0  0  0  0  0  0  0  0  0  0  0  0
   10.4104  -17.2725   24.4042 C   0  0  0  0  0  0  0  0  0  0  0  0
   10.1900  -18.4807   24.1353 O   0  0  0  0  0  0  0  0  0  0  0  0
   15.1612  -15.1878   21.9730 N   0  0  0  0  0  0  0  0  0  0  0  0
   15.4979  -15.4356   23.3329 C   0  0  0  0  0  0  0  0  0  0  0  0
   16.6671  -15.2168   23.7056 O   0  0  0  0  0  0  0  0  0  0  0  0
   14.4057  -15.9416   24.1982 C   0  0  0  0  0  0  0  0  0  0  0  0
   13.8757  -17.2760   23.8025 C   0  0  0  0  0  0  0  0  0  0  0  0
   12.8216  -17.8385   24.7231 C   0  0  2  0  0  0  0  0  0  0  0  0
   11.7223  -16.8613   24.6948 N   0  0  0  0  0  0  0  0  0  0  0  0
   13.2822  -17.9456   26.1254 C   0  0  0  0  0  0  0  0  0  0  0  0
   12.7859  -17.2230   27.0173 O   0  0  0  0  0  0  0  0  0  0  0  0
   14.2697  -18.8444   26.4825 O   0  0  0  0  0  0  0  0  0  0  0  0
  2  1  1  6
  2  3  1  0
  3  4  1  0
  4  5  1  0
  5  6  2  0
  7  8  2  0
  7  2  1  0
  9  5  1  0
 10  7  1  0
 11 10  1  0
 11 12  1  1
 12 13  1  0
 13 14  2  0
 13 21  1  0
 14 15  1  0
 15 16  1  0
 16 17  2  0
 18 17  1  0
 19 18  2  0
 20 21  2  0
 20 19  1  0
 21 16  1  0
 22 11  1  0
 23 22  2  0
 24 25  1  0
 25 26  2  0
 25 27  1  0
 27 28  1  0
 29 28  1  6
 29 30  1  0
 30 22  1  0
 31 33  1  0
 31 29  1  0
 32 31  2  0
M  END
$$$$
