EFV.pdb
     RDKit          3D

 28 28  0  0  1  0  0  0  0  0999 V2000
   10.6442  -16.7097   20.0455 N   0  0  0  0  0  0  0  0  0  0  0  0
    9.6623  -17.0838   21.0226 C   0  0  1  0  0  0  0  0  0  0  0  0
    9.8152  -18.5115   21.4873 C   0  0  0  0  0  0  0  0  0  0  0  0
    9.7441  -19.3838   20.2514 C   0  0  0  0  0  0  0  0  0  0  0  0
    9.7815  -20.8079   20.5479 C   0  0  0  0  0  0  0  0  0  0  0  0
    9.7110  -21.6551   19.6328 O   0  0  0  0  0  0  0  0  0  0  0  0
    9.6978  -16.1107   22.1349 C   0  0  0  0  0  0  0  0  0  0  0  0
   10.8049  -15.7347   22.5811 O   0  0  0  0  0  0  0  0  0  0  0  0
    9.8959  -21.2452   21.8507 O   0  0  0  0  0  0  0  0  0  0  0  0
    8.5363  -15.5639   22.7420 N   0  0  0  0  0  0  0  0  0  0  0  0
    8.6017  -14.6269   23.8747 C   0  0  1  0  0  0  0  0  0  0  0  0
    7.2848  -13.9461   23.9343 C   0  0  0  0  0  0  0  0  0  0  0  0
    7.0451  -13.0556   25.0611 C   0  0  0  0  0  0  0  0  0  0  0  0
    7.8142  -11.9321   25.3119 C   0  0  0  0  0  0  0  0  0  0  0  0
    7.5458  -11.1149   26.3832 C   0  0  0  0  0  0  0  0  0  0  0  0
    6.5085  -11.3661   27.2565 C   0  0  0  0  0  0  0  0  0  0  0  0
    5.7439  -12.4858   27.0044 C   0  0  0  0  0  0  0  0  0  0  0  0
    6.0030  -13.3267   25.9201 C   0  0  0  0  0  0  0  0  0  0  0  0
    8.7907  -15.4445   25.0961 C   0  0  0  0  0  0  0  0  0  0  0  0
    8.9776  -14.8599   26.1943 O   0  0  0  0  0  0  0  0  0  0  0  0
    6.8184  -18.8759   25.7846 C   0  0  0  0  0  0  0  0  0  0  0  0
    8.2803  -19.0230   26.1458 C   0  0  2  0  0  0  0  0  0  0  0  0
    8.4531  -19.8326   27.4120 C   0  0  0  0  0  0  0  0  0  0  0  0
    8.8633  -17.6365   26.2864 C   0  0  2  0  0  0  0  0  0  0  0  0
    8.7719  -16.8623   25.0932 N   0  0  0  0  0  0  0  0  0  0  0  0
   10.2931  -17.8016   26.6845 C   0  0  0  0  0  0  0  0  0  0  0  0
   10.5626  -18.3532   27.7970 O   0  0  0  0  0  0  0  0  0  0  0  0
   11.3539  -17.3934   25.9220 O   0  0  0  0  0  0  0  0  0  0  0  0
  2  1  1  6
  2  7  1  0
  2  3  1  0
  4  3  1  0
  4  5  1  0
  5  6  2  0
  7  8  2  0
  9  5  1  0
 10  7  1  0
 10 11  1  0
 11 12  1  1
 12 13  1  0
 13 14  2  0
 14 15  1  0
 16 15  2  0
 17 16  1  0
 18 13  1  0
 18 17  2  0
 19 25  1  0
 19 11  1  0
 20 19  2  0
 22 21  1  1
 22 24  1  0
 23 22  1  0
 24 25  1  6
 26 28  1  0
 26 24  1  0
 27 26  2  0
M  END
$$$$
