EFV.pdb
     RDKit          3D

 28 28  0  0  1  0  0  0  0  0999 V2000
   10.3304  -16.4089   19.5905 N   0  0  0  0  0  0  0  0  0  0  0  0
   10.1884  -17.1495   20.8113 C   0  0  1  0  0  0  0  0  0  0  0  0
   11.2755  -18.1791   20.9997 C   0  0  0  0  0  0  0  0  0  0  0  0
   10.7819  -19.4588   20.3577 C   0  0  0  0  0  0  0  0  0  0  0  0
   11.6567  -20.5973   20.5944 C   0  0  0  0  0  0  0  0  0  0  0  0
   12.3756  -21.0540   19.6807 O   0  0  0  0  0  0  0  0  0  0  0  0
   10.0951  -16.1995   21.9401 C   0  0  0  0  0  0  0  0  0  0  0  0
   10.9117  -15.2538   22.0105 O   0  0  0  0  0  0  0  0  0  0  0  0
   11.7048  -21.1918   21.8376 O   0  0  0  0  0  0  0  0  0  0  0  0
    9.1212  -16.2910   22.9697 N   0  0  0  0  0  0  0  0  0  0  0  0
    9.0259  -15.3061   24.0587 C   0  0  1  0  0  0  0  0  0  0  0  0
    7.5856  -15.1884   24.3948 C   0  0  0  0  0  0  0  0  0  0  0  0
    7.1666  -14.0014   25.1267 C   0  0  0  0  0  0  0  0  0  0  0  0
    7.8798  -12.8150   25.1121 C   0  0  0  0  0  0  0  0  0  0  0  0
    7.4418  -11.7166   25.8116 C   0  0  0  0  0  0  0  0  0  0  0  0
    6.2818  -11.7359   26.5573 C   0  0  0  0  0  0  0  0  0  0  0  0
    5.5732  -12.9188   26.5701 C   0  0  0  0  0  0  0  0  0  0  0  0
    6.0043  -14.0443   25.8648 C   0  0  0  0  0  0  0  0  0  0  0  0
    9.7579  -15.8745   25.2151 C   0  0  0  0  0  0  0  0  0  0  0  0
   10.0800  -17.0903   25.1907 O   0  0  0  0  0  0  0  0  0  0  0  0
    9.7373  -14.3514   29.1747 C   0  0  0  0  0  0  0  0  0  0  0  0
   11.0845  -14.6796   28.5693 C   0  0  2  0  0  0  0  0  0  0  0  0
   11.7872  -13.4299   28.0863 C   0  0  0  0  0  0  0  0  0  0  0  0
   10.8586  -15.6624   27.4445 C   0  0  2  0  0  0  0  0  0  0  0  0
   10.1175  -15.1149   26.3572 N   0  0  0  0  0  0  0  0  0  0  0  0
   10.1332  -16.8317   28.0247 C   0  0  0  0  0  0  0  0  0  0  0  0
    8.8941  -16.9706   27.7799 O   0  0  0  0  0  0  0  0  0  0  0  0
   10.7190  -17.7824   28.8162 O   0  0  0  0  0  0  0  0  0  0  0  0
  2  1  1  6
  2  7  1  0
  2  3  1  0
  4  3  1  0
  4  5  1  0
  5  6  2  0
  7  8  2  0
  9  5  1  0
 10  7  1  0
 10 11  1  0
 11 12  1  1
 12 13  1  0
 13 14  2  0
 14 15  1  0
 16 15  2  0
 17 16  1  0
 18 13  1  0
 18 17  2  0
 19 25  1  0
 19 11  1  0
 20 19  2  0
 22 21  1  6
 22 24  1  0
 23 22  1  0
 24 25  1  6
 26 28  1  0
 26 24  1  0
 27 26  2  0
M  END
$$$$
