EFV.pdb
     RDKit          3D

 28 28  0  0  1  0  0  0  0  0999 V2000
    9.7585  -16.7749   18.9609 N   0  0  0  0  0  0  0  0  0  0  0  0
    8.7983  -17.0328   19.9956 C   0  0  1  0  0  0  0  0  0  0  0  0
    8.6953  -18.4974   20.3449 C   0  0  0  0  0  0  0  0  0  0  0  0
    8.3168  -19.2251   19.0718 C   0  0  0  0  0  0  0  0  0  0  0  0
    8.0203  -20.6344   19.2796 C   0  0  0  0  0  0  0  0  0  0  0  0
    8.9022  -21.5049   19.1221 O   0  0  0  0  0  0  0  0  0  0  0  0
    9.1136  -16.1844   21.1644 C   0  0  0  0  0  0  0  0  0  0  0  0
   10.3107  -16.0002   21.4792 O   0  0  0  0  0  0  0  0  0  0  0  0
    6.7544  -21.0317   19.6555 O   0  0  0  0  0  0  0  0  0  0  0  0
    8.1287  -15.5524   21.9690 N   0  0  0  0  0  0  0  0  0  0  0  0
    8.4600  -14.8457   23.2164 C   0  0  1  0  0  0  0  0  0  0  0  0
    7.2518  -14.0727   23.5958 C   0  0  0  0  0  0  0  0  0  0  0  0
    7.2834  -13.3692   24.8703 C   0  0  0  0  0  0  0  0  0  0  0  0
    8.1209  -12.2954   25.1189 C   0  0  0  0  0  0  0  0  0  0  0  0
    8.1106  -11.6558   26.3349 C   0  0  0  0  0  0  0  0  0  0  0  0
    7.2756  -12.0441   27.3614 C   0  0  0  0  0  0  0  0  0  0  0  0
    6.4422  -13.1140   27.1112 C   0  0  0  0  0  0  0  0  0  0  0  0
    6.4401  -13.7749   25.8811 C   0  0  0  0  0  0  0  0  0  0  0  0
    8.7231  -15.8846   24.2400 C   0  0  0  0  0  0  0  0  0  0  0  0
    7.9159  -16.8428   24.3529 O   0  0  0  0  0  0  0  0  0  0  0  0
   11.7784  -17.8660   24.3037 C   0  0  0  0  0  0  0  0  0  0  0  0
   11.6319  -17.4131   25.7399 C   0  0  2  0  0  0  0  0  0  0  0  0
   12.0026  -18.5188   26.7035 C   0  0  0  0  0  0  0  0  0  0  0  0
   10.2055  -16.9565   25.9371 C   0  0  2  0  0  0  0  0  0  0  0  0
    9.8454  -15.8559   25.1061 N   0  0  0  0  0  0  0  0  0  0  0  0
   10.0606  -16.5840   27.3760 C   0  0  0  0  0  0  0  0  0  0  0  0
   10.3202  -15.3923   27.7325 O   0  0  0  0  0  0  0  0  0  0  0  0
    9.6604  -17.4511   28.3565 O   0  0  0  0  0  0  0  0  0  0  0  0
  2  1  1  6
  2  7  1  0
  2  3  1  0
  4  3  1  0
  4  5  1  0
  5  6  2  0
  7  8  2  0
  9  5  1  0
 10  7  1  0
 10 11  1  0
 11 12  1  1
 12 13  1  0
 13 14  2  0
 14 15  1  0
 16 15  2  0
 17 16  1  0
 18 13  1  0
 18 17  2  0
 19 25  1  0
 19 11  1  0
 20 19  2  0
 22 21  1  6
 22 24  1  0
 23 22  1  0
 24 25  1  6
 26 28  1  0
 26 24  1  0
 27 26  2  0
M  END
$$$$
