EFV.pdb
     RDKit          3D

 28 28  0  0  1  0  0  0  0  0999 V2000
   11.3145  -16.6836   19.6935 N   0  0  0  0  0  0  0  0  0  0  0  0
   10.8368  -17.3214   20.8868 C   0  0  1  0  0  0  0  0  0  0  0  0
   11.7819  -18.3791   21.4022 C   0  0  0  0  0  0  0  0  0  0  0  0
   11.8142  -19.4805   20.3633 C   0  0  0  0  0  0  0  0  0  0  0  0
   12.5658  -20.6519   20.7880 C   0  0  0  0  0  0  0  0  0  0  0  0
   13.1673  -20.6651   21.8827 O   0  0  0  0  0  0  0  0  0  0  0  0
   10.5305  -16.2843   21.8948 C   0  0  0  0  0  0  0  0  0  0  0  0
   11.2689  -15.2773   21.9776 O   0  0  0  0  0  0  0  0  0  0  0  0
   12.6251  -21.7704   19.9838 O   0  0  0  0  0  0  0  0  0  0  0  0
    9.4326  -16.3568   22.7927 N   0  0  0  0  0  0  0  0  0  0  0  0
    9.1462  -15.3034   23.7793 C   0  0  1  0  0  0  0  0  0  0  0  0
    7.6719  -15.1390   23.8035 C   0  0  0  0  0  0  0  0  0  0  0  0
    7.1298  -14.1131   24.6831 C   0  0  0  0  0  0  0  0  0  0  0  0
    7.4002  -12.7646   24.5260 C   0  0  0  0  0  0  0  0  0  0  0  0
    6.8593  -11.8301   25.3756 C   0  0  0  0  0  0  0  0  0  0  0  0
    6.0276  -12.1803   26.4184 C   0  0  0  0  0  0  0  0  0  0  0  0
    5.7596  -13.5243   26.5726 C   0  0  0  0  0  0  0  0  0  0  0  0
    6.3011  -14.4869   25.7181 C   0  0  0  0  0  0  0  0  0  0  0  0
    9.6080  -15.8105   25.0930 C   0  0  0  0  0  0  0  0  0  0  0  0
    9.8206  -17.0432   25.2266 O   0  0  0  0  0  0  0  0  0  0  0  0
   10.8663  -13.1394   28.0658 C   0  0  0  0  0  0  0  0  0  0  0  0
   10.3034  -14.4518   28.5657 C   0  0  2  0  0  0  0  0  0  0  0  0
   11.0440  -14.9333   29.7938 C   0  0  0  0  0  0  0  0  0  0  0  0
   10.3881  -15.4511   27.4359 C   0  0  2  0  0  0  0  0  0  0  0  0
    9.8250  -14.9734   26.2168 N   0  0  0  0  0  0  0  0  0  0  0  0
    9.6720  -16.6818   27.8861 C   0  0  0  0  0  0  0  0  0  0  0  0
    8.4473  -16.8279   27.5806 O   0  0  0  0  0  0  0  0  0  0  0  0
   10.2519  -17.6825   28.6181 O   0  0  0  0  0  0  0  0  0  0  0  0
  2  1  1  6
  2  7  1  0
  2  3  1  0
  4  3  1  0
  4  5  1  0
  5  6  2  0
  7  8  2  0
  9  5  1  0
 10  7  1  0
 10 11  1  0
 11 12  1  1
 12 13  1  0
 13 14  2  0
 14 15  1  0
 16 15  2  0
 17 16  1  0
 18 13  1  0
 18 17  2  0
 19 25  1  0
 19 11  1  0
 20 19  2  0
 22 21  1  6
 22 24  1  0
 23 22  1  0
 24 25  1  6
 26 28  1  0
 26 24  1  0
 27 26  2  0
M  END
$$$$
