EFV.pdb
     RDKit          3D

 28 28  0  0  1  0  0  0  0  0999 V2000
   10.6620  -17.0243   19.3815 N   0  0  0  0  0  0  0  0  0  0  0  0
   10.8681  -17.5119   20.7151 C   0  0  1  0  0  0  0  0  0  0  0  0
   12.2531  -18.0738   20.9241 C   0  0  0  0  0  0  0  0  0  0  0  0
   12.3760  -19.2820   20.0192 C   0  0  0  0  0  0  0  0  0  0  0  0
   13.5872  -20.0546   20.2505 C   0  0  0  0  0  0  0  0  0  0  0  0
   13.6233  -20.9422   21.1286 O   0  0  0  0  0  0  0  0  0  0  0  0
   10.5327  -16.4388   21.6751 C   0  0  0  0  0  0  0  0  0  0  0  0
   11.0958  -15.3264   21.5675 O   0  0  0  0  0  0  0  0  0  0  0  0
   14.7189  -19.8168   19.4993 O   0  0  0  0  0  0  0  0  0  0  0  0
    9.5958  -16.5899   22.7315 N   0  0  0  0  0  0  0  0  0  0  0  0
    9.2630  -15.4953   23.6568 C   0  0  1  0  0  0  0  0  0  0  0  0
    7.7825  -15.4011   23.6822 C   0  0  0  0  0  0  0  0  0  0  0  0
    7.1951  -14.3542   24.5061 C   0  0  0  0  0  0  0  0  0  0  0  0
    6.3488  -14.6167   25.5698 C   0  0  0  0  0  0  0  0  0  0  0  0
    5.8241  -13.5965   26.3259 C   0  0  0  0  0  0  0  0  0  0  0  0
    6.1085  -12.2717   26.0695 C   0  0  0  0  0  0  0  0  0  0  0  0
    6.9518  -12.0129   25.0096 C   0  0  0  0  0  0  0  0  0  0  0  0
    7.4937  -13.0379   24.2312 C   0  0  0  0  0  0  0  0  0  0  0  0
    9.7549  -15.9012   24.9945 C   0  0  0  0  0  0  0  0  0  0  0  0
   10.0392  -17.1102   25.1949 O   0  0  0  0  0  0  0  0  0  0  0  0
   10.6165  -13.0175   27.9214 C   0  0  0  0  0  0  0  0  0  0  0  0
   10.1911  -14.3777   28.4294 C   0  0  2  0  0  0  0  0  0  0  0  0
   10.9199  -14.7386   29.7050 C   0  0  0  0  0  0  0  0  0  0  0  0
   10.4541  -15.3833   27.3333 C   0  0  2  0  0  0  0  0  0  0  0  0
    9.9235  -14.9921   26.0696 N   0  0  0  0  0  0  0  0  0  0  0  0
    9.8449  -16.6751   27.7695 C   0  0  0  0  0  0  0  0  0  0  0  0
    8.6166  -16.8900   27.5253 O   0  0  0  0  0  0  0  0  0  0  0  0
   10.5284  -17.6627   28.4260 O   0  0  0  0  0  0  0  0  0  0  0  0
  2  1  1  6
  2  7  1  0
  2  3  1  0
  4  3  1  0
  4  5  1  0
  5  6  2  0
  7  8  2  0
  9  5  1  0
 10  7  1  0
 10 11  1  0
 11 12  1  1
 12 13  1  0
 13 14  2  0
 14 15  1  0
 16 15  2  0
 17 16  1  0
 18 13  1  0
 18 17  2  0
 19 25  1  0
 19 11  1  0
 20 19  2  0
 22 21  1  6
 22 24  1  0
 23 22  1  0
 24 25  1  6
 26 28  1  0
 26 24  1  0
 27 26  2  0
M  END
$$$$
