EFV.pdb
     RDKit          3D

 28 28  0  0  1  0  0  0  0  0999 V2000
   11.2965  -16.8060   19.9037 N   0  0  0  0  0  0  0  0  0  0  0  0
   10.5373  -17.4022   20.9652 C   0  0  1  0  0  0  0  0  0  0  0  0
   11.1517  -18.6831   21.4747 C   0  0  0  0  0  0  0  0  0  0  0  0
   12.5441  -18.7651   20.8850 C   0  0  0  0  0  0  0  0  0  0  0  0
   13.2396  -19.9991   21.2180 C   0  0  0  0  0  0  0  0  0  0  0  0
   12.6802  -20.8874   21.8948 O   0  0  0  0  0  0  0  0  0  0  0  0
   10.3341  -16.3987   22.0316 C   0  0  0  0  0  0  0  0  0  0  0  0
   11.1975  -15.5096   22.2048 O   0  0  0  0  0  0  0  0  0  0  0  0
   14.5336  -20.2067   20.7890 O   0  0  0  0  0  0  0  0  0  0  0  0
    9.2021  -16.3767   22.8888 N   0  0  0  0  0  0  0  0  0  0  0  0
    8.9823  -15.3140   23.8825 C   0  0  1  0  0  0  0  0  0  0  0  0
    7.5134  -15.1355   23.9900 C   0  0  0  0  0  0  0  0  0  0  0  0
    7.0333  -14.0602   24.8464 C   0  0  0  0  0  0  0  0  0  0  0  0
    7.3426  -12.7282   24.6301 C   0  0  0  0  0  0  0  0  0  0  0  0
    6.8597  -11.7453   25.4598 C   0  0  0  0  0  0  0  0  0  0  0  0
    6.0506  -12.0286   26.5401 C   0  0  0  0  0  0  0  0  0  0  0  0
    5.7439  -13.3561   26.7532 C   0  0  0  0  0  0  0  0  0  0  0  0
    6.2262  -14.3673   25.9196 C   0  0  0  0  0  0  0  0  0  0  0  0
    9.5144  -15.8164   25.1712 C   0  0  0  0  0  0  0  0  0  0  0  0
    9.6756  -17.0552   25.3190 O   0  0  0  0  0  0  0  0  0  0  0  0
   10.7360  -13.1404   28.1662 C   0  0  0  0  0  0  0  0  0  0  0  0
   10.2519  -14.4968   28.6299 C   0  0  2  0  0  0  0  0  0  0  0  0
   11.0153  -14.9633   29.8498 C   0  0  0  0  0  0  0  0  0  0  0  0
   10.4018  -15.4602   27.4760 C   0  0  2  0  0  0  0  0  0  0  0  0
    9.8542  -14.9683   26.2556 N   0  0  0  0  0  0  0  0  0  0  0  0
    9.7187  -16.7274   27.8728 C   0  0  0  0  0  0  0  0  0  0  0  0
   10.2887  -17.4992   28.7060 O   0  0  0  0  0  0  0  0  0  0  0  0
    8.4995  -17.1243   27.3939 O   0  0  0  0  0  0  0  0  0  0  0  0
  2  1  1  6
  2  7  1  0
  2  3  1  0
  4  3  1  0
  4  5  1  0
  5  6  2  0
  7  8  2  0
  9  5  1  0
 10  7  1  0
 10 11  1  0
 11 12  1  1
 12 13  1  0
 13 14  2  0
 14 15  1  0
 16 15  2  0
 17 16  1  0
 18 13  1  0
 18 17  2  0
 19 25  1  0
 19 11  1  0
 20 19  2  0
 22 21  1  6
 22 24  1  0
 23 22  1  0
 24 25  1  6
 26 28  1  0
 26 24  1  0
 27 26  2  0
M  END
$$$$
