EFV.pdb
     RDKit          3D

 28 28  0  0  1  0  0  0  0  0999 V2000
   10.1249  -18.3940   20.7261 N   0  0  0  0  0  0  0  0  0  0  0  0
   11.2886  -17.5957   20.9855 C   0  0  1  0  0  0  0  0  0  0  0  0
   11.9210  -17.0583   19.7250 C   0  0  0  0  0  0  0  0  0  0  0  0
   11.5692  -18.0243   18.6129 C   0  0  0  0  0  0  0  0  0  0  0  0
   12.1878  -17.6876   17.3396 C   0  0  0  0  0  0  0  0  0  0  0  0
   13.4269  -17.7469   17.1935 O   0  0  0  0  0  0  0  0  0  0  0  0
   10.9351  -16.5321   21.9494 C   0  0  0  0  0  0  0  0  0  0  0  0
   11.7848  -15.6576   22.2314 O   0  0  0  0  0  0  0  0  0  0  0  0
   11.4107  -17.2961   16.2698 O   0  0  0  0  0  0  0  0  0  0  0  0
    9.6708  -16.4353   22.5887 N   0  0  0  0  0  0  0  0  0  0  0  0
    9.3514  -15.3716   23.5540 C   0  0  1  0  0  0  0  0  0  0  0  0
    7.8779  -15.2013   23.5203 C   0  0  0  0  0  0  0  0  0  0  0  0
    7.3140  -14.1155   24.3098 C   0  0  0  0  0  0  0  0  0  0  0  0
    7.5181  -12.7795   24.0098 C   0  0  0  0  0  0  0  0  0  0  0  0
    6.9588  -11.7876   24.7785 C   0  0  0  0  0  0  0  0  0  0  0  0
    6.1732  -12.0654   25.8773 C   0  0  0  0  0  0  0  0  0  0  0  0
    5.9713  -13.3969   26.1739 C   0  0  0  0  0  0  0  0  0  0  0  0
    6.5323  -14.4173   25.4031 C   0  0  0  0  0  0  0  0  0  0  0  0
    9.7606  -15.8682   24.8890 C   0  0  0  0  0  0  0  0  0  0  0  0
    9.9993  -17.0950   25.0327 O   0  0  0  0  0  0  0  0  0  0  0  0
   11.3357  -14.9395   29.4753 C   0  0  0  0  0  0  0  0  0  0  0  0
   10.7035  -14.3435   28.2366 C   0  0  2  0  0  0  0  0  0  0  0  0
    9.3810  -13.6837   28.5598 C   0  0  0  0  0  0  0  0  0  0  0  0
   10.5410  -15.4510   27.2222 C   0  0  2  0  0  0  0  0  0  0  0  0
    9.8987  -15.0274   26.0224 N   0  0  0  0  0  0  0  0  0  0  0  0
    9.7455  -16.5314   27.8780 C   0  0  0  0  0  0  0  0  0  0  0  0
    8.5063  -16.6298   27.6145 O   0  0  0  0  0  0  0  0  0  0  0  0
   10.2660  -17.4403   28.7591 O   0  0  0  0  0  0  0  0  0  0  0  0
  2  1  1  6
  2  7  1  0
  2  3  1  0
  4  3  1  0
  4  5  1  0
  5  6  2  0
  7  8  2  0
  9  5  1  0
 10  7  1  0
 10 11  1  0
 11 12  1  1
 12 13  1  0
 13 14  2  0
 14 15  1  0
 16 15  2  0
 17 16  1  0
 18 13  1  0
 18 17  2  0
 19 25  1  0
 19 11  1  0
 20 19  2  0
 22 21  1  1
 22 24  1  0
 23 22  1  0
 24 25  1  6
 26 28  1  0
 26 24  1  0
 27 26  2  0
M  END
$$$$
