EFV.pdb
     RDKit          3D

 28 28  0  0  1  0  0  0  0  0999 V2000
   11.1105  -16.5700   19.7085 N   0  0  0  0  0  0  0  0  0  0  0  0
   10.5119  -17.2266   20.8351 C   0  0  1  0  0  0  0  0  0  0  0  0
   11.3198  -18.4048   21.3217 C   0  0  0  0  0  0  0  0  0  0  0  0
   11.7843  -19.1548   20.0907 C   0  0  0  0  0  0  0  0  0  0  0  0
   12.5073  -20.3791   20.4002 C   0  0  0  0  0  0  0  0  0  0  0  0
   13.7562  -20.4008   20.4104 O   0  0  0  0  0  0  0  0  0  0  0  0
   10.2593  -16.2267   21.8942 C   0  0  0  0  0  0  0  0  0  0  0  0
   11.0543  -15.2700   22.0319 O   0  0  0  0  0  0  0  0  0  0  0  0
   11.8204  -21.5396   20.6883 O   0  0  0  0  0  0  0  0  0  0  0  0
    9.1529  -16.2811   22.7828 N   0  0  0  0  0  0  0  0  0  0  0  0
    8.9461  -15.2904   23.8509 C   0  0  1  0  0  0  0  0  0  0  0  0
    7.4873  -15.0250   23.9022 C   0  0  0  0  0  0  0  0  0  0  0  0
    7.0302  -13.9869   24.8153 C   0  0  0  0  0  0  0  0  0  0  0  0
    7.3545  -12.6500   24.6610 C   0  0  0  0  0  0  0  0  0  0  0  0
    6.8931  -11.7029   25.5429 C   0  0  0  0  0  0  0  0  0  0  0  0
    6.0916  -12.0286   26.6169 C   0  0  0  0  0  0  0  0  0  0  0  0
    5.7698  -13.3610   26.7683 C   0  0  0  0  0  0  0  0  0  0  0  0
    6.2303  -14.3361   25.8810 C   0  0  0  0  0  0  0  0  0  0  0  0
    9.3765  -15.9296   25.1167 C   0  0  0  0  0  0  0  0  0  0  0  0
    9.2386  -17.1734   25.2455 O   0  0  0  0  0  0  0  0  0  0  0  0
    9.1720  -14.7606   29.0734 C   0  0  0  0  0  0  0  0  0  0  0  0
   10.5801  -14.9523   28.5539 C   0  0  2  0  0  0  0  0  0  0  0  0
   11.2299  -13.6251   28.2300 C   0  0  0  0  0  0  0  0  0  0  0  0
   10.5067  -15.8484   27.3400 C   0  0  2  0  0  0  0  0  0  0  0  0
    9.9402  -15.2082   26.1996 N   0  0  0  0  0  0  0  0  0  0  0  0
    9.6877  -17.0370   27.7227 C   0  0  0  0  0  0  0  0  0  0  0  0
    8.4698  -17.0868   27.3638 O   0  0  0  0  0  0  0  0  0  0  0  0
   10.1645  -18.0966   28.4462 O   0  0  0  0  0  0  0  0  0  0  0  0
  2  1  1  6
  2  7  1  0
  2  3  1  0
  4  3  1  0
  4  5  1  0
  5  6  2  0
  7  8  2  0
  9  5  1  0
 10  7  1  0
 10 11  1  0
 11 12  1  1
 12 13  1  0
 13 14  2  0
 14 15  1  0
 16 15  2  0
 17 16  1  0
 18 13  1  0
 18 17  2  0
 19 25  1  0
 19 11  1  0
 20 19  2  0
 22 21  1  6
 22 24  1  0
 23 22  1  0
 24 25  1  6
 26 28  1  0
 26 24  1  0
 27 26  2  0
M  END
$$$$
