EFV.pdb
     RDKit          3D

 28 28  0  0  1  0  0  0  0  0999 V2000
   10.0488  -18.5626   20.8238 N   0  0  0  0  0  0  0  0  0  0  0  0
   11.0290  -17.5195   20.7226 C   0  0  1  0  0  0  0  0  0  0  0  0
   11.2049  -17.0184   19.3099 C   0  0  0  0  0  0  0  0  0  0  0  0
   11.5242  -18.2263   18.4540 C   0  0  0  0  0  0  0  0  0  0  0  0
   11.6978  -17.9051   17.0454 C   0  0  0  0  0  0  0  0  0  0  0  0
   12.4791  -18.5659   16.3290 O   0  0  0  0  0  0  0  0  0  0  0  0
   10.6834  -16.4430   21.6751 C   0  0  0  0  0  0  0  0  0  0  0  0
   11.4105  -15.4263   21.7363 O   0  0  0  0  0  0  0  0  0  0  0  0
   10.9985  -16.8609   16.4779 O   0  0  0  0  0  0  0  0  0  0  0  0
    9.5593  -16.4874   22.5417 N   0  0  0  0  0  0  0  0  0  0  0  0
    9.2506  -15.4085   23.4935 C   0  0  1  0  0  0  0  0  0  0  0  0
    7.7717  -15.3002   23.5417 C   0  0  0  0  0  0  0  0  0  0  0  0
    7.2044  -14.3235   24.4605 C   0  0  0  0  0  0  0  0  0  0  0  0
    7.3904  -12.9588   24.3206 C   0  0  0  0  0  0  0  0  0  0  0  0
    6.8284  -12.0728   25.2076 C   0  0  0  0  0  0  0  0  0  0  0  0
    6.0577  -12.4895   26.2726 C   0  0  0  0  0  0  0  0  0  0  0  0
    5.8738  -13.8493   26.4097 C   0  0  0  0  0  0  0  0  0  0  0  0
    6.4378  -14.7633   25.5171 C   0  0  0  0  0  0  0  0  0  0  0  0
    9.7570  -15.8463   24.8156 C   0  0  0  0  0  0  0  0  0  0  0  0
    9.9823  -17.0695   25.0041 O   0  0  0  0  0  0  0  0  0  0  0  0
   11.4858  -14.8038   29.3205 C   0  0  0  0  0  0  0  0  0  0  0  0
   10.8537  -14.2276   28.0724 C   0  0  2  0  0  0  0  0  0  0  0  0
    9.5878  -13.4670   28.4006 C   0  0  0  0  0  0  0  0  0  0  0  0
   10.5873  -15.3695   27.1200 C   0  0  2  0  0  0  0  0  0  0  0  0
   10.0032  -14.9525   25.8886 N   0  0  0  0  0  0  0  0  0  0  0  0
    9.6787  -16.3230   27.8238 C   0  0  0  0  0  0  0  0  0  0  0  0
   10.1366  -17.0113   28.7888 O   0  0  0  0  0  0  0  0  0  0  0  0
    8.3629  -16.5120   27.4972 O   0  0  0  0  0  0  0  0  0  0  0  0
  2  1  1  6
  2  7  1  0
  2  3  1  0
  4  3  1  0
  4  5  1  0
  5  6  2  0
  7  8  2  0
  9  5  1  0
 10  7  1  0
 10 11  1  0
 11 12  1  1
 12 13  1  0
 13 14  2  0
 14 15  1  0
 16 15  2  0
 17 16  1  0
 18 13  1  0
 18 17  2  0
 19 25  1  0
 19 11  1  0
 20 19  2  0
 22 21  1  1
 22 24  1  0
 23 22  1  0
 24 25  1  6
 26 28  1  0
 26 24  1  0
 27 26  2  0
M  END
$$$$
