EFV.pdb
     RDKit          3D

 28 28  0  0  1  0  0  0  0  0999 V2000
    9.5668  -18.1081   20.7397 N   0  0  0  0  0  0  0  0  0  0  0  0
   10.7798  -17.3806   20.9812 C   0  0  1  0  0  0  0  0  0  0  0  0
   11.2960  -16.6800   19.7481 C   0  0  0  0  0  0  0  0  0  0  0  0
   11.3063  -17.7060   18.6342 C   0  0  0  0  0  0  0  0  0  0  0  0
   12.5436  -17.7130   17.8683 C   0  0  0  0  0  0  0  0  0  0  0  0
   13.3220  -16.7365   17.8992 O   0  0  0  0  0  0  0  0  0  0  0  0
   10.5685  -16.4603   22.1186 C   0  0  0  0  0  0  0  0  0  0  0  0
   11.4820  -15.6674   22.4395 O   0  0  0  0  0  0  0  0  0  0  0  0
   12.8765  -18.8037   17.0931 O   0  0  0  0  0  0  0  0  0  0  0  0
    9.3744  -16.4158   22.8860 N   0  0  0  0  0  0  0  0  0  0  0  0
    9.1503  -15.4183   23.9443 C   0  0  1  0  0  0  0  0  0  0  0  0
    7.6850  -15.1947   24.0085 C   0  0  0  0  0  0  0  0  0  0  0  0
    7.2120  -14.1171   24.8660 C   0  0  0  0  0  0  0  0  0  0  0  0
    7.5318  -12.7872   24.6525 C   0  0  0  0  0  0  0  0  0  0  0  0
    7.0554  -11.8020   25.4832 C   0  0  0  0  0  0  0  0  0  0  0  0
    6.2426  -12.0809   26.5618 C   0  0  0  0  0  0  0  0  0  0  0  0
    5.9254  -13.4064   26.7722 C   0  0  0  0  0  0  0  0  0  0  0  0
    6.4011  -14.4198   25.9375 C   0  0  0  0  0  0  0  0  0  0  0  0
    9.6126  -16.0292   25.2129 C   0  0  0  0  0  0  0  0  0  0  0  0
    9.7680  -17.2765   25.2641 O   0  0  0  0  0  0  0  0  0  0  0  0
    9.4399  -14.4977   29.2214 C   0  0  0  0  0  0  0  0  0  0  0  0
   10.7887  -14.8275   28.6205 C   0  0  2  0  0  0  0  0  0  0  0  0
   11.4852  -13.5811   28.1203 C   0  0  0  0  0  0  0  0  0  0  0  0
   10.5677  -15.8268   27.5094 C   0  0  2  0  0  0  0  0  0  0  0  0
    9.8915  -15.2765   26.3818 N   0  0  0  0  0  0  0  0  0  0  0  0
    9.7745  -16.9533   28.0857 C   0  0  0  0  0  0  0  0  0  0  0  0
    8.5580  -17.0875   27.7442 O   0  0  0  0  0  0  0  0  0  0  0  0
   10.2741  -17.8687   28.9722 O   0  0  0  0  0  0  0  0  0  0  0  0
  2  1  1  6
  2  7  1  0
  2  3  1  0
  4  3  1  0
  4  5  1  0
  5  6  2  0
  7  8  2  0
  9  5  1  0
 10  7  1  0
 10 11  1  0
 11 12  1  1
 12 13  1  0
 13 14  2  0
 14 15  1  0
 16 15  2  0
 17 16  1  0
 18 13  1  0
 18 17  2  0
 19 25  1  0
 19 11  1  0
 20 19  2  0
 22 21  1  6
 22 24  1  0
 23 22  1  0
 24 25  1  6
 26 28  1  0
 26 24  1  0
 27 26  2  0
M  END
$$$$
