EFV.pdb
     RDKit          3D

 28 28  0  0  1  0  0  0  0  0999 V2000
   10.7181  -16.5521   19.7684 N   0  0  0  0  0  0  0  0  0  0  0  0
    9.4286  -16.6099   20.3950 C   0  0  1  0  0  0  0  0  0  0  0  0
    8.8560  -18.0059   20.4252 C   0  0  0  0  0  0  0  0  0  0  0  0
    9.8983  -18.8922   21.0745 C   0  0  0  0  0  0  0  0  0  0  0  0
    9.4636  -20.2717   21.2341 C   0  0  0  0  0  0  0  0  0  0  0  0
    8.3314  -20.6352   20.8518 O   0  0  0  0  0  0  0  0  0  0  0  0
    9.5200  -15.9974   21.7374 C   0  0  0  0  0  0  0  0  0  0  0  0
   10.6259  -15.9732   22.3227 O   0  0  0  0  0  0  0  0  0  0  0  0
   10.3000  -21.2028   21.8130 O   0  0  0  0  0  0  0  0  0  0  0  0
    8.4145  -15.4237   22.4196 N   0  0  0  0  0  0  0  0  0  0  0  0
    8.5335  -14.8300   23.7607 C   0  0  1  0  0  0  0  0  0  0  0  0
    7.2532  -14.1286   24.0256 C   0  0  0  0  0  0  0  0  0  0  0  0
    7.1215  -13.4410   25.3023 C   0  0  0  0  0  0  0  0  0  0  0  0
    6.3266  -13.9107   26.3338 C   0  0  0  0  0  0  0  0  0  0  0  0
    6.2392  -13.2328   27.5257 C   0  0  0  0  0  0  0  0  0  0  0  0
    6.9301  -12.0618   27.7565 C   0  0  0  0  0  0  0  0  0  0  0  0
    7.7213  -11.5961   26.7275 C   0  0  0  0  0  0  0  0  0  0  0  0
    7.8214  -12.2729   25.5101 C   0  0  0  0  0  0  0  0  0  0  0  0
    8.6872  -15.9541   24.7142 C   0  0  0  0  0  0  0  0  0  0  0  0
    8.3198  -17.1040   24.3604 O   0  0  0  0  0  0  0  0  0  0  0  0
   10.9060  -17.6799   24.6376 C   0  0  0  0  0  0  0  0  0  0  0  0
   11.1974  -17.2668   26.0637 C   0  0  2  0  0  0  0  0  0  0  0  0
   11.8714  -18.3832   26.8305 C   0  0  0  0  0  0  0  0  0  0  0  0
    9.8906  -16.8606   26.7034 C   0  0  2  0  0  0  0  0  0  0  0  0
    9.2308  -15.8013   26.0149 N   0  0  0  0  0  0  0  0  0  0  0  0
   10.1992  -16.4495   28.1055 C   0  0  0  0  0  0  0  0  0  0  0  0
   10.6697  -15.2883   28.3171 O   0  0  0  0  0  0  0  0  0  0  0  0
   10.0077  -17.2496   29.1994 O   0  0  0  0  0  0  0  0  0  0  0  0
  2  1  1  1
  2  7  1  0
  2  3  1  0
  4  3  1  0
  4  5  1  0
  5  6  2  0
  7  8  2  0
  9  5  1  0
 10  7  1  0
 10 11  1  0
 11 12  1  1
 12 13  1  0
 13 14  2  0
 14 15  1  0
 16 15  2  0
 17 16  1  0
 18 13  1  0
 18 17  2  0
 19 25  1  0
 19 11  1  0
 20 19  2  0
 22 21  1  6
 22 24  1  0
 23 22  1  0
 24 25  1  6
 26 28  1  0
 26 24  1  0
 27 26  2  0
M  END
$$$$
