EFV.pdb
     RDKit          3D

 28 28  0  0  1  0  0  0  0  0999 V2000
   11.6024  -16.6892   19.9641 N   0  0  0  0  0  0  0  0  0  0  0  0
   10.6201  -17.2331   20.8574 C   0  0  1  0  0  0  0  0  0  0  0  0
   10.9612  -18.6281   21.3212 C   0  0  0  0  0  0  0  0  0  0  0  0
   12.3949  -18.5891   21.8075 C   0  0  0  0  0  0  0  0  0  0  0  0
   12.8824  -19.8799   22.2697 C   0  0  0  0  0  0  0  0  0  0  0  0
   14.0670  -20.0226   22.6393 O   0  0  0  0  0  0  0  0  0  0  0  0
   10.4157  -16.2895   21.9770 C   0  0  0  0  0  0  0  0  0  0  0  0
   11.3618  -15.5521   22.3336 O   0  0  0  0  0  0  0  0  0  0  0  0
   12.0390  -20.9702   22.3064 O   0  0  0  0  0  0  0  0  0  0  0  0
    9.1930  -16.1622   22.6880 N   0  0  0  0  0  0  0  0  0  0  0  0
    8.9934  -15.1592   23.7460 C   0  0  1  0  0  0  0  0  0  0  0  0
    7.5320  -14.9157   23.8248 C   0  0  0  0  0  0  0  0  0  0  0  0
    7.0843  -13.8107   24.6607 C   0  0  0  0  0  0  0  0  0  0  0  0
    6.2379  -13.9782   25.7432 C   0  0  0  0  0  0  0  0  0  0  0  0
    5.8481  -12.9067   26.5099 C   0  0  0  0  0  0  0  0  0  0  0  0
    6.2736  -11.6218   26.2460 C   0  0  0  0  0  0  0  0  0  0  0  0
    7.1168  -11.4577   25.1672 C   0  0  0  0  0  0  0  0  0  0  0  0
    7.5227  -12.5358   24.3779 C   0  0  0  0  0  0  0  0  0  0  0  0
    9.4606  -15.7731   25.0113 C   0  0  0  0  0  0  0  0  0  0  0  0
    9.6122  -17.0209   25.0602 O   0  0  0  0  0  0  0  0  0  0  0  0
   10.9556  -13.3550   28.0746 C   0  0  0  0  0  0  0  0  0  0  0  0
   10.3575  -14.6683   28.5293 C   0  0  2  0  0  0  0  0  0  0  0  0
   11.1370  -15.2540   29.6860 C   0  0  0  0  0  0  0  0  0  0  0  0
   10.3357  -15.6019   27.3419 C   0  0  2  0  0  0  0  0  0  0  0  0
    9.7484  -15.0227   26.1796 N   0  0  0  0  0  0  0  0  0  0  0  0
    9.5708  -16.8163   27.7544 C   0  0  0  0  0  0  0  0  0  0  0  0
    8.3053  -16.8149   27.6401 O   0  0  0  0  0  0  0  0  0  0  0  0
   10.1466  -17.9521   28.2561 O   0  0  0  0  0  0  0  0  0  0  0  0
  2  1  1  6
  2  7  1  0
  2  3  1  0
  4  3  1  0
  4  5  1  0
  5  6  2  0
  7  8  2  0
  9  5  1  0
 10  7  1  0
 10 11  1  0
 11 12  1  1
 12 13  1  0
 13 14  2  0
 14 15  1  0
 16 15  2  0
 17 16  1  0
 18 13  1  0
 18 17  2  0
 19 25  1  0
 19 11  1  0
 20 19  2  0
 22 21  1  6
 22 24  1  0
 23 22  1  0
 24 25  1  6
 26 28  1  0
 26 24  1  0
 27 26  2  0
M  END
$$$$
