EFV.pdb
     RDKit          3D

 28 28  0  0  1  0  0  0  0  0999 V2000
    9.8700  -18.4416   20.8475 N   0  0  0  0  0  0  0  0  0  0  0  0
   10.8641  -17.4097   20.7715 C   0  0  1  0  0  0  0  0  0  0  0  0
   11.0210  -16.8513   19.3783 C   0  0  0  0  0  0  0  0  0  0  0  0
   10.7711  -17.9952   18.4179 C   0  0  0  0  0  0  0  0  0  0  0  0
   10.9182  -17.6174   17.0204 C   0  0  0  0  0  0  0  0  0  0  0  0
   11.2555  -16.4576   16.7022 O   0  0  0  0  0  0  0  0  0  0  0  0
   10.5535  -16.3700   21.7755 C   0  0  0  0  0  0  0  0  0  0  0  0
   11.2993  -15.3693   21.8680 O   0  0  0  0  0  0  0  0  0  0  0  0
   10.6861  -18.5394   16.0216 O   0  0  0  0  0  0  0  0  0  0  0  0
    9.4432  -16.4330   22.6588 N   0  0  0  0  0  0  0  0  0  0  0  0
    9.1485  -15.3734   23.6364 C   0  0  1  0  0  0  0  0  0  0  0  0
    7.6711  -15.2472   23.6876 C   0  0  0  0  0  0  0  0  0  0  0  0
    7.1208  -14.1929   24.5276 C   0  0  0  0  0  0  0  0  0  0  0  0
    6.2749  -14.4424   25.5947 C   0  0  0  0  0  0  0  0  0  0  0  0
    5.7861  -13.4160   26.3661 C   0  0  0  0  0  0  0  0  0  0  0  0
    6.1074  -12.0972   26.1223 C   0  0  0  0  0  0  0  0  0  0  0  0
    6.9502  -11.8513   25.0588 C   0  0  0  0  0  0  0  0  0  0  0  0
    7.4560  -12.8828   24.2650 C   0  0  0  0  0  0  0  0  0  0  0  0
    9.6491  -15.8495   24.9474 C   0  0  0  0  0  0  0  0  0  0  0  0
   10.1320  -17.0083   25.0277 O   0  0  0  0  0  0  0  0  0  0  0  0
   10.6207  -13.0422   27.8340 C   0  0  0  0  0  0  0  0  0  0  0  0
   10.2077  -14.3805   28.4063 C   0  0  2  0  0  0  0  0  0  0  0  0
   11.0492  -14.7451   29.6094 C   0  0  0  0  0  0  0  0  0  0  0  0
   10.3294  -15.4102   27.3078 C   0  0  2  0  0  0  0  0  0  0  0  0
    9.6127  -15.0619   26.1260 N   0  0  0  0  0  0  0  0  0  0  0  0
    9.8172  -16.7002   27.8588 C   0  0  0  0  0  0  0  0  0  0  0  0
    8.5961  -17.0038   27.6814 O   0  0  0  0  0  0  0  0  0  0  0  0
   10.5838  -17.5956   28.5545 O   0  0  0  0  0  0  0  0  0  0  0  0
  2  1  1  6
  2  7  1  0
  2  3  1  0
  4  3  1  0
  4  5  1  0
  5  6  2  0
  7  8  2  0
  9  5  1  0
 10  7  1  0
 10 11  1  0
 11 12  1  1
 12 13  1  0
 13 14  2  0
 14 15  1  0
 16 15  2  0
 17 16  1  0
 18 13  1  0
 18 17  2  0
 19 25  1  0
 19 11  1  0
 20 19  2  0
 22 21  1  6
 22 24  1  0
 23 22  1  0
 24 25  1  6
 26 28  1  0
 26 24  1  0
 27 26  2  0
M  END
$$$$
