EFV.pdb
     RDKit          3D

 28 28  0  0  1  0  0  0  0  0999 V2000
   10.2504  -16.4933   19.2646 N   0  0  0  0  0  0  0  0  0  0  0  0
    9.6777  -17.1316   20.4151 C   0  0  1  0  0  0  0  0  0  0  0  0
   10.3222  -18.4602   20.7272 C   0  0  0  0  0  0  0  0  0  0  0  0
   10.0113  -19.3807   19.5655 C   0  0  0  0  0  0  0  0  0  0  0  0
   10.5486  -20.7226   19.7334 C   0  0  0  0  0  0  0  0  0  0  0  0
   10.3958  -21.5896   18.8474 O   0  0  0  0  0  0  0  0  0  0  0  0
    9.7188  -16.1914   21.5551 C   0  0  0  0  0  0  0  0  0  0  0  0
   10.7213  -15.4573   21.7044 O   0  0  0  0  0  0  0  0  0  0  0  0
   11.2380  -21.0583   20.8795 O   0  0  0  0  0  0  0  0  0  0  0  0
    8.6758  -16.0638   22.5103 N   0  0  0  0  0  0  0  0  0  0  0  0
    8.7401  -15.1111   23.6299 C   0  0  1  0  0  0  0  0  0  0  0  0
    7.3524  -14.6403   23.8622 C   0  0  0  0  0  0  0  0  0  0  0  0
    7.1237  -13.7827   25.0164 C   0  0  0  0  0  0  0  0  0  0  0  0
    6.6939  -14.2643   26.2410 C   0  0  0  0  0  0  0  0  0  0  0  0
    6.4995  -13.4184   27.3061 C   0  0  0  0  0  0  0  0  0  0  0  0
    6.7193  -12.0601   27.2143 C   0  0  0  0  0  0  0  0  0  0  0  0
    7.1475  -11.5828   25.9934 C   0  0  0  0  0  0  0  0  0  0  0  0
    7.3501  -12.4288   24.9010 C   0  0  0  0  0  0  0  0  0  0  0  0
    9.2079  -15.8717   24.8127 C   0  0  0  0  0  0  0  0  0  0  0  0
    8.8345  -17.0647   24.9530 O   0  0  0  0  0  0  0  0  0  0  0  0
   12.7551  -14.9233   26.6834 C   0  0  0  0  0  0  0  0  0  0  0  0
   11.6769  -15.3659   27.6482 C   0  0  2  0  0  0  0  0  0  0  0  0
   12.2493  -16.2282   28.7515 C   0  0  0  0  0  0  0  0  0  0  0  0
   10.6216  -16.1015   26.8561 C   0  0  2  0  0  0  0  0  0  0  0  0
   10.0611  -15.3217   25.8029 N   0  0  0  0  0  0  0  0  0  0  0  0
    9.5554  -16.5074   27.8195 C   0  0  0  0  0  0  0  0  0  0  0  0
    9.5088  -17.7146   28.2136 O   0  0  0  0  0  0  0  0  0  0  0  0
    8.6068  -15.6557   28.3178 O   0  0  0  0  0  0  0  0  0  0  0  0
  2  1  1  6
  2  7  1  0
  2  3  1  0
  4  3  1  0
  4  5  1  0
  5  6  2  0
  7  8  2  0
  9  5  1  0
 10  7  1  0
 10 11  1  0
 11 12  1  1
 12 13  1  0
 13 14  2  0
 14 15  1  0
 16 15  2  0
 17 16  1  0
 18 13  1  0
 18 17  2  0
 19 25  1  0
 19 11  1  0
 20 19  2  0
 22 21  1  6
 22 24  1  0
 23 22  1  0
 24 25  1  6
 26 28  1  0
 26 24  1  0
 27 26  2  0
M  END
$$$$
