GNK.pdb
     RDKit          3D

 22 21  0  0  1  0  0  0  0  0999 V2000
    9.2822  -17.6187   14.3276 N   0  0  0  0  0  0  0  0  0  0  0  0
    8.7031  -17.6808   15.6579 C   0  0  0  0  0  0  0  0  0  0  0  0
    9.4590  -16.7852   16.6000 C   0  0  0  0  0  0  0  0  0  0  0  0
   10.6909  -16.8779   16.7479 O   0  0  0  0  0  0  0  0  0  0  0  0
    8.4958  -11.5162   19.5385 N   0  0  0  0  0  0  0  0  0  0  0  0
    8.8386  -12.8948   19.7013 C   0  0  0  0  0  0  0  0  0  0  0  0
    9.6483  -13.1995   20.6021 O   0  0  0  0  0  0  0  0  0  0  0  0
    8.2415  -13.9051   18.8224 C   0  0  0  0  0  0  0  0  0  0  0  0
    9.2727  -14.8946   18.2809 C   0  0  2  0  0  0  0  0  0  0  0  0
    8.7209  -15.8170   17.3258 N   0  0  0  0  0  0  0  0  0  0  0  0
    9.9065  -15.5886   19.4155 C   0  0  0  0  0  0  0  0  0  0  0  0
    9.1584  -16.2437   20.1752 O   0  0  0  0  0  0  0  0  0  0  0  0
   11.2991  -15.5374   19.6638 N   0  0  0  0  0  0  0  0  0  0  0  0
   11.9449  -16.1103   20.8244 C   0  0  1  0  0  0  0  0  0  0  0  0
   12.6753  -17.3209   20.3750 C   0  0  0  0  0  0  0  0  0  0  0  0
   13.1688  -17.3190   18.9707 C   0  0  0  0  0  0  0  0  0  0  0  0
   13.9271  -18.6423   18.7736 C   0  0  0  0  0  0  0  0  0  0  0  0
   14.4145  -18.7578   17.3457 C   0  0  0  0  0  0  0  0  0  0  0  0
   15.2349  -19.9363   17.1706 N   0  0  0  0  0  0  0  0  0  0  0  0
   12.7488  -15.1190   21.5450 C   0  0  0  0  0  0  0  0  0  0  0  0
   13.2906  -15.3390   22.7725 O   0  0  0  0  0  0  0  0  0  0  0  0
   12.9592  -13.9968   21.0078 O   0  0  0  0  0  0  0  0  0  0  0  0
  2  3  1  0
  2  1  1  0
  3  4  2  0
  6  5  1  0
  7  6  2  0
  8  6  1  0
  9  8  1  1
  9 11  1  0
 10  9  1  0
 10  3  1  0
 11 12  2  0
 11 13  1  0
 13 14  1  0
 14 15  1  6
 15 16  1  0
 16 17  1  0
 17 18  1  0
 19 18  1  0
 20 21  1  0
 20 14  1  0
 22 20  2  0
M  END
$$$$
