GNK.pdb
     RDKit          3D

 22 21  0  0  1  0  0  0  0  0999 V2000
    9.9128  -24.7408   22.9797 N   0  0  0  0  0  0  0  0  0  0  0  0
    9.5956  -23.5311   23.7179 C   0  0  0  0  0  0  0  0  0  0  0  0
   10.7064  -23.1953   24.6742 C   0  0  0  0  0  0  0  0  0  0  0  0
   11.3483  -24.0782   25.2713 O   0  0  0  0  0  0  0  0  0  0  0  0
   12.8131  -19.1966   23.0023 N   0  0  0  0  0  0  0  0  0  0  0  0
   13.2436  -20.0479   24.0676 C   0  0  0  0  0  0  0  0  0  0  0  0
   14.1873  -20.8361   23.8487 O   0  0  0  0  0  0  0  0  0  0  0  0
   12.5796  -19.9780   25.3729 C   0  0  0  0  0  0  0  0  0  0  0  0
   11.9889  -21.3203   25.8030 C   0  0  2  0  0  0  0  0  0  0  0  0
   11.0087  -21.8259   24.8804 N   0  0  0  0  0  0  0  0  0  0  0  0
   11.4459  -21.1854   27.1660 C   0  0  0  0  0  0  0  0  0  0  0  0
   10.3211  -20.6493   27.2828 O   0  0  0  0  0  0  0  0  0  0  0  0
   12.1403  -21.6329   28.3152 N   0  0  0  0  0  0  0  0  0  0  0  0
   11.5940  -21.6295   29.6545 C   0  0  1  0  0  0  0  0  0  0  0  0
   12.1978  -22.7712   30.3845 C   0  0  0  0  0  0  0  0  0  0  0  0
   11.2998  -23.5275   31.2995 C   0  0  0  0  0  0  0  0  0  0  0  0
   12.1767  -24.5788   32.0000 C   0  0  0  0  0  0  0  0  0  0  0  0
   11.3150  -25.5215   32.8115 C   0  0  0  0  0  0  0  0  0  0  0  0
   12.0799  -26.6612   33.2683 N   0  0  0  0  0  0  0  0  0  0  0  0
   11.7390  -20.3208   30.2983 C   0  0  0  0  0  0  0  0  0  0  0  0
   11.1689  -20.0022   31.4909 O   0  0  0  0  0  0  0  0  0  0  0  0
   12.4295  -19.4327   29.7268 O   0  0  0  0  0  0  0  0  0  0  0  0
  2  3  1  0
  2  1  1  0
  3  4  2  0
  6  5  1  0
  7  6  2  0
  8  6  1  0
  9  8  1  6
  9 11  1  0
 10  9  1  0
 10  3  1  0
 11 12  2  0
 11 13  1  0
 13 14  1  0
 14 15  1  1
 15 16  1  0
 16 17  1  0
 17 18  1  0
 19 18  1  0
 20 21  1  0
 20 14  1  0
 22 20  2  0
M  END
$$$$
