GNK.pdb
     RDKit          3D

 22 21  0  0  1  0  0  0  0  0999 V2000
    7.1195  -19.4039   18.2969 N   0  0  0  0  0  0  0  0  0  0  0  0
    6.7712  -18.6947   19.5154 C   0  0  0  0  0  0  0  0  0  0  0  0
    7.8885  -17.7747   19.9230 C   0  0  0  0  0  0  0  0  0  0  0  0
    9.0539  -18.1836   20.0742 O   0  0  0  0  0  0  0  0  0  0  0  0
    7.7452  -12.0271   19.0992 N   0  0  0  0  0  0  0  0  0  0  0  0
    7.7267  -13.4445   19.2879 C   0  0  0  0  0  0  0  0  0  0  0  0
    7.5705  -14.1716   18.2845 O   0  0  0  0  0  0  0  0  0  0  0  0
    7.8895  -14.0049   20.6329 C   0  0  0  0  0  0  0  0  0  0  0  0
    8.4913  -15.4096   20.6140 C   0  0  2  0  0  0  0  0  0  0  0  0
    7.5755  -16.4083   20.1328 N   0  0  0  0  0  0  0  0  0  0  0  0
    8.9970  -15.7278   21.9608 C   0  0  0  0  0  0  0  0  0  0  0  0
    8.2021  -15.5896   22.9174 O   0  0  0  0  0  0  0  0  0  0  0  0
   10.3194  -16.1737   22.1971 N   0  0  0  0  0  0  0  0  0  0  0  0
   10.8352  -16.5543   23.4938 C   0  0  1  0  0  0  0  0  0  0  0  0
   10.7617  -18.0331   23.5854 C   0  0  0  0  0  0  0  0  0  0  0  0
   11.2834  -18.6505   24.8354 C   0  0  0  0  0  0  0  0  0  0  0  0
   11.1841  -20.1731   24.6437 C   0  0  0  0  0  0  0  0  0  0  0  0
   11.5725  -20.8871   25.9201 C   0  0  0  0  0  0  0  0  0  0  0  0
   11.4043  -22.3176   25.7869 N   0  0  0  0  0  0  0  0  0  0  0  0
   12.1556  -15.9708   23.7471 C   0  0  0  0  0  0  0  0  0  0  0  0
   12.9526  -15.4615   22.7702 O   0  0  0  0  0  0  0  0  0  0  0  0
   12.5879  -15.9304   24.9318 O   0  0  0  0  0  0  0  0  0  0  0  0
  2  3  1  0
  2  1  1  0
  3  4  2  0
  6  5  1  0
  7  6  2  0
  8  6  1  0
  9  8  1  1
  9 11  1  0
 10  9  1  0
 10  3  1  0
 11 12  2  0
 11 13  1  0
 13 14  1  0
 14 15  1  6
 15 16  1  0
 16 17  1  0
 17 18  1  0
 19 18  1  0
 20 21  1  0
 20 14  1  0
 22 20  2  0
M  END
$$$$
