GNK.pdb
     RDKit          3D

 22 21  0  0  1  0  0  0  0  0999 V2000
    8.3294  -19.1613   17.0846 N   0  0  0  0  0  0  0  0  0  0  0  0
    7.5052  -18.3016   17.9157 C   0  0  0  0  0  0  0  0  0  0  0  0
    8.3690  -17.4079   18.7620 C   0  0  0  0  0  0  0  0  0  0  0  0
    9.5981  -17.5776   18.8536 O   0  0  0  0  0  0  0  0  0  0  0  0
    6.2650  -12.3233   19.4618 N   0  0  0  0  0  0  0  0  0  0  0  0
    7.2806  -13.3289   19.4170 C   0  0  0  0  0  0  0  0  0  0  0  0
    7.9259  -13.4695   18.3569 O   0  0  0  0  0  0  0  0  0  0  0  0
    7.5393  -14.1595   20.5972 C   0  0  0  0  0  0  0  0  0  0  0  0
    8.4088  -15.3755   20.2794 C   0  0  2  0  0  0  0  0  0  0  0  0
    7.7372  -16.3501   19.4628 N   0  0  0  0  0  0  0  0  0  0  0  0
    8.8946  -15.9555   21.5437 C   0  0  0  0  0  0  0  0  0  0  0  0
    8.0697  -16.5958   22.2332 O   0  0  0  0  0  0  0  0  0  0  0  0
   10.2309  -15.8136   21.9881 N   0  0  0  0  0  0  0  0  0  0  0  0
   10.7577  -16.4044   23.1988 C   0  0  1  0  0  0  0  0  0  0  0  0
   12.2375  -16.3841   23.0966 C   0  0  0  0  0  0  0  0  0  0  0  0
   12.9916  -17.0228   24.2098 C   0  0  0  0  0  0  0  0  0  0  0  0
   14.4701  -17.0297   23.7869 C   0  0  0  0  0  0  0  0  0  0  0  0
   15.3054  -17.7568   24.8181 C   0  0  0  0  0  0  0  0  0  0  0  0
   16.6825  -17.8649   24.3887 N   0  0  0  0  0  0  0  0  0  0  0  0
   10.1990  -15.7756   24.3991 C   0  0  0  0  0  0  0  0  0  0  0  0
    9.5348  -14.5893   24.3867 O   0  0  0  0  0  0  0  0  0  0  0  0
   10.3326  -16.3569   25.5110 O   0  0  0  0  0  0  0  0  0  0  0  0
  2  3  1  0
  2  1  1  0
  3  4  2  0
  6  5  1  0
  7  6  2  0
  8  6  1  0
  9  8  1  1
  9 11  1  0
 10  9  1  0
 10  3  1  0
 11 12  2  0
 11 13  1  0
 13 14  1  0
 14 15  1  6
 15 16  1  0
 16 17  1  0
 17 18  1  0
 19 18  1  0
 20 21  1  0
 20 14  1  0
 22 20  2  0
M  END
$$$$
