GNK.pdb
     RDKit          3D

 22 21  0  0  1  0  0  0  0  0999 V2000
    7.8780  -12.9519   17.6233 N   0  0  0  0  0  0  0  0  0  0  0  0
    9.0427  -13.5235   18.2759 C   0  0  0  0  0  0  0  0  0  0  0  0
    8.6203  -14.4712   19.3642 C   0  0  0  0  0  0  0  0  0  0  0  0
    7.4775  -14.4400   19.8552 O   0  0  0  0  0  0  0  0  0  0  0  0
    8.7386  -19.3938   19.8823 N   0  0  0  0  0  0  0  0  0  0  0  0
    9.7869  -18.4400   19.6924 C   0  0  0  0  0  0  0  0  0  0  0  0
   10.3123  -18.3573   18.5623 O   0  0  0  0  0  0  0  0  0  0  0  0
   10.2153  -17.5927   20.8097 C   0  0  0  0  0  0  0  0  0  0  0  0
    9.3846  -16.3154   20.9291 C   0  0  2  0  0  0  0  0  0  0  0  0
    9.5719  -15.4162   19.8228 N   0  0  0  0  0  0  0  0  0  0  0  0
    9.6856  -15.6721   22.2200 C   0  0  0  0  0  0  0  0  0  0  0  0
   10.8659  -15.3043   22.4142 O   0  0  0  0  0  0  0  0  0  0  0  0
    8.7049  -15.4634   23.2191 N   0  0  0  0  0  0  0  0  0  0  0  0
    8.9443  -14.7780   24.4702 C   0  0  1  0  0  0  0  0  0  0  0  0
    7.7192  -14.0080   24.7973 C   0  0  0  0  0  0  0  0  0  0  0  0
    7.7747  -13.1520   26.0138 C   0  0  0  0  0  0  0  0  0  0  0  0
    6.3755  -12.5348   26.1765 C   0  0  0  0  0  0  0  0  0  0  0  0
    6.3250  -11.6749   27.4206 C   0  0  0  0  0  0  0  0  0  0  0  0
    4.9890  -11.1690   27.6483 N   0  0  0  0  0  0  0  0  0  0  0  0
    9.4105  -15.6960   25.5133 C   0  0  0  0  0  0  0  0  0  0  0  0
   10.1526  -15.3040   26.5830 O   0  0  0  0  0  0  0  0  0  0  0  0
    9.1122  -16.9191   25.4278 O   0  0  0  0  0  0  0  0  0  0  0  0
  2  3  1  0
  2  1  1  0
  3  4  2  0
  6  5  1  0
  7  6  2  0
  8  6  1  0
  9  8  1  6
  9 11  1  0
 10  9  1  0
 10  3  1  0
 11 12  2  0
 11 13  1  0
 13 14  1  0
 14 15  1  1
 15 16  1  0
 16 17  1  0
 17 18  1  0
 19 18  1  0
 20 21  1  0
 20 14  1  0
 22 20  2  0
M  END
$$$$
