GNK.pdb
     RDKit          3D

 22 21  0  0  1  0  0  0  0  0999 V2000
    3.4608  -19.0798   20.9864 N   0  0  0  0  0  0  0  0  0  0  0  0
    3.6306  -17.6881   21.3653 C   0  0  0  0  0  0  0  0  0  0  0  0
    5.0810  -17.2987   21.2908 C   0  0  0  0  0  0  0  0  0  0  0  0
    5.9895  -18.1489   21.2783 O   0  0  0  0  0  0  0  0  0  0  0  0
    8.1824  -12.3098   19.3781 N   0  0  0  0  0  0  0  0  0  0  0  0
    8.0005  -13.6044   19.9574 C   0  0  0  0  0  0  0  0  0  0  0  0
    8.9345  -14.4286   19.8658 O   0  0  0  0  0  0  0  0  0  0  0  0
    6.7427  -13.9313   20.6361 C   0  0  0  0  0  0  0  0  0  0  0  0
    6.7175  -15.3646   21.1660 C   0  0  2  0  0  0  0  0  0  0  0  0
    5.3916  -15.9170   21.2334 N   0  0  0  0  0  0  0  0  0  0  0  0
    7.3969  -15.3998   22.4729 C   0  0  0  0  0  0  0  0  0  0  0  0
    6.9325  -14.6717   23.3786 O   0  0  0  0  0  0  0  0  0  0  0  0
    8.5283  -16.2116   22.7266 N   0  0  0  0  0  0  0  0  0  0  0  0
    9.2554  -16.2343   23.9769 C   0  0  1  0  0  0  0  0  0  0  0  0
    8.8610  -17.4689   24.6987 C   0  0  0  0  0  0  0  0  0  0  0  0
    8.9778  -17.4401   26.1823 C   0  0  0  0  0  0  0  0  0  0  0  0
    8.5129  -18.8178   26.6829 C   0  0  0  0  0  0  0  0  0  0  0  0
    8.5927  -18.8796   28.1928 C   0  0  0  0  0  0  0  0  0  0  0  0
    8.2177  -20.1891   28.6795 N   0  0  0  0  0  0  0  0  0  0  0  0
   10.6956  -16.0551   23.7725 C   0  0  0  0  0  0  0  0  0  0  0  0
   11.5181  -15.4743   24.6861 O   0  0  0  0  0  0  0  0  0  0  0  0
   11.2141  -16.4592   22.6955 O   0  0  0  0  0  0  0  0  0  0  0  0
  2  3  1  0
  2  1  1  0
  3  4  2  0
  6  5  1  0
  7  6  2  0
  8  6  1  0
  9  8  1  1
  9 11  1  0
 10  9  1  0
 10  3  1  0
 11 12  2  0
 11 13  1  0
 13 14  1  0
 14 15  1  6
 15 16  1  0
 16 17  1  0
 17 18  1  0
 19 18  1  0
 20 21  1  0
 20 14  1  0
 22 20  2  0
M  END
$$$$
