GNK.pdb
     RDKit          3D

 22 21  0  0  1  0  0  0  0  0999 V2000
   -5.4862  -24.2154   25.2379 N   0  0  0  0  0  0  0  0  0  0  0  0
   -5.0383  -25.1948   26.2121 C   0  0  0  0  0  0  0  0  0  0  0  0
   -5.4870  -24.8027   27.5927 C   0  0  0  0  0  0  0  0  0  0  0  0
   -4.8402  -25.1179   28.6078 O   0  0  0  0  0  0  0  0  0  0  0  0
   -8.0006  -21.1786   30.9113 N   0  0  0  0  0  0  0  0  0  0  0  0
   -8.7990  -22.0162   30.0712 C   0  0  0  0  0  0  0  0  0  0  0  0
   -9.9435  -22.3265   30.4635 O   0  0  0  0  0  0  0  0  0  0  0  0
   -8.2664  -22.4847   28.7881 C   0  0  0  0  0  0  0  0  0  0  0  0
   -7.3011  -23.6588   28.9474 C   0  0  2  0  0  0  0  0  0  0  0  0
   -6.6838  -24.0523   27.7097 N   0  0  0  0  0  0  0  0  0  0  0  0
   -8.0150  -24.7772   29.5879 C   0  0  0  0  0  0  0  0  0  0  0  0
   -8.8524  -25.3943   28.8922 O   0  0  0  0  0  0  0  0  0  0  0  0
   -7.7868  -25.1633   30.9304 N   0  0  0  0  0  0  0  0  0  0  0  0
   -8.3498  -26.3431   31.5495 C   0  0  1  0  0  0  0  0  0  0  0  0
   -7.2856  -26.9624   32.3769 C   0  0  0  0  0  0  0  0  0  0  0  0
   -6.6206  -28.1693   31.8139 C   0  0  0  0  0  0  0  0  0  0  0  0
   -5.5072  -28.5544   32.8022 C   0  0  0  0  0  0  0  0  0  0  0  0
   -4.8174  -29.8213   32.3449 C   0  0  0  0  0  0  0  0  0  0  0  0
   -3.6577  -30.1049   33.1616 N   0  0  0  0  0  0  0  0  0  0  0  0
   -9.6018  -26.0452   32.2508 C   0  0  0  0  0  0  0  0  0  0  0  0
  -10.6706  -26.8854   32.2711 O   0  0  0  0  0  0  0  0  0  0  0  0
   -9.7066  -24.9540   32.8757 O   0  0  0  0  0  0  0  0  0  0  0  0
  2  3  1  0
  2  1  1  0
  3  4  2  0
  6  5  1  0
  7  6  2  0
  8  6  1  0
  9  8  1  6
  9 11  1  0
 10  9  1  0
 10  3  1  0
 11 12  2  0
 11 13  1  0
 13 14  1  0
 14 15  1  1
 15 16  1  0
 16 17  1  0
 17 18  1  0
 19 18  1  0
 20 21  1  0
 20 14  1  0
 22 20  2  0
M  END
$$$$
