GNK.pdb
     RDKit          3D

 22 21  0  0  1  0  0  0  0  0999 V2000
    5.1168  -19.7181   13.9061 N   0  0  0  0  0  0  0  0  0  0  0  0
    6.2371  -18.8449   14.2087 C   0  0  0  0  0  0  0  0  0  0  0  0
    7.4680  -19.6563   14.5044 C   0  0  0  0  0  0  0  0  0  0  0  0
    7.4061  -20.8702   14.7705 O   0  0  0  0  0  0  0  0  0  0  0  0
   11.9838  -20.5647   12.1150 N   0  0  0  0  0  0  0  0  0  0  0  0
   11.0719  -19.5555   12.5562 C   0  0  0  0  0  0  0  0  0  0  0  0
   10.2363  -19.1165   11.7383 O   0  0  0  0  0  0  0  0  0  0  0  0
   11.1355  -19.0660   13.9367 C   0  0  0  0  0  0  0  0  0  0  0  0
    9.9867  -19.5896   14.7981 C   0  0  2  0  0  0  0  0  0  0  0  0
    8.7201  -18.9928   14.4708 N   0  0  0  0  0  0  0  0  0  0  0  0
   10.3341  -19.4030   16.2177 C   0  0  0  0  0  0  0  0  0  0  0  0
   10.3893  -18.2273   16.6430 O   0  0  0  0  0  0  0  0  0  0  0  0
   10.5995  -20.4854   17.0902 N   0  0  0  0  0  0  0  0  0  0  0  0
   10.9995  -20.3428   18.4729 C   0  0  1  0  0  0  0  0  0  0  0  0
   10.6151  -21.5900   19.1783 C   0  0  0  0  0  0  0  0  0  0  0  0
   10.8726  -21.6336   20.6438 C   0  0  0  0  0  0  0  0  0  0  0  0
   10.3768  -23.0048   21.1327 C   0  0  0  0  0  0  0  0  0  0  0  0
   10.5936  -23.1375   22.6244 C   0  0  0  0  0  0  0  0  0  0  0  0
    9.9813  -24.3456   23.1327 N   0  0  0  0  0  0  0  0  0  0  0  0
   12.4080  -19.9566   18.5951 C   0  0  0  0  0  0  0  0  0  0  0  0
   12.9002  -19.2258   19.6308 O   0  0  0  0  0  0  0  0  0  0  0  0
   13.2197  -20.3170   17.6988 O   0  0  0  0  0  0  0  0  0  0  0  0
  2  3  1  0
  2  1  1  0
  3  4  2  0
  6  5  1  0
  7  6  2  0
  8  6  1  0
  9  8  1  6
  9 11  1  0
 10  9  1  0
 10  3  1  0
 11 12  2  0
 11 13  1  0
 13 14  1  0
 14 15  1  1
 15 16  1  0
 16 17  1  0
 17 18  1  0
 19 18  1  0
 20 21  1  0
 20 14  1  0
 22 20  2  0
M  END
$$$$
