GNK.pdb
     RDKit          3D

 22 21  0  0  1  0  0  0  0  0999 V2000
    3.6453  -18.5499   21.4531 N   0  0  0  0  0  0  0  0  0  0  0  0
    3.9497  -17.1306   21.4942 C   0  0  0  0  0  0  0  0  0  0  0  0
    5.4241  -16.9059   21.3031 C   0  0  0  0  0  0  0  0  0  0  0  0
    6.2285  -17.8522   21.2290 O   0  0  0  0  0  0  0  0  0  0  0  0
    7.3346  -12.6723   18.3162 N   0  0  0  0  0  0  0  0  0  0  0  0
    7.6624  -13.8118   19.1154 C   0  0  0  0  0  0  0  0  0  0  0  0
    8.1211  -14.8225   18.5426 O   0  0  0  0  0  0  0  0  0  0  0  0
    7.4572  -13.7702   20.5666 C   0  0  0  0  0  0  0  0  0  0  0  0
    7.2596  -15.1599   21.1710 C   0  0  2  0  0  0  0  0  0  0  0  0
    5.8811  -15.5676   21.2072 N   0  0  0  0  0  0  0  0  0  0  0  0
    7.8788  -15.1890   22.5077 C   0  0  0  0  0  0  0  0  0  0  0  0
    7.4308  -14.3926   23.3627 O   0  0  0  0  0  0  0  0  0  0  0  0
    8.9363  -16.0679   22.8432 N   0  0  0  0  0  0  0  0  0  0  0  0
    9.5892  -16.1075   24.1333 C   0  0  1  0  0  0  0  0  0  0  0  0
    9.2534  -17.4084   24.7624 C   0  0  0  0  0  0  0  0  0  0  0  0
    9.8534  -17.6780   26.0977 C   0  0  0  0  0  0  0  0  0  0  0  0
    9.5587  -19.1530   26.4180 C   0  0  0  0  0  0  0  0  0  0  0  0
   10.0239  -19.4867   27.8187 C   0  0  0  0  0  0  0  0  0  0  0  0
    9.6980  -20.8536   28.1624 N   0  0  0  0  0  0  0  0  0  0  0  0
   11.0200  -15.8073   24.0289 C   0  0  0  0  0  0  0  0  0  0  0  0
   11.7915  -15.4448   25.0882 O   0  0  0  0  0  0  0  0  0  0  0  0
   11.5797  -15.8878   22.9009 O   0  0  0  0  0  0  0  0  0  0  0  0
  2  3  1  0
  2  1  1  0
  3  4  2  0
  6  5  1  0
  7  6  2  0
  8  6  1  0
  9  8  1  1
  9 11  1  0
 10  9  1  0
 10  3  1  0
 11 12  2  0
 11 13  1  0
 13 14  1  0
 14 15  1  6
 15 16  1  0
 16 17  1  0
 17 18  1  0
 19 18  1  0
 20 21  1  0
 20 14  1  0
 22 20  2  0
M  END
$$$$
