GNK.pdb
     RDKit          3D

 22 21  0  0  1  0  0  0  0  0999 V2000
    3.7454  -18.3823   21.5330 N   0  0  0  0  0  0  0  0  0  0  0  0
    4.0913  -16.9807   21.6907 C   0  0  0  0  0  0  0  0  0  0  0  0
    5.5830  -16.8002   21.6332 C   0  0  0  0  0  0  0  0  0  0  0  0
    6.3659  -17.7593   21.7573 O   0  0  0  0  0  0  0  0  0  0  0  0
    7.4451  -12.6440   18.5036 N   0  0  0  0  0  0  0  0  0  0  0  0
    7.7326  -13.8178   19.2680 C   0  0  0  0  0  0  0  0  0  0  0  0
    7.9992  -14.8719   18.6534 O   0  0  0  0  0  0  0  0  0  0  0  0
    7.7095  -13.7599   20.7328 C   0  0  0  0  0  0  0  0  0  0  0  0
    7.4728  -15.1287   21.3701 C   0  0  2  0  0  0  0  0  0  0  0  0
    6.0821  -15.4892   21.4301 N   0  0  0  0  0  0  0  0  0  0  0  0
    8.1060  -15.1491   22.7004 C   0  0  0  0  0  0  0  0  0  0  0  0
    7.6648  -14.3493   23.5559 O   0  0  0  0  0  0  0  0  0  0  0  0
    9.1691  -16.0236   23.0296 N   0  0  0  0  0  0  0  0  0  0  0  0
    9.8353  -16.0550   24.3131 C   0  0  1  0  0  0  0  0  0  0  0  0
    9.4106  -17.2967   25.0048 C   0  0  0  0  0  0  0  0  0  0  0  0
    9.9203  -17.4967   26.3890 C   0  0  0  0  0  0  0  0  0  0  0  0
    9.4749  -18.9047   26.8181 C   0  0  0  0  0  0  0  0  0  0  0  0
   10.0214  -19.2299   28.1913 C   0  0  0  0  0  0  0  0  0  0  0  0
    9.7076  -20.5914   28.5660 N   0  0  0  0  0  0  0  0  0  0  0  0
   11.2831  -15.8701   24.1797 C   0  0  0  0  0  0  0  0  0  0  0  0
   12.0978  -15.5409   25.2173 O   0  0  0  0  0  0  0  0  0  0  0  0
   11.8162  -16.0239   23.0464 O   0  0  0  0  0  0  0  0  0  0  0  0
  2  3  1  0
  2  1  1  0
  3  4  2  0
  6  5  1  0
  7  6  2  0
  8  6  1  0
  9  8  1  1
  9 11  1  0
 10  9  1  0
 10  3  1  0
 11 12  2  0
 11 13  1  0
 13 14  1  0
 14 15  1  6
 15 16  1  0
 16 17  1  0
 17 18  1  0
 19 18  1  0
 20 21  1  0
 20 14  1  0
 22 20  2  0
M  END
$$$$
