GNK.pdb
     RDKit          3D

 22 21  0  0  1  0  0  0  0  0999 V2000
    8.4826  -14.3836   17.8455 N   0  0  0  0  0  0  0  0  0  0  0  0
    9.5537  -13.9649   18.7324 C   0  0  0  0  0  0  0  0  0  0  0  0
   10.2410  -15.1637   19.3252 C   0  0  0  0  0  0  0  0  0  0  0  0
    9.7978  -16.3165   19.1736 O   0  0  0  0  0  0  0  0  0  0  0  0
   14.8348  -16.5358   18.5799 N   0  0  0  0  0  0  0  0  0  0  0  0
   14.3263  -15.3988   19.2823 C   0  0  0  0  0  0  0  0  0  0  0  0
   14.3834  -14.2843   18.7214 O   0  0  0  0  0  0  0  0  0  0  0  0
   13.7573  -15.5627   20.6235 C   0  0  0  0  0  0  0  0  0  0  0  0
   12.2854  -15.9730   20.5901 C   0  0  2  0  0  0  0  0  0  0  0  0
   11.4255  -14.9436   20.0719 N   0  0  0  0  0  0  0  0  0  0  0  0
   11.8810  -16.4018   21.9404 C   0  0  0  0  0  0  0  0  0  0  0  0
   11.8750  -15.5308   22.8390 O   0  0  0  0  0  0  0  0  0  0  0  0
   11.5089  -17.7337   22.2420 N   0  0  0  0  0  0  0  0  0  0  0  0
   11.0892  -18.1901   23.5488 C   0  0  1  0  0  0  0  0  0  0  0  0
   10.6396  -19.5966   23.4058 C   0  0  0  0  0  0  0  0  0  0  0  0
   10.2412  -20.2997   24.6558 C   0  0  0  0  0  0  0  0  0  0  0  0
    9.7168  -21.6813   24.2305 C   0  0  0  0  0  0  0  0  0  0  0  0
    9.4356  -22.5319   25.4501 C   0  0  0  0  0  0  0  0  0  0  0  0
    8.9934  -23.8555   25.0694 N   0  0  0  0  0  0  0  0  0  0  0  0
   12.1202  -17.9569   24.5640 C   0  0  0  0  0  0  0  0  0  0  0  0
   11.8440  -17.6539   25.8604 O   0  0  0  0  0  0  0  0  0  0  0  0
   13.3344  -18.0407   24.2312 O   0  0  0  0  0  0  0  0  0  0  0  0
  2  3  1  0
  2  1  1  0
  3  4  2  0
  6  5  1  0
  7  6  2  0
  8  6  1  0
  9  8  1  1
  9 11  1  0
 10  9  1  0
 10  3  1  0
 11 12  2  0
 11 13  1  0
 13 14  1  0
 14 15  1  6
 15 16  1  0
 16 17  1  0
 17 18  1  0
 19 18  1  0
 20 21  1  0
 20 14  1  0
 22 20  2  0
M  END
$$$$
