GNK.pdb
     RDKit          3D

 22 21  0  0  1  0  0  0  0  0999 V2000
   10.3099  -20.0706   19.4033 N   0  0  0  0  0  0  0  0  0  0  0  0
   10.8546  -21.3479   19.8283 C   0  0  0  0  0  0  0  0  0  0  0  0
   10.5241  -21.6032   21.2728 C   0  0  0  0  0  0  0  0  0  0  0  0
    9.9158  -20.7671   21.9650 O   0  0  0  0  0  0  0  0  0  0  0  0
    8.7053  -25.8346   21.7910 N   0  0  0  0  0  0  0  0  0  0  0  0
    8.9564  -24.9829   22.9118 C   0  0  0  0  0  0  0  0  0  0  0  0
    7.9772  -24.4846   23.5058 O   0  0  0  0  0  0  0  0  0  0  0  0
   10.3353  -24.7175   23.3336 C   0  0  0  0  0  0  0  0  0  0  0  0
   10.7167  -23.2438   23.1979 C   0  0  2  0  0  0  0  0  0  0  0  0
   10.9288  -22.8402   21.8341 N   0  0  0  0  0  0  0  0  0  0  0  0
   11.8953  -22.9785   24.0414 C   0  0  0  0  0  0  0  0  0  0  0  0
   13.0133  -22.9823   23.4791 O   0  0  0  0  0  0  0  0  0  0  0  0
   11.8018  -22.7261   25.4310 N   0  0  0  0  0  0  0  0  0  0  0  0
   12.9250  -22.3946   26.2798 C   0  0  1  0  0  0  0  0  0  0  0  0
   12.3793  -21.9231   27.5762 C   0  0  0  0  0  0  0  0  0  0  0  0
   13.3701  -21.6019   28.6396 C   0  0  0  0  0  0  0  0  0  0  0  0
   12.5693  -21.0404   29.8263 C   0  0  0  0  0  0  0  0  0  0  0  0
   13.4957  -20.7290   30.9816 C   0  0  0  0  0  0  0  0  0  0  0  0
   12.7461  -20.4216   32.1800 N   0  0  0  0  0  0  0  0  0  0  0  0
   13.8881  -23.4963   26.3634 C   0  0  0  0  0  0  0  0  0  0  0  0
   13.5284  -24.8056   26.4350 O   0  0  0  0  0  0  0  0  0  0  0  0
   15.1214  -23.2298   26.3679 O   0  0  0  0  0  0  0  0  0  0  0  0
  2  3  1  0
  2  1  1  0
  3  4  2  0
  6  5  1  0
  7  6  2  0
  8  6  1  0
  9  8  1  6
  9 11  1  0
 10  9  1  0
 10  3  1  0
 11 12  2  0
 11 13  1  0
 13 14  1  0
 14 15  1  1
 15 16  1  0
 16 17  1  0
 17 18  1  0
 19 18  1  0
 20 21  1  0
 20 14  1  0
 22 20  2  0
M  END
$$$$
