GNK.pdb
     RDKit          3D

 22 21  0  0  1  0  0  0  0  0999 V2000
    4.5955  -20.5475   16.6164 N   0  0  0  0  0  0  0  0  0  0  0  0
    4.3240  -21.0499   17.9516 C   0  0  0  0  0  0  0  0  0  0  0  0
    4.2806  -19.9162   18.9384 C   0  0  0  0  0  0  0  0  0  0  0  0
    4.7923  -18.8095   18.6903 O   0  0  0  0  0  0  0  0  0  0  0  0
    0.5987  -21.0839   21.6568 N   0  0  0  0  0  0  0  0  0  0  0  0
    1.1662  -19.7724   21.7073 C   0  0  0  0  0  0  0  0  0  0  0  0
    0.5028  -18.8237   21.2384 O   0  0  0  0  0  0  0  0  0  0  0  0
    2.4925  -19.5722   22.2992 C   0  0  0  0  0  0  0  0  0  0  0  0
    3.5488  -19.2001   21.2592 C   0  0  2  0  0  0  0  0  0  0  0  0
    3.6311  -20.1439   20.1775 N   0  0  0  0  0  0  0  0  0  0  0  0
    4.8442  -19.0258   21.9392 C   0  0  0  0  0  0  0  0  0  0  0  0
    5.5425  -20.0501   22.1102 O   0  0  0  0  0  0  0  0  0  0  0  0
    5.3089  -17.7678   22.3916 N   0  0  0  0  0  0  0  0  0  0  0  0
    6.5891  -17.5490   23.0284 C   0  0  1  0  0  0  0  0  0  0  0  0
    6.9047  -16.1044   22.9086 C   0  0  0  0  0  0  0  0  0  0  0  0
    8.1956  -15.6529   23.4963 C   0  0  0  0  0  0  0  0  0  0  0  0
    9.2891  -16.0179   22.4785 C   0  0  0  0  0  0  0  0  0  0  0  0
   10.6458  -15.5865   22.9916 C   0  0  0  0  0  0  0  0  0  0  0  0
   11.6721  -15.8091   21.9968 N   0  0  0  0  0  0  0  0  0  0  0  0
    6.6198  -18.0912   24.3897 C   0  0  0  0  0  0  0  0  0  0  0  0
    7.7306  -18.6296   24.9597 O   0  0  0  0  0  0  0  0  0  0  0  0
    5.5656  -18.0613   25.0825 O   0  0  0  0  0  0  0  0  0  0  0  0
  2  3  1  0
  2  1  1  0
  3  4  2  0
  6  5  1  0
  7  6  2  0
  8  6  1  0
  9  8  1  1
  9 11  1  0
 10  9  1  0
 10  3  1  0
 11 12  2  0
 11 13  1  0
 13 14  1  0
 14 15  1  1
 15 16  1  0
 16 17  1  0
 17 18  1  0
 19 18  1  0
 20 21  1  0
 20 14  1  0
 22 20  2  0
M  END
$$$$
