GNK.pdb
     RDKit          3D

 22 21  0  0  1  0  0  0  0  0999 V2000
    7.2358  -18.9522   16.6132 N   0  0  0  0  0  0  0  0  0  0  0  0
    6.5681  -18.2215   17.6758 C   0  0  0  0  0  0  0  0  0  0  0  0
    7.5256  -17.2698   18.3380 C   0  0  0  0  0  0  0  0  0  0  0  0
    8.7470  -17.2969   18.1023 O   0  0  0  0  0  0  0  0  0  0  0  0
    7.8269  -11.8350   20.5687 N   0  0  0  0  0  0  0  0  0  0  0  0
    7.7633  -13.1506   21.1254 C   0  0  0  0  0  0  0  0  0  0  0  0
    8.4211  -13.3859   22.1608 O   0  0  0  0  0  0  0  0  0  0  0  0
    6.9404  -14.1783   20.4802 C   0  0  0  0  0  0  0  0  0  0  0  0
    7.7619  -15.3792   20.0126 C   0  0  2  0  0  0  0  0  0  0  0  0
    6.9926  -16.3256   19.2510 N   0  0  0  0  0  0  0  0  0  0  0  0
    8.4005  -16.0031   21.1846 C   0  0  0  0  0  0  0  0  0  0  0  0
    7.6651  -16.6625   21.9531 O   0  0  0  0  0  0  0  0  0  0  0  0
    9.7839  -15.8820   21.4585 N   0  0  0  0  0  0  0  0  0  0  0  0
   10.4629  -16.5441   22.5507 C   0  0  1  0  0  0  0  0  0  0  0  0
   11.9156  -16.5216   22.2506 C   0  0  0  0  0  0  0  0  0  0  0  0
   12.8052  -17.2343   23.2078 C   0  0  0  0  0  0  0  0  0  0  0  0
   13.3335  -18.4759   22.4700 C   0  0  0  0  0  0  0  0  0  0  0  0
   14.2831  -19.2481   23.3599 C   0  0  0  0  0  0  0  0  0  0  0  0
   14.6584  -20.5056   22.7512 N   0  0  0  0  0  0  0  0  0  0  0  0
   10.0778  -15.9853   23.8498 C   0  0  0  0  0  0  0  0  0  0  0  0
   10.1975  -16.6604   25.0239 O   0  0  0  0  0  0  0  0  0  0  0  0
    9.6103  -14.8143   23.8961 O   0  0  0  0  0  0  0  0  0  0  0  0
  2  3  1  0
  2  1  1  0
  3  4  2  0
  6  5  1  0
  7  6  2  0
  8  6  1  0
  9  8  1  1
  9 11  1  0
 10  9  1  0
 10  3  1  0
 11 12  2  0
 11 13  1  0
 13 14  1  0
 14 15  1  6
 15 16  1  0
 16 17  1  0
 17 18  1  0
 19 18  1  0
 20 21  1  0
 20 14  1  0
 22 20  2  0
M  END
$$$$
