GNK.pdb
     RDKit          3D

 22 21  0  0  1  0  0  0  0  0999 V2000
    6.7401  -12.8592   19.1870 N   0  0  0  0  0  0  0  0  0  0  0  0
    8.0954  -13.1508   18.7545 C   0  0  0  0  0  0  0  0  0  0  0  0
    8.5740  -14.4387   19.3655 C   0  0  0  0  0  0  0  0  0  0  0  0
    7.8986  -15.0566   20.2082 O   0  0  0  0  0  0  0  0  0  0  0  0
   12.9485  -18.6671   18.2955 N   0  0  0  0  0  0  0  0  0  0  0  0
   11.6205  -18.2357   18.6038 C   0  0  0  0  0  0  0  0  0  0  0  0
   10.8596  -19.0370   19.1861 O   0  0  0  0  0  0  0  0  0  0  0  0
   11.1874  -16.8839   18.2366 C   0  0  0  0  0  0  0  0  0  0  0  0
   10.4037  -16.1955   19.3537 C   0  0  2  0  0  0  0  0  0  0  0  0
    9.8333  -14.9389   18.9496 N   0  0  0  0  0  0  0  0  0  0  0  0
   11.2800  -16.0511   20.5293 C   0  0  0  0  0  0  0  0  0  0  0  0
   12.2863  -15.3176   20.4056 O   0  0  0  0  0  0  0  0  0  0  0  0
   11.0230  -16.6999   21.7607 N   0  0  0  0  0  0  0  0  0  0  0  0
   11.8951  -16.6428   22.9133 C   0  0  1  0  0  0  0  0  0  0  0  0
   11.3338  -17.5530   23.9416 C   0  0  0  0  0  0  0  0  0  0  0  0
   12.0878  -17.6599   25.2206 C   0  0  0  0  0  0  0  0  0  0  0  0
   11.2621  -18.5775   26.1378 C   0  0  0  0  0  0  0  0  0  0  0  0
   11.8946  -18.6505   27.5105 C   0  0  0  0  0  0  0  0  0  0  0  0
   11.0654  -19.4047   28.4250 N   0  0  0  0  0  0  0  0  0  0  0  0
   13.2939  -16.8866   22.5502 C   0  0  0  0  0  0  0  0  0  0  0  0
   13.6990  -17.9276   21.7750 O   0  0  0  0  0  0  0  0  0  0  0  0
   14.1808  -16.0940   22.9712 O   0  0  0  0  0  0  0  0  0  0  0  0
  2  3  1  0
  2  1  1  0
  3  4  2  0
  6  5  1  0
  7  6  2  0
  8  6  1  0
  9  8  1  6
  9 11  1  0
 10  9  1  0
 10  3  1  0
 11 12  2  0
 11 13  1  0
 13 14  1  0
 14 15  1  1
 15 16  1  0
 16 17  1  0
 17 18  1  0
 19 18  1  0
 20 21  1  0
 20 14  1  0
 22 20  2  0
M  END
$$$$
