GNK.pdb
     RDKit          3D

 22 21  0  0  1  0  0  0  0  0999 V2000
   10.5601  -18.3006   16.8073 N   0  0  0  0  0  0  0  0  0  0  0  0
   11.9952  -18.2811   17.0288 C   0  0  0  0  0  0  0  0  0  0  0  0
   12.2998  -18.4009   18.4964 C   0  0  0  0  0  0  0  0  0  0  0  0
   11.4342  -18.1938   19.3658 O   0  0  0  0  0  0  0  0  0  0  0  0
   16.1781  -21.5692   18.7115 N   0  0  0  0  0  0  0  0  0  0  0  0
   15.2460  -21.1303   19.7031 C   0  0  0  0  0  0  0  0  0  0  0  0
   14.3397  -21.9163   20.0504 O   0  0  0  0  0  0  0  0  0  0  0  0
   15.3722  -19.7892   20.2822 C   0  0  0  0  0  0  0  0  0  0  0  0
   14.0673  -18.9965   20.2157 C   0  0  2  0  0  0  0  0  0  0  0  0
   13.6185  -18.7624   18.8698 N   0  0  0  0  0  0  0  0  0  0  0  0
   14.2356  -17.7406   20.9675 C   0  0  0  0  0  0  0  0  0  0  0  0
   14.9227  -16.8418   20.4326 O   0  0  0  0  0  0  0  0  0  0  0  0
   13.6580  -17.5273   22.2419 N   0  0  0  0  0  0  0  0  0  0  0  0
   13.7189  -16.2785   22.9693 C   0  0  1  0  0  0  0  0  0  0  0  0
   12.4700  -16.1635   23.7616 C   0  0  0  0  0  0  0  0  0  0  0  0
   11.2416  -15.7725   23.0173 C   0  0  0  0  0  0  0  0  0  0  0  0
   10.0872  -15.8076   24.0326 C   0  0  0  0  0  0  0  0  0  0  0  0
    8.8067  -15.3273   23.3849 C   0  0  0  0  0  0  0  0  0  0  0  0
    7.7193  -15.3039   24.3386 N   0  0  0  0  0  0  0  0  0  0  0  0
   14.9642  -16.1527   23.7318 C   0  0  0  0  0  0  0  0  0  0  0  0
   15.8403  -17.1763   23.9149 O   0  0  0  0  0  0  0  0  0  0  0  0
   15.2526  -15.0391   24.2502 O   0  0  0  0  0  0  0  0  0  0  0  0
  2  3  1  0
  2  1  1  0
  3  4  2  0
  6  5  1  0
  7  6  2  0
  8  6  1  0
  9  8  1  6
  9 11  1  0
 10  9  1  0
 10  3  1  0
 11 12  2  0
 11 13  1  0
 13 14  1  0
 14 15  1  1
 15 16  1  0
 16 17  1  0
 17 18  1  0
 19 18  1  0
 20 21  1  0
 20 14  1  0
 22 20  2  0
M  END
$$$$
