GNK.pdb
     RDKit          3D

 22 21  0  0  1  0  0  0  0  0999 V2000
    8.4535  -18.7336   18.3000 N   0  0  0  0  0  0  0  0  0  0  0  0
    7.7673  -18.8553   19.5741 C   0  0  0  0  0  0  0  0  0  0  0  0
    8.4910  -18.0732   20.6350 C   0  0  0  0  0  0  0  0  0  0  0  0
    9.5645  -17.4887   20.4026 O   0  0  0  0  0  0  0  0  0  0  0  0
    6.9971  -18.7495   25.9303 N   0  0  0  0  0  0  0  0  0  0  0  0
    6.7608  -18.2717   24.6034 C   0  0  0  0  0  0  0  0  0  0  0  0
    5.9970  -18.9299   23.8663 O   0  0  0  0  0  0  0  0  0  0  0  0
    7.4089  -17.0394   24.1441 C   0  0  0  0  0  0  0  0  0  0  0  0
    8.4436  -17.2942   23.0486 C   0  0  2  0  0  0  0  0  0  0  0  0
    7.9094  -18.0173   21.9264 N   0  0  0  0  0  0  0  0  0  0  0  0
    9.6058  -17.9777   23.6427 C   0  0  0  0  0  0  0  0  0  0  0  0
    9.5661  -19.2271   23.7009 O   0  0  0  0  0  0  0  0  0  0  0  0
   10.7350  -17.2809   24.1354 N   0  0  0  0  0  0  0  0  0  0  0  0
   11.9840  -17.9073   24.5093 C   0  0  1  0  0  0  0  0  0  0  0  0
   13.0786  -17.1277   23.8809 C   0  0  0  0  0  0  0  0  0  0  0  0
   14.4649  -17.6168   24.1146 C   0  0  0  0  0  0  0  0  0  0  0  0
   15.3997  -16.6497   23.3690 C   0  0  0  0  0  0  0  0  0  0  0  0
   16.8374  -17.1008   23.5081 C   0  0  0  0  0  0  0  0  0  0  0  0
   17.7080  -16.3350   22.6433 N   0  0  0  0  0  0  0  0  0  0  0  0
   12.0897  -18.0879   25.9600 C   0  0  0  0  0  0  0  0  0  0  0  0
   11.2394  -17.5149   26.8529 O   0  0  0  0  0  0  0  0  0  0  0  0
   13.0142  -18.8137   26.4189 O   0  0  0  0  0  0  0  0  0  0  0  0
  2  3  1  0
  2  1  1  0
  3  4  2  0
  6  5  1  0
  7  6  2  0
  8  6  1  0
  9  8  1  1
  9 11  1  0
 10  9  1  0
 10  3  1  0
 11 12  2  0
 11 13  1  0
 13 14  1  0
 14 15  1  1
 15 16  1  0
 16 17  1  0
 17 18  1  0
 19 18  1  0
 20 21  1  0
 20 14  1  0
 22 20  2  0
M  END
$$$$
