VNQ.pdb
     RDKit          3D

 25 24  0  0  1  0  0  0  0  0999 V2000
   17.0166  -13.9189  -16.7677 C   0  0  0  0  0  0  0  0  0  0  0  0
   17.4540  -13.0955  -15.5489 C   0  0  1  0  0  0  0  0  0  0  0  0
   18.9088  -12.7210  -15.7841 C   0  0  0  0  0  0  0  0  0  0  0  0
   16.6630  -11.8336  -15.4911 C   0  0  2  0  0  0  0  0  0  0  0  0
   16.5360  -11.2569  -16.7850 N   0  0  0  0  0  0  0  0  0  0  0  0
   17.1646  -10.8708  -14.4704 C   0  0  0  0  0  0  0  0  0  0  0  0
   17.1594  -11.2384  -13.2725 O   0  0  0  0  0  0  0  0  0  0  0  0
   21.0694   -7.5198  -12.4704 N   0  0  0  0  0  0  0  0  0  0  0  0
   20.0579   -7.0913  -13.3979 C   0  0  0  0  0  0  0  0  0  0  0  0
   19.6095   -5.9444  -13.3588 O   0  0  0  0  0  0  0  0  0  0  0  0
   19.6011   -8.0860  -14.3759 C   0  0  0  0  0  0  0  0  0  0  0  0
   18.2470   -8.6085  -13.9469 C   0  0  2  0  0  0  0  0  0  0  0  0
   17.6387   -9.5782  -14.7918 N   0  0  0  0  0  0  0  0  0  0  0  0
   17.3469   -7.6307  -13.3599 C   0  0  0  0  0  0  0  0  0  0  0  0
   16.5499   -7.0278  -14.1367 O   0  0  0  0  0  0  0  0  0  0  0  0
   15.3877   -7.0906   -7.3062 N   0  0  0  0  0  0  0  0  0  0  0  0
   14.6000   -6.1701   -8.0351 C   0  0  0  0  0  0  0  0  0  0  0  0
   13.6789   -5.5972   -7.3620 O   0  0  0  0  0  0  0  0  0  0  0  0
   14.7790   -5.8568   -9.4693 C   0  0  0  0  0  0  0  0  0  0  0  0
   15.9190   -6.6893  -10.0024 C   0  0  0  0  0  0  0  0  0  0  0  0
   16.2105   -6.4413  -11.4401 C   0  0  2  0  0  0  0  0  0  0  0  0
   17.2599   -7.2709  -12.0015 N   0  0  0  0  0  0  0  0  0  0  0  0
   16.5005   -4.9881  -11.7030 C   0  0  0  0  0  0  0  0  0  0  0  0
   15.5331   -4.1033  -12.1155 O   0  0  0  0  0  0  0  0  0  0  0  0
   17.6680   -4.5394  -11.5460 O   0  0  0  0  0  0  0  0  0  0  0  0
  2  1  1  6
  2  4  1  0
  3  2  1  0
  4  6  1  0
  4  5  1  6
  6 13  1  0
  7  6  2  0
  8  9  1  0
  9 10  2  0
 12 11  1  6
 11  9  1  0
 13 12  1  0
 14 12  1  0
 14 15  2  0
 16 17  1  0
 17 18  2  0
 17 19  1  0
 19 20  1  0
 21 20  1  1
 21 22  1  0
 21 23  1  0
 22 14  1  0
 23 24  1  0
 25 23  2  0
M  END
$$$$
