VNQ.pdb
     RDKit          3D

 25 24  0  0  1  0  0  0  0  0999 V2000
   19.9948  -12.7692  -18.8357 C   0  0  0  0  0  0  0  0  0  0  0  0
   19.7302  -12.0580  -17.5020 C   0  0  1  0  0  0  0  0  0  0  0  0
   19.4869  -13.1513  -16.4738 C   0  0  0  0  0  0  0  0  0  0  0  0
   20.9494  -11.3073  -17.0881 C   0  0  2  0  0  0  0  0  0  0  0  0
   21.8979  -12.1776  -16.4832 N   0  0  0  0  0  0  0  0  0  0  0  0
   20.6479  -10.1066  -16.2585 C   0  0  0  0  0  0  0  0  0  0  0  0
   19.4768   -9.9729  -15.8335 O   0  0  0  0  0  0  0  0  0  0  0  0
   22.7135   -5.0220  -14.0042 N   0  0  0  0  0  0  0  0  0  0  0  0
   22.0749   -6.2457  -13.6022 C   0  0  0  0  0  0  0  0  0  0  0  0
   21.2121   -6.2491  -12.7228 O   0  0  0  0  0  0  0  0  0  0  0  0
   22.5064   -7.4678  -14.2913 C   0  0  0  0  0  0  0  0  0  0  0  0
   21.4388   -7.8730  -15.2845 C   0  0  2  0  0  0  0  0  0  0  0  0
   21.6136   -9.1256  -15.9360 N   0  0  0  0  0  0  0  0  0  0  0  0
   20.9007   -6.8039  -16.1083 C   0  0  0  0  0  0  0  0  0  0  0  0
   21.0348   -6.9070  -17.3627 O   0  0  0  0  0  0  0  0  0  0  0  0
   16.4250   -6.8063  -18.7779 N   0  0  0  0  0  0  0  0  0  0  0  0
   16.4997   -5.3950  -18.8223 C   0  0  0  0  0  0  0  0  0  0  0  0
   15.6407   -4.8333  -19.5815 O   0  0  0  0  0  0  0  0  0  0  0  0
   17.4785   -4.5780  -18.0729 C   0  0  0  0  0  0  0  0  0  0  0  0
   18.3725   -5.5045  -17.2860 C   0  0  0  0  0  0  0  0  0  0  0  0
   19.4206   -4.7932  -16.5054 C   0  0  2  0  0  0  0  0  0  0  0  0
   20.2362   -5.6459  -15.6615 N   0  0  0  0  0  0  0  0  0  0  0  0
   18.8381   -3.6657  -15.6965 C   0  0  0  0  0  0  0  0  0  0  0  0
   19.1414   -2.3474  -15.9389 O   0  0  0  0  0  0  0  0  0  0  0  0
   18.0379   -3.9131  -14.7543 O   0  0  0  0  0  0  0  0  0  0  0  0
  2  1  1  6
  2  4  1  0
  3  2  1  0
  4  6  1  0
  4  5  1  1
  6 13  1  0
  7  6  2  0
  8  9  1  0
  9 10  2  0
 12 11  1  6
 11  9  1  0
 13 12  1  0
 14 12  1  0
 14 15  2  0
 16 17  1  0
 17 18  2  0
 17 19  1  0
 19 20  1  0
 21 20  1  1
 21 22  1  0
 21 23  1  0
 22 14  1  0
 23 24  1  0
 25 23  2  0
M  END
$$$$
