VNQ.pdb
     RDKit          3D

 25 24  0  0  1  0  0  0  0  0999 V2000
   29.4435  -18.5991  -18.9327 C   0  0  0  0  0  0  0  0  0  0  0  0
   28.0154  -18.0435  -18.8523 C   0  0  1  0  0  0  0  0  0  0  0  0
   27.1812  -18.8622  -19.8248 C   0  0  0  0  0  0  0  0  0  0  0  0
   27.4701  -18.2688  -17.4836 C   0  0  2  0  0  0  0  0  0  0  0  0
   27.6498  -19.6220  -17.0843 N   0  0  0  0  0  0  0  0  0  0  0  0
   26.0661  -17.7955  -17.3241 C   0  0  0  0  0  0  0  0  0  0  0  0
   25.7758  -16.6695  -17.7908 O   0  0  0  0  0  0  0  0  0  0  0  0
   21.3207  -15.9108  -16.8899 N   0  0  0  0  0  0  0  0  0  0  0  0
   21.5855  -17.2868  -17.2116 C   0  0  0  0  0  0  0  0  0  0  0  0
   20.6976  -18.1370  -17.1309 O   0  0  0  0  0  0  0  0  0  0  0  0
   22.9536  -17.6099  -17.6341 C   0  0  0  0  0  0  0  0  0  0  0  0
   23.6912  -18.2345  -16.4695 C   0  0  2  0  0  0  0  0  0  0  0  0
   25.0623  -18.5523  -16.6771 N   0  0  0  0  0  0  0  0  0  0  0  0
   22.9351  -19.1916  -15.6799 C   0  0  0  0  0  0  0  0  0  0  0  0
   22.9847  -20.4074  -16.0285 O   0  0  0  0  0  0  0  0  0  0  0  0
   21.0039  -18.8446   -9.6257 N   0  0  0  0  0  0  0  0  0  0  0  0
   20.7321  -20.1719  -10.0302 C   0  0  0  0  0  0  0  0  0  0  0  0
   20.3473  -20.9522   -9.0960 O   0  0  0  0  0  0  0  0  0  0  0  0
   20.8689  -20.6770  -11.4134 C   0  0  0  0  0  0  0  0  0  0  0  0
   21.4759  -19.5876  -12.2630 C   0  0  0  0  0  0  0  0  0  0  0  0
   21.5321  -19.9284  -13.7102 C   0  0  2  0  0  0  0  0  0  0  0  0
   22.1390  -18.9148  -14.5521 N   0  0  0  0  0  0  0  0  0  0  0  0
   20.1753  -20.3025  -14.2434 C   0  0  0  0  0  0  0  0  0  0  0  0
   19.7242  -21.6004  -14.2734 O   0  0  0  0  0  0  0  0  0  0  0  0
   19.4030  -19.4096  -14.6853 O   0  0  0  0  0  0  0  0  0  0  0  0
  2  1  1  1
  2  4  1  0
  3  2  1  0
  4  6  1  0
  4  5  1  6
  6 13  1  0
  7  6  2  0
  8  9  1  0
  9 10  2  0
 12 11  1  6
 11  9  1  0
 13 12  1  0
 14 12  1  0
 14 15  2  0
 16 17  1  0
 17 18  2  0
 17 19  1  0
 19 20  1  0
 21 20  1  1
 21 22  1  0
 21 23  1  0
 22 14  1  0
 23 24  1  0
 25 23  2  0
M  END
$$$$
