VNQ.pdb
     RDKit          3D

 25 24  0  0  1  0  0  0  0  0999 V2000
   17.6980  -11.4129    5.0503 C   0  0  0  0  0  0  0  0  0  0  0  0
   17.2706  -12.6721    5.8161 C   0  0  1  0  0  0  0  0  0  0  0  0
   16.7353  -13.6448    4.7773 C   0  0  0  0  0  0  0  0  0  0  0  0
   18.4650  -13.2972    6.4518 C   0  0  2  0  0  0  0  0  0  0  0  0
   19.6387  -13.0309    5.6938 N   0  0  0  0  0  0  0  0  0  0  0  0
   18.2815  -14.7451    6.7527 C   0  0  0  0  0  0  0  0  0  0  0  0
   17.6221  -15.0474    7.7744 O   0  0  0  0  0  0  0  0  0  0  0  0
   16.1411  -18.9434    4.9875 N   0  0  0  0  0  0  0  0  0  0  0  0
   17.0094  -17.8685    4.5906 C   0  0  0  0  0  0  0  0  0  0  0  0
   16.5637  -16.8772    4.0105 O   0  0  0  0  0  0  0  0  0  0  0  0
   18.4331  -18.0222    4.9132 C   0  0  0  0  0  0  0  0  0  0  0  0
   18.7518  -17.1863    6.1339 C   0  0  2  0  0  0  0  0  0  0  0  0
   18.8131  -15.7774    5.9460 N   0  0  0  0  0  0  0  0  0  0  0  0
   19.7368  -17.7440    7.0449 C   0  0  0  0  0  0  0  0  0  0  0  0
   20.9148  -17.2848    6.9863 O   0  0  0  0  0  0  0  0  0  0  0  0
   21.4894  -15.0924    9.4413 N   0  0  0  0  0  0  0  0  0  0  0  0
   22.4024  -16.0647    9.9105 C   0  0  0  0  0  0  0  0  0  0  0  0
   23.6113  -15.6663   10.0085 O   0  0  0  0  0  0  0  0  0  0  0  0
   22.0444  -17.4534   10.2716 C   0  0  0  0  0  0  0  0  0  0  0  0
   20.5840  -17.6682    9.9583 C   0  0  0  0  0  0  0  0  0  0  0  0
   20.3193  -18.9230    9.2040 C   0  0  2  0  0  0  0  0  0  0  0  0
   19.5257  -18.7555    8.0012 N   0  0  0  0  0  0  0  0  0  0  0  0
   19.7103  -19.9801   10.0853 C   0  0  0  0  0  0  0  0  0  0  0  0
   20.4646  -20.7833   10.9068 O   0  0  0  0  0  0  0  0  0  0  0  0
   18.4621  -20.1559   10.0891 O   0  0  0  0  0  0  0  0  0  0  0  0
  2  1  1  6
  2  4  1  0
  3  2  1  0
  4  6  1  0
  4  5  1  6
  6 13  1  0
  7  6  2  0
  8  9  1  0
  9 10  2  0
 12 11  1  6
 11  9  1  0
 13 12  1  0
 14 12  1  0
 14 15  2  0
 16 17  1  0
 17 18  2  0
 17 19  1  0
 19 20  1  0
 21 20  1  1
 21 22  1  0
 21 23  1  0
 22 14  1  0
 23 24  1  0
 25 23  2  0
M  END
$$$$
