VNQ.pdb
     RDKit          3D

 25 24  0  0  1  0  0  0  0  0999 V2000
   25.9750  -21.1527   -9.2445 C   0  0  0  0  0  0  0  0  0  0  0  0
   26.0842  -20.9557  -10.7624 C   0  0  1  0  0  0  0  0  0  0  0  0
   25.9838  -22.3402  -11.3829 C   0  0  0  0  0  0  0  0  0  0  0  0
   24.9230  -20.1556  -11.2451 C   0  0  2  0  0  0  0  0  0  0  0  0
   23.7437  -20.4901  -10.5238 N   0  0  0  0  0  0  0  0  0  0  0  0
   24.7396  -20.2168  -12.7227 C   0  0  0  0  0  0  0  0  0  0  0  0
   25.7082  -19.8807  -13.4430 O   0  0  0  0  0  0  0  0  0  0  0  0
   24.5588  -20.9688  -17.7302 N   0  0  0  0  0  0  0  0  0  0  0  0
   23.5891  -21.6632  -16.9274 C   0  0  0  0  0  0  0  0  0  0  0  0
   22.5487  -22.0954  -17.4259 O   0  0  0  0  0  0  0  0  0  0  0  0
   23.9093  -21.8221  -15.5037 C   0  0  0  0  0  0  0  0  0  0  0  0
   23.2196  -20.7255  -14.7212 C   0  0  2  0  0  0  0  0  0  0  0  0
   23.5358  -20.6315  -13.3373 N   0  0  0  0  0  0  0  0  0  0  0  0
   21.8312  -20.4755  -15.0689 C   0  0  0  0  0  0  0  0  0  0  0  0
   20.9471  -21.1650  -14.4814 O   0  0  0  0  0  0  0  0  0  0  0  0
   18.0171  -16.6994  -18.8590 N   0  0  0  0  0  0  0  0  0  0  0  0
   17.9733  -16.4110  -17.4755 C   0  0  0  0  0  0  0  0  0  0  0  0
   17.1368  -15.5072  -17.1394 O   0  0  0  0  0  0  0  0  0  0  0  0
   18.8107  -17.0694  -16.4496 C   0  0  0  0  0  0  0  0  0  0  0  0
   19.6649  -18.1131  -17.1266 C   0  0  0  0  0  0  0  0  0  0  0  0
   19.9442  -19.2960  -16.2686 C   0  0  2  0  0  0  0  0  0  0  0  0
   21.3496  -19.5376  -16.0019 N   0  0  0  0  0  0  0  0  0  0  0  0
   19.2976  -20.5405  -16.8147 C   0  0  0  0  0  0  0  0  0  0  0  0
   18.0319  -20.9361  -16.4539 O   0  0  0  0  0  0  0  0  0  0  0  0
   19.9197  -21.2657  -17.6370 O   0  0  0  0  0  0  0  0  0  0  0  0
  2  1  1  1
  2  4  1  0
  3  2  1  0
  4  6  1  0
  4  5  1  1
  6 13  1  0
  7  6  2  0
  8  9  1  0
  9 10  2  0
 12 11  1  1
 11  9  1  0
 13 12  1  0
 14 12  1  0
 14 15  2  0
 16 17  1  0
 17 18  2  0
 17 19  1  0
 19 20  1  0
 21 20  1  6
 21 22  1  0
 21 23  1  0
 22 14  1  0
 23 24  1  0
 25 23  2  0
M  END
$$$$
