VNQ.pdb
     RDKit          3D

 25 24  0  0  1  0  0  0  0  0999 V2000
   20.8854  -20.7553  -13.7130 C   0  0  0  0  0  0  0  0  0  0  0  0
   21.6867  -19.4686  -13.9518 C   0  0  1  0  0  0  0  0  0  0  0  0
   23.1163  -19.7693  -13.5304 C   0  0  0  0  0  0  0  0  0  0  0  0
   21.6986  -19.1531  -15.4085 C   0  0  2  0  0  0  0  0  0  0  0  0
   21.7783  -20.3434  -16.1829 N   0  0  0  0  0  0  0  0  0  0  0  0
   22.7285  -18.1436  -15.7835 C   0  0  0  0  0  0  0  0  0  0  0  0
   22.6135  -16.9909  -15.3060 O   0  0  0  0  0  0  0  0  0  0  0  0
   26.6174  -17.4201  -15.2922 N   0  0  0  0  0  0  0  0  0  0  0  0
   27.0332  -18.1643  -16.4499 C   0  0  0  0  0  0  0  0  0  0  0  0
   28.1102  -18.7623  -16.4637 O   0  0  0  0  0  0  0  0  0  0  0  0
   26.1123  -18.1674  -17.5931 C   0  0  0  0  0  0  0  0  0  0  0  0
   24.8003  -17.5451  -17.1667 C   0  0  2  0  0  0  0  0  0  0  0  0
   23.8142  -18.4272  -16.6437 N   0  0  0  0  0  0  0  0  0  0  0  0
   24.3025  -16.4734  -18.0121 C   0  0  0  0  0  0  0  0  0  0  0  0
   23.6280  -16.7979  -19.0328 O   0  0  0  0  0  0  0  0  0  0  0  0
   19.5426  -14.6937  -18.3545 N   0  0  0  0  0  0  0  0  0  0  0  0
   20.0340  -13.4865  -18.9023 C   0  0  0  0  0  0  0  0  0  0  0  0
   19.1674  -12.7838  -19.5228 O   0  0  0  0  0  0  0  0  0  0  0  0
   21.4345  -13.0224  -18.8007 C   0  0  0  0  0  0  0  0  0  0  0  0
   22.2425  -14.0885  -18.1024 C   0  0  0  0  0  0  0  0  0  0  0  0
   23.6875  -14.0617  -18.4557 C   0  0  2  0  0  0  0  0  0  0  0  0
   24.4894  -15.0910  -17.8216 N   0  0  0  0  0  0  0  0  0  0  0  0
   24.2923  -12.7059  -18.2085 C   0  0  0  0  0  0  0  0  0  0  0  0
   25.4175  -12.5266  -17.4399 O   0  0  0  0  0  0  0  0  0  0  0  0
   23.7659  -11.6785  -18.7149 O   0  0  0  0  0  0  0  0  0  0  0  0
  2  1  1  6
  2  4  1  0
  3  2  1  0
  4  6  1  0
  4  5  1  6
  6 13  1  0
  7  6  2  0
  8  9  1  0
  9 10  2  0
 12 11  1  6
 11  9  1  0
 13 12  1  0
 14 12  1  0
 14 15  2  0
 16 17  1  0
 17 18  2  0
 17 19  1  0
 19 20  1  0
 21 20  1  1
 21 22  1  0
 21 23  1  0
 22 14  1  0
 23 24  1  0
 25 23  2  0
M  END
$$$$
