VNQ.pdb
     RDKit          3D

 25 24  0  0  1  0  0  0  0  0999 V2000
   23.4184  -19.1216  -19.9480 C   0  0  0  0  0  0  0  0  0  0  0  0
   21.9017  -19.1947  -19.7273 C   0  0  1  0  0  0  0  0  0  0  0  0
   21.5345  -20.6699  -19.7572 C   0  0  0  0  0  0  0  0  0  0  0  0
   21.5702  -18.6707  -18.3719 C   0  0  2  0  0  0  0  0  0  0  0  0
   22.5470  -19.0755  -17.4207 N   0  0  0  0  0  0  0  0  0  0  0  0
   20.1768  -18.9820  -17.9451 C   0  0  0  0  0  0  0  0  0  0  0  0
   19.2422  -18.5941  -18.6841 O   0  0  0  0  0  0  0  0  0  0  0  0
   16.1886  -22.4979  -16.0413 N   0  0  0  0  0  0  0  0  0  0  0  0
   16.9857  -21.5609  -15.2973 C   0  0  0  0  0  0  0  0  0  0  0  0
   16.5038  -20.9283  -14.3564 O   0  0  0  0  0  0  0  0  0  0  0  0
   18.3829  -21.4075  -15.7201 C   0  0  0  0  0  0  0  0  0  0  0  0
   18.5974  -19.9870  -16.1962 C   0  0  2  0  0  0  0  0  0  0  0  0
   19.8692  -19.6859  -16.7582 N   0  0  0  0  0  0  0  0  0  0  0  0
   18.0113  -18.9458  -15.3693 C   0  0  0  0  0  0  0  0  0  0  0  0
   18.7886  -18.2883  -14.6173 O   0  0  0  0  0  0  0  0  0  0  0  0
   17.6920  -13.2189  -16.9918 N   0  0  0  0  0  0  0  0  0  0  0  0
   16.5532  -13.8284  -16.4165 C   0  0  0  0  0  0  0  0  0  0  0  0
   15.4395  -13.4980  -16.9459 O   0  0  0  0  0  0  0  0  0  0  0  0
   16.5866  -14.7795  -15.2845 C   0  0  0  0  0  0  0  0  0  0  0  0
   16.8266  -16.1655  -15.8307 C   0  0  0  0  0  0  0  0  0  0  0  0
   16.1791  -17.2378  -15.0280 C   0  0  2  0  0  0  0  0  0  0  0  0
   16.6532  -18.5799  -15.3082 N   0  0  0  0  0  0  0  0  0  0  0  0
   14.6792  -17.1828  -15.1392 C   0  0  0  0  0  0  0  0  0  0  0  0
   13.8872  -16.5952  -14.1820 O   0  0  0  0  0  0  0  0  0  0  0  0
   14.1019  -17.6877  -16.1397 O   0  0  0  0  0  0  0  0  0  0  0  0
  2  1  1  1
  2  4  1  0
  3  2  1  0
  4  6  1  0
  4  5  1  1
  6 13  1  0
  7  6  2  0
  8  9  1  0
  9 10  2  0
 12 11  1  1
 11  9  1  0
 13 12  1  0
 14 12  1  0
 14 15  2  0
 16 17  1  0
 17 18  2  0
 17 19  1  0
 19 20  1  0
 21 20  1  6
 21 22  1  0
 21 23  1  0
 22 14  1  0
 23 24  1  0
 25 23  2  0
M  END
$$$$
