VNQ.pdb
     RDKit          3D

 25 24  0  0  1  0  0  0  0  0999 V2000
   18.9954  -11.2268  -17.5423 C   0  0  0  0  0  0  0  0  0  0  0  0
   19.6193  -11.0866  -16.1474 C   0  0  1  0  0  0  0  0  0  0  0  0
   20.9891  -10.4590  -16.3514 C   0  0  0  0  0  0  0  0  0  0  0  0
   18.8041  -10.1438  -15.3302 C   0  0  2  0  0  0  0  0  0  0  0  0
   17.6713   -9.6905  -16.0611 N   0  0  0  0  0  0  0  0  0  0  0  0
   19.6029   -9.0309  -14.7438 C   0  0  0  0  0  0  0  0  0  0  0  0
   20.5071   -9.3306  -13.9298 O   0  0  0  0  0  0  0  0  0  0  0  0
   22.1380   -5.0818  -12.7618 N   0  0  0  0  0  0  0  0  0  0  0  0
   22.2712   -5.4791  -14.1370 C   0  0  0  0  0  0  0  0  0  0  0  0
   22.8815   -4.7743  -14.9423 O   0  0  0  0  0  0  0  0  0  0  0  0
   21.6466   -6.7525  -14.5152 C   0  0  0  0  0  0  0  0  0  0  0  0
   20.1623   -6.5310  -14.7106 C   0  0  2  0  0  0  0  0  0  0  0  0
   19.3864   -7.6705  -15.0622 N   0  0  0  0  0  0  0  0  0  0  0  0
   19.7871   -5.2877  -15.3622 C   0  0  0  0  0  0  0  0  0  0  0  0
   20.1117   -5.1418  -16.5768 O   0  0  0  0  0  0  0  0  0  0  0  0
   14.3921   -3.0144  -15.6016 N   0  0  0  0  0  0  0  0  0  0  0  0
   15.0904   -3.3559  -14.4205 C   0  0  0  0  0  0  0  0  0  0  0  0
   14.3815   -3.9140  -13.5173 O   0  0  0  0  0  0  0  0  0  0  0  0
   16.5297   -3.1068  -14.1895 C   0  0  0  0  0  0  0  0  0  0  0  0
   17.1832   -2.8102  -15.5169 C   0  0  0  0  0  0  0  0  0  0  0  0
   18.6543   -3.0327  -15.5146 C   0  0  2  0  0  0  0  0  0  0  0  0
   19.0921   -4.2077  -14.7851 N   0  0  0  0  0  0  0  0  0  0  0  0
   19.3971   -1.8156  -15.0331 C   0  0  0  0  0  0  0  0  0  0  0  0
   19.2188   -0.5716  -15.5896 O   0  0  0  0  0  0  0  0  0  0  0  0
   20.2203   -1.9136  -14.0836 O   0  0  0  0  0  0  0  0  0  0  0  0
  2  1  1  6
  2  4  1  0
  3  2  1  0
  4  6  1  0
  4  5  1  6
  6 13  1  0
  7  6  2  0
  8  9  1  0
  9 10  2  0
 12 11  1  6
 11  9  1  0
 13 12  1  0
 14 12  1  0
 14 15  2  0
 16 17  1  0
 17 18  2  0
 17 19  1  0
 19 20  1  0
 21 20  1  1
 21 22  1  0
 21 23  1  0
 22 14  1  0
 23 24  1  0
 25 23  2  0
M  END
$$$$
