VNQ.pdb
     RDKit          3D

 25 24  0  0  1  0  0  0  0  0999 V2000
   23.2507  -12.2363  -20.4635 C   0  0  0  0  0  0  0  0  0  0  0  0
   24.3878  -12.9627  -19.7327 C   0  0  1  0  0  0  0  0  0  0  0  0
   25.3680  -13.4124  -20.8046 C   0  0  0  0  0  0  0  0  0  0  0  0
   25.0982  -12.0036  -18.8401 C   0  0  2  0  0  0  0  0  0  0  0  0
   26.2455  -12.6099  -18.2577 N   0  0  0  0  0  0  0  0  0  0  0  0
   24.2043  -11.3624  -17.8350 C   0  0  0  0  0  0  0  0  0  0  0  0
   23.5882  -12.1124  -17.0426 O   0  0  0  0  0  0  0  0  0  0  0  0
   21.4951   -8.1367  -15.2133 N   0  0  0  0  0  0  0  0  0  0  0  0
   22.4303   -7.2114  -15.7931 C   0  0  0  0  0  0  0  0  0  0  0  0
   22.4705   -6.0373  -15.4221 O   0  0  0  0  0  0  0  0  0  0  0  0
   23.3177   -7.7422  -16.8350 C   0  0  0  0  0  0  0  0  0  0  0  0
   23.0762   -9.2299  -16.9728 C   0  0  2  0  0  0  0  0  0  0  0  0
   24.0240   -9.9633  -17.7395 N   0  0  0  0  0  0  0  0  0  0  0  0
   21.6898   -9.6354  -17.1293 C   0  0  0  0  0  0  0  0  0  0  0  0
   21.2266   -9.6960  -18.3056 O   0  0  0  0  0  0  0  0  0  0  0  0
   18.5632  -14.4028  -15.0894 N   0  0  0  0  0  0  0  0  0  0  0  0
   17.5689  -13.6532  -15.7592 C   0  0  0  0  0  0  0  0  0  0  0  0
   16.4697  -14.2715  -15.9575 O   0  0  0  0  0  0  0  0  0  0  0  0
   17.7328  -12.2584  -16.2225 C   0  0  0  0  0  0  0  0  0  0  0  0
   19.1410  -11.8134  -15.9126 C   0  0  0  0  0  0  0  0  0  0  0  0
   19.4225  -10.4118  -16.3246 C   0  0  2  0  0  0  0  0  0  0  0  0
   20.7875   -9.9735  -16.1028 N   0  0  0  0  0  0  0  0  0  0  0  0
   18.4572   -9.4452  -15.6929 C   0  0  0  0  0  0  0  0  0  0  0  0
   17.1035   -9.4933  -15.9247 O   0  0  0  0  0  0  0  0  0  0  0  0
   18.8812   -8.5469  -14.9166 O   0  0  0  0  0  0  0  0  0  0  0  0
  2  1  1  6
  2  4  1  0
  3  2  1  0
  4  6  1  0
  4  5  1  1
  6 13  1  0
  7  6  2  0
  8  9  1  0
  9 10  2  0
 12 11  1  6
 11  9  1  0
 13 12  1  0
 14 12  1  0
 14 15  2  0
 16 17  1  0
 17 18  2  0
 17 19  1  0
 19 20  1  0
 21 20  1  1
 21 22  1  0
 21 23  1  0
 22 14  1  0
 23 24  1  0
 25 23  2  0
M  END
$$$$
