VNQ.pdb
     RDKit          3D

 25 24  0  0  1  0  0  0  0  0999 V2000
   26.6719  -10.4509  -15.2833 C   0  0  0  0  0  0  0  0  0  0  0  0
   26.7430  -11.7342  -16.1216 C   0  0  1  0  0  0  0  0  0  0  0  0
   27.9544  -12.5058  -15.6227 C   0  0  0  0  0  0  0  0  0  0  0  0
   25.5344  -12.5665  -15.8607 C   0  0  2  0  0  0  0  0  0  0  0  0
   25.6728  -13.8559  -16.4448 N   0  0  0  0  0  0  0  0  0  0  0  0
   24.2613  -11.8897  -16.2371 C   0  0  0  0  0  0  0  0  0  0  0  0
   24.1514  -11.4705  -17.4128 O   0  0  0  0  0  0  0  0  0  0  0  0
   21.1035  -13.0267  -16.9148 N   0  0  0  0  0  0  0  0  0  0  0  0
   20.3193  -12.7657  -15.7383 C   0  0  0  0  0  0  0  0  0  0  0  0
   19.3609  -13.4824  -15.4457 O   0  0  0  0  0  0  0  0  0  0  0  0
   20.7236  -11.6140  -14.9229 C   0  0  0  0  0  0  0  0  0  0  0  0
   21.9667  -10.9980  -15.5276 C   0  0  2  0  0  0  0  0  0  0  0  0
   23.1876  -11.7028  -15.3363 N   0  0  0  0  0  0  0  0  0  0  0  0
   22.0568   -9.5497  -15.4539 C   0  0  0  0  0  0  0  0  0  0  0  0
   22.5664   -9.0470  -14.4100 O   0  0  0  0  0  0  0  0  0  0  0  0
   21.7982   -5.0656  -20.0207 N   0  0  0  0  0  0  0  0  0  0  0  0
   22.1215   -4.3800  -18.8272 C   0  0  0  0  0  0  0  0  0  0  0  0
   22.3624   -3.1344  -18.9692 O   0  0  0  0  0  0  0  0  0  0  0  0
   22.1950   -5.0049  -17.4888 C   0  0  0  0  0  0  0  0  0  0  0  0
   21.8786   -6.4737  -17.6283 C   0  0  0  0  0  0  0  0  0  0  0  0
   21.8087   -7.1898  -16.3260 C   0  0  2  0  0  0  0  0  0  0  0  0
   21.6334   -8.6262  -16.4287 N   0  0  0  0  0  0  0  0  0  0  0  0
   20.7555   -6.6008  -15.4267 C   0  0  0  0  0  0  0  0  0  0  0  0
   21.0136   -5.5591  -14.5682 O   0  0  0  0  0  0  0  0  0  0  0  0
   19.5825   -7.0625  -15.4424 O   0  0  0  0  0  0  0  0  0  0  0  0
  2  1  1  1
  2  4  1  0
  3  2  1  0
  4  6  1  0
  4  5  1  6
  6 13  1  0
  7  6  2  0
  8  9  1  0
  9 10  2  0
 12 11  1  1
 11  9  1  0
 13 12  1  0
 14 12  1  0
 14 15  2  0
 16 17  1  0
 17 18  2  0
 17 19  1  0
 19 20  1  0
 21 20  1  6
 21 22  1  0
 21 23  1  0
 22 14  1  0
 23 24  1  0
 25 23  2  0
M  END
$$$$
