DEG.pdb
     RDKit          3D

 22 21  0  0  1  0  0  0  0  0999 V2000
   19.6545  -12.2490  -17.1755 N   0  0  0  0  0  0  0  0  0  0  0  0
   18.8902  -11.0363  -16.7293 C   0  0  1  0  0  0  0  0  0  0  0  0
   18.6654  -11.2730  -15.2709 C   0  0  0  0  0  0  0  0  0  0  0  0
   17.6997  -12.3006  -14.8955 C   0  0  0  0  0  0  0  0  0  0  0  0
   17.0923  -13.0933  -15.6307 O   0  0  0  0  0  0  0  0  0  0  0  0
   19.8005   -9.9212  -17.0498 C   0  0  0  0  0  0  0  0  0  0  0  0
   20.9970  -10.1802  -17.4444 O   0  0  0  0  0  0  0  0  0  0  0  0
   17.3806  -12.4507  -13.5143 O   0  0  0  0  0  0  0  0  0  0  0  0
   19.5095   -8.5452  -16.9775 N   0  0  0  0  0  0  0  0  0  0  0  0
   20.3317   -7.5284  -17.6312 C   0  0  1  0  0  0  0  0  0  0  0  0
   19.5911   -6.8153  -18.7111 C   0  0  0  0  0  0  0  0  0  0  0  0
   19.2848   -7.6201  -19.9244 C   0  0  0  0  0  0  0  0  0  0  0  0
   17.8597   -7.6267  -20.3022 C   0  0  0  0  0  0  0  0  0  0  0  0
   17.2552   -6.5894  -20.6753 O   0  0  0  0  0  0  0  0  0  0  0  0
   20.6162   -6.5062  -16.5604 C   0  0  0  0  0  0  0  0  0  0  0  0
   21.2025   -5.4336  -16.7692 O   0  0  0  0  0  0  0  0  0  0  0  0
   17.1068   -8.7918  -20.2644 O   0  0  0  0  0  0  0  0  0  0  0  0
   20.1725   -6.8238  -15.2497 N   0  0  0  0  0  0  0  0  0  0  0  0
   20.3823   -5.9082  -14.1549 C   0  0  0  0  0  0  0  0  0  0  0  0
   21.7817   -5.9196  -13.6813 C   0  0  0  0  0  0  0  0  0  0  0  0
   22.2053   -5.2710  -12.6967 O   0  0  0  0  0  0  0  0  0  0  0  0
   22.6842   -6.7119  -14.3887 O   0  0  0  0  0  0  0  0  0  0  0  0
  2  6  1  0
  2  1  1  1
  2  3  1  0
  3  4  1  0
  4  5  2  0
  4  8  1  0
  6  7  2  0
  9 10  1  0
  9  6  1  0
 10 15  1  0
 10 11  1  6
 12 11  1  0
 13 14  2  0
 13 12  1  0
 15 16  2  0
 15 18  1  0
 17 13  1  0
 18 19  1  0
 20 19  1  0
 20 22  1  0
 21 20  2  0
M  END
$$$$
