DEG.pdb
     RDKit          3D

 22 21  0  0  1  0  0  0  0  0999 V2000
   18.7656  -13.3298  -16.9179 N   0  0  0  0  0  0  0  0  0  0  0  0
   18.0935  -12.4367  -15.9156 C   0  0  1  0  0  0  0  0  0  0  0  0
   18.3681  -13.1010  -14.6053 C   0  0  0  0  0  0  0  0  0  0  0  0
   17.6011  -14.2998  -14.2832 C   0  0  0  0  0  0  0  0  0  0  0  0
   18.0144  -15.3876  -13.8546 O   0  0  0  0  0  0  0  0  0  0  0  0
   18.7633  -11.1376  -16.1118 C   0  0  0  0  0  0  0  0  0  0  0  0
   19.9129  -11.1038  -16.6876 O   0  0  0  0  0  0  0  0  0  0  0  0
   16.1883  -14.2640  -14.4691 O   0  0  0  0  0  0  0  0  0  0  0  0
   18.2782   -9.8709  -15.7329 N   0  0  0  0  0  0  0  0  0  0  0  0
   18.9734   -8.6277  -16.0622 C   0  0  1  0  0  0  0  0  0  0  0  0
   18.0462   -7.5895  -16.5966 C   0  0  0  0  0  0  0  0  0  0  0  0
   17.7348   -7.6870  -18.0482 C   0  0  0  0  0  0  0  0  0  0  0  0
   16.7262   -6.7193  -18.5169 C   0  0  0  0  0  0  0  0  0  0  0  0
   16.1752   -5.8920  -17.7472 O   0  0  0  0  0  0  0  0  0  0  0  0
   19.4875   -8.1052  -14.7450 C   0  0  0  0  0  0  0  0  0  0  0  0
   18.9705   -8.3693  -13.6492 O   0  0  0  0  0  0  0  0  0  0  0  0
   16.3309   -6.6732  -19.8464 O   0  0  0  0  0  0  0  0  0  0  0  0
   20.6310   -7.2656  -14.8011 N   0  0  0  0  0  0  0  0  0  0  0  0
   21.2842   -6.8227  -13.5937 C   0  0  0  0  0  0  0  0  0  0  0  0
   22.3402   -5.8260  -13.8664 C   0  0  0  0  0  0  0  0  0  0  0  0
   22.7467   -5.5143  -15.0096 O   0  0  0  0  0  0  0  0  0  0  0  0
   22.9167   -5.1954  -12.7651 O   0  0  0  0  0  0  0  0  0  0  0  0
  2  6  1  0
  2  1  1  6
  2  3  1  0
  3  4  1  0
  4  5  2  0
  4  8  1  0
  6  7  2  0
  9 10  1  0
  9  6  1  0
 10 15  1  0
 10 11  1  1
 12 11  1  0
 13 14  2  0
 13 12  1  0
 15 16  2  0
 15 18  1  0
 17 13  1  0
 18 19  1  0
 20 19  1  0
 20 22  1  0
 21 20  2  0
M  END
$$$$
