DEG.pdb
     RDKit          3D

 22 21  0  0  1  0  0  0  0  0999 V2000
   25.9871  -22.0458  -11.9912 N   0  0  0  0  0  0  0  0  0  0  0  0
   24.6965  -21.3816  -11.6074 C   0  0  1  0  0  0  0  0  0  0  0  0
   25.1311  -20.1194  -10.9353 C   0  0  0  0  0  0  0  0  0  0  0  0
   25.5339  -20.2050   -9.5354 C   0  0  0  0  0  0  0  0  0  0  0  0
   26.1808  -19.3844   -8.8676 O   0  0  0  0  0  0  0  0  0  0  0  0
   24.0088  -21.1986  -12.8989 C   0  0  0  0  0  0  0  0  0  0  0  0
   24.6508  -21.4240  -13.9904 O   0  0  0  0  0  0  0  0  0  0  0  0
   25.1578  -21.3652   -8.7974 O   0  0  0  0  0  0  0  0  0  0  0  0
   22.6748  -20.7922  -13.0959 N   0  0  0  0  0  0  0  0  0  0  0  0
   22.0514  -20.7412  -14.4173 C   0  0  1  0  0  0  0  0  0  0  0  0
   20.5777  -20.9593  -14.3525 C   0  0  0  0  0  0  0  0  0  0  0  0
   20.1422  -22.3604  -14.1063 C   0  0  0  0  0  0  0  0  0  0  0  0
   18.6814  -22.5306  -14.0029 C   0  0  0  0  0  0  0  0  0  0  0  0
   17.9323  -22.5632  -15.0120 O   0  0  0  0  0  0  0  0  0  0  0  0
   22.2540  -19.3250  -14.8921 C   0  0  0  0  0  0  0  0  0  0  0  0
   21.9115  -18.3247  -14.2441 O   0  0  0  0  0  0  0  0  0  0  0  0
   18.0541  -22.6649  -12.7724 O   0  0  0  0  0  0  0  0  0  0  0  0
   22.8760  -19.1659  -16.1583 N   0  0  0  0  0  0  0  0  0  0  0  0
   23.1834  -17.8536  -16.6725 C   0  0  0  0  0  0  0  0  0  0  0  0
   24.6345  -17.5764  -16.6570 C   0  0  0  0  0  0  0  0  0  0  0  0
   25.4992  -18.3363  -16.1628 O   0  0  0  0  0  0  0  0  0  0  0  0
   25.0581  -16.3815  -17.2365 O   0  0  0  0  0  0  0  0  0  0  0  0
  2  6  1  0
  2  1  1  6
  2  3  1  0
  3  4  1  0
  4  5  2  0
  4  8  1  0
  6  7  2  0
  9 10  1  0
  9  6  1  0
 10 15  1  0
 10 11  1  1
 12 11  1  0
 13 14  2  0
 13 12  1  0
 15 16  2  0
 15 18  1  0
 17 13  1  0
 18 19  1  0
 20 19  1  0
 20 22  1  0
 21 20  2  0
M  END
$$$$
