DEG.pdb
     RDKit          3D

 22 21  0  0  1  0  0  0  0  0999 V2000
   17.2879  -11.4603  -17.4778 N   0  0  0  0  0  0  0  0  0  0  0  0
   18.1685  -10.9048  -16.3960 C   0  0  1  0  0  0  0  0  0  0  0  0
   19.2248  -11.9483  -16.2252 C   0  0  0  0  0  0  0  0  0  0  0  0
   18.8560  -13.1723  -15.5217 C   0  0  0  0  0  0  0  0  0  0  0  0
   17.7642  -13.4717  -15.0154 O   0  0  0  0  0  0  0  0  0  0  0  0
   18.6374   -9.6255  -16.9600 C   0  0  0  0  0  0  0  0  0  0  0  0
   18.8760   -9.5444  -18.2212 O   0  0  0  0  0  0  0  0  0  0  0  0
   19.8470  -14.1860  -15.3716 O   0  0  0  0  0  0  0  0  0  0  0  0
   18.8640   -8.4253  -16.2587 N   0  0  0  0  0  0  0  0  0  0  0  0
   19.1913   -7.1682  -16.9293 C   0  0  1  0  0  0  0  0  0  0  0  0
   18.2015   -6.0950  -16.6262 C   0  0  0  0  0  0  0  0  0  0  0  0
   18.5211   -4.7484  -17.1721 C   0  0  0  0  0  0  0  0  0  0  0  0
   17.5531   -3.6999  -16.8016 C   0  0  0  0  0  0  0  0  0  0  0  0
   16.3100   -3.8697  -16.8819 O   0  0  0  0  0  0  0  0  0  0  0  0
   20.4988   -6.7284  -16.3218 C   0  0  0  0  0  0  0  0  0  0  0  0
   21.1745   -5.7811  -16.7506 O   0  0  0  0  0  0  0  0  0  0  0  0
   17.9712   -2.4597  -16.3404 O   0  0  0  0  0  0  0  0  0  0  0  0
   20.9514   -7.4644  -15.1952 N   0  0  0  0  0  0  0  0  0  0  0  0
   22.1547   -7.0834  -14.4968 C   0  0  0  0  0  0  0  0  0  0  0  0
   22.0114   -5.7825  -13.8115 C   0  0  0  0  0  0  0  0  0  0  0  0
   21.0470   -5.4673  -13.0767 O   0  0  0  0  0  0  0  0  0  0  0  0
   23.0282   -4.8487  -14.0045 O   0  0  0  0  0  0  0  0  0  0  0  0
  2  6  1  0
  2  1  1  6
  2  3  1  0
  3  4  1  0
  4  5  2  0
  4  8  1  0
  6  7  2  0
  9 10  1  0
  9  6  1  0
 10 15  1  0
 10 11  1  1
 12 11  1  0
 13 14  2  0
 13 12  1  0
 15 16  2  0
 15 18  1  0
 17 13  1  0
 18 19  1  0
 20 19  1  0
 20 22  1  0
 21 20  2  0
M  END
$$$$
