DEG.pdb
     RDKit          3D

 22 21  0  0  1  0  0  0  0  0999 V2000
   26.6136  -33.3806  -16.2397 N   0  0  0  0  0  0  0  0  0  0  0  0
   27.4288  -33.3379  -14.9796 C   0  0  1  0  0  0  0  0  0  0  0  0
   28.2833  -32.1235  -15.1485 C   0  0  0  0  0  0  0  0  0  0  0  0
   29.5727  -32.2930  -15.8106 C   0  0  0  0  0  0  0  0  0  0  0  0
   29.8045  -32.7366  -16.9452 O   0  0  0  0  0  0  0  0  0  0  0  0
   26.4108  -33.2445  -13.9167 C   0  0  0  0  0  0  0  0  0  0  0  0
   25.4886  -32.3524  -14.0063 O   0  0  0  0  0  0  0  0  0  0  0  0
   30.7483  -31.9128  -15.0998 O   0  0  0  0  0  0  0  0  0  0  0  0
   26.3158  -34.0487  -12.7645 N   0  0  0  0  0  0  0  0  0  0  0  0
   25.3218  -33.8156  -11.7181 C   0  0  1  0  0  0  0  0  0  0  0  0
   24.3861  -34.9664  -11.5650 C   0  0  0  0  0  0  0  0  0  0  0  0
   23.2261  -34.9843  -12.4964 C   0  0  0  0  0  0  0  0  0  0  0  0
   21.9179  -35.1227  -11.8309 C   0  0  0  0  0  0  0  0  0  0  0  0
   21.1908  -36.1382  -11.9755 O   0  0  0  0  0  0  0  0  0  0  0  0
   26.1125  -33.7336  -10.4374 C   0  0  0  0  0  0  0  0  0  0  0  0
   27.3408  -33.8921  -10.3739 O   0  0  0  0  0  0  0  0  0  0  0  0
   21.4189  -34.1277  -11.0023 O   0  0  0  0  0  0  0  0  0  0  0  0
   25.3752  -33.4572   -9.2561 N   0  0  0  0  0  0  0  0  0  0  0  0
   26.0400  -33.3225   -7.9829 C   0  0  0  0  0  0  0  0  0  0  0  0
   25.0874  -33.0691   -6.8825 C   0  0  0  0  0  0  0  0  0  0  0  0
   23.8605  -32.8674   -7.0353 O   0  0  0  0  0  0  0  0  0  0  0  0
   25.6032  -33.0561   -5.5876 O   0  0  0  0  0  0  0  0  0  0  0  0
  2  6  1  0
  2  1  1  6
  2  3  1  0
  3  4  1  0
  4  5  2  0
  4  8  1  0
  6  7  2  0
  9 10  1  0
  9  6  1  0
 10 15  1  0
 10 11  1  1
 12 11  1  0
 13 14  2  0
 13 12  1  0
 15 16  2  0
 15 18  1  0
 17 13  1  0
 18 19  1  0
 20 19  1  0
 20 22  1  0
 21 20  2  0
M  END
$$$$
