DEG.pdb
     RDKit          3D

 22 21  0  0  1  0  0  0  0  0999 V2000
   18.0727  -11.0940  -16.3091 N   0  0  0  0  0  0  0  0  0  0  0  0
   16.8541  -10.6244  -15.5686 C   0  0  1  0  0  0  0  0  0  0  0  0
   16.6322  -11.6842  -14.5384 C   0  0  0  0  0  0  0  0  0  0  0  0
   16.1668  -12.9875  -15.0012 C   0  0  0  0  0  0  0  0  0  0  0  0
   15.9601  -13.3639  -16.1646 O   0  0  0  0  0  0  0  0  0  0  0  0
   17.2618   -9.3105  -15.0375 C   0  0  0  0  0  0  0  0  0  0  0  0
   16.4703   -8.6804  -14.2433 O   0  0  0  0  0  0  0  0  0  0  0  0
   15.9017  -13.9920  -14.0252 O   0  0  0  0  0  0  0  0  0  0  0  0
   18.4660   -8.6293  -15.3007 N   0  0  0  0  0  0  0  0  0  0  0  0
   18.7820   -7.3278  -14.7144 C   0  0  1  0  0  0  0  0  0  0  0  0
   20.2233   -7.2097  -14.3512 C   0  0  0  0  0  0  0  0  0  0  0  0
   20.6278   -5.9235  -13.7223 C   0  0  0  0  0  0  0  0  0  0  0  0
   22.0483   -5.8610  -13.3325 C   0  0  0  0  0  0  0  0  0  0  0  0
   22.8305   -6.8352  -13.4727 O   0  0  0  0  0  0  0  0  0  0  0  0
   18.5355   -6.3306  -15.8176 C   0  0  0  0  0  0  0  0  0  0  0  0
   18.7762   -6.5519  -17.0138 O   0  0  0  0  0  0  0  0  0  0  0  0
   22.5983   -4.7103  -12.7855 O   0  0  0  0  0  0  0  0  0  0  0  0
   17.9961   -5.0767  -15.4270 N   0  0  0  0  0  0  0  0  0  0  0  0
   17.8019   -4.0217  -16.3914 C   0  0  0  0  0  0  0  0  0  0  0  0
   17.1986   -2.8176  -15.7841 C   0  0  0  0  0  0  0  0  0  0  0  0
   16.7688   -2.7520  -14.6092 O   0  0  0  0  0  0  0  0  0  0  0  0
   17.1071   -1.6810  -16.5858 O   0  0  0  0  0  0  0  0  0  0  0  0
  2  6  1  0
  2  1  1  6
  2  3  1  0
  3  4  1  0
  4  5  2  0
  4  8  1  0
  6  7  2  0
  9 10  1  0
  9  6  1  0
 10 15  1  0
 10 11  1  6
 12 11  1  0
 13 14  2  0
 13 12  1  0
 15 16  2  0
 15 18  1  0
 17 13  1  0
 18 19  1  0
 20 19  1  0
 20 22  1  0
 21 20  2  0
M  END
$$$$
