DEG.pdb
     RDKit          3D

 22 21  0  0  1  0  0  0  0  0999 V2000
   16.9471  -11.5590  -15.9628 N   0  0  0  0  0  0  0  0  0  0  0  0
   18.3549  -11.2660  -15.5313 C   0  0  1  0  0  0  0  0  0  0  0  0
   19.1859  -12.1589  -16.3950 C   0  0  0  0  0  0  0  0  0  0  0  0
   19.2355  -13.5757  -16.0494 C   0  0  0  0  0  0  0  0  0  0  0  0
   18.6962  -14.1560  -15.0953 O   0  0  0  0  0  0  0  0  0  0  0  0
   18.5012   -9.8231  -15.7984 C   0  0  0  0  0  0  0  0  0  0  0  0
   18.0037   -9.3300  -16.8771 O   0  0  0  0  0  0  0  0  0  0  0  0
   19.9903  -14.4463  -16.8887 O   0  0  0  0  0  0  0  0  0  0  0  0
   19.1444   -8.8733  -14.9814 N   0  0  0  0  0  0  0  0  0  0  0  0
   19.2111   -7.4533  -15.3227 C   0  0  1  0  0  0  0  0  0  0  0  0
   18.0369   -6.6946  -14.8042 C   0  0  0  0  0  0  0  0  0  0  0  0
   17.3426   -5.8247  -15.7916 C   0  0  0  0  0  0  0  0  0  0  0  0
   16.2037   -5.0700  -15.2375 C   0  0  0  0  0  0  0  0  0  0  0  0
   16.2670   -3.8398  -14.9865 O   0  0  0  0  0  0  0  0  0  0  0  0
   20.4179   -6.9294  -14.5869 C   0  0  0  0  0  0  0  0  0  0  0  0
   20.6419   -7.1467  -13.3867 O   0  0  0  0  0  0  0  0  0  0  0  0
   14.9917   -5.6876  -14.9630 O   0  0  0  0  0  0  0  0  0  0  0  0
   21.3288   -6.1463  -15.3437 N   0  0  0  0  0  0  0  0  0  0  0  0
   22.5291   -5.6189  -14.7421 C   0  0  0  0  0  0  0  0  0  0  0  0
   23.3185   -4.8100  -15.6935 C   0  0  0  0  0  0  0  0  0  0  0  0
   23.0520   -4.6814  -16.9108 O   0  0  0  0  0  0  0  0  0  0  0  0
   24.4365   -4.1484  -15.1881 O   0  0  0  0  0  0  0  0  0  0  0  0
  2  6  1  0
  2  1  1  6
  2  3  1  0
  3  4  1  0
  4  5  2  0
  4  8  1  0
  6  7  2  0
  9 10  1  0
  9  6  1  0
 10 15  1  0
 10 11  1  1
 12 11  1  0
 13 14  2  0
 13 12  1  0
 15 16  2  0
 15 18  1  0
 17 13  1  0
 18 19  1  0
 20 19  1  0
 20 22  1  0
 21 20  2  0
M  END
$$$$
