DEG.pdb
     RDKit          3D

 22 21  0  0  1  0  0  0  0  0999 V2000
   17.2109  -11.7759  -14.4930 N   0  0  0  0  0  0  0  0  0  0  0  0
   18.2332  -11.8976  -15.5858 C   0  0  1  0  0  0  0  0  0  0  0  0
   17.4641  -12.4722  -16.7313 C   0  0  0  0  0  0  0  0  0  0  0  0
   16.9919  -13.8471  -16.6043 C   0  0  0  0  0  0  0  0  0  0  0  0
   17.1092  -14.6166  -15.6390 O   0  0  0  0  0  0  0  0  0  0  0  0
   18.6972  -10.5108  -15.7760 C   0  0  0  0  0  0  0  0  0  0  0  0
   19.5160  -10.2476  -16.7324 O   0  0  0  0  0  0  0  0  0  0  0  0
   16.2996  -14.4247  -17.7085 O   0  0  0  0  0  0  0  0  0  0  0  0
   18.3372   -9.3864  -15.0083 N   0  0  0  0  0  0  0  0  0  0  0  0
   18.7520   -8.0278  -15.3542 C   0  0  1  0  0  0  0  0  0  0  0  0
   17.6066   -7.0732  -15.3551 C   0  0  0  0  0  0  0  0  0  0  0  0
   16.6690   -7.1902  -16.5044 C   0  0  0  0  0  0  0  0  0  0  0  0
   15.4366   -6.3934  -16.3634 C   0  0  0  0  0  0  0  0  0  0  0  0
   15.4529   -5.1448  -16.2174 O   0  0  0  0  0  0  0  0  0  0  0  0
   19.6652   -7.5995  -14.2340 C   0  0  0  0  0  0  0  0  0  0  0  0
   19.6634   -8.1165  -13.1068 O   0  0  0  0  0  0  0  0  0  0  0  0
   14.1836   -6.9892  -16.3854 O   0  0  0  0  0  0  0  0  0  0  0  0
   20.5658   -6.5406  -14.5227 N   0  0  0  0  0  0  0  0  0  0  0  0
   21.5490   -6.1203  -13.5544 C   0  0  0  0  0  0  0  0  0  0  0  0
   22.3509   -4.9770  -14.0369 C   0  0  0  0  0  0  0  0  0  0  0  0
   23.1589   -4.3272  -13.3340 O   0  0  0  0  0  0  0  0  0  0  0  0
   22.1873   -4.6055  -15.3704 O   0  0  0  0  0  0  0  0  0  0  0  0
  2  6  1  0
  2  1  1  1
  2  3  1  0
  3  4  1  0
  4  5  2  0
  4  8  1  0
  6  7  2  0
  9 10  1  0
  9  6  1  0
 10 15  1  0
 10 11  1  1
 12 11  1  0
 13 14  2  0
 13 12  1  0
 15 16  2  0
 15 18  1  0
 17 13  1  0
 18 19  1  0
 20 19  1  0
 20 22  1  0
 21 20  2  0
M  END
$$$$
