DEG.pdb
     RDKit          3D

 22 21  0  0  1  0  0  0  0  0999 V2000
   18.9493  -12.5285  -15.3494 N   0  0  0  0  0  0  0  0  0  0  0  0
   19.8966  -12.2318  -16.4757 C   0  0  1  0  0  0  0  0  0  0  0  0
   19.2391  -12.8501  -17.6670 C   0  0  0  0  0  0  0  0  0  0  0  0
   19.1481  -14.3059  -17.7072 C   0  0  0  0  0  0  0  0  0  0  0  0
   19.5487  -15.1270  -16.8686 O   0  0  0  0  0  0  0  0  0  0  0  0
   19.9603  -10.7586  -16.4899 C   0  0  0  0  0  0  0  0  0  0  0  0
   20.6110  -10.1665  -17.4282 O   0  0  0  0  0  0  0  0  0  0  0  0
   18.5256  -14.9095  -18.8386 O   0  0  0  0  0  0  0  0  0  0  0  0
   19.3682   -9.8781  -15.5638 N   0  0  0  0  0  0  0  0  0  0  0  0
   19.4109   -8.4248  -15.7167 C   0  0  1  0  0  0  0  0  0  0  0  0
   18.0704   -7.7999  -15.5271 C   0  0  0  0  0  0  0  0  0  0  0  0
   17.0773   -8.0622  -16.6034 C   0  0  0  0  0  0  0  0  0  0  0  0
   15.7495   -7.4698  -16.3590 C   0  0  0  0  0  0  0  0  0  0  0  0
   15.3489   -6.4398  -16.9585 O   0  0  0  0  0  0  0  0  0  0  0  0
   20.2750   -7.9364  -14.5823 C   0  0  0  0  0  0  0  0  0  0  0  0
   20.5012   -8.5935  -13.5552 O   0  0  0  0  0  0  0  0  0  0  0  0
   14.8662   -8.0265  -15.4449 O   0  0  0  0  0  0  0  0  0  0  0  0
   20.8463   -6.6455  -14.7336 N   0  0  0  0  0  0  0  0  0  0  0  0
   21.7612   -6.1208  -13.7494 C   0  0  0  0  0  0  0  0  0  0  0  0
   22.2187   -4.7572  -14.0868 C   0  0  0  0  0  0  0  0  0  0  0  0
   21.9550   -4.1624  -15.1574 O   0  0  0  0  0  0  0  0  0  0  0  0
   22.9980   -4.0969  -13.1384 O   0  0  0  0  0  0  0  0  0  0  0  0
  2  6  1  0
  2  1  1  1
  2  3  1  0
  3  4  1  0
  4  5  2  0
  4  8  1  0
  6  7  2  0
  9 10  1  0
  9  6  1  0
 10 15  1  0
 10 11  1  1
 12 11  1  0
 13 14  2  0
 13 12  1  0
 15 16  2  0
 15 18  1  0
 17 13  1  0
 18 19  1  0
 20 19  1  0
 20 22  1  0
 21 20  2  0
M  END
$$$$
