DEG.pdb
     RDKit          3D

 22 21  0  0  1  0  0  0  0  0999 V2000
   22.0564  -10.1664  -16.5967 N   0  0  0  0  0  0  0  0  0  0  0  0
   21.6819   -9.6588  -17.9591 C   0  0  1  0  0  0  0  0  0  0  0  0
   20.9920  -10.8217  -18.5958 C   0  0  0  0  0  0  0  0  0  0  0  0
   21.7836  -12.0223  -18.8435 C   0  0  0  0  0  0  0  0  0  0  0  0
   21.6933  -13.1318  -18.2968 O   0  0  0  0  0  0  0  0  0  0  0  0
   20.8169   -8.5008  -17.6668 C   0  0  0  0  0  0  0  0  0  0  0  0
   20.3052   -7.8364  -18.6420 O   0  0  0  0  0  0  0  0  0  0  0  0
   22.8064  -11.9605  -19.8344 O   0  0  0  0  0  0  0  0  0  0  0  0
   20.4620   -8.0107  -16.3950 N   0  0  0  0  0  0  0  0  0  0  0  0
   19.5031   -6.9234  -16.2067 C   0  0  1  0  0  0  0  0  0  0  0  0
   18.1664   -7.4214  -15.7726 C   0  0  0  0  0  0  0  0  0  0  0  0
   17.4024   -8.1921  -16.7904 C   0  0  0  0  0  0  0  0  0  0  0  0
   16.0946   -8.6844  -16.3203 C   0  0  0  0  0  0  0  0  0  0  0  0
   15.2890   -9.2867  -17.0745 O   0  0  0  0  0  0  0  0  0  0  0  0
   20.0505   -6.1120  -15.0603 C   0  0  0  0  0  0  0  0  0  0  0  0
   19.3908   -5.2677  -14.4359 O   0  0  0  0  0  0  0  0  0  0  0  0
   15.6839   -8.5054  -15.0069 O   0  0  0  0  0  0  0  0  0  0  0  0
   21.4027   -6.3556  -14.7026 N   0  0  0  0  0  0  0  0  0  0  0  0
   22.0544   -5.5635  -13.6883 C   0  0  0  0  0  0  0  0  0  0  0  0
   22.1505   -4.1398  -14.0713 C   0  0  0  0  0  0  0  0  0  0  0  0
   22.7105   -3.2542  -13.3848 O   0  0  0  0  0  0  0  0  0  0  0  0
   21.5730   -3.7692  -15.2846 O   0  0  0  0  0  0  0  0  0  0  0  0
  2  6  1  0
  2  1  1  1
  2  3  1  0
  3  4  1  0
  4  5  2  0
  4  8  1  0
  6  7  2  0
  9 10  1  0
  9  6  1  0
 10 15  1  0
 10 11  1  1
 12 11  1  0
 13 14  2  0
 13 12  1  0
 15 16  2  0
 15 18  1  0
 17 13  1  0
 18 19  1  0
 20 19  1  0
 20 22  1  0
 21 20  2  0
M  END
$$$$
