DEG.pdb
     RDKit          3D

 22 21  0  0  1  0  0  0  0  0999 V2000
   15.0771  -10.6766  -15.1338 N   0  0  0  0  0  0  0  0  0  0  0  0
   15.6939   -9.3173  -14.9728 C   0  0  1  0  0  0  0  0  0  0  0  0
   14.8994   -8.6932  -13.8715 C   0  0  0  0  0  0  0  0  0  0  0  0
   13.5180   -8.3239  -14.1622 C   0  0  0  0  0  0  0  0  0  0  0  0
   12.4905   -8.6302  -13.5392 O   0  0  0  0  0  0  0  0  0  0  0  0
   17.0989   -9.6166  -14.6395 C   0  0  0  0  0  0  0  0  0  0  0  0
   17.3618  -10.5890  -13.8397 O   0  0  0  0  0  0  0  0  0  0  0  0
   13.2667   -7.5047  -15.3015 O   0  0  0  0  0  0  0  0  0  0  0  0
   18.2416   -8.9421  -15.1114 N   0  0  0  0  0  0  0  0  0  0  0  0
   19.6011   -9.4077  -14.8428 C   0  0  1  0  0  0  0  0  0  0  0  0
   20.3433   -9.7287  -16.0956 C   0  0  0  0  0  0  0  0  0  0  0  0
   21.7544  -10.1649  -15.9168 C   0  0  0  0  0  0  0  0  0  0  0  0
   22.4722  -10.4237  -17.1783 C   0  0  0  0  0  0  0  0  0  0  0  0
   23.1160   -9.5300  -17.7845 O   0  0  0  0  0  0  0  0  0  0  0  0
   20.3035   -8.2285  -14.2196 C   0  0  0  0  0  0  0  0  0  0  0  0
   21.4145   -8.2975  -13.6730 O   0  0  0  0  0  0  0  0  0  0  0  0
   22.4729  -11.6812  -17.7653 O   0  0  0  0  0  0  0  0  0  0  0  0
   19.6239   -6.9835  -14.2808 N   0  0  0  0  0  0  0  0  0  0  0  0
   20.2172   -5.7884  -13.7325 C   0  0  0  0  0  0  0  0  0  0  0  0
   21.3621   -5.3163  -14.5381 C   0  0  0  0  0  0  0  0  0  0  0  0
   21.7873   -5.8827  -15.5714 O   0  0  0  0  0  0  0  0  0  0  0  0
   22.0059   -4.1575  -14.1070 O   0  0  0  0  0  0  0  0  0  0  0  0
  2  6  1  0
  2  1  1  1
  2  3  1  0
  3  4  1  0
  4  5  2  0
  4  8  1  0
  6  7  2  0
  9 10  1  0
  9  6  1  0
 10 15  1  0
 10 11  1  6
 12 11  1  0
 13 14  2  0
 13 12  1  0
 15 16  2  0
 15 18  1  0
 17 13  1  0
 18 19  1  0
 20 19  1  0
 20 22  1  0
 21 20  2  0
M  END
$$$$
