DEG.pdb
     RDKit          3D

 22 21  0  0  1  0  0  0  0  0999 V2000
   18.7495  -10.4056  -14.6020 N   0  0  0  0  0  0  0  0  0  0  0  0
   18.6890   -9.4653  -15.7709 C   0  0  1  0  0  0  0  0  0  0  0  0
   17.2572   -9.0388  -15.8117 C   0  0  0  0  0  0  0  0  0  0  0  0
   16.2667  -10.0378  -16.1994 C   0  0  0  0  0  0  0  0  0  0  0  0
   15.1947  -10.3174  -15.6423 O   0  0  0  0  0  0  0  0  0  0  0  0
   19.6480   -8.4057  -15.4074 C   0  0  0  0  0  0  0  0  0  0  0  0
   19.7475   -8.0430  -14.1774 O   0  0  0  0  0  0  0  0  0  0  0  0
   16.5207  -10.8194  -17.3641 O   0  0  0  0  0  0  0  0  0  0  0  0
   20.5103   -7.7114  -16.2779 N   0  0  0  0  0  0  0  0  0  0  0  0
   21.4036   -6.6475  -15.8226 C   0  0  1  0  0  0  0  0  0  0  0  0
   22.8268   -6.9190  -16.1749 C   0  0  0  0  0  0  0  0  0  0  0  0
   23.5118   -7.9491  -15.3483 C   0  0  0  0  0  0  0  0  0  0  0  0
   24.8859   -8.2585  -15.7836 C   0  0  0  0  0  0  0  0  0  0  0  0
   25.8359   -7.4460  -15.6493 O   0  0  0  0  0  0  0  0  0  0  0  0
   20.9934   -5.4281  -16.6082 C   0  0  0  0  0  0  0  0  0  0  0  0
   21.1640   -5.3056  -17.8304 O   0  0  0  0  0  0  0  0  0  0  0  0
   25.2022   -9.4761  -16.3695 O   0  0  0  0  0  0  0  0  0  0  0  0
   20.3794   -4.3800  -15.8733 N   0  0  0  0  0  0  0  0  0  0  0  0
   20.0157   -3.1403  -16.5151 C   0  0  0  0  0  0  0  0  0  0  0  0
   19.3485   -2.2073  -15.5840 C   0  0  0  0  0  0  0  0  0  0  0  0
   18.9222   -2.5185  -14.4479 O   0  0  0  0  0  0  0  0  0  0  0  0
   19.1882   -0.8905  -16.0122 O   0  0  0  0  0  0  0  0  0  0  0  0
  2  6  1  0
  2  1  1  1
  2  3  1  0
  3  4  1  0
  4  5  2  0
  4  8  1  0
  6  7  2  0
  9 10  1  0
  9  6  1  0
 10 15  1  0
 10 11  1  6
 12 11  1  0
 13 14  2  0
 13 12  1  0
 15 16  2  0
 15 18  1  0
 17 13  1  0
 18 19  1  0
 20 19  1  0
 20 22  1  0
 21 20  2  0
M  END
$$$$
