DEG.pdb
     RDKit          3D

 22 21  0  0  1  0  0  0  0  0999 V2000
   12.6943   -9.7984  -10.3613 N   0  0  0  0  0  0  0  0  0  0  0  0
   14.1673   -9.9352  -10.1054 C   0  0  1  0  0  0  0  0  0  0  0  0
   14.6391  -10.8288  -11.2066 C   0  0  0  0  0  0  0  0  0  0  0  0
   14.2479  -12.2335  -11.1494 C   0  0  0  0  0  0  0  0  0  0  0  0
   13.8343  -12.8797  -10.1752 O   0  0  0  0  0  0  0  0  0  0  0  0
   14.6567   -8.5457  -10.1734 C   0  0  0  0  0  0  0  0  0  0  0  0
   14.1487   -7.7420  -11.0396 O   0  0  0  0  0  0  0  0  0  0  0  0
   14.3355  -13.0048  -12.3450 O   0  0  0  0  0  0  0  0  0  0  0  0
   15.6544   -7.9609   -9.3696 N   0  0  0  0  0  0  0  0  0  0  0  0
   16.1240   -6.5903   -9.5655 C   0  0  1  0  0  0  0  0  0  0  0  0
   15.6809   -5.6820   -8.4691 C   0  0  0  0  0  0  0  0  0  0  0  0
   14.3205   -5.0998   -8.6227 C   0  0  0  0  0  0  0  0  0  0  0  0
   13.9297   -4.1807   -7.5382 C   0  0  0  0  0  0  0  0  0  0  0  0
   14.3714   -3.0065   -7.4561 O   0  0  0  0  0  0  0  0  0  0  0  0
   17.6262   -6.6734   -9.4716 C   0  0  0  0  0  0  0  0  0  0  0  0
   18.2371   -6.9688   -8.4336 O   0  0  0  0  0  0  0  0  0  0  0  0
   13.0447   -4.5710   -6.5431 O   0  0  0  0  0  0  0  0  0  0  0  0
   18.3502   -6.3910  -10.6598 N   0  0  0  0  0  0  0  0  0  0  0  0
   19.7895   -6.4835  -10.6893 C   0  0  0  0  0  0  0  0  0  0  0  0
   20.3347   -6.2370  -12.0401 C   0  0  0  0  0  0  0  0  0  0  0  0
   19.6416   -6.1192  -13.0770 O   0  0  0  0  0  0  0  0  0  0  0  0
   21.7197   -6.1301  -12.1552 O   0  0  0  0  0  0  0  0  0  0  0  0
  2  6  1  0
  2  1  1  6
  2  3  1  0
  3  4  1  0
  4  5  2  0
  4  8  1  0
  6  7  2  0
  9 10  1  0
  9  6  1  0
 10 15  1  0
 10 11  1  1
 12 11  1  0
 13 14  2  0
 13 12  1  0
 15 16  2  0
 15 18  1  0
 17 13  1  0
 18 19  1  0
 20 19  1  0
 20 22  1  0
 21 20  2  0
M  END
$$$$
