LFA.pdb
     RDKit          3D

 25 25  0  0  1  0  0  0  0  0999 V2000
    8.3110  -19.6173   19.7042 C   0  0  0  0  0  0  0  0  0  0  0  0
    9.7717  -19.7221   20.1632 C   0  0  2  0  0  0  0  0  0  0  0  0
   10.0141  -21.0964   20.6770 C   0  0  0  0  0  0  0  0  0  0  0  0
    9.9789  -18.6328   21.1758 C   0  0  0  0  0  0  0  0  0  0  0  0
    9.6308  -17.2668   20.6745 C   0  0  2  0  0  0  0  0  0  0  0  0
   10.5668  -16.7820   19.6767 N   0  0  0  0  0  0  0  0  0  0  0  0
    9.7106  -16.3264   21.8248 C   0  0  0  0  0  0  0  0  0  0  0  0
   10.7649  -15.7709   22.1832 O   0  0  0  0  0  0  0  0  0  0  0  0
    8.5392  -16.0318   22.5668 N   0  0  0  0  0  0  0  0  0  0  0  0
    8.4640  -15.1460   23.6736 C   0  0  1  0  0  0  0  0  0  0  0  0
    7.1396  -14.5083   23.9163 C   0  0  0  0  0  0  0  0  0  0  0  0
    7.1020  -13.6509   25.1107 C   0  0  0  0  0  0  0  0  0  0  0  0
    6.3887  -14.0326   26.2220 C   0  0  0  0  0  0  0  0  0  0  0  0
    6.3273  -13.2574   27.3638 C   0  0  0  0  0  0  0  0  0  0  0  0
    6.9922  -12.0664   27.4090 C   0  0  0  0  0  0  0  0  0  0  0  0
    7.7150  -11.6546   26.3154 C   0  0  0  0  0  0  0  0  0  0  0  0
    7.7613  -12.4459   25.1866 C   0  0  0  0  0  0  0  0  0  0  0  0
    8.9142  -15.8558   24.8928 C   0  0  0  0  0  0  0  0  0  0  0  0
    8.2531  -16.8192   25.3367 O   0  0  0  0  0  0  0  0  0  0  0  0
   12.1604  -16.3498   26.5619 C   0  0  0  0  0  0  0  0  0  0  0  0
   10.6511  -16.3303   26.6499 C   0  0  2  0  0  0  0  0  0  0  0  0
   10.0985  -15.4851   25.6070 N   0  0  0  0  0  0  0  0  0  0  0  0
   10.1746  -15.8639   27.9797 C   0  0  0  0  0  0  0  0  0  0  0  0
   10.4049  -16.5699   29.1453 O   0  0  0  0  0  0  0  0  0  0  0  0
    9.5400  -14.7950   28.0658 O   0  0  0  0  0  0  0  0  0  0  0  0
  2  1  1  1
  2  3  1  0
  4  2  1  0
  5  7  1  0
  5  4  1  0
  5  6  1  6
  7  8  2  0
  9 10  1  0
  9  7  1  0
 10 11  1  1
 12 13  2  0
 12 11  1  0
 14 13  1  0
 15 14  2  0
 16 17  2  0
 16 15  1  0
 17 12  1  0
 18 10  1  0
 19 18  2  0
 21 20  1  1
 21 22  1  0
 22 18  1  0
 23 21  1  0
 23 24  1  0
 25 23  2  0
M  END
$$$$
