LFA.pdb
     RDKit          3D

 25 25  0  0  1  0  0  0  0  0999 V2000
   10.6609  -21.1766   21.9134 C   0  0  0  0  0  0  0  0  0  0  0  0
   10.1775  -20.0148   21.0349 C   0  0  2  0  0  0  0  0  0  0  0  0
   10.6743  -20.2243   19.6489 C   0  0  0  0  0  0  0  0  0  0  0  0
   10.6667  -18.7546   21.6884 C   0  0  0  0  0  0  0  0  0  0  0  0
   10.1055  -17.5045   21.0877 C   0  0  2  0  0  0  0  0  0  0  0  0
   10.9176  -16.9942   19.9983 N   0  0  0  0  0  0  0  0  0  0  0  0
   10.1015  -16.4553   22.1427 C   0  0  0  0  0  0  0  0  0  0  0  0
   11.1027  -15.7782   22.4389 O   0  0  0  0  0  0  0  0  0  0  0  0
    8.9080  -16.1946   22.8618 N   0  0  0  0  0  0  0  0  0  0  0  0
    8.7514  -15.2099   23.8724 C   0  0  1  0  0  0  0  0  0  0  0  0
    7.3910  -14.6179   24.0082 C   0  0  0  0  0  0  0  0  0  0  0  0
    7.2824  -13.6159   25.0794 C   0  0  0  0  0  0  0  0  0  0  0  0
    6.4516  -13.8293   26.1535 C   0  0  0  0  0  0  0  0  0  0  0  0
    6.3203  -12.9146   27.1803 C   0  0  0  0  0  0  0  0  0  0  0  0
    7.0330  -11.7512   27.1447 C   0  0  0  0  0  0  0  0  0  0  0  0
    7.8729  -11.5060   26.0852 C   0  0  0  0  0  0  0  0  0  0  0  0
    7.9873  -12.4346   25.0717 C   0  0  0  0  0  0  0  0  0  0  0  0
    9.1890  -15.7741   25.1697 C   0  0  0  0  0  0  0  0  0  0  0  0
    8.6428  -16.8039   25.6208 O   0  0  0  0  0  0  0  0  0  0  0  0
   12.2771  -15.5378   27.2209 C   0  0  0  0  0  0  0  0  0  0  0  0
   10.8094  -15.8775   27.0914 C   0  0  2  0  0  0  0  0  0  0  0  0
   10.2326  -15.1852   25.9533 N   0  0  0  0  0  0  0  0  0  0  0  0
   10.0468  -15.5411   28.3236 C   0  0  0  0  0  0  0  0  0  0  0  0
    9.0320  -14.6030   28.3411 O   0  0  0  0  0  0  0  0  0  0  0  0
   10.3202  -16.1186   29.3934 O   0  0  0  0  0  0  0  0  0  0  0  0
  2  1  1  1
  2  3  1  0
  4  2  1  0
  5  7  1  0
  5  4  1  0
  5  6  1  6
  7  8  2  0
  9 10  1  0
  9  7  1  0
 10 11  1  1
 12 13  2  0
 12 11  1  0
 14 13  1  0
 15 14  2  0
 16 17  2  0
 16 15  1  0
 17 12  1  0
 18 10  1  0
 19 18  2  0
 21 20  1  1
 21 22  1  0
 22 18  1  0
 23 21  1  0
 23 24  1  0
 25 23  2  0
M  END
$$$$
