LFA.pdb
     RDKit          3D

 25 25  0  0  1  0  0  0  0  0999 V2000
    8.1078  -14.4507   18.3518 C   0  0  0  0  0  0  0  0  0  0  0  0
    7.7925  -13.4928   19.5086 C   0  0  2  0  0  0  0  0  0  0  0  0
    7.8804  -12.0947   19.0095 C   0  0  0  0  0  0  0  0  0  0  0  0
    8.7581  -13.8231   20.6101 C   0  0  0  0  0  0  0  0  0  0  0  0
    8.5932  -15.2024   21.1656 C   0  0  2  0  0  0  0  0  0  0  0  0
    7.2070  -15.6317   21.1939 N   0  0  0  0  0  0  0  0  0  0  0  0
    9.0611  -15.1826   22.5779 C   0  0  0  0  0  0  0  0  0  0  0  0
   10.1281  -14.6532   22.9384 O   0  0  0  0  0  0  0  0  0  0  0  0
    8.2687  -15.7915   23.5833 N   0  0  0  0  0  0  0  0  0  0  0  0
    8.5593  -15.7972   24.9728 C   0  0  1  0  0  0  0  0  0  0  0  0
    7.4203  -15.4932   25.8838 C   0  0  0  0  0  0  0  0  0  0  0  0
    7.1923  -14.0552   26.0919 C   0  0  0  0  0  0  0  0  0  0  0  0
    5.9908  -13.4820   25.7493 C   0  0  0  0  0  0  0  0  0  0  0  0
    5.7355  -12.1362   25.9280 C   0  0  0  0  0  0  0  0  0  0  0  0
    6.6987  -11.3305   26.4625 C   0  0  0  0  0  0  0  0  0  0  0  0
    7.9115  -11.8711   26.8162 C   0  0  0  0  0  0  0  0  0  0  0  0
    8.1429  -13.2179   26.6281 C   0  0  0  0  0  0  0  0  0  0  0  0
    9.1629  -17.1000   25.3355 C   0  0  0  0  0  0  0  0  0  0  0  0
    8.4682  -18.1390   25.3163 O   0  0  0  0  0  0  0  0  0  0  0  0
   12.5641  -18.5744   25.6819 C   0  0  0  0  0  0  0  0  0  0  0  0
   11.1039  -18.5217   26.0706 C   0  0  2  0  0  0  0  0  0  0  0  0
   10.5365  -17.2333   25.7166 N   0  0  0  0  0  0  0  0  0  0  0  0
   10.9021  -18.7780   27.5220 C   0  0  0  0  0  0  0  0  0  0  0  0
   10.3797  -17.8307   28.3821 O   0  0  0  0  0  0  0  0  0  0  0  0
   11.2110  -19.8866   27.9999 O   0  0  0  0  0  0  0  0  0  0  0  0
  2  1  1  6
  2  3  1  0
  4  2  1  0
  5  7  1  0
  5  4  1  0
  5  6  1  1
  7  8  2  0
  9 10  1  0
  9  7  1  0
 10 11  1  1
 12 13  2  0
 12 11  1  0
 14 13  1  0
 15 14  2  0
 16 17  2  0
 16 15  1  0
 17 12  1  0
 18 10  1  0
 19 18  2  0
 21 20  1  1
 21 22  1  0
 22 18  1  0
 23 21  1  0
 23 24  1  0
 25 23  2  0
M  END
$$$$
