LFA.pdb
     RDKit          3D

 25 25  0  0  1  0  0  0  0  0999 V2000
    6.1181  -14.7826   19.2980 C   0  0  0  0  0  0  0  0  0  0  0  0
    7.5424  -15.2700   18.9995 C   0  0  2  0  0  0  0  0  0  0  0  0
    7.4619  -16.5433   18.2355 C   0  0  0  0  0  0  0  0  0  0  0  0
    8.2406  -15.3813   20.3242 C   0  0  0  0  0  0  0  0  0  0  0  0
    8.2419  -14.1117   21.1158 C   0  0  2  0  0  0  0  0  0  0  0  0
    9.0710  -13.0810   20.5182 N   0  0  0  0  0  0  0  0  0  0  0  0
    8.8288  -14.4088   22.4505 C   0  0  0  0  0  0  0  0  0  0  0  0
    9.9844  -14.0836   22.7781 O   0  0  0  0  0  0  0  0  0  0  0  0
    8.0516  -15.0967   23.4161 N   0  0  0  0  0  0  0  0  0  0  0  0
    8.4004  -15.2769   24.7803 C   0  0  1  0  0  0  0  0  0  0  0  0
    7.2959  -15.1190   25.7676 C   0  0  0  0  0  0  0  0  0  0  0  0
    7.0102  -13.7205   26.1221 C   0  0  0  0  0  0  0  0  0  0  0  0
    5.7341  -13.2203   26.0173 C   0  0  0  0  0  0  0  0  0  0  0  0
    5.4229  -11.9136   26.3399 C   0  0  0  0  0  0  0  0  0  0  0  0
    6.4044  -11.0738   26.7803 C   0  0  0  0  0  0  0  0  0  0  0  0
    7.6912  -11.5414   26.8967 C   0  0  0  0  0  0  0  0  0  0  0  0
    7.9775  -12.8503   26.5686 C   0  0  0  0  0  0  0  0  0  0  0  0
    9.0401  -16.6023   24.9452 C   0  0  0  0  0  0  0  0  0  0  0  0
    9.2092  -17.0781   26.0886 O   0  0  0  0  0  0  0  0  0  0  0  0
   11.6819  -18.0075   22.9953 C   0  0  0  0  0  0  0  0  0  0  0  0
   10.5709  -18.3415   23.9649 C   0  0  2  0  0  0  0  0  0  0  0  0
    9.4857  -17.3864   23.8332 N   0  0  0  0  0  0  0  0  0  0  0  0
   11.0479  -18.3689   25.3738 C   0  0  0  0  0  0  0  0  0  0  0  0
   11.6680  -17.2890   25.9734 O   0  0  0  0  0  0  0  0  0  0  0  0
   10.8906  -19.3991   26.0568 O   0  0  0  0  0  0  0  0  0  0  0  0
  2  1  1  1
  2  3  1  0
  4  2  1  0
  5  7  1  0
  5  4  1  0
  5  6  1  6
  7  8  2  0
  9 10  1  0
  9  7  1  0
 10 11  1  1
 12 13  2  0
 12 11  1  0
 14 13  1  0
 15 14  2  0
 16 17  2  0
 16 15  1  0
 17 12  1  0
 18 10  1  0
 19 18  2  0
 21 20  1  6
 21 22  1  0
 22 18  1  0
 23 21  1  0
 23 24  1  0
 25 23  2  0
M  END
$$$$
