LFA.pdb
     RDKit          3D

 25 25  0  0  1  0  0  0  0  0999 V2000
    8.5560  -12.7459   17.9495 C   0  0  0  0  0  0  0  0  0  0  0  0
    8.2284  -13.9273   18.8726 C   0  0  2  0  0  0  0  0  0  0  0  0
    7.2723  -13.4688   19.9153 C   0  0  0  0  0  0  0  0  0  0  0  0
    9.5400  -14.4269   19.4063 C   0  0  0  0  0  0  0  0  0  0  0  0
    9.4171  -15.6373   20.2771 C   0  0  2  0  0  0  0  0  0  0  0  0
    8.1279  -16.2914   20.1466 N   0  0  0  0  0  0  0  0  0  0  0  0
    9.5265  -15.1919   21.6926 C   0  0  0  0  0  0  0  0  0  0  0  0
   10.5318  -14.6232   22.1557 O   0  0  0  0  0  0  0  0  0  0  0  0
    8.4433  -15.4155   22.5793 N   0  0  0  0  0  0  0  0  0  0  0  0
    8.2949  -14.8318   23.8649 C   0  0  1  0  0  0  0  0  0  0  0  0
    6.9361  -14.3227   24.2026 C   0  0  0  0  0  0  0  0  0  0  0  0
    6.8998  -13.4755   25.4044 C   0  0  0  0  0  0  0  0  0  0  0  0
    7.2731  -12.1543   25.3389 C   0  0  0  0  0  0  0  0  0  0  0  0
    7.2537  -11.3244   26.4431 C   0  0  0  0  0  0  0  0  0  0  0  0
    6.8526  -11.8161   27.6514 C   0  0  0  0  0  0  0  0  0  0  0  0
    6.4728  -13.1327   27.7522 C   0  0  0  0  0  0  0  0  0  0  0  0
    6.5005  -13.9419   26.6355 C   0  0  0  0  0  0  0  0  0  0  0  0
    8.7407  -15.8018   24.8911 C   0  0  0  0  0  0  0  0  0  0  0  0
    8.5509  -15.5627   26.1032 O   0  0  0  0  0  0  0  0  0  0  0  0
    9.6394  -19.3952   25.0684 C   0  0  0  0  0  0  0  0  0  0  0  0
    9.7930  -17.9807   25.5801 C   0  0  2  0  0  0  0  0  0  0  0  0
    9.3947  -17.0309   24.5570 N   0  0  0  0  0  0  0  0  0  0  0  0
   11.1851  -17.6927   26.0184 C   0  0  0  0  0  0  0  0  0  0  0  0
   11.9521  -16.6891   25.4577 O   0  0  0  0  0  0  0  0  0  0  0  0
   11.6974  -18.3741   26.9272 O   0  0  0  0  0  0  0  0  0  0  0  0
  2  1  1  6
  2  3  1  0
  4  2  1  0
  5  7  1  0
  5  4  1  0
  5  6  1  1
  7  8  2  0
  9 10  1  0
  9  7  1  0
 10 11  1  1
 12 13  2  0
 12 11  1  0
 14 13  1  0
 15 14  2  0
 16 17  2  0
 16 15  1  0
 17 12  1  0
 18 10  1  0
 19 18  2  0
 21 20  1  6
 21 22  1  0
 22 18  1  0
 23 21  1  0
 23 24  1  0
 25 23  2  0
M  END
$$$$
