LFA.pdb
     RDKit          3D

 25 25  0  0  1  0  0  0  0  0999 V2000
    6.7619  -13.8842   19.1221 C   0  0  0  0  0  0  0  0  0  0  0  0
    8.0968  -13.4417   19.7364 C   0  0  2  0  0  0  0  0  0  0  0  0
    8.4119  -12.0693   19.2582 C   0  0  0  0  0  0  0  0  0  0  0  0
    9.1082  -14.4830   19.3521 C   0  0  0  0  0  0  0  0  0  0  0  0
    9.1165  -15.6789   20.2512 C   0  0  2  0  0  0  0  0  0  0  0  0
    7.8689  -16.4194   20.2081 N   0  0  0  0  0  0  0  0  0  0  0  0
    9.2760  -15.1954   21.6493 C   0  0  0  0  0  0  0  0  0  0  0  0
   10.2935  -14.6075   22.0587 O   0  0  0  0  0  0  0  0  0  0  0  0
    8.2291  -15.4030   22.5822 N   0  0  0  0  0  0  0  0  0  0  0  0
    8.2246  -14.9586   23.9305 C   0  0  1  0  0  0  0  0  0  0  0  0
    6.9332  -14.4181   24.4402 C   0  0  0  0  0  0  0  0  0  0  0  0
    7.0432  -13.7436   25.7426 C   0  0  0  0  0  0  0  0  0  0  0  0
    7.5940  -12.4876   25.8342 C   0  0  0  0  0  0  0  0  0  0  0  0
    7.7160  -11.8192   27.0369 C   0  0  0  0  0  0  0  0  0  0  0  0
    7.2794  -12.4110   28.1866 C   0  0  0  0  0  0  0  0  0  0  0  0
    6.7235  -13.6664   28.1309 C   0  0  0  0  0  0  0  0  0  0  0  0
    6.6125  -14.3139   26.9181 C   0  0  0  0  0  0  0  0  0  0  0  0
    8.6920  -16.0591   24.8042 C   0  0  0  0  0  0  0  0  0  0  0  0
    8.0760  -17.1465   24.8255 O   0  0  0  0  0  0  0  0  0  0  0  0
   11.8205  -17.3173   25.9597 C   0  0  0  0  0  0  0  0  0  0  0  0
   10.3827  -17.0796   26.3629 C   0  0  2  0  0  0  0  0  0  0  0  0
    9.8430  -15.9378   25.6471 N   0  0  0  0  0  0  0  0  0  0  0  0
   10.2409  -16.8668   27.8284 C   0  0  0  0  0  0  0  0  0  0  0  0
   10.3363  -17.8965   28.7453 O   0  0  0  0  0  0  0  0  0  0  0  0
   10.0270  -15.7198   28.2657 O   0  0  0  0  0  0  0  0  0  0  0  0
  2  1  1  6
  2  3  1  0
  4  2  1  0
  5  7  1  0
  5  4  1  0
  5  6  1  1
  7  8  2  0
  9 10  1  0
  9  7  1  0
 10 11  1  1
 12 13  2  0
 12 11  1  0
 14 13  1  0
 15 14  2  0
 16 17  2  0
 16 15  1  0
 17 12  1  0
 18 10  1  0
 19 18  2  0
 21 20  1  1
 21 22  1  0
 22 18  1  0
 23 21  1  0
 23 24  1  0
 25 23  2  0
M  END
$$$$
