LFA.pdb
     RDKit          3D

 25 25  0  0  1  0  0  0  0  0999 V2000
    8.3076  -14.3087   18.5538 C   0  0  0  0  0  0  0  0  0  0  0  0
    7.5925  -13.5151   19.6556 C   0  0  2  0  0  0  0  0  0  0  0  0
    7.4362  -12.1063   19.2056 C   0  0  0  0  0  0  0  0  0  0  0  0
    8.4124  -13.6837   20.9022 C   0  0  0  0  0  0  0  0  0  0  0  0
    8.5635  -15.1067   21.3389 C   0  0  2  0  0  0  0  0  0  0  0  0
    7.2964  -15.8126   21.3928 N   0  0  0  0  0  0  0  0  0  0  0  0
    9.1068  -15.1018   22.7242 C   0  0  0  0  0  0  0  0  0  0  0  0
   10.1832  -14.5605   23.0357 O   0  0  0  0  0  0  0  0  0  0  0  0
    8.3795  -15.7398   23.7603 N   0  0  0  0  0  0  0  0  0  0  0  0
    8.7582  -15.7852   25.1277 C   0  0  1  0  0  0  0  0  0  0  0  0
    7.6719  -15.5469   26.1189 C   0  0  0  0  0  0  0  0  0  0  0  0
    7.3266  -14.1279   26.2937 C   0  0  0  0  0  0  0  0  0  0  0  0
    6.0243  -13.7058   26.1698 C   0  0  0  0  0  0  0  0  0  0  0  0
    5.6573  -12.3833   26.3261 C   0  0  0  0  0  0  0  0  0  0  0  0
    6.6079  -11.4473   26.6142 C   0  0  0  0  0  0  0  0  0  0  0  0
    7.9196  -11.8352   26.7448 C   0  0  0  0  0  0  0  0  0  0  0  0
    8.2617  -13.1617   26.5842 C   0  0  0  0  0  0  0  0  0  0  0  0
    9.4192  -17.0812   25.4039 C   0  0  0  0  0  0  0  0  0  0  0  0
    9.3005  -17.6180   26.5265 O   0  0  0  0  0  0  0  0  0  0  0  0
   11.2231  -19.7537   23.4578 C   0  0  0  0  0  0  0  0  0  0  0  0
   10.8766  -19.0191   24.7331 C   0  0  2  0  0  0  0  0  0  0  0  0
   10.2073  -17.7682   24.4257 N   0  0  0  0  0  0  0  0  0  0  0  0
   12.0778  -18.7539   25.5696 C   0  0  0  0  0  0  0  0  0  0  0  0
   12.5248  -17.4767   25.8510 O   0  0  0  0  0  0  0  0  0  0  0  0
   12.7201  -19.7101   26.0447 O   0  0  0  0  0  0  0  0  0  0  0  0
  2  1  1  6
  2  3  1  0
  4  2  1  0
  5  7  1  0
  5  4  1  0
  5  6  1  1
  7  8  2  0
  9 10  1  0
  9  7  1  0
 10 11  1  1
 12 13  2  0
 12 11  1  0
 14 13  1  0
 15 14  2  0
 16 17  2  0
 16 15  1  0
 17 12  1  0
 18 10  1  0
 19 18  2  0
 21 20  1  6
 21 22  1  0
 22 18  1  0
 23 21  1  0
 23 24  1  0
 25 23  2  0
M  END
$$$$
