LFA.pdb
     RDKit          3D

 25 25  0  0  1  0  0  0  0  0999 V2000
    8.0587  -14.4941   18.3893 C   0  0  0  0  0  0  0  0  0  0  0  0
    7.6806  -13.6035   19.5806 C   0  0  2  0  0  0  0  0  0  0  0  0
    7.6053  -12.1923   19.1179 C   0  0  0  0  0  0  0  0  0  0  0  0
    8.7095  -13.8564   20.6446 C   0  0  0  0  0  0  0  0  0  0  0  0
    8.6870  -15.2499   21.1889 C   0  0  2  0  0  0  0  0  0  0  0  0
    7.3652  -15.8476   21.1406 N   0  0  0  0  0  0  0  0  0  0  0  0
    9.0714  -15.1833   22.6247 C   0  0  0  0  0  0  0  0  0  0  0  0
   10.0660  -14.5608   23.0392 O   0  0  0  0  0  0  0  0  0  0  0  0
    8.2800  -15.8553   23.5900 N   0  0  0  0  0  0  0  0  0  0  0  0
    8.5339  -15.8900   24.9863 C   0  0  1  0  0  0  0  0  0  0  0  0
    7.3659  -15.6284   25.8734 C   0  0  0  0  0  0  0  0  0  0  0  0
    7.1601  -14.2052   26.1821 C   0  0  0  0  0  0  0  0  0  0  0  0
    6.0279  -13.5544   25.7533 C   0  0  0  0  0  0  0  0  0  0  0  0
    5.7957  -12.2192   26.0214 C   0  0  0  0  0  0  0  0  0  0  0  0
    6.7121  -11.5040   26.7364 C   0  0  0  0  0  0  0  0  0  0  0  0
    7.8553  -12.1238   27.1803 C   0  0  0  0  0  0  0  0  0  0  0  0
    8.0648  -13.4580   26.9001 C   0  0  0  0  0  0  0  0  0  0  0  0
    9.1512  -17.1905   25.3337 C   0  0  0  0  0  0  0  0  0  0  0  0
    8.4730  -18.2391   25.2826 O   0  0  0  0  0  0  0  0  0  0  0  0
   12.5566  -18.6227   25.5271 C   0  0  0  0  0  0  0  0  0  0  0  0
   11.1214  -18.6047   26.0027 C   0  0  2  0  0  0  0  0  0  0  0  0
   10.5203  -17.3107   25.7350 N   0  0  0  0  0  0  0  0  0  0  0  0
   11.0087  -18.9209   27.4520 C   0  0  0  0  0  0  0  0  0  0  0  0
   10.4669  -18.0399   28.3687 O   0  0  0  0  0  0  0  0  0  0  0  0
   11.4142  -20.0205   27.8752 O   0  0  0  0  0  0  0  0  0  0  0  0
  2  1  1  6
  2  3  1  0
  4  2  1  0
  5  7  1  0
  5  4  1  0
  5  6  1  1
  7  8  2  0
  9 10  1  0
  9  7  1  0
 10 11  1  1
 12 13  2  0
 12 11  1  0
 14 13  1  0
 15 14  2  0
 16 17  2  0
 16 15  1  0
 17 12  1  0
 18 10  1  0
 19 18  2  0
 21 20  1  1
 21 22  1  0
 22 18  1  0
 23 21  1  0
 23 24  1  0
 25 23  2  0
M  END
$$$$
