LFA.pdb
     RDKit          3D

 25 25  0  0  1  0  0  0  0  0999 V2000
    7.8878  -14.3441   18.6339 C   0  0  0  0  0  0  0  0  0  0  0  0
    7.6740  -13.4862   19.8883 C   0  0  2  0  0  0  0  0  0  0  0  0
    7.5736  -12.0596   19.4807 C   0  0  0  0  0  0  0  0  0  0  0  0
    8.8173  -13.7912   20.8127 C   0  0  0  0  0  0  0  0  0  0  0  0
    8.8023  -15.1861   21.3536 C   0  0  2  0  0  0  0  0  0  0  0  0
    7.5050  -15.8234   21.2204 N   0  0  0  0  0  0  0  0  0  0  0  0
    9.0918  -15.1116   22.8112 C   0  0  0  0  0  0  0  0  0  0  0  0
   10.0727  -14.5096   23.2845 O   0  0  0  0  0  0  0  0  0  0  0  0
    8.2204  -15.7510   23.7284 N   0  0  0  0  0  0  0  0  0  0  0  0
    8.4143  -15.8313   25.1324 C   0  0  1  0  0  0  0  0  0  0  0  0
    7.2169  -15.5640   25.9777 C   0  0  0  0  0  0  0  0  0  0  0  0
    7.0070  -14.1397   26.2787 C   0  0  0  0  0  0  0  0  0  0  0  0
    8.0430  -13.3637   26.7412 C   0  0  0  0  0  0  0  0  0  0  0  0
    7.8887  -12.0229   27.0358 C   0  0  0  0  0  0  0  0  0  0  0  0
    6.6712  -11.4295   26.8678 C   0  0  0  0  0  0  0  0  0  0  0  0
    5.6138  -12.1763   26.4070 C   0  0  0  0  0  0  0  0  0  0  0  0
    5.7925  -13.5136   26.1197 C   0  0  0  0  0  0  0  0  0  0  0  0
    8.9837  -17.1567   25.4673 C   0  0  0  0  0  0  0  0  0  0  0  0
    8.5700  -17.7813   26.4678 O   0  0  0  0  0  0  0  0  0  0  0  0
   11.0509  -19.7510   23.7230 C   0  0  0  0  0  0  0  0  0  0  0  0
   10.4797  -19.1176   24.9716 C   0  0  2  0  0  0  0  0  0  0  0  0
   10.0099  -17.7747   24.6831 N   0  0  0  0  0  0  0  0  0  0  0  0
   11.4703  -19.0760   26.0807 C   0  0  0  0  0  0  0  0  0  0  0  0
   11.9678  -17.8931   26.5937 O   0  0  0  0  0  0  0  0  0  0  0  0
   11.8798  -20.1416   26.5802 O   0  0  0  0  0  0  0  0  0  0  0  0
  2  1  1  6
  2  3  1  0
  4  2  1  0
  5  7  1  0
  5  4  1  0
  5  6  1  1
  7  8  2  0
  9 10  1  0
  9  7  1  0
 10 11  1  1
 12 13  2  0
 12 11  1  0
 14 13  1  0
 15 14  2  0
 16 17  2  0
 16 15  1  0
 17 12  1  0
 18 10  1  0
 19 18  2  0
 21 20  1  6
 21 22  1  0
 22 18  1  0
 23 21  1  0
 23 24  1  0
 25 23  2  0
M  END
$$$$
