LFA.pdb
     RDKit          3D

 25 25  0  0  1  0  0  0  0  0999 V2000
    8.4389  -11.9752   19.0797 C   0  0  0  0  0  0  0  0  0  0  0  0
    7.9597  -13.3061   19.6749 C   0  0  2  0  0  0  0  0  0  0  0  0
    6.4897  -13.2333   19.8876 C   0  0  0  0  0  0  0  0  0  0  0  0
    8.7602  -13.5257   20.9262 C   0  0  0  0  0  0  0  0  0  0  0  0
    8.8175  -14.9550   21.3646 C   0  0  2  0  0  0  0  0  0  0  0  0
    7.5028  -15.5612   21.4680 N   0  0  0  0  0  0  0  0  0  0  0  0
    9.4098  -14.9885   22.7292 C   0  0  0  0  0  0  0  0  0  0  0  0
   10.4860  -14.4369   23.0223 O   0  0  0  0  0  0  0  0  0  0  0  0
    8.7323  -15.6779   23.7662 N   0  0  0  0  0  0  0  0  0  0  0  0
    9.1285  -15.7148   25.1289 C   0  0  1  0  0  0  0  0  0  0  0  0
    8.0508  -15.4915   26.1330 C   0  0  0  0  0  0  0  0  0  0  0  0
    7.6029  -14.0936   26.2243 C   0  0  0  0  0  0  0  0  0  0  0  0
    6.3036  -13.7559   25.9289 C   0  0  0  0  0  0  0  0  0  0  0  0
    5.8422  -12.4559   26.0019 C   0  0  0  0  0  0  0  0  0  0  0  0
    6.6923  -11.4570   26.3790 C   0  0  0  0  0  0  0  0  0  0  0  0
    7.9980  -11.7597   26.6814 C   0  0  0  0  0  0  0  0  0  0  0  0
    8.4354  -13.0654   26.6012 C   0  0  0  0  0  0  0  0  0  0  0  0
    9.8129  -16.9999   25.3992 C   0  0  0  0  0  0  0  0  0  0  0  0
    9.9502  -17.4010   26.5750 O   0  0  0  0  0  0  0  0  0  0  0  0
   10.9190  -20.0067   23.4476 C   0  0  0  0  0  0  0  0  0  0  0  0
   10.9967  -19.0881   24.6461 C   0  0  2  0  0  0  0  0  0  0  0  0
   10.3385  -17.8273   24.3556 N   0  0  0  0  0  0  0  0  0  0  0  0
   12.4011  -18.8364   25.0674 C   0  0  0  0  0  0  0  0  0  0  0  0
   12.9981  -17.5936   24.9718 O   0  0  0  0  0  0  0  0  0  0  0  0
   13.0826  -19.7725   25.5279 O   0  0  0  0  0  0  0  0  0  0  0  0
  2  1  1  1
  2  3  1  0
  4  2  1  0
  5  7  1  0
  5  4  1  0
  5  6  1  1
  7  8  2  0
  9 10  1  0
  9  7  1  0
 10 11  1  1
 12 13  2  0
 12 11  1  0
 14 13  1  0
 15 14  2  0
 16 17  2  0
 16 15  1  0
 17 12  1  0
 18 10  1  0
 19 18  2  0
 21 20  1  6
 21 22  1  0
 22 18  1  0
 23 21  1  0
 23 24  1  0
 25 23  2  0
M  END
$$$$
