LFA.pdb
     RDKit          3D

 25 25  0  0  1  0  0  0  0  0999 V2000
    8.3297  -12.2424   19.0429 C   0  0  0  0  0  0  0  0  0  0  0  0
    8.0351  -13.6542   19.5676 C   0  0  2  0  0  0  0  0  0  0  0  0
    6.6037  -13.7283   19.9636 C   0  0  0  0  0  0  0  0  0  0  0  0
    9.0049  -13.9034   20.6866 C   0  0  0  0  0  0  0  0  0  0  0  0
    8.9592  -15.2977   21.2272 C   0  0  2  0  0  0  0  0  0  0  0  0
    7.6407  -15.8954   21.1217 N   0  0  0  0  0  0  0  0  0  0  0  0
    9.2819  -15.2333   22.6783 C   0  0  0  0  0  0  0  0  0  0  0  0
   10.2791  -14.6435   23.1325 O   0  0  0  0  0  0  0  0  0  0  0  0
    8.4249  -15.8687   23.6118 N   0  0  0  0  0  0  0  0  0  0  0  0
    8.5923  -15.8653   25.0215 C   0  0  1  0  0  0  0  0  0  0  0  0
    7.3817  -15.5396   25.8264 C   0  0  0  0  0  0  0  0  0  0  0  0
    7.2686  -14.1169   26.1820 C   0  0  0  0  0  0  0  0  0  0  0  0
    6.0817  -13.4460   26.0081 C   0  0  0  0  0  0  0  0  0  0  0  0
    5.9328  -12.1106   26.3289 C   0  0  0  0  0  0  0  0  0  0  0  0
    6.9912  -11.4156   26.8383 C   0  0  0  0  0  0  0  0  0  0  0  0
    8.1925  -12.0559   27.0250 C   0  0  0  0  0  0  0  0  0  0  0  0
    8.3168  -13.3899   26.6970 C   0  0  0  0  0  0  0  0  0  0  0  0
    9.1453  -17.1718   25.4462 C   0  0  0  0  0  0  0  0  0  0  0  0
    8.4207  -18.1902   25.4402 O   0  0  0  0  0  0  0  0  0  0  0  0
   12.5257  -18.6791   25.9042 C   0  0  0  0  0  0  0  0  0  0  0  0
   11.0445  -18.6369   26.2049 C   0  0  2  0  0  0  0  0  0  0  0  0
   10.5023  -17.3316   25.8742 N   0  0  0  0  0  0  0  0  0  0  0  0
   10.7537  -18.9559   27.6285 C   0  0  0  0  0  0  0  0  0  0  0  0
   10.9961  -20.1999   28.1798 O   0  0  0  0  0  0  0  0  0  0  0  0
   10.2717  -18.0778   28.3697 O   0  0  0  0  0  0  0  0  0  0  0  0
  2  1  1  1
  2  3  1  0
  4  2  1  0
  5  7  1  0
  5  4  1  0
  5  6  1  1
  7  8  2  0
  9 10  1  0
  9  7  1  0
 10 11  1  1
 12 13  2  0
 12 11  1  0
 14 13  1  0
 15 14  2  0
 16 17  2  0
 16 15  1  0
 17 12  1  0
 18 10  1  0
 19 18  2  0
 21 20  1  1
 21 22  1  0
 22 18  1  0
 23 21  1  0
 23 24  1  0
 25 23  2  0
M  END
$$$$
