LFA.pdb
     RDKit          3D

 25 25  0  0  1  0  0  0  0  0999 V2000
    8.9900  -21.3446   23.9985 C   0  0  0  0  0  0  0  0  0  0  0  0
   10.2230  -20.7402   23.3132 C   0  0  2  0  0  0  0  0  0  0  0  0
   11.4450  -21.3401   23.9117 C   0  0  0  0  0  0  0  0  0  0  0  0
   10.1148  -19.2516   23.4780 C   0  0  0  0  0  0  0  0  0  0  0  0
    8.8835  -18.6631   22.8647 C   0  0  2  0  0  0  0  0  0  0  0  0
    8.8736  -18.7708   21.4173 N   0  0  0  0  0  0  0  0  0  0  0  0
    8.8673  -17.2097   23.1831 C   0  0  0  0  0  0  0  0  0  0  0  0
    9.5238  -16.3627   22.5504 O   0  0  0  0  0  0  0  0  0  0  0  0
    8.0710  -16.7405   24.2580 N   0  0  0  0  0  0  0  0  0  0  0  0
    7.9022  -15.3804   24.6279 C   0  0  1  0  0  0  0  0  0  0  0  0
    6.5606  -15.0044   25.1557 C   0  0  0  0  0  0  0  0  0  0  0  0
    6.4450  -13.5873   25.5319 C   0  0  0  0  0  0  0  0  0  0  0  0
    6.6456  -12.5985   24.5984 C   0  0  0  0  0  0  0  0  0  0  0  0
    6.5466  -11.2562   24.9096 C   0  0  0  0  0  0  0  0  0  0  0  0
    6.2394  -10.8787   26.1846 C   0  0  0  0  0  0  0  0  0  0  0  0
    6.0325  -11.8416   27.1427 C   0  0  0  0  0  0  0  0  0  0  0  0
    6.1369  -13.1756   26.8078 C   0  0  0  0  0  0  0  0  0  0  0  0
    8.9516  -15.0108   25.6053 C   0  0  0  0  0  0  0  0  0  0  0  0
    8.9541  -13.8722   26.1209 O   0  0  0  0  0  0  0  0  0  0  0  0
   10.3572  -15.0835   28.2547 C   0  0  0  0  0  0  0  0  0  0  0  0
   11.0049  -15.5295   26.9633 C   0  0  2  0  0  0  0  0  0  0  0  0
    9.9898  -15.9145   25.9996 N   0  0  0  0  0  0  0  0  0  0  0  0
   11.9519  -16.6575   27.1732 C   0  0  0  0  0  0  0  0  0  0  0  0
   13.0481  -16.5664   28.0100 O   0  0  0  0  0  0  0  0  0  0  0  0
   11.7651  -17.7365   26.5786 O   0  0  0  0  0  0  0  0  0  0  0  0
  2  1  1  1
  2  3  1  0
  4  2  1  0
  5  7  1  0
  5  4  1  0
  5  6  1  6
  7  8  2  0
  9 10  1  0
  9  7  1  0
 10 11  1  1
 12 13  2  0
 12 11  1  0
 14 13  1  0
 15 14  2  0
 16 17  2  0
 16 15  1  0
 17 12  1  0
 18 10  1  0
 19 18  2  0
 21 20  1  1
 21 22  1  0
 22 18  1  0
 23 21  1  0
 23 24  1  0
 25 23  2  0
M  END
$$$$
