LFA.pdb
     RDKit          3D

 25 25  0  0  1  0  0  0  0  0999 V2000
    7.7978  -14.0100   18.6289 C   0  0  0  0  0  0  0  0  0  0  0  0
    7.4328  -13.2566   19.9152 C   0  0  2  0  0  0  0  0  0  0  0  0
    7.2849  -11.8114   19.5974 C   0  0  0  0  0  0  0  0  0  0  0  0
    8.5118  -13.5682   20.9118 C   0  0  0  0  0  0  0  0  0  0  0  0
    8.5386  -14.9995   21.3467 C   0  0  2  0  0  0  0  0  0  0  0  0
    7.2126  -15.5843   21.4268 N   0  0  0  0  0  0  0  0  0  0  0  0
    9.1078  -15.0466   22.7206 C   0  0  0  0  0  0  0  0  0  0  0  0
   10.1808  -14.5009   23.0364 O   0  0  0  0  0  0  0  0  0  0  0  0
    8.4111  -15.7427   23.7402 N   0  0  0  0  0  0  0  0  0  0  0  0
    8.7794  -15.7852   25.1106 C   0  0  1  0  0  0  0  0  0  0  0  0
    7.6734  -15.6142   26.0940 C   0  0  0  0  0  0  0  0  0  0  0  0
    7.2769  -14.2138   26.3061 C   0  0  0  0  0  0  0  0  0  0  0  0
    8.2173  -13.2619   26.6209 C   0  0  0  0  0  0  0  0  0  0  0  0
    7.8876  -11.9365   26.8280 C   0  0  0  0  0  0  0  0  0  0  0  0
    6.5866  -11.5386   26.7206 C   0  0  0  0  0  0  0  0  0  0  0  0
    5.6210  -12.4646   26.4071 C   0  0  0  0  0  0  0  0  0  0  0  0
    5.9746  -13.7824   26.2049 C   0  0  0  0  0  0  0  0  0  0  0  0
    9.5028  -17.0493   25.3782 C   0  0  0  0  0  0  0  0  0  0  0  0
    9.4933  -17.5454   26.5254 O   0  0  0  0  0  0  0  0  0  0  0  0
   10.9643  -19.8580   23.4000 C   0  0  0  0  0  0  0  0  0  0  0  0
   10.9094  -19.0020   24.6451 C   0  0  2  0  0  0  0  0  0  0  0  0
   10.2309  -17.7499   24.3638 N   0  0  0  0  0  0  0  0  0  0  0  0
   12.2642  -18.7270   25.1946 C   0  0  0  0  0  0  0  0  0  0  0  0
   12.8058  -17.4565   25.2453 O   0  0  0  0  0  0  0  0  0  0  0  0
   12.9537  -19.6684   25.6318 O   0  0  0  0  0  0  0  0  0  0  0  0
  2  1  1  6
  2  3  1  0
  4  2  1  0
  5  7  1  0
  5  4  1  0
  5  6  1  1
  7  8  2  0
  9 10  1  0
  9  7  1  0
 10 11  1  1
 12 13  2  0
 12 11  1  0
 14 13  1  0
 15 14  2  0
 16 17  2  0
 16 15  1  0
 17 12  1  0
 18 10  1  0
 19 18  2  0
 21 20  1  6
 21 22  1  0
 22 18  1  0
 23 21  1  0
 23 24  1  0
 25 23  2  0
M  END
$$$$
