LFA.pdb
     RDKit          3D

 25 25  0  0  1  0  0  0  0  0999 V2000
    8.4006  -19.7225   18.8667 C   0  0  0  0  0  0  0  0  0  0  0  0
    8.2034  -18.2020   18.8005 C   0  0  2  0  0  0  0  0  0  0  0  0
    8.7529  -17.7041   17.5115 C   0  0  0  0  0  0  0  0  0  0  0  0
    8.8664  -17.6331   20.0218 C   0  0  0  0  0  0  0  0  0  0  0  0
    8.3988  -16.2574   20.3785 C   0  0  2  0  0  0  0  0  0  0  0  0
    8.9285  -15.2390   19.4902 N   0  0  0  0  0  0  0  0  0  0  0  0
    8.9104  -15.9422   21.7398 C   0  0  0  0  0  0  0  0  0  0  0  0
   10.0761  -15.5688   21.9637 O   0  0  0  0  0  0  0  0  0  0  0  0
    8.0447  -16.0658   22.8555 N   0  0  0  0  0  0  0  0  0  0  0  0
    8.3913  -15.7885   24.2040 C   0  0  1  0  0  0  0  0  0  0  0  0
    7.2554  -15.5797   25.1450 C   0  0  0  0  0  0  0  0  0  0  0  0
    7.1243  -14.1944   25.6214 C   0  0  0  0  0  0  0  0  0  0  0  0
    8.1971  -13.5451   26.1843 C   0  0  0  0  0  0  0  0  0  0  0  0
    8.1168  -12.2450   26.6442 C   0  0  0  0  0  0  0  0  0  0  0  0
    6.9381  -11.5642   26.5446 C   0  0  0  0  0  0  0  0  0  0  0  0
    5.8457  -12.1835   25.9869 C   0  0  0  0  0  0  0  0  0  0  0  0
    5.9504  -13.4825   25.5348 C   0  0  0  0  0  0  0  0  0  0  0  0
    9.2738  -16.8657   24.7080 C   0  0  0  0  0  0  0  0  0  0  0  0
    9.5213  -17.8592   23.9911 O   0  0  0  0  0  0  0  0  0  0  0  0
   12.1950  -17.2075   25.3955 C   0  0  0  0  0  0  0  0  0  0  0  0
   11.0626  -17.5977   26.3184 C   0  0  2  0  0  0  0  0  0  0  0  0
    9.8732  -16.8257   26.0076 N   0  0  0  0  0  0  0  0  0  0  0  0
   11.4204  -17.4147   27.7507 C   0  0  0  0  0  0  0  0  0  0  0  0
   11.0127  -16.3193   28.4883 O   0  0  0  0  0  0  0  0  0  0  0  0
   12.1155  -18.2741   28.3260 O   0  0  0  0  0  0  0  0  0  0  0  0
  2  1  1  6
  2  3  1  0
  4  2  1  0
  5  7  1  0
  5  4  1  0
  5  6  1  6
  7  8  2  0
  9 10  1  0
  9  7  1  0
 10 11  1  1
 12 13  2  0
 12 11  1  0
 14 13  1  0
 15 14  2  0
 16 17  2  0
 16 15  1  0
 17 12  1  0
 18 10  1  0
 19 18  2  0
 21 20  1  6
 21 22  1  0
 22 18  1  0
 23 21  1  0
 23 24  1  0
 25 23  2  0
M  END
$$$$
