QSQ.pdb
     RDKit          3D

 25 24  0  0  1  0  0  0  0  0999 V2000
    8.3957  -12.7108   16.5308 N   0  0  0  0  0  0  0  0  0  0  0  0
    8.5656  -13.9801   15.9204 C   0  0  0  0  0  0  0  0  0  0  0  0
    8.3631  -14.2218   14.7254 O   0  0  0  0  0  0  0  0  0  0  0  0
    9.0225  -15.1088   16.7826 C   0  0  0  0  0  0  0  0  0  0  0  0
    9.0151  -14.7018   18.2063 C   0  0  0  0  0  0  0  0  0  0  0  0
    9.4757  -15.7768   19.1417 C   0  0  2  0  0  0  0  0  0  0  0  0
    8.4666  -16.8901   18.9603 N   0  0  0  0  0  0  0  0  0  0  0  0
    9.3806  -15.2514   20.5362 C   0  0  0  0  0  0  0  0  0  0  0  0
   10.1032  -14.3175   20.9375 O   0  0  0  0  0  0  0  0  0  0  0  0
    6.4118  -16.5182   23.3508 O   0  0  0  0  0  0  0  0  0  0  0  0
    6.9490  -15.2333   23.2216 C   0  0  0  0  0  0  0  0  0  0  0  0
    8.3815  -15.2661   22.8009 C   0  0  2  0  0  0  0  0  0  0  0  0
    8.4356  -15.8209   21.4501 N   0  0  0  0  0  0  0  0  0  0  0  0
    9.3089  -16.0160   23.6917 C   0  0  0  0  0  0  0  0  0  0  0  0
    9.8221  -17.0868   23.3441 O   0  0  0  0  0  0  0  0  0  0  0  0
   10.7882  -15.0832   30.9982 N   0  0  0  0  0  0  0  0  0  0  0  0
   10.1659  -14.8090   29.7651 C   0  0  0  0  0  0  0  0  0  0  0  0
    9.3510  -13.8520   29.6926 O   0  0  0  0  0  0  0  0  0  0  0  0
   10.5154  -15.6866   28.6062 C   0  0  0  0  0  0  0  0  0  0  0  0
    9.8690  -15.2159   27.3500 C   0  0  0  0  0  0  0  0  0  0  0  0
   10.1232  -16.0849   26.1400 C   0  0  2  0  0  0  0  0  0  0  0  0
    9.6027  -15.4886   24.9792 N   0  0  0  0  0  0  0  0  0  0  0  0
    9.7385  -17.4850   26.4664 C   0  0  0  0  0  0  0  0  0  0  0  0
   10.6011  -18.1392   27.1838 O   0  0  0  0  0  0  0  0  0  0  0  0
    8.5916  -18.1572   26.1119 O   0  0  0  0  0  0  0  0  0  0  0  0
  1  2  1  0
  2  3  2  0
  4  5  1  0
  4  2  1  0
  6  8  1  0
  6  5  1  0
  6  7  1  1
  8  9  2  0
 11 10  1  0
 12 11  1  1
 13 12  1  0
 13  8  1  0
 14 15  2  0
 14 12  1  0
 16 17  1  0
 17 19  1  0
 18 17  2  0
 19 20  1  0
 21 20  1  1
 21 22  1  0
 21 23  1  0
 22 14  1  0
 23 25  1  0
 24 23  2  0
M  END
$$$$
