QSQ.pdb
     RDKit          3D

 25 24  0  0  1  0  0  0  0  0999 V2000
   16.1301  -14.0287   20.0739 N   0  0  0  0  0  0  0  0  0  0  0  0
   15.9861  -14.5565   18.7650 C   0  0  0  0  0  0  0  0  0  0  0  0
   16.9065  -14.6847   17.9501 O   0  0  0  0  0  0  0  0  0  0  0  0
   14.6238  -14.9895   18.3376 C   0  0  0  0  0  0  0  0  0  0  0  0
   13.6548  -14.7954   19.4403 C   0  0  0  0  0  0  0  0  0  0  0  0
   12.2854  -15.3201   19.1371 C   0  0  2  0  0  0  0  0  0  0  0  0
   11.7617  -14.4001   18.0555 N   0  0  0  0  0  0  0  0  0  0  0  0
   11.4462  -15.1639   20.3623 C   0  0  0  0  0  0  0  0  0  0  0  0
   11.0589  -14.0456   20.7557 O   0  0  0  0  0  0  0  0  0  0  0  0
    9.2562  -18.2669   22.1199 O   0  0  0  0  0  0  0  0  0  0  0  0
    9.0127  -16.8917   22.1960 C   0  0  0  0  0  0  0  0  0  0  0  0
   10.2762  -16.1070   22.3293 C   0  0  2  0  0  0  0  0  0  0  0  0
   11.0621  -16.3202   21.1160 N   0  0  0  0  0  0  0  0  0  0  0  0
   11.1081  -16.4032   23.5277 C   0  0  0  0  0  0  0  0  0  0  0  0
   12.1300  -17.0970   23.4556 O   0  0  0  0  0  0  0  0  0  0  0  0
    9.3812  -13.5383   28.8563 N   0  0  0  0  0  0  0  0  0  0  0  0
   10.1915  -14.5330   29.4366 C   0  0  0  0  0  0  0  0  0  0  0  0
   10.3404  -14.5459   30.6867 O   0  0  0  0  0  0  0  0  0  0  0  0
   10.8345  -15.5214   28.5174 C   0  0  0  0  0  0  0  0  0  0  0  0
   10.5019  -15.2400   27.0935 C   0  0  0  0  0  0  0  0  0  0  0  0
   11.0465  -16.2432   26.1031 C   0  0  2  0  0  0  0  0  0  0  0  0
   10.7088  -15.8805   24.7884 N   0  0  0  0  0  0  0  0  0  0  0  0
   10.7180  -17.6141   26.5802 C   0  0  0  0  0  0  0  0  0  0  0  0
   11.6252  -18.1690   27.3255 O   0  0  0  0  0  0  0  0  0  0  0  0
    9.5813  -18.3503   26.3370 O   0  0  0  0  0  0  0  0  0  0  0  0
  1  2  1  0
  2  3  2  0
  4  5  1  0
  4  2  1  0
  6  8  1  0
  6  5  1  0
  6  7  1  6
  8  9  2  0
 11 10  1  0
 12 11  1  6
 13 12  1  0
 13  8  1  0
 14 15  2  0
 14 12  1  0
 16 17  1  0
 17 19  1  0
 18 17  2  0
 19 20  1  0
 21 20  1  1
 21 22  1  0
 21 23  1  0
 22 14  1  0
 23 25  1  0
 24 23  2  0
M  END
$$$$
