QSQ.pdb
     RDKit          3D

 25 24  0  0  1  0  0  0  0  0999 V2000
   16.2782  -13.3266   20.5081 N   0  0  0  0  0  0  0  0  0  0  0  0
   15.8440  -14.3913   19.6773 C   0  0  0  0  0  0  0  0  0  0  0  0
   16.4939  -15.4168   19.4460 O   0  0  0  0  0  0  0  0  0  0  0  0
   14.5038  -14.2666   19.0335 C   0  0  0  0  0  0  0  0  0  0  0  0
   13.4358  -14.3251   20.0574 C   0  0  0  0  0  0  0  0  0  0  0  0
   12.2891  -15.2115   19.6807 C   0  0  2  0  0  0  0  0  0  0  0  0
   11.5046  -14.4020   18.6708 N   0  0  0  0  0  0  0  0  0  0  0  0
   11.4487  -15.4259   20.8963 C   0  0  0  0  0  0  0  0  0  0  0  0
   10.6933  -14.5374   21.3384 O   0  0  0  0  0  0  0  0  0  0  0  0
   10.8329  -19.2138   22.7373 O   0  0  0  0  0  0  0  0  0  0  0  0
    9.9614  -18.1202   22.7112 C   0  0  0  0  0  0  0  0  0  0  0  0
   10.6925  -16.8208   22.7962 C   0  0  2  0  0  0  0  0  0  0  0  0
   11.4955  -16.6823   21.5833 N   0  0  0  0  0  0  0  0  0  0  0  0
   11.5535  -16.6307   23.9955 C   0  0  0  0  0  0  0  0  0  0  0  0
   12.7863  -16.7138   23.9318 O   0  0  0  0  0  0  0  0  0  0  0  0
    8.7476  -14.2765   29.0545 N   0  0  0  0  0  0  0  0  0  0  0  0
    9.2114  -13.5176   27.9628 C   0  0  0  0  0  0  0  0  0  0  0  0
    8.7979  -12.3368   27.8213 O   0  0  0  0  0  0  0  0  0  0  0  0
   10.1757  -14.1734   27.0272 C   0  0  0  0  0  0  0  0  0  0  0  0
   10.5146  -15.5538   27.4710 C   0  0  0  0  0  0  0  0  0  0  0  0
   11.4525  -16.3042   26.5540 C   0  0  2  0  0  0  0  0  0  0  0  0
   10.9380  -16.3558   25.2476 N   0  0  0  0  0  0  0  0  0  0  0  0
   11.8608  -17.5714   27.2190 C   0  0  0  0  0  0  0  0  0  0  0  0
   11.3722  -18.6521   26.6899 O   0  0  0  0  0  0  0  0  0  0  0  0
   12.6884  -17.7338   28.3060 O   0  0  0  0  0  0  0  0  0  0  0  0
  1  2  1  0
  2  3  2  0
  4  5  1  0
  4  2  1  0
  6  8  1  0
  6  5  1  0
  6  7  1  6
  8  9  2  0
 11 10  1  0
 12 11  1  1
 13 12  1  0
 13  8  1  0
 14 15  2  0
 14 12  1  0
 16 17  1  0
 17 19  1  0
 18 17  2  0
 19 20  1  0
 21 20  1  1
 21 22  1  0
 21 23  1  0
 22 14  1  0
 23 25  1  0
 24 23  2  0
M  END
$$$$
