QSQ.pdb
     RDKit          3D

 25 24  0  0  1  0  0  0  0  0999 V2000
    8.2497  -12.6079   18.8639 N   0  0  0  0  0  0  0  0  0  0  0  0
    8.3948  -13.4448   17.7276 C   0  0  0  0  0  0  0  0  0  0  0  0
    8.4966  -13.0432   16.5632 O   0  0  0  0  0  0  0  0  0  0  0  0
    8.4270  -14.9194   17.9519 C   0  0  0  0  0  0  0  0  0  0  0  0
    8.2555  -15.2230   19.3910 C   0  0  0  0  0  0  0  0  0  0  0  0
    8.2871  -16.6869   19.7049 C   0  0  2  0  0  0  0  0  0  0  0  0
    6.9942  -17.2226   19.1287 N   0  0  0  0  0  0  0  0  0  0  0  0
    8.2645  -16.8442   21.1897 C   0  0  0  0  0  0  0  0  0  0  0  0
    7.2605  -16.5463   21.8671 O   0  0  0  0  0  0  0  0  0  0  0  0
   11.6570  -18.0927   23.5283 O   0  0  0  0  0  0  0  0  0  0  0  0
   10.3358  -18.4911   23.7567 C   0  0  0  0  0  0  0  0  0  0  0  0
    9.3558  -17.4493   23.3275 C   0  0  2  0  0  0  0  0  0  0  0  0
    9.4171  -17.3544   21.8706 N   0  0  0  0  0  0  0  0  0  0  0  0
    9.5301  -16.0987   23.9286 C   0  0  0  0  0  0  0  0  0  0  0  0
   10.1020  -15.1847   23.3218 O   0  0  0  0  0  0  0  0  0  0  0  0
    5.5143  -12.5672   26.0021 N   0  0  0  0  0  0  0  0  0  0  0  0
    6.5461  -11.9570   26.7409 C   0  0  0  0  0  0  0  0  0  0  0  0
    6.3333  -10.8373   27.2758 O   0  0  0  0  0  0  0  0  0  0  0  0
    7.8472  -12.6867   26.8407 C   0  0  0  0  0  0  0  0  0  0  0  0
    7.8219  -13.9574   26.0648 C   0  0  0  0  0  0  0  0  0  0  0  0
    9.1148  -14.7396   26.0833 C   0  0  2  0  0  0  0  0  0  0  0  0
    9.0326  -15.8597   25.2392 N   0  0  0  0  0  0  0  0  0  0  0  0
    9.5384  -14.9313   27.4970 C   0  0  0  0  0  0  0  0  0  0  0  0
   10.0555  -13.8831   28.0630 O   0  0  0  0  0  0  0  0  0  0  0  0
    9.4417  -16.0667   28.2680 O   0  0  0  0  0  0  0  0  0  0  0  0
  1  2  1  0
  2  3  2  0
  4  5  1  0
  4  2  1  0
  6  8  1  0
  6  5  1  0
  6  7  1  6
  8  9  2  0
 11 10  1  0
 12 11  1  1
 13 12  1  0
 13  8  1  0
 14 15  2  0
 14 12  1  0
 16 17  1  0
 17 19  1  0
 18 17  2  0
 19 20  1  0
 21 20  1  1
 21 22  1  0
 21 23  1  0
 22 14  1  0
 23 25  1  0
 24 23  2  0
M  END
$$$$
