QSQ.pdb
     RDKit          3D

 25 24  0  0  1  0  0  0  0  0999 V2000
    5.7808  -16.8460   19.4541 N   0  0  0  0  0  0  0  0  0  0  0  0
    7.1629  -16.8724   19.7729 C   0  0  0  0  0  0  0  0  0  0  0  0
    7.8732  -17.8836   19.7520 O   0  0  0  0  0  0  0  0  0  0  0  0
    7.8095  -15.5857   20.1630 C   0  0  0  0  0  0  0  0  0  0  0  0
    6.8262  -14.4800   20.1063 C   0  0  0  0  0  0  0  0  0  0  0  0
    7.3535  -13.1788   20.6274 C   0  0  2  0  0  0  0  0  0  0  0  0
    8.5016  -12.8408   19.7011 N   0  0  0  0  0  0  0  0  0  0  0  0
    7.8856  -13.4108   22.0033 C   0  0  0  0  0  0  0  0  0  0  0  0
    9.0682  -13.7536   22.2016 O   0  0  0  0  0  0  0  0  0  0  0  0
    5.4030  -13.5004   25.4672 O   0  0  0  0  0  0  0  0  0  0  0  0
    6.6836  -12.9382   25.4805 C   0  0  0  0  0  0  0  0  0  0  0  0
    7.5759  -13.5560   24.4548 C   0  0  2  0  0  0  0  0  0  0  0  0
    7.0293  -13.2346   23.1384 N   0  0  0  0  0  0  0  0  0  0  0  0
    7.7859  -15.0253   24.5688 C   0  0  0  0  0  0  0  0  0  0  0  0
    7.2126  -15.8251   23.8187 O   0  0  0  0  0  0  0  0  0  0  0  0
   10.8165  -18.7146   22.5447 N   0  0  0  0  0  0  0  0  0  0  0  0
   11.5768  -17.6499   23.0654 C   0  0  0  0  0  0  0  0  0  0  0  0
   12.6625  -17.3448   22.5055 O   0  0  0  0  0  0  0  0  0  0  0  0
   11.0399  -16.9429   24.2684 C   0  0  0  0  0  0  0  0  0  0  0  0
    9.7111  -17.4812   24.6707 C   0  0  0  0  0  0  0  0  0  0  0  0
    9.0973  -16.8189   25.8825 C   0  0  2  0  0  0  0  0  0  0  0  0
    8.6622  -15.5190   25.5740 N   0  0  0  0  0  0  0  0  0  0  0  0
   10.0013  -17.0195   27.0475 C   0  0  0  0  0  0  0  0  0  0  0  0
   10.2296  -18.2593   27.3592 O   0  0  0  0  0  0  0  0  0  0  0  0
   10.6221  -16.0632   27.8176 O   0  0  0  0  0  0  0  0  0  0  0  0
  1  2  1  0
  2  3  2  0
  4  5  1  0
  4  2  1  0
  6  8  1  0
  6  5  1  0
  6  7  1  6
  8  9  2  0
 11 10  1  0
 12 11  1  1
 13 12  1  0
 13  8  1  0
 14 15  2  0
 14 12  1  0
 16 17  1  0
 17 19  1  0
 18 17  2  0
 19 20  1  0
 21 20  1  6
 21 22  1  0
 21 23  1  0
 22 14  1  0
 23 25  1  0
 24 23  2  0
M  END
$$$$
