QSQ.pdb
     RDKit          3D

 25 24  0  0  1  0  0  0  0  0999 V2000
    8.9072  -20.2487   19.4633 N   0  0  0  0  0  0  0  0  0  0  0  0
    7.9009  -19.6223   20.2426 C   0  0  0  0  0  0  0  0  0  0  0  0
    6.9711  -20.2135   20.8025 O   0  0  0  0  0  0  0  0  0  0  0  0
    7.9671  -18.1401   20.3995 C   0  0  0  0  0  0  0  0  0  0  0  0
    9.0843  -17.5893   19.5989 C   0  0  0  0  0  0  0  0  0  0  0  0
    9.3011  -16.1211   19.7988 C   0  0  2  0  0  0  0  0  0  0  0  0
   10.5165  -15.8025   18.9552 N   0  0  0  0  0  0  0  0  0  0  0  0
    9.6290  -15.8915   21.2374 C   0  0  0  0  0  0  0  0  0  0  0  0
   10.7572  -16.1476   21.7035 O   0  0  0  0  0  0  0  0  0  0  0  0
    6.7599  -14.9033   24.2720 O   0  0  0  0  0  0  0  0  0  0  0  0
    7.9785  -14.2340   24.1195 C   0  0  0  0  0  0  0  0  0  0  0  0
    9.0228  -15.1074   23.5057 C   0  0  2  0  0  0  0  0  0  0  0  0
    8.6339  -15.3586   22.1197 N   0  0  0  0  0  0  0  0  0  0  0  0
    9.2862  -16.3989   24.1975 C   0  0  0  0  0  0  0  0  0  0  0  0
    9.1626  -17.4851   23.6181 O   0  0  0  0  0  0  0  0  0  0  0  0
   13.2573  -19.5006   24.5633 N   0  0  0  0  0  0  0  0  0  0  0  0
   13.5895  -18.9545   25.8180 C   0  0  0  0  0  0  0  0  0  0  0  0
   14.7484  -19.1369   26.2752 O   0  0  0  0  0  0  0  0  0  0  0  0
   12.5286  -18.1856   26.5380 C   0  0  0  0  0  0  0  0  0  0  0  0
   11.2446  -18.1886   25.7838 C   0  0  0  0  0  0  0  0  0  0  0  0
   10.1292  -17.3954   26.4244 C   0  0  2  0  0  0  0  0  0  0  0  0
    9.6811  -16.3794   25.5634 N   0  0  0  0  0  0  0  0  0  0  0  0
   10.5304  -17.0396   27.8126 C   0  0  0  0  0  0  0  0  0  0  0  0
   10.6092  -15.7657   28.0528 O   0  0  0  0  0  0  0  0  0  0  0  0
   10.8154  -17.8856   28.8595 O   0  0  0  0  0  0  0  0  0  0  0  0
  1  2  1  0
  2  3  2  0
  4  5  1  0
  4  2  1  0
  6  8  1  0
  6  5  1  0
  6  7  1  6
  8  9  2  0
 11 10  1  0
 12 11  1  1
 13 12  1  0
 13  8  1  0
 14 15  2  0
 14 12  1  0
 16 17  1  0
 17 19  1  0
 18 17  2  0
 19 20  1  0
 21 20  1  6
 21 22  1  0
 21 23  1  0
 22 14  1  0
 23 25  1  0
 24 23  2  0
M  END
$$$$
