QSQ.pdb
     RDKit          3D

 25 24  0  0  1  0  0  0  0  0999 V2000
    7.6162  -12.3183   18.9959 N   0  0  0  0  0  0  0  0  0  0  0  0
    7.4545  -13.5813   18.3706 C   0  0  0  0  0  0  0  0  0  0  0  0
    7.1223  -13.7485   17.1920 O   0  0  0  0  0  0  0  0  0  0  0  0
    7.7030  -14.8001   19.1945 C   0  0  0  0  0  0  0  0  0  0  0  0
    9.1315  -14.8783   19.5762 C   0  0  0  0  0  0  0  0  0  0  0  0
    9.4857  -16.1234   20.3291 C   0  0  2  0  0  0  0  0  0  0  0  0
    8.5630  -17.1806   19.7620 N   0  0  0  0  0  0  0  0  0  0  0  0
    9.1552  -15.9056   21.7690 C   0  0  0  0  0  0  0  0  0  0  0  0
    9.7250  -15.0289   22.4489 O   0  0  0  0  0  0  0  0  0  0  0  0
    6.5634  -18.4779   24.0548 O   0  0  0  0  0  0  0  0  0  0  0  0
    6.5995  -17.0846   24.1720 C   0  0  0  0  0  0  0  0  0  0  0  0
    7.9447  -16.5301   23.8358 C   0  0  2  0  0  0  0  0  0  0  0  0
    8.1554  -16.7136   22.4015 N   0  0  0  0  0  0  0  0  0  0  0  0
    9.0948  -17.0979   24.5913 C   0  0  0  0  0  0  0  0  0  0  0  0
    9.8314  -17.9635   24.1024 O   0  0  0  0  0  0  0  0  0  0  0  0
   10.5908  -14.9233   30.4086 N   0  0  0  0  0  0  0  0  0  0  0  0
   10.1406  -14.1590   29.3150 C   0  0  0  0  0  0  0  0  0  0  0  0
   10.0282  -12.9119   29.4475 O   0  0  0  0  0  0  0  0  0  0  0  0
    9.8173  -14.8883   28.0505 C   0  0  0  0  0  0  0  0  0  0  0  0
    9.9481  -16.3618   28.2210 C   0  0  0  0  0  0  0  0  0  0  0  0
   10.1652  -17.1332   26.9398 C   0  0  2  0  0  0  0  0  0  0  0  0
    9.3443  -16.6370   25.9132 N   0  0  0  0  0  0  0  0  0  0  0  0
   10.1362  -18.5892   27.2464 C   0  0  0  0  0  0  0  0  0  0  0  0
    9.0668  -19.2126   26.8535 O   0  0  0  0  0  0  0  0  0  0  0  0
   11.0958  -19.3449   27.8796 O   0  0  0  0  0  0  0  0  0  0  0  0
  1  2  1  0
  2  3  2  0
  4  5  1  0
  4  2  1  0
  6  8  1  0
  6  5  1  0
  6  7  1  6
  8  9  2  0
 11 10  1  0
 12 11  1  1
 13 12  1  0
 13  8  1  0
 14 15  2  0
 14 12  1  0
 16 17  1  0
 17 19  1  0
 18 17  2  0
 19 20  1  0
 21 20  1  1
 21 22  1  0
 21 23  1  0
 22 14  1  0
 23 25  1  0
 24 23  2  0
M  END
$$$$
