QSQ.pdb
     RDKit          3D

 25 24  0  0  1  0  0  0  0  0999 V2000
    7.6408  -12.3359   18.5588 N   0  0  0  0  0  0  0  0  0  0  0  0
    8.6771  -12.5148   19.5110 C   0  0  0  0  0  0  0  0  0  0  0  0
    9.2902  -11.5976   20.0681 O   0  0  0  0  0  0  0  0  0  0  0  0
    9.0572  -13.9126   19.8682 C   0  0  0  0  0  0  0  0  0  0  0  0
    8.2056  -14.8782   19.1366 C   0  0  0  0  0  0  0  0  0  0  0  0
    8.6172  -16.3058   19.3241 C   0  0  2  0  0  0  0  0  0  0  0  0
    7.6398  -17.0927   18.4779 N   0  0  0  0  0  0  0  0  0  0  0  0
    8.4190  -16.6616   20.7608 C   0  0  0  0  0  0  0  0  0  0  0  0
    7.2824  -16.8338   21.2446 O   0  0  0  0  0  0  0  0  0  0  0  0
    9.8443  -19.0507   24.4868 O   0  0  0  0  0  0  0  0  0  0  0  0
    9.9824  -18.5725   23.1797 C   0  0  0  0  0  0  0  0  0  0  0  0
    9.3092  -17.2526   22.9936 C   0  0  2  0  0  0  0  0  0  0  0  0
    9.5546  -16.8181   21.6202 N   0  0  0  0  0  0  0  0  0  0  0  0
    9.7055  -16.1756   23.9417 C   0  0  0  0  0  0  0  0  0  0  0  0
   10.7269  -15.4991   23.7687 O   0  0  0  0  0  0  0  0  0  0  0  0
    5.6410  -12.9992   27.3648 N   0  0  0  0  0  0  0  0  0  0  0  0
    6.2074  -12.5700   26.1492 C   0  0  0  0  0  0  0  0  0  0  0  0
    5.6788  -11.6050   25.5371 O   0  0  0  0  0  0  0  0  0  0  0  0
    7.4147  -13.3005   25.6552 C   0  0  0  0  0  0  0  0  0  0  0  0
    7.8056  -14.3989   26.5814 C   0  0  0  0  0  0  0  0  0  0  0  0
    9.0828  -15.1175   26.2122 C   0  0  2  0  0  0  0  0  0  0  0  0
    8.8905  -15.9273   25.0802 N   0  0  0  0  0  0  0  0  0  0  0  0
    9.6647  -15.7222   27.4413 C   0  0  0  0  0  0  0  0  0  0  0  0
    9.6293  -17.0196   27.4854 O   0  0  0  0  0  0  0  0  0  0  0  0
   10.2350  -15.0816   28.5170 O   0  0  0  0  0  0  0  0  0  0  0  0
  1  2  1  0
  2  3  2  0
  4  5  1  0
  4  2  1  0
  6  8  1  0
  6  5  1  0
  6  7  1  6
  8  9  2  0
 11 10  1  0
 12 11  1  1
 13 12  1  0
 13  8  1  0
 14 15  2  0
 14 12  1  0
 16 17  1  0
 17 19  1  0
 18 17  2  0
 19 20  1  0
 21 20  1  1
 21 22  1  0
 21 23  1  0
 22 14  1  0
 23 25  1  0
 24 23  2  0
M  END
$$$$
