QSQ.pdb
     RDKit          3D

 25 24  0  0  1  0  0  0  0  0999 V2000
    7.5028  -12.1545   18.5541 N   0  0  0  0  0  0  0  0  0  0  0  0
    7.4535  -13.3013   17.7205 C   0  0  0  0  0  0  0  0  0  0  0  0
    7.1582  -13.2899   16.5205 O   0  0  0  0  0  0  0  0  0  0  0  0
    7.7819  -14.6204   18.3355 C   0  0  0  0  0  0  0  0  0  0  0  0
    8.0637  -14.4567   19.7799 C   0  0  0  0  0  0  0  0  0  0  0  0
    8.8537  -15.5838   20.3702 C   0  0  2  0  0  0  0  0  0  0  0  0
    8.2294  -16.8296   19.7797 N   0  0  0  0  0  0  0  0  0  0  0  0
    8.6365  -15.5796   21.8476 C   0  0  0  0  0  0  0  0  0  0  0  0
    9.0021  -14.6257   22.5630 O   0  0  0  0  0  0  0  0  0  0  0  0
    6.9668  -18.8853   24.1332 O   0  0  0  0  0  0  0  0  0  0  0  0
    6.7115  -17.5220   24.3133 C   0  0  0  0  0  0  0  0  0  0  0  0
    7.8842  -16.6789   23.9338 C   0  0  2  0  0  0  0  0  0  0  0  0
    7.9877  -16.6915   22.4763 N   0  0  0  0  0  0  0  0  0  0  0  0
    9.1901  -17.0641   24.5356 C   0  0  0  0  0  0  0  0  0  0  0  0
   10.0042  -17.7701   23.9276 O   0  0  0  0  0  0  0  0  0  0  0  0
   10.8499  -13.5902   29.2437 N   0  0  0  0  0  0  0  0  0  0  0  0
   10.3617  -14.7507   29.8743 C   0  0  0  0  0  0  0  0  0  0  0  0
   10.0243  -14.6906   31.0858 O   0  0  0  0  0  0  0  0  0  0  0  0
   10.2777  -15.9977   29.0538 C   0  0  0  0  0  0  0  0  0  0  0  0
   10.8136  -15.7856   27.6809 C   0  0  0  0  0  0  0  0  0  0  0  0
   10.5619  -16.9223   26.7174 C   0  0  2  0  0  0  0  0  0  0  0  0
    9.5021  -16.6142   25.8479 N   0  0  0  0  0  0  0  0  0  0  0  0
   10.5196  -18.1982   27.4824 C   0  0  0  0  0  0  0  0  0  0  0  0
   11.6671  -18.6084   27.9312 O   0  0  0  0  0  0  0  0  0  0  0  0
    9.4255  -18.9796   27.7745 O   0  0  0  0  0  0  0  0  0  0  0  0
  1  2  1  0
  2  3  2  0
  4  5  1  0
  4  2  1  0
  6  8  1  0
  6  5  1  0
  6  7  1  6
  8  9  2  0
 11 10  1  0
 12 11  1  6
 13 12  1  0
 13  8  1  0
 14 15  2  0
 14 12  1  0
 16 17  1  0
 17 19  1  0
 18 17  2  0
 19 20  1  0
 21 20  1  1
 21 22  1  0
 21 23  1  0
 22 14  1  0
 23 25  1  0
 24 23  2  0
M  END
$$$$
