QSQ.pdb
     RDKit          3D

 25 24  0  0  1  0  0  0  0  0999 V2000
   15.2870  -15.8753   20.2654 N   0  0  0  0  0  0  0  0  0  0  0  0
   14.4645  -15.0344   19.4725 C   0  0  0  0  0  0  0  0  0  0  0  0
   14.5995  -14.8574   18.2568 O   0  0  0  0  0  0  0  0  0  0  0  0
   13.3535  -14.3082   20.1540 C   0  0  0  0  0  0  0  0  0  0  0  0
   12.1965  -14.1680   19.2406 C   0  0  0  0  0  0  0  0  0  0  0  0
   11.2849  -15.3561   19.2379 C   0  0  2  0  0  0  0  0  0  0  0  0
   10.2126  -15.0044   18.2294 N   0  0  0  0  0  0  0  0  0  0  0  0
   10.6658  -15.4699   20.5921 C   0  0  0  0  0  0  0  0  0  0  0  0
    9.8048  -14.6607   20.9913 O   0  0  0  0  0  0  0  0  0  0  0  0
   10.1379  -19.0110   22.5423 O   0  0  0  0  0  0  0  0  0  0  0  0
    9.4483  -17.8033   22.6910 C   0  0  0  0  0  0  0  0  0  0  0  0
   10.3756  -16.6347   22.7568 C   0  0  2  0  0  0  0  0  0  0  0  0
   11.0565  -16.5343   21.4678 N   0  0  0  0  0  0  0  0  0  0  0  0
   11.3784  -16.6551   23.8567 C   0  0  0  0  0  0  0  0  0  0  0  0
   12.5401  -17.0387   23.6717 O   0  0  0  0  0  0  0  0  0  0  0  0
    9.8963  -13.9416   29.7544 N   0  0  0  0  0  0  0  0  0  0  0  0
    9.4737  -13.9276   28.4112 C   0  0  0  0  0  0  0  0  0  0  0  0
    8.3265  -13.4870   28.1373 O   0  0  0  0  0  0  0  0  0  0  0  0
   10.4266  -14.4477   27.3832 C   0  0  0  0  0  0  0  0  0  0  0  0
   10.6147  -15.9196   27.5075 C   0  0  0  0  0  0  0  0  0  0  0  0
   11.4758  -16.5434   26.4336 C   0  0  2  0  0  0  0  0  0  0  0  0
   10.9839  -16.2306   25.1552 N   0  0  0  0  0  0  0  0  0  0  0  0
   11.7200  -17.9691   26.7836 C   0  0  0  0  0  0  0  0  0  0  0  0
   11.0153  -18.8286   26.1118 O   0  0  0  0  0  0  0  0  0  0  0  0
   12.5961  -18.4791   27.7137 O   0  0  0  0  0  0  0  0  0  0  0  0
  1  2  1  0
  2  3  2  0
  4  5  1  0
  4  2  1  0
  6  8  1  0
  6  5  1  0
  6  7  1  6
  8  9  2  0
 11 10  1  0
 12 11  1  6
 13 12  1  0
 13  8  1  0
 14 15  2  0
 14 12  1  0
 16 17  1  0
 17 19  1  0
 18 17  2  0
 19 20  1  0
 21 20  1  1
 21 22  1  0
 21 23  1  0
 22 14  1  0
 23 25  1  0
 24 23  2  0
M  END
$$$$
