QSQ.pdb
     RDKit          3D

 25 24  0  0  1  0  0  0  0  0999 V2000
   13.5018  -16.1626   19.6922 N   0  0  0  0  0  0  0  0  0  0  0  0
   13.6216  -14.9638   18.9432 C   0  0  0  0  0  0  0  0  0  0  0  0
   14.6883  -14.3937   18.6888 O   0  0  0  0  0  0  0  0  0  0  0  0
   12.3687  -14.3428   18.4229 C   0  0  0  0  0  0  0  0  0  0  0  0
   11.4205  -14.0946   19.5327 C   0  0  0  0  0  0  0  0  0  0  0  0
   10.0834  -14.7400   19.3372 C   0  0  2  0  0  0  0  0  0  0  0  0
    9.1823  -13.6092   18.8900 N   0  0  0  0  0  0  0  0  0  0  0  0
    9.6139  -15.2466   20.6612 C   0  0  0  0  0  0  0  0  0  0  0  0
    9.1937  -14.4770   21.5481 O   0  0  0  0  0  0  0  0  0  0  0  0
    9.8976  -19.3793   21.9877 O   0  0  0  0  0  0  0  0  0  0  0  0
    8.8214  -18.5098   22.1928 C   0  0  0  0  0  0  0  0  0  0  0  0
    9.2623  -17.0858   22.2800 C   0  0  2  0  0  0  0  0  0  0  0  0
    9.6355  -16.6526   20.9353 N   0  0  0  0  0  0  0  0  0  0  0  0
   10.3737  -16.8010   23.2284 C   0  0  0  0  0  0  0  0  0  0  0  0
   11.4690  -16.3768   22.8394 O   0  0  0  0  0  0  0  0  0  0  0  0
   10.5538  -13.3436   27.8522 N   0  0  0  0  0  0  0  0  0  0  0  0
    9.9065  -14.4539   28.4274 C   0  0  0  0  0  0  0  0  0  0  0  0
    9.2313  -14.2899   29.4773 O   0  0  0  0  0  0  0  0  0  0  0  0
   10.0680  -15.7752   27.7465 C   0  0  0  0  0  0  0  0  0  0  0  0
   10.8140  -15.6417   26.4647 C   0  0  0  0  0  0  0  0  0  0  0  0
   11.0349  -16.9378   25.7197 C   0  0  2  0  0  0  0  0  0  0  0  0
   10.1700  -17.0330   24.6165 N   0  0  0  0  0  0  0  0  0  0  0  0
   11.0756  -18.0544   26.7028 C   0  0  0  0  0  0  0  0  0  0  0  0
   12.1335  -18.0860   27.4553 O   0  0  0  0  0  0  0  0  0  0  0  0
   10.1368  -19.0380   26.9129 O   0  0  0  0  0  0  0  0  0  0  0  0
  1  2  1  0
  2  3  2  0
  4  5  1  0
  4  2  1  0
  6  8  1  0
  6  5  1  0
  6  7  1  1
  8  9  2  0
 11 10  1  0
 12 11  1  6
 13 12  1  0
 13  8  1  0
 14 15  2  0
 14 12  1  0
 16 17  1  0
 17 19  1  0
 18 17  2  0
 19 20  1  0
 21 20  1  1
 21 22  1  0
 21 23  1  0
 22 14  1  0
 23 25  1  0
 24 23  2  0
M  END
$$$$
