QSQ.pdb
     RDKit          3D

 25 24  0  0  1  0  0  0  0  0999 V2000
   14.9675  -16.6951   14.5233 N   0  0  0  0  0  0  0  0  0  0  0  0
   13.8788  -17.2485   13.8016 C   0  0  0  0  0  0  0  0  0  0  0  0
   13.9482  -17.6949   12.6512 O   0  0  0  0  0  0  0  0  0  0  0  0
   12.5503  -17.2963   14.4789 C   0  0  0  0  0  0  0  0  0  0  0  0
   12.6401  -16.6901   15.8269 C   0  0  0  0  0  0  0  0  0  0  0  0
   11.3675  -16.7772   16.6116 C   0  0  2  0  0  0  0  0  0  0  0  0
   10.3992  -15.8929   15.8562 N   0  0  0  0  0  0  0  0  0  0  0  0
   11.6141  -16.1918   17.9631 C   0  0  0  0  0  0  0  0  0  0  0  0
   12.5253  -15.3645   18.1648 O   0  0  0  0  0  0  0  0  0  0  0  0
    9.4347  -17.3316   21.4817 O   0  0  0  0  0  0  0  0  0  0  0  0
    9.8485  -16.0273   21.1921 C   0  0  0  0  0  0  0  0  0  0  0  0
   11.0997  -16.0059   20.3772 C   0  0  2  0  0  0  0  0  0  0  0  0
   10.7878  -16.5763   19.0685 N   0  0  0  0  0  0  0  0  0  0  0  0
   12.2760  -16.7042   20.9643 C   0  0  0  0  0  0  0  0  0  0  0  0
   12.7216  -17.7508   20.4776 O   0  0  0  0  0  0  0  0  0  0  0  0
   17.9639  -15.1795   21.7949 N   0  0  0  0  0  0  0  0  0  0  0  0
   17.5811  -15.3351   23.1410 C   0  0  0  0  0  0  0  0  0  0  0  0
   18.2368  -14.7375   24.0345 O   0  0  0  0  0  0  0  0  0  0  0  0
   16.4065  -16.2149   23.4266 C   0  0  0  0  0  0  0  0  0  0  0  0
   15.1888  -15.7516   22.7057 C   0  0  0  0  0  0  0  0  0  0  0  0
   13.9609  -16.6067   22.9172 C   0  0  2  0  0  0  0  0  0  0  0  0
   12.8951  -16.1553   22.1208 N   0  0  0  0  0  0  0  0  0  0  0  0
   13.7450  -16.7817   24.3793 C   0  0  0  0  0  0  0  0  0  0  0  0
   12.8605  -15.9883   24.9033 O   0  0  0  0  0  0  0  0  0  0  0  0
   14.3550  -17.6758   25.2286 O   0  0  0  0  0  0  0  0  0  0  0  0
  1  2  1  0
  2  3  2  0
  4  5  1  0
  4  2  1  0
  6  8  1  0
  6  5  1  0
  6  7  1  6
  8  9  2  0
 11 10  1  0
 12 11  1  1
 13 12  1  0
 13  8  1  0
 14 15  2  0
 14 12  1  0
 16 17  1  0
 17 19  1  0
 18 17  2  0
 19 20  1  0
 21 20  1  1
 21 22  1  0
 21 23  1  0
 22 14  1  0
 23 25  1  0
 24 23  2  0
M  END
$$$$
