QSQ.pdb
     RDKit          3D

 25 24  0  0  1  0  0  0  0  0999 V2000
   12.5202  -17.8587   14.5835 N   0  0  0  0  0  0  0  0  0  0  0  0
   13.7303  -17.8003   13.8454 C   0  0  0  0  0  0  0  0  0  0  0  0
   13.8570  -18.1536   12.6679 O   0  0  0  0  0  0  0  0  0  0  0  0
   14.9416  -17.2742   14.5397 C   0  0  0  0  0  0  0  0  0  0  0  0
   14.5666  -16.6737   15.8403 C   0  0  0  0  0  0  0  0  0  0  0  0
   14.0938  -15.2567   15.7347 C   0  0  2  0  0  0  0  0  0  0  0  0
   15.3340  -14.4737   15.3613 N   0  0  0  0  0  0  0  0  0  0  0  0
   13.6267  -14.8209   17.0844 C   0  0  0  0  0  0  0  0  0  0  0  0
   14.4266  -14.5770   18.0097 O   0  0  0  0  0  0  0  0  0  0  0  0
    9.4995  -14.9228   18.3170 O   0  0  0  0  0  0  0  0  0  0  0  0
   10.4050  -13.9244   18.6907 C   0  0  0  0  0  0  0  0  0  0  0  0
   11.8108  -14.4273   18.7198 C   0  0  2  0  0  0  0  0  0  0  0  0
   12.2251  -14.6691   17.3396 N   0  0  0  0  0  0  0  0  0  0  0  0
   12.0540  -15.6454   19.5402 C   0  0  0  0  0  0  0  0  0  0  0  0
   12.2637  -16.7488   19.0212 O   0  0  0  0  0  0  0  0  0  0  0  0
   16.5872  -13.7359   21.1901 N   0  0  0  0  0  0  0  0  0  0  0  0
   16.6998  -14.7841   22.1235 C   0  0  0  0  0  0  0  0  0  0  0  0
   17.8350  -15.0672   22.5888 O   0  0  0  0  0  0  0  0  0  0  0  0
   15.4470  -15.5056   22.5045 C   0  0  0  0  0  0  0  0  0  0  0  0
   14.3220  -15.1676   21.5894 C   0  0  0  0  0  0  0  0  0  0  0  0
   13.0039  -15.8216   21.9337 C   0  0  2  0  0  0  0  0  0  0  0  0
   12.0346  -15.5351   20.9578 N   0  0  0  0  0  0  0  0  0  0  0  0
   12.6918  -15.5470   23.3627 C   0  0  0  0  0  0  0  0  0  0  0  0
   13.5805  -15.9690   24.2105 O   0  0  0  0  0  0  0  0  0  0  0  0
   11.5950  -14.9016   23.8855 O   0  0  0  0  0  0  0  0  0  0  0  0
  1  2  1  0
  2  3  2  0
  4  5  1  0
  4  2  1  0
  6  8  1  0
  6  5  1  0
  6  7  1  1
  8  9  2  0
 11 10  1  0
 12 11  1  6
 13 12  1  0
 13  8  1  0
 14 15  2  0
 14 12  1  0
 16 17  1  0
 17 19  1  0
 18 17  2  0
 19 20  1  0
 21 20  1  6
 21 22  1  0
 21 23  1  0
 22 14  1  0
 23 25  1  0
 24 23  2  0
M  END
$$$$
