RTG.pdb
     RDKit          3D

 23 22  0  0  1  0  0  0  0  0999 V2000
   14.8315  -14.9680   14.9698 N   0  0  0  0  0  0  0  0  0  0  0  0
   15.9857  -14.6356   15.7390 C   0  0  0  0  0  0  0  0  0  0  0  0
   17.1624  -14.5378   15.1879 N   0  0  0  0  0  0  0  0  0  0  0  0
   15.9259  -14.3937   17.1344 N   0  0  0  0  0  0  0  0  0  0  0  0
   14.6923  -14.3950   17.8971 C   0  0  0  0  0  0  0  0  0  0  0  0
   13.7718  -15.4824   17.4248 C   0  0  0  0  0  0  0  0  0  0  0  0
   12.8192  -16.0040   18.4333 C   0  0  0  0  0  0  0  0  0  0  0  0
   11.3671  -15.7239   18.1728 C   0  0  2  0  0  0  0  0  0  0  0  0
   11.0965  -15.0826   16.9162 N   0  0  0  0  0  0  0  0  0  0  0  0
   10.7424  -14.9271   19.2523 C   0  0  0  0  0  0  0  0  0  0  0  0
   11.1558  -13.7716   19.4759 O   0  0  0  0  0  0  0  0  0  0  0  0
   17.9537  -14.2290   15.7923 C   0  0  0  0  0  0  0  0  0  0  0  0
    8.6441  -12.8825   19.4868 C   0  0  2  0  0  0  0  0  0  0  0  0
    7.9551  -13.8267   20.4757 O   0  0  0  0  0  0  0  0  0  0  0  0
    7.0373  -14.6365   19.8490 C   0  0  2  0  0  0  0  0  0  0  0  0
    9.0598  -14.6385   21.1178 N   0  0  0  0  0  0  0  0  0  0  0  0
    9.6764  -15.4275   20.0576 C   0  0  0  0  0  0  0  0  0  0  0  0
    8.5601  -15.5040   22.2135 O   0  0  0  0  0  0  0  0  0  0  0  0
    7.5671  -16.2309   21.9526 N   0  0  0  0  0  0  0  0  0  0  0  0
    9.1192  -15.5595   23.5014 C   0  0  0  0  0  0  0  0  0  0  0  0
    8.5453  -16.4197   24.5423 C   0  0  0  0  0  0  0  0  0  0  0  0
    9.2477  -16.1964   25.8172 O   0  0  0  0  0  0  0  0  0  0  0  0
   10.2901  -15.4937   25.8167 O   0  0  0  0  0  0  0  0  0  0  0  0
  2  1  1  0
  2  3  2  0
  4  2  1  0
  5  4  1  0
  6  5  1  0
  7  8  1  0
  7  6  1  0
  8 10  1  0
  8  9  1  6
 10 11  2  0
 10 16  1  0
 13 12  1  1
 14 13  1  0
 15 17  1  0
 15 13  1  0
 15 16  1  1
 17 18  2  0
 19 20  1  0
 19 17  1  0
 20 21  1  0
 21 22  2  0
 21 23  1  0
M  END
$$$$
