RTG.pdb
     RDKit          3D

 23 22  0  0  1  0  0  0  0  0999 V2000
   13.0170  -11.3715    5.6941 N   0  0  0  0  0  0  0  0  0  0  0  0
   13.9409  -10.7421    6.5800 C   0  0  0  0  0  0  0  0  0  0  0  0
   14.1813   -9.4633    6.5122 N   0  0  0  0  0  0  0  0  0  0  0  0
   14.6471  -11.4599    7.5777 N   0  0  0  0  0  0  0  0  0  0  0  0
   14.5175  -12.8900    7.7811 C   0  0  0  0  0  0  0  0  0  0  0  0
   13.1642  -13.2320    8.3329 C   0  0  0  0  0  0  0  0  0  0  0  0
   13.0596  -13.2635    9.8109 C   0  0  0  0  0  0  0  0  0  0  0  0
   11.7312  -13.6885   10.3672 C   0  0  2  0  0  0  0  0  0  0  0  0
   10.6990  -12.6931   10.2802 N   0  0  0  0  0  0  0  0  0  0  0  0
   11.8266  -14.1465   11.7714 C   0  0  0  0  0  0  0  0  0  0  0  0
   11.9146  -13.3015   12.6848 O   0  0  0  0  0  0  0  0  0  0  0  0
   14.7669   -9.0422    7.2648 C   0  0  0  0  0  0  0  0  0  0  0  0
    9.6099  -16.6213   13.3774 C   0  0  2  0  0  0  0  0  0  0  0  0
   11.0133  -17.1526   13.6812 O   0  0  0  0  0  0  0  0  0  0  0  0
   11.3550  -18.1904   12.8463 C   0  0  2  0  0  0  0  0  0  0  0  0
   11.9514  -15.9766   13.5121 N   0  0  0  0  0  0  0  0  0  0  0  0
   11.8222  -15.5271   12.1307 C   0  0  0  0  0  0  0  0  0  0  0  0
   13.3559  -16.3238   13.8373 O   0  0  0  0  0  0  0  0  0  0  0  0
   14.1256  -16.5383   12.8657 N   0  0  0  0  0  0  0  0  0  0  0  0
   13.8687  -16.4256   15.1415 C   0  0  0  0  0  0  0  0  0  0  0  0
   15.2711  -16.7848   15.3805 C   0  0  0  0  0  0  0  0  0  0  0  0
   15.5353  -16.8275   16.8286 O   0  0  0  0  0  0  0  0  0  0  0  0
   14.6143  -16.5014   17.6198 O   0  0  0  0  0  0  0  0  0  0  0  0
  2  1  1  0
  2  3  2  0
  4  2  1  0
  5  4  1  0
  6  5  1  0
  7  8  1  0
  7  6  1  0
  8 10  1  0
  8  9  1  1
 10 11  2  0
 10 16  1  0
 13 12  1  1
 14 13  1  0
 15 17  1  0
 15 13  1  0
 15 16  1  1
 17 18  2  0
 19 20  1  0
 19 17  1  0
 20 21  1  0
 21 22  2  0
 21 23  1  0
M  END
$$$$
