RTG.pdb
     RDKit          3D

 23 22  0  0  1  0  0  0  0  0999 V2000
    6.6937  -12.9622   18.7481 N   0  0  0  0  0  0  0  0  0  0  0  0
    8.0558  -13.2638   18.4510 C   0  0  0  0  0  0  0  0  0  0  0  0
    8.3727  -14.1698   17.5697 N   0  0  0  0  0  0  0  0  0  0  0  0
    9.1370  -12.6047   19.0880 N   0  0  0  0  0  0  0  0  0  0  0  0
    9.7922  -13.1062   20.2808 C   0  0  0  0  0  0  0  0  0  0  0  0
   10.1508  -14.5554   20.1258 C   0  0  0  0  0  0  0  0  0  0  0  0
    9.6601  -15.4588   21.1933 C   0  0  0  0  0  0  0  0  0  0  0  0
    9.9770  -16.9161   21.0186 C   0  0  2  0  0  0  0  0  0  0  0  0
    9.2550  -17.5635   19.9588 N   0  0  0  0  0  0  0  0  0  0  0  0
    9.7803  -17.6909   22.2642 C   0  0  0  0  0  0  0  0  0  0  0  0
    8.6275  -17.8333   22.7192 O   0  0  0  0  0  0  0  0  0  0  0  0
    9.3832  -14.3996   17.4565 C   0  0  0  0  0  0  0  0  0  0  0  0
    9.8770  -20.9136   22.8838 C   0  0  2  0  0  0  0  0  0  0  0  0
   10.9449  -20.4903   23.8960 O   0  0  0  0  0  0  0  0  0  0  0  0
   12.2144  -20.6615   23.3961 C   0  0  2  0  0  0  0  0  0  0  0  0
   10.6680  -19.0362   24.2128 N   0  0  0  0  0  0  0  0  0  0  0  0
   10.8626  -18.2889   22.9757 C   0  0  0  0  0  0  0  0  0  0  0  0
   11.5370  -18.5196   25.2976 O   0  0  0  0  0  0  0  0  0  0  0  0
   12.3911  -17.6541   24.9751 N   0  0  0  0  0  0  0  0  0  0  0  0
   11.4648  -18.9313   26.6391 C   0  0  0  0  0  0  0  0  0  0  0  0
   12.4128  -18.4291   27.6400 C   0  0  0  0  0  0  0  0  0  0  0  0
   12.0341  -18.9195   28.9760 O   0  0  0  0  0  0  0  0  0  0  0  0
   12.7729  -18.6385   29.9536 O   0  0  0  0  0  0  0  0  0  0  0  0
  2  1  1  0
  2  3  2  0
  4  2  1  0
  5  4  1  0
  6  5  1  0
  7  8  1  0
  7  6  1  0
  8 10  1  0
  8  9  1  6
 10 11  2  0
 10 16  1  0
 13 12  1  1
 14 13  1  0
 15 17  1  0
 15 13  1  0
 15 16  1  1
 17 18  2  0
 19 20  1  0
 19 17  1  0
 20 21  1  0
 21 22  2  0
 21 23  1  0
M  END
$$$$
