RTG.pdb
     RDKit          3D

 23 22  0  0  1  0  0  0  0  0999 V2000
    6.2746  -22.1383   16.7414 N   0  0  0  0  0  0  0  0  0  0  0  0
    5.0419  -21.4412   16.5715 C   0  0  0  0  0  0  0  0  0  0  0  0
    4.1515  -21.8393   15.7075 N   0  0  0  0  0  0  0  0  0  0  0  0
    4.7121  -20.2854   17.3230 N   0  0  0  0  0  0  0  0  0  0  0  0
    5.6999  -19.3852   17.8861 C   0  0  0  0  0  0  0  0  0  0  0  0
    7.0814  -19.9578   17.7576 C   0  0  0  0  0  0  0  0  0  0  0  0
    8.1772  -19.1290   18.3132 C   0  0  0  0  0  0  0  0  0  0  0  0
    8.5089  -17.8795   17.5494 C   0  0  2  0  0  0  0  0  0  0  0  0
    9.4098  -18.0724   16.4472 N   0  0  0  0  0  0  0  0  0  0  0  0
    9.0509  -16.8119   18.4194 C   0  0  0  0  0  0  0  0  0  0  0  0
   10.2590  -16.8311   18.7292 O   0  0  0  0  0  0  0  0  0  0  0  0
    3.2676  -21.2911   15.6388 C   0  0  0  0  0  0  0  0  0  0  0  0
    8.3322  -12.5771   20.8527 C   0  0  1  0  0  0  0  0  0  0  0  0
    7.8015  -13.5849   19.8295 O   0  0  0  0  0  0  0  0  0  0  0  0
    7.7321  -13.0398   18.5690 C   0  0  1  0  0  0  0  0  0  0  0  0
    8.7523  -14.7622   19.8700 N   0  0  0  0  0  0  0  0  0  0  0  0
    8.2437  -15.7498   18.9252 C   0  0  0  0  0  0  0  0  0  0  0  0
    8.8832  -15.3352   21.2314 O   0  0  0  0  0  0  0  0  0  0  0  0
    7.8951  -15.9765   21.6730 N   0  0  0  0  0  0  0  0  0  0  0  0
   10.0234  -15.2072   22.0423 C   0  0  0  0  0  0  0  0  0  0  0  0
   10.0762  -15.8088   23.3795 C   0  0  0  0  0  0  0  0  0  0  0  0
   11.4682  -16.1491   23.7189 O   0  0  0  0  0  0  0  0  0  0  0  0
   12.3369  -16.1120   22.8109 O   0  0  0  0  0  0  0  0  0  0  0  0
  2  1  1  0
  2  3  2  0
  4  2  1  0
  5  4  1  0
  6  5  1  0
  7  8  1  0
  7  6  1  0
  8 10  1  0
  8  9  1  6
 10 11  2  0
 10 16  1  0
 13 12  1  1
 14 13  1  0
 15 17  1  0
 15 13  1  0
 15 16  1  1
 17 18  2  0
 19 20  1  0
 19 17  1  0
 20 21  1  0
 21 22  2  0
 21 23  1  0
M  END
$$$$
