RTG.pdb
     RDKit          3D

 23 22  0  0  1  0  0  0  0  0999 V2000
    9.7122  -12.5836   19.4825 N   0  0  0  0  0  0  0  0  0  0  0  0
    8.4138  -12.8737   18.9684 C   0  0  0  0  0  0  0  0  0  0  0  0
    8.1558  -12.7927   17.6937 N   0  0  0  0  0  0  0  0  0  0  0  0
    7.3355  -13.2637   19.8018 N   0  0  0  0  0  0  0  0  0  0  0  0
    7.4459  -13.4122   21.2402 C   0  0  0  0  0  0  0  0  0  0  0  0
    7.2107  -14.8365   21.6513 C   0  0  0  0  0  0  0  0  0  0  0  0
    8.4212  -15.6119   22.0115 C   0  0  0  0  0  0  0  0  0  0  0  0
    8.8844  -16.6170   20.9966 C   0  0  2  0  0  0  0  0  0  0  0  0
    8.3119  -17.9261   21.1452 N   0  0  0  0  0  0  0  0  0  0  0  0
   10.3582  -16.7486   20.9630 C   0  0  0  0  0  0  0  0  0  0  0  0
   10.9069  -17.6442   21.6360 O   0  0  0  0  0  0  0  0  0  0  0  0
    7.1752  -12.9702   17.3880 C   0  0  0  0  0  0  0  0  0  0  0  0
   14.6332  -15.3770   18.9014 C   0  0  1  0  0  0  0  0  0  0  0  0
   13.1043  -15.2966   18.8895 O   0  0  0  0  0  0  0  0  0  0  0  0
   12.5766  -15.8352   17.7395 C   0  0  1  0  0  0  0  0  0  0  0  0
   12.6362  -16.0493   20.1167 N   0  0  0  0  0  0  0  0  0  0  0  0
   11.1886  -15.8870   20.1863 C   0  0  0  0  0  0  0  0  0  0  0  0
   13.2931  -15.5704   21.3569 O   0  0  0  0  0  0  0  0  0  0  0  0
   12.8024  -14.5464   21.8983 N   0  0  0  0  0  0  0  0  0  0  0  0
   14.4098  -16.1808   21.9524 C   0  0  0  0  0  0  0  0  0  0  0  0
   14.9491  -15.6979   23.2286 C   0  0  0  0  0  0  0  0  0  0  0  0
   16.4208  -15.6908   23.1775 O   0  0  0  0  0  0  0  0  0  0  0  0
   16.9921  -16.1842   22.1722 O   0  0  0  0  0  0  0  0  0  0  0  0
  2  1  1  0
  2  3  2  0
  4  2  1  0
  5  4  1  0
  6  5  1  0
  7  8  1  0
  7  6  1  0
  8 10  1  0
  8  9  1  1
 10 11  2  0
 10 16  1  0
 13 12  1  6
 14 13  1  0
 15 17  1  0
 15 13  1  0
 15 16  1  6
 17 18  2  0
 19 20  1  0
 19 17  1  0
 20 21  1  0
 21 22  2  0
 21 23  1  0
M  END
$$$$
