RTG.pdb
     RDKit          3D

 23 22  0  0  1  0  0  0  0  0999 V2000
    7.3070  -12.5314   16.9534 N   0  0  0  0  0  0  0  0  0  0  0  0
    8.0922  -13.4761   16.2284 C   0  0  0  0  0  0  0  0  0  0  0  0
    7.7816  -13.8240   15.0117 N   0  0  0  0  0  0  0  0  0  0  0  0
    9.2458  -14.0883   16.7794 N   0  0  0  0  0  0  0  0  0  0  0  0
    9.6164  -13.9897   18.1781 C   0  0  0  0  0  0  0  0  0  0  0  0
    8.5270  -14.5264   19.0600 C   0  0  0  0  0  0  0  0  0  0  0  0
    8.7365  -14.3599   20.5177 C   0  0  0  0  0  0  0  0  0  0  0  0
    7.7263  -15.0250   21.4075 C   0  0  2  0  0  0  0  0  0  0  0  0
    6.3672  -14.6199   21.1785 N   0  0  0  0  0  0  0  0  0  0  0  0
    8.0347  -14.8481   22.8442 C   0  0  0  0  0  0  0  0  0  0  0  0
    7.9668  -13.7088   23.3476 O   0  0  0  0  0  0  0  0  0  0  0  0
    8.3849  -14.5340   14.5443 C   0  0  0  0  0  0  0  0  0  0  0  0
    6.9140  -14.3104   25.4171 C   0  0  2  0  0  0  0  0  0  0  0  0
    7.6012  -15.5876   25.9076 O   0  0  0  0  0  0  0  0  0  0  0  0
    6.7793  -16.6837   25.7894 C   0  0  2  0  0  0  0  0  0  0  0  0
    8.8497  -15.7407   25.0654 N   0  0  0  0  0  0  0  0  0  0  0  0
    8.4104  -15.9350   23.6884 C   0  0  0  0  0  0  0  0  0  0  0  0
    9.7046  -16.8628   25.5224 O   0  0  0  0  0  0  0  0  0  0  0  0
    9.9573  -17.7618   24.6795 N   0  0  0  0  0  0  0  0  0  0  0  0
   10.2393  -16.9798   26.8165 C   0  0  0  0  0  0  0  0  0  0  0  0
   11.1701  -18.0610   27.1591 C   0  0  0  0  0  0  0  0  0  0  0  0
   10.7867  -18.6593   28.4490 O   0  0  0  0  0  0  0  0  0  0  0  0
    9.7590  -18.2295   29.0317 O   0  0  0  0  0  0  0  0  0  0  0  0
  2  1  1  0
  2  3  2  0
  4  2  1  0
  5  4  1  0
  6  5  1  0
  7  8  1  0
  7  6  1  0
  8 10  1  0
  8  9  1  1
 10 11  2  0
 10 16  1  0
 13 12  1  1
 14 13  1  0
 15 17  1  0
 15 13  1  0
 15 16  1  1
 17 18  2  0
 19 20  1  0
 19 17  1  0
 20 21  1  0
 21 22  2  0
 21 23  1  0
M  END
$$$$
