RTG.pdb
     RDKit          3D

 23 22  0  0  1  0  0  0  0  0999 V2000
    9.0820  -12.8238   21.1993 N   0  0  0  0  0  0  0  0  0  0  0  0
    8.3230  -12.9048   19.9944 C   0  0  0  0  0  0  0  0  0  0  0  0
    8.6357  -12.1950   18.9473 N   0  0  0  0  0  0  0  0  0  0  0  0
    7.1946  -13.7523   19.8620 N   0  0  0  0  0  0  0  0  0  0  0  0
    6.7672  -14.6858   20.8864 C   0  0  0  0  0  0  0  0  0  0  0  0
    7.1343  -16.0931   20.5155 C   0  0  0  0  0  0  0  0  0  0  0  0
    8.2146  -16.7111   21.3201 C   0  0  0  0  0  0  0  0  0  0  0  0
    8.5918  -18.1155   20.9460 C   0  0  2  0  0  0  0  0  0  0  0  0
    7.4827  -19.0188   20.8135 N   0  0  0  0  0  0  0  0  0  0  0  0
    9.5714  -18.7071   21.8847 C   0  0  0  0  0  0  0  0  0  0  0  0
    9.2219  -19.6571   22.6136 O   0  0  0  0  0  0  0  0  0  0  0  0
    8.0267  -12.2829   18.1059 C   0  0  0  0  0  0  0  0  0  0  0  0
   13.1997  -18.9180   20.7872 C   0  0  2  0  0  0  0  0  0  0  0  0
   13.2636  -18.5450   22.2707 O   0  0  0  0  0  0  0  0  0  0  0  0
   13.5677  -17.2156   22.4472 C   0  0  2  0  0  0  0  0  0  0  0  0
   11.9040  -18.8811   22.8454 N   0  0  0  0  0  0  0  0  0  0  0  0
   10.9127  -18.2336   21.9941 C   0  0  0  0  0  0  0  0  0  0  0  0
   11.7662  -18.4503   24.2577 O   0  0  0  0  0  0  0  0  0  0  0  0
   11.0742  -17.4217   24.4708 N   0  0  0  0  0  0  0  0  0  0  0  0
   12.3515  -19.1102   25.3515 C   0  0  0  0  0  0  0  0  0  0  0  0
   12.1562  -18.6275   26.7232 C   0  0  0  0  0  0  0  0  0  0  0  0
   11.3784  -19.6130   27.4928 O   0  0  0  0  0  0  0  0  0  0  0  0
   10.8289  -20.5615   26.8774 O   0  0  0  0  0  0  0  0  0  0  0  0
  2  1  1  0
  2  3  2  0
  4  2  1  0
  5  4  1  0
  6  5  1  0
  7  8  1  0
  7  6  1  0
  8 10  1  0
  8  9  1  1
 10 11  2  0
 10 16  1  0
 13 12  1  1
 14 13  1  0
 15 17  1  0
 15 13  1  0
 15 16  1  1
 17 18  2  0
 19 20  1  0
 19 17  1  0
 20 21  1  0
 21 22  2  0
 21 23  1  0
M  END
$$$$
