RTG.pdb
     RDKit          3D

 23 22  0  0  1  0  0  0  0  0999 V2000
    9.2116  -13.4245   16.5400 N   0  0  0  0  0  0  0  0  0  0  0  0
    9.2945  -13.0794   17.9215 C   0  0  0  0  0  0  0  0  0  0  0  0
   10.3902  -13.2647   18.6019 N   0  0  0  0  0  0  0  0  0  0  0  0
    8.2031  -12.5201   18.6324 N   0  0  0  0  0  0  0  0  0  0  0  0
    7.3506  -13.2826   19.5241 C   0  0  0  0  0  0  0  0  0  0  0  0
    7.9925  -13.4437   20.8712 C   0  0  0  0  0  0  0  0  0  0  0  0
    7.2432  -14.2688   21.8480 C   0  0  0  0  0  0  0  0  0  0  0  0
    7.7741  -15.6535   22.0833 C   0  0  2  0  0  0  0  0  0  0  0  0
    7.2211  -16.6617   21.2221 N   0  0  0  0  0  0  0  0  0  0  0  0
    7.6090  -16.0915   23.4874 C   0  0  0  0  0  0  0  0  0  0  0  0
    6.4727  -16.0773   24.0020 O   0  0  0  0  0  0  0  0  0  0  0  0
   10.3848  -12.9922   19.6080 C   0  0  0  0  0  0  0  0  0  0  0  0
    6.5723  -18.0896   24.5073 C   0  0  2  0  0  0  0  0  0  0  0  0
    7.7698  -18.4294   25.3988 O   0  0  0  0  0  0  0  0  0  0  0  0
    8.5738  -19.3866   24.8259 C   0  0  2  0  0  0  0  0  0  0  0  0
    8.5194  -17.1306   25.6054 N   0  0  0  0  0  0  0  0  0  0  0  0
    8.7041  -16.5342   24.2875 C   0  0  0  0  0  0  0  0  0  0  0  0
    9.8176  -17.3317   26.2934 O   0  0  0  0  0  0  0  0  0  0  0  0
   10.8561  -17.1237   25.6146 N   0  0  0  0  0  0  0  0  0  0  0  0
    9.9544  -17.7330   27.6329 C   0  0  0  0  0  0  0  0  0  0  0  0
   11.2711  -17.7922   28.2777 C   0  0  0  0  0  0  0  0  0  0  0  0
   11.1250  -18.2516   29.6692 O   0  0  0  0  0  0  0  0  0  0  0  0
    9.9833  -18.5823   30.0787 O   0  0  0  0  0  0  0  0  0  0  0  0
  2  1  1  0
  2  3  2  0
  4  2  1  0
  5  4  1  0
  6  5  1  0
  7  8  1  0
  7  6  1  0
  8 10  1  0
  8  9  1  6
 10 11  2  0
 10 16  1  0
 13 12  1  1
 14 13  1  0
 15 17  1  0
 15 13  1  0
 15 16  1  1
 17 18  2  0
 19 20  1  0
 19 17  1  0
 20 21  1  0
 21 22  2  0
 21 23  1  0
M  END
$$$$
