RTG.pdb
     RDKit          3D

 23 22  0  0  1  0  0  0  0  0999 V2000
    7.4445  -14.6558   16.5967 N   0  0  0  0  0  0  0  0  0  0  0  0
    8.0444  -13.6217   17.3747 C   0  0  0  0  0  0  0  0  0  0  0  0
    9.3302  -13.4122   17.3475 N   0  0  0  0  0  0  0  0  0  0  0  0
    7.2886  -12.7675   18.2163 N   0  0  0  0  0  0  0  0  0  0  0  0
    6.9714  -13.0766   19.5973 C   0  0  0  0  0  0  0  0  0  0  0  0
    8.1463  -13.7044   20.2891 C   0  0  0  0  0  0  0  0  0  0  0  0
    7.9418  -14.0594   21.7133 C   0  0  0  0  0  0  0  0  0  0  0  0
    9.1045  -14.7148   22.4012 C   0  0  2  0  0  0  0  0  0  0  0  0
    9.4144  -16.0351   21.9273 N   0  0  0  0  0  0  0  0  0  0  0  0
    8.9348  -14.7696   23.8704 C   0  0  0  0  0  0  0  0  0  0  0  0
    9.8823  -15.1624   24.5804 O   0  0  0  0  0  0  0  0  0  0  0  0
    9.7141  -12.6862   17.9895 C   0  0  0  0  0  0  0  0  0  0  0  0
    6.7768  -12.0035   25.7376 C   0  0  2  0  0  0  0  0  0  0  0  0
    6.4104  -13.3989   26.2500 O   0  0  0  0  0  0  0  0  0  0  0  0
    5.2793  -13.8841   25.6367 C   0  0  2  0  0  0  0  0  0  0  0  0
    7.6110  -14.2768   25.9678 N   0  0  0  0  0  0  0  0  0  0  0  0
    7.7221  -14.3888   24.5181 C   0  0  0  0  0  0  0  0  0  0  0  0
    7.4967  -15.6110   26.6049 O   0  0  0  0  0  0  0  0  0  0  0  0
    7.4265  -15.6345   27.8607 N   0  0  0  0  0  0  0  0  0  0  0  0
    7.4627  -16.8276   25.9029 C   0  0  0  0  0  0  0  0  0  0  0  0
    7.2196  -18.0979   26.5956 C   0  0  0  0  0  0  0  0  0  0  0  0
    8.4383  -18.5194   27.3069 O   0  0  0  0  0  0  0  0  0  0  0  0
    9.4662  -17.8007   27.2208 O   0  0  0  0  0  0  0  0  0  0  0  0
  2  1  1  0
  2  3  2  0
  4  2  1  0
  5  4  1  0
  6  5  1  0
  7  8  1  0
  7  6  1  0
  8 10  1  0
  8  9  1  6
 10 11  2  0
 10 16  1  0
 13 12  1  1
 14 13  1  0
 15 17  1  0
 15 13  1  0
 15 16  1  1
 17 18  2  0
 19 20  1  0
 19 17  1  0
 20 21  1  0
 21 22  2  0
 21 23  1  0
M  END
$$$$
