RTG.pdb
     RDKit          3D

 23 22  0  0  1  0  0  0  0  0999 V2000
    9.0327  -15.2337   17.2927 N   0  0  0  0  0  0  0  0  0  0  0  0
    8.7546  -13.8664   17.5889 C   0  0  0  0  0  0  0  0  0  0  0  0
    8.3122  -13.0510   16.6738 N   0  0  0  0  0  0  0  0  0  0  0  0
    8.9399  -13.3154   18.8817 N   0  0  0  0  0  0  0  0  0  0  0  0
    8.6732  -14.0406   20.1090 C   0  0  0  0  0  0  0  0  0  0  0  0
    7.4778  -13.4732   20.8175 C   0  0  0  0  0  0  0  0  0  0  0  0
    7.0717  -14.1732   22.0590 C   0  0  0  0  0  0  0  0  0  0  0  0
    7.3199  -15.6538   22.0903 C   0  0  2  0  0  0  0  0  0  0  0  0
    6.4999  -16.4180   21.1918 N   0  0  0  0  0  0  0  0  0  0  0  0
    7.1837  -16.2214   23.4504 C   0  0  0  0  0  0  0  0  0  0  0  0
    6.0457  -16.4664   23.8988 O   0  0  0  0  0  0  0  0  0  0  0  0
    8.0625  -12.0834   16.9702 C   0  0  0  0  0  0  0  0  0  0  0  0
    6.2397  -18.2120   24.5702 C   0  0  2  0  0  0  0  0  0  0  0  0
    7.5300  -18.4946   25.3444 O   0  0  0  0  0  0  0  0  0  0  0  0
    8.3654  -19.3368   24.6489 C   0  0  2  0  0  0  0  0  0  0  0  0
    8.1783  -17.1476   25.5829 N   0  0  0  0  0  0  0  0  0  0  0  0
    8.3088  -16.5041   24.2808 C   0  0  0  0  0  0  0  0  0  0  0  0
    9.4920  -17.2656   26.2606 O   0  0  0  0  0  0  0  0  0  0  0  0
   10.4768  -16.7383   25.6820 N   0  0  0  0  0  0  0  0  0  0  0  0
    9.6986  -17.9189   27.4872 C   0  0  0  0  0  0  0  0  0  0  0  0
   11.0269  -17.9662   28.1086 C   0  0  0  0  0  0  0  0  0  0  0  0
   10.9379  -18.6145   29.4278 O   0  0  0  0  0  0  0  0  0  0  0  0
    9.8167  -19.0204   29.8261 O   0  0  0  0  0  0  0  0  0  0  0  0
  2  1  1  0
  2  3  2  0
  4  2  1  0
  5  4  1  0
  6  5  1  0
  7  8  1  0
  7  6  1  0
  8 10  1  0
  8  9  1  6
 10 11  2  0
 10 16  1  0
 13 12  1  1
 14 13  1  0
 15 17  1  0
 15 13  1  0
 15 16  1  1
 17 18  2  0
 19 20  1  0
 19 17  1  0
 20 21  1  0
 21 22  2  0
 21 23  1  0
M  END
$$$$
