RTG.pdb
     RDKit          3D

 23 22  0  0  1  0  0  0  0  0999 V2000
    7.6576  -11.5720   19.9092 N   0  0  0  0  0  0  0  0  0  0  0  0
    8.3757  -12.7376   19.5089 C   0  0  0  0  0  0  0  0  0  0  0  0
    8.6475  -12.9691   18.2557 N   0  0  0  0  0  0  0  0  0  0  0  0
    8.8333  -13.7054   20.4379 N   0  0  0  0  0  0  0  0  0  0  0  0
    8.2412  -15.0213   20.5834 C   0  0  0  0  0  0  0  0  0  0  0  0
    7.0136  -14.9639   21.4451 C   0  0  0  0  0  0  0  0  0  0  0  0
    7.0678  -15.7536   22.6981 C   0  0  0  0  0  0  0  0  0  0  0  0
    7.4216  -17.2049   22.5459 C   0  0  2  0  0  0  0  0  0  0  0  0
    6.5795  -17.9351   21.6396 N   0  0  0  0  0  0  0  0  0  0  0  0
    7.4493  -17.9191   23.8419 C   0  0  0  0  0  0  0  0  0  0  0  0
    6.3760  -18.1553   24.4322 O   0  0  0  0  0  0  0  0  0  0  0  0
    9.1344  -13.8615   18.0249 C   0  0  0  0  0  0  0  0  0  0  0  0
    8.1873  -21.0826   24.3580 C   0  0  2  0  0  0  0  0  0  0  0  0
    9.1891  -20.4999   25.3586 O   0  0  0  0  0  0  0  0  0  0  0  0
   10.4605  -20.4557   24.8367 C   0  0  2  0  0  0  0  0  0  0  0  0
    8.6833  -19.1140   25.6978 N   0  0  0  0  0  0  0  0  0  0  0  0
    8.6627  -18.3544   24.4531 C   0  0  0  0  0  0  0  0  0  0  0  0
    9.5178  -18.4445   26.7247 O   0  0  0  0  0  0  0  0  0  0  0  0
   10.5045  -17.7838   26.3096 N   0  0  0  0  0  0  0  0  0  0  0  0
    9.2766  -18.5029   28.1077 C   0  0  0  0  0  0  0  0  0  0  0  0
   10.1630  -17.8283   29.0626 C   0  0  0  0  0  0  0  0  0  0  0  0
   11.2020  -18.7637   29.5255 O   0  0  0  0  0  0  0  0  0  0  0  0
   11.2218  -19.9271   29.0495 O   0  0  0  0  0  0  0  0  0  0  0  0
  2  1  1  0
  2  3  2  0
  4  2  1  0
  5  4  1  0
  6  5  1  0
  7  8  1  0
  7  6  1  0
  8 10  1  0
  8  9  1  6
 10 11  2  0
 10 16  1  0
 13 12  1  1
 14 13  1  0
 15 17  1  0
 15 13  1  0
 15 16  1  1
 17 18  2  0
 19 20  1  0
 19 17  1  0
 20 21  1  0
 21 22  2  0
 21 23  1  0
M  END
$$$$
