CWI.pdb
     RDKit          3D

 29 30  0  0  1  0  0  0  0  0999 V2000
   30.4522  -21.2301  -11.5362 N   0  0  0  0  0  0  0  0  0  0  0  0
   29.3650  -20.3338  -11.7953 C   0  0  1  0  0  0  0  0  0  0  0  0
   29.1245  -20.0853  -13.2683 C   0  0  0  0  0  0  0  0  0  0  0  0
   30.3644  -18.9483  -13.9049 S   0  0  0  0  0  0  0  0  0  0  0  0
   28.1423  -20.8681  -11.1406 C   0  0  0  0  0  0  0  0  0  0  0  0
   28.0210  -22.1127  -10.9400 O   0  0  0  0  0  0  0  0  0  0  0  0
   27.0673  -20.0513  -10.7118 N   0  0  0  0  0  0  0  0  0  0  0  0
   25.8667  -20.6024  -10.1486 C   0  0  1  0  0  0  0  0  0  0  0  0
   25.4596  -19.8539   -8.9049 C   0  0  0  0  0  0  0  0  0  0  0  0
   26.4966  -19.5924   -7.9343 C   0  0  0  0  0  0  0  0  0  0  0  0
   27.2602  -18.4382   -7.8872 C   0  0  0  0  0  0  0  0  0  0  0  0
   28.1129  -18.4929   -6.8557 N   0  0  0  0  0  0  0  0  0  0  0  0
   27.9148  -19.6760   -6.2250 C   0  0  0  0  0  0  0  0  0  0  0  0
   28.5059  -20.2567   -5.1252 C   0  0  0  0  0  0  0  0  0  0  0  0
   28.1504  -21.5036   -4.6429 C   0  0  0  0  0  0  0  0  0  0  0  0
   27.1586  -22.1991   -5.2923 C   0  0  0  0  0  0  0  0  0  0  0  0
   26.5590  -21.6134   -6.4053 C   0  0  0  0  0  0  0  0  0  0  0  0
   26.9136  -20.3663   -6.8871 C   0  0  0  0  0  0  0  0  0  0  0  0
   24.7564  -20.4203  -11.1174 C   0  0  0  0  0  0  0  0  0  0  0  0
   24.7850  -19.4127  -11.8628 O   0  0  0  0  0  0  0  0  0  0  0  0
   20.9390  -24.6639  -12.3486 C   0  0  0  0  0  0  0  0  0  0  0  0
   21.3399  -23.3316  -11.8339 C   0  0  0  0  0  0  0  0  0  0  0  0
   22.1400  -22.4641  -12.7261 C   0  0  2  0  0  0  0  0  0  0  0  0
   23.1904  -23.2020  -13.5329 C   0  0  0  0  0  0  0  0  0  0  0  0
   22.5676  -21.1439  -12.1952 C   0  0  2  0  0  0  0  0  0  0  0  0
   23.6761  -21.3034  -11.2532 N   0  0  0  0  0  0  0  0  0  0  0  0
   21.5591  -20.3063  -11.5623 C   0  0  0  0  0  0  0  0  0  0  0  0
   21.5179  -19.8723  -10.2569 O   0  0  0  0  0  0  0  0  0  0  0  0
   20.5764  -19.9098  -12.2780 O   0  0  0  0  0  0  0  0  0  0  0  0
  2  1  1  6
  2  3  1  0
  3  4  1  0
  5  6  2  0
  5  2  1  0
  7  5  1  0
  8  7  1  0
  9 10  1  0
  8  9  1  1
 10 11  2  0
 10 18  1  0
 11 12  1  0
 12 13  1  0
 13 14  2  0
 14 15  1  0
 16 15  2  0
 17 16  1  0
 18 17  2  0
 18 13  1  0
 19  8  1  0
 19 20  2  0
 22 21  1  0
 23 22  1  0
 23 24  1  1
 25 26  1  1
 25 23  1  0
 26 19  1  0
 27 25  1  0
 28 27  1  0
 29 27  2  0
M  END
$$$$
