CWI.pdb
     RDKit          3D

 29 30  0  0  1  0  0  0  0  0999 V2000
   28.4549  -22.3807  -15.3878 N   0  0  0  0  0  0  0  0  0  0  0  0
   28.3576  -21.1471  -14.6658 C   0  0  1  0  0  0  0  0  0  0  0  0
   27.7270  -20.0274  -15.4646 C   0  0  0  0  0  0  0  0  0  0  0  0
   28.7190  -19.6879  -16.9261 S   0  0  0  0  0  0  0  0  0  0  0  0
   27.6047  -21.3908  -13.4078 C   0  0  0  0  0  0  0  0  0  0  0  0
   26.5568  -22.1019  -13.4219 O   0  0  0  0  0  0  0  0  0  0  0  0
   27.9934  -20.8634  -12.1519 N   0  0  0  0  0  0  0  0  0  0  0  0
   27.1923  -21.0314  -10.9718 C   0  0  1  0  0  0  0  0  0  0  0  0
   27.8678  -20.4238   -9.7687 C   0  0  0  0  0  0  0  0  0  0  0  0
   27.1523  -20.4946   -8.5161 C   0  0  0  0  0  0  0  0  0  0  0  0
   25.8670  -20.9882   -8.3686 C   0  0  0  0  0  0  0  0  0  0  0  0
   25.5017  -20.9418   -7.0807 N   0  0  0  0  0  0  0  0  0  0  0  0
   26.5387  -20.4203   -6.3812 C   0  0  0  0  0  0  0  0  0  0  0  0
   26.7155  -20.1422   -5.0442 C   0  0  0  0  0  0  0  0  0  0  0  0
   27.8760  -19.5914   -4.5310 C   0  0  0  0  0  0  0  0  0  0  0  0
   28.9048  -19.3066   -5.3968 C   0  0  0  0  0  0  0  0  0  0  0  0
   28.7284  -19.5872   -6.7501 C   0  0  0  0  0  0  0  0  0  0  0  0
   27.5683  -20.1388   -7.2633 C   0  0  0  0  0  0  0  0  0  0  0  0
   25.9204  -20.2857  -11.1468 C   0  0  0  0  0  0  0  0  0  0  0  0
   25.9828  -19.0424  -11.2954 O   0  0  0  0  0  0  0  0  0  0  0  0
   22.3038  -22.3311  -14.6648 C   0  0  0  0  0  0  0  0  0  0  0  0
   22.6008  -21.9613  -13.2592 C   0  0  0  0  0  0  0  0  0  0  0  0
   23.1061  -20.5949  -13.0018 C   0  0  2  0  0  0  0  0  0  0  0  0
   24.1063  -20.0982  -14.0273 C   0  0  0  0  0  0  0  0  0  0  0  0
   23.4159  -20.2327  -11.5945 C   0  0  2  0  0  0  0  0  0  0  0  0
   24.6520  -20.8824  -11.1568 N   0  0  0  0  0  0  0  0  0  0  0  0
   22.3961  -20.4854  -10.5869 C   0  0  0  0  0  0  0  0  0  0  0  0
   21.1862  -19.8484  -10.4296 O   0  0  0  0  0  0  0  0  0  0  0  0
   22.6211  -21.4036   -9.7257 O   0  0  0  0  0  0  0  0  0  0  0  0
  2  1  1  6
  2  3  1  0
  3  4  1  0
  5  6  2  0
  5  2  1  0
  7  5  1  0
  8  7  1  0
  9 10  1  0
  8  9  1  1
 10 11  2  0
 10 18  1  0
 11 12  1  0
 12 13  1  0
 13 14  2  0
 14 15  1  0
 16 15  2  0
 17 16  1  0
 18 17  2  0
 18 13  1  0
 19  8  1  0
 19 20  2  0
 22 21  1  0
 23 22  1  0
 23 24  1  6
 25 26  1  1
 25 23  1  0
 26 19  1  0
 27 25  1  0
 28 27  1  0
 29 27  2  0
M  END
$$$$
