CWI.pdb
     RDKit          3D

 29 30  0  0  1  0  0  0  0  0999 V2000
   29.1127  -20.9007  -14.2631 N   0  0  0  0  0  0  0  0  0  0  0  0
   28.2717  -19.9428  -13.6092 C   0  0  1  0  0  0  0  0  0  0  0  0
   27.5099  -19.0535  -14.5675 C   0  0  0  0  0  0  0  0  0  0  0  0
   28.4845  -17.5899  -14.9460 S   0  0  0  0  0  0  0  0  0  0  0  0
   27.3415  -20.6669  -12.7039 C   0  0  0  0  0  0  0  0  0  0  0  0
   26.7666  -21.7247  -13.0971 O   0  0  0  0  0  0  0  0  0  0  0  0
   27.0448  -20.2390  -11.3866 N   0  0  0  0  0  0  0  0  0  0  0  0
   26.0687  -20.9035  -10.5691 C   0  0  1  0  0  0  0  0  0  0  0  0
   26.2283  -20.5228   -9.1191 C   0  0  0  0  0  0  0  0  0  0  0  0
   27.5344  -20.7188   -8.5350 C   0  0  0  0  0  0  0  0  0  0  0  0
   28.6043  -21.3184   -9.1779 C   0  0  0  0  0  0  0  0  0  0  0  0
   29.6781  -21.3227   -8.3773 N   0  0  0  0  0  0  0  0  0  0  0  0
   29.3205  -20.7302   -7.2121 C   0  0  0  0  0  0  0  0  0  0  0  0
   30.0089  -20.4712   -6.0480 C   0  0  0  0  0  0  0  0  0  0  0  0
   29.4388  -19.8489   -4.9520 C   0  0  0  0  0  0  0  0  0  0  0  0
   28.1197  -19.4698   -5.0264 C   0  0  0  0  0  0  0  0  0  0  0  0
   27.4210  -19.7307   -6.2033 C   0  0  0  0  0  0  0  0  0  0  0  0
   27.9913  -20.3521   -7.2996 C   0  0  0  0  0  0  0  0  0  0  0  0
   24.7156  -20.4398  -10.9672 C   0  0  0  0  0  0  0  0  0  0  0  0
   24.4823  -19.2084  -10.9348 O   0  0  0  0  0  0  0  0  0  0  0  0
   23.3873  -21.5882  -15.7041 C   0  0  0  0  0  0  0  0  0  0  0  0
   23.4604  -21.0550  -14.3217 C   0  0  0  0  0  0  0  0  0  0  0  0
   22.3485  -21.3806  -13.4016 C   0  0  2  0  0  0  0  0  0  0  0  0
   20.9731  -21.2983  -14.0343 C   0  0  0  0  0  0  0  0  0  0  0  0
   22.4338  -20.8600  -12.0126 C   0  0  2  0  0  0  0  0  0  0  0  0
   23.6800  -21.2908  -11.3778 N   0  0  0  0  0  0  0  0  0  0  0  0
   21.3390  -21.1660  -11.1032 C   0  0  0  0  0  0  0  0  0  0  0  0
   21.3012  -22.1263  -10.1179 O   0  0  0  0  0  0  0  0  0  0  0  0
   20.2656  -20.4787  -11.2071 O   0  0  0  0  0  0  0  0  0  0  0  0
  2  1  1  6
  2  3  1  0
  3  4  1  0
  5  6  2  0
  5  2  1  0
  7  5  1  0
  8  7  1  0
  9 10  1  0
  8  9  1  1
 10 11  2  0
 10 18  1  0
 11 12  1  0
 12 13  1  0
 13 14  2  0
 14 15  1  0
 16 15  2  0
 17 16  1  0
 18 17  2  0
 18 13  1  0
 19  8  1  0
 19 20  2  0
 22 21  1  0
 23 22  1  0
 23 24  1  6
 25 26  1  1
 25 23  1  0
 26 19  1  0
 27 25  1  0
 28 27  1  0
 29 27  2  0
M  END
$$$$
