CWI.pdb
     RDKit          3D

 29 30  0  0  1  0  0  0  0  0999 V2000
   28.9290  -21.0349  -17.6330 N   0  0  0  0  0  0  0  0  0  0  0  0
   28.5734  -21.8800  -16.5322 C   0  0  1  0  0  0  0  0  0  0  0  0
   29.7563  -22.3060  -15.6905 C   0  0  0  0  0  0  0  0  0  0  0  0
   30.4357  -23.8445  -16.3286 S   0  0  0  0  0  0  0  0  0  0  0  0
   27.5576  -21.1792  -15.7038 C   0  0  0  0  0  0  0  0  0  0  0  0
   27.5217  -19.9135  -15.6783 O   0  0  0  0  0  0  0  0  0  0  0  0
   26.5948  -21.8545  -14.9142 N   0  0  0  0  0  0  0  0  0  0  0  0
   25.5734  -21.1525  -14.1888 C   0  0  1  0  0  0  0  0  0  0  0  0
   24.2000  -21.5512  -14.6660 C   0  0  0  0  0  0  0  0  0  0  0  0
   23.0793  -20.8583  -14.0747 C   0  0  0  0  0  0  0  0  0  0  0  0
   22.2671  -21.3766  -13.0800 C   0  0  0  0  0  0  0  0  0  0  0  0
   21.3382  -20.4773  -12.7300 N   0  0  0  0  0  0  0  0  0  0  0  0
   21.5345  -19.3717  -13.4887 C   0  0  0  0  0  0  0  0  0  0  0  0
   20.8825  -18.1607  -13.5582 C   0  0  0  0  0  0  0  0  0  0  0  0
   21.2499  -17.1503  -14.4286 C   0  0  0  0  0  0  0  0  0  0  0  0
   22.3182  -17.3637  -15.2668 C   0  0  0  0  0  0  0  0  0  0  0  0
   22.9795  -18.5882  -15.1982 C   0  0  0  0  0  0  0  0  0  0  0  0
   22.6128  -19.5982  -14.3272 C   0  0  0  0  0  0  0  0  0  0  0  0
   25.6416  -21.5508  -12.7601 C   0  0  0  0  0  0  0  0  0  0  0  0
   25.7846  -22.7677  -12.4946 O   0  0  0  0  0  0  0  0  0  0  0  0
   27.8115  -19.4746   -7.4342 C   0  0  0  0  0  0  0  0  0  0  0  0
   26.8863  -20.3907   -8.1453 C   0  0  0  0  0  0  0  0  0  0  0  0
   26.5883  -20.0981   -9.5646 C   0  0  2  0  0  0  0  0  0  0  0  0
   26.3927  -18.6256   -9.8684 C   0  0  0  0  0  0  0  0  0  0  0  0
   25.6578  -21.0151  -10.2724 C   0  0  2  0  0  0  0  0  0  0  0  0
   25.5563  -20.6532  -11.6867 N   0  0  0  0  0  0  0  0  0  0  0  0
   24.3070  -21.1520   -9.7472 C   0  0  0  0  0  0  0  0  0  0  0  0
   23.1339  -20.6905  -10.2996 O   0  0  0  0  0  0  0  0  0  0  0  0
   24.1569  -21.7691   -8.6373 O   0  0  0  0  0  0  0  0  0  0  0  0
  2  1  1  6
  2  3  1  0
  3  4  1  0
  5  6  2  0
  5  2  1  0
  7  5  1  0
  8  7  1  0
  9 10  1  0
  8  9  1  6
 10 11  2  0
 10 18  1  0
 11 12  1  0
 12 13  1  0
 13 14  2  0
 14 15  1  0
 16 15  2  0
 17 16  1  0
 18 17  2  0
 18 13  1  0
 19  8  1  0
 19 20  2  0
 22 21  1  0
 23 22  1  0
 23 24  1  1
 25 26  1  6
 25 23  1  0
 26 19  1  0
 27 25  1  0
 28 27  1  0
 29 27  2  0
M  END
$$$$
