CWI.pdb
     RDKit          3D

 29 30  0  0  1  0  0  0  0  0999 V2000
   14.9615  -22.0640    0.5602 N   0  0  0  0  0  0  0  0  0  0  0  0
   14.5045  -21.2718    1.6630 C   0  0  1  0  0  0  0  0  0  0  0  0
   13.8627  -22.0846    2.7661 C   0  0  0  0  0  0  0  0  0  0  0  0
   12.3125  -22.7862    2.1832 S   0  0  0  0  0  0  0  0  0  0  0  0
   15.6482  -20.4788    2.1847 C   0  0  0  0  0  0  0  0  0  0  0  0
   16.8045  -20.9925    2.2412 O   0  0  0  0  0  0  0  0  0  0  0  0
   15.5278  -19.1424    2.6383 N   0  0  0  0  0  0  0  0  0  0  0  0
   16.6707  -18.3551    3.0077 C   0  0  1  0  0  0  0  0  0  0  0  0
   16.3415  -16.8840    2.9936 C   0  0  0  0  0  0  0  0  0  0  0  0
   17.4568  -15.9674    3.0334 C   0  0  0  0  0  0  0  0  0  0  0  0
   18.6017  -16.0840    2.2632 C   0  0  0  0  0  0  0  0  0  0  0  0
   19.4309  -15.0626    2.5145 N   0  0  0  0  0  0  0  0  0  0  0  0
   18.8384  -14.2757    3.4453 C   0  0  0  0  0  0  0  0  0  0  0  0
   19.2309  -13.1129    4.0697 C   0  0  0  0  0  0  0  0  0  0  0  0
   18.4600  -12.4629    5.0167 C   0  0  0  0  0  0  0  0  0  0  0  0
   17.2415  -13.0030    5.3526 C   0  0  0  0  0  0  0  0  0  0  0  0
   16.8421  -14.1794    4.7220 C   0  0  0  0  0  0  0  0  0  0  0  0
   17.6124  -14.8290    3.7744 C   0  0  0  0  0  0  0  0  0  0  0  0
   17.0415  -18.6779    4.4087 C   0  0  0  0  0  0  0  0  0  0  0  0
   16.1293  -19.0329    5.1920 O   0  0  0  0  0  0  0  0  0  0  0  0
   21.5571  -21.2098    7.6554 C   0  0  0  0  0  0  0  0  0  0  0  0
   20.4110  -20.2681    7.6318 C   0  0  0  0  0  0  0  0  0  0  0  0
   19.8975  -19.8459    6.3102 C   0  0  2  0  0  0  0  0  0  0  0  0
   20.9782  -19.5448    5.2902 C   0  0  0  0  0  0  0  0  0  0  0  0
   18.7379  -18.9171    6.2904 C   0  0  2  0  0  0  0  0  0  0  0  0
   18.3477  -18.6115    4.9135 N   0  0  0  0  0  0  0  0  0  0  0  0
   18.8626  -17.6581    7.0104 C   0  0  0  0  0  0  0  0  0  0  0  0
   19.0583  -16.4002    6.4871 O   0  0  0  0  0  0  0  0  0  0  0  0
   18.7882  -17.6893    8.2866 O   0  0  0  0  0  0  0  0  0  0  0  0
  2  1  1  6
  2  3  1  0
  3  4  1  0
  5  6  2  0
  5  2  1  0
  7  5  1  0
  8  7  1  0
  9 10  1  0
  8  9  1  1
 10 11  2  0
 10 18  1  0
 11 12  1  0
 12 13  1  0
 13 14  2  0
 14 15  1  0
 16 15  2  0
 17 16  1  0
 18 17  2  0
 18 13  1  0
 19  8  1  0
 19 20  2  0
 22 21  1  0
 23 22  1  0
 23 24  1  1
 25 26  1  6
 25 23  1  0
 26 19  1  0
 27 25  1  0
 28 27  1  0
 29 27  2  0
M  END
$$$$
