CWI.pdb
     RDKit          3D

 29 30  0  0  1  0  0  0  0  0999 V2000
   29.9923  -22.4582  -18.2388 N   0  0  0  0  0  0  0  0  0  0  0  0
   28.8518  -23.0831  -17.6380 C   0  0  1  0  0  0  0  0  0  0  0  0
   29.2019  -24.2681  -16.7647 C   0  0  0  0  0  0  0  0  0  0  0  0
   29.5939  -25.6896  -17.7949 S   0  0  0  0  0  0  0  0  0  0  0  0
   28.1001  -22.0590  -16.8664 C   0  0  0  0  0  0  0  0  0  0  0  0
   28.7195  -21.2437  -16.1210 O   0  0  0  0  0  0  0  0  0  0  0  0
   26.6903  -21.9294  -16.9101 N   0  0  0  0  0  0  0  0  0  0  0  0
   25.9966  -20.8882  -16.2049 C   0  0  1  0  0  0  0  0  0  0  0  0
   24.7871  -20.4252  -16.9767 C   0  0  0  0  0  0  0  0  0  0  0  0
   23.9566  -19.4259  -16.3464 C   0  0  0  0  0  0  0  0  0  0  0  0
   24.4293  -18.3897  -15.5587 C   0  0  0  0  0  0  0  0  0  0  0  0
   23.4108  -17.6230  -15.1479 N   0  0  0  0  0  0  0  0  0  0  0  0
   22.2717  -18.1490  -15.6603 C   0  0  0  0  0  0  0  0  0  0  0  0
   20.9482  -17.7820  -15.5611 C   0  0  0  0  0  0  0  0  0  0  0  0
   19.9202  -18.4785  -16.1707 C   0  0  0  0  0  0  0  0  0  0  0  0
   20.2331  -19.5926  -16.9125 C   0  0  0  0  0  0  0  0  0  0  0  0
   21.5716  -19.9658  -17.0143 C   0  0  0  0  0  0  0  0  0  0  0  0
   22.5997  -19.2689  -16.4056 C   0  0  0  0  0  0  0  0  0  0  0  0
   25.4798  -21.4386  -14.9263 C   0  0  0  0  0  0  0  0  0  0  0  0
   25.0161  -22.6033  -14.9317 O   0  0  0  0  0  0  0  0  0  0  0  0
   25.9729  -20.8336   -8.7804 C   0  0  0  0  0  0  0  0  0  0  0  0
   25.1811  -21.2485   -9.9644 C   0  0  0  0  0  0  0  0  0  0  0  0
   25.6512  -20.8023  -11.2943 C   0  0  2  0  0  0  0  0  0  0  0  0
   26.1788  -19.3811  -11.3229 C   0  0  0  0  0  0  0  0  0  0  0  0
   24.8400  -21.1957  -12.4753 C   0  0  2  0  0  0  0  0  0  0  0  0
   25.4768  -20.7393  -13.7113 N   0  0  0  0  0  0  0  0  0  0  0  0
   23.4450  -20.7812  -12.5108 C   0  0  0  0  0  0  0  0  0  0  0  0
   22.8347  -19.9423  -13.4153 O   0  0  0  0  0  0  0  0  0  0  0  0
   22.6642  -21.2316  -11.6038 O   0  0  0  0  0  0  0  0  0  0  0  0
  2  1  1  1
  2  3  1  0
  3  4  1  0
  5  6  2  0
  5  2  1  0
  7  5  1  0
  8  7  1  0
  9 10  1  0
  8  9  1  6
 10 11  2  0
 10 18  1  0
 11 12  1  0
 12 13  1  0
 13 14  2  0
 14 15  1  0
 16 15  2  0
 17 16  1  0
 18 17  2  0
 18 13  1  0
 19  8  1  0
 19 20  2  0
 22 21  1  0
 23 22  1  0
 23 24  1  1
 25 26  1  6
 25 23  1  0
 26 19  1  0
 27 25  1  0
 28 27  1  0
 29 27  2  0
M  END
$$$$
