CWI.pdb
     RDKit          3D

 29 30  0  0  1  0  0  0  0  0999 V2000
   28.3490  -22.0202  -14.8773 N   0  0  0  0  0  0  0  0  0  0  0  0
   28.4389  -20.8996  -13.9893 C   0  0  1  0  0  0  0  0  0  0  0  0
   28.1809  -19.5707  -14.6651 C   0  0  0  0  0  0  0  0  0  0  0  0
   26.5012  -19.5297  -15.3075 S   0  0  0  0  0  0  0  0  0  0  0  0
   27.4970  -21.1120  -12.8593 C   0  0  0  0  0  0  0  0  0  0  0  0
   26.5620  -21.9600  -12.9621 O   0  0  0  0  0  0  0  0  0  0  0  0
   27.5775  -20.4058  -11.6340 N   0  0  0  0  0  0  0  0  0  0  0  0
   26.6380  -20.6156  -10.5682 C   0  0  1  0  0  0  0  0  0  0  0  0
   26.9919  -19.7815   -9.3633 C   0  0  0  0  0  0  0  0  0  0  0  0
   28.0313  -20.2927   -8.5007 C   0  0  0  0  0  0  0  0  0  0  0  0
   29.1033  -21.0592   -8.9258 C   0  0  0  0  0  0  0  0  0  0  0  0
   29.9005  -21.3496   -7.8894 N   0  0  0  0  0  0  0  0  0  0  0  0
   29.3589  -20.7790   -6.7858 C   0  0  0  0  0  0  0  0  0  0  0  0
   29.7434  -20.7565   -5.4637 C   0  0  0  0  0  0  0  0  0  0  0  0
   29.0253  -20.1067   -4.4760 C   0  0  0  0  0  0  0  0  0  0  0  0
   27.8704  -19.4506   -4.8294 C   0  0  0  0  0  0  0  0  0  0  0  0
   27.4794  -19.4719   -6.1666 C   0  0  0  0  0  0  0  0  0  0  0  0
   28.1978  -20.1208   -7.1546 C   0  0  0  0  0  0  0  0  0  0  0  0
   25.3001  -20.1480  -11.0108 C   0  0  0  0  0  0  0  0  0  0  0  0
   25.1811  -18.9496  -11.3590 O   0  0  0  0  0  0  0  0  0  0  0  0
   21.6326  -20.4065  -15.1689 C   0  0  0  0  0  0  0  0  0  0  0  0
   21.4983  -20.8730  -13.7671 C   0  0  0  0  0  0  0  0  0  0  0  0
   22.7411  -21.1662  -13.0201 C   0  0  2  0  0  0  0  0  0  0  0  0
   23.2243  -22.5971  -13.1537 C   0  0  0  0  0  0  0  0  0  0  0  0
   22.8783  -20.5805  -11.6614 C   0  0  2  0  0  0  0  0  0  0  0  0
   24.1593  -20.9608  -11.0647 N   0  0  0  0  0  0  0  0  0  0  0  0
   21.8308  -20.8623  -10.6905 C   0  0  0  0  0  0  0  0  0  0  0  0
   21.9490  -21.5140   -9.4840 O   0  0  0  0  0  0  0  0  0  0  0  0
   20.6436  -20.4722  -10.9617 O   0  0  0  0  0  0  0  0  0  0  0  0
  2  1  1  6
  2  3  1  0
  3  4  1  0
  5  6  2  0
  5  2  1  0
  7  5  1  0
  8  7  1  0
  9 10  1  0
  8  9  1  1
 10 11  2  0
 10 18  1  0
 11 12  1  0
 12 13  1  0
 13 14  2  0
 14 15  1  0
 16 15  2  0
 17 16  1  0
 18 17  2  0
 18 13  1  0
 19  8  1  0
 19 20  2  0
 22 21  1  0
 23 22  1  0
 23 24  1  1
 25 26  1  1
 25 23  1  0
 26 19  1  0
 27 25  1  0
 28 27  1  0
 29 27  2  0
M  END
$$$$
