CWI.pdb
     RDKit          3D

 29 30  0  0  1  0  0  0  0  0999 V2000
   27.8545  -19.5114  -15.4126 N   0  0  0  0  0  0  0  0  0  0  0  0
   27.7508  -20.5908  -14.4764 C   0  0  1  0  0  0  0  0  0  0  0  0
   29.0905  -21.1244  -14.0183 C   0  0  0  0  0  0  0  0  0  0  0  0
   29.7042  -20.1346  -12.6474 S   0  0  0  0  0  0  0  0  0  0  0  0
   26.9355  -20.1391  -13.3186 C   0  0  0  0  0  0  0  0  0  0  0  0
   26.9681  -18.9271  -12.9527 O   0  0  0  0  0  0  0  0  0  0  0  0
   26.0965  -21.0021  -12.5718 N   0  0  0  0  0  0  0  0  0  0  0  0
   25.2288  -20.5159  -11.5359 C   0  0  1  0  0  0  0  0  0  0  0  0
   23.8253  -21.0356  -11.7178 C   0  0  0  0  0  0  0  0  0  0  0  0
   22.9701  -20.2980  -12.6179 C   0  0  0  0  0  0  0  0  0  0  0  0
   21.9301  -19.4744  -12.2207 C   0  0  0  0  0  0  0  0  0  0  0  0
   21.3509  -18.9163  -13.2917 N   0  0  0  0  0  0  0  0  0  0  0  0
   22.0034  -19.3682  -14.3903 C   0  0  0  0  0  0  0  0  0  0  0  0
   21.8350  -19.1344  -15.7368 C   0  0  0  0  0  0  0  0  0  0  0  0
   22.6239  -19.7171  -16.7123 C   0  0  0  0  0  0  0  0  0  0  0  0
   23.6260  -20.5724  -16.3203 C   0  0  0  0  0  0  0  0  0  0  0  0
   23.7983  -20.8104  -14.9583 C   0  0  0  0  0  0  0  0  0  0  0  0
   23.0101  -20.2272  -13.9827 C   0  0  0  0  0  0  0  0  0  0  0  0
   25.6962  -21.0485  -10.2311 C   0  0  0  0  0  0  0  0  0  0  0  0
   26.1206  -22.2275  -10.1948 O   0  0  0  0  0  0  0  0  0  0  0  0
   28.9368  -18.3470   -6.8997 C   0  0  0  0  0  0  0  0  0  0  0  0
   28.0927  -19.3030   -7.6577 C   0  0  0  0  0  0  0  0  0  0  0  0
   26.8924  -19.8428   -6.9820 C   0  0  2  0  0  0  0  0  0  0  0  0
   27.0900  -20.1436   -5.5092 C   0  0  0  0  0  0  0  0  0  0  0  0
   26.0792  -20.8408   -7.7239 C   0  0  2  0  0  0  0  0  0  0  0  0
   25.6939  -20.3173   -9.0351 N   0  0  0  0  0  0  0  0  0  0  0  0
   24.8810  -21.3570   -7.0782 C   0  0  0  0  0  0  0  0  0  0  0  0
   24.7810  -22.4133   -6.2014 O   0  0  0  0  0  0  0  0  0  0  0  0
   23.7679  -20.7834   -7.3372 O   0  0  0  0  0  0  0  0  0  0  0  0
  2  1  1  6
  2  3  1  0
  3  4  1  0
  5  6  2  0
  5  2  1  0
  7  5  1  0
  8  7  1  0
  9 10  1  0
  8  9  1  6
 10 11  2  0
 10 18  1  0
 11 12  1  0
 12 13  1  0
 13 14  2  0
 14 15  1  0
 16 15  2  0
 17 16  1  0
 18 17  2  0
 18 13  1  0
 19  8  1  0
 19 20  2  0
 22 21  1  0
 23 22  1  0
 23 24  1  1
 25 26  1  6
 25 23  1  0
 26 19  1  0
 27 25  1  0
 28 27  1  0
 29 27  2  0
M  END
$$$$
