CWI.pdb
     RDKit          3D

 29 30  0  0  1  0  0  0  0  0999 V2000
   28.7076  -20.6504  -15.3067 N   0  0  0  0  0  0  0  0  0  0  0  0
   28.4738  -19.9207  -14.0962 C   0  0  1  0  0  0  0  0  0  0  0  0
   28.2412  -18.4421  -14.3172 C   0  0  0  0  0  0  0  0  0  0  0  0
   26.6641  -18.1904  -15.1448 S   0  0  0  0  0  0  0  0  0  0  0  0
   27.3249  -20.5380  -13.3835 C   0  0  0  0  0  0  0  0  0  0  0  0
   26.6688  -21.4749  -13.9274 O   0  0  0  0  0  0  0  0  0  0  0  0
   26.9000  -20.1353  -12.0937 N   0  0  0  0  0  0  0  0  0  0  0  0
   25.8932  -20.8523  -11.3625 C   0  0  1  0  0  0  0  0  0  0  0  0
   25.9595  -20.5287   -9.8915 C   0  0  0  0  0  0  0  0  0  0  0  0
   27.2229  -20.7594   -9.2310 C   0  0  0  0  0  0  0  0  0  0  0  0
   28.2797  -21.4695   -9.7755 C   0  0  0  0  0  0  0  0  0  0  0  0
   29.3141  -21.4791   -8.9246 N   0  0  0  0  0  0  0  0  0  0  0  0
   28.9435  -20.7801   -7.8242 C   0  0  0  0  0  0  0  0  0  0  0  0
   29.5944  -20.4768   -6.6493 C   0  0  0  0  0  0  0  0  0  0  0  0
   29.0170  -19.7404   -5.6305 C   0  0  0  0  0  0  0  0  0  0  0  0
   27.7297  -19.2883   -5.7970 C   0  0  0  0  0  0  0  0  0  0  0  0
   27.0690  -19.5939   -6.9851 C   0  0  0  0  0  0  0  0  0  0  0  0
   27.6466  -20.3294   -8.0043 C   0  0  0  0  0  0  0  0  0  0  0  0
   24.5554  -20.3997  -11.8210 C   0  0  0  0  0  0  0  0  0  0  0  0
   24.3613  -19.1673  -11.9438 O   0  0  0  0  0  0  0  0  0  0  0  0
   20.3700  -23.5941  -14.2669 C   0  0  0  0  0  0  0  0  0  0  0  0
   21.7075  -23.1402  -13.8132 C   0  0  0  0  0  0  0  0  0  0  0  0
   22.0574  -21.7185  -14.0251 C   0  0  2  0  0  0  0  0  0  0  0  0
   23.0474  -21.4824  -15.1490 C   0  0  0  0  0  0  0  0  0  0  0  0
   22.2634  -20.8763  -12.8185 C   0  0  2  0  0  0  0  0  0  0  0  0
   23.4934  -21.2624  -12.1261 N   0  0  0  0  0  0  0  0  0  0  0  0
   21.1924  -20.8252  -11.8339 C   0  0  0  0  0  0  0  0  0  0  0  0
   19.9434  -20.2635  -11.9710 O   0  0  0  0  0  0  0  0  0  0  0  0
   21.4060  -21.3559  -10.6902 O   0  0  0  0  0  0  0  0  0  0  0  0
  2  1  1  6
  2  3  1  0
  3  4  1  0
  5  6  2  0
  5  2  1  0
  7  5  1  0
  8  7  1  0
  9 10  1  0
  8  9  1  1
 10 11  2  0
 10 18  1  0
 11 12  1  0
 12 13  1  0
 13 14  2  0
 14 15  1  0
 16 15  2  0
 17 16  1  0
 18 17  2  0
 18 13  1  0
 19  8  1  0
 19 20  2  0
 22 21  1  0
 23 22  1  0
 23 24  1  1
 25 26  1  1
 25 23  1  0
 26 19  1  0
 27 25  1  0
 28 27  1  0
 29 27  2  0
M  END
$$$$
