CWI.pdb
     RDKit          3D

 29 30  0  0  1  0  0  0  0  0999 V2000
   28.4731  -32.1900  -16.8660 N   0  0  0  0  0  0  0  0  0  0  0  0
   28.2908  -33.2241  -15.8914 C   0  0  1  0  0  0  0  0  0  0  0  0
   29.4840  -33.4133  -14.9804 C   0  0  0  0  0  0  0  0  0  0  0  0
   30.9721  -33.6414  -15.9649 S   0  0  0  0  0  0  0  0  0  0  0  0
   27.0652  -32.9256  -15.1053 C   0  0  0  0  0  0  0  0  0  0  0  0
   26.6908  -31.7267  -14.9427 O   0  0  0  0  0  0  0  0  0  0  0  0
   26.2608  -33.9255  -14.5057 N   0  0  0  0  0  0  0  0  0  0  0  0
   25.0719  -33.6073  -13.7655 C   0  0  1  0  0  0  0  0  0  0  0  0
   23.8745  -34.3297  -14.3288 C   0  0  0  0  0  0  0  0  0  0  0  0
   22.6192  -33.6157  -14.3171 C   0  0  0  0  0  0  0  0  0  0  0  0
   22.2388  -32.6733  -15.2577 C   0  0  0  0  0  0  0  0  0  0  0  0
   21.0101  -32.2174  -14.9808 N   0  0  0  0  0  0  0  0  0  0  0  0
   20.5809  -32.8539  -13.8640 C   0  0  0  0  0  0  0  0  0  0  0  0
   19.4147  -32.7756  -13.1361 C   0  0  0  0  0  0  0  0  0  0  0  0
   19.1793  -33.5253  -11.9977 C   0  0  0  0  0  0  0  0  0  0  0  0
   20.1568  -34.3918  -11.5699 C   0  0  0  0  0  0  0  0  0  0  0  0
   21.3377  -34.4729  -12.3048 C   0  0  0  0  0  0  0  0  0  0  0  0
   21.5728  -33.7239  -13.4438 C   0  0  0  0  0  0  0  0  0  0  0  0
   25.2289  -34.0994  -12.3735 C   0  0  0  0  0  0  0  0  0  0  0  0
   25.7504  -35.2267  -12.2031 O   0  0  0  0  0  0  0  0  0  0  0  0
   26.5445  -32.4306   -6.7535 C   0  0  0  0  0  0  0  0  0  0  0  0
   25.3687  -32.9198   -7.5143 C   0  0  0  0  0  0  0  0  0  0  0  0
   25.3484  -32.6800   -8.9740 C   0  0  2  0  0  0  0  0  0  0  0  0
   24.7261  -31.3580   -9.3787 C   0  0  0  0  0  0  0  0  0  0  0  0
   25.0098  -33.8294   -9.8526 C   0  0  2  0  0  0  0  0  0  0  0  0
   24.8312  -33.3844  -11.2352 N   0  0  0  0  0  0  0  0  0  0  0  0
   23.8588  -34.6447   -9.4924 C   0  0  0  0  0  0  0  0  0  0  0  0
   23.8240  -35.7351   -8.6532 O   0  0  0  0  0  0  0  0  0  0  0  0
   22.7266  -34.3392  -10.0024 O   0  0  0  0  0  0  0  0  0  0  0  0
  2  1  1  6
  2  3  1  0
  3  4  1  0
  5  6  2  0
  5  2  1  0
  7  5  1  0
  8  7  1  0
  9 10  1  0
  8  9  1  6
 10 11  2  0
 10 18  1  0
 11 12  1  0
 12 13  1  0
 13 14  2  0
 14 15  1  0
 16 15  2  0
 17 16  1  0
 18 17  2  0
 18 13  1  0
 19  8  1  0
 19 20  2  0
 22 21  1  0
 23 22  1  0
 23 24  1  1
 25 26  1  6
 25 23  1  0
 26 19  1  0
 27 25  1  0
 28 27  1  0
 29 27  2  0
M  END
$$$$
