CWI.pdb
     RDKit          3D

 29 30  0  0  1  0  0  0  0  0999 V2000
   29.1349  -20.9068  -17.7476 N   0  0  0  0  0  0  0  0  0  0  0  0
   27.9388  -21.6136  -17.3982 C   0  0  1  0  0  0  0  0  0  0  0  0
   28.1934  -23.0083  -16.8696 C   0  0  0  0  0  0  0  0  0  0  0  0
   29.5502  -22.9742  -15.6891 S   0  0  0  0  0  0  0  0  0  0  0  0
   27.1786  -20.8028  -16.4115 C   0  0  0  0  0  0  0  0  0  0  0  0
   27.7945  -20.1236  -15.5378 O   0  0  0  0  0  0  0  0  0  0  0  0
   25.7640  -20.7364  -16.3815 N   0  0  0  0  0  0  0  0  0  0  0  0
   25.0589  -19.8655  -15.4832 C   0  0  1  0  0  0  0  0  0  0  0  0
   23.9245  -19.1655  -16.1875 C   0  0  0  0  0  0  0  0  0  0  0  0
   24.1524  -17.7963  -16.5863 C   0  0  0  0  0  0  0  0  0  0  0  0
   23.3160  -17.0661  -17.4139 C   0  0  0  0  0  0  0  0  0  0  0  0
   23.7921  -15.8236  -17.5679 N   0  0  0  0  0  0  0  0  0  0  0  0
   24.9363  -15.7330  -16.8472 C   0  0  0  0  0  0  0  0  0  0  0  0
   25.8343  -14.7082  -16.6484 C   0  0  0  0  0  0  0  0  0  0  0  0
   26.9663  -14.8333  -15.8633 C   0  0  0  0  0  0  0  0  0  0  0  0
   27.2088  -16.0395  -15.2505 C   0  0  0  0  0  0  0  0  0  0  0  0
   26.3015  -17.0778  -15.4500 C   0  0  0  0  0  0  0  0  0  0  0  0
   25.1690  -16.9526  -16.2343 C   0  0  0  0  0  0  0  0  0  0  0  0
   24.4335  -20.6850  -14.4147 C   0  0  0  0  0  0  0  0  0  0  0  0
   24.0243  -21.8312  -14.7155 O   0  0  0  0  0  0  0  0  0  0  0  0
   26.5395  -21.3300   -9.5109 C   0  0  0  0  0  0  0  0  0  0  0  0
   25.7588  -21.4487  -10.7668 C   0  0  0  0  0  0  0  0  0  0  0  0
   24.3715  -20.9351  -10.7628 C   0  0  2  0  0  0  0  0  0  0  0  0
   23.5847  -21.2783   -9.5131 C   0  0  0  0  0  0  0  0  0  0  0  0
   23.6047  -21.0229  -12.0325 C   0  0  2  0  0  0  0  0  0  0  0  0
   24.2705  -20.2597  -13.0888 N   0  0  0  0  0  0  0  0  0  0  0  0
   22.2038  -20.6278  -12.0097 C   0  0  0  0  0  0  0  0  0  0  0  0
   21.6694  -19.3901  -12.2872 O   0  0  0  0  0  0  0  0  0  0  0  0
   21.3376  -21.5144  -11.6950 O   0  0  0  0  0  0  0  0  0  0  0  0
  2  1  1  1
  2  3  1  0
  3  4  1  0
  5  6  2  0
  5  2  1  0
  7  5  1  0
  8  7  1  0
  9 10  1  0
  8  9  1  6
 10 11  2  0
 10 18  1  0
 11 12  1  0
 12 13  1  0
 13 14  2  0
 14 15  1  0
 16 15  2  0
 17 16  1  0
 18 17  2  0
 18 13  1  0
 19  8  1  0
 19 20  2  0
 22 21  1  0
 23 22  1  0
 23 24  1  1
 25 26  1  6
 25 23  1  0
 26 19  1  0
 27 25  1  0
 28 27  1  0
 29 27  2  0
M  END
$$$$
