CWI.pdb
     RDKit          3D

 29 30  0  0  1  0  0  0  0  0999 V2000
   29.1092  -22.8781  -17.5962 N   0  0  0  0  0  0  0  0  0  0  0  0
   28.3657  -21.6694  -17.3995 C   0  0  1  0  0  0  0  0  0  0  0  0
   27.3274  -21.4173  -18.4709 C   0  0  0  0  0  0  0  0  0  0  0  0
   28.0932  -21.5115  -20.0958 S   0  0  0  0  0  0  0  0  0  0  0  0
   27.7389  -21.7108  -16.0525 C   0  0  0  0  0  0  0  0  0  0  0  0
   27.2337  -22.7884  -15.6194 O   0  0  0  0  0  0  0  0  0  0  0  0
   27.6660  -20.5883  -15.1916 N   0  0  0  0  0  0  0  0  0  0  0  0
   27.0633  -20.6615  -13.8901 C   0  0  1  0  0  0  0  0  0  0  0  0
   27.4793  -19.4918  -13.0348 C   0  0  0  0  0  0  0  0  0  0  0  0
   27.2566  -19.6137  -11.6131 C   0  0  0  0  0  0  0  0  0  0  0  0
   26.1690  -19.0870  -10.9370 C   0  0  0  0  0  0  0  0  0  0  0  0
   26.2425  -19.3966   -9.6359 N   0  0  0  0  0  0  0  0  0  0  0  0
   27.3719  -20.1231   -9.4527 C   0  0  0  0  0  0  0  0  0  0  0  0
   27.9439  -20.6920   -8.3368 C   0  0  0  0  0  0  0  0  0  0  0  0
   29.1311  -21.4012   -8.3709 C   0  0  0  0  0  0  0  0  0  0  0  0
   29.7734  -21.5461   -9.5774 C   0  0  0  0  0  0  0  0  0  0  0  0
   29.1965  -20.9714  -10.7080 C   0  0  0  0  0  0  0  0  0  0  0  0
   28.0089  -20.2631  -10.6742 C   0  0  0  0  0  0  0  0  0  0  0  0
   25.5897  -20.5560  -14.0386 C   0  0  0  0  0  0  0  0  0  0  0  0
   25.1398  -19.7437  -14.8808 O   0  0  0  0  0  0  0  0  0  0  0  0
   21.6638  -22.1884  -10.0055 C   0  0  0  0  0  0  0  0  0  0  0  0
   22.4294  -21.4362  -11.0297 C   0  0  0  0  0  0  0  0  0  0  0  0
   22.5467  -22.0370  -12.3765 C   0  0  2  0  0  0  0  0  0  0  0  0
   22.9088  -23.5093  -12.3714 C   0  0  0  0  0  0  0  0  0  0  0  0
   23.2120  -21.2294  -13.4314 C   0  0  2  0  0  0  0  0  0  0  0  0
   24.6672  -21.3071  -13.2970 N   0  0  0  0  0  0  0  0  0  0  0  0
   22.8471  -19.8247  -13.5441 C   0  0  0  0  0  0  0  0  0  0  0  0
   23.4099  -18.7498  -12.8943 O   0  0  0  0  0  0  0  0  0  0  0  0
   21.8888  -19.5174  -14.3331 O   0  0  0  0  0  0  0  0  0  0  0  0
  2  1  1  6
  2  3  1  0
  3  4  1  0
  5  6  2  0
  5  2  1  0
  7  5  1  0
  8  7  1  0
  9 10  1  0
  8  9  1  1
 10 11  2  0
 10 18  1  0
 11 12  1  0
 12 13  1  0
 13 14  2  0
 14 15  1  0
 16 15  2  0
 17 16  1  0
 18 17  2  0
 18 13  1  0
 19  8  1  0
 19 20  2  0
 22 21  1  0
 23 22  1  0
 23 24  1  1
 25 26  1  1
 25 23  1  0
 26 19  1  0
 27 25  1  0
 28 27  1  0
 29 27  2  0
M  END
$$$$
