CWI.pdb
     RDKit          3D

 29 30  0  0  1  0  0  0  0  0999 V2000
   28.2451  -22.1243  -15.4193 N   0  0  0  0  0  0  0  0  0  0  0  0
   28.2149  -20.9393  -14.6147 C   0  0  1  0  0  0  0  0  0  0  0  0
   27.6058  -19.7464  -15.3184 C   0  0  0  0  0  0  0  0  0  0  0  0
   28.7789  -19.0744  -16.5049 S   0  0  0  0  0  0  0  0  0  0  0  0
   27.4880  -21.2397  -13.3535 C   0  0  0  0  0  0  0  0  0  0  0  0
   26.4346  -21.9424  -13.3790 O   0  0  0  0  0  0  0  0  0  0  0  0
   27.9082  -20.7771  -12.0824 N   0  0  0  0  0  0  0  0  0  0  0  0
   27.1072  -20.9507  -10.9031 C   0  0  1  0  0  0  0  0  0  0  0  0
   27.7385  -20.2700   -9.7153 C   0  0  0  0  0  0  0  0  0  0  0  0
   27.0243  -20.3523   -8.4628 C   0  0  0  0  0  0  0  0  0  0  0  0
   25.7155  -20.7841   -8.3278 C   0  0  0  0  0  0  0  0  0  0  0  0
   25.3573  -20.7691   -7.0373 N   0  0  0  0  0  0  0  0  0  0  0  0
   26.4222  -20.3298   -6.3234 C   0  0  0  0  0  0  0  0  0  0  0  0
   26.6174  -20.1136   -4.9775 C   0  0  0  0  0  0  0  0  0  0  0  0
   27.8066  -19.6441   -4.4494 C   0  0  0  0  0  0  0  0  0  0  0  0
   28.8461  -19.3794   -5.3089 C   0  0  0  0  0  0  0  0  0  0  0  0
   28.6510  -19.5975   -6.6711 C   0  0  0  0  0  0  0  0  0  0  0  0
   27.4622  -20.0678   -7.1992 C   0  0  0  0  0  0  0  0  0  0  0  0
   25.7986  -20.2806  -11.1107 C   0  0  0  0  0  0  0  0  0  0  0  0
   25.7871  -19.0313  -11.2149 O   0  0  0  0  0  0  0  0  0  0  0  0
   23.5050  -20.3864  -15.3887 C   0  0  0  0  0  0  0  0  0  0  0  0
   23.8453  -20.0948  -13.9745 C   0  0  0  0  0  0  0  0  0  0  0  0
   22.9185  -20.5855  -12.9310 C   0  0  2  0  0  0  0  0  0  0  0  0
   21.4516  -20.3862  -13.2583 C   0  0  0  0  0  0  0  0  0  0  0  0
   23.2865  -20.3329  -11.5139 C   0  0  2  0  0  0  0  0  0  0  0  0
   24.5728  -20.9552  -11.1981 N   0  0  0  0  0  0  0  0  0  0  0  0
   22.3350  -20.7241  -10.4840 C   0  0  0  0  0  0  0  0  0  0  0  0
   22.1600  -21.9687   -9.9229 O   0  0  0  0  0  0  0  0  0  0  0  0
   21.5489  -19.8264  -10.0241 O   0  0  0  0  0  0  0  0  0  0  0  0
  2  1  1  6
  2  3  1  0
  3  4  1  0
  5  6  2  0
  5  2  1  0
  7  5  1  0
  8  7  1  0
  9 10  1  0
  8  9  1  1
 10 11  2  0
 10 18  1  0
 11 12  1  0
 12 13  1  0
 13 14  2  0
 14 15  1  0
 16 15  2  0
 17 16  1  0
 18 17  2  0
 18 13  1  0
 19  8  1  0
 19 20  2  0
 22 21  1  0
 23 22  1  0
 23 24  1  6
 25 26  1  1
 25 23  1  0
 26 19  1  0
 27 25  1  0
 28 27  1  0
 29 27  2  0
M  END
$$$$
