CWI.pdb
     RDKit          3D

 29 30  0  0  1  0  0  0  0  0999 V2000
   29.3431  -20.5201  -15.0089 N   0  0  0  0  0  0  0  0  0  0  0  0
   28.3432  -19.6583  -14.4523 C   0  0  1  0  0  0  0  0  0  0  0  0
   27.7212  -18.7214  -15.4646 C   0  0  0  0  0  0  0  0  0  0  0  0
   28.7694  -17.2758  -15.6814 S   0  0  0  0  0  0  0  0  0  0  0  0
   27.3051  -20.4961  -13.7967 C   0  0  0  0  0  0  0  0  0  0  0  0
   26.9943  -21.6218  -14.2867 O   0  0  0  0  0  0  0  0  0  0  0  0
   26.6169  -20.1069  -12.6214 N   0  0  0  0  0  0  0  0  0  0  0  0
   25.6594  -20.9624  -11.9781 C   0  0  1  0  0  0  0  0  0  0  0  0
   25.3686  -20.4905  -10.5761 C   0  0  0  0  0  0  0  0  0  0  0  0
   26.4768  -20.4803   -9.6501 C   0  0  0  0  0  0  0  0  0  0  0  0
   26.4118  -20.0161   -8.3471 C   0  0  0  0  0  0  0  0  0  0  0  0
   27.5984  -20.1691   -7.7448 N   0  0  0  0  0  0  0  0  0  0  0  0
   28.4428  -20.7305   -8.6440 C   0  0  0  0  0  0  0  0  0  0  0  0
   29.7675  -21.1001   -8.5746 C   0  0  0  0  0  0  0  0  0  0  0  0
   30.4549  -21.6615   -9.6357 C   0  0  0  0  0  0  0  0  0  0  0  0
   29.7845  -21.8609  -10.8189 C   0  0  0  0  0  0  0  0  0  0  0  0
   28.4440  -21.4878  -10.8915 C   0  0  0  0  0  0  0  0  0  0  0  0
   27.7562  -20.9273   -9.8303 C   0  0  0  0  0  0  0  0  0  0  0  0
   24.3723  -20.8779  -12.7134 C   0  0  0  0  0  0  0  0  0  0  0  0
   24.0764  -19.7885  -13.2586 O   0  0  0  0  0  0  0  0  0  0  0  0
   21.1249  -24.2519  -16.5452 C   0  0  0  0  0  0  0  0  0  0  0  0
   21.1043  -23.1540  -15.5477 C   0  0  0  0  0  0  0  0  0  0  0  0
   22.2599  -23.0384  -14.6313 C   0  0  2  0  0  0  0  0  0  0  0  0
   22.7565  -24.3632  -14.0862 C   0  0  0  0  0  0  0  0  0  0  0  0
   22.2494  -21.9202  -13.6529 C   0  0  2  0  0  0  0  0  0  0  0  0
   23.4647  -21.9390  -12.8379 N   0  0  0  0  0  0  0  0  0  0  0  0
   21.1091  -21.8135  -12.7543 C   0  0  0  0  0  0  0  0  0  0  0  0
   21.0960  -21.9493  -11.3847 O   0  0  0  0  0  0  0  0  0  0  0  0
   19.9643  -21.5664  -13.2677 O   0  0  0  0  0  0  0  0  0  0  0  0
  2  1  1  6
  2  3  1  0
  3  4  1  0
  5  6  2  0
  5  2  1  0
  7  5  1  0
  8  7  1  0
  9 10  1  0
  8  9  1  1
 10 11  2  0
 10 18  1  0
 11 12  1  0
 12 13  1  0
 13 14  2  0
 14 15  1  0
 16 15  2  0
 17 16  1  0
 18 17  2  0
 18 13  1  0
 19  8  1  0
 19 20  2  0
 22 21  1  0
 23 22  1  0
 23 24  1  1
 25 26  1  1
 25 23  1  0
 26 19  1  0
 27 25  1  0
 28 27  1  0
 29 27  2  0
M  END
$$$$
