WRL.pdb
     RDKit          3D

 34 35  0  0  1  0  0  0  0  0999 V2000
    6.3657  -18.4730   24.9422 N   0  0  0  0  0  0  0  0  0  0  0  0
    6.7192  -17.0832   24.8045 C   0  0  1  0  0  0  0  0  0  0  0  0
    6.8246  -16.4193   26.1253 C   0  0  0  0  0  0  0  0  0  0  0  0
    6.0268  -15.1905   26.2586 C   0  0  0  0  0  0  0  0  0  0  0  0
    4.7403  -15.0674   26.7941 C   0  0  0  0  0  0  0  0  0  0  0  0
    4.3946  -13.7908   26.7746 N   0  0  0  0  0  0  0  0  0  0  0  0
    5.3795  -13.0264   26.2491 C   0  0  0  0  0  0  0  0  0  0  0  0
    5.5114  -11.6851   26.0002 C   0  0  0  0  0  0  0  0  0  0  0  0
    6.6627  -11.1791   25.4203 C   0  0  0  0  0  0  0  0  0  0  0  0
    7.6637  -12.0435   25.1039 C   0  0  0  0  0  0  0  0  0  0  0  0
    7.5451  -13.3763   25.3478 C   0  0  0  0  0  0  0  0  0  0  0  0
    6.4008  -13.9193   25.9289 C   0  0  0  0  0  0  0  0  0  0  0  0
    7.9717  -17.0043   24.0064 C   0  0  0  0  0  0  0  0  0  0  0  0
    8.7583  -17.9945   23.9354 O   0  0  0  0  0  0  0  0  0  0  0  0
    8.4239  -15.3545   17.5931 N   0  0  0  0  0  0  0  0  0  0  0  0
    8.1806  -13.9483   17.4850 C   0  0  0  0  0  0  0  0  0  0  0  0
    8.1423  -13.3656   16.3448 N   0  0  0  0  0  0  0  0  0  0  0  0
    7.9770  -13.1421   18.6328 N   0  0  0  0  0  0  0  0  0  0  0  0
    7.8062  -13.7177   19.9274 C   0  0  0  0  0  0  0  0  0  0  0  0
    8.6655  -14.9225   20.1916 C   0  0  0  0  0  0  0  0  0  0  0  0
    9.4752  -14.6333   21.4519 C   0  0  0  0  0  0  0  0  0  0  0  0
    9.4538  -15.7664   22.4096 C   0  0  2  0  0  0  0  0  0  0  0  0
    8.3281  -15.8098   23.3019 N   0  0  0  0  0  0  0  0  0  0  0  0
   10.7638  -15.8591   23.1110 C   0  0  0  0  0  0  0  0  0  0  0  0
   11.8210  -15.7862   22.4741 O   0  0  0  0  0  0  0  0  0  0  0  0
    7.9818  -12.3372   16.3005 C   0  0  0  0  0  0  0  0  0  0  0  0
   11.0119  -14.3700   28.4847 C   0  0  1  0  0  0  0  0  0  0  0  0
   11.2761  -14.5822   27.0275 C   0  0  0  0  0  0  0  0  0  0  0  0
   12.3779  -13.6031   26.6048 C   0  0  0  0  0  0  0  0  0  0  0  0
   11.7223  -15.9624   26.6852 C   0  0  2  0  0  0  0  0  0  0  0  0
   12.0327  -16.2140   25.2507 N   0  0  0  0  0  0  0  0  0  0  0  0
   10.7916  -16.0298   24.5129 C   0  0  0  0  0  0  0  0  0  0  0  0
   12.5175  -17.5844   25.0259 O   0  0  0  0  0  0  0  0  0  0  0  0
   11.7948  -18.3822   24.3554 O   0  0  0  0  0  0  0  0  0  0  0  0
  2  1  1  1
  2  3  1  0
  4  5  2  0
  4  3  1  0
  6  5  1  0
  7 12  2  0
  7  6  1  0
  8  7  1  0
  9 10  1  0
  9  8  2  0
 10 11  2  0
 11 12  1  0
 12  4  1  0
 13 23  1  0
 13  2  1  0
 14 13  2  0
 16 15  1  0
 17 16  2  0
 18 16  1  0
 19 20  1  0
 19 18  1  0
 20 21  1  0
 22 21  1  1
 22 24  1  0
 22 23  1  0
 24 31  1  0
 25 24  2  0
 27 26  1  6
 27 28  1  0
 29 27  1  0
 30 32  1  0
 30 29  1  6
 31 30  1  0
 32 34  1  0
 33 32  2  0
M  END
$$$$
