WRL.pdb
     RDKit          3D

 34 35  0  0  1  0  0  0  0  0999 V2000
    7.8110  -15.9898   20.8994 N   0  0  0  0  0  0  0  0  0  0  0  0
    9.0929  -15.8849   21.5483 C   0  0  1  0  0  0  0  0  0  0  0  0
    9.2735  -14.5543   22.1755 C   0  0  0  0  0  0  0  0  0  0  0  0
    8.1156  -14.0795   22.9489 C   0  0  0  0  0  0  0  0  0  0  0  0
    7.6109  -14.6165   24.1381 C   0  0  0  0  0  0  0  0  0  0  0  0
    6.5908  -13.8751   24.5372 N   0  0  0  0  0  0  0  0  0  0  0  0
    6.3650  -12.8532   23.6797 C   0  0  0  0  0  0  0  0  0  0  0  0
    5.4451  -11.8384   23.6317 C   0  0  0  0  0  0  0  0  0  0  0  0
    5.4480  -10.9243   22.5913 C   0  0  0  0  0  0  0  0  0  0  0  0
    6.3870  -11.0542   21.6162 C   0  0  0  0  0  0  0  0  0  0  0  0
    7.3060  -12.0561   21.6540 C   0  0  0  0  0  0  0  0  0  0  0  0
    7.3314  -12.9932   22.6851 C   0  0  0  0  0  0  0  0  0  0  0  0
    9.2130  -17.0098   22.5136 C   0  0  0  0  0  0  0  0  0  0  0  0
    8.6122  -18.1060   22.3093 O   0  0  0  0  0  0  0  0  0  0  0  0
   12.6793  -22.4831   20.3357 N   0  0  0  0  0  0  0  0  0  0  0  0
   12.5087  -22.6509   21.7467 C   0  0  0  0  0  0  0  0  0  0  0  0
   12.4965  -23.8149   22.2815 N   0  0  0  0  0  0  0  0  0  0  0  0
   12.3416  -21.5388   22.6093 N   0  0  0  0  0  0  0  0  0  0  0  0
   11.3813  -21.5517   23.6649 C   0  0  0  0  0  0  0  0  0  0  0  0
   11.4057  -20.3325   24.5439 C   0  0  0  0  0  0  0  0  0  0  0  0
   11.0285  -19.1385   23.6723 C   0  0  0  0  0  0  0  0  0  0  0  0
   10.4165  -18.0375   24.4564 C   0  0  2  0  0  0  0  0  0  0  0  0
   10.0031  -16.8867   23.7013 N   0  0  0  0  0  0  0  0  0  0  0  0
   11.2877  -17.6984   25.6151 C   0  0  0  0  0  0  0  0  0  0  0  0
   12.5090  -17.5774   25.4653 O   0  0  0  0  0  0  0  0  0  0  0  0
   12.2564  -23.9123   23.2905 C   0  0  0  0  0  0  0  0  0  0  0  0
    9.4547  -14.0699   28.0930 C   0  0  1  0  0  0  0  0  0  0  0  0
   10.4746  -14.9989   27.5142 C   0  0  0  0  0  0  0  0  0  0  0  0
   11.5418  -14.1459   26.8177 C   0  0  0  0  0  0  0  0  0  0  0  0
   11.1525  -15.8620   28.5225 C   0  0  2  0  0  0  0  0  0  0  0  0
   11.5069  -17.2375   28.0757 N   0  0  0  0  0  0  0  0  0  0  0  0
   10.7086  -17.5136   26.8902 C   0  0  0  0  0  0  0  0  0  0  0  0
   11.1954  -18.2453   29.1007 O   0  0  0  0  0  0  0  0  0  0  0  0
   10.2334  -19.0455   28.8937 O   0  0  0  0  0  0  0  0  0  0  0  0
  2  1  1  1
  2  3  1  0
  4  5  2  0
  4  3  1  0
  6  5  1  0
  7 12  2  0
  7  6  1  0
  8  7  1  0
  9 10  1  0
  9  8  2  0
 10 11  2  0
 11 12  1  0
 12  4  1  0
 13 23  1  0
 13  2  1  0
 14 13  2  0
 16 15  1  0
 17 16  2  0
 18 16  1  0
 19 20  1  0
 19 18  1  0
 20 21  1  0
 22 21  1  6
 22 24  1  0
 22 23  1  0
 24 31  1  0
 25 24  2  0
 27 26  1  6
 27 28  1  0
 29 27  1  0
 30 32  1  0
 30 29  1  6
 31 30  1  0
 32 34  1  0
 33 32  2  0
M  END
$$$$
