WRL.pdb
     RDKit          3D

 34 35  0  0  1  0  0  0  0  0999 V2000
    5.8587  -18.9965   23.4539 N   0  0  0  0  0  0  0  0  0  0  0  0
    6.6663  -18.7325   24.6174 C   0  0  1  0  0  0  0  0  0  0  0  0
    7.3581  -19.9574   25.0838 C   0  0  0  0  0  0  0  0  0  0  0  0
    7.5161  -20.0535   26.5432 C   0  0  0  0  0  0  0  0  0  0  0  0
    6.6641  -20.6943   27.4491 C   0  0  0  0  0  0  0  0  0  0  0  0
    7.1824  -20.5922   28.6617 N   0  0  0  0  0  0  0  0  0  0  0  0
    8.3503  -19.9096   28.6374 C   0  0  0  0  0  0  0  0  0  0  0  0
    9.2491  -19.5293   29.5997 C   0  0  0  0  0  0  0  0  0  0  0  0
   10.3793  -18.8005   29.2691 C   0  0  0  0  0  0  0  0  0  0  0  0
   10.5802  -18.4707   27.9651 C   0  0  0  0  0  0  0  0  0  0  0  0
    9.6963  -18.8440   27.0013 C   0  0  0  0  0  0  0  0  0  0  0  0
    8.5489  -19.5767   27.2986 C   0  0  0  0  0  0  0  0  0  0  0  0
    7.5983  -17.6215   24.2877 C   0  0  0  0  0  0  0  0  0  0  0  0
    8.3066  -17.0811   25.1880 O   0  0  0  0  0  0  0  0  0  0  0  0
    8.3813  -12.1304   17.9205 N   0  0  0  0  0  0  0  0  0  0  0  0
    8.3570  -13.4753   17.4318 C   0  0  0  0  0  0  0  0  0  0  0  0
    8.7386  -13.7577   16.2420 N   0  0  0  0  0  0  0  0  0  0  0  0
    7.9061  -14.5485   18.2404 N   0  0  0  0  0  0  0  0  0  0  0  0
    7.5013  -14.3436   19.5934 C   0  0  0  0  0  0  0  0  0  0  0  0
    7.0086  -15.5811   20.2903 C   0  0  0  0  0  0  0  0  0  0  0  0
    6.7343  -15.2038   21.7428 C   0  0  0  0  0  0  0  0  0  0  0  0
    7.7750  -15.7190   22.6665 C   0  0  2  0  0  0  0  0  0  0  0  0
    7.7186  -17.1269   22.9494 N   0  0  0  0  0  0  0  0  0  0  0  0
    7.8248  -14.8747   23.8919 C   0  0  0  0  0  0  0  0  0  0  0  0
    7.1259  -13.8586   23.9804 O   0  0  0  0  0  0  0  0  0  0  0  0
    8.7656  -14.7530   15.9356 C   0  0  0  0  0  0  0  0  0  0  0  0
    5.6269  -12.7439   26.6891 C   0  0  1  0  0  0  0  0  0  0  0  0
    6.8894  -13.0531   25.9483 C   0  0  0  0  0  0  0  0  0  0  0  0
    7.5733  -11.7218   25.6145 C   0  0  0  0  0  0  0  0  0  0  0  0
    7.8533  -13.8934   26.7139 C   0  0  2  0  0  0  0  0  0  0  0  0
    9.0874  -14.3019   25.9876 N   0  0  0  0  0  0  0  0  0  0  0  0
    8.6767  -15.2436   24.9565 C   0  0  0  0  0  0  0  0  0  0  0  0
   10.0534  -14.9655   26.8764 O   0  0  0  0  0  0  0  0  0  0  0  0
   10.5813  -14.2911   27.8118 O   0  0  0  0  0  0  0  0  0  0  0  0
  2  1  1  6
  2  3  1  0
  4  5  2  0
  4  3  1  0
  6  5  1  0
  7 12  2  0
  7  6  1  0
  8  7  1  0
  9 10  1  0
  9  8  2  0
 10 11  2  0
 11 12  1  0
 12  4  1  0
 13 23  1  0
 13  2  1  0
 14 13  2  0
 16 15  1  0
 17 16  2  0
 18 16  1  0
 19 20  1  0
 19 18  1  0
 20 21  1  0
 22 21  1  1
 22 24  1  0
 22 23  1  0
 24 31  1  0
 25 24  2  0
 27 26  1  6
 27 28  1  0
 29 27  1  0
 30 32  1  0
 30 29  1  6
 31 30  1  0
 32 34  1  0
 33 32  2  0
M  END
$$$$
