WRL.pdb
     RDKit          3D

 34 35  0  0  1  0  0  0  0  0999 V2000
    6.2546  -17.6835   25.1586 N   0  0  0  0  0  0  0  0  0  0  0  0
    7.2350  -16.7627   24.6426 C   0  0  1  0  0  0  0  0  0  0  0  0
    7.1930  -15.4688   25.3640 C   0  0  0  0  0  0  0  0  0  0  0  0
    6.6088  -14.3582   24.5963 C   0  0  0  0  0  0  0  0  0  0  0  0
    5.6029  -13.4776   25.0088 C   0  0  0  0  0  0  0  0  0  0  0  0
    5.3929  -12.5951   24.0462 N   0  0  0  0  0  0  0  0  0  0  0  0
    6.2035  -12.8251   22.9877 C   0  0  0  0  0  0  0  0  0  0  0  0
    6.3666  -12.2236   21.7670 C   0  0  0  0  0  0  0  0  0  0  0  0
    7.2898  -12.7057   20.8541 C   0  0  0  0  0  0  0  0  0  0  0  0
    8.0349  -13.7906   21.1963 C   0  0  0  0  0  0  0  0  0  0  0  0
    7.8833  -14.3947   22.4053 C   0  0  0  0  0  0  0  0  0  0  0  0
    6.9636  -13.9368   23.3469 C   0  0  0  0  0  0  0  0  0  0  0  0
    8.5650  -17.4255   24.7032 C   0  0  0  0  0  0  0  0  0  0  0  0
    8.7872  -18.3579   25.5313 O   0  0  0  0  0  0  0  0  0  0  0  0
   11.0613  -19.8140   19.9471 N   0  0  0  0  0  0  0  0  0  0  0  0
   12.4133  -19.6604   19.5036 C   0  0  0  0  0  0  0  0  0  0  0  0
   12.7153  -19.7109   18.2597 N   0  0  0  0  0  0  0  0  0  0  0  0
   13.4736  -19.4511   20.4206 N   0  0  0  0  0  0  0  0  0  0  0  0
   13.3096  -18.6279   21.5748 C   0  0  0  0  0  0  0  0  0  0  0  0
   11.8987  -18.1695   21.8173 C   0  0  0  0  0  0  0  0  0  0  0  0
   11.9416  -17.1557   22.9566 C   0  0  0  0  0  0  0  0  0  0  0  0
   10.9805  -17.4813   24.0391 C   0  0  2  0  0  0  0  0  0  0  0  0
    9.6321  -17.0276   23.8355 N   0  0  0  0  0  0  0  0  0  0  0  0
   11.5455  -17.0737   25.3549 C   0  0  0  0  0  0  0  0  0  0  0  0
   12.7096  -16.6650   25.4364 O   0  0  0  0  0  0  0  0  0  0  0  0
   13.7074  -19.5848   17.9681 C   0  0  0  0  0  0  0  0  0  0  0  0
    8.5199  -14.0961   28.4199 C   0  0  1  0  0  0  0  0  0  0  0  0
    9.7109  -14.7565   27.8003 C   0  0  0  0  0  0  0  0  0  0  0  0
   10.8747  -13.7592   27.8458 C   0  0  0  0  0  0  0  0  0  0  0  0
   10.1403  -16.0061   28.4897 C   0  0  2  0  0  0  0  0  0  0  0  0
   11.2304  -16.7770   27.8303 N   0  0  0  0  0  0  0  0  0  0  0  0
   10.7406  -17.1555   26.5128 C   0  0  0  0  0  0  0  0  0  0  0  0
   11.5693  -17.9977   28.5775 O   0  0  0  0  0  0  0  0  0  0  0  0
   11.1514  -19.1129   28.1413 O   0  0  0  0  0  0  0  0  0  0  0  0
  2  1  1  1
  2  3  1  0
  4  5  2  0
  4  3  1  0
  6  5  1  0
  7 12  2  0
  7  6  1  0
  8  7  1  0
  9 10  1  0
  9  8  2  0
 10 11  2  0
 11 12  1  0
 12  4  1  0
 13 23  1  0
 13  2  1  0
 14 13  2  0
 16 15  1  0
 17 16  2  0
 18 16  1  0
 19 20  1  0
 19 18  1  0
 20 21  1  0
 22 21  1  6
 22 24  1  0
 22 23  1  0
 24 31  1  0
 25 24  2  0
 27 26  1  6
 27 28  1  0
 29 27  1  0
 30 32  1  0
 30 29  1  6
 31 30  1  0
 32 34  1  0
 33 32  2  0
M  END
$$$$
