WRL.pdb
     RDKit          3D

 34 35  0  0  1  0  0  0  0  0999 V2000
    6.0226  -18.1593   25.1131 N   0  0  0  0  0  0  0  0  0  0  0  0
    6.7848  -16.9587   24.8828 C   0  0  1  0  0  0  0  0  0  0  0  0
    6.9418  -16.1714   26.1285 C   0  0  0  0  0  0  0  0  0  0  0  0
    6.0812  -14.9814   26.2136 C   0  0  0  0  0  0  0  0  0  0  0  0
    4.7752  -14.9118   26.7103 C   0  0  0  0  0  0  0  0  0  0  0  0
    4.3680  -13.6547   26.6543 N   0  0  0  0  0  0  0  0  0  0  0  0
    5.3290  -12.8527   26.1406 C   0  0  0  0  0  0  0  0  0  0  0  0
    5.4020  -11.5116   25.8673 C   0  0  0  0  0  0  0  0  0  0  0  0
    6.5435  -10.9605   25.3094 C   0  0  0  0  0  0  0  0  0  0  0  0
    7.5944  -11.7803   25.0392 C   0  0  0  0  0  0  0  0  0  0  0  0
    7.5343  -13.1122   25.3077 C   0  0  0  0  0  0  0  0  0  0  0  0
    6.4017  -13.6999   25.8679 C   0  0  0  0  0  0  0  0  0  0  0  0
    8.0815  -17.3483   24.2673 C   0  0  0  0  0  0  0  0  0  0  0  0
    8.7159  -18.3636   24.6807 O   0  0  0  0  0  0  0  0  0  0  0  0
    9.7353  -12.6853   18.5077 N   0  0  0  0  0  0  0  0  0  0  0  0
    8.7481  -13.6177   18.0559 C   0  0  0  0  0  0  0  0  0  0  0  0
    7.8497  -13.2770   17.2085 N   0  0  0  0  0  0  0  0  0  0  0  0
    8.7198  -14.9532   18.5296 N   0  0  0  0  0  0  0  0  0  0  0  0
    9.7042  -15.4424   19.4397 C   0  0  0  0  0  0  0  0  0  0  0  0
    9.3189  -15.3380   20.8890 C   0  0  0  0  0  0  0  0  0  0  0  0
   10.4926  -15.8655   21.7085 C   0  0  0  0  0  0  0  0  0  0  0  0
   10.0512  -16.6682   22.8757 C   0  0  2  0  0  0  0  0  0  0  0  0
    8.6529  -16.5873   23.1976 N   0  0  0  0  0  0  0  0  0  0  0  0
   10.9390  -16.3966   24.0397 C   0  0  0  0  0  0  0  0  0  0  0  0
   11.4885  -15.2960   24.1640 O   0  0  0  0  0  0  0  0  0  0  0  0
    7.1196  -13.9664   16.9313 C   0  0  0  0  0  0  0  0  0  0  0  0
   11.8428  -13.9780   26.3483 C   0  0  2  0  0  0  0  0  0  0  0  0
   11.4565  -14.9020   27.4598 C   0  0  0  0  0  0  0  0  0  0  0  0
   10.4408  -14.1695   28.3448 C   0  0  0  0  0  0  0  0  0  0  0  0
   10.8403  -16.1795   27.0020 C   0  0  2  0  0  0  0  0  0  0  0  0
   11.7475  -17.1311   26.3028 N   0  0  0  0  0  0  0  0  0  0  0  0
   11.1491  -17.4064   25.0048 C   0  0  0  0  0  0  0  0  0  0  0  0
   11.8868  -18.3976   27.0375 O   0  0  0  0  0  0  0  0  0  0  0  0
   12.5845  -18.4122   28.0965 O   0  0  0  0  0  0  0  0  0  0  0  0
  2  1  1  1
  2  3  1  0
  4  5  2  0
  4  3  1  0
  6  5  1  0
  7 12  2  0
  7  6  1  0
  8  7  1  0
  9 10  1  0
  9  8  2  0
 10 11  2  0
 11 12  1  0
 12  4  1  0
 13 23  1  0
 13  2  1  0
 14 13  2  0
 16 15  1  0
 17 16  2  0
 18 16  1  0
 19 20  1  0
 19 18  1  0
 20 21  1  0
 22 21  1  6
 22 24  1  0
 22 23  1  0
 24 31  1  0
 25 24  2  0
 27 26  1  1
 27 28  1  0
 29 27  1  0
 30 32  1  0
 30 29  1  6
 31 30  1  0
 32 34  1  0
 33 32  2  0
M  END
$$$$
