WRL.pdb
     RDKit          3D

 34 35  0  0  1  0  0  0  0  0999 V2000
    6.0703  -17.6590   25.2800 N   0  0  0  0  0  0  0  0  0  0  0  0
    6.8145  -16.4931   24.8771 C   0  0  1  0  0  0  0  0  0  0  0  0
    7.1269  -15.6245   26.0366 C   0  0  0  0  0  0  0  0  0  0  0  0
    6.2453  -14.4558   26.1816 C   0  0  0  0  0  0  0  0  0  0  0  0
    4.9018  -14.4489   26.5716 C   0  0  0  0  0  0  0  0  0  0  0  0
    4.4828  -13.1954   26.6225 N   0  0  0  0  0  0  0  0  0  0  0  0
    5.4716  -12.3361   26.2840 C   0  0  0  0  0  0  0  0  0  0  0  0
    5.5479  -10.9725   26.1694 C   0  0  0  0  0  0  0  0  0  0  0  0
    6.7236  -10.3565   25.7742 C   0  0  0  0  0  0  0  0  0  0  0  0
    7.8049  -11.1356   25.5032 C   0  0  0  0  0  0  0  0  0  0  0  0
    7.7417  -12.4895   25.6152 C   0  0  0  0  0  0  0  0  0  0  0  0
    6.5751  -13.1420   26.0093 C   0  0  0  0  0  0  0  0  0  0  0  0
    8.0246  -16.9508   24.1437 C   0  0  0  0  0  0  0  0  0  0  0  0
    8.6753  -17.9643   24.5358 O   0  0  0  0  0  0  0  0  0  0  0  0
    8.0043  -12.8636   18.2318 N   0  0  0  0  0  0  0  0  0  0  0  0
    8.5320  -13.9756   17.5015 C   0  0  0  0  0  0  0  0  0  0  0  0
    8.2223  -14.1729   16.2743 N   0  0  0  0  0  0  0  0  0  0  0  0
    9.4139  -14.9063   18.1057 N   0  0  0  0  0  0  0  0  0  0  0  0
    8.9536  -15.8516   19.0706 C   0  0  0  0  0  0  0  0  0  0  0  0
    8.8770  -15.3211   20.4750 C   0  0  0  0  0  0  0  0  0  0  0  0
   10.1407  -15.7745   21.1996 C   0  0  0  0  0  0  0  0  0  0  0  0
    9.8462  -16.3926   22.5160 C   0  0  2  0  0  0  0  0  0  0  0  0
    8.4927  -16.2592   22.9807 N   0  0  0  0  0  0  0  0  0  0  0  0
   10.8573  -15.9540   23.5170 C   0  0  0  0  0  0  0  0  0  0  0  0
   10.9643  -14.7591   23.8158 O   0  0  0  0  0  0  0  0  0  0  0  0
    8.5932  -15.0122   15.7811 C   0  0  0  0  0  0  0  0  0  0  0  0
   10.1005  -14.9775   28.0182 C   0  0  1  0  0  0  0  0  0  0  0  0
   10.8198  -15.1321   26.7154 C   0  0  0  0  0  0  0  0  0  0  0  0
   12.0781  -14.2575   26.7696 C   0  0  0  0  0  0  0  0  0  0  0  0
   11.2367  -16.5308   26.4135 C   0  0  2  0  0  0  0  0  0  0  0  0
   12.3308  -16.6876   25.4156 N   0  0  0  0  0  0  0  0  0  0  0  0
   11.6950  -16.9145   24.1260 C   0  0  0  0  0  0  0  0  0  0  0  0
   13.1958  -17.8364   25.7250 O   0  0  0  0  0  0  0  0  0  0  0  0
   12.9502  -18.9492   25.1683 O   0  0  0  0  0  0  0  0  0  0  0  0
  2  1  1  1
  2  3  1  0
  4  5  2  0
  4  3  1  0
  6  5  1  0
  7 12  2  0
  7  6  1  0
  8  7  1  0
  9 10  1  0
  9  8  2  0
 10 11  2  0
 11 12  1  0
 12  4  1  0
 13 23  1  0
 13  2  1  0
 14 13  2  0
 16 15  1  0
 17 16  2  0
 18 16  1  0
 19 20  1  0
 19 18  1  0
 20 21  1  0
 22 21  1  6
 22 24  1  0
 22 23  1  0
 24 31  1  0
 25 24  2  0
 27 26  1  6
 27 28  1  0
 29 27  1  0
 30 32  1  0
 30 29  1  6
 31 30  1  0
 32 34  1  0
 33 32  2  0
M  END
$$$$
