WRL.pdb
     RDKit          3D

 34 35  0  0  1  0  0  0  0  0999 V2000
   10.6981  -15.8595   25.7564 N   0  0  0  0  0  0  0  0  0  0  0  0
    9.8323  -16.6308   24.9014 C   0  0  1  0  0  0  0  0  0  0  0  0
    8.4047  -16.3566   25.1897 C   0  0  0  0  0  0  0  0  0  0  0  0
    8.1685  -15.2034   26.0719 C   0  0  0  0  0  0  0  0  0  0  0  0
    7.1433  -14.2563   25.9752 C   0  0  0  0  0  0  0  0  0  0  0  0
    7.2545  -13.4085   26.9843 N   0  0  0  0  0  0  0  0  0  0  0  0
    8.3085  -13.7229   27.7722 C   0  0  0  0  0  0  0  0  0  0  0  0
    8.8485  -13.1684   28.9033 C   0  0  0  0  0  0  0  0  0  0  0  0
    9.9745  -13.7153   29.4958 C   0  0  0  0  0  0  0  0  0  0  0  0
   10.5338  -14.8188   28.9309 C   0  0  0  0  0  0  0  0  0  0  0  0
   10.0058  -15.3788   27.8096 C   0  0  0  0  0  0  0  0  0  0  0  0
    8.8747  -14.8543   27.1872 C   0  0  0  0  0  0  0  0  0  0  0  0
   10.2105  -16.3502   23.4907 C   0  0  0  0  0  0  0  0  0  0  0  0
   10.4451  -15.1665   23.1058 O   0  0  0  0  0  0  0  0  0  0  0  0
   14.8725  -14.5556   19.2625 N   0  0  0  0  0  0  0  0  0  0  0  0
   14.4677  -15.1925   18.0465 C   0  0  0  0  0  0  0  0  0  0  0  0
   14.9394  -14.8245   16.9138 N   0  0  0  0  0  0  0  0  0  0  0  0
   13.5261  -16.2520   18.0440 N   0  0  0  0  0  0  0  0  0  0  0  0
   12.9742  -16.7618   19.2572 C   0  0  0  0  0  0  0  0  0  0  0  0
   11.8677  -17.7613   19.0663 C   0  0  0  0  0  0  0  0  0  0  0  0
   11.4076  -18.1977   20.4539 C   0  0  0  0  0  0  0  0  0  0  0  0
   10.6338  -17.1409   21.1509 C   0  0  2  0  0  0  0  0  0  0  0  0
   10.3147  -17.4042   22.5272 N   0  0  0  0  0  0  0  0  0  0  0  0
    9.4476  -16.7625   20.3344 C   0  0  0  0  0  0  0  0  0  0  0  0
    8.3607  -17.3245   20.5121 O   0  0  0  0  0  0  0  0  0  0  0  0
   14.5771  -15.2635   16.0413 C   0  0  0  0  0  0  0  0  0  0  0  0
    8.3654  -11.6931   19.5616 C   0  0  2  0  0  0  0  0  0  0  0  0
    8.3098  -13.1832   19.6837 C   0  0  0  0  0  0  0  0  0  0  0  0
    6.9488  -13.5522   20.2862 C   0  0  0  0  0  0  0  0  0  0  0  0
    8.4574  -13.9052   18.3882 C   0  0  2  0  0  0  0  0  0  0  0  0
    8.4766  -15.3922   18.4652 N   0  0  0  0  0  0  0  0  0  0  0  0
    9.5715  -15.7535   19.3536 C   0  0  0  0  0  0  0  0  0  0  0  0
    8.7122  -16.0072   17.1500 O   0  0  0  0  0  0  0  0  0  0  0  0
    7.8701  -15.8028   16.2239 O   0  0  0  0  0  0  0  0  0  0  0  0
  2  1  1  1
  2  3  1  0
  4  5  2  0
  4  3  1  0
  6  5  1  0
  7 12  2  0
  7  6  1  0
  8  7  1  0
  9 10  1  0
  9  8  2  0
 10 11  2  0
 11 12  1  0
 12  4  1  0
 13 23  1  0
 13  2  1  0
 14 13  2  0
 16 15  1  0
 17 16  2  0
 18 16  1  0
 19 20  1  0
 19 18  1  0
 20 21  1  0
 22 21  1  6
 22 24  1  0
 22 23  1  0
 24 31  1  0
 25 24  2  0
 27 26  1  1
 27 28  1  0
 29 27  1  0
 30 32  1  0
 30 29  1  1
 31 30  1  0
 32 34  1  0
 33 32  2  0
M  END
$$$$
