WRL.pdb
     RDKit          3D

 34 35  0  0  1  0  0  0  0  0999 V2000
    7.6649  -19.9555   26.5409 N   0  0  0  0  0  0  0  0  0  0  0  0
    7.7601  -18.6319   25.9801 C   0  0  1  0  0  0  0  0  0  0  0  0
    9.0458  -17.9860   26.3357 C   0  0  0  0  0  0  0  0  0  0  0  0
    9.1466  -17.5532   27.7381 C   0  0  0  0  0  0  0  0  0  0  0  0
    9.4985  -18.3339   28.8444 C   0  0  0  0  0  0  0  0  0  0  0  0
    9.5168  -17.5618   29.9181 N   0  0  0  0  0  0  0  0  0  0  0  0
    9.1921  -16.2856   29.6072 C   0  0  0  0  0  0  0  0  0  0  0  0
    9.0571  -15.1342   30.3382 C   0  0  0  0  0  0  0  0  0  0  0  0
    8.6849  -13.9461   29.7317 C   0  0  0  0  0  0  0  0  0  0  0  0
    8.4575  -13.9455   28.3909 C   0  0  0  0  0  0  0  0  0  0  0  0
    8.5900  -15.0815   27.6548 C   0  0  0  0  0  0  0  0  0  0  0  0
    8.9619  -16.2939   28.2326 C   0  0  0  0  0  0  0  0  0  0  0  0
    7.5426  -18.7374   24.5127 C   0  0  0  0  0  0  0  0  0  0  0  0
    8.0650  -19.6794   23.8463 O   0  0  0  0  0  0  0  0  0  0  0  0
    6.6489  -12.7159   19.0030 N   0  0  0  0  0  0  0  0  0  0  0  0
    7.3377  -13.7979   18.3680 C   0  0  0  0  0  0  0  0  0  0  0  0
    8.4184  -13.6029   17.7086 N   0  0  0  0  0  0  0  0  0  0  0  0
    6.8512  -15.1273   18.4379 N   0  0  0  0  0  0  0  0  0  0  0  0
    6.2037  -15.6237   19.6088 C   0  0  0  0  0  0  0  0  0  0  0  0
    6.9336  -15.3398   20.8918 C   0  0  0  0  0  0  0  0  0  0  0  0
    6.2741  -16.1780   21.9827 C   0  0  0  0  0  0  0  0  0  0  0  0
    7.2283  -17.1089   22.6344 C   0  0  2  0  0  0  0  0  0  0  0  0
    6.7444  -17.7783   23.8105 N   0  0  0  0  0  0  0  0  0  0  0  0
    8.5359  -16.4278   22.8418 C   0  0  0  0  0  0  0  0  0  0  0  0
    9.4039  -16.4587   21.9618 O   0  0  0  0  0  0  0  0  0  0  0  0
    8.8954  -14.4113   17.2566 C   0  0  0  0  0  0  0  0  0  0  0  0
    7.6120  -12.7660   26.6047 C   0  0  2  0  0  0  0  0  0  0  0  0
    8.0038  -13.5032   25.3632 C   0  0  0  0  0  0  0  0  0  0  0  0
    7.6597  -12.6131   24.1629 C   0  0  0  0  0  0  0  0  0  0  0  0
    9.4528  -13.8443   25.2904 C   0  0  2  0  0  0  0  0  0  0  0  0
    9.8537  -14.7717   24.1965 N   0  0  0  0  0  0  0  0  0  0  0  0
    8.7789  -15.7428   24.0529 C   0  0  0  0  0  0  0  0  0  0  0  0
   11.0990  -15.4878   24.5123 O   0  0  0  0  0  0  0  0  0  0  0  0
   11.7477  -15.1507   25.5487 O   0  0  0  0  0  0  0  0  0  0  0  0
  2  1  1  6
  2  3  1  0
  4  5  2  0
  4  3  1  0
  6  5  1  0
  7 12  2  0
  7  6  1  0
  8  7  1  0
  9 10  1  0
  9  8  2  0
 10 11  2  0
 11 12  1  0
 12  4  1  0
 13 23  1  0
 13  2  1  0
 14 13  2  0
 16 15  1  0
 17 16  2  0
 18 16  1  0
 19 20  1  0
 19 18  1  0
 20 21  1  0
 22 21  1  1
 22 24  1  0
 22 23  1  0
 24 31  1  0
 25 24  2  0
 27 26  1  6
 27 28  1  0
 29 27  1  0
 30 32  1  0
 30 29  1  6
 31 30  1  0
 32 34  1  0
 33 32  2  0
M  END
$$$$
