WRL.pdb
     RDKit          3D

 34 35  0  0  1  0  0  0  0  0999 V2000
    6.3966  -18.7045   21.6024 N   0  0  0  0  0  0  0  0  0  0  0  0
    7.2130  -17.7180   22.2626 C   0  0  1  0  0  0  0  0  0  0  0  0
    6.5216  -17.1466   23.4424 C   0  0  0  0  0  0  0  0  0  0  0  0
    6.5012  -15.6763   23.4878 C   0  0  0  0  0  0  0  0  0  0  0  0
    6.0913  -14.8653   24.5515 C   0  0  0  0  0  0  0  0  0  0  0  0
    6.2691  -13.5997   24.2111 N   0  0  0  0  0  0  0  0  0  0  0  0
    6.7799  -13.4972   22.9624 C   0  0  0  0  0  0  0  0  0  0  0  0
    7.1243  -12.4407   22.1601 C   0  0  0  0  0  0  0  0  0  0  0  0
    7.6202  -12.6487   20.8839 C   0  0  0  0  0  0  0  0  0  0  0  0
    7.7606  -13.9275   20.4428 C   0  0  0  0  0  0  0  0  0  0  0  0
    7.4240  -14.9838   21.2306 C   0  0  0  0  0  0  0  0  0  0  0  0
    6.9215  -14.8109   22.5188 C   0  0  0  0  0  0  0  0  0  0  0  0
    8.5177  -18.3492   22.5957 C   0  0  0  0  0  0  0  0  0  0  0  0
    8.9415  -19.3463   21.9396 O   0  0  0  0  0  0  0  0  0  0  0  0
   13.3767  -14.2397   18.8376 N   0  0  0  0  0  0  0  0  0  0  0  0
   14.3828  -14.9132   19.6007 C   0  0  0  0  0  0  0  0  0  0  0  0
   15.6019  -14.5200   19.5880 N   0  0  0  0  0  0  0  0  0  0  0  0
   14.0742  -16.0442   20.3972 N   0  0  0  0  0  0  0  0  0  0  0  0
   12.7243  -16.4114   20.6795 C   0  0  0  0  0  0  0  0  0  0  0  0
   12.2396  -16.0022   22.0423 C   0  0  0  0  0  0  0  0  0  0  0  0
   10.8193  -16.5372   22.1971 C   0  0  0  0  0  0  0  0  0  0  0  0
   10.6469  -17.3316   23.4384 C   0  0  2  0  0  0  0  0  0  0  0  0
    9.3283  -17.8552   23.6676 N   0  0  0  0  0  0  0  0  0  0  0  0
   11.1895  -16.5757   24.6006 C   0  0  0  0  0  0  0  0  0  0  0  0
   12.3990  -16.3310   24.6783 O   0  0  0  0  0  0  0  0  0  0  0  0
   16.2991  -14.9937   20.2002 C   0  0  0  0  0  0  0  0  0  0  0  0
    8.6852  -12.6413   26.5089 C   0  0  1  0  0  0  0  0  0  0  0  0
    9.8854  -13.5149   26.3223 C   0  0  0  0  0  0  0  0  0  0  0  0
   11.1278  -12.6171   26.3629 C   0  0  0  0  0  0  0  0  0  0  0  0
   10.0377  -14.5693   27.3646 C   0  0  2  0  0  0  0  0  0  0  0  0
   10.7751  -15.7958   26.9532 N   0  0  0  0  0  0  0  0  0  0  0  0
   10.3113  -16.1372   25.6164 C   0  0  0  0  0  0  0  0  0  0  0  0
   10.5024  -16.9279   27.8518 O   0  0  0  0  0  0  0  0  0  0  0  0
    9.7919  -17.8869   27.4227 O   0  0  0  0  0  0  0  0  0  0  0  0
  2  1  1  1
  2  3  1  0
  4  5  2  0
  4  3  1  0
  6  5  1  0
  7 12  2  0
  7  6  1  0
  8  7  1  0
  9 10  1  0
  9  8  2  0
 10 11  2  0
 11 12  1  0
 12  4  1  0
 13 23  1  0
 13  2  1  0
 14 13  2  0
 16 15  1  0
 17 16  2  0
 18 16  1  0
 19 20  1  0
 19 18  1  0
 20 21  1  0
 22 21  1  6
 22 24  1  0
 22 23  1  0
 24 31  1  0
 25 24  2  0
 27 26  1  6
 27 28  1  0
 29 27  1  0
 30 32  1  0
 30 29  1  6
 31 30  1  0
 32 34  1  0
 33 32  2  0
M  END
$$$$
