WRL.pdb
     RDKit          3D

 34 35  0  0  1  0  0  0  0  0999 V2000
    5.9291  -18.0206   24.2949 N   0  0  0  0  0  0  0  0  0  0  0  0
    6.7895  -16.8716   24.4178 C   0  0  1  0  0  0  0  0  0  0  0  0
    6.9135  -16.4383   25.8296 C   0  0  0  0  0  0  0  0  0  0  0  0
    6.2547  -15.1595   26.1379 C   0  0  0  0  0  0  0  0  0  0  0  0
    4.9509  -14.9676   26.6075 C   0  0  0  0  0  0  0  0  0  0  0  0
    4.7579  -13.6737   26.8023 N   0  0  0  0  0  0  0  0  0  0  0  0
    5.8649  -12.9622   26.4876 C   0  0  0  0  0  0  0  0  0  0  0  0
    6.1710  -11.6264   26.4984 C   0  0  0  0  0  0  0  0  0  0  0  0
    7.4174  -11.1790   26.0929 C   0  0  0  0  0  0  0  0  0  0  0  0
    8.3346  -12.0961   25.6843 C   0  0  0  0  0  0  0  0  0  0  0  0
    8.0429  -13.4244   25.6710 C   0  0  0  0  0  0  0  0  0  0  0  0
    6.7992  -13.9091   26.0713 C   0  0  0  0  0  0  0  0  0  0  0  0
    8.0954  -17.2059   23.7896 C   0  0  0  0  0  0  0  0  0  0  0  0
    8.5622  -18.3817   23.8516 O   0  0  0  0  0  0  0  0  0  0  0  0
    7.2759  -13.8142   17.7835 N   0  0  0  0  0  0  0  0  0  0  0  0
    8.6473  -14.2153   17.8645 C   0  0  0  0  0  0  0  0  0  0  0  0
    9.5896  -13.4495   17.4562 N   0  0  0  0  0  0  0  0  0  0  0  0
    9.0195  -15.4761   18.3943 N   0  0  0  0  0  0  0  0  0  0  0  0
    8.7506  -15.8230   19.7522 C   0  0  0  0  0  0  0  0  0  0  0  0
    9.3767  -14.9055   20.7650 C   0  0  0  0  0  0  0  0  0  0  0  0
   10.5541  -15.6517   21.3850 C   0  0  0  0  0  0  0  0  0  0  0  0
   10.1418  -16.5152   22.5190 C   0  0  2  0  0  0  0  0  0  0  0  0
    8.8646  -16.2118   23.1040 N   0  0  0  0  0  0  0  0  0  0  0  0
   11.2422  -16.5950   23.5187 C   0  0  0  0  0  0  0  0  0  0  0  0
   12.3877  -16.8980   23.1654 O   0  0  0  0  0  0  0  0  0  0  0  0
   10.5729  -13.7933   17.4743 C   0  0  0  0  0  0  0  0  0  0  0  0
   10.3304  -13.9856   28.3913 C   0  0  2  0  0  0  0  0  0  0  0  0
   10.4220  -14.8931   27.2053 C   0  0  0  0  0  0  0  0  0  0  0  0
    9.6893  -14.2158   26.0409 C   0  0  0  0  0  0  0  0  0  0  0  0
   11.8171  -15.1866   26.7707 C   0  0  1  0  0  0  0  0  0  0  0  0
   11.9957  -16.3863   25.9068 N   0  0  0  0  0  0  0  0  0  0  0  0
   10.9691  -16.3200   24.8770 C   0  0  0  0  0  0  0  0  0  0  0  0
   11.8275  -17.6370   26.6623 O   0  0  0  0  0  0  0  0  0  0  0  0
   12.6087  -17.8697   27.6340 O   0  0  0  0  0  0  0  0  0  0  0  0
  2  1  1  1
  2  3  1  0
  4  5  2  0
  4  3  1  0
  6  5  1  0
  7 12  2  0
  7  6  1  0
  8  7  1  0
  9 10  1  0
  9  8  2  0
 10 11  2  0
 11 12  1  0
 12  4  1  0
 13 23  1  0
 13  2  1  0
 14 13  2  0
 16 15  1  0
 17 16  2  0
 18 16  1  0
 19 20  1  0
 19 18  1  0
 20 21  1  0
 22 21  1  6
 22 24  1  0
 22 23  1  0
 24 31  1  0
 25 24  2  0
 27 26  1  1
 27 28  1  0
 29 27  1  0
 30 32  1  0
 30 29  1  6
 31 30  1  0
 32 34  1  0
 33 32  2  0
M  END
$$$$
