QVD.pdb
     RDKit          3D

 25 24  0  0  1  0  0  0  0  0999 V2000
    5.5756  -20.2151   18.2494 N   0  0  0  0  0  0  0  0  0  0  0  0
    6.7966  -20.8844   17.8786 C   0  0  0  0  0  0  0  0  0  0  0  0
    6.6416  -22.0095   17.3567 O   0  0  0  0  0  0  0  0  0  0  0  0
    8.1011  -20.2561   18.1205 C   0  0  0  0  0  0  0  0  0  0  0  0
    8.0891  -18.9672   18.8703 C   0  0  0  0  0  0  0  0  0  0  0  0
    8.2845  -17.8047   17.9702 C   0  0  2  0  0  0  0  0  0  0  0  0
    9.1653  -18.1363   16.8844 N   0  0  0  0  0  0  0  0  0  0  0  0
    8.8404  -16.6182   18.6505 C   0  0  0  0  0  0  0  0  0  0  0  0
   10.0929  -16.4153   18.6819 O   0  0  0  0  0  0  0  0  0  0  0  0
    7.9411  -12.2702   20.9649 C   0  0  0  0  0  0  0  0  0  0  0  0
    7.4670  -13.5034   20.2649 C   0  0  2  0  0  0  0  0  0  0  0  0
    6.4156  -14.1338   21.1825 C   0  0  0  0  0  0  0  0  0  0  0  0
    8.5639  -14.4987   19.9539 C   0  0  2  0  0  0  0  0  0  0  0  0
    7.9954  -15.6846   19.2824 N   0  0  0  0  0  0  0  0  0  0  0  0
    9.3278  -14.8921   21.1490 C   0  0  0  0  0  0  0  0  0  0  0  0
    9.9576  -14.0833   21.8754 O   0  0  0  0  0  0  0  0  0  0  0  0
    9.4074  -16.2668   21.5796 N   0  0  0  0  0  0  0  0  0  0  0  0
   10.1844  -16.6102   22.7966 C   0  0  1  0  0  0  0  0  0  0  0  0
    9.9326  -18.0400   23.1737 C   0  0  0  0  0  0  0  0  0  0  0  0
   10.7881  -18.4192   24.3091 C   0  0  0  0  0  0  0  0  0  0  0  0
   12.0584  -18.5275   24.1564 O   0  0  0  0  0  0  0  0  0  0  0  0
   11.5912  -16.4699   22.3673 C   0  0  0  0  0  0  0  0  0  0  0  0
   12.5555  -15.8345   23.1285 O   0  0  0  0  0  0  0  0  0  0  0  0
   10.3537  -18.6909   25.5982 O   0  0  0  0  0  0  0  0  0  0  0  0
   11.9513  -16.9369   21.2725 O   0  0  0  0  0  0  0  0  0  0  0  0
  1  2  1  0
  2  3  2  0
  4  2  1  0
  4  5  1  0
  6  5  1  0
  6  8  1  0
  6  7  1  6
  8  9  2  0
 11 10  1  1
 11 12  1  0
 11 13  1  0
 13 15  1  0
 13 14  1  1
 14  8  1  0
 15 17  1  0
 16 15  2  0
 17 18  1  0
 18 19  1  6
 20 19  1  0
 21 20  2  0
 22 18  1  0
 23 22  1  0
 24 20  1  0
 25 22  2  0
M  END
$$$$
