QVD.pdb
     RDKit          3D

 25 24  0  0  1  0  0  0  0  0999 V2000
    8.9405  -18.6528   19.3784 N   0  0  0  0  0  0  0  0  0  0  0  0
    7.6596  -18.3454   19.9625 C   0  0  0  0  0  0  0  0  0  0  0  0
    7.0185  -19.3361   20.3747 O   0  0  0  0  0  0  0  0  0  0  0  0
    7.1826  -16.9592   20.0404 C   0  0  0  0  0  0  0  0  0  0  0  0
    6.8961  -16.4307   21.4050 C   0  0  0  0  0  0  0  0  0  0  0  0
    7.1803  -14.9783   21.5038 C   0  0  2  0  0  0  0  0  0  0  0  0
    7.8425  -14.5013   20.3211 N   0  0  0  0  0  0  0  0  0  0  0  0
    8.0212  -14.6189   22.6627 C   0  0  0  0  0  0  0  0  0  0  0  0
    9.2837  -14.7392   22.6110 O   0  0  0  0  0  0  0  0  0  0  0  0
    8.3951  -12.2196   27.0010 C   0  0  0  0  0  0  0  0  0  0  0  0
    7.5785  -12.7382   25.8610 C   0  0  2  0  0  0  0  0  0  0  0  0
    6.3275  -13.3626   26.4856 C   0  0  0  0  0  0  0  0  0  0  0  0
    8.2981  -13.7483   24.9937 C   0  0  2  0  0  0  0  0  0  0  0  0
    7.4435  -14.1361   23.8537 N   0  0  0  0  0  0  0  0  0  0  0  0
    8.7323  -14.9357   25.7476 C   0  0  0  0  0  0  0  0  0  0  0  0
    7.9611  -15.8637   26.0976 O   0  0  0  0  0  0  0  0  0  0  0  0
   10.1066  -15.1204   26.1457 N   0  0  0  0  0  0  0  0  0  0  0  0
   10.5028  -16.3594   26.8604 C   0  0  1  0  0  0  0  0  0  0  0  0
   11.9661  -16.6181   26.6562 C   0  0  0  0  0  0  0  0  0  0  0  0
   12.1903  -17.2238   25.3342 C   0  0  0  0  0  0  0  0  0  0  0  0
   11.6109  -18.3254   25.0187 O   0  0  0  0  0  0  0  0  0  0  0  0
   10.2689  -16.0353   28.2829 C   0  0  0  0  0  0  0  0  0  0  0  0
   10.0791  -14.7453   28.7444 O   0  0  0  0  0  0  0  0  0  0  0  0
   13.0047  -16.7129   24.3342 O   0  0  0  0  0  0  0  0  0  0  0  0
   10.2367  -16.9486   29.1262 O   0  0  0  0  0  0  0  0  0  0  0  0
  1  2  1  0
  2  3  2  0
  4  2  1  0
  4  5  1  0
  6  5  1  0
  6  8  1  0
  6  7  1  6
  8  9  2  0
 11 10  1  1
 11 12  1  0
 11 13  1  0
 13 15  1  0
 13 14  1  6
 14  8  1  0
 15 17  1  0
 16 15  2  0
 17 18  1  0
 18 19  1  1
 20 19  1  0
 21 20  2  0
 22 18  1  0
 23 22  1  0
 24 20  1  0
 25 22  2  0
M  END
$$$$
