QVD.pdb
     RDKit          3D

 25 24  0  0  1  0  0  0  0  0999 V2000
    8.7101  -19.8526   16.9194 N   0  0  0  0  0  0  0  0  0  0  0  0
    9.7862  -19.1554   16.2618 C   0  0  0  0  0  0  0  0  0  0  0  0
   10.8711  -19.7751   16.2283 O   0  0  0  0  0  0  0  0  0  0  0  0
    9.5786  -17.8173   15.6946 C   0  0  0  0  0  0  0  0  0  0  0  0
    8.2196  -17.2273   15.8639 C   0  0  0  0  0  0  0  0  0  0  0  0
    8.2608  -15.7447   15.8774 C   0  0  2  0  0  0  0  0  0  0  0  0
    8.8363  -15.2343   14.6637 N   0  0  0  0  0  0  0  0  0  0  0  0
    9.0303  -15.1858   17.0066 C   0  0  0  0  0  0  0  0  0  0  0  0
   10.2826  -15.0029   16.9115 O   0  0  0  0  0  0  0  0  0  0  0  0
    7.1077  -14.1953   20.7774 C   0  0  0  0  0  0  0  0  0  0  0  0
    8.2020  -13.3776   20.1695 C   0  0  2  0  0  0  0  0  0  0  0  0
    7.5093  -12.2774   19.3603 C   0  0  0  0  0  0  0  0  0  0  0  0
    9.1481  -14.1662   19.2901 C   0  0  2  0  0  0  0  0  0  0  0  0
    8.3943  -14.8442   18.2166 N   0  0  0  0  0  0  0  0  0  0  0  0
    9.9560  -15.1333   20.0509 C   0  0  0  0  0  0  0  0  0  0  0  0
    9.7610  -16.3743   20.0356 O   0  0  0  0  0  0  0  0  0  0  0  0
   11.0545  -14.7125   20.8863 N   0  0  0  0  0  0  0  0  0  0  0  0
   11.8836  -15.7322   21.5760 C   0  0  1  0  0  0  0  0  0  0  0  0
   13.2855  -15.2237   21.7361 C   0  0  0  0  0  0  0  0  0  0  0  0
   14.0923  -16.1996   22.4855 C   0  0  0  0  0  0  0  0  0  0  0  0
   13.6792  -17.4065   22.6324 O   0  0  0  0  0  0  0  0  0  0  0  0
   11.2615  -15.8471   22.9113 C   0  0  0  0  0  0  0  0  0  0  0  0
   11.5213  -16.8913   23.7804 O   0  0  0  0  0  0  0  0  0  0  0  0
   15.3167  -15.9495   23.0878 O   0  0  0  0  0  0  0  0  0  0  0  0
   10.4620  -14.9760   23.2961 O   0  0  0  0  0  0  0  0  0  0  0  0
  1  2  1  0
  2  3  2  0
  4  2  1  0
  4  5  1  0
  6  5  1  0
  6  8  1  0
  6  7  1  6
  8  9  2  0
 11 10  1  6
 11 12  1  0
 11 13  1  0
 13 15  1  0
 13 14  1  6
 14  8  1  0
 15 17  1  0
 16 15  2  0
 17 18  1  0
 18 19  1  1
 20 19  1  0
 21 20  2  0
 22 18  1  0
 23 22  1  0
 24 20  1  0
 25 22  2  0
M  END
$$$$
