QVD.pdb
     RDKit          3D

 25 24  0  0  1  0  0  0  0  0999 V2000
    5.7516  -21.4087   17.2941 N   0  0  0  0  0  0  0  0  0  0  0  0
    7.0796  -20.9396   17.5986 C   0  0  0  0  0  0  0  0  0  0  0  0
    7.7938  -21.7527   18.2240 O   0  0  0  0  0  0  0  0  0  0  0  0
    7.5145  -19.5982   17.1903 C   0  0  0  0  0  0  0  0  0  0  0  0
    7.1748  -18.4792   18.1155 C   0  0  0  0  0  0  0  0  0  0  0  0
    7.6344  -17.1708   17.5893 C   0  0  2  0  0  0  0  0  0  0  0  0
    8.3624  -17.3363   16.3616 N   0  0  0  0  0  0  0  0  0  0  0  0
    8.5012  -16.4293   18.5265 C   0  0  0  0  0  0  0  0  0  0  0  0
    9.7651  -16.4851   18.4245 O   0  0  0  0  0  0  0  0  0  0  0  0
    6.8751  -14.1057   21.8644 C   0  0  0  0  0  0  0  0  0  0  0  0
    8.0368  -13.6835   21.0232 C   0  0  2  0  0  0  0  0  0  0  0  0
    7.4581  -12.7998   19.9145 C   0  0  0  0  0  0  0  0  0  0  0  0
    8.8208  -14.8336   20.4290 C   0  0  2  0  0  0  0  0  0  0  0  0
    7.9473  -15.6441   19.5570 N   0  0  0  0  0  0  0  0  0  0  0  0
    9.4588  -15.6745   21.4549 C   0  0  0  0  0  0  0  0  0  0  0  0
    8.9971  -16.7764   21.8438 O   0  0  0  0  0  0  0  0  0  0  0  0
   10.6885  -15.2824   22.0996 N   0  0  0  0  0  0  0  0  0  0  0  0
   11.3957  -16.2471   22.9783 C   0  0  1  0  0  0  0  0  0  0  0  0
   12.8700  -15.9724   22.9516 C   0  0  0  0  0  0  0  0  0  0  0  0
   13.5720  -16.9056   23.8467 C   0  0  0  0  0  0  0  0  0  0  0  0
   12.9904  -17.9755   24.2538 O   0  0  0  0  0  0  0  0  0  0  0  0
   10.8768  -15.9402   24.3273 C   0  0  0  0  0  0  0  0  0  0  0  0
   11.0006  -16.8037   25.4008 O   0  0  0  0  0  0  0  0  0  0  0  0
   14.8629  -16.7511   24.3305 O   0  0  0  0  0  0  0  0  0  0  0  0
   10.2965  -14.8600   24.5338 O   0  0  0  0  0  0  0  0  0  0  0  0
  1  2  1  0
  2  3  2  0
  4  2  1  0
  4  5  1  0
  6  5  1  0
  6  8  1  0
  6  7  1  6
  8  9  2  0
 11 10  1  6
 11 12  1  0
 11 13  1  0
 13 15  1  0
 13 14  1  1
 14  8  1  0
 15 17  1  0
 16 15  2  0
 17 18  1  0
 18 19  1  1
 20 19  1  0
 21 20  2  0
 22 18  1  0
 23 22  1  0
 24 20  1  0
 25 22  2  0
M  END
$$$$
