QVD.pdb
     RDKit          3D

 25 24  0  0  1  0  0  0  0  0999 V2000
    0.6242  -31.7862   34.6298 N   0  0  0  0  0  0  0  0  0  0  0  0
   -0.5883  -31.1003   34.9983 C   0  0  0  0  0  0  0  0  0  0  0  0
   -1.6430  -31.6730   34.6491 O   0  0  0  0  0  0  0  0  0  0  0  0
   -0.5392  -29.8247   35.7233 C   0  0  0  0  0  0  0  0  0  0  0  0
   -1.1333  -28.6444   35.0323 C   0  0  0  0  0  0  0  0  0  0  0  0
   -0.2486  -28.1327   33.9574 C   0  0  2  0  0  0  0  0  0  0  0  0
    0.8944  -27.4583   34.5084 N   0  0  0  0  0  0  0  0  0  0  0  0
   -0.9203  -27.1943   33.0367 C   0  0  0  0  0  0  0  0  0  0  0  0
   -1.1017  -25.9815   33.3640 O   0  0  0  0  0  0  0  0  0  0  0  0
   -0.8548  -27.7329   28.8641 C   0  0  0  0  0  0  0  0  0  0  0  0
   -1.1221  -26.4741   29.6255 C   0  0  2  0  0  0  0  0  0  0  0  0
    0.2486  -25.9271   30.0342 C   0  0  0  0  0  0  0  0  0  0  0  0
   -2.0019  -26.6621   30.8424 C   0  0  2  0  0  0  0  0  0  0  0  0
   -1.3777  -27.6222   31.7745 N   0  0  0  0  0  0  0  0  0  0  0  0
   -3.3679  -27.0860   30.4942 C   0  0  0  0  0  0  0  0  0  0  0  0
   -3.6920  -28.2757   30.2536 O   0  0  0  0  0  0  0  0  0  0  0  0
   -4.4550  -26.1418   30.4039 N   0  0  0  0  0  0  0  0  0  0  0  0
   -5.8140  -26.6202   30.0475 C   0  0  1  0  0  0  0  0  0  0  0  0
   -6.8257  -25.5592   30.3644 C   0  0  0  0  0  0  0  0  0  0  0  0
   -7.1226  -25.5612   31.8054 C   0  0  0  0  0  0  0  0  0  0  0  0
   -6.6158  -26.4590   32.5709 O   0  0  0  0  0  0  0  0  0  0  0  0
   -5.7514  -26.7984   28.5820 C   0  0  0  0  0  0  0  0  0  0  0  0
   -6.6514  -27.5744   27.8743 O   0  0  0  0  0  0  0  0  0  0  0  0
   -7.9358  -24.6538   32.4685 O   0  0  0  0  0  0  0  0  0  0  0  0
   -4.8554  -26.2340   27.9300 O   0  0  0  0  0  0  0  0  0  0  0  0
  1  2  1  0
  2  3  2  0
  4  2  1  0
  4  5  1  0
  6  5  1  0
  6  8  1  0
  6  7  1  1
  8  9  2  0
 11 10  1  1
 11 12  1  0
 11 13  1  0
 13 15  1  0
 13 14  1  1
 14  8  1  0
 15 17  1  0
 16 15  2  0
 17 18  1  0
 18 19  1  6
 20 19  1  0
 21 20  2  0
 22 18  1  0
 23 22  1  0
 24 20  1  0
 25 22  2  0
M  END
$$$$
