QVD.pdb
     RDKit          3D

 25 24  0  0  1  0  0  0  0  0999 V2000
    8.5697  -17.0372   18.6486 N   0  0  0  0  0  0  0  0  0  0  0  0
    7.1695  -17.2997   18.8649 C   0  0  0  0  0  0  0  0  0  0  0  0
    6.5635  -17.7669   17.8765 O   0  0  0  0  0  0  0  0  0  0  0  0
    6.5440  -17.0180   20.1628 C   0  0  0  0  0  0  0  0  0  0  0  0
    7.4615  -16.6296   21.2723 C   0  0  0  0  0  0  0  0  0  0  0  0
    7.1735  -15.2632   21.7722 C   0  0  2  0  0  0  0  0  0  0  0  0
    7.3081  -14.2915   20.7223 N   0  0  0  0  0  0  0  0  0  0  0  0
    8.0498  -14.8445   22.8840 C   0  0  0  0  0  0  0  0  0  0  0  0
    9.3105  -14.8128   22.7404 O   0  0  0  0  0  0  0  0  0  0  0  0
    6.3892  -13.4779   26.6502 C   0  0  0  0  0  0  0  0  0  0  0  0
    7.7120  -13.0400   26.1078 C   0  0  2  0  0  0  0  0  0  0  0  0
    7.4400  -11.7632   25.3074 C   0  0  0  0  0  0  0  0  0  0  0  0
    8.3977  -14.0732   25.2403 C   0  0  2  0  0  0  0  0  0  0  0  0
    7.5090  -14.4723   24.1307 N   0  0  0  0  0  0  0  0  0  0  0  0
    8.8398  -15.2514   26.0041 C   0  0  0  0  0  0  0  0  0  0  0  0
    8.0908  -16.2158   26.2997 O   0  0  0  0  0  0  0  0  0  0  0  0
   10.1965  -15.3834   26.4766 N   0  0  0  0  0  0  0  0  0  0  0  0
   10.5873  -16.5829   27.2583 C   0  0  1  0  0  0  0  0  0  0  0  0
   12.0478  -16.8632   27.0630 C   0  0  0  0  0  0  0  0  0  0  0  0
   12.2829  -17.3883   25.7089 C   0  0  0  0  0  0  0  0  0  0  0  0
   12.7824  -18.5598   25.5450 O   0  0  0  0  0  0  0  0  0  0  0  0
   10.3619  -16.1777   28.6612 C   0  0  0  0  0  0  0  0  0  0  0  0
   10.4089  -17.0637   29.7223 O   0  0  0  0  0  0  0  0  0  0  0  0
   12.0136  -16.7232   24.5217 O   0  0  0  0  0  0  0  0  0  0  0  0
   10.1159  -14.9882   28.9275 O   0  0  0  0  0  0  0  0  0  0  0  0
  1  2  1  0
  2  3  2  0
  4  2  1  0
  4  5  1  0
  6  5  1  0
  6  8  1  0
  6  7  1  6
  8  9  2  0
 11 10  1  6
 11 12  1  0
 11 13  1  0
 13 15  1  0
 13 14  1  6
 14  8  1  0
 15 17  1  0
 16 15  2  0
 17 18  1  0
 18 19  1  1
 20 19  1  0
 21 20  2  0
 22 18  1  0
 23 22  1  0
 24 20  1  0
 25 22  2  0
M  END
$$$$
