QVD.pdb
     RDKit          3D

 25 24  0  0  1  0  0  0  0  0999 V2000
   10.0904  -19.4761   21.8928 N   0  0  0  0  0  0  0  0  0  0  0  0
    8.6819  -19.4682   21.5887 C   0  0  0  0  0  0  0  0  0  0  0  0
    8.1515  -20.5983   21.5257 O   0  0  0  0  0  0  0  0  0  0  0  0
    7.9673  -18.2044   21.3713 C   0  0  0  0  0  0  0  0  0  0  0  0
    8.7952  -16.9641   21.3731 C   0  0  0  0  0  0  0  0  0  0  0  0
    7.9976  -15.7703   21.7452 C   0  0  2  0  0  0  0  0  0  0  0  0
    7.8976  -14.8537   20.6431 N   0  0  0  0  0  0  0  0  0  0  0  0
    8.5485  -15.0274   22.8959 C   0  0  0  0  0  0  0  0  0  0  0  0
    9.8019  -14.8857   23.0372 O   0  0  0  0  0  0  0  0  0  0  0  0
    7.7350  -12.1320   26.8737 C   0  0  0  0  0  0  0  0  0  0  0  0
    7.2217  -12.9308   25.7188 C   0  0  2  0  0  0  0  0  0  0  0  0
    6.0661  -13.7731   26.2666 C   0  0  0  0  0  0  0  0  0  0  0  0
    8.2618  -13.8174   25.0688 C   0  0  2  0  0  0  0  0  0  0  0  0
    7.6976  -14.4602   23.8651 N   0  0  0  0  0  0  0  0  0  0  0  0
    8.8043  -14.8263   25.9932 C   0  0  0  0  0  0  0  0  0  0  0  0
    8.2323  -15.9132   26.2579 O   0  0  0  0  0  0  0  0  0  0  0  0
   10.0609  -14.6324   26.6749 N   0  0  0  0  0  0  0  0  0  0  0  0
   10.6115  -15.7202   27.5212 C   0  0  1  0  0  0  0  0  0  0  0  0
   12.1101  -15.7036   27.4588 C   0  0  0  0  0  0  0  0  0  0  0  0
   12.5564  -15.7751   26.0587 C   0  0  0  0  0  0  0  0  0  0  0  0
   12.0603  -16.6530   25.2637 O   0  0  0  0  0  0  0  0  0  0  0  0
   10.1861  -15.3528   28.8877 C   0  0  0  0  0  0  0  0  0  0  0  0
   10.3392  -16.1887   29.9790 O   0  0  0  0  0  0  0  0  0  0  0  0
   13.5079  -14.9575   25.4666 O   0  0  0  0  0  0  0  0  0  0  0  0
    9.6620  -14.2441   29.0931 O   0  0  0  0  0  0  0  0  0  0  0  0
  1  2  1  0
  2  3  2  0
  4  2  1  0
  4  5  1  0
  6  5  1  0
  6  8  1  0
  6  7  1  6
  8  9  2  0
 11 10  1  1
 11 12  1  0
 11 13  1  0
 13 15  1  0
 13 14  1  6
 14  8  1  0
 15 17  1  0
 16 15  2  0
 17 18  1  0
 18 19  1  1
 20 19  1  0
 21 20  2  0
 22 18  1  0
 23 22  1  0
 24 20  1  0
 25 22  2  0
M  END
$$$$
