QVD.pdb
     RDKit          3D

 25 24  0  0  1  0  0  0  0  0999 V2000
    7.0760  -20.4782   18.6298 N   0  0  0  0  0  0  0  0  0  0  0  0
    8.2180  -20.4145   17.7534 C   0  0  0  0  0  0  0  0  0  0  0  0
    9.0118  -21.3748   17.8537 O   0  0  0  0  0  0  0  0  0  0  0  0
    8.3969  -19.2845   16.8334 C   0  0  0  0  0  0  0  0  0  0  0  0
    7.3451  -18.2280   16.8663 C   0  0  0  0  0  0  0  0  0  0  0  0
    7.8827  -16.9034   16.4712 C   0  0  2  0  0  0  0  0  0  0  0  0
    8.8104  -17.0282   15.3810 N   0  0  0  0  0  0  0  0  0  0  0  0
    8.5737  -16.1959   17.5674 C   0  0  0  0  0  0  0  0  0  0  0  0
    9.8382  -16.2344   17.6694 O   0  0  0  0  0  0  0  0  0  0  0  0
    8.2346  -12.7111   21.1236 C   0  0  0  0  0  0  0  0  0  0  0  0
    7.5876  -13.6863   20.1930 C   0  0  2  0  0  0  0  0  0  0  0  0
    6.5576  -14.4508   21.0295 C   0  0  0  0  0  0  0  0  0  0  0  0
    8.5536  -14.6471   19.5343 C   0  0  2  0  0  0  0  0  0  0  0  0
    7.8471  -15.4635   18.5270 N   0  0  0  0  0  0  0  0  0  0  0  0
    9.2503  -15.5057   20.5060 C   0  0  0  0  0  0  0  0  0  0  0  0
    8.8809  -16.6690   20.8040 O   0  0  0  0  0  0  0  0  0  0  0  0
   10.4343  -15.0600   21.1995 N   0  0  0  0  0  0  0  0  0  0  0  0
   11.1599  -15.9999   22.0900 C   0  0  1  0  0  0  0  0  0  0  0  0
   12.5576  -15.5062   22.3192 C   0  0  0  0  0  0  0  0  0  0  0  0
   13.2792  -16.4319   23.2064 C   0  0  0  0  0  0  0  0  0  0  0  0
   14.1630  -17.2317   22.7290 O   0  0  0  0  0  0  0  0  0  0  0  0
   10.4127  -15.9269   23.3626 C   0  0  0  0  0  0  0  0  0  0  0  0
   10.4679  -16.9131   24.3308 O   0  0  0  0  0  0  0  0  0  0  0  0
   13.1015  -16.5473   24.5774 O   0  0  0  0  0  0  0  0  0  0  0  0
    9.6919  -14.9415   23.5988 O   0  0  0  0  0  0  0  0  0  0  0  0
  1  2  1  0
  2  3  2  0
  4  2  1  0
  4  5  1  0
  6  5  1  0
  6  8  1  0
  6  7  1  6
  8  9  2  0
 11 10  1  1
 11 12  1  0
 11 13  1  0
 13 15  1  0
 13 14  1  6
 14  8  1  0
 15 17  1  0
 16 15  2  0
 17 18  1  0
 18 19  1  1
 20 19  1  0
 21 20  2  0
 22 18  1  0
 23 22  1  0
 24 20  1  0
 25 22  2  0
M  END
$$$$
