QVD.pdb
     RDKit          3D

 25 24  0  0  1  0  0  0  0  0999 V2000
   10.6283  -18.2500   19.1151 N   0  0  0  0  0  0  0  0  0  0  0  0
    9.2572  -17.9875   18.7583 C   0  0  0  0  0  0  0  0  0  0  0  0
    8.8475  -18.6078   17.7535 O   0  0  0  0  0  0  0  0  0  0  0  0
    8.4434  -17.0497   19.5416 C   0  0  0  0  0  0  0  0  0  0  0  0
    9.1025  -16.4259   20.7249 C   0  0  0  0  0  0  0  0  0  0  0  0
    8.1411  -15.6492   21.5448 C   0  0  2  0  0  0  0  0  0  0  0  0
    7.5442  -14.5924   20.7757 N   0  0  0  0  0  0  0  0  0  0  0  0
    8.7463  -15.0408   22.7461 C   0  0  0  0  0  0  0  0  0  0  0  0
   10.0070  -14.9994   22.8878 O   0  0  0  0  0  0  0  0  0  0  0  0
    8.1800  -12.5720   27.0400 C   0  0  0  0  0  0  0  0  0  0  0  0
    7.6195  -13.1194   25.7665 C   0  0  2  0  0  0  0  0  0  0  0  0
    6.3055  -13.8093   26.1440 C   0  0  0  0  0  0  0  0  0  0  0  0
    8.5386  -14.0855   25.0509 C   0  0  2  0  0  0  0  0  0  0  0  0
    7.9404  -14.4939   23.7642 N   0  0  0  0  0  0  0  0  0  0  0  0
    8.8707  -15.2634   25.8689 C   0  0  0  0  0  0  0  0  0  0  0  0
    8.0593  -16.1866   26.1293 O   0  0  0  0  0  0  0  0  0  0  0  0
   10.1828  -15.4437   26.4412 N   0  0  0  0  0  0  0  0  0  0  0  0
   10.4611  -16.6397   27.2747 C   0  0  1  0  0  0  0  0  0  0  0  0
   11.9262  -16.9586   27.2328 C   0  0  0  0  0  0  0  0  0  0  0  0
   12.2472  -17.6885   25.9963 C   0  0  0  0  0  0  0  0  0  0  0  0
   12.5265  -17.0481   24.9189 O   0  0  0  0  0  0  0  0  0  0  0  0
   10.1052  -16.2066   28.6418 C   0  0  0  0  0  0  0  0  0  0  0  0
   10.0131  -14.8781   29.0155 O   0  0  0  0  0  0  0  0  0  0  0  0
   12.2819  -19.0678   25.8530 O   0  0  0  0  0  0  0  0  0  0  0  0
    9.8728  -17.0583   29.5175 O   0  0  0  0  0  0  0  0  0  0  0  0
  1  2  1  0
  2  3  2  0
  4  2  1  0
  4  5  1  0
  6  5  1  0
  6  8  1  0
  6  7  1  6
  8  9  2  0
 11 10  1  1
 11 12  1  0
 11 13  1  0
 13 15  1  0
 13 14  1  6
 14  8  1  0
 15 17  1  0
 16 15  2  0
 17 18  1  0
 18 19  1  1
 20 19  1  0
 21 20  2  0
 22 18  1  0
 23 22  1  0
 24 20  1  0
 25 22  2  0
M  END
$$$$
