QVD.pdb
     RDKit          3D

 25 24  0  0  1  0  0  0  0  0999 V2000
    6.4755  -16.3935   18.0237 N   0  0  0  0  0  0  0  0  0  0  0  0
    7.7985  -15.9275   18.3538 C   0  0  0  0  0  0  0  0  0  0  0  0
    8.2504  -15.0456   17.5920 O   0  0  0  0  0  0  0  0  0  0  0  0
    8.5246  -16.4805   19.5037 C   0  0  0  0  0  0  0  0  0  0  0  0
    8.8861  -15.5202   20.5856 C   0  0  0  0  0  0  0  0  0  0  0  0
    8.4595  -16.0078   21.9198 C   0  0  2  0  0  0  0  0  0  0  0  0
    7.0276  -16.0939   22.0032 N   0  0  0  0  0  0  0  0  0  0  0  0
    8.9219  -15.1575   23.0346 C   0  0  0  0  0  0  0  0  0  0  0  0
   10.1140  -14.7233   23.0688 O   0  0  0  0  0  0  0  0  0  0  0  0
    6.2676  -14.0448   26.3158 C   0  0  0  0  0  0  0  0  0  0  0  0
    7.5341  -13.3295   25.9697 C   0  0  2  0  0  0  0  0  0  0  0  0
    7.1341  -12.1929   25.0245 C   0  0  0  0  0  0  0  0  0  0  0  0
    8.5851  -14.2082   25.3266 C   0  0  2  0  0  0  0  0  0  0  0  0
    8.0527  -14.8094   24.0875 N   0  0  0  0  0  0  0  0  0  0  0  0
    9.0879  -15.2496   26.2375 C   0  0  0  0  0  0  0  0  0  0  0  0
    8.4613  -16.3039   26.5098 O   0  0  0  0  0  0  0  0  0  0  0  0
   10.3661  -15.1287   26.8956 N   0  0  0  0  0  0  0  0  0  0  0  0
   10.8481  -16.2279   27.7686 C   0  0  1  0  0  0  0  0  0  0  0  0
   12.3274  -16.4040   27.5941 C   0  0  0  0  0  0  0  0  0  0  0  0
   12.6462  -16.6025   26.1715 C   0  0  0  0  0  0  0  0  0  0  0  0
   11.9896  -17.4564   25.4726 O   0  0  0  0  0  0  0  0  0  0  0  0
   10.5838  -15.7333   29.1357 C   0  0  0  0  0  0  0  0  0  0  0  0
   10.7815  -16.5000   30.2698 O   0  0  0  0  0  0  0  0  0  0  0  0
   13.6331  -15.9365   25.4596 O   0  0  0  0  0  0  0  0  0  0  0  0
   10.1624  -14.5753   29.3017 O   0  0  0  0  0  0  0  0  0  0  0  0
  1  2  1  0
  2  3  2  0
  4  2  1  0
  4  5  1  0
  6  5  1  0
  6  8  1  0
  6  7  1  6
  8  9  2  0
 11 10  1  6
 11 12  1  0
 11 13  1  0
 13 15  1  0
 13 14  1  6
 14  8  1  0
 15 17  1  0
 16 15  2  0
 17 18  1  0
 18 19  1  1
 20 19  1  0
 21 20  2  0
 22 18  1  0
 23 22  1  0
 24 20  1  0
 25 22  2  0
M  END
$$$$
