PPP.pdb
     RDKit          3D

 22 24  0  0  1  0  0  0  0  0999 V2000
   29.2681  -20.8222  -18.4145 N   0  0  0  0  0  0  0  0  0  0  0  0
   28.9459  -20.8628  -19.8623 C   0  0  0  0  0  0  0  0  0  0  0  0
   27.4393  -20.8788  -19.9473 C   0  0  0  0  0  0  0  0  0  0  0  0
   27.0043  -20.8444  -18.4979 C   0  0  0  0  0  0  0  0  0  0  0  0
   28.1566  -20.0792  -17.8680 C   0  0  1  0  0  0  0  0  0  0  0  0
   28.0906  -19.8626  -16.4547 C   0  0  0  0  0  0  0  0  0  0  0  0
   28.8101  -20.6363  -15.6886 O   0  0  0  0  0  0  0  0  0  0  0  0
   27.3127  -18.8860  -15.8168 N   0  0  0  0  0  0  0  0  0  0  0  0
   26.6024  -17.7389  -16.3128 C   0  0  0  0  0  0  0  0  0  0  0  0
   26.9994  -16.7074  -15.2388 C   0  0  0  0  0  0  0  0  0  0  0  0
   26.7051  -17.5059  -13.9923 C   0  0  0  0  0  0  0  0  0  0  0  0
   27.0935  -18.9001  -14.3399 C   0  0  1  0  0  0  0  0  0  0  0  0
   26.0456  -19.8964  -14.0408 C   0  0  0  0  0  0  0  0  0  0  0  0
   25.4780  -20.4797  -14.9919 O   0  0  0  0  0  0  0  0  0  0  0  0
   25.6557  -20.2198  -12.7267 N   0  0  0  0  0  0  0  0  0  0  0  0
   26.1339  -19.5323  -11.5443 C   0  0  0  0  0  0  0  0  0  0  0  0
   25.7168  -20.3545  -10.3573 C   0  0  0  0  0  0  0  0  0  0  0  0
   25.4197  -21.7069  -11.0014 C   0  0  0  0  0  0  0  0  0  0  0  0
   24.7428  -21.2512  -12.2797 C   0  0  1  0  0  0  0  0  0  0  0  0
   23.4290  -20.6618  -11.8902 C   0  0  0  0  0  0  0  0  0  0  0  0
   23.2331  -19.4440  -11.7225 O   0  0  0  0  0  0  0  0  0  0  0  0
   22.3527  -21.5170  -11.7008 O   0  0  0  0  0  0  0  0  0  0  0  0
  1  2  1  0
  3  2  1  0
  4  3  1  0
  4  5  1  0
  5  1  1  0
  6  8  1  0
  5  6  1  1
  7  6  2  0
  8  9  1  0
 10  9  1  0
 11 10  1  0
 11 12  1  0
 12  8  1  0
 12 13  1  6
 13 15  1  0
 14 13  2  0
 15 19  1  0
 15 16  1  0
 16 17  1  0
 18 17  1  0
 19 20  1  1
 19 18  1  0
 20 22  1  0
 21 20  2  0
M  END
$$$$
