PPP.pdb
     RDKit          3D

 22 24  0  0  1  0  0  0  0  0999 V2000
   28.0563  -20.2436  -17.6432 N   0  0  0  0  0  0  0  0  0  0  0  0
   28.4338  -19.0516  -18.4421 C   0  0  0  0  0  0  0  0  0  0  0  0
   27.9050  -17.8618  -17.6791 C   0  0  0  0  0  0  0  0  0  0  0  0
   27.2471  -18.4848  -16.4667 C   0  0  0  0  0  0  0  0  0  0  0  0
   28.0906  -19.7370  -16.2911 C   0  0  1  0  0  0  0  0  0  0  0  0
   27.7358  -20.6072  -15.2116 C   0  0  0  0  0  0  0  0  0  0  0  0
   27.1845  -21.7516  -15.5114 O   0  0  0  0  0  0  0  0  0  0  0  0
   27.9280  -20.3344  -13.8498 N   0  0  0  0  0  0  0  0  0  0  0  0
   28.8314  -19.4565  -13.1571 C   0  0  0  0  0  0  0  0  0  0  0  0
   29.2743  -20.3929  -12.0160 C   0  0  0  0  0  0  0  0  0  0  0  0
   27.9265  -20.8850  -11.5477 C   0  0  0  0  0  0  0  0  0  0  0  0
   27.1212  -21.0134  -12.7928 C   0  0  1  0  0  0  0  0  0  0  0  0
   25.8072  -20.3440  -12.7172 C   0  0  0  0  0  0  0  0  0  0  0  0
   25.6607  -19.2364  -13.2816 O   0  0  0  0  0  0  0  0  0  0  0  0
   24.7079  -20.9001  -12.0349 N   0  0  0  0  0  0  0  0  0  0  0  0
   24.8060  -21.9946  -11.0906 C   0  0  0  0  0  0  0  0  0  0  0  0
   23.4062  -22.4697  -10.8191 C   0  0  0  0  0  0  0  0  0  0  0  0
   22.6417  -21.8870  -12.0058 C   0  0  0  0  0  0  0  0  0  0  0  0
   23.3101  -20.5300  -12.1140 C   0  0  1  0  0  0  0  0  0  0  0  0
   22.9017  -19.7466  -10.9120 C   0  0  0  0  0  0  0  0  0  0  0  0
   23.5812  -19.6591   -9.8727 O   0  0  0  0  0  0  0  0  0  0  0  0
   21.6905  -19.0701  -10.9459 O   0  0  0  0  0  0  0  0  0  0  0  0
  1  2  1  0
  3  2  1  0
  4  3  1  0
  4  5  1  0
  5  1  1  0
  6  8  1  0
  5  6  1  1
  7  6  2  0
  8  9  1  0
 10  9  1  0
 11 10  1  0
 11 12  1  0
 12  8  1  0
 12 13  1  1
 13 15  1  0
 14 13  2  0
 15 19  1  0
 15 16  1  0
 16 17  1  0
 18 17  1  0
 19 20  1  1
 19 18  1  0
 20 22  1  0
 21 20  2  0
M  END
$$$$
