PPP.pdb
     RDKit          3D

 22 24  0  0  1  0  0  0  0  0999 V2000
   26.0279  -21.7061  -12.2013 N   0  0  0  0  0  0  0  0  0  0  0  0
   25.2232  -20.9414  -13.1859 C   0  0  0  0  0  0  0  0  0  0  0  0
   24.2370  -20.1376  -12.3743 C   0  0  0  0  0  0  0  0  0  0  0  0
   24.5648  -20.5163  -10.9459 C   0  0  0  0  0  0  0  0  0  0  0  0
   26.0496  -20.8205  -11.0606 C   0  0  1  0  0  0  0  0  0  0  0  0
   26.7160  -21.2397   -9.8653 C   0  0  0  0  0  0  0  0  0  0  0  0
   25.9937  -21.7974   -8.9323 O   0  0  0  0  0  0  0  0  0  0  0  0
   28.0869  -21.1001   -9.6064 N   0  0  0  0  0  0  0  0  0  0  0  0
   29.1891  -20.6822  -10.4292 C   0  0  0  0  0  0  0  0  0  0  0  0
   30.2296  -21.7437  -10.0222 C   0  0  0  0  0  0  0  0  0  0  0  0
   30.1152  -21.6551   -8.5198 C   0  0  0  0  0  0  0  0  0  0  0  0
   28.6679  -21.4159   -8.2678 C   0  0  1  0  0  0  0  0  0  0  0  0
   28.4064  -20.2715   -7.3722 C   0  0  0  0  0  0  0  0  0  0  0  0
   27.9184  -19.2253   -7.8563 O   0  0  0  0  0  0  0  0  0  0  0  0
   28.6833  -20.3063   -5.9918 N   0  0  0  0  0  0  0  0  0  0  0  0
   29.1926  -21.4695   -5.2939 C   0  0  0  0  0  0  0  0  0  0  0  0
   29.0729  -21.1883   -3.8223 C   0  0  0  0  0  0  0  0  0  0  0  0
   28.0631  -20.0427   -3.8032 C   0  0  0  0  0  0  0  0  0  0  0  0
   28.5323  -19.2528   -5.0098 C   0  0  1  0  0  0  0  0  0  0  0  0
   29.8572  -18.6651   -4.6569 C   0  0  0  0  0  0  0  0  0  0  0  0
   30.9353  -19.0171   -5.1702 O   0  0  0  0  0  0  0  0  0  0  0  0
   29.8999  -17.6632   -3.6978 O   0  0  0  0  0  0  0  0  0  0  0  0
  1  2  1  0
  3  2  1  0
  4  3  1  0
  4  5  1  0
  5  1  1  0
  6  8  1  0
  5  6  1  1
  7  6  2  0
  8  9  1  0
 10  9  1  0
 11 10  1  0
 11 12  1  0
 12  8  1  0
 12 13  1  1
 13 15  1  0
 14 13  2  0
 15 19  1  0
 15 16  1  0
 16 17  1  0
 18 17  1  0
 19 20  1  1
 19 18  1  0
 20 22  1  0
 21 20  2  0
M  END
$$$$
