PPP.pdb
     RDKit          3D

 22 24  0  0  1  0  0  0  0  0999 V2000
   24.4473  -21.6331  -11.3470 N   0  0  0  0  0  0  0  0  0  0  0  0
   23.9205  -20.9098  -12.5306 C   0  0  0  0  0  0  0  0  0  0  0  0
   24.5471  -19.5377  -12.4856 C   0  0  0  0  0  0  0  0  0  0  0  0
   25.4098  -19.5849  -11.2428 C   0  0  0  0  0  0  0  0  0  0  0  0
   25.7649  -21.0619  -11.1929 C   0  0  1  0  0  0  0  0  0  0  0  0
   26.5874  -21.4908  -10.1029 C   0  0  0  0  0  0  0  0  0  0  0  0
   26.0401  -22.2488   -9.1922 O   0  0  0  0  0  0  0  0  0  0  0  0
   27.9391  -21.1632   -9.9256 N   0  0  0  0  0  0  0  0  0  0  0  0
   28.9318  -20.6344  -10.8207 C   0  0  0  0  0  0  0  0  0  0  0  0
   30.1239  -21.5346  -10.4421 C   0  0  0  0  0  0  0  0  0  0  0  0
   30.0767  -21.4074   -8.9389 C   0  0  0  0  0  0  0  0  0  0  0  0
   28.6255  -21.3513   -8.6130 C   0  0  1  0  0  0  0  0  0  0  0  0
   28.2608  -20.2194   -7.7378 C   0  0  0  0  0  0  0  0  0  0  0  0
   27.6233  -19.2594   -8.2266 O   0  0  0  0  0  0  0  0  0  0  0  0
   28.6005  -20.1732   -6.3719 N   0  0  0  0  0  0  0  0  0  0  0  0
   29.3938  -21.1804   -5.6968 C   0  0  0  0  0  0  0  0  0  0  0  0
   29.2795  -20.9161   -4.2217 C   0  0  0  0  0  0  0  0  0  0  0  0
   28.0362  -20.0317   -4.1570 C   0  0  0  0  0  0  0  0  0  0  0  0
   28.2569  -19.1702   -5.3854 C   0  0  1  0  0  0  0  0  0  0  0  0
   29.4265  -18.2908   -5.0959 C   0  0  0  0  0  0  0  0  0  0  0  0
   29.3885  -17.3087   -4.3319 O   0  0  0  0  0  0  0  0  0  0  0  0
   30.6361  -18.5780   -5.7123 O   0  0  0  0  0  0  0  0  0  0  0  0
  1  2  1  0
  3  2  1  0
  4  3  1  0
  4  5  1  0
  5  1  1  0
  6  8  1  0
  5  6  1  1
  7  6  2  0
  8  9  1  0
 10  9  1  0
 11 10  1  0
 11 12  1  0
 12  8  1  0
 12 13  1  1
 13 15  1  0
 14 13  2  0
 15 19  1  0
 15 16  1  0
 16 17  1  0
 18 17  1  0
 19 20  1  1
 19 18  1  0
 20 22  1  0
 21 20  2  0
M  END
$$$$
