PPP.pdb
     RDKit          3D

 22 24  0  0  1  0  0  0  0  0999 V2000
   19.2388  -13.0492  -15.7554 N   0  0  0  0  0  0  0  0  0  0  0  0
   17.9787  -13.8245  -15.8683 C   0  0  0  0  0  0  0  0  0  0  0  0
   16.8634  -12.8156  -15.7442 C   0  0  0  0  0  0  0  0  0  0  0  0
   17.5945  -11.5024  -15.5651 C   0  0  0  0  0  0  0  0  0  0  0  0
   18.8758  -11.7772  -16.3353 C   0  0  1  0  0  0  0  0  0  0  0  0
   19.8454  -10.7249  -16.3701 C   0  0  0  0  0  0  0  0  0  0  0  0
   20.8499  -10.7986  -15.5401 O   0  0  0  0  0  0  0  0  0  0  0  0
   19.8084   -9.6124  -17.2226 N   0  0  0  0  0  0  0  0  0  0  0  0
   19.0336   -9.3192  -18.3974 C   0  0  0  0  0  0  0  0  0  0  0  0
   20.1388   -8.7238  -19.2913 C   0  0  0  0  0  0  0  0  0  0  0  0
   20.7532   -7.7420  -18.3235 C   0  0  0  0  0  0  0  0  0  0  0  0
   20.6904   -8.4277  -17.0038 C   0  0  1  0  0  0  0  0  0  0  0  0
   20.0920   -7.6005  -15.9372 C   0  0  0  0  0  0  0  0  0  0  0  0
   18.9156   -7.8353  -15.5794 O   0  0  0  0  0  0  0  0  0  0  0  0
   20.7901   -6.5548  -15.3027 N   0  0  0  0  0  0  0  0  0  0  0  0
   22.1236   -6.1257  -15.6728 C   0  0  0  0  0  0  0  0  0  0  0  0
   22.6085   -5.2068  -14.5867 C   0  0  0  0  0  0  0  0  0  0  0  0
   21.6641   -5.5537  -13.4378 C   0  0  0  0  0  0  0  0  0  0  0  0
   20.3638   -5.7175  -14.2008 C   0  0  1  0  0  0  0  0  0  0  0  0
   19.9710   -4.3631  -14.6872 C   0  0  0  0  0  0  0  0  0  0  0  0
   20.1913   -3.9445  -15.8387 O   0  0  0  0  0  0  0  0  0  0  0  0
   19.3191   -3.5100  -13.8080 O   0  0  0  0  0  0  0  0  0  0  0  0
  1  2  1  0
  3  2  1  0
  4  3  1  0
  4  5  1  0
  5  1  1  0
  6  8  1  0
  5  6  1  1
  7  6  2  0
  8  9  1  0
 10  9  1  0
 11 10  1  0
 11 12  1  0
 12  8  1  0
 12 13  1  1
 13 15  1  0
 14 13  2  0
 15 19  1  0
 15 16  1  0
 16 17  1  0
 18 17  1  0
 19 20  1  6
 19 18  1  0
 20 22  1  0
 21 20  2  0
M  END
$$$$
