PPP.pdb
     RDKit          3D

 22 24  0  0  1  0  0  0  0  0999 V2000
   23.6149  -21.4920  -11.4947 N   0  0  0  0  0  0  0  0  0  0  0  0
   23.1414  -20.8355  -12.7382 C   0  0  0  0  0  0  0  0  0  0  0  0
   23.8937  -19.5302  -12.8255 C   0  0  0  0  0  0  0  0  0  0  0  0
   24.7653  -19.5426  -11.5881 C   0  0  0  0  0  0  0  0  0  0  0  0
   24.9820  -21.0354  -11.4016 C   0  0  1  0  0  0  0  0  0  0  0  0
   25.7759  -21.4365  -10.2803 C   0  0  0  0  0  0  0  0  0  0  0  0
   25.1706  -22.0388   -9.2933 O   0  0  0  0  0  0  0  0  0  0  0  0
   27.1572  -21.2350  -10.1477 N   0  0  0  0  0  0  0  0  0  0  0  0
   28.1692  -20.8251  -11.0827 C   0  0  0  0  0  0  0  0  0  0  0  0
   29.2812  -21.8254  -10.7119 C   0  0  0  0  0  0  0  0  0  0  0  0
   29.2898  -21.6580   -9.2119 C   0  0  0  0  0  0  0  0  0  0  0  0
   27.8604  -21.4559   -8.8492 C   0  0  1  0  0  0  0  0  0  0  0  0
   27.6299  -20.2735   -7.9954 C   0  0  0  0  0  0  0  0  0  0  0  0
   27.0310  -19.2867   -8.4796 O   0  0  0  0  0  0  0  0  0  0  0  0
   28.0564  -20.2080   -6.6548 N   0  0  0  0  0  0  0  0  0  0  0  0
   28.7345  -21.2860   -5.9637 C   0  0  0  0  0  0  0  0  0  0  0  0
   28.7512  -20.9318   -4.5032 C   0  0  0  0  0  0  0  0  0  0  0  0
   27.6565  -19.8698   -4.4255 C   0  0  0  0  0  0  0  0  0  0  0  0
   27.9242  -19.1154   -5.7136 C   0  0  1  0  0  0  0  0  0  0  0  0
   29.2252  -18.4064   -5.5404 C   0  0  0  0  0  0  0  0  0  0  0  0
   30.2770  -18.7265   -6.1241 O   0  0  0  0  0  0  0  0  0  0  0  0
   29.2751  -17.3213   -4.6769 O   0  0  0  0  0  0  0  0  0  0  0  0
  1  2  1  0
  3  2  1  0
  4  3  1  0
  4  5  1  0
  5  1  1  0
  6  8  1  0
  5  6  1  1
  7  6  2  0
  8  9  1  0
 10  9  1  0
 11 10  1  0
 11 12  1  0
 12  8  1  0
 12 13  1  1
 13 15  1  0
 14 13  2  0
 15 19  1  0
 15 16  1  0
 16 17  1  0
 18 17  1  0
 19 20  1  1
 19 18  1  0
 20 22  1  0
 21 20  2  0
M  END
$$$$
