PPP.pdb
     RDKit          3D

 22 24  0  0  1  0  0  0  0  0999 V2000
   24.5544  -21.6935  -11.6139 N   0  0  0  0  0  0  0  0  0  0  0  0
   24.0295  -20.8924  -12.7472 C   0  0  0  0  0  0  0  0  0  0  0  0
   24.5319  -19.4870  -12.5240 C   0  0  0  0  0  0  0  0  0  0  0  0
   25.3294  -19.5974  -11.2422 C   0  0  0  0  0  0  0  0  0  0  0  0
   25.8079  -21.0379  -11.3222 C   0  0  1  0  0  0  0  0  0  0  0  0
   26.6064  -21.5134  -10.2337 C   0  0  0  0  0  0  0  0  0  0  0  0
   26.0381  -22.3051   -9.3655 O   0  0  0  0  0  0  0  0  0  0  0  0
   27.9552  -21.1984  -10.0157 N   0  0  0  0  0  0  0  0  0  0  0  0
   28.9687  -20.6415  -10.8695 C   0  0  0  0  0  0  0  0  0  0  0  0
   30.1492  -21.5603  -10.4991 C   0  0  0  0  0  0  0  0  0  0  0  0
   30.0703  -21.4882   -8.9935 C   0  0  0  0  0  0  0  0  0  0  0  0
   28.6126  -21.4377   -8.6967 C   0  0  1  0  0  0  0  0  0  0  0  0
   28.2334  -20.3371   -7.7883 C   0  0  0  0  0  0  0  0  0  0  0  0
   27.5683  -19.3798   -8.2446 O   0  0  0  0  0  0  0  0  0  0  0  0
   28.5889  -20.3180   -6.4258 N   0  0  0  0  0  0  0  0  0  0  0  0
   29.3805  -21.3440   -5.7776 C   0  0  0  0  0  0  0  0  0  0  0  0
   29.2854  -21.1047   -4.2968 C   0  0  0  0  0  0  0  0  0  0  0  0
   28.0510  -20.2105   -4.2025 C   0  0  0  0  0  0  0  0  0  0  0  0
   28.2657  -19.3295   -5.4181 C   0  0  1  0  0  0  0  0  0  0  0  0
   29.4466  -18.4659   -5.1267 C   0  0  0  0  0  0  0  0  0  0  0  0
   30.5602  -18.6019   -5.6660 O   0  0  0  0  0  0  0  0  0  0  0  0
   29.3037  -17.4449   -4.1978 O   0  0  0  0  0  0  0  0  0  0  0  0
  1  2  1  0
  3  2  1  0
  4  3  1  0
  4  5  1  0
  5  1  1  0
  6  8  1  0
  5  6  1  1
  7  6  2  0
  8  9  1  0
 10  9  1  0
 11 10  1  0
 11 12  1  0
 12  8  1  0
 12 13  1  1
 13 15  1  0
 14 13  2  0
 15 19  1  0
 15 16  1  0
 16 17  1  0
 18 17  1  0
 19 20  1  1
 19 18  1  0
 20 22  1  0
 21 20  2  0
M  END
$$$$
