PPP.pdb
     RDKit          3D

 22 24  0  0  1  0  0  0  0  0999 V2000
   19.4530  -12.4499  -17.2212 N   0  0  0  0  0  0  0  0  0  0  0  0
   19.4074  -13.2145  -18.4920 C   0  0  0  0  0  0  0  0  0  0  0  0
   20.1756  -12.3895  -19.4953 C   0  0  0  0  0  0  0  0  0  0  0  0
   20.6143  -11.1814  -18.6958 C   0  0  0  0  0  0  0  0  0  0  0  0
   20.7308  -11.7819  -17.3044 C   0  0  1  0  0  0  0  0  0  0  0  0
   21.1243  -10.8964  -16.2510 C   0  0  0  0  0  0  0  0  0  0  0  0
   20.2079  -10.5202  -15.4012 O   0  0  0  0  0  0  0  0  0  0  0  0
   22.4175  -10.3922  -16.0523 N   0  0  0  0  0  0  0  0  0  0  0  0
   23.6972  -10.7750  -16.5836 C   0  0  0  0  0  0  0  0  0  0  0  0
   24.5412  -10.7027  -15.2962 C   0  0  0  0  0  0  0  0  0  0  0  0
   24.1226   -9.3442  -14.7887 C   0  0  0  0  0  0  0  0  0  0  0  0
   22.6785   -9.2436  -15.1349 C   0  0  1  0  0  0  0  0  0  0  0  0
   22.3280   -7.9984  -15.8469 C   0  0  0  0  0  0  0  0  0  0  0  0
   22.1564   -8.0395  -17.0862 O   0  0  0  0  0  0  0  0  0  0  0  0
   22.1778   -6.7621  -15.1894 N   0  0  0  0  0  0  0  0  0  0  0  0
   22.3632   -6.5709  -13.7652 C   0  0  0  0  0  0  0  0  0  0  0  0
   21.8334   -5.2047  -13.4310 C   0  0  0  0  0  0  0  0  0  0  0  0
   20.9572   -4.9027  -14.6448 C   0  0  0  0  0  0  0  0  0  0  0  0
   21.8249   -5.4742  -15.7495 C   0  0  1  0  0  0  0  0  0  0  0  0
   23.0266   -4.5970  -15.8569 C   0  0  0  0  0  0  0  0  0  0  0  0
   24.0810   -4.7775  -15.2203 O   0  0  0  0  0  0  0  0  0  0  0  0
   22.9748   -3.5098  -16.7177 O   0  0  0  0  0  0  0  0  0  0  0  0
  1  2  1  0
  3  2  1  0
  4  3  1  0
  4  5  1  0
  5  1  1  0
  6  8  1  0
  5  6  1  1
  7  6  2  0
  8  9  1  0
 10  9  1  0
 11 10  1  0
 11 12  1  0
 12  8  1  0
 12 13  1  6
 13 15  1  0
 14 13  2  0
 15 19  1  0
 15 16  1  0
 16 17  1  0
 18 17  1  0
 19 20  1  1
 19 18  1  0
 20 22  1  0
 21 20  2  0
M  END
$$$$
