PPP.pdb
     RDKit          3D

 22 24  0  0  1  0  0  0  0  0999 V2000
   26.0958  -22.1688  -12.4309 N   0  0  0  0  0  0  0  0  0  0  0  0
   24.9124  -22.0629  -13.3197 C   0  0  0  0  0  0  0  0  0  0  0  0
   23.8190  -21.4540  -12.4766 C   0  0  0  0  0  0  0  0  0  0  0  0
   24.4824  -21.2525  -11.1311 C   0  0  0  0  0  0  0  0  0  0  0  0
   25.9273  -21.0364  -11.5503 C   0  0  1  0  0  0  0  0  0  0  0  0
   26.8776  -20.8214  -10.5019 C   0  0  0  0  0  0  0  0  0  0  0  0
   27.6896  -21.8004  -10.2094 O   0  0  0  0  0  0  0  0  0  0  0  0
   27.0115  -19.6427   -9.7543 N   0  0  0  0  0  0  0  0  0  0  0  0
   26.3825  -18.3543   -9.8585 C   0  0  0  0  0  0  0  0  0  0  0  0
   27.6138  -17.4506   -9.6530 C   0  0  0  0  0  0  0  0  0  0  0  0
   28.2023  -18.0921   -8.4201 C   0  0  0  0  0  0  0  0  0  0  0  0
   27.9558  -19.5487   -8.6016 C   0  0  1  0  0  0  0  0  0  0  0  0
   27.3194  -20.1894   -7.4333 C   0  0  0  0  0  0  0  0  0  0  0  0
   26.2008  -20.7324   -7.5775 O   0  0  0  0  0  0  0  0  0  0  0  0
   27.9189  -20.2158   -6.1593 N   0  0  0  0  0  0  0  0  0  0  0  0
   29.1529  -19.5330   -5.8270 C   0  0  0  0  0  0  0  0  0  0  0  0
   29.5918  -20.0443   -4.4836 C   0  0  0  0  0  0  0  0  0  0  0  0
   28.7896  -21.3381   -4.3631 C   0  0  0  0  0  0  0  0  0  0  0  0
   27.4690  -20.8903   -4.9593 C   0  0  1  0  0  0  0  0  0  0  0  0
   26.8661  -19.9188   -4.0013 C   0  0  0  0  0  0  0  0  0  0  0  0
   26.2739  -20.2459   -2.9563 O   0  0  0  0  0  0  0  0  0  0  0  0
   26.9668  -18.5641   -4.2846 O   0  0  0  0  0  0  0  0  0  0  0  0
  1  2  1  0
  3  2  1  0
  4  3  1  0
  4  5  1  0
  5  1  1  0
  6  8  1  0
  5  6  1  1
  7  6  2  0
  8  9  1  0
 10  9  1  0
 11 10  1  0
 11 12  1  0
 12  8  1  0
 12 13  1  1
 13 15  1  0
 14 13  2  0
 15 19  1  0
 15 16  1  0
 16 17  1  0
 18 17  1  0
 19 20  1  1
 19 18  1  0
 20 22  1  0
 21 20  2  0
M  END
$$$$
