PPP.pdb
     RDKit          3D

 22 24  0  0  1  0  0  0  0  0999 V2000
   27.5599  -21.5178  -10.8427 N   0  0  0  0  0  0  0  0  0  0  0  0
   26.6910  -21.0304  -11.9423 C   0  0  0  0  0  0  0  0  0  0  0  0
   25.4965  -20.3973  -11.2718 C   0  0  0  0  0  0  0  0  0  0  0  0
   25.7842  -20.5768   -9.7967 C   0  0  0  0  0  0  0  0  0  0  0  0
   27.3041  -20.5582   -9.7939 C   0  0  1  0  0  0  0  0  0  0  0  0
   27.9486  -20.7225   -8.5266 C   0  0  0  0  0  0  0  0  0  0  0  0
   28.5751  -21.8460   -8.3062 O   0  0  0  0  0  0  0  0  0  0  0  0
   27.9635  -19.7756   -7.4926 N   0  0  0  0  0  0  0  0  0  0  0  0
   27.7062  -18.3614   -7.4721 C   0  0  0  0  0  0  0  0  0  0  0  0
   28.8692  -17.9022   -6.5713 C   0  0  0  0  0  0  0  0  0  0  0  0
   28.7183  -18.8833   -5.4342 C   0  0  0  0  0  0  0  0  0  0  0  0
   28.3016  -20.1537   -6.0883 C   0  0  1  0  0  0  0  0  0  0  0  0
   27.1055  -20.7671   -5.4774 C   0  0  0  0  0  0  0  0  0  0  0  0
   26.0567  -20.8509   -6.1557 O   0  0  0  0  0  0  0  0  0  0  0  0
   27.0936  -21.2636   -4.1596 N   0  0  0  0  0  0  0  0  0  0  0  0
   28.1185  -20.9814   -3.1751 C   0  0  0  0  0  0  0  0  0  0  0  0
   27.8905  -21.9163   -2.0207 C   0  0  0  0  0  0  0  0  0  0  0  0
   27.0058  -22.9875   -2.6547 C   0  0  0  0  0  0  0  0  0  0  0  0
   26.1146  -22.1191   -3.5217 C   0  0  1  0  0  0  0  0  0  0  0  0
   25.2447  -21.3319   -2.6005 C   0  0  0  0  0  0  0  0  0  0  0  0
   24.2446  -21.7938   -2.0208 O   0  0  0  0  0  0  0  0  0  0  0  0
   25.5627  -20.0010   -2.3697 O   0  0  0  0  0  0  0  0  0  0  0  0
  1  2  1  0
  3  2  1  0
  4  3  1  0
  4  5  1  0
  5  1  1  0
  6  8  1  0
  5  6  1  1
  7  6  2  0
  8  9  1  0
 10  9  1  0
 11 10  1  0
 11 12  1  0
 12  8  1  0
 12 13  1  1
 13 15  1  0
 14 13  2  0
 15 19  1  0
 15 16  1  0
 16 17  1  0
 18 17  1  0
 19 20  1  1
 19 18  1  0
 20 22  1  0
 21 20  2  0
M  END
$$$$
