PPP.pdb
     RDKit          3D

 22 24  0  0  1  0  0  0  0  0999 V2000
   24.6488  -21.9068  -11.8709 N   0  0  0  0  0  0  0  0  0  0  0  0
   23.9356  -21.0174  -12.8205 C   0  0  0  0  0  0  0  0  0  0  0  0
   24.0233  -19.6315  -12.2298 C   0  0  0  0  0  0  0  0  0  0  0  0
   24.8038  -19.8427  -10.9503 C   0  0  0  0  0  0  0  0  0  0  0  0
   25.6659  -21.0352  -11.3305 C   0  0  1  0  0  0  0  0  0  0  0  0
   26.5516  -21.5374  -10.3246 C   0  0  0  0  0  0  0  0  0  0  0  0
   26.1011  -22.4707   -9.5313 O   0  0  0  0  0  0  0  0  0  0  0  0
   27.8700  -21.1091  -10.1140 N   0  0  0  0  0  0  0  0  0  0  0  0
   28.8081  -20.4163  -10.9545 C   0  0  0  0  0  0  0  0  0  0  0  0
   30.0767  -21.2384  -10.6548 C   0  0  0  0  0  0  0  0  0  0  0  0
   30.0255  -21.2518   -9.1464 C   0  0  0  0  0  0  0  0  0  0  0  0
   28.5765  -21.3535   -8.8215 C   0  0  1  0  0  0  0  0  0  0  0  0
   28.1176  -20.3417   -7.8490 C   0  0  0  0  0  0  0  0  0  0  0  0
   27.3371  -19.4427   -8.2360 O   0  0  0  0  0  0  0  0  0  0  0  0
   28.5215  -20.3444   -6.4999 N   0  0  0  0  0  0  0  0  0  0  0  0
   29.4515  -21.2992   -5.9316 C   0  0  0  0  0  0  0  0  0  0  0  0
   29.3873  -21.1422   -4.4382 C   0  0  0  0  0  0  0  0  0  0  0  0
   28.0621  -20.4049   -4.2573 C   0  0  0  0  0  0  0  0  0  0  0  0
   28.1254  -19.4490   -5.4329 C   0  0  1  0  0  0  0  0  0  0  0  0
   29.2085  -18.4668   -5.1375 C   0  0  0  0  0  0  0  0  0  0  0  0
   29.1223  -17.5713   -4.2771 O   0  0  0  0  0  0  0  0  0  0  0  0
   30.3891  -18.5491   -5.8620 O   0  0  0  0  0  0  0  0  0  0  0  0
  1  2  1  0
  3  2  1  0
  4  3  1  0
  4  5  1  0
  5  1  1  0
  6  8  1  0
  5  6  1  1
  7  6  2  0
  8  9  1  0
 10  9  1  0
 11 10  1  0
 11 12  1  0
 12  8  1  0
 12 13  1  1
 13 15  1  0
 14 13  2  0
 15 19  1  0
 15 16  1  0
 16 17  1  0
 18 17  1  0
 19 20  1  1
 19 18  1  0
 20 22  1  0
 21 20  2  0
M  END
$$$$
