PPP.pdb
     RDKit          3D

 22 24  0  0  1  0  0  0  0  0999 V2000
   25.6160  -18.4000  -16.0050 N   0  0  0  0  0  0  0  0  0  0  0  0
   26.0311  -17.1945  -16.7639 C   0  0  0  0  0  0  0  0  0  0  0  0
   26.8354  -16.3585  -15.7986 C   0  0  0  0  0  0  0  0  0  0  0  0
   26.8174  -17.1760  -14.5249 C   0  0  0  0  0  0  0  0  0  0  0  0
   26.7152  -18.5846  -15.0865 C   0  0  1  0  0  0  0  0  0  0  0  0
   26.6583  -19.6545  -14.1374 C   0  0  0  0  0  0  0  0  0  0  0  0
   25.5262  -20.2911  -14.0087 O   0  0  0  0  0  0  0  0  0  0  0  0
   27.7198  -20.0798  -13.3261 N   0  0  0  0  0  0  0  0  0  0  0  0
   29.1433  -19.9062  -13.4258 C   0  0  0  0  0  0  0  0  0  0  0  0
   29.6013  -21.3334  -13.0677 C   0  0  0  0  0  0  0  0  0  0  0  0
   28.7856  -21.5608  -11.8183 C   0  0  0  0  0  0  0  0  0  0  0  0
   27.4879  -20.8842  -12.0898 C   0  0  1  0  0  0  0  0  0  0  0  0
   27.0667  -19.9634  -11.0152 C   0  0  0  0  0  0  0  0  0  0  0  0
   27.1822  -18.7302  -11.1971 O   0  0  0  0  0  0  0  0  0  0  0  0
   26.5386  -20.4142   -9.7900 N   0  0  0  0  0  0  0  0  0  0  0  0
   26.3668  -21.8106   -9.4434 C   0  0  0  0  0  0  0  0  0  0  0  0
   25.5212  -21.8559   -8.2017 C   0  0  0  0  0  0  0  0  0  0  0  0
   24.8904  -20.4651   -8.2010 C   0  0  0  0  0  0  0  0  0  0  0  0
   26.0731  -19.6350   -8.6616 C   0  0  1  0  0  0  0  0  0  0  0  0
   27.0750  -19.6541   -7.5566 C   0  0  0  0  0  0  0  0  0  0  0  0
   28.0318  -20.4481   -7.4962 O   0  0  0  0  0  0  0  0  0  0  0  0
   26.9396  -18.7329   -6.5277 O   0  0  0  0  0  0  0  0  0  0  0  0
  1  2  1  0
  3  2  1  0
  4  3  1  0
  4  5  1  0
  5  1  1  0
  6  8  1  0
  5  6  1  1
  7  6  2  0
  8  9  1  0
 10  9  1  0
 11 10  1  0
 11 12  1  0
 12  8  1  0
 12 13  1  1
 13 15  1  0
 14 13  2  0
 15 19  1  0
 15 16  1  0
 16 17  1  0
 18 17  1  0
 19 20  1  1
 19 18  1  0
 20 22  1  0
 21 20  2  0
M  END
$$$$
