PPP.pdb
     RDKit          3D

 22 24  0  0  1  0  0  0  0  0999 V2000
   24.8114  -21.8669  -17.6818 N   0  0  0  0  0  0  0  0  0  0  0  0
   24.0594  -21.1160  -18.7173 C   0  0  0  0  0  0  0  0  0  0  0  0
   23.4219  -19.9522  -17.9987 C   0  0  0  0  0  0  0  0  0  0  0  0
   23.8730  -20.1334  -16.5652 C   0  0  0  0  0  0  0  0  0  0  0  0
   25.2124  -20.8226  -16.7683 C   0  0  1  0  0  0  0  0  0  0  0  0
   25.9434  -21.1716  -15.5882 C   0  0  0  0  0  0  0  0  0  0  0  0
   25.8731  -22.4076  -15.1750 O   0  0  0  0  0  0  0  0  0  0  0  0
   26.7322  -20.2943  -14.8305 N   0  0  0  0  0  0  0  0  0  0  0  0
   27.3870  -19.0565  -15.1552 C   0  0  0  0  0  0  0  0  0  0  0  0
   28.7440  -19.2956  -14.4649 C   0  0  0  0  0  0  0  0  0  0  0  0
   28.2666  -19.7582  -13.1098 C   0  0  0  0  0  0  0  0  0  0  0  0
   27.0491  -20.5650  -13.3968 C   0  0  1  0  0  0  0  0  0  0  0  0
   25.8783  -20.1747  -12.5861 C   0  0  0  0  0  0  0  0  0  0  0  0
   24.9408  -19.5559  -13.1385 O   0  0  0  0  0  0  0  0  0  0  0  0
   25.7705  -20.4698  -11.2133 N   0  0  0  0  0  0  0  0  0  0  0  0
   26.8659  -20.9531  -10.3972 C   0  0  0  0  0  0  0  0  0  0  0  0
   26.2751  -21.4137   -9.0942 C   0  0  0  0  0  0  0  0  0  0  0  0
   24.8009  -21.5761   -9.4584 C   0  0  0  0  0  0  0  0  0  0  0  0
   24.6113  -20.3654  -10.3517 C   0  0  1  0  0  0  0  0  0  0  0  0
   24.7088  -19.1603   -9.4780 C   0  0  0  0  0  0  0  0  0  0  0  0
   25.7521  -18.5017   -9.3119 O   0  0  0  0  0  0  0  0  0  0  0  0
   23.5706  -18.7401   -8.8045 O   0  0  0  0  0  0  0  0  0  0  0  0
  1  2  1  0
  3  2  1  0
  4  3  1  0
  4  5  1  0
  5  1  1  0
  6  8  1  0
  5  6  1  1
  7  6  2  0
  8  9  1  0
 10  9  1  0
 11 10  1  0
 11 12  1  0
 12  8  1  0
 12 13  1  1
 13 15  1  0
 14 13  2  0
 15 19  1  0
 15 16  1  0
 16 17  1  0
 18 17  1  0
 19 20  1  1
 19 18  1  0
 20 22  1  0
 21 20  2  0
M  END
$$$$
