PPP.pdb
     RDKit          3D

 22 24  0  0  1  0  0  0  0  0999 V2000
   24.2908  -21.8979  -11.6141 N   0  0  0  0  0  0  0  0  0  0  0  0
   23.5881  -21.0700  -12.6253 C   0  0  0  0  0  0  0  0  0  0  0  0
   23.9178  -19.6374  -12.2839 C   0  0  0  0  0  0  0  0  0  0  0  0
   24.8106  -19.7615  -11.0679 C   0  0  0  0  0  0  0  0  0  0  0  0
   25.4656  -21.1086  -11.3261 C   0  0  1  0  0  0  0  0  0  0  0  0
   26.3935  -21.5738  -10.3406 C   0  0  0  0  0  0  0  0  0  0  0  0
   25.9846  -22.4929   -9.5091 O   0  0  0  0  0  0  0  0  0  0  0  0
   27.7123  -21.1229  -10.1878 N   0  0  0  0  0  0  0  0  0  0  0  0
   28.6180  -20.4594  -11.0855 C   0  0  0  0  0  0  0  0  0  0  0  0
   29.9040  -21.2540  -10.7858 C   0  0  0  0  0  0  0  0  0  0  0  0
   29.8959  -21.1995   -9.2775 C   0  0  0  0  0  0  0  0  0  0  0  0
   28.4580  -21.3011   -8.9066 C   0  0  1  0  0  0  0  0  0  0  0  0
   28.0154  -20.2509   -7.9678 C   0  0  0  0  0  0  0  0  0  0  0  0
   27.2444  -19.3562   -8.3827 O   0  0  0  0  0  0  0  0  0  0  0  0
   28.4245  -20.2123   -6.6208 N   0  0  0  0  0  0  0  0  0  0  0  0
   29.3099  -21.1843   -6.0119 C   0  0  0  0  0  0  0  0  0  0  0  0
   29.2598  -20.9571   -4.5270 C   0  0  0  0  0  0  0  0  0  0  0  0
   27.9725  -20.1493   -4.3768 C   0  0  0  0  0  0  0  0  0  0  0  0
   28.0767  -19.2516   -5.5946 C   0  0  1  0  0  0  0  0  0  0  0  0
   29.2072  -18.3106   -5.3463 C   0  0  0  0  0  0  0  0  0  0  0  0
   30.2648  -18.3023   -6.0028 O   0  0  0  0  0  0  0  0  0  0  0  0
   29.0806  -17.3834   -4.3217 O   0  0  0  0  0  0  0  0  0  0  0  0
  1  2  1  0
  3  2  1  0
  4  3  1  0
  4  5  1  0
  5  1  1  0
  6  8  1  0
  5  6  1  1
  7  6  2  0
  8  9  1  0
 10  9  1  0
 11 10  1  0
 11 12  1  0
 12  8  1  0
 12 13  1  1
 13 15  1  0
 14 13  2  0
 15 19  1  0
 15 16  1  0
 16 17  1  0
 18 17  1  0
 19 20  1  1
 19 18  1  0
 20 22  1  0
 21 20  2  0
M  END
$$$$
