PPP.pdb
     RDKit          3D

 22 24  0  0  1  0  0  0  0  0999 V2000
   34.3834  -27.2105  -20.6750 N   0  0  0  0  0  0  0  0  0  0  0  0
   35.5518  -26.6549  -21.4014 C   0  0  0  0  0  0  0  0  0  0  0  0
   35.4475  -25.1559  -21.2612 C   0  0  0  0  0  0  0  0  0  0  0  0
   34.1901  -24.9655  -20.4404 C   0  0  0  0  0  0  0  0  0  0  0  0
   34.1837  -26.2448  -19.6197 C   0  0  1  0  0  0  0  0  0  0  0  0
   33.0929  -26.4219  -18.7101 C   0  0  0  0  0  0  0  0  0  0  0  0
   32.1796  -27.3003  -19.0225 O   0  0  0  0  0  0  0  0  0  0  0  0
   32.9173  -25.7269  -17.5051 N   0  0  0  0  0  0  0  0  0  0  0  0
   33.8127  -24.9369  -16.7046 C   0  0  0  0  0  0  0  0  0  0  0  0
   33.4401  -25.4656  -15.3058 C   0  0  0  0  0  0  0  0  0  0  0  0
   31.9363  -25.3614  -15.3822 C   0  0  0  0  0  0  0  0  0  0  0  0
   31.6070  -25.7178  -16.7893 C   0  0  1  0  0  0  0  0  0  0  0  0
   30.7267  -24.7373  -17.4556 C   0  0  0  0  0  0  0  0  0  0  0  0
   31.2310  -23.9232  -18.2617 O   0  0  0  0  0  0  0  0  0  0  0  0
   29.3391  -24.6784  -17.2223 N   0  0  0  0  0  0  0  0  0  0  0  0
   28.6250  -25.5744  -16.3354 C   0  0  0  0  0  0  0  0  0  0  0  0
   27.1579  -25.3704  -16.5903 C   0  0  0  0  0  0  0  0  0  0  0  0
   27.1691  -24.6829  -17.9539 C   0  0  0  0  0  0  0  0  0  0  0  0
   28.3638  -23.7650  -17.7805 C   0  0  1  0  0  0  0  0  0  0  0  0
   27.9754  -22.7296  -16.7794 C   0  0  0  0  0  0  0  0  0  0  0  0
   28.2667  -22.7845  -15.5703 O   0  0  0  0  0  0  0  0  0  0  0  0
   27.2438  -21.6335  -17.2141 O   0  0  0  0  0  0  0  0  0  0  0  0
  1  2  1  0
  3  2  1  0
  4  3  1  0
  4  5  1  0
  5  1  1  0
  6  8  1  0
  5  6  1  6
  7  6  2  0
  8  9  1  0
 10  9  1  0
 11 10  1  0
 11 12  1  0
 12  8  1  0
 12 13  1  6
 13 15  1  0
 14 13  2  0
 15 19  1  0
 15 16  1  0
 16 17  1  0
 18 17  1  0
 19 20  1  1
 19 18  1  0
 20 22  1  0
 21 20  2  0
M  END
$$$$
