PPP.pdb
     RDKit          3D

 22 24  0  0  1  0  0  0  0  0999 V2000
   27.0919  -20.9882  -18.3386 N   0  0  0  0  0  0  0  0  0  0  0  0
   26.9434  -20.0001  -19.4354 C   0  0  0  0  0  0  0  0  0  0  0  0
   26.2149  -18.8239  -18.8326 C   0  0  0  0  0  0  0  0  0  0  0  0
   25.9976  -19.2435  -17.3946 C   0  0  0  0  0  0  0  0  0  0  0  0
   27.2009  -20.1448  -17.1711 C   0  0  1  0  0  0  0  0  0  0  0  0
   27.3204  -20.7526  -15.8809 C   0  0  0  0  0  0  0  0  0  0  0  0
   26.8852  -21.9754  -15.7441 O   0  0  0  0  0  0  0  0  0  0  0  0
   27.8659  -20.1434  -14.7419 N   0  0  0  0  0  0  0  0  0  0  0  0
   28.7192  -18.9992  -14.5717 C   0  0  0  0  0  0  0  0  0  0  0  0
   29.6988  -19.5635  -13.5243 C   0  0  0  0  0  0  0  0  0  0  0  0
   28.7153  -20.1357  -12.5325 C   0  0  0  0  0  0  0  0  0  0  0  0
   27.6089  -20.6741  -13.3701 C   0  0  1  0  0  0  0  0  0  0  0  0
   26.2709  -20.2175  -12.9444 C   0  0  0  0  0  0  0  0  0  0  0  0
   25.6637  -19.3835  -13.6534 O   0  0  0  0  0  0  0  0  0  0  0  0
   25.6460  -20.6816  -11.7707 N   0  0  0  0  0  0  0  0  0  0  0  0
   26.2951  -21.5152  -10.7792 C   0  0  0  0  0  0  0  0  0  0  0  0
   25.2217  -22.0194   -9.8560 C   0  0  0  0  0  0  0  0  0  0  0  0
   23.9607  -21.7896  -10.6862 C   0  0  0  0  0  0  0  0  0  0  0  0
   24.2929  -20.4481  -11.3108 C   0  0  1  0  0  0  0  0  0  0  0  0
   24.2746  -19.4398  -10.2117 C   0  0  0  0  0  0  0  0  0  0  0  0
   23.2352  -18.9646   -9.7184 O   0  0  0  0  0  0  0  0  0  0  0  0
   25.4872  -18.9984   -9.7014 O   0  0  0  0  0  0  0  0  0  0  0  0
  1  2  1  0
  3  2  1  0
  4  3  1  0
  4  5  1  0
  5  1  1  0
  6  8  1  0
  5  6  1  1
  7  6  2  0
  8  9  1  0
 10  9  1  0
 11 10  1  0
 11 12  1  0
 12  8  1  0
 12 13  1  1
 13 15  1  0
 14 13  2  0
 15 19  1  0
 15 16  1  0
 16 17  1  0
 18 17  1  0
 19 20  1  1
 19 18  1  0
 20 22  1  0
 21 20  2  0
M  END
$$$$
