YAW.pdb
     RDKit          3D

 32 34  0  0  1  0  0  0  0  0999 V2000
   23.1371  -14.7129  -21.4230 O   0  0  0  0  0  0  0  0  0  0  0  0
   23.3397  -15.6771  -20.4375 C   0  0  0  0  0  0  0  0  0  0  0  0
   22.6580  -16.8653  -20.4437 C   0  0  0  0  0  0  0  0  0  0  0  0
   22.9009  -17.7765  -19.4448 C   0  0  0  0  0  0  0  0  0  0  0  0
   23.8108  -17.5381  -18.4300 C   0  0  0  0  0  0  0  0  0  0  0  0
   24.0390  -18.5542  -17.3729 C   0  0  0  0  0  0  0  0  0  0  0  0
   25.2788  -19.3812  -17.7504 C   0  0  2  0  0  0  0  0  0  0  0  0
   24.9656  -20.2449  -18.8786 N   0  0  0  0  0  0  0  0  0  0  0  0
   25.5708  -20.1976  -16.5303 C   0  0  0  0  0  0  0  0  0  0  0  0
   24.7777  -21.0924  -16.2236 O   0  0  0  0  0  0  0  0  0  0  0  0
   24.4856  -16.3580  -18.4267 C   0  0  0  0  0  0  0  0  0  0  0  0
   24.2595  -15.4196  -19.4240 C   0  0  0  0  0  0  0  0  0  0  0  0
   28.3676  -20.4502  -14.0017 C   0  0  0  0  0  0  0  0  0  0  0  0
   26.9681  -20.7314  -14.5065 C   0  0  2  0  0  0  0  0  0  0  0  0
   26.7209  -19.9691  -15.7309 N   0  0  0  0  0  0  0  0  0  0  0  0
   25.9335  -20.3440  -13.5251 C   0  0  0  0  0  0  0  0  0  0  0  0
   25.5983  -19.1424  -13.4355 O   0  0  0  0  0  0  0  0  0  0  0  0
   25.2859  -21.3014  -12.6566 N   0  0  0  0  0  0  0  0  0  0  0  0
   24.4384  -20.8932  -11.5814 C   0  0  1  0  0  0  0  0  0  0  0  0
   23.0093  -21.1611  -11.7068 C   0  0  0  0  0  0  0  0  0  0  0  0
   22.3833  -21.0850  -13.0299 C   0  0  0  0  0  0  0  0  0  0  0  0
   22.1257  -22.0577  -13.9615 C   0  0  0  0  0  0  0  0  0  0  0  0
   21.5320  -21.4793  -15.0057 N   0  0  0  0  0  0  0  0  0  0  0  0
   21.4011  -20.1717  -14.7744 C   0  0  0  0  0  0  0  0  0  0  0  0
   20.8598  -19.1382  -15.5282 C   0  0  0  0  0  0  0  0  0  0  0  0
   20.8625  -17.8609  -15.0221 C   0  0  0  0  0  0  0  0  0  0  0  0
   21.3825  -17.5431  -13.7849 C   0  0  0  0  0  0  0  0  0  0  0  0
   21.9170  -18.5752  -13.0454 C   0  0  0  0  0  0  0  0  0  0  0  0
   21.9262  -19.8867  -13.5392 C   0  0  0  0  0  0  0  0  0  0  0  0
   24.9170  -21.4246  -10.2618 C   0  0  0  0  0  0  0  0  0  0  0  0
   24.3729  -21.0485   -9.1934 O   0  0  0  0  0  0  0  0  0  0  0  0
   25.9581  -22.3349  -10.1562 O   0  0  0  0  0  0  0  0  0  0  0  0
  2  1  1  0
  3  2  2  0
  4  3  1  0
  5  4  2  0
  5 11  1  0
  6  5  1  0
  7  6  1  0
  7  8  1  6
  9 10  2  0
  9  7  1  0
 11 12  2  0
 12  2  1  0
 14 13  1  1
 14 16  1  0
 14 15  1  0
 15  9  1  0
 16 18  1  0
 17 16  2  0
 18 19  1  0
 19 30  1  0
 19 20  1  6
 21 20  1  0
 21 29  1  0
 22 23  1  0
 22 21  2  0
 23 24  1  0
 24 25  2  0
 24 29  1  0
 25 26  1  0
 26 27  2  0
 28 27  1  0
 29 28  2  0
 30 31  2  0
 30 32  1  0
M  END
$$$$
