YAW.pdb
     RDKit          3D

 32 34  0  0  1  0  0  0  0  0999 V2000
   21.7652  -21.7824  -20.6248 O   0  0  0  0  0  0  0  0  0  0  0  0
   22.5205  -21.8947  -19.4592 C   0  0  0  0  0  0  0  0  0  0  0  0
   22.9568  -20.7902  -18.7763 C   0  0  0  0  0  0  0  0  0  0  0  0
   23.6981  -20.9652  -17.6330 C   0  0  0  0  0  0  0  0  0  0  0  0
   24.0212  -22.2187  -17.1443 C   0  0  0  0  0  0  0  0  0  0  0  0
   24.8244  -22.3563  -15.9041 C   0  0  0  0  0  0  0  0  0  0  0  0
   26.2883  -22.0188  -16.2306 C   0  0  2  0  0  0  0  0  0  0  0  0
   26.9010  -23.1330  -16.9378 N   0  0  0  0  0  0  0  0  0  0  0  0
   26.9356  -21.8259  -14.8949 C   0  0  0  0  0  0  0  0  0  0  0  0
   27.2551  -22.8295  -14.2512 O   0  0  0  0  0  0  0  0  0  0  0  0
   23.5867  -23.3127  -17.8243 C   0  0  0  0  0  0  0  0  0  0  0  0
   22.8361  -23.1646  -18.9822 C   0  0  0  0  0  0  0  0  0  0  0  0
   28.2442  -18.9154  -12.8810 C   0  0  0  0  0  0  0  0  0  0  0  0
   27.8070  -20.3554  -13.0479 C   0  0  2  0  0  0  0  0  0  0  0  0
   27.1858  -20.5353  -14.3606 N   0  0  0  0  0  0  0  0  0  0  0  0
   26.8164  -20.7587  -12.0283 C   0  0  0  0  0  0  0  0  0  0  0  0
   25.6150  -20.8715  -12.3572 O   0  0  0  0  0  0  0  0  0  0  0  0
   27.1781  -21.0311  -10.6552 N   0  0  0  0  0  0  0  0  0  0  0  0
   26.2089  -21.4272   -9.6833 C   0  0  1  0  0  0  0  0  0  0  0  0
   26.6314  -21.4765   -8.2873 C   0  0  0  0  0  0  0  0  0  0  0  0
   26.9303  -20.2232   -7.5885 C   0  0  0  0  0  0  0  0  0  0  0  0
   26.4650  -18.9486   -7.7867 C   0  0  0  0  0  0  0  0  0  0  0  0
   27.0385  -18.1565   -6.8806 N   0  0  0  0  0  0  0  0  0  0  0  0
   27.8536  -18.8796   -6.1105 C   0  0  0  0  0  0  0  0  0  0  0  0
   28.6717  -18.5428   -5.0397 C   0  0  0  0  0  0  0  0  0  0  0  0
   29.4157  -19.5208   -4.4253 C   0  0  0  0  0  0  0  0  0  0  0  0
   29.3944  -20.8420   -4.8206 C   0  0  0  0  0  0  0  0  0  0  0  0
   28.5799  -21.1656   -5.8835 C   0  0  0  0  0  0  0  0  0  0  0  0
   27.8112  -20.1864   -6.5269 C   0  0  0  0  0  0  0  0  0  0  0  0
   24.9546  -20.6087   -9.7813 C   0  0  0  0  0  0  0  0  0  0  0  0
   23.9071  -20.9839   -9.1973 O   0  0  0  0  0  0  0  0  0  0  0  0
   24.8886  -19.4263  -10.5031 O   0  0  0  0  0  0  0  0  0  0  0  0
  2  1  1  0
  3  2  2  0
  4  3  1  0
  5  4  2  0
  5 11  1  0
  6  5  1  0
  7  6  1  0
  7  8  1  1
  9 10  2  0
  9  7  1  0
 11 12  2  0
 12  2  1  0
 14 13  1  1
 14 16  1  0
 14 15  1  0
 15  9  1  0
 16 18  1  0
 17 16  2  0
 18 19  1  0
 19 30  1  0
 19 20  1  1
 21 20  1  0
 21 29  1  0
 22 23  1  0
 22 21  2  0
 23 24  1  0
 24 25  2  0
 24 29  1  0
 25 26  1  0
 26 27  2  0
 28 27  1  0
 29 28  2  0
 30 31  2  0
 30 32  1  0
M  END
$$$$
