YAW.pdb
     RDKit          3D

 32 34  0  0  1  0  0  0  0  0999 V2000
   25.0679  -22.4775  -23.6804 O   0  0  0  0  0  0  0  0  0  0  0  0
   25.5015  -22.5188  -22.3568 C   0  0  0  0  0  0  0  0  0  0  0  0
   25.1359  -21.5588  -21.4505 C   0  0  0  0  0  0  0  0  0  0  0  0
   25.5955  -21.6537  -20.1594 C   0  0  0  0  0  0  0  0  0  0  0  0
   26.4162  -22.6855  -19.7393 C   0  0  0  0  0  0  0  0  0  0  0  0
   26.8866  -22.7449  -18.3331 C   0  0  0  0  0  0  0  0  0  0  0  0
   28.0988  -21.8110  -18.1841 C   0  0  2  0  0  0  0  0  0  0  0  0
   29.3138  -22.5256  -18.5447 N   0  0  0  0  0  0  0  0  0  0  0  0
   28.1157  -21.4472  -16.7323 C   0  0  0  0  0  0  0  0  0  0  0  0
   28.6536  -22.2277  -15.9416 O   0  0  0  0  0  0  0  0  0  0  0  0
   26.7772  -23.6365  -20.6410 C   0  0  0  0  0  0  0  0  0  0  0  0
   26.3270  -23.5648  -21.9519 C   0  0  0  0  0  0  0  0  0  0  0  0
   27.5415  -18.2971  -14.7888 C   0  0  0  0  0  0  0  0  0  0  0  0
   27.7272  -19.7975  -14.8721 C   0  0  2  0  0  0  0  0  0  0  0  0
   27.5359  -20.2442  -16.2524 N   0  0  0  0  0  0  0  0  0  0  0  0
   26.7561  -20.5266  -14.0302 C   0  0  0  0  0  0  0  0  0  0  0  0
   25.6544  -20.8594  -14.5199 O   0  0  0  0  0  0  0  0  0  0  0  0
   27.0259  -20.8756  -12.6533 N   0  0  0  0  0  0  0  0  0  0  0  0
   26.0499  -21.5189  -11.8321 C   0  0  1  0  0  0  0  0  0  0  0  0
   26.4529  -21.9161  -10.4869 C   0  0  0  0  0  0  0  0  0  0  0  0
   26.4773  -20.9077   -9.4233 C   0  0  0  0  0  0  0  0  0  0  0  0
   25.5432  -19.9795   -9.0410 C   0  0  0  0  0  0  0  0  0  0  0  0
   26.0412  -19.2964   -8.0101 N   0  0  0  0  0  0  0  0  0  0  0  0
   27.2601  -19.7552   -7.7201 C   0  0  0  0  0  0  0  0  0  0  0  0
   28.1898  -19.3940   -6.7534 C   0  0  0  0  0  0  0  0  0  0  0  0
   29.3905  -20.0588   -6.6904 C   0  0  0  0  0  0  0  0  0  0  0  0
   29.7293  -21.0831   -7.5497 C   0  0  0  0  0  0  0  0  0  0  0  0
   28.8004  -21.4334   -8.5048 C   0  0  0  0  0  0  0  0  0  0  0  0
   27.5684  -20.7709   -8.5897 C   0  0  0  0  0  0  0  0  0  0  0  0
   24.7828  -20.7194  -11.7421 C   0  0  0  0  0  0  0  0  0  0  0  0
   24.8210  -19.4647  -11.7988 O   0  0  0  0  0  0  0  0  0  0  0  0
   23.5361  -21.3092  -11.5953 O   0  0  0  0  0  0  0  0  0  0  0  0
  2  1  1  0
  3  2  2  0
  4  3  1  0
  5  4  2  0
  5 11  1  0
  6  5  1  0
  7  6  1  0
  7  8  1  1
  9 10  2  0
  9  7  1  0
 11 12  2  0
 12  2  1  0
 14 13  1  6
 14 16  1  0
 14 15  1  0
 15  9  1  0
 16 18  1  0
 17 16  2  0
 18 19  1  0
 19 30  1  0
 19 20  1  1
 21 20  1  0
 21 29  1  0
 22 23  1  0
 22 21  2  0
 23 24  1  0
 24 25  2  0
 24 29  1  0
 25 26  1  0
 26 27  2  0
 28 27  1  0
 29 28  2  0
 30 31  2  0
 30 32  1  0
M  END
$$$$
