YAW.pdb
     RDKit          3D

 32 34  0  0  1  0  0  0  0  0999 V2000
   13.4072  -18.2753  -18.6367 O   0  0  0  0  0  0  0  0  0  0  0  0
   14.4792  -17.4422  -18.3233 C   0  0  0  0  0  0  0  0  0  0  0  0
   14.8634  -16.4223  -19.1533 C   0  0  0  0  0  0  0  0  0  0  0  0
   15.9285  -15.6345  -18.7898 C   0  0  0  0  0  0  0  0  0  0  0  0
   16.6295  -15.8334  -17.6136 C   0  0  0  0  0  0  0  0  0  0  0  0
   17.7734  -14.9550  -17.2642 C   0  0  0  0  0  0  0  0  0  0  0  0
   19.0109  -15.4328  -18.0414 C   0  0  2  0  0  0  0  0  0  0  0  0
   19.4841  -16.6900  -17.4823 N   0  0  0  0  0  0  0  0  0  0  0  0
   20.0249  -14.3517  -17.8334 C   0  0  0  0  0  0  0  0  0  0  0  0
   20.6399  -14.3268  -16.7634 O   0  0  0  0  0  0  0  0  0  0  0  0
   16.2458  -16.8462  -16.7921 C   0  0  0  0  0  0  0  0  0  0  0  0
   15.1731  -17.6573  -17.1350 C   0  0  0  0  0  0  0  0  0  0  0  0
   21.6262  -11.6869  -19.9703 C   0  0  0  0  0  0  0  0  0  0  0  0
   21.3444  -12.3700  -18.6488 C   0  0  2  0  0  0  0  0  0  0  0  0
   20.2905  -13.3702  -18.8233 N   0  0  0  0  0  0  0  0  0  0  0  0
   20.8867  -11.4176  -17.6158 C   0  0  0  0  0  0  0  0  0  0  0  0
   19.6652  -11.1690  -17.5146 O   0  0  0  0  0  0  0  0  0  0  0  0
   21.7970  -10.7548  -16.7088 N   0  0  0  0  0  0  0  0  0  0  0  0
   21.3453   -9.7915  -15.7555 C   0  0  1  0  0  0  0  0  0  0  0  0
   22.2709   -9.4011  -14.6970 C   0  0  0  0  0  0  0  0  0  0  0  0
   21.8884   -8.3269  -13.7761 C   0  0  0  0  0  0  0  0  0  0  0  0
   21.2407   -8.3646  -12.5681 C   0  0  0  0  0  0  0  0  0  0  0  0
   21.1351   -7.1135  -12.1195 N   0  0  0  0  0  0  0  0  0  0  0  0
   21.6924   -6.2779  -12.9979 C   0  0  0  0  0  0  0  0  0  0  0  0
   21.8454   -4.8975  -13.0082 C   0  0  0  0  0  0  0  0  0  0  0  0
   22.4761   -4.2965  -14.0706 C   0  0  0  0  0  0  0  0  0  0  0  0
   22.9742   -5.0013  -15.1464 C   0  0  0  0  0  0  0  0  0  0  0  0
   22.8173   -6.3698  -15.1264 C   0  0  0  0  0  0  0  0  0  0  0  0
   22.1778   -7.0066  -14.0544 C   0  0  0  0  0  0  0  0  0  0  0  0
   20.8200   -8.5528  -16.4209 C   0  0  0  0  0  0  0  0  0  0  0  0
   21.4104   -8.0729  -17.4209 O   0  0  0  0  0  0  0  0  0  0  0  0
   19.6847   -7.8908  -15.9775 O   0  0  0  0  0  0  0  0  0  0  0  0
  2  1  1  0
  3  2  2  0
  4  3  1  0
  5  4  2  0
  5 11  1  0
  6  5  1  0
  7  6  1  0
  7  8  1  1
  9 10  2  0
  9  7  1  0
 11 12  2  0
 12  2  1  0
 14 13  1  6
 14 16  1  0
 14 15  1  0
 15  9  1  0
 16 18  1  0
 17 16  2  0
 18 19  1  0
 19 30  1  0
 19 20  1  1
 21 20  1  0
 21 29  1  0
 22 23  1  0
 22 21  2  0
 23 24  1  0
 24 25  2  0
 24 29  1  0
 25 26  1  0
 26 27  2  0
 28 27  1  0
 29 28  2  0
 30 31  2  0
 30 32  1  0
M  END
$$$$
