YAW.pdb
     RDKit          3D

 32 34  0  0  1  0  0  0  0  0999 V2000
   19.3713  -23.7882   -6.2549 O   0  0  0  0  0  0  0  0  0  0  0  0
   20.1942  -23.0384   -7.0930 C   0  0  0  0  0  0  0  0  0  0  0  0
   20.7682  -21.8666   -6.6758 C   0  0  0  0  0  0  0  0  0  0  0  0
   21.5702  -21.1716   -7.5482 C   0  0  0  0  0  0  0  0  0  0  0  0
   21.8203  -21.6122   -8.8358 C   0  0  0  0  0  0  0  0  0  0  0  0
   22.6946  -20.8261   -9.7412 C   0  0  0  0  0  0  0  0  0  0  0  0
   24.1101  -21.4240   -9.6934 C   0  0  2  0  0  0  0  0  0  0  0  0
   24.7421  -21.0842   -8.4277 N   0  0  0  0  0  0  0  0  0  0  0  0
   24.8314  -20.7718  -10.8313 C   0  0  0  0  0  0  0  0  0  0  0  0
   25.0934  -19.5688  -10.7430 O   0  0  0  0  0  0  0  0  0  0  0  0
   21.2492  -22.7753   -9.2466 C   0  0  0  0  0  0  0  0  0  0  0  0
   20.4347  -23.4975   -8.3856 C   0  0  0  0  0  0  0  0  0  0  0  0
   26.8714  -21.8877  -13.7324 C   0  0  0  0  0  0  0  0  0  0  0  0
   25.9720  -20.8639  -13.0727 C   0  0  2  0  0  0  0  0  0  0  0  0
   25.2141  -21.4944  -11.9912 N   0  0  0  0  0  0  0  0  0  0  0  0
   24.9968  -20.2859  -14.0206 C   0  0  0  0  0  0  0  0  0  0  0  0
   23.8828  -20.8370  -14.1604 O   0  0  0  0  0  0  0  0  0  0  0  0
   25.2762  -19.1007  -14.8001 N   0  0  0  0  0  0  0  0  0  0  0  0
   24.3749  -18.6256  -15.8015 C   0  0  1  0  0  0  0  0  0  0  0  0
   24.3741  -17.1945  -16.0875 C   0  0  0  0  0  0  0  0  0  0  0  0
   23.4651  -16.6731  -17.1123 C   0  0  0  0  0  0  0  0  0  0  0  0
   22.1286  -16.3707  -17.0609 C   0  0  0  0  0  0  0  0  0  0  0  0
   21.7633  -15.9194  -18.2610 N   0  0  0  0  0  0  0  0  0  0  0  0
   22.8188  -15.9226  -19.0773 C   0  0  0  0  0  0  0  0  0  0  0  0
   22.9731  -15.5551  -20.4079 C   0  0  0  0  0  0  0  0  0  0  0  0
   24.2075  -15.6685  -21.0003 C   0  0  0  0  0  0  0  0  0  0  0  0
   25.3214  -16.1356  -20.3344 C   0  0  0  0  0  0  0  0  0  0  0  0
   25.1576  -16.4975  -19.0153 C   0  0  0  0  0  0  0  0  0  0  0  0
   23.9089  -16.3911  -18.3882 C   0  0  0  0  0  0  0  0  0  0  0  0
   24.5286  -19.3773  -17.0916 C   0  0  0  0  0  0  0  0  0  0  0  0
   23.5259  -19.6068  -17.8134 O   0  0  0  0  0  0  0  0  0  0  0  0
   25.7539  -19.8456  -17.5420 O   0  0  0  0  0  0  0  0  0  0  0  0
  2  1  1  0
  3  2  2  0
  4  3  1  0
  5  4  2  0
  5 11  1  0
  6  5  1  0
  7  6  1  0
  7  8  1  1
  9 10  2  0
  9  7  1  0
 11 12  2  0
 12  2  1  0
 14 13  1  6
 14 16  1  0
 14 15  1  0
 15  9  1  0
 16 18  1  0
 17 16  2  0
 18 19  1  0
 19 30  1  0
 19 20  1  6
 21 20  1  0
 21 29  1  0
 22 23  1  0
 22 21  2  0
 23 24  1  0
 24 25  2  0
 24 29  1  0
 25 26  1  0
 26 27  2  0
 28 27  1  0
 29 28  2  0
 30 31  2  0
 30 32  1  0
M  END
$$$$
