YAW.pdb
     RDKit          3D

 32 34  0  0  1  0  0  0  0  0999 V2000
   18.8233  -11.3478  -19.1356 O   0  0  0  0  0  0  0  0  0  0  0  0
   17.8084  -11.1443  -18.2027 C   0  0  0  0  0  0  0  0  0  0  0  0
   16.5159  -11.5230  -18.4529 C   0  0  0  0  0  0  0  0  0  0  0  0
   15.5590  -11.2958  -17.4937 C   0  0  0  0  0  0  0  0  0  0  0  0
   15.8529  -10.6971  -16.2814 C   0  0  0  0  0  0  0  0  0  0  0  0
   14.7842  -10.4734  -15.2765 C   0  0  0  0  0  0  0  0  0  0  0  0
   14.1936   -9.0710  -15.4960 C   0  0  2  0  0  0  0  0  0  0  0  0
   15.0920   -8.0698  -14.9415 N   0  0  0  0  0  0  0  0  0  0  0  0
   12.8991   -9.0874  -14.7448 C   0  0  0  0  0  0  0  0  0  0  0  0
   12.9252   -8.8559  -13.5326 O   0  0  0  0  0  0  0  0  0  0  0  0
   17.1364  -10.3225  -16.0363 C   0  0  0  0  0  0  0  0  0  0  0  0
   18.1230  -10.5403  -16.9879 C   0  0  0  0  0  0  0  0  0  0  0  0
    9.2510   -9.1194  -15.6335 C   0  0  0  0  0  0  0  0  0  0  0  0
   10.3935   -9.3062  -14.6577 C   0  0  2  0  0  0  0  0  0  0  0  0
   11.6622   -9.3593  -15.3852 N   0  0  0  0  0  0  0  0  0  0  0  0
   10.2694  -10.5616  -13.8883 C   0  0  0  0  0  0  0  0  0  0  0  0
   10.8264  -11.5963  -14.3165 O   0  0  0  0  0  0  0  0  0  0  0  0
    9.5261  -10.6470  -12.6511 N   0  0  0  0  0  0  0  0  0  0  0  0
    9.4038  -11.8722  -11.9266 C   0  0  1  0  0  0  0  0  0  0  0  0
    9.9262  -11.9081  -10.5645 C   0  0  0  0  0  0  0  0  0  0  0  0
    9.8121  -13.1473   -9.7899 C   0  0  0  0  0  0  0  0  0  0  0  0
   10.5187  -14.3204   -9.8587 C   0  0  0  0  0  0  0  0  0  0  0  0
   10.0345  -15.1464   -8.9309 N   0  0  0  0  0  0  0  0  0  0  0  0
    9.0440  -14.5426   -8.2717 C   0  0  0  0  0  0  0  0  0  0  0  0
    8.2236  -14.9584   -7.2308 C   0  0  0  0  0  0  0  0  0  0  0  0
    7.2673  -14.1015   -6.7419 C   0  0  0  0  0  0  0  0  0  0  0  0
    7.0739  -12.8288   -7.2371 C   0  0  0  0  0  0  0  0  0  0  0  0
    7.8926  -12.4263   -8.2693 C   0  0  0  0  0  0  0  0  0  0  0  0
    8.8755  -13.2815   -8.7854 C   0  0  0  0  0  0  0  0  0  0  0  0
    7.9895  -12.3749  -11.9165 C   0  0  0  0  0  0  0  0  0  0  0  0
    7.7498  -13.5935  -12.1079 O   0  0  0  0  0  0  0  0  0  0  0  0
    6.9020  -11.5416  -11.7009 O   0  0  0  0  0  0  0  0  0  0  0  0
  2  1  1  0
  3  2  2  0
  4  3  1  0
  5  4  2  0
  5 11  1  0
  6  5  1  0
  7  6  1  0
  7  8  1  1
  9 10  2  0
  9  7  1  0
 11 12  2  0
 12  2  1  0
 14 13  1  6
 14 16  1  0
 14 15  1  0
 15  9  1  0
 16 18  1  0
 17 16  2  0
 18 19  1  0
 19 30  1  0
 19 20  1  1
 21 20  1  0
 21 29  1  0
 22 23  1  0
 22 21  2  0
 23 24  1  0
 24 25  2  0
 24 29  1  0
 25 26  1  0
 26 27  2  0
 28 27  1  0
 29 28  2  0
 30 31  2  0
 30 32  1  0
M  END
$$$$
