YAW.pdb
     RDKit          3D

 32 34  0  0  1  0  0  0  0  0999 V2000
   29.7933  -13.0672  -21.6975 O   0  0  0  0  0  0  0  0  0  0  0  0
   28.9032  -13.6326  -20.7865 C   0  0  0  0  0  0  0  0  0  0  0  0
   27.7356  -13.0060  -20.4392 C   0  0  0  0  0  0  0  0  0  0  0  0
   26.8984  -13.6136  -19.5352 C   0  0  0  0  0  0  0  0  0  0  0  0
   27.1913  -14.8380  -18.9611 C   0  0  0  0  0  0  0  0  0  0  0  0
   26.2543  -15.4545  -17.9896 C   0  0  0  0  0  0  0  0  0  0  0  0
   25.6300  -16.7012  -18.6372 C   0  0  2  0  0  0  0  0  0  0  0  0
   24.8119  -16.3045  -19.7731 N   0  0  0  0  0  0  0  0  0  0  0  0
   24.7783  -17.2968  -17.5601 C   0  0  0  0  0  0  0  0  0  0  0  0
   23.7283  -16.7206  -17.2613 O   0  0  0  0  0  0  0  0  0  0  0  0
   28.3507  -15.4571  -19.3080 C   0  0  0  0  0  0  0  0  0  0  0  0
   29.2148  -14.8656  -20.2189 C   0  0  0  0  0  0  0  0  0  0  0  0
   23.1412  -19.8741  -16.8939 C   0  0  0  0  0  0  0  0  0  0  0  0
   24.1989  -19.2132  -16.0354 C   0  0  2  0  0  0  0  0  0  0  0  0
   25.1455  -18.4899  -16.8853 N   0  0  0  0  0  0  0  0  0  0  0  0
   24.9707  -20.1963  -15.2471 C   0  0  0  0  0  0  0  0  0  0  0  0
   26.1877  -20.3515  -15.4901 O   0  0  0  0  0  0  0  0  0  0  0  0
   24.3757  -20.9933  -14.1977 N   0  0  0  0  0  0  0  0  0  0  0  0
   25.1222  -21.9795  -13.4829 C   0  0  1  0  0  0  0  0  0  0  0  0
   26.2197  -21.5177  -12.6392 C   0  0  0  0  0  0  0  0  0  0  0  0
   25.9187  -20.9796  -11.3094 C   0  0  0  0  0  0  0  0  0  0  0  0
   24.7225  -20.6867  -10.7062 C   0  0  0  0  0  0  0  0  0  0  0  0
   24.9819  -20.2235   -9.4833 N   0  0  0  0  0  0  0  0  0  0  0  0
   26.3011  -20.2102   -9.2836 C   0  0  0  0  0  0  0  0  0  0  0  0
   27.0789  -19.8263   -8.1988 C   0  0  0  0  0  0  0  0  0  0  0  0
   28.4468  -19.9253   -8.2807 C   0  0  0  0  0  0  0  0  0  0  0  0
   29.1014  -20.3931   -9.4009 C   0  0  0  0  0  0  0  0  0  0  0  0
   28.3209  -20.7711  -10.4713 C   0  0  0  0  0  0  0  0  0  0  0  0
   26.9237  -20.6799  -10.4126 C   0  0  0  0  0  0  0  0  0  0  0  0
   24.2305  -22.8737  -12.6716 C   0  0  0  0  0  0  0  0  0  0  0  0
   23.0283  -22.5627  -12.4796 O   0  0  0  0  0  0  0  0  0  0  0  0
   24.6762  -24.0592  -12.1063 O   0  0  0  0  0  0  0  0  0  0  0  0
  2  1  1  0
  3  2  2  0
  4  3  1  0
  5  4  2  0
  5 11  1  0
  6  5  1  0
  7  6  1  0
  7  8  1  6
  9 10  2  0
  9  7  1  0
 11 12  2  0
 12  2  1  0
 14 13  1  6
 14 16  1  0
 14 15  1  0
 15  9  1  0
 16 18  1  0
 17 16  2  0
 18 19  1  0
 19 30  1  0
 19 20  1  1
 21 20  1  0
 21 29  1  0
 22 23  1  0
 22 21  2  0
 23 24  1  0
 24 25  2  0
 24 29  1  0
 25 26  1  0
 26 27  2  0
 28 27  1  0
 29 28  2  0
 30 31  2  0
 30 32  1  0
M  END
$$$$
