YAW.pdb
     RDKit          3D

 32 34  0  0  1  0  0  0  0  0999 V2000
   21.9911  -27.2287  -18.9250 O   0  0  0  0  0  0  0  0  0  0  0  0
   22.7623  -26.5278  -18.0000 C   0  0  0  0  0  0  0  0  0  0  0  0
   22.3994  -25.2829  -17.5582 C   0  0  0  0  0  0  0  0  0  0  0  0
   23.2010  -24.6415  -16.6453 C   0  0  0  0  0  0  0  0  0  0  0  0
   24.3641  -25.2076  -16.1542 C   0  0  0  0  0  0  0  0  0  0  0  0
   25.1968  -24.4751  -15.1682 C   0  0  0  0  0  0  0  0  0  0  0  0
   26.0729  -23.4636  -15.9249 C   0  0  2  0  0  0  0  0  0  0  0  0
   27.1584  -24.1625  -16.5959 N   0  0  0  0  0  0  0  0  0  0  0  0
   26.6103  -22.5612  -14.8585 C   0  0  0  0  0  0  0  0  0  0  0  0
   27.5398  -22.9740  -14.1589 O   0  0  0  0  0  0  0  0  0  0  0  0
   24.7214  -26.4431  -16.5945 C   0  0  0  0  0  0  0  0  0  0  0  0
   23.9298  -27.1134  -17.5166 C   0  0  0  0  0  0  0  0  0  0  0  0
   26.0757  -18.9875  -13.7666 C   0  0  0  0  0  0  0  0  0  0  0  0
   26.5969  -20.3962  -13.5756 C   0  0  2  0  0  0  0  0  0  0  0  0
   26.0830  -21.2624  -14.6373 N   0  0  0  0  0  0  0  0  0  0  0  0
   26.1735  -20.9766  -12.2843 C   0  0  0  0  0  0  0  0  0  0  0  0
   25.0893  -21.5969  -12.2214 O   0  0  0  0  0  0  0  0  0  0  0  0
   26.9646  -20.8581  -11.0800 N   0  0  0  0  0  0  0  0  0  0  0  0
   26.5525  -21.4457   -9.8448 C   0  0  1  0  0  0  0  0  0  0  0  0
   27.5096  -21.4471   -8.7432 C   0  0  0  0  0  0  0  0  0  0  0  0
   27.5116  -20.3257   -7.7994 C   0  0  0  0  0  0  0  0  0  0  0  0
   26.7936  -19.1575   -7.7876 C   0  0  0  0  0  0  0  0  0  0  0  0
   27.1545  -18.4646   -6.7072 N   0  0  0  0  0  0  0  0  0  0  0  0
   28.0773  -19.1486   -6.0283 C   0  0  0  0  0  0  0  0  0  0  0  0
   28.7678  -18.8761   -4.8544 C   0  0  0  0  0  0  0  0  0  0  0  0
   29.6807  -19.7875   -4.3815 C   0  0  0  0  0  0  0  0  0  0  0  0
   29.9538  -20.9791   -5.0200 C   0  0  0  0  0  0  0  0  0  0  0  0
   29.2637  -21.2397   -6.1835 C   0  0  0  0  0  0  0  0  0  0  0  0
   28.3274  -20.3264   -6.6864 C   0  0  0  0  0  0  0  0  0  0  0  0
   25.2550  -20.8686   -9.3586 C   0  0  0  0  0  0  0  0  0  0  0  0
   24.9072  -19.7122   -9.7062 O   0  0  0  0  0  0  0  0  0  0  0  0
   24.3949  -21.5641   -8.5217 O   0  0  0  0  0  0  0  0  0  0  0  0
  2  1  1  0
  3  2  2  0
  4  3  1  0
  5  4  2  0
  5 11  1  0
  6  5  1  0
  7  6  1  0
  7  8  1  1
  9 10  2  0
  9  7  1  0
 11 12  2  0
 12  2  1  0
 14 13  1  6
 14 16  1  0
 14 15  1  0
 15  9  1  0
 16 18  1  0
 17 16  2  0
 18 19  1  0
 19 30  1  0
 19 20  1  1
 21 20  1  0
 21 29  1  0
 22 23  1  0
 22 21  2  0
 23 24  1  0
 24 25  2  0
 24 29  1  0
 25 26  1  0
 26 27  2  0
 28 27  1  0
 29 28  2  0
 30 31  2  0
 30 32  1  0
M  END
$$$$
