YAW.pdb
     RDKit          3D

 32 34  0  0  1  0  0  0  0  0999 V2000
   33.9088  -15.9693  -20.7967 O   0  0  0  0  0  0  0  0  0  0  0  0
   32.8818  -16.1097  -19.8654 C   0  0  0  0  0  0  0  0  0  0  0  0
   32.9166  -17.0790  -18.8980 C   0  0  0  0  0  0  0  0  0  0  0  0
   31.8740  -17.1677  -18.0078 C   0  0  0  0  0  0  0  0  0  0  0  0
   30.7874  -16.3123  -18.0521 C   0  0  0  0  0  0  0  0  0  0  0  0
   29.6854  -16.4476  -17.0676 C   0  0  0  0  0  0  0  0  0  0  0  0
   29.2985  -17.9323  -16.9689 C   0  0  2  0  0  0  0  0  0  0  0  0
   28.8010  -18.3945  -18.2557 N   0  0  0  0  0  0  0  0  0  0  0  0
   28.2102  -17.9688  -15.9421 C   0  0  0  0  0  0  0  0  0  0  0  0
   28.4228  -17.4390  -14.8476 O   0  0  0  0  0  0  0  0  0  0  0  0
   30.7560  -15.3515  -19.0132 C   0  0  0  0  0  0  0  0  0  0  0  0
   31.7961  -15.2396  -19.9253 C   0  0  0  0  0  0  0  0  0  0  0  0
   24.5641  -18.5195  -15.7576 C   0  0  0  0  0  0  0  0  0  0  0  0
   25.9389  -18.7117  -15.1530 C   0  0  2  0  0  0  0  0  0  0  0  0
   26.9594  -18.5897  -16.1948 N   0  0  0  0  0  0  0  0  0  0  0  0
   26.0936  -20.0442  -14.5332 C   0  0  0  0  0  0  0  0  0  0  0  0
   26.4911  -21.0001  -15.2348 O   0  0  0  0  0  0  0  0  0  0  0  0
   25.8033  -20.2935  -13.1389 N   0  0  0  0  0  0  0  0  0  0  0  0
   25.9945  -21.5790  -12.5458 C   0  0  1  0  0  0  0  0  0  0  0  0
   26.9205  -21.6749  -11.4220 C   0  0  0  0  0  0  0  0  0  0  0  0
   26.6202  -20.9452  -10.1867 C   0  0  0  0  0  0  0  0  0  0  0  0
   25.4504  -20.3981   -9.7259 C   0  0  0  0  0  0  0  0  0  0  0  0
   25.6962  -19.8432   -8.5389 N   0  0  0  0  0  0  0  0  0  0  0  0
   26.9814  -20.0165   -8.2248 C   0  0  0  0  0  0  0  0  0  0  0  0
   27.7335  -19.6376   -7.1203 C   0  0  0  0  0  0  0  0  0  0  0  0
   29.0678  -19.9613   -7.0694 C   0  0  0  0  0  0  0  0  0  0  0  0
   29.7126  -20.6539   -8.0728 C   0  0  0  0  0  0  0  0  0  0  0  0
   28.9577  -21.0249   -9.1638 C   0  0  0  0  0  0  0  0  0  0  0  0
   27.5950  -20.7068   -9.2396 C   0  0  0  0  0  0  0  0  0  0  0  0
   24.6908  -22.2118  -12.1547 C   0  0  0  0  0  0  0  0  0  0  0  0
   24.6478  -23.4263  -11.8351 O   0  0  0  0  0  0  0  0  0  0  0  0
   23.4968  -21.5068  -12.1266 O   0  0  0  0  0  0  0  0  0  0  0  0
  2  1  1  0
  3  2  2  0
  4  3  1  0
  5  4  2  0
  5 11  1  0
  6  5  1  0
  7  6  1  0
  7  8  1  6
  9 10  2  0
  9  7  1  0
 11 12  2  0
 12  2  1  0
 14 13  1  6
 14 16  1  0
 14 15  1  0
 15  9  1  0
 16 18  1  0
 17 16  2  0
 18 19  1  0
 19 30  1  0
 19 20  1  1
 21 20  1  0
 21 29  1  0
 22 23  1  0
 22 21  2  0
 23 24  1  0
 24 25  2  0
 24 29  1  0
 25 26  1  0
 26 27  2  0
 28 27  1  0
 29 28  2  0
 30 31  2  0
 30 32  1  0
M  END
$$$$
