YAW.pdb
     RDKit          3D

 32 34  0  0  1  0  0  0  0  0999 V2000
   21.8113  -14.8987  -16.0103 O   0  0  0  0  0  0  0  0  0  0  0  0
   22.6249  -15.8660  -15.4237 C   0  0  0  0  0  0  0  0  0  0  0  0
   22.1757  -17.1397  -15.1940 C   0  0  0  0  0  0  0  0  0  0  0  0
   23.0249  -18.0494  -14.6123 C   0  0  0  0  0  0  0  0  0  0  0  0
   24.3202  -17.7264  -14.2488 C   0  0  0  0  0  0  0  0  0  0  0  0
   25.2001  -18.7446  -13.6234 C   0  0  0  0  0  0  0  0  0  0  0  0
   26.5075  -18.8209  -14.4288 C   0  0  2  0  0  0  0  0  0  0  0  0
   26.2175  -19.2315  -15.7941 N   0  0  0  0  0  0  0  0  0  0  0  0
   27.3192  -19.8653  -13.7283 C   0  0  0  0  0  0  0  0  0  0  0  0
   27.2282  -21.0331  -14.1176 O   0  0  0  0  0  0  0  0  0  0  0  0
   24.7629  -16.4617  -14.4781 C   0  0  0  0  0  0  0  0  0  0  0  0
   23.9259  -15.5227  -15.0644 C   0  0  0  0  0  0  0  0  0  0  0  0
   30.0857  -20.0144  -11.2038 C   0  0  0  0  0  0  0  0  0  0  0  0
   28.8532  -20.5894  -11.8694 C   0  0  2  0  0  0  0  0  0  0  0  0
   28.1770  -19.5476  -12.6434 N   0  0  0  0  0  0  0  0  0  0  0  0
   27.8825  -21.1135  -10.8863 C   0  0  0  0  0  0  0  0  0  0  0  0
   28.1837  -22.1221  -10.2108 O   0  0  0  0  0  0  0  0  0  0  0  0
   26.5886  -20.5061  -10.6688 N   0  0  0  0  0  0  0  0  0  0  0  0
   25.6014  -21.1110   -9.8320 C   0  0  1  0  0  0  0  0  0  0  0  0
   25.3196  -20.4751   -8.5491 C   0  0  0  0  0  0  0  0  0  0  0  0
   26.3626  -19.6677   -7.9096 C   0  0  0  0  0  0  0  0  0  0  0  0
   26.8352  -18.4136   -8.1999 C   0  0  0  0  0  0  0  0  0  0  0  0
   27.7883  -18.1191   -7.3155 N   0  0  0  0  0  0  0  0  0  0  0  0
   27.9413  -19.1403   -6.4704 C   0  0  0  0  0  0  0  0  0  0  0  0
   28.7855  -19.3377   -5.3852 C   0  0  0  0  0  0  0  0  0  0  0  0
   28.7186  -20.5174   -4.6842 C   0  0  0  0  0  0  0  0  0  0  0  0
   27.8438  -21.5343   -5.0048 C   0  0  0  0  0  0  0  0  0  0  0  0
   27.0110  -21.3286   -6.0827 C   0  0  0  0  0  0  0  0  0  0  0  0
   27.0597  -20.1341   -6.8139 C   0  0  0  0  0  0  0  0  0  0  0  0
   24.3071  -21.3244  -10.5616 C   0  0  0  0  0  0  0  0  0  0  0  0
   23.3389  -21.8790   -9.9836 O   0  0  0  0  0  0  0  0  0  0  0  0
   24.1177  -20.9303  -11.8778 O   0  0  0  0  0  0  0  0  0  0  0  0
  2  1  1  0
  3  2  2  0
  4  3  1  0
  5  4  2  0
  5 11  1  0
  6  5  1  0
  7  6  1  0
  7  8  1  6
  9 10  2  0
  9  7  1  0
 11 12  2  0
 12  2  1  0
 14 13  1  1
 14 16  1  0
 14 15  1  0
 15  9  1  0
 16 18  1  0
 17 16  2  0
 18 19  1  0
 19 30  1  0
 19 20  1  1
 21 20  1  0
 21 29  1  0
 22 23  1  0
 22 21  2  0
 23 24  1  0
 24 25  2  0
 24 29  1  0
 25 26  1  0
 26 27  2  0
 28 27  1  0
 29 28  2  0
 30 31  2  0
 30 32  1  0
M  END
$$$$
