YAW.pdb
     RDKit          3D

 32 34  0  0  1  0  0  0  0  0999 V2000
   26.8371   -3.9208  -18.8735 O   0  0  0  0  0  0  0  0  0  0  0  0
   25.7758   -4.4436  -18.1373 C   0  0  0  0  0  0  0  0  0  0  0  0
   24.4905   -4.0057  -18.3189 C   0  0  0  0  0  0  0  0  0  0  0  0
   23.4862   -4.5597  -17.5628 C   0  0  0  0  0  0  0  0  0  0  0  0
   23.7251   -5.5459  -16.6222 C   0  0  0  0  0  0  0  0  0  0  0  0
   22.6063   -6.1139  -15.8299 C   0  0  0  0  0  0  0  0  0  0  0  0
   21.8348   -4.9564  -15.1753 C   0  0  2  0  0  0  0  0  0  0  0  0
   22.5567   -4.4896  -14.0014 N   0  0  0  0  0  0  0  0  0  0  0  0
   20.5223   -5.5571  -14.7793 C   0  0  0  0  0  0  0  0  0  0  0  0
   20.4647   -6.1850  -13.7181 O   0  0  0  0  0  0  0  0  0  0  0  0
   25.0016   -5.9783  -16.4444 C   0  0  0  0  0  0  0  0  0  0  0  0
   26.0353   -5.4358  -17.1950 C   0  0  0  0  0  0  0  0  0  0  0  0
   16.9446   -5.3346  -15.8765 C   0  0  0  0  0  0  0  0  0  0  0  0
   18.0975   -6.0653  -15.2210 C   0  0  2  0  0  0  0  0  0  0  0  0
   19.3613   -5.4230  -15.5842 N   0  0  0  0  0  0  0  0  0  0  0  0
   18.1774   -7.4774  -15.6489 C   0  0  0  0  0  0  0  0  0  0  0  0
   18.8214   -7.7655  -16.6816 O   0  0  0  0  0  0  0  0  0  0  0  0
   17.5386   -8.5499  -14.9196 N   0  0  0  0  0  0  0  0  0  0  0  0
   17.4975   -9.8861  -15.4235 C   0  0  1  0  0  0  0  0  0  0  0  0
   17.5243  -10.9763  -14.4538 C   0  0  0  0  0  0  0  0  0  0  0  0
   17.5249  -12.3601  -14.9370 C   0  0  0  0  0  0  0  0  0  0  0  0
   18.5581  -13.1920  -15.2847 C   0  0  0  0  0  0  0  0  0  0  0  0
   18.0365  -14.3609  -15.6573 N   0  0  0  0  0  0  0  0  0  0  0  0
   16.7069  -14.3057  -15.5599 C   0  0  0  0  0  0  0  0  0  0  0  0
   15.7105  -15.2370  -15.8223 C   0  0  0  0  0  0  0  0  0  0  0  0
   14.3953  -14.8916  -15.6254 C   0  0  0  0  0  0  0  0  0  0  0  0
   14.0036  -13.6487  -15.1736 C   0  0  0  0  0  0  0  0  0  0  0  0
   14.9995  -12.7323  -14.9164 C   0  0  0  0  0  0  0  0  0  0  0  0
   16.3483  -13.0603  -15.1091 C   0  0  0  0  0  0  0  0  0  0  0  0
   16.3396  -10.0949  -16.3554 C   0  0  0  0  0  0  0  0  0  0  0  0
   15.2051   -9.6377  -16.0674 O   0  0  0  0  0  0  0  0  0  0  0  0
   16.4589  -10.7858  -17.5521 O   0  0  0  0  0  0  0  0  0  0  0  0
  2  1  1  0
  3  2  2  0
  4  3  1  0
  5  4  2  0
  5 11  1  0
  6  5  1  0
  7  6  1  0
  7  8  1  1
  9 10  2  0
  9  7  1  0
 11 12  2  0
 12  2  1  0
 14 13  1  6
 14 16  1  0
 14 15  1  0
 15  9  1  0
 16 18  1  0
 17 16  2  0
 18 19  1  0
 19 30  1  0
 19 20  1  1
 21 20  1  0
 21 29  1  0
 22 23  1  0
 22 21  2  0
 23 24  1  0
 24 25  2  0
 24 29  1  0
 25 26  1  0
 26 27  2  0
 28 27  1  0
 29 28  2  0
 30 31  2  0
 30 32  1  0
M  END
$$$$
