YAW.pdb
     RDKit          3D

 32 34  0  0  1  0  0  0  0  0999 V2000
   18.8426  -16.5974  -18.4192 O   0  0  0  0  0  0  0  0  0  0  0  0
   19.5034  -17.1197  -17.3091 C   0  0  0  0  0  0  0  0  0  0  0  0
   19.2766  -16.6397  -16.0462 C   0  0  0  0  0  0  0  0  0  0  0  0
   19.9588  -17.1955  -14.9912 C   0  0  0  0  0  0  0  0  0  0  0  0
   20.8687  -18.2245  -15.1571 C   0  0  0  0  0  0  0  0  0  0  0  0
   21.5808  -18.7926  -13.9857 C   0  0  0  0  0  0  0  0  0  0  0  0
   21.1409  -20.2551  -13.8091 C   0  0  2  0  0  0  0  0  0  0  0  0
   19.7992  -20.2978  -13.2477 N   0  0  0  0  0  0  0  0  0  0  0  0
   22.1310  -20.8309  -12.8456 C   0  0  0  0  0  0  0  0  0  0  0  0
   22.0919  -20.4505  -11.6719 O   0  0  0  0  0  0  0  0  0  0  0  0
   21.0915  -18.6985  -16.4116 C   0  0  0  0  0  0  0  0  0  0  0  0
   20.4158  -18.1553  -17.4953 C   0  0  0  0  0  0  0  0  0  0  0  0
   24.5777  -23.6703  -12.7912 C   0  0  0  0  0  0  0  0  0  0  0  0
   24.0821  -22.3252  -12.3037 C   0  0  2  0  0  0  0  0  0  0  0  0
   23.0986  -21.7889  -13.2454 N   0  0  0  0  0  0  0  0  0  0  0  0
   25.1745  -21.3365  -12.1907 C   0  0  0  0  0  0  0  0  0  0  0  0
   25.4551  -20.6230  -13.1788 O   0  0  0  0  0  0  0  0  0  0  0  0
   25.9396  -21.1559  -10.9773 N   0  0  0  0  0  0  0  0  0  0  0  0
   27.0296  -20.2356  -10.9017 C   0  0  1  0  0  0  0  0  0  0  0  0
   27.3823  -19.7106   -9.5866 C   0  0  0  0  0  0  0  0  0  0  0  0
   28.4085  -20.3974   -8.7968 C   0  0  0  0  0  0  0  0  0  0  0  0
   29.4673  -21.1793   -9.1814 C   0  0  0  0  0  0  0  0  0  0  0  0
   30.1128  -21.5666   -8.0810 N   0  0  0  0  0  0  0  0  0  0  0  0
   29.5042  -21.0599   -7.0071 C   0  0  0  0  0  0  0  0  0  0  0  0
   29.7705  -21.1588   -5.6475 C   0  0  0  0  0  0  0  0  0  0  0  0
   28.9526  -20.5143   -4.7512 C   0  0  0  0  0  0  0  0  0  0  0  0
   27.8624  -19.7613   -5.1344 C   0  0  0  0  0  0  0  0  0  0  0  0
   27.6070  -19.6697   -6.4850 C   0  0  0  0  0  0  0  0  0  0  0  0
   28.4262  -20.3176   -7.4193 C   0  0  0  0  0  0  0  0  0  0  0  0
   28.2666  -20.7821  -11.5529 C   0  0  0  0  0  0  0  0  0  0  0  0
   28.4295  -22.0235  -11.6601 O   0  0  0  0  0  0  0  0  0  0  0  0
   29.2683  -19.9660  -12.0571 O   0  0  0  0  0  0  0  0  0  0  0  0
  2  1  1  0
  3  2  2  0
  4  3  1  0
  5  4  2  0
  5 11  1  0
  6  5  1  0
  7  6  1  0
  7  8  1  1
  9 10  2  0
  9  7  1  0
 11 12  2  0
 12  2  1  0
 14 13  1  6
 14 16  1  0
 14 15  1  0
 15  9  1  0
 16 18  1  0
 17 16  2  0
 18 19  1  0
 19 30  1  0
 19 20  1  1
 21 20  1  0
 21 29  1  0
 22 23  1  0
 22 21  2  0
 23 24  1  0
 24 25  2  0
 24 29  1  0
 25 26  1  0
 26 27  2  0
 28 27  1  0
 29 28  2  0
 30 31  2  0
 30 32  1  0
M  END
$$$$
