YAW.pdb
     RDKit          3D

 32 34  0  0  1  0  0  0  0  0999 V2000
   19.3384  -29.4220  -21.7917 O   0  0  0  0  0  0  0  0  0  0  0  0
   19.7378  -28.6490  -20.7033 C   0  0  0  0  0  0  0  0  0  0  0  0
   18.9031  -28.4162  -19.6423 C   0  0  0  0  0  0  0  0  0  0  0  0
   19.3540  -27.6458  -18.5981 C   0  0  0  0  0  0  0  0  0  0  0  0
   20.6230  -27.0947  -18.5782 C   0  0  0  0  0  0  0  0  0  0  0  0
   21.0645  -26.2694  -17.4266 C   0  0  0  0  0  0  0  0  0  0  0  0
   21.8603  -27.1636  -16.4619 C   0  0  2  0  0  0  0  0  0  0  0  0
   20.9838  -27.6434  -15.4043 N   0  0  0  0  0  0  0  0  0  0  0  0
   22.9156  -26.2631  -15.9001 C   0  0  0  0  0  0  0  0  0  0  0  0
   22.6462  -25.6089  -14.8886 O   0  0  0  0  0  0  0  0  0  0  0  0
   21.4488  -27.3276  -19.6325 C   0  0  0  0  0  0  0  0  0  0  0  0
   21.0188  -28.1025  -20.7006 C   0  0  0  0  0  0  0  0  0  0  0  0
   26.5797  -25.6377  -16.5660 C   0  0  0  0  0  0  0  0  0  0  0  0
   25.2614  -25.3520  -15.8782 C   0  0  2  0  0  0  0  0  0  0  0  0
   24.1985  -26.1464  -16.4953 N   0  0  0  0  0  0  0  0  0  0  0  0
   24.8734  -23.9302  -15.9860 C   0  0  0  0  0  0  0  0  0  0  0  0
   24.0704  -23.5840  -16.8802 O   0  0  0  0  0  0  0  0  0  0  0  0
   25.3856  -22.9130  -15.0953 N   0  0  0  0  0  0  0  0  0  0  0  0
   24.9211  -21.5629  -15.1443 C   0  0  1  0  0  0  0  0  0  0  0  0
   24.5281  -20.9363  -13.8863 C   0  0  0  0  0  0  0  0  0  0  0  0
   25.4658  -20.9498  -12.7598 C   0  0  0  0  0  0  0  0  0  0  0  0
   26.8365  -20.9747  -12.7295 C   0  0  0  0  0  0  0  0  0  0  0  0
   27.2191  -20.9713  -11.4524 N   0  0  0  0  0  0  0  0  0  0  0  0
   26.1417  -20.9449  -10.6657 C   0  0  0  0  0  0  0  0  0  0  0  0
   25.9921  -20.9307   -9.2849 C   0  0  0  0  0  0  0  0  0  0  0  0
   24.7297  -20.9028   -8.7433 C   0  0  0  0  0  0  0  0  0  0  0  0
   23.5828  -20.8880   -9.5092 C   0  0  0  0  0  0  0  0  0  0  0  0
   23.7421  -20.9024  -10.8775 C   0  0  0  0  0  0  0  0  0  0  0  0
   25.0189  -20.9308  -11.4544 C   0  0  0  0  0  0  0  0  0  0  0  0
   25.8942  -20.6641  -15.8501 C   0  0  0  0  0  0  0  0  0  0  0  0
   27.0400  -21.0836  -16.1501 O   0  0  0  0  0  0  0  0  0  0  0  0
   25.5867  -19.3573  -16.1986 O   0  0  0  0  0  0  0  0  0  0  0  0
  2  1  1  0
  3  2  2  0
  4  3  1  0
  5  4  2  0
  5 11  1  0
  6  5  1  0
  7  6  1  0
  7  8  1  1
  9 10  2  0
  9  7  1  0
 11 12  2  0
 12  2  1  0
 14 13  1  6
 14 16  1  0
 14 15  1  0
 15  9  1  0
 16 18  1  0
 17 16  2  0
 18 19  1  0
 19 30  1  0
 19 20  1  1
 21 20  1  0
 21 29  1  0
 22 23  1  0
 22 21  2  0
 23 24  1  0
 24 25  2  0
 24 29  1  0
 25 26  1  0
 26 27  2  0
 28 27  1  0
 29 28  2  0
 30 31  2  0
 30 32  1  0
M  END
$$$$
