YAW.pdb
     RDKit          3D

 32 34  0  0  1  0  0  0  0  0999 V2000
   18.2168  -25.6354  -12.9811 O   0  0  0  0  0  0  0  0  0  0  0  0
   19.4579  -25.0786  -13.2835 C   0  0  0  0  0  0  0  0  0  0  0  0
   19.6095  -24.1673  -14.2951 C   0  0  0  0  0  0  0  0  0  0  0  0
   20.8587  -23.6535  -14.5455 C   0  0  0  0  0  0  0  0  0  0  0  0
   21.9723  -24.0232  -13.8122 C   0  0  0  0  0  0  0  0  0  0  0  0
   23.3013  -23.4395  -14.1207 C   0  0  0  0  0  0  0  0  0  0  0  0
   23.9072  -24.2056  -15.3079 C   0  0  2  0  0  0  0  0  0  0  0  0
   24.4070  -25.4946  -14.8544 N   0  0  0  0  0  0  0  0  0  0  0  0
   25.0358  -23.3408  -15.7756 C   0  0  0  0  0  0  0  0  0  0  0  0
   25.9324  -23.0669  -14.9725 O   0  0  0  0  0  0  0  0  0  0  0  0
   21.8185  -24.9276  -12.8091 C   0  0  0  0  0  0  0  0  0  0  0  0
   20.5676  -25.4625  -12.5347 C   0  0  0  0  0  0  0  0  0  0  0  0
   26.1176  -21.7661  -19.0360 C   0  0  0  0  0  0  0  0  0  0  0  0
   26.1728  -21.9440  -17.5334 C   0  0  2  0  0  0  0  0  0  0  0  0
   25.0967  -22.8364  -17.1007 N   0  0  0  0  0  0  0  0  0  0  0  0
   26.0049  -20.6641  -16.8143 C   0  0  0  0  0  0  0  0  0  0  0  0
   24.8530  -20.2805  -16.5139 O   0  0  0  0  0  0  0  0  0  0  0  0
   27.1236  -19.8285  -16.4392 N   0  0  0  0  0  0  0  0  0  0  0  0
   26.9507  -18.6315  -15.6789 C   0  0  1  0  0  0  0  0  0  0  0  0
   27.5856  -18.5654  -14.3666 C   0  0  0  0  0  0  0  0  0  0  0  0
   27.6518  -19.7775  -13.5451 C   0  0  0  0  0  0  0  0  0  0  0  0
   28.5604  -20.8044  -13.5269 C   0  0  0  0  0  0  0  0  0  0  0  0
   28.1803  -21.6725  -12.5892 N   0  0  0  0  0  0  0  0  0  0  0  0
   27.0612  -21.2368  -12.0076 C   0  0  0  0  0  0  0  0  0  0  0  0
   26.2707  -21.7590  -10.9919 C   0  0  0  0  0  0  0  0  0  0  0  0
   25.1496  -21.0741  -10.5897 C   0  0  0  0  0  0  0  0  0  0  0  0
   24.7593  -19.8754  -11.1493 C   0  0  0  0  0  0  0  0  0  0  0  0
   25.5501  -19.3662  -12.1558 C   0  0  0  0  0  0  0  0  0  0  0  0
   26.6986  -20.0455  -12.5840 C   0  0  0  0  0  0  0  0  0  0  0  0
   27.3345  -17.4117  -16.4648 C   0  0  0  0  0  0  0  0  0  0  0  0
   27.9016  -17.5300  -17.5799 O   0  0  0  0  0  0  0  0  0  0  0  0
   27.0894  -16.1237  -16.0123 O   0  0  0  0  0  0  0  0  0  0  0  0
  2  1  1  0
  3  2  2  0
  4  3  1  0
  5  4  2  0
  5 11  1  0
  6  5  1  0
  7  6  1  0
  7  8  1  1
  9 10  2  0
  9  7  1  0
 11 12  2  0
 12  2  1  0
 14 13  1  6
 14 16  1  0
 14 15  1  0
 15  9  1  0
 16 18  1  0
 17 16  2  0
 18 19  1  0
 19 30  1  0
 19 20  1  1
 21 20  1  0
 21 29  1  0
 22 23  1  0
 22 21  2  0
 23 24  1  0
 24 25  2  0
 24 29  1  0
 25 26  1  0
 26 27  2  0
 28 27  1  0
 29 28  2  0
 30 31  2  0
 30 32  1  0
M  END
$$$$
