YAW.pdb
     RDKit          3D

 32 34  0  0  1  0  0  0  0  0999 V2000
   31.3537  -21.6173  -10.7745 O   0  0  0  0  0  0  0  0  0  0  0  0
   30.0638  -21.5174  -11.2923 C   0  0  0  0  0  0  0  0  0  0  0  0
   29.7840  -20.7288  -12.3770 C   0  0  0  0  0  0  0  0  0  0  0  0
   28.4925  -20.6712  -12.8416 C   0  0  0  0  0  0  0  0  0  0  0  0
   27.4612  -21.3817  -12.2533 C   0  0  0  0  0  0  0  0  0  0  0  0
   26.0819  -21.2871  -12.7924 C   0  0  0  0  0  0  0  0  0  0  0  0
   25.4285  -20.0098  -12.2401 C   0  0  2  0  0  0  0  0  0  0  0  0
   24.9016  -20.2666  -10.9084 N   0  0  0  0  0  0  0  0  0  0  0  0
   24.3156  -19.7141  -13.1963 C   0  0  0  0  0  0  0  0  0  0  0  0
   23.2065  -20.2069  -12.9709 O   0  0  0  0  0  0  0  0  0  0  0  0
   27.7422  -22.1633  -11.1772 C   0  0  0  0  0  0  0  0  0  0  0  0
   29.0385  -22.2399  -10.6872 C   0  0  0  0  0  0  0  0  0  0  0  0
   23.8146  -17.3498  -16.0920 C   0  0  0  0  0  0  0  0  0  0  0  0
   23.3808  -18.4764  -15.1780 C   0  0  2  0  0  0  0  0  0  0  0  0
   24.5046  -18.8932  -14.3384 N   0  0  0  0  0  0  0  0  0  0  0  0
   22.9260  -19.6624  -15.9329 C   0  0  0  0  0  0  0  0  0  0  0  0
   23.7753  -20.4747  -16.3610 O   0  0  0  0  0  0  0  0  0  0  0  0
   21.5302  -19.9277  -16.2005 N   0  0  0  0  0  0  0  0  0  0  0  0
   21.1040  -21.1015  -16.8943 C   0  0  1  0  0  0  0  0  0  0  0  0
   19.6777  -21.4105  -16.8892 C   0  0  0  0  0  0  0  0  0  0  0  0
   18.7351  -20.4344  -17.4435 C   0  0  0  0  0  0  0  0  0  0  0  0
   18.6451  -19.8795  -18.6942 C   0  0  0  0  0  0  0  0  0  0  0  0
   17.6053  -19.0450  -18.6993 N   0  0  0  0  0  0  0  0  0  0  0  0
   17.0278  -19.0472  -17.4965 C   0  0  0  0  0  0  0  0  0  0  0  0
   15.9305  -18.3666  -16.9847 C   0  0  0  0  0  0  0  0  0  0  0  0
   15.5577  -18.5730  -15.6785 C   0  0  0  0  0  0  0  0  0  0  0  0
   16.2252  -19.4340  -14.8328 C   0  0  0  0  0  0  0  0  0  0  0  0
   17.3121  -20.1040  -15.3501 C   0  0  0  0  0  0  0  0  0  0  0  0
   17.7124  -19.9110  -16.6792 C   0  0  0  0  0  0  0  0  0  0  0  0
   21.5992  -21.1223  -18.3111 C   0  0  0  0  0  0  0  0  0  0  0  0
   21.4657  -22.1560  -19.0129 O   0  0  0  0  0  0  0  0  0  0  0  0
   22.2140  -20.0293  -18.9036 O   0  0  0  0  0  0  0  0  0  0  0  0
  2  1  1  0
  3  2  2  0
  4  3  1  0
  5  4  2  0
  5 11  1  0
  6  5  1  0
  7  6  1  0
  7  8  1  1
  9 10  2  0
  9  7  1  0
 11 12  2  0
 12  2  1  0
 14 13  1  6
 14 16  1  0
 14 15  1  0
 15  9  1  0
 16 18  1  0
 17 16  2  0
 18 19  1  0
 19 30  1  0
 19 20  1  6
 21 20  1  0
 21 29  1  0
 22 23  1  0
 22 21  2  0
 23 24  1  0
 24 25  2  0
 24 29  1  0
 25 26  1  0
 26 27  2  0
 28 27  1  0
 29 28  2  0
 30 31  2  0
 30 32  1  0
M  END
$$$$
