YAW.pdb
     RDKit          3D

 32 34  0  0  1  0  0  0  0  0999 V2000
   18.6066  -21.1962   -7.9709 O   0  0  0  0  0  0  0  0  0  0  0  0
   19.4793  -20.9125   -9.0196 C   0  0  0  0  0  0  0  0  0  0  0  0
   19.2193  -19.9140   -9.9207 C   0  0  0  0  0  0  0  0  0  0  0  0
   20.1180  -19.6818  -10.9334 C   0  0  0  0  0  0  0  0  0  0  0  0
   21.2788  -20.4208  -11.0776 C   0  0  0  0  0  0  0  0  0  0  0  0
   22.2193  -20.1316  -12.1884 C   0  0  0  0  0  0  0  0  0  0  0  0
   21.6321  -20.7070  -13.4875 C   0  0  2  0  0  0  0  0  0  0  0  0
   21.5432  -22.1556  -13.3844 N   0  0  0  0  0  0  0  0  0  0  0  0
   22.6132  -20.3160  -14.5481 C   0  0  0  0  0  0  0  0  0  0  0  0
   23.6580  -20.9663  -14.6445 O   0  0  0  0  0  0  0  0  0  0  0  0
   21.5338  -21.4110  -10.1818 C   0  0  0  0  0  0  0  0  0  0  0  0
   20.6428  -21.6668   -9.1489 C   0  0  0  0  0  0  0  0  0  0  0  0
   22.5444  -18.2168  -17.6388 C   0  0  0  0  0  0  0  0  0  0  0  0
   23.2945  -18.9106  -16.5214 C   0  0  2  0  0  0  0  0  0  0  0  0
   22.3728  -19.2312  -15.4308 N   0  0  0  0  0  0  0  0  0  0  0  0
   24.3682  -18.0637  -15.9614 C   0  0  0  0  0  0  0  0  0  0  0  0
   24.0736  -17.1764  -15.1307 O   0  0  0  0  0  0  0  0  0  0  0  0
   25.7565  -18.2173  -16.3348 N   0  0  0  0  0  0  0  0  0  0  0  0
   26.7912  -17.4379  -15.7324 C   0  0  1  0  0  0  0  0  0  0  0  0
   26.9979  -17.5825  -14.2951 C   0  0  0  0  0  0  0  0  0  0  0  0
   27.3969  -18.8875  -13.7601 C   0  0  0  0  0  0  0  0  0  0  0  0
   28.4930  -19.6697  -14.0187 C   0  0  0  0  0  0  0  0  0  0  0  0
   28.3995  -20.7684  -13.2694 N   0  0  0  0  0  0  0  0  0  0  0  0
   27.2827  -20.7159  -12.5410 C   0  0  0  0  0  0  0  0  0  0  0  0
   26.7273  -21.5909  -11.6163 C   0  0  0  0  0  0  0  0  0  0  0  0
   25.5387  -21.2654  -11.0089 C   0  0  0  0  0  0  0  0  0  0  0  0
   24.8547  -20.0970  -11.2720 C   0  0  0  0  0  0  0  0  0  0  0  0
   25.4139  -19.2362  -12.1907 C   0  0  0  0  0  0  0  0  0  0  0  0
   26.6254  -19.5451  -12.8238 C   0  0  0  0  0  0  0  0  0  0  0  0
   28.1065  -17.6218  -16.4319 C   0  0  0  0  0  0  0  0  0  0  0  0
   28.2489  -18.5370  -17.2812 O   0  0  0  0  0  0  0  0  0  0  0  0
   29.2045  -16.8118  -16.1834 O   0  0  0  0  0  0  0  0  0  0  0  0
  2  1  1  0
  3  2  2  0
  4  3  1  0
  5  4  2  0
  5 11  1  0
  6  5  1  0
  7  6  1  0
  7  8  1  1
  9 10  2  0
  9  7  1  0
 11 12  2  0
 12  2  1  0
 14 13  1  6
 14 16  1  0
 14 15  1  0
 15  9  1  0
 16 18  1  0
 17 16  2  0
 18 19  1  0
 19 30  1  0
 19 20  1  1
 21 20  1  0
 21 29  1  0
 22 23  1  0
 22 21  2  0
 23 24  1  0
 24 25  2  0
 24 29  1  0
 25 26  1  0
 26 27  2  0
 28 27  1  0
 29 28  2  0
 30 31  2  0
 30 32  1  0
M  END
$$$$
