YAW.pdb
     RDKit          3D

 32 34  0  0  1  0  0  0  0  0999 V2000
   21.9701  -16.1518  -24.2895 O   0  0  0  0  0  0  0  0  0  0  0  0
   21.3068  -16.3975  -23.0889 C   0  0  0  0  0  0  0  0  0  0  0  0
   20.3553  -17.3771  -22.9810 C   0  0  0  0  0  0  0  0  0  0  0  0
   19.7358  -17.5719  -21.7705 C   0  0  0  0  0  0  0  0  0  0  0  0
   20.0377  -16.8133  -20.6534 C   0  0  0  0  0  0  0  0  0  0  0  0
   19.3412  -17.0621  -19.3669 C   0  0  0  0  0  0  0  0  0  0  0  0
   20.3011  -17.8123  -18.4291 C   0  0  2  0  0  0  0  0  0  0  0  0
   20.5740  -19.1367  -18.9662 N   0  0  0  0  0  0  0  0  0  0  0  0
   19.5570  -17.9146  -17.1344 C   0  0  0  0  0  0  0  0  0  0  0  0
   18.8733  -18.9224  -16.9327 O   0  0  0  0  0  0  0  0  0  0  0  0
   20.9823  -15.8420  -20.7638 C   0  0  0  0  0  0  0  0  0  0  0  0
   21.6239  -15.6240  -21.9750 C   0  0  0  0  0  0  0  0  0  0  0  0
   19.4237  -15.9797  -13.9006 C   0  0  0  0  0  0  0  0  0  0  0  0
   18.9010  -17.0097  -14.8797 C   0  0  2  0  0  0  0  0  0  0  0  0
   19.6190  -16.8947  -16.1496 N   0  0  0  0  0  0  0  0  0  0  0  0
   17.4624  -16.8281  -15.1643 C   0  0  0  0  0  0  0  0  0  0  0  0
   17.1069  -16.4903  -16.3149 O   0  0  0  0  0  0  0  0  0  0  0  0
   16.4388  -17.0257  -14.1625 N   0  0  0  0  0  0  0  0  0  0  0  0
   15.4108  -18.0057  -14.3163 C   0  0  1  0  0  0  0  0  0  0  0  0
   15.8097  -19.3446  -14.7381 C   0  0  0  0  0  0  0  0  0  0  0  0
   15.3238  -19.8622  -16.0205 C   0  0  0  0  0  0  0  0  0  0  0  0
   15.4709  -19.3854  -17.2977 C   0  0  0  0  0  0  0  0  0  0  0  0
   14.8444  -20.2237  -18.1236 N   0  0  0  0  0  0  0  0  0  0  0  0
   14.3026  -21.2192  -17.4195 C   0  0  0  0  0  0  0  0  0  0  0  0
   13.5584  -22.3313  -17.7922 C   0  0  0  0  0  0  0  0  0  0  0  0
   13.1237  -23.2067  -16.8267 C   0  0  0  0  0  0  0  0  0  0  0  0
   13.3904  -23.0386  -15.4839 C   0  0  0  0  0  0  0  0  0  0  0  0
   14.1289  -21.9326  -15.1249 C   0  0  0  0  0  0  0  0  0  0  0  0
   14.5840  -21.0249  -16.0907 C   0  0  0  0  0  0  0  0  0  0  0  0
   14.5601  -18.1190  -13.0849 C   0  0  0  0  0  0  0  0  0  0  0  0
   13.6032  -18.9327  -13.0496 O   0  0  0  0  0  0  0  0  0  0  0  0
   14.7807  -17.3511  -11.9512 O   0  0  0  0  0  0  0  0  0  0  0  0
  2  1  1  0
  3  2  2  0
  4  3  1  0
  5  4  2  0
  5 11  1  0
  6  5  1  0
  7  6  1  0
  7  8  1  6
  9 10  2  0
  9  7  1  0
 11 12  2  0
 12  2  1  0
 14 13  1  1
 14 16  1  0
 14 15  1  0
 15  9  1  0
 16 18  1  0
 17 16  2  0
 18 19  1  0
 19 30  1  0
 19 20  1  1
 21 20  1  0
 21 29  1  0
 22 23  1  0
 22 21  2  0
 23 24  1  0
 24 25  2  0
 24 29  1  0
 25 26  1  0
 26 27  2  0
 28 27  1  0
 29 28  2  0
 30 31  2  0
 30 32  1  0
M  END
$$$$
