TLM.pdb
     RDKit          3D

 24 23  0  0  1  0  0  0  0  0999 V2000
    7.3705  -19.1219   19.0931 C   0  0  0  0  0  0  0  0  0  0  0  0
    7.9754  -17.9625   19.8806 C   0  0  1  0  0  0  0  0  0  0  0  0
    7.2575  -16.7880   19.5986 O   0  0  0  0  0  0  0  0  0  0  0  0
    7.9189  -18.2454   21.3647 C   0  0  2  0  0  0  0  0  0  0  0  0
    6.4996  -18.2527   21.7371 N   0  0  0  0  0  0  0  0  0  0  0  0
    8.6093  -17.1086   22.0633 C   0  0  0  0  0  0  0  0  0  0  0  0
    9.8362  -16.8972   21.9042 O   0  0  0  0  0  0  0  0  0  0  0  0
    6.7038  -12.7452   25.9826 C   0  0  0  0  0  0  0  0  0  0  0  0
    7.3479  -14.0062   25.4724 C   0  0  1  0  0  0  0  0  0  0  0  0
    6.3359  -15.1308   25.7470 C   0  0  0  0  0  0  0  0  0  0  0  0
    7.6388  -14.0415   24.0231 C   0  0  0  0  0  0  0  0  0  0  0  0
    8.5643  -15.0888   23.5253 C   0  0  2  0  0  0  0  0  0  0  0  0
    7.9156  -16.2227   22.9321 N   0  0  0  0  0  0  0  0  0  0  0  0
    9.5758  -15.4149   24.5502 C   0  0  0  0  0  0  0  0  0  0  0  0
   10.3433  -14.4839   24.9067 O   0  0  0  0  0  0  0  0  0  0  0  0
   10.3201  -12.7153   28.5631 C   0  0  0  0  0  0  0  0  0  0  0  0
   10.6482  -14.3374   29.3008 S   0  0  0  0  0  0  0  0  0  0  0  0
   11.4104  -15.3934   28.0047 C   0  0  0  0  0  0  0  0  0  0  0  0
   10.3349  -16.2728   27.4856 C   0  0  0  0  0  0  0  0  0  0  0  0
   10.7270  -16.9539   26.2032 C   0  0  2  0  0  0  0  0  0  0  0  0
    9.7504  -16.6684   25.1530 N   0  0  0  0  0  0  0  0  0  0  0  0
   10.9503  -18.3721   26.3850 C   0  0  0  0  0  0  0  0  0  0  0  0
   11.9640  -18.9251   27.1194 O   0  0  0  0  0  0  0  0  0  0  0  0
   10.1499  -19.1965   25.8216 O   0  0  0  0  0  0  0  0  0  0  0  0
  2  1  1  6
  2  3  1  0
  2  4  1  0
  4  5  1  1
  6  4  1  0
  6  7  2  0
  9  8  1  6
  9 10  1  0
  9 11  1  0
 12 11  1  1
 12 13  1  0
 12 14  1  0
 13  6  1  0
 14 15  2  0
 14 21  1  0
 16 17  1  0
 17 18  1  0
 19 18  1  0
 20 19  1  1
 20 22  1  0
 21 20  1  0
 22 24  2  0
 22 23  1  0
M  END
$$$$
