TLM.pdb
     RDKit          3D

 24 23  0  0  1  0  0  0  0  0999 V2000
    9.3023  -20.2385   18.2926 C   0  0  0  0  0  0  0  0  0  0  0  0
    9.5558  -18.7962   18.7237 C   0  0  1  0  0  0  0  0  0  0  0  0
    8.4585  -18.0024   18.3496 O   0  0  0  0  0  0  0  0  0  0  0  0
    9.7486  -18.7185   20.2212 C   0  0  2  0  0  0  0  0  0  0  0  0
    8.4732  -19.1131   20.8299 N   0  0  0  0  0  0  0  0  0  0  0  0
   10.0378  -17.2840   20.5612 C   0  0  0  0  0  0  0  0  0  0  0  0
   11.0752  -16.7138   20.1440 O   0  0  0  0  0  0  0  0  0  0  0  0
    6.4031  -13.1377   20.4606 C   0  0  0  0  0  0  0  0  0  0  0  0
    7.6790  -13.9343   20.4067 C   0  0  1  0  0  0  0  0  0  0  0  0
    8.6764  -13.0696   19.6184 C   0  0  0  0  0  0  0  0  0  0  0  0
    8.3108  -14.2296   21.7105 C   0  0  0  0  0  0  0  0  0  0  0  0
    9.4718  -15.1533   21.7267 C   0  0  2  0  0  0  0  0  0  0  0  0
    9.1605  -16.5063   21.3651 N   0  0  0  0  0  0  0  0  0  0  0  0
   10.2346  -15.0034   22.9819 C   0  0  0  0  0  0  0  0  0  0  0  0
   10.4823  -13.8287   23.3587 O   0  0  0  0  0  0  0  0  0  0  0  0
    9.6768  -12.9888   28.6948 C   0  0  0  0  0  0  0  0  0  0  0  0
    9.8198  -13.6428   27.0111 S   0  0  0  0  0  0  0  0  0  0  0  0
    8.9777  -15.2755   26.9757 C   0  0  0  0  0  0  0  0  0  0  0  0
    9.0884  -15.7813   25.5861 C   0  0  0  0  0  0  0  0  0  0  0  0
   10.5013  -16.1509   25.2265 C   0  0  2  0  0  0  0  0  0  0  0  0
   10.7032  -16.0552   23.7814 N   0  0  0  0  0  0  0  0  0  0  0  0
   10.8788  -17.4433   25.7569 C   0  0  0  0  0  0  0  0  0  0  0  0
   11.5476  -17.6507   26.9326 O   0  0  0  0  0  0  0  0  0  0  0  0
   10.5761  -18.4925   25.0898 O   0  0  0  0  0  0  0  0  0  0  0  0
  2  1  1  1
  2  3  1  0
  2  4  1  0
  4  5  1  1
  6  4  1  0
  6  7  2  0
  9  8  1  1
  9 10  1  0
  9 11  1  0
 12 11  1  1
 12 13  1  0
 12 14  1  0
 13  6  1  0
 14 15  2  0
 14 21  1  0
 16 17  1  0
 17 18  1  0
 19 18  1  0
 20 19  1  6
 20 22  1  0
 21 20  1  0
 22 24  2  0
 22 23  1  0
M  END
$$$$
