TLM.pdb
     RDKit          3D

 24 23  0  0  1  0  0  0  0  0999 V2000
    8.3161  -18.9815   21.5068 C   0  0  0  0  0  0  0  0  0  0  0  0
    9.1371  -18.2506   20.4475 C   0  0  1  0  0  0  0  0  0  0  0  0
    9.0412  -18.9437   19.2291 O   0  0  0  0  0  0  0  0  0  0  0  0
    8.6289  -16.8382   20.2669 C   0  0  2  0  0  0  0  0  0  0  0  0
    9.4016  -16.2513   19.1662 N   0  0  0  0  0  0  0  0  0  0  0  0
    8.9260  -16.0903   21.5355 C   0  0  0  0  0  0  0  0  0  0  0  0
   10.1062  -15.8347   21.8779 O   0  0  0  0  0  0  0  0  0  0  0  0
    7.9928  -12.1625   25.2209 C   0  0  0  0  0  0  0  0  0  0  0  0
    7.2688  -13.4599   25.4618 C   0  0  1  0  0  0  0  0  0  0  0  0
    5.8885  -13.0695   26.0153 C   0  0  0  0  0  0  0  0  0  0  0  0
    7.0261  -14.2951   24.2661 C   0  0  0  0  0  0  0  0  0  0  0  0
    8.1927  -14.9581   23.6330 C   0  0  2  0  0  0  0  0  0  0  0  0
    7.8962  -15.6382   22.4050 N   0  0  0  0  0  0  0  0  0  0  0  0
    8.9339  -15.7602   24.6265 C   0  0  0  0  0  0  0  0  0  0  0  0
    8.4139  -16.8509   24.9775 O   0  0  0  0  0  0  0  0  0  0  0  0
    9.7995  -12.7734   29.0382 C   0  0  0  0  0  0  0  0  0  0  0  0
   10.5990  -14.3005   29.5963 S   0  0  0  0  0  0  0  0  0  0  0  0
   10.2273  -15.6069   28.3588 C   0  0  0  0  0  0  0  0  0  0  0  0
   11.3126  -15.5580   27.3495 C   0  0  0  0  0  0  0  0  0  0  0  0
   10.9433  -16.2791   26.0822 C   0  0  2  0  0  0  0  0  0  0  0  0
   10.1600  -15.4077   25.2074 N   0  0  0  0  0  0  0  0  0  0  0  0
   10.2856  -17.5411   26.3447 C   0  0  0  0  0  0  0  0  0  0  0  0
    8.9609  -17.8032   26.1234 O   0  0  0  0  0  0  0  0  0  0  0  0
   10.9768  -18.5050   26.8249 O   0  0  0  0  0  0  0  0  0  0  0  0
  2  1  1  1
  2  3  1  0
  2  4  1  0
  4  5  1  6
  6  4  1  0
  6  7  2  0
  9  8  1  6
  9 10  1  0
  9 11  1  0
 12 11  1  1
 12 13  1  0
 12 14  1  0
 13  6  1  0
 14 15  2  0
 14 21  1  0
 16 17  1  0
 17 18  1  0
 19 18  1  0
 20 19  1  1
 20 22  1  0
 21 20  1  0
 22 24  2  0
 22 23  1  0
M  END
$$$$
