TLM.pdb
     RDKit          3D

 24 23  0  0  1  0  0  0  0  0999 V2000
    8.0388  -19.0336   19.3020 C   0  0  0  0  0  0  0  0  0  0  0  0
    8.4975  -18.2054   20.4996 C   0  0  1  0  0  0  0  0  0  0  0  0
    9.8046  -18.5839   20.8496 O   0  0  0  0  0  0  0  0  0  0  0  0
    8.4708  -16.7315   20.1639 C   0  0  2  0  0  0  0  0  0  0  0  0
    9.5058  -16.5136   19.1468 N   0  0  0  0  0  0  0  0  0  0  0  0
    8.8371  -15.9816   21.4131 C   0  0  0  0  0  0  0  0  0  0  0  0
   10.0324  -15.7061   21.6786 O   0  0  0  0  0  0  0  0  0  0  0  0
    8.0716  -12.0760   25.1741 C   0  0  0  0  0  0  0  0  0  0  0  0
    7.3936  -13.3912   25.4495 C   0  0  1  0  0  0  0  0  0  0  0  0
    6.0457  -13.0365   26.0987 C   0  0  0  0  0  0  0  0  0  0  0  0
    7.0888  -14.2207   24.2641 C   0  0  0  0  0  0  0  0  0  0  0  0
    8.2226  -14.8653   23.5567 C   0  0  2  0  0  0  0  0  0  0  0  0
    7.8586  -15.5497   22.3495 N   0  0  0  0  0  0  0  0  0  0  0  0
    9.0383  -15.6559   24.4997 C   0  0  0  0  0  0  0  0  0  0  0  0
    8.6463  -16.8257   24.7469 O   0  0  0  0  0  0  0  0  0  0  0  0
    9.4760  -13.6723   29.6898 C   0  0  0  0  0  0  0  0  0  0  0  0
   10.7641  -14.8453   30.1876 S   0  0  0  0  0  0  0  0  0  0  0  0
   11.2137  -15.8379   28.7082 C   0  0  0  0  0  0  0  0  0  0  0  0
   10.6468  -15.1319   27.5337 C   0  0  0  0  0  0  0  0  0  0  0  0
   10.8496  -15.8997   26.2564 C   0  0  2  0  0  0  0  0  0  0  0  0
   10.2047  -15.2125   25.1384 N   0  0  0  0  0  0  0  0  0  0  0  0
   10.4313  -17.2798   26.3774 C   0  0  0  0  0  0  0  0  0  0  0  0
    9.1675  -17.6981   26.6940 O   0  0  0  0  0  0  0  0  0  0  0  0
   11.2956  -18.2025   26.1792 O   0  0  0  0  0  0  0  0  0  0  0  0
  2  1  1  6
  2  3  1  0
  2  4  1  0
  4  5  1  6
  6  4  1  0
  6  7  2  0
  9  8  1  6
  9 10  1  0
  9 11  1  0
 12 11  1  1
 12 13  1  0
 12 14  1  0
 13  6  1  0
 14 15  2  0
 14 21  1  0
 16 17  1  0
 17 18  1  0
 19 18  1  0
 20 19  1  1
 20 22  1  0
 21 20  1  0
 22 24  2  0
 22 23  1  0
M  END
$$$$
