TLM.pdb
     RDKit          3D

 24 23  0  0  1  0  0  0  0  0999 V2000
    6.8492  -18.2094   19.3985 C   0  0  0  0  0  0  0  0  0  0  0  0
    7.6317  -17.6665   20.5915 C   0  0  1  0  0  0  0  0  0  0  0  0
    8.8278  -18.3910   20.7279 O   0  0  0  0  0  0  0  0  0  0  0  0
    7.9479  -16.2014   20.3934 C   0  0  2  0  0  0  0  0  0  0  0  0
    8.8990  -16.1240   19.2787 N   0  0  0  0  0  0  0  0  0  0  0  0
    8.6139  -15.7139   21.6487 C   0  0  0  0  0  0  0  0  0  0  0  0
    9.8621  -15.6042   21.7214 O   0  0  0  0  0  0  0  0  0  0  0  0
    5.9457  -12.5208   25.6266 C   0  0  0  0  0  0  0  0  0  0  0  0
    6.9273  -13.0665   24.6246 C   0  0  1  0  0  0  0  0  0  0  0  0
    8.0100  -11.9855   24.4716 C   0  0  0  0  0  0  0  0  0  0  0  0
    7.6227  -14.3117   25.0148 C   0  0  0  0  0  0  0  0  0  0  0  0
    8.5215  -14.9468   24.0197 C   0  0  2  0  0  0  0  0  0  0  0  0
    7.8724  -15.3554   22.8073 N   0  0  0  0  0  0  0  0  0  0  0  0
    9.3532  -15.9841   24.6617 C   0  0  0  0  0  0  0  0  0  0  0  0
    8.8434  -17.1285   24.7783 O   0  0  0  0  0  0  0  0  0  0  0  0
    9.4793  -13.4650   29.3390 C   0  0  0  0  0  0  0  0  0  0  0  0
   10.0008  -15.0033   30.1419 S   0  0  0  0  0  0  0  0  0  0  0  0
   10.9189  -15.9960   28.8978 C   0  0  0  0  0  0  0  0  0  0  0  0
   10.4681  -15.5293   27.5644 C   0  0  0  0  0  0  0  0  0  0  0  0
   11.1305  -16.2835   26.4443 C   0  0  2  0  0  0  0  0  0  0  0  0
   10.6543  -15.7990   25.1494 N   0  0  0  0  0  0  0  0  0  0  0  0
   10.9851  -17.7159   26.5904 C   0  0  0  0  0  0  0  0  0  0  0  0
   11.8646  -18.5374   27.2417 O   0  0  0  0  0  0  0  0  0  0  0  0
    9.9607  -18.2843   26.0755 O   0  0  0  0  0  0  0  0  0  0  0  0
  2  1  1  6
  2  3  1  0
  2  4  1  0
  4  5  1  6
  6  4  1  0
  6  7  2  0
  9  8  1  1
  9 10  1  0
  9 11  1  0
 12 11  1  1
 12 13  1  0
 12 14  1  0
 13  6  1  0
 14 15  2  0
 14 21  1  0
 16 17  1  0
 17 18  1  0
 19 18  1  0
 20 19  1  1
 20 22  1  0
 21 20  1  0
 22 24  2  0
 22 23  1  0
M  END
$$$$
