TLM.pdb
     RDKit          3D

 24 23  0  0  1  0  0  0  0  0999 V2000
    8.8101  -19.0287   18.7876 C   0  0  0  0  0  0  0  0  0  0  0  0
    9.2511  -17.8399   19.6378 C   0  0  1  0  0  0  0  0  0  0  0  0
    8.4218  -16.7402   19.3599 O   0  0  0  0  0  0  0  0  0  0  0  0
    9.1632  -18.1805   21.1082 C   0  0  2  0  0  0  0  0  0  0  0  0
    7.7373  -18.3305   21.4201 N   0  0  0  0  0  0  0  0  0  0  0  0
    9.7178  -17.0117   21.8719 C   0  0  0  0  0  0  0  0  0  0  0  0
   10.9314  -16.7010   21.7934 O   0  0  0  0  0  0  0  0  0  0  0  0
    6.3705  -13.6424   25.0329 C   0  0  0  0  0  0  0  0  0  0  0  0
    7.0304  -14.3674   23.8908 C   0  0  1  0  0  0  0  0  0  0  0  0
    6.1909  -14.0348   22.6463 C   0  0  0  0  0  0  0  0  0  0  0  0
    8.4196  -13.9629   23.5863 C   0  0  0  0  0  0  0  0  0  0  0  0
    9.4218  -15.0336   23.3614 C   0  0  2  0  0  0  0  0  0  0  0  0
    8.9051  -16.2054   22.7147 N   0  0  0  0  0  0  0  0  0  0  0  0
   10.1903  -15.2904   24.5956 C   0  0  0  0  0  0  0  0  0  0  0  0
   10.5996  -14.2834   25.2292 O   0  0  0  0  0  0  0  0  0  0  0  0
   10.2185  -13.4266   29.2079 C   0  0  0  0  0  0  0  0  0  0  0  0
   11.4876  -14.7109   29.3582 S   0  0  0  0  0  0  0  0  0  0  0  0
   10.7245  -16.3071   28.8623 C   0  0  0  0  0  0  0  0  0  0  0  0
   10.1914  -16.1162   27.4917 C   0  0  0  0  0  0  0  0  0  0  0  0
   11.0419  -16.7923   26.4517 C   0  0  2  0  0  0  0  0  0  0  0  0
   10.4999  -16.5553   25.1144 N   0  0  0  0  0  0  0  0  0  0  0  0
   11.2332  -18.1988   26.7336 C   0  0  0  0  0  0  0  0  0  0  0  0
   12.0074  -18.7048   27.7421 O   0  0  0  0  0  0  0  0  0  0  0  0
   10.6430  -19.0589   25.9924 O   0  0  0  0  0  0  0  0  0  0  0  0
  2  1  1  6
  2  3  1  0
  2  4  1  0
  4  5  1  1
  6  4  1  0
  6  7  2  0
  9  8  1  1
  9 10  1  0
  9 11  1  0
 12 11  1  1
 12 13  1  0
 12 14  1  0
 13  6  1  0
 14 15  2  0
 14 21  1  0
 16 17  1  0
 17 18  1  0
 19 18  1  0
 20 19  1  1
 20 22  1  0
 21 20  1  0
 22 24  2  0
 22 23  1  0
M  END
$$$$
