TLM.pdb
     RDKit          3D

 24 23  0  0  1  0  0  0  0  0999 V2000
    8.6206  -18.8502   21.5020 C   0  0  0  0  0  0  0  0  0  0  0  0
    9.1203  -17.8517   20.4609 C   0  0  1  0  0  0  0  0  0  0  0  0
    8.9360  -18.3918   19.1769 O   0  0  0  0  0  0  0  0  0  0  0  0
    8.3640  -16.5475   20.5741 C   0  0  2  0  0  0  0  0  0  0  0  0
    8.7886  -15.7162   19.4420 N   0  0  0  0  0  0  0  0  0  0  0  0
    8.7901  -15.8933   21.8575 C   0  0  0  0  0  0  0  0  0  0  0  0
    9.9548  -15.4492   22.0050 O   0  0  0  0  0  0  0  0  0  0  0  0
    5.5336  -12.9043   25.5865 C   0  0  0  0  0  0  0  0  0  0  0  0
    6.6340  -13.3964   24.6852 C   0  0  1  0  0  0  0  0  0  0  0  0
    7.7353  -12.3254   24.7503 C   0  0  0  0  0  0  0  0  0  0  0  0
    7.2631  -14.6766   25.0746 C   0  0  0  0  0  0  0  0  0  0  0  0
    8.3491  -15.2074   24.2142 C   0  0  2  0  0  0  0  0  0  0  0  0
    7.9053  -15.7449   22.9602 N   0  0  0  0  0  0  0  0  0  0  0  0
    9.2394  -16.0921   24.9916 C   0  0  0  0  0  0  0  0  0  0  0  0
    8.7878  -17.2264   25.2959 O   0  0  0  0  0  0  0  0  0  0  0  0
    9.7331  -13.4234   29.6822 C   0  0  0  0  0  0  0  0  0  0  0  0
   11.1415  -14.3916   30.2839 S   0  0  0  0  0  0  0  0  0  0  0  0
   11.4615  -15.7258   29.0618 C   0  0  0  0  0  0  0  0  0  0  0  0
   10.9624  -15.2342   27.7548 C   0  0  0  0  0  0  0  0  0  0  0  0
   11.1419  -16.2493   26.6595 C   0  0  2  0  0  0  0  0  0  0  0  0
   10.5366  -15.7732   25.4165 N   0  0  0  0  0  0  0  0  0  0  0  0
   10.6629  -17.5591   27.0459 C   0  0  0  0  0  0  0  0  0  0  0  0
    9.3820  -18.0123   26.8830 O   0  0  0  0  0  0  0  0  0  0  0  0
   11.4840  -18.3773   27.5881 O   0  0  0  0  0  0  0  0  0  0  0  0
  2  1  1  1
  2  3  1  0
  2  4  1  0
  4  5  1  6
  6  4  1  0
  6  7  2  0
  9  8  1  1
  9 10  1  0
  9 11  1  0
 12 11  1  1
 12 13  1  0
 12 14  1  0
 13  6  1  0
 14 15  2  0
 14 21  1  0
 16 17  1  0
 17 18  1  0
 19 18  1  0
 20 19  1  1
 20 22  1  0
 21 20  1  0
 22 24  2  0
 22 23  1  0
M  END
$$$$
