TLM.pdb
     RDKit          3D

 24 23  0  0  1  0  0  0  0  0999 V2000
    8.3942  -19.1880   21.9146 C   0  0  0  0  0  0  0  0  0  0  0  0
    9.2081  -18.5997   20.7648 C   0  0  1  0  0  0  0  0  0  0  0  0
    9.0658  -19.4184   19.6317 O   0  0  0  0  0  0  0  0  0  0  0  0
    8.7318  -17.2018   20.4415 C   0  0  2  0  0  0  0  0  0  0  0  0
    9.4928  -16.7599   19.2673 N   0  0  0  0  0  0  0  0  0  0  0  0
    9.0779  -16.3289   21.6142 C   0  0  0  0  0  0  0  0  0  0  0  0
   10.2588  -15.9578   21.8219 O   0  0  0  0  0  0  0  0  0  0  0  0
    8.2405  -12.1329   25.2403 C   0  0  0  0  0  0  0  0  0  0  0  0
    7.5927  -13.4757   25.4466 C   0  0  1  0  0  0  0  0  0  0  0  0
    6.2212  -13.1835   26.0774 C   0  0  0  0  0  0  0  0  0  0  0  0
    7.3374  -14.2640   24.2220 C   0  0  0  0  0  0  0  0  0  0  0  0
    8.4451  -15.0927   23.6855 C   0  0  2  0  0  0  0  0  0  0  0  0
    8.0958  -15.8828   22.5401 N   0  0  0  0  0  0  0  0  0  0  0  0
    9.1109  -15.8342   24.7748 C   0  0  0  0  0  0  0  0  0  0  0  0
    8.3668  -16.4642   25.5701 O   0  0  0  0  0  0  0  0  0  0  0  0
    9.5676  -13.5250   29.8028 C   0  0  0  0  0  0  0  0  0  0  0  0
   11.3060  -14.0169   29.6661 S   0  0  0  0  0  0  0  0  0  0  0  0
   11.3748  -15.5331   28.6305 C   0  0  0  0  0  0  0  0  0  0  0  0
   10.9201  -15.1429   27.2740 C   0  0  0  0  0  0  0  0  0  0  0  0
   11.1166  -16.2450   26.2696 C   0  0  2  0  0  0  0  0  0  0  0  0
   10.4942  -15.8921   24.9944 N   0  0  0  0  0  0  0  0  0  0  0  0
   10.6694  -17.5265   26.7715 C   0  0  0  0  0  0  0  0  0  0  0  0
    9.6151  -18.2451   26.2768 O   0  0  0  0  0  0  0  0  0  0  0  0
   11.2925  -18.0501   27.7590 O   0  0  0  0  0  0  0  0  0  0  0  0
  2  1  1  1
  2  3  1  0
  2  4  1  0
  4  5  1  6
  6  4  1  0
  6  7  2  0
  9  8  1  6
  9 10  1  0
  9 11  1  0
 12 11  1  1
 12 13  1  0
 12 14  1  0
 13  6  1  0
 14 15  2  0
 14 21  1  0
 16 17  1  0
 17 18  1  0
 19 18  1  0
 20 19  1  1
 20 22  1  0
 21 20  1  0
 22 24  2  0
 22 23  1  0
M  END
$$$$
