TLM.pdb
     RDKit          3D

 24 23  0  0  1  0  0  0  0  0999 V2000
    7.0666  -19.0372   23.3151 C   0  0  0  0  0  0  0  0  0  0  0  0
    7.6836  -19.6346   22.0530 C   0  0  1  0  0  0  0  0  0  0  0  0
    7.0687  -20.8675   21.7771 O   0  0  0  0  0  0  0  0  0  0  0  0
    7.4933  -18.7010   20.8791 C   0  0  2  0  0  0  0  0  0  0  0  0
    7.9000  -19.4442   19.6811 N   0  0  0  0  0  0  0  0  0  0  0  0
    8.4207  -17.5362   21.0791 C   0  0  0  0  0  0  0  0  0  0  0  0
    9.6453  -17.6287   20.8199 O   0  0  0  0  0  0  0  0  0  0  0  0
    6.7274  -12.2653   20.2714 C   0  0  0  0  0  0  0  0  0  0  0  0
    7.5391  -13.5324   20.3011 C   0  0  1  0  0  0  0  0  0  0  0  0
    8.6509  -13.3389   19.2568 C   0  0  0  0  0  0  0  0  0  0  0  0
    8.2092  -13.8395   21.5828 C   0  0  0  0  0  0  0  0  0  0  0  0
    8.8537  -15.1679   21.7293 C   0  0  2  0  0  0  0  0  0  0  0  0
    7.9639  -16.2817   21.5674 N   0  0  0  0  0  0  0  0  0  0  0  0
    9.6864  -15.2073   22.9479 C   0  0  0  0  0  0  0  0  0  0  0  0
   10.5943  -14.3415   23.0431 O   0  0  0  0  0  0  0  0  0  0  0  0
    6.1401  -12.2040   26.0646 C   0  0  0  0  0  0  0  0  0  0  0  0
    7.6744  -12.6352   26.9264 S   0  0  0  0  0  0  0  0  0  0  0  0
    7.8282  -14.4660   26.9049 C   0  0  0  0  0  0  0  0  0  0  0  0
    8.1138  -14.8526   25.5019 C   0  0  0  0  0  0  0  0  0  0  0  0
    9.3107  -15.7570   25.3939 C   0  0  2  0  0  0  0  0  0  0  0  0
    9.5498  -16.1247   23.9990 N   0  0  0  0  0  0  0  0  0  0  0  0
    9.2039  -16.9092   26.2629 C   0  0  0  0  0  0  0  0  0  0  0  0
    9.0331  -18.2012   25.8454 O   0  0  0  0  0  0  0  0  0  0  0  0
    9.2691  -16.7314   27.5284 O   0  0  0  0  0  0  0  0  0  0  0  0
  2  1  1  1
  2  3  1  0
  2  4  1  0
  4  5  1  6
  6  4  1  0
  6  7  2  0
  9  8  1  1
  9 10  1  0
  9 11  1  0
 12 11  1  1
 12 13  1  0
 12 14  1  0
 13  6  1  0
 14 15  2  0
 14 21  1  0
 16 17  1  0
 17 18  1  0
 19 18  1  0
 20 19  1  6
 20 22  1  0
 21 20  1  0
 22 24  2  0
 22 23  1  0
M  END
$$$$
