FCP.pdb
     RDKit          3D

 25 26  0  0  1  0  0  0  0  0999 V2000
   19.0896  -12.7550  -16.7179 N   0  0  0  0  0  0  0  0  0  0  0  0
   19.1919  -11.4455  -17.3126 C   0  0  1  0  0  0  0  0  0  0  0  0
   18.0682  -11.2729  -18.3121 C   0  0  0  0  0  0  0  0  0  0  0  0
   18.3445  -12.1566  -19.4553 C   0  0  0  0  0  0  0  0  0  0  0  0
   17.7665  -13.3986  -19.5503 C   0  0  0  0  0  0  0  0  0  0  0  0
   18.0188  -14.2417  -20.6232 C   0  0  0  0  0  0  0  0  0  0  0  0
   18.8666  -13.8373  -21.6239 C   0  0  0  0  0  0  0  0  0  0  0  0
   19.4648  -12.5832  -21.5507 C   0  0  0  0  0  0  0  0  0  0  0  0
   19.1928  -11.7546  -20.4586 C   0  0  0  0  0  0  0  0  0  0  0  0
   19.1593  -10.4113  -16.2555 C   0  0  0  0  0  0  0  0  0  0  0  0
   18.3883  -10.5373  -15.2697 O   0  0  0  0  0  0  0  0  0  0  0  0
   19.9780   -9.2553  -16.3036 N   0  0  0  0  0  0  0  0  0  0  0  0
   19.9707   -8.2592  -15.1848 C   0  0  1  0  0  0  0  0  0  0  0  0
   21.0078   -8.7677  -14.1968 C   0  0  0  0  0  0  0  0  0  0  0  0
   22.5911   -9.1973  -14.8687 S   0  0  0  0  0  0  0  0  0  0  0  0
   20.3059   -6.9700  -15.7945 C   0  0  0  0  0  0  0  0  0  0  0  0
   20.8937   -7.0108  -16.9366 O   0  0  0  0  0  0  0  0  0  0  0  0
   20.0701   -5.6776  -15.3024 N   0  0  0  0  0  0  0  0  0  0  0  0
   19.3894   -5.3254  -14.0333 C   0  0  0  0  0  0  0  0  0  0  0  0
   18.2764   -4.4427  -14.6181 C   0  0  0  0  0  0  0  0  0  0  0  0
   19.0758   -3.6186  -15.6330 C   0  0  0  0  0  0  0  0  0  0  0  0
   20.3622   -4.3707  -15.8496 C   0  0  1  0  0  0  0  0  0  0  0  0
   21.4315   -3.6692  -15.0390 C   0  0  0  0  0  0  0  0  0  0  0  0
   21.9038   -2.5824  -15.4522 O   0  0  0  0  0  0  0  0  0  0  0  0
   21.9229   -4.1721  -13.8515 O   0  0  0  0  0  0  0  0  0  0  0  0
  2  1  1  1
  2 10  1  0
  3  2  1  0
  4  5  2  0
  4  3  1  0
  6  5  1  0
  7  8  1  0
  7  6  2  0
  8  9  2  0
  9  4  1  0
 10 12  1  0
 10 11  2  0
 12 13  1  0
 13 14  1  1
 15 14  1  0
 16 13  1  0
 16 17  2  0
 18 22  1  0
 18 16  1  0
 19 20  1  0
 19 18  1  0
 20 21  1  0
 21 22  1  0
 22 23  1  1
 24 23  2  0
 25 23  1  0
M  END
$$$$
