FCP.pdb
     RDKit          3D

 25 26  0  0  1  0  0  0  0  0999 V2000
   28.3080  -20.9062   -8.7672 N   0  0  0  0  0  0  0  0  0  0  0  0
   26.8832  -20.7011   -8.6868 C   0  0  1  0  0  0  0  0  0  0  0  0
   26.6036  -19.5922   -7.6949 C   0  0  0  0  0  0  0  0  0  0  0  0
   27.5834  -19.7086   -6.6036 C   0  0  0  0  0  0  0  0  0  0  0  0
   27.9836  -20.9356   -6.1348 C   0  0  0  0  0  0  0  0  0  0  0  0
   28.9069  -21.0591   -5.1062 C   0  0  0  0  0  0  0  0  0  0  0  0
   29.4430  -19.9336   -4.5321 C   0  0  0  0  0  0  0  0  0  0  0  0
   29.0535  -18.6786   -4.9895 C   0  0  0  0  0  0  0  0  0  0  0  0
   28.1219  -18.5837   -6.0269 C   0  0  0  0  0  0  0  0  0  0  0  0
   26.3445  -20.3943  -10.0298 C   0  0  0  0  0  0  0  0  0  0  0  0
   26.6697  -19.3292  -10.6145 O   0  0  0  0  0  0  0  0  0  0  0  0
   25.4561  -21.2679  -10.7054 N   0  0  0  0  0  0  0  0  0  0  0  0
   25.0126  -20.9822  -12.1076 C   0  0  1  0  0  0  0  0  0  0  0  0
   25.7620  -21.9844  -12.9704 C   0  0  0  0  0  0  0  0  0  0  0  0
   27.4791  -22.2171  -12.5959 S   0  0  0  0  0  0  0  0  0  0  0  0
   23.5583  -21.1581  -12.1112 C   0  0  0  0  0  0  0  0  0  0  0  0
   23.0479  -21.7384  -11.0844 O   0  0  0  0  0  0  0  0  0  0  0  0
   22.6293  -20.7746  -13.0899 N   0  0  0  0  0  0  0  0  0  0  0  0
   22.9259  -20.0846  -14.3682 C   0  0  0  0  0  0  0  0  0  0  0  0
   22.0234  -18.8572  -14.1703 C   0  0  0  0  0  0  0  0  0  0  0  0
   20.7596  -19.5244  -13.6175 C   0  0  0  0  0  0  0  0  0  0  0  0
   21.1884  -20.8892  -13.1474 C   0  0  1  0  0  0  0  0  0  0  0  0
   20.7645  -21.8811  -14.2099 C   0  0  0  0  0  0  0  0  0  0  0  0
   19.5886  -22.3193  -14.2093 O   0  0  0  0  0  0  0  0  0  0  0  0
   21.6185  -22.3371  -15.1935 O   0  0  0  0  0  0  0  0  0  0  0  0
  2  1  1  6
  2 10  1  0
  3  2  1  0
  4  5  2  0
  4  3  1  0
  6  5  1  0
  7  8  1  0
  7  6  2  0
  8  9  2  0
  9  4  1  0
 10 12  1  0
 10 11  2  0
 12 13  1  0
 13 14  1  6
 15 14  1  0
 16 13  1  0
 16 17  2  0
 18 22  1  0
 18 16  1  0
 19 20  1  0
 19 18  1  0
 20 21  1  0
 21 22  1  0
 22 23  1  6
 24 23  2  0
 25 23  1  0
M  END
$$$$
