FCP.pdb
     RDKit          3D

 25 26  0  0  1  0  0  0  0  0999 V2000
   25.7837  -22.2493  -14.2539 N   0  0  0  0  0  0  0  0  0  0  0  0
   24.5386  -22.5900  -14.8962 C   0  0  1  0  0  0  0  0  0  0  0  0
   24.5750  -24.0512  -15.2901 C   0  0  0  0  0  0  0  0  0  0  0  0
   25.5197  -24.1912  -16.4090 C   0  0  0  0  0  0  0  0  0  0  0  0
   26.6942  -24.8881  -16.2655 C   0  0  0  0  0  0  0  0  0  0  0  0
   27.5937  -25.0274  -17.3130 C   0  0  0  0  0  0  0  0  0  0  0  0
   27.3158  -24.4591  -18.5309 C   0  0  0  0  0  0  0  0  0  0  0  0
   26.1322  -23.7479  -18.7017 C   0  0  0  0  0  0  0  0  0  0  0  0
   25.2443  -23.6233  -17.6295 C   0  0  0  0  0  0  0  0  0  0  0  0
   23.4086  -22.2861  -13.9914 C   0  0  0  0  0  0  0  0  0  0  0  0
   23.5004  -22.5270  -12.7603 O   0  0  0  0  0  0  0  0  0  0  0  0
   22.1959  -21.7215  -14.4601 N   0  0  0  0  0  0  0  0  0  0  0  0
   21.0675  -21.4303  -13.5187 C   0  0  1  0  0  0  0  0  0  0  0  0
   20.5795  -20.0435  -13.9047 C   0  0  0  0  0  0  0  0  0  0  0  0
   21.1897  -18.6945  -12.9297 S   0  0  0  0  0  0  0  0  0  0  0  0
   20.0824  -22.4931  -13.7337 C   0  0  0  0  0  0  0  0  0  0  0  0
   20.0770  -23.0444  -14.8946 O   0  0  0  0  0  0  0  0  0  0  0  0
   19.1318  -23.0044  -12.8376 N   0  0  0  0  0  0  0  0  0  0  0  0
   18.9605  -22.6199  -11.4160 C   0  0  0  0  0  0  0  0  0  0  0  0
   19.1265  -24.0129  -10.7898 C   0  0  0  0  0  0  0  0  0  0  0  0
   18.2784  -24.8547  -11.7489 C   0  0  0  0  0  0  0  0  0  0  0  0
   18.1123  -24.0192  -12.9906 C   0  0  1  0  0  0  0  0  0  0  0  0
   16.7273  -23.4098  -12.9368 C   0  0  0  0  0  0  0  0  0  0  0  0
   15.7261  -24.1365  -13.1477 O   0  0  0  0  0  0  0  0  0  0  0  0
   16.5053  -22.0750  -12.6656 O   0  0  0  0  0  0  0  0  0  0  0  0
  2  1  1  1
  2 10  1  0
  3  2  1  0
  4  5  2  0
  4  3  1  0
  6  5  1  0
  7  8  1  0
  7  6  2  0
  8  9  2  0
  9  4  1  0
 10 12  1  0
 10 11  2  0
 12 13  1  0
 13 14  1  6
 15 14  1  0
 16 13  1  0
 16 17  2  0
 18 22  1  0
 18 16  1  0
 19 20  1  0
 19 18  1  0
 20 21  1  0
 21 22  1  0
 22 23  1  1
 24 23  2  0
 25 23  1  0
M  END
$$$$
