FCP.pdb
     RDKit          3D

 25 26  0  0  1  0  0  0  0  0999 V2000
   25.4151  -22.2050  -19.3445 N   0  0  0  0  0  0  0  0  0  0  0  0
   24.8934  -21.1112  -18.5632 C   0  0  1  0  0  0  0  0  0  0  0  0
   23.4393  -21.3869  -18.2452 C   0  0  0  0  0  0  0  0  0  0  0  0
   22.6424  -21.0062  -19.4217 C   0  0  0  0  0  0  0  0  0  0  0  0
   22.4881  -19.6897  -19.7807 C   0  0  0  0  0  0  0  0  0  0  0  0
   21.7392  -19.3174  -20.8881 C   0  0  0  0  0  0  0  0  0  0  0  0
   21.1305  -20.2794  -21.6547 C   0  0  0  0  0  0  0  0  0  0  0  0
   21.2718  -21.6204  -21.3117 C   0  0  0  0  0  0  0  0  0  0  0  0
   22.0318  -21.9669  -20.1912 C   0  0  0  0  0  0  0  0  0  0  0  0
   25.7065  -20.9368  -17.3400 C   0  0  0  0  0  0  0  0  0  0  0  0
   26.2840  -21.9243  -16.8170 O   0  0  0  0  0  0  0  0  0  0  0  0
   25.8691  -19.6756  -16.7140 N   0  0  0  0  0  0  0  0  0  0  0  0
   26.4506  -19.5681  -15.3375 C   0  0  1  0  0  0  0  0  0  0  0  0
   26.6883  -18.0820  -15.1245 C   0  0  0  0  0  0  0  0  0  0  0  0
   26.6397  -17.5093  -13.4475 S   0  0  0  0  0  0  0  0  0  0  0  0
   25.4541  -20.1505  -14.4354 C   0  0  0  0  0  0  0  0  0  0  0  0
   24.2829  -20.3497  -14.9257 O   0  0  0  0  0  0  0  0  0  0  0  0
   25.5998  -20.5302  -13.0928 N   0  0  0  0  0  0  0  0  0  0  0  0
   26.8039  -20.3460  -12.2477 C   0  0  0  0  0  0  0  0  0  0  0  0
   27.0249  -21.8150  -11.8563 C   0  0  0  0  0  0  0  0  0  0  0  0
   25.5873  -22.2404  -11.5397 C   0  0  0  0  0  0  0  0  0  0  0  0
   24.7024  -21.2037  -12.1797 C   0  0  1  0  0  0  0  0  0  0  0  0
   24.2433  -20.2686  -11.0809 C   0  0  0  0  0  0  0  0  0  0  0  0
   24.8497  -19.1846  -10.9015 O   0  0  0  0  0  0  0  0  0  0  0  0
   23.1770  -20.5520  -10.2519 O   0  0  0  0  0  0  0  0  0  0  0  0
  2  1  1  1
  2 10  1  0
  3  2  1  0
  4  5  2  0
  4  3  1  0
  6  5  1  0
  7  8  1  0
  7  6  2  0
  8  9  2  0
  9  4  1  0
 10 12  1  0
 10 11  2  0
 12 13  1  0
 13 14  1  1
 15 14  1  0
 16 13  1  0
 16 17  2  0
 18 22  1  0
 18 16  1  0
 19 20  1  0
 19 18  1  0
 20 21  1  0
 21 22  1  0
 22 23  1  1
 24 23  2  0
 25 23  1  0
M  END
$$$$
