FCP.pdb
     RDKit          3D

 25 26  0  0  1  0  0  0  0  0999 V2000
   27.4677  -21.7238   -7.9096 N   0  0  0  0  0  0  0  0  0  0  0  0
   26.9565  -20.5862   -8.6330 C   0  0  1  0  0  0  0  0  0  0  0  0
   27.6982  -19.3460   -8.1820 C   0  0  0  0  0  0  0  0  0  0  0  0
   27.7881  -19.3856   -6.7141 C   0  0  0  0  0  0  0  0  0  0  0  0
   28.9779  -19.6493   -6.0812 C   0  0  0  0  0  0  0  0  0  0  0  0
   29.0761  -19.6895   -4.6976 C   0  0  0  0  0  0  0  0  0  0  0  0
   27.9629  -19.4617   -3.9278 C   0  0  0  0  0  0  0  0  0  0  0  0
   26.7456  -19.1923   -4.5454 C   0  0  0  0  0  0  0  0  0  0  0  0
   26.6755  -19.1580   -5.9408 C   0  0  0  0  0  0  0  0  0  0  0  0
   27.0910  -20.8160  -10.0880 C   0  0  0  0  0  0  0  0  0  0  0  0
   28.1448  -21.3196  -10.5549 O   0  0  0  0  0  0  0  0  0  0  0  0
   26.0606  -20.4864  -11.0037 N   0  0  0  0  0  0  0  0  0  0  0  0
   26.2357  -20.7123  -12.4742 C   0  0  1  0  0  0  0  0  0  0  0  0
   25.5776  -22.0548  -12.7483 C   0  0  0  0  0  0  0  0  0  0  0  0
   25.1626  -22.3980  -14.4373 S   0  0  0  0  0  0  0  0  0  0  0  0
   25.5823  -19.5792  -13.1339 C   0  0  0  0  0  0  0  0  0  0  0  0
   24.5517  -19.0880  -12.5439 O   0  0  0  0  0  0  0  0  0  0  0  0
   25.9289  -18.9427  -14.3351 N   0  0  0  0  0  0  0  0  0  0  0  0
   27.0750  -19.2772  -15.2141 C   0  0  0  0  0  0  0  0  0  0  0  0
   27.7593  -17.9018  -15.2164 C   0  0  0  0  0  0  0  0  0  0  0  0
   26.5449  -16.9844  -15.3947 C   0  0  0  0  0  0  0  0  0  0  0  0
   25.3444  -17.8181  -15.0324 C   0  0  1  0  0  0  0  0  0  0  0  0
   24.6993  -18.2592  -16.3293 C   0  0  0  0  0  0  0  0  0  0  0  0
   24.9887  -19.3815  -16.8106 O   0  0  0  0  0  0  0  0  0  0  0  0
   23.7967  -17.4777  -17.0216 O   0  0  0  0  0  0  0  0  0  0  0  0
  2  1  1  1
  2 10  1  0
  3  2  1  0
  4  5  2  0
  4  3  1  0
  6  5  1  0
  7  8  1  0
  7  6  2  0
  8  9  2  0
  9  4  1  0
 10 12  1  0
 10 11  2  0
 12 13  1  0
 13 14  1  6
 15 14  1  0
 16 13  1  0
 16 17  2  0
 18 22  1  0
 18 16  1  0
 19 20  1  0
 19 18  1  0
 20 21  1  0
 21 22  1  0
 22 23  1  6
 24 23  2  0
 25 23  1  0
M  END
$$$$
