FCP.pdb
     RDKit          3D

 25 26  0  0  1  0  0  0  0  0999 V2000
   20.0306  -18.8016  -14.9275 N   0  0  0  0  0  0  0  0  0  0  0  0
   21.1011  -19.2504  -15.7827 C   0  0  1  0  0  0  0  0  0  0  0  0
   21.0737  -18.4452  -17.0644 C   0  0  0  0  0  0  0  0  0  0  0  0
   20.0710  -19.0513  -17.9540 C   0  0  0  0  0  0  0  0  0  0  0  0
   18.9004  -18.3996  -18.2550 C   0  0  0  0  0  0  0  0  0  0  0  0
   17.9467  -18.9604  -19.0926 C   0  0  0  0  0  0  0  0  0  0  0  0
   18.1651  -20.1988  -19.6424 C   0  0  0  0  0  0  0  0  0  0  0  0
   19.3435  -20.8794  -19.3527 C   0  0  0  0  0  0  0  0  0  0  0  0
   20.2868  -20.2910  -18.5058 C   0  0  0  0  0  0  0  0  0  0  0  0
   22.3939  -19.1249  -15.0749 C   0  0  0  0  0  0  0  0  0  0  0  0
   22.9905  -18.0182  -15.0372 O   0  0  0  0  0  0  0  0  0  0  0  0
   23.0070  -20.2225  -14.4206 N   0  0  0  0  0  0  0  0  0  0  0  0
   24.3735  -20.0958  -13.8200 C   0  0  1  0  0  0  0  0  0  0  0  0
   24.4257  -21.1549  -12.7310 C   0  0  0  0  0  0  0  0  0  0  0  0
   23.3634  -20.9014  -11.3346 S   0  0  0  0  0  0  0  0  0  0  0  0
   25.3160  -20.3197  -14.9189 C   0  0  0  0  0  0  0  0  0  0  0  0
   24.8080  -20.6479  -16.0529 O   0  0  0  0  0  0  0  0  0  0  0  0
   26.7155  -20.2224  -14.9097 N   0  0  0  0  0  0  0  0  0  0  0  0
   27.5712  -19.8939  -13.7445 C   0  0  0  0  0  0  0  0  0  0  0  0
   28.2870  -18.6697  -14.3353 C   0  0  0  0  0  0  0  0  0  0  0  0
   28.6013  -19.1817  -15.7450 C   0  0  0  0  0  0  0  0  0  0  0  0
   27.6977  -20.3664  -15.9620 C   0  0  1  0  0  0  0  0  0  0  0  0
   28.5355  -21.6107  -15.7561 C   0  0  0  0  0  0  0  0  0  0  0  0
   29.3466  -21.9615  -16.6472 O   0  0  0  0  0  0  0  0  0  0  0  0
   28.4507  -22.3927  -14.6221 O   0  0  0  0  0  0  0  0  0  0  0  0
  2  1  1  1
  2 10  1  0
  3  2  1  0
  4  5  2  0
  4  3  1  0
  6  5  1  0
  7  8  1  0
  7  6  2  0
  8  9  2  0
  9  4  1  0
 10 12  1  0
 10 11  2  0
 12 13  1  0
 13 14  1  1
 15 14  1  0
 16 13  1  0
 16 17  2  0
 18 22  1  0
 18 16  1  0
 19 20  1  0
 19 18  1  0
 20 21  1  0
 21 22  1  0
 22 23  1  1
 24 23  2  0
 25 23  1  0
M  END
$$$$
