FCP.pdb
     RDKit          3D

 25 26  0  0  1  0  0  0  0  0999 V2000
   18.9606  -12.9090  -17.5927 N   0  0  0  0  0  0  0  0  0  0  0  0
   19.6760  -11.6961  -17.9022 C   0  0  1  0  0  0  0  0  0  0  0  0
   18.9973  -11.0121  -19.0698 C   0  0  0  0  0  0  0  0  0  0  0  0
   19.2018  -11.8499  -20.2616 C   0  0  0  0  0  0  0  0  0  0  0  0
   20.3756  -11.8012  -20.9725 C   0  0  0  0  0  0  0  0  0  0  0  0
   20.5810  -12.5862  -22.0982 C   0  0  0  0  0  0  0  0  0  0  0  0
   19.5938  -13.4390  -22.5246 C   0  0  0  0  0  0  0  0  0  0  0  0
   18.3952  -13.5067  -21.8212 C   0  0  0  0  0  0  0  0  0  0  0  0
   18.2153  -12.7047  -20.6908 C   0  0  0  0  0  0  0  0  0  0  0  0
   19.7320  -10.8283  -16.7056 C   0  0  0  0  0  0  0  0  0  0  0  0
   18.8068  -10.8631  -15.8541 O   0  0  0  0  0  0  0  0  0  0  0  0
   20.8078   -9.9365  -16.4684 N   0  0  0  0  0  0  0  0  0  0  0  0
   20.8093   -9.0318  -15.2744 C   0  0  1  0  0  0  0  0  0  0  0  0
   21.8625   -9.6094  -14.3430 C   0  0  0  0  0  0  0  0  0  0  0  0
   22.1920   -8.6924  -12.8620 S   0  0  0  0  0  0  0  0  0  0  0  0
   21.1286   -7.6962  -15.7846 C   0  0  0  0  0  0  0  0  0  0  0  0
   21.8986   -7.6434  -16.8122 O   0  0  0  0  0  0  0  0  0  0  0  0
   20.7044   -6.4479  -15.3052 N   0  0  0  0  0  0  0  0  0  0  0  0
   19.7212   -6.2043  -14.2227 C   0  0  0  0  0  0  0  0  0  0  0  0
   18.7277   -5.3432  -15.0174 C   0  0  0  0  0  0  0  0  0  0  0  0
   19.6940   -4.4232  -15.7710 C   0  0  0  0  0  0  0  0  0  0  0  0
   21.0383   -5.0985  -15.7055 C   0  0  1  0  0  0  0  0  0  0  0  0
   21.8393   -4.3956  -14.6300 C   0  0  0  0  0  0  0  0  0  0  0  0
   22.2900   -3.2452  -14.8505 O   0  0  0  0  0  0  0  0  0  0  0  0
   22.1054   -4.9641  -13.4009 O   0  0  0  0  0  0  0  0  0  0  0  0
  2  1  1  1
  2 10  1  0
  3  2  1  0
  4  5  2  0
  4  3  1  0
  6  5  1  0
  7  8  1  0
  7  6  2  0
  8  9  2  0
  9  4  1  0
 10 12  1  0
 10 11  2  0
 12 13  1  0
 13 14  1  1
 15 14  1  0
 16 13  1  0
 16 17  2  0
 18 22  1  0
 18 16  1  0
 19 20  1  0
 19 18  1  0
 20 21  1  0
 21 22  1  0
 22 23  1  1
 24 23  2  0
 25 23  1  0
M  END
$$$$
