FCP.pdb
     RDKit          3D

 25 26  0  0  1  0  0  0  0  0999 V2000
   24.0287  -12.9541  -17.4090 N   0  0  0  0  0  0  0  0  0  0  0  0
   24.1139  -11.7344  -16.6448 C   0  0  1  0  0  0  0  0  0  0  0  0
   25.3121  -10.9413  -17.1211 C   0  0  0  0  0  0  0  0  0  0  0  0
   26.5230  -11.6831  -16.7369 C   0  0  0  0  0  0  0  0  0  0  0  0
   27.2118  -12.4426  -17.6504 C   0  0  0  0  0  0  0  0  0  0  0  0
   28.3552  -13.1470  -17.3008 C   0  0  0  0  0  0  0  0  0  0  0  0
   28.8222  -13.0929  -16.0114 C   0  0  0  0  0  0  0  0  0  0  0  0
   28.1419  -12.3303  -15.0672 C   0  0  0  0  0  0  0  0  0  0  0  0
   26.9930  -11.6309  -15.4468 C   0  0  0  0  0  0  0  0  0  0  0  0
   22.8537  -10.9712  -16.7774 C   0  0  0  0  0  0  0  0  0  0  0  0
   22.3370  -10.7936  -17.9103 O   0  0  0  0  0  0  0  0  0  0  0  0
   22.1847  -10.4165  -15.6577 N   0  0  0  0  0  0  0  0  0  0  0  0
   20.8977   -9.6678  -15.8226 C   0  0  1  0  0  0  0  0  0  0  0  0
   20.0541  -10.0639  -14.6218 C   0  0  0  0  0  0  0  0  0  0  0  0
   18.2984  -10.0866  -14.8660 S   0  0  0  0  0  0  0  0  0  0  0  0
   21.2614   -8.2492  -15.8573 C   0  0  0  0  0  0  0  0  0  0  0  0
   22.3683   -7.9265  -15.2896 O   0  0  0  0  0  0  0  0  0  0  0  0
   20.5639   -7.1772  -16.4336 N   0  0  0  0  0  0  0  0  0  0  0  0
   19.2793   -7.2520  -17.1699 C   0  0  0  0  0  0  0  0  0  0  0  0
   19.7447   -6.6181  -18.4896 C   0  0  0  0  0  0  0  0  0  0  0  0
   20.5727   -5.4427  -17.9596 C   0  0  0  0  0  0  0  0  0  0  0  0
   20.8674   -5.7653  -16.5186 C   0  0  1  0  0  0  0  0  0  0  0  0
   19.9093   -4.9521  -15.6740 C   0  0  0  0  0  0  0  0  0  0  0  0
   18.8258   -5.4661  -15.3043 O   0  0  0  0  0  0  0  0  0  0  0  0
   20.1690   -3.6537  -15.2852 O   0  0  0  0  0  0  0  0  0  0  0  0
  2  1  1  6
  2 10  1  0
  3  2  1  0
  4  5  2  0
  4  3  1  0
  6  5  1  0
  7  8  1  0
  7  6  2  0
  8  9  2  0
  9  4  1  0
 10 12  1  0
 10 11  2  0
 12 13  1  0
 13 14  1  1
 15 14  1  0
 16 13  1  0
 16 17  2  0
 18 22  1  0
 18 16  1  0
 19 20  1  0
 19 18  1  0
 20 21  1  0
 21 22  1  0
 22 23  1  1
 24 23  2  0
 25 23  1  0
M  END
$$$$
