FCP.pdb
     RDKit          3D

 25 26  0  0  1  0  0  0  0  0999 V2000
   17.1374  -12.8424  -16.0885 N   0  0  0  0  0  0  0  0  0  0  0  0
   16.9810  -11.4903  -15.6130 C   0  0  1  0  0  0  0  0  0  0  0  0
   16.4991  -11.5287  -14.1785 C   0  0  0  0  0  0  0  0  0  0  0  0
   15.0923  -11.9589  -14.1889 C   0  0  0  0  0  0  0  0  0  0  0  0
   14.7490  -13.2737  -13.9915 C   0  0  0  0  0  0  0  0  0  0  0  0
   13.4260  -13.6924  -13.9990 C   0  0  0  0  0  0  0  0  0  0  0  0
   12.4228  -12.7794  -14.2079 C   0  0  0  0  0  0  0  0  0  0  0  0
   12.7449  -11.4411  -14.4103 C   0  0  0  0  0  0  0  0  0  0  0  0
   14.0858  -11.0472  -14.3977 C   0  0  0  0  0  0  0  0  0  0  0  0
   18.2599  -10.7599  -15.7504 C   0  0  0  0  0  0  0  0  0  0  0  0
   19.3527  -11.3802  -15.6950 O   0  0  0  0  0  0  0  0  0  0  0  0
   18.3119   -9.3571  -15.9466 N   0  0  0  0  0  0  0  0  0  0  0  0
   19.6218   -8.6522  -16.1240 C   0  0  1  0  0  0  0  0  0  0  0  0
   19.8189   -8.5582  -17.6282 C   0  0  0  0  0  0  0  0  0  0  0  0
   21.0865   -7.4528  -18.1886 S   0  0  0  0  0  0  0  0  0  0  0  0
   19.4724   -7.3562  -15.4574 C   0  0  0  0  0  0  0  0  0  0  0  0
   18.2831   -6.8722  -15.4036 O   0  0  0  0  0  0  0  0  0  0  0  0
   20.4578   -6.5579  -14.8577 N   0  0  0  0  0  0  0  0  0  0  0  0
   21.9111   -6.8445  -14.7962 C   0  0  0  0  0  0  0  0  0  0  0  0
   22.0795   -6.8017  -13.2698 C   0  0  0  0  0  0  0  0  0  0  0  0
   21.2492   -5.5593  -12.9306 C   0  0  0  0  0  0  0  0  0  0  0  0
   20.3753   -5.3097  -14.1312 C   0  0  1  0  0  0  0  0  0  0  0  0
   21.0082   -4.1810  -14.9173 C   0  0  0  0  0  0  0  0  0  0  0  0
   21.7417   -4.4502  -15.8994 O   0  0  0  0  0  0  0  0  0  0  0  0
   20.8191   -2.8504  -14.6036 O   0  0  0  0  0  0  0  0  0  0  0  0
  2  1  1  1
  2 10  1  0
  3  2  1  0
  4  5  2  0
  4  3  1  0
  6  5  1  0
  7  8  1  0
  7  6  2  0
  8  9  2  0
  9  4  1  0
 10 12  1  0
 10 11  2  0
 12 13  1  0
 13 14  1  6
 15 14  1  0
 16 13  1  0
 16 17  2  0
 18 22  1  0
 18 16  1  0
 19 20  1  0
 19 18  1  0
 20 21  1  0
 21 22  1  0
 22 23  1  6
 24 23  2  0
 25 23  1  0
M  END
$$$$
