FCP.pdb
     RDKit          3D

 25 26  0  0  1  0  0  0  0  0999 V2000
   23.6329  -19.6174  -14.3374 N   0  0  0  0  0  0  0  0  0  0  0  0
   23.7767  -20.5577  -13.2539 C   0  0  1  0  0  0  0  0  0  0  0  0
   23.8253  -21.9587  -13.8252 C   0  0  0  0  0  0  0  0  0  0  0  0
   22.4536  -22.3406  -14.1951 C   0  0  0  0  0  0  0  0  0  0  0  0
   21.5765  -22.8350  -13.2613 C   0  0  0  0  0  0  0  0  0  0  0  0
   20.2802  -23.1988  -13.5972 C   0  0  0  0  0  0  0  0  0  0  0  0
   19.8487  -23.0666  -14.8934 C   0  0  0  0  0  0  0  0  0  0  0  0
   20.7186  -22.5681  -15.8581 C   0  0  0  0  0  0  0  0  0  0  0  0
   22.0188  -22.2095  -15.4918 C   0  0  0  0  0  0  0  0  0  0  0  0
   24.9878  -20.2354  -12.4682 C   0  0  0  0  0  0  0  0  0  0  0  0
   26.0411  -19.8686  -13.0498 O   0  0  0  0  0  0  0  0  0  0  0  0
   25.0166  -20.3231  -11.0539 N   0  0  0  0  0  0  0  0  0  0  0  0
   26.2198  -19.8800  -10.2791 C   0  0  1  0  0  0  0  0  0  0  0  0
   25.6623  -19.1685   -9.0571 C   0  0  0  0  0  0  0  0  0  0  0  0
   26.8346  -18.7146   -7.8072 S   0  0  0  0  0  0  0  0  0  0  0  0
   26.9695  -21.1005   -9.9714 C   0  0  0  0  0  0  0  0  0  0  0  0
   26.2864  -22.1849   -9.8762 O   0  0  0  0  0  0  0  0  0  0  0  0
   28.3484  -21.2562   -9.7656 N   0  0  0  0  0  0  0  0  0  0  0  0
   29.3901  -20.2144   -9.9306 C   0  0  0  0  0  0  0  0  0  0  0  0
   30.2699  -20.9436  -10.9574 C   0  0  0  0  0  0  0  0  0  0  0  0
   30.2944  -22.3526  -10.3557 C   0  0  0  0  0  0  0  0  0  0  0  0
   29.1419  -22.4054   -9.3881 C   0  0  1  0  0  0  0  0  0  0  0  0
   29.7176  -22.2348   -7.9981 C   0  0  0  0  0  0  0  0  0  0  0  0
   29.6099  -21.1268   -7.4187 O   0  0  0  0  0  0  0  0  0  0  0  0
   30.3667  -23.2501   -7.3255 O   0  0  0  0  0  0  0  0  0  0  0  0
  2  1  1  6
  2 10  1  0
  3  2  1  0
  4  5  2  0
  4  3  1  0
  6  5  1  0
  7  8  1  0
  7  6  2  0
  8  9  2  0
  9  4  1  0
 10 12  1  0
 10 11  2  0
 12 13  1  0
 13 14  1  1
 15 14  1  0
 16 13  1  0
 16 17  2  0
 18 22  1  0
 18 16  1  0
 19 20  1  0
 19 18  1  0
 20 21  1  0
 21 22  1  0
 22 23  1  1
 24 23  2  0
 25 23  1  0
M  END
$$$$
