FCP.pdb
     RDKit          3D

 25 26  0  0  1  0  0  0  0  0999 V2000
   25.0698  -12.3956  -18.9454 N   0  0  0  0  0  0  0  0  0  0  0  0
   24.5456  -11.9189  -17.6897 C   0  0  1  0  0  0  0  0  0  0  0  0
   25.6509  -11.9476  -16.6557 C   0  0  0  0  0  0  0  0  0  0  0  0
   25.9478  -13.3567  -16.3548 C   0  0  0  0  0  0  0  0  0  0  0  0
   26.9789  -14.0153  -16.9781 C   0  0  0  0  0  0  0  0  0  0  0  0
   27.2692  -15.3441  -16.7033 C   0  0  0  0  0  0  0  0  0  0  0  0
   26.5143  -16.0317  -15.7862 C   0  0  0  0  0  0  0  0  0  0  0  0
   25.4639  -15.3865  -15.1410 C   0  0  0  0  0  0  0  0  0  0  0  0
   25.1938  -14.0476  -15.4372 C   0  0  0  0  0  0  0  0  0  0  0  0
   23.9829  -10.5622  -17.8643 C   0  0  0  0  0  0  0  0  0  0  0  0
   24.6797   -9.6485  -18.3762 O   0  0  0  0  0  0  0  0  0  0  0  0
   22.6608  -10.2359  -17.4713 N   0  0  0  0  0  0  0  0  0  0  0  0
   22.1086   -8.8610  -17.6923 C   0  0  1  0  0  0  0  0  0  0  0  0
   20.6011   -9.0459  -17.7514 C   0  0  0  0  0  0  0  0  0  0  0  0
   19.6211   -7.5763  -17.6013 S   0  0  0  0  0  0  0  0  0  0  0  0
   22.5694   -8.0574  -16.5575 C   0  0  0  0  0  0  0  0  0  0  0  0
   22.8622   -8.6976  -15.4822 O   0  0  0  0  0  0  0  0  0  0  0  0
   22.7420   -6.6675  -16.4776 N   0  0  0  0  0  0  0  0  0  0  0  0
   22.5163   -5.6847  -17.5644 C   0  0  0  0  0  0  0  0  0  0  0  0
   23.9173   -5.0549  -17.5860 C   0  0  0  0  0  0  0  0  0  0  0  0
   24.1797   -4.9025  -16.0840 C   0  0  0  0  0  0  0  0  0  0  0  0
   23.1944   -5.8136  -15.4010 C   0  0  1  0  0  0  0  0  0  0  0  0
   22.0661   -4.9454  -14.8858 C   0  0  0  0  0  0  0  0  0  0  0  0
   21.0574   -4.7539  -15.6076 O   0  0  0  0  0  0  0  0  0  0  0  0
   22.0906   -4.3423  -13.6447 O   0  0  0  0  0  0  0  0  0  0  0  0
  2  1  1  6
  2 10  1  0
  3  2  1  0
  4  5  2  0
  4  3  1  0
  6  5  1  0
  7  8  1  0
  7  6  2  0
  8  9  2  0
  9  4  1  0
 10 12  1  0
 10 11  2  0
 12 13  1  0
 13 14  1  1
 15 14  1  0
 16 13  1  0
 16 17  2  0
 18 22  1  0
 18 16  1  0
 19 20  1  0
 19 18  1  0
 20 21  1  0
 21 22  1  0
 22 23  1  6
 24 23  2  0
 25 23  1  0
M  END
$$$$
