FCP.pdb
     RDKit          3D

 25 26  0  0  1  0  0  0  0  0999 V2000
   28.3031  -18.8137  -16.2591 N   0  0  0  0  0  0  0  0  0  0  0  0
   27.5002  -18.4649  -15.1135 C   0  0  1  0  0  0  0  0  0  0  0  0
   26.2286  -17.7974  -15.5922 C   0  0  0  0  0  0  0  0  0  0  0  0
   26.5764  -16.4418  -16.0454 C   0  0  0  0  0  0  0  0  0  0  0  0
   26.4861  -16.0893  -17.3696 C   0  0  0  0  0  0  0  0  0  0  0  0
   26.8111  -14.8142  -17.8100 C   0  0  0  0  0  0  0  0  0  0  0  0
   27.2358  -13.8692  -16.9099 C   0  0  0  0  0  0  0  0  0  0  0  0
   27.3358  -14.2017  -15.5625 C   0  0  0  0  0  0  0  0  0  0  0  0
   27.0019  -15.4936  -15.1467 C   0  0  0  0  0  0  0  0  0  0  0  0
   27.2239  -19.6746  -14.3083 C   0  0  0  0  0  0  0  0  0  0  0  0
   27.1449  -20.8005  -14.8634 O   0  0  0  0  0  0  0  0  0  0  0  0
   27.0394  -19.6219  -12.9040 N   0  0  0  0  0  0  0  0  0  0  0  0
   26.3102  -20.7129  -12.1815 C   0  0  1  0  0  0  0  0  0  0  0  0
   26.4342  -20.3618  -10.7078 C   0  0  0  0  0  0  0  0  0  0  0  0
   25.1764  -21.0048   -9.6367 S   0  0  0  0  0  0  0  0  0  0  0  0
   24.9370  -20.6823  -12.6910 C   0  0  0  0  0  0  0  0  0  0  0  0
   24.4822  -19.5340  -13.0461 O   0  0  0  0  0  0  0  0  0  0  0  0
   24.0355  -21.7450  -12.8515 N   0  0  0  0  0  0  0  0  0  0  0  0
   24.2512  -23.1557  -12.4495 C   0  0  0  0  0  0  0  0  0  0  0  0
   24.0313  -23.8115  -13.8212 C   0  0  0  0  0  0  0  0  0  0  0  0
   22.7953  -23.0450  -14.3038 C   0  0  0  0  0  0  0  0  0  0  0  0
   22.7187  -21.8092  -13.4470 C   0  0  1  0  0  0  0  0  0  0  0  0
   21.6588  -22.0600  -12.3952 C   0  0  0  0  0  0  0  0  0  0  0  0
   22.0070  -22.4071  -11.2405 O   0  0  0  0  0  0  0  0  0  0  0  0
   20.3081  -21.9267  -12.6449 O   0  0  0  0  0  0  0  0  0  0  0  0
  2  1  1  6
  2 10  1  0
  3  2  1  0
  4  5  2  0
  4  3  1  0
  6  5  1  0
  7  8  1  0
  7  6  2  0
  8  9  2  0
  9  4  1  0
 10 12  1  0
 10 11  2  0
 12 13  1  0
 13 14  1  1
 15 14  1  0
 16 13  1  0
 16 17  2  0
 18 22  1  0
 18 16  1  0
 19 20  1  0
 19 18  1  0
 20 21  1  0
 21 22  1  0
 22 23  1  1
 24 23  2  0
 25 23  1  0
M  END
$$$$
