FCP.pdb
     RDKit          3D

 25 26  0  0  1  0  0  0  0  0999 V2000
   28.5702  -21.0754   -8.8679 N   0  0  0  0  0  0  0  0  0  0  0  0
   27.2132  -20.5905   -8.8228 C   0  0  1  0  0  0  0  0  0  0  0  0
   27.1917  -19.2635   -8.0945 C   0  0  0  0  0  0  0  0  0  0  0  0
   27.7919  -19.4701   -6.7674 C   0  0  0  0  0  0  0  0  0  0  0  0
   27.1039  -20.1126   -5.7676 C   0  0  0  0  0  0  0  0  0  0  0  0
   27.6586  -20.3138   -4.5117 C   0  0  0  0  0  0  0  0  0  0  0  0
   28.9280  -19.8641   -4.2466 C   0  0  0  0  0  0  0  0  0  0  0  0
   29.6457  -19.2100   -5.2431 C   0  0  0  0  0  0  0  0  0  0  0  0
   29.0624  -19.0210   -6.4990 C   0  0  0  0  0  0  0  0  0  0  0  0
   26.6748  -20.4797  -10.1961 C   0  0  0  0  0  0  0  0  0  0  0  0
   27.3310  -19.8819  -11.0873 O   0  0  0  0  0  0  0  0  0  0  0  0
   25.4214  -21.0302  -10.5633 N   0  0  0  0  0  0  0  0  0  0  0  0
   25.0068  -21.1106  -12.0006 C   0  0  1  0  0  0  0  0  0  0  0  0
   25.6142  -22.4057  -12.5146 C   0  0  0  0  0  0  0  0  0  0  0  0
   25.0947  -22.9342  -14.1251 S   0  0  0  0  0  0  0  0  0  0  0  0
   23.5420  -21.0964  -11.9960 C   0  0  0  0  0  0  0  0  0  0  0  0
   22.9669  -21.5483  -10.9392 O   0  0  0  0  0  0  0  0  0  0  0  0
   22.6645  -20.6501  -12.9955 N   0  0  0  0  0  0  0  0  0  0  0  0
   23.0402  -20.0620  -14.3036 C   0  0  0  0  0  0  0  0  0  0  0  0
   22.2930  -18.7267  -14.1673 C   0  0  0  0  0  0  0  0  0  0  0  0
   20.9587  -19.2095  -13.5888 C   0  0  0  0  0  0  0  0  0  0  0  0
   21.2202  -20.5924  -13.0534 C   0  0  1  0  0  0  0  0  0  0  0  0
   20.6779  -21.5748  -14.0698 C   0  0  0  0  0  0  0  0  0  0  0  0
   21.4369  -22.0145  -14.9673 O   0  0  0  0  0  0  0  0  0  0  0  0
   19.3707  -22.0174  -14.0616 O   0  0  0  0  0  0  0  0  0  0  0  0
  2  1  1  6
  2 10  1  0
  3  2  1  0
  4  5  2  0
  4  3  1  0
  6  5  1  0
  7  8  1  0
  7  6  2  0
  8  9  2  0
  9  4  1  0
 10 12  1  0
 10 11  2  0
 12 13  1  0
 13 14  1  1
 15 14  1  0
 16 13  1  0
 16 17  2  0
 18 22  1  0
 18 16  1  0
 19 20  1  0
 19 18  1  0
 20 21  1  0
 21 22  1  0
 22 23  1  6
 24 23  2  0
 25 23  1  0
M  END
$$$$
