AIA.pdb
     RDKit          3D

 19 18  0  0  1  0  0  0  0  0999 V2000
   22.7165   -8.5923  -21.2281 C   0  0  0  0  0  0  0  0  0  0  0  0
   23.0526   -9.4739  -20.0464 C   0  0  2  0  0  0  0  0  0  0  0  0
   22.9781  -10.8491  -20.4994 N   0  0  0  0  0  0  0  0  0  0  0  0
   22.1671   -9.2306  -18.8849 C   0  0  0  0  0  0  0  0  0  0  0  0
   21.0134   -9.7243  -18.9040 O   0  0  0  0  0  0  0  0  0  0  0  0
   23.5483  -10.3626  -14.1382 C   0  0  0  0  0  0  0  0  0  0  0  0
   22.6858  -10.0410  -15.3365 C   0  0  0  0  0  0  0  0  0  0  0  0
   22.3122   -8.5861  -15.3924 C   0  0  2  0  0  0  0  0  0  0  0  0
   21.5646   -8.1441  -14.1538 C   0  0  0  0  0  0  0  0  0  0  0  0
   21.6235   -8.1845  -16.6527 C   0  0  2  0  0  0  0  0  0  0  0  0
   22.5538   -8.4701  -17.7539 N   0  0  0  0  0  0  0  0  0  0  0  0
   21.2846   -6.7367  -16.6873 C   0  0  0  0  0  0  0  0  0  0  0  0
   22.1088   -5.8406  -16.3715 O   0  0  0  0  0  0  0  0  0  0  0  0
   18.3722   -4.6715  -17.9786 C   0  0  0  0  0  0  0  0  0  0  0  0
   19.6495   -4.8895  -17.2160 C   0  0  2  0  0  0  0  0  0  0  0  0
   19.9919   -6.2947  -17.0858 N   0  0  0  0  0  0  0  0  0  0  0  0
   19.4497   -4.3181  -15.8564 C   0  0  0  0  0  0  0  0  0  0  0  0
   18.8630   -5.1587  -14.9036 O   0  0  0  0  0  0  0  0  0  0  0  0
   19.7845   -3.1449  -15.5634 O   0  0  0  0  0  0  0  0  0  0  0  0
  2  1  1  6
  2  3  1  0
  4  5  2  0
  4  2  1  0
  6  7  1  0
  7  8  1  0
  8 10  1  0
  8  9  1  1
 10 11  1  6
 10 12  1  0
 11  4  1  0
 12 13  2  0
 15 14  1  6
 15 17  1  0
 16 12  1  0
 16 15  1  0
 17 18  1  0
 19 17  2  0
M  END
$$$$
