AIA.pdb
     RDKit          3D

 19 18  0  0  1  0  0  0  0  0999 V2000
   22.2932   -9.1193  -21.0306 C   0  0  0  0  0  0  0  0  0  0  0  0
   22.6863   -9.8456  -19.7638 C   0  0  2  0  0  0  0  0  0  0  0  0
   22.6385  -11.2664  -20.0488 N   0  0  0  0  0  0  0  0  0  0  0  0
   21.8262   -9.4882  -18.6127 C   0  0  0  0  0  0  0  0  0  0  0  0
   20.6490   -9.9230  -18.5934 O   0  0  0  0  0  0  0  0  0  0  0  0
   23.6092  -10.5040  -14.0136 C   0  0  0  0  0  0  0  0  0  0  0  0
   22.6943  -10.2079  -15.1790 C   0  0  0  0  0  0  0  0  0  0  0  0
   22.1913   -8.7916  -15.1597 C   0  0  2  0  0  0  0  0  0  0  0  0
   21.4711   -8.4625  -13.8707 C   0  0  0  0  0  0  0  0  0  0  0  0
   21.4070   -8.4097  -16.3692 C   0  0  2  0  0  0  0  0  0  0  0  0
   22.2624   -8.6818  -17.5327 N   0  0  0  0  0  0  0  0  0  0  0  0
   21.0372   -6.9690  -16.3843 C   0  0  0  0  0  0  0  0  0  0  0  0
   21.8839   -6.0511  -16.2348 O   0  0  0  0  0  0  0  0  0  0  0  0
   18.0214   -4.9922  -17.4792 C   0  0  0  0  0  0  0  0  0  0  0  0
   19.3030   -5.1664  -16.7125 C   0  0  2  0  0  0  0  0  0  0  0  0
   19.6872   -6.5597  -16.5718 N   0  0  0  0  0  0  0  0  0  0  0  0
   19.0828   -4.5919  -15.3572 C   0  0  0  0  0  0  0  0  0  0  0  0
   19.0852   -3.1958  -15.2606 O   0  0  0  0  0  0  0  0  0  0  0  0
   18.9028   -5.3090  -14.3433 O   0  0  0  0  0  0  0  0  0  0  0  0
  2  1  1  6
  2  3  1  0
  4  5  2  0
  4  2  1  0
  6  7  1  0
  7  8  1  0
  8 10  1  0
  8  9  1  1
 10 11  1  6
 10 12  1  0
 11  4  1  0
 12 13  2  0
 15 14  1  6
 15 17  1  0
 16 12  1  0
 16 15  1  0
 17 18  1  0
 19 17  2  0
M  END
$$$$
