AIA.pdb
     RDKit          3D

 19 18  0  0  1  0  0  0  0  0999 V2000
   27.0871  -17.5022  -17.0272 C   0  0  0  0  0  0  0  0  0  0  0  0
   28.0320  -18.5141  -16.4189 C   0  0  2  0  0  0  0  0  0  0  0  0
   28.7485  -19.1453  -17.5099 N   0  0  0  0  0  0  0  0  0  0  0  0
   27.3331  -19.5090  -15.5739 C   0  0  0  0  0  0  0  0  0  0  0  0
   26.7905  -20.4904  -16.1375 O   0  0  0  0  0  0  0  0  0  0  0  0
   29.6592  -20.8468  -11.1484 C   0  0  0  0  0  0  0  0  0  0  0  0
   28.7654  -21.0830  -12.3435 C   0  0  0  0  0  0  0  0  0  0  0  0
   27.3625  -20.5976  -12.1074 C   0  0  2  0  0  0  0  0  0  0  0  0
   26.6455  -21.4214  -11.0606 C   0  0  0  0  0  0  0  0  0  0  0  0
   26.5609  -20.4291  -13.3536 C   0  0  2  0  0  0  0  0  0  0  0  0
   27.2448  -19.4112  -14.1633 N   0  0  0  0  0  0  0  0  0  0  0  0
   25.1736  -19.9636  -13.0872 C   0  0  0  0  0  0  0  0  0  0  0  0
   24.9237  -18.9232  -12.4262 O   0  0  0  0  0  0  0  0  0  0  0  0
   21.7483  -20.7174  -14.4463 C   0  0  0  0  0  0  0  0  0  0  0  0
   22.6822  -20.2470  -13.3659 C   0  0  2  0  0  0  0  0  0  0  0  0
   24.0500  -20.6870  -13.5765 N   0  0  0  0  0  0  0  0  0  0  0  0
   22.1886  -20.8173  -12.0829 C   0  0  0  0  0  0  0  0  0  0  0  0
   21.0004  -20.2804  -11.5746 O   0  0  0  0  0  0  0  0  0  0  0  0
   22.7952  -21.7327  -11.4756 O   0  0  0  0  0  0  0  0  0  0  0  0
  2  1  1  6
  2  3  1  0
  4  5  2  0
  4  2  1  0
  6  7  1  0
  7  8  1  0
  8 10  1  0
  8  9  1  1
 10 11  1  6
 10 12  1  0
 11  4  1  0
 12 13  2  0
 15 14  1  6
 15 17  1  0
 16 12  1  0
 16 15  1  0
 17 18  1  0
 19 17  2  0
M  END
$$$$
