AIA.pdb
     RDKit          3D

 19 18  0  0  1  0  0  0  0  0999 V2000
   17.9575   -9.4062  -19.3543 C   0  0  0  0  0  0  0  0  0  0  0  0
   18.9034  -10.3076  -18.5931 C   0  0  2  0  0  0  0  0  0  0  0  0
   18.2194  -11.5677  -18.3785 N   0  0  0  0  0  0  0  0  0  0  0  0
   19.3593   -9.7074  -17.3185 C   0  0  0  0  0  0  0  0  0  0  0  0
   18.4992   -9.4531  -16.4407 O   0  0  0  0  0  0  0  0  0  0  0  0
   23.2740  -12.0998  -15.0310 C   0  0  0  0  0  0  0  0  0  0  0  0
   22.0389  -11.2801  -15.3238 C   0  0  0  0  0  0  0  0  0  0  0  0
   22.3274   -9.8050  -15.3388 C   0  0  2  0  0  0  0  0  0  0  0  0
   22.9972   -9.3447  -14.0629 C   0  0  0  0  0  0  0  0  0  0  0  0
   21.1547   -8.9612  -15.7084 C   0  0  2  0  0  0  0  0  0  0  0  0
   20.7148   -9.4054  -17.0384 N   0  0  0  0  0  0  0  0  0  0  0  0
   21.4879   -7.5135  -15.7829 C   0  0  0  0  0  0  0  0  0  0  0  0
   22.4344   -7.0717  -16.4834 O   0  0  0  0  0  0  0  0  0  0  0  0
   19.8913   -4.2787  -14.6247 C   0  0  0  0  0  0  0  0  0  0  0  0
   21.0407   -5.1294  -15.0892 C   0  0  2  0  0  0  0  0  0  0  0  0
   20.7379   -6.5492  -15.0529 N   0  0  0  0  0  0  0  0  0  0  0  0
   22.1819   -4.8603  -14.1724 C   0  0  0  0  0  0  0  0  0  0  0  0
   22.2521   -5.6415  -13.0134 O   0  0  0  0  0  0  0  0  0  0  0  0
   23.0450   -3.9816  -14.4121 O   0  0  0  0  0  0  0  0  0  0  0  0
  2  1  1  1
  2  3  1  0
  4  5  2  0
  4  2  1  0
  6  7  1  0
  7  8  1  0
  8 10  1  0
  8  9  1  1
 10 11  1  6
 10 12  1  0
 11  4  1  0
 12 13  2  0
 15 14  1  1
 15 17  1  0
 16 12  1  0
 16 15  1  0
 17 18  1  0
 19 17  2  0
M  END
$$$$
