AIA.pdb
     RDKit          3D

 19 18  0  0  1  0  0  0  0  0999 V2000
   22.7147  -21.4408  -11.0023 C   0  0  0  0  0  0  0  0  0  0  0  0
   24.0288  -21.3451  -10.2602 C   0  0  2  0  0  0  0  0  0  0  0  0
   23.7460  -20.7859   -8.9528 N   0  0  0  0  0  0  0  0  0  0  0  0
   25.0383  -20.5460  -10.9915 C   0  0  0  0  0  0  0  0  0  0  0  0
   25.0369  -19.3007  -10.8351 O   0  0  0  0  0  0  0  0  0  0  0  0
   30.0403  -21.5925  -10.7019 C   0  0  0  0  0  0  0  0  0  0  0  0
   28.7038  -20.9188  -10.9092 C   0  0  0  0  0  0  0  0  0  0  0  0
   28.3147  -20.8648  -12.3601 C   0  0  2  0  0  0  0  0  0  0  0  0
   29.3868  -20.2216  -13.2117 C   0  0  0  0  0  0  0  0  0  0  0  0
   26.9626  -20.2853  -12.6045 C   0  0  2  0  0  0  0  0  0  0  0  0
   26.0051  -21.1132  -11.8580 N   0  0  0  0  0  0  0  0  0  0  0  0
   26.5795  -20.3040  -14.0416 C   0  0  0  0  0  0  0  0  0  0  0  0
   26.5204  -21.3659  -14.7129 O   0  0  0  0  0  0  0  0  0  0  0  0
   25.0598  -17.8321  -16.4658 C   0  0  0  0  0  0  0  0  0  0  0  0
   25.8118  -19.0854  -16.1130 C   0  0  2  0  0  0  0  0  0  0  0  0
   26.2578  -19.1014  -14.7312 N   0  0  0  0  0  0  0  0  0  0  0  0
   27.0046  -19.1439  -17.0012 C   0  0  0  0  0  0  0  0  0  0  0  0
   26.7894  -19.5883  -18.3107 O   0  0  0  0  0  0  0  0  0  0  0  0
   28.1510  -18.8152  -16.6111 O   0  0  0  0  0  0  0  0  0  0  0  0
  2  1  1  6
  2  3  1  0
  4  5  2  0
  4  2  1  0
  6  7  1  0
  7  8  1  0
  8 10  1  0
  8  9  1  6
 10 11  1  1
 10 12  1  0
 11  4  1  0
 12 13  2  0
 15 14  1  6
 15 17  1  0
 16 12  1  0
 16 15  1  0
 17 18  1  0
 19 17  2  0
M  END
$$$$
