AIA.pdb
     RDKit          3D

 19 18  0  0  1  0  0  0  0  0999 V2000
   18.9659   -9.7386  -19.9752 C   0  0  0  0  0  0  0  0  0  0  0  0
   19.8142  -10.7566  -19.2467 C   0  0  2  0  0  0  0  0  0  0  0  0
   19.0720  -12.0019  -19.2274 N   0  0  0  0  0  0  0  0  0  0  0  0
   20.1834  -10.3173  -17.8817 C   0  0  0  0  0  0  0  0  0  0  0  0
   19.3129  -10.3853  -16.9802 O   0  0  0  0  0  0  0  0  0  0  0  0
   24.0901  -12.3867  -15.4629 C   0  0  0  0  0  0  0  0  0  0  0  0
   22.8059  -11.6441  -15.7499 C   0  0  0  0  0  0  0  0  0  0  0  0
   23.0014  -10.1538  -15.7554 C   0  0  2  0  0  0  0  0  0  0  0  0
   23.5853   -9.6531  -14.4528 C   0  0  0  0  0  0  0  0  0  0  0  0
   21.7951   -9.3851  -16.1770 C   0  0  2  0  0  0  0  0  0  0  0  0
   21.4671   -9.8247  -17.5403 N   0  0  0  0  0  0  0  0  0  0  0  0
   22.0275   -7.9162  -16.1999 C   0  0  0  0  0  0  0  0  0  0  0  0
   22.9308   -7.3843  -16.8948 O   0  0  0  0  0  0  0  0  0  0  0  0
   20.1091   -4.8407  -15.3922 C   0  0  0  0  0  0  0  0  0  0  0  0
   21.4099   -5.5936  -15.4324 C   0  0  2  0  0  0  0  0  0  0  0  0
   21.2247   -7.0338  -15.4239 N   0  0  0  0  0  0  0  0  0  0  0  0
   22.1783   -5.2032  -14.2190 C   0  0  0  0  0  0  0  0  0  0  0  0
   22.7977   -3.9485  -14.2465 O   0  0  0  0  0  0  0  0  0  0  0  0
   22.2753   -5.9493  -13.2148 O   0  0  0  0  0  0  0  0  0  0  0  0
  2  1  1  1
  2  3  1  0
  4  5  2  0
  4  2  1  0
  6  7  1  0
  7  8  1  0
  8 10  1  0
  8  9  1  1
 10 11  1  6
 10 12  1  0
 11  4  1  0
 12 13  2  0
 15 14  1  1
 15 17  1  0
 16 12  1  0
 16 15  1  0
 17 18  1  0
 19 17  2  0
M  END
$$$$
