AIA.pdb
     RDKit          3D

 19 18  0  0  1  0  0  0  0  0999 V2000
   22.6079  -18.2121  -15.3528 C   0  0  0  0  0  0  0  0  0  0  0  0
   23.8656  -18.8683  -15.8765 C   0  0  2  0  0  0  0  0  0  0  0  0
   23.5070  -19.5858  -17.0842 N   0  0  0  0  0  0  0  0  0  0  0  0
   24.5010  -19.7584  -14.8783 C   0  0  0  0  0  0  0  0  0  0  0  0
   23.9510  -20.8584  -14.6282 O   0  0  0  0  0  0  0  0  0  0  0  0
   30.0535  -21.0118  -12.6785 C   0  0  0  0  0  0  0  0  0  0  0  0
   28.5621  -21.1883  -12.5127 C   0  0  0  0  0  0  0  0  0  0  0  0
   27.7791  -20.2531  -13.3912 C   0  0  2  0  0  0  0  0  0  0  0  0
   28.2907  -18.8322  -13.3059 C   0  0  0  0  0  0  0  0  0  0  0  0
   26.3018  -20.3434  -13.2087 C   0  0  2  0  0  0  0  0  0  0  0  0
   25.6966  -19.4335  -14.1912 N   0  0  0  0  0  0  0  0  0  0  0  0
   25.8631  -19.9268  -11.8498 C   0  0  0  0  0  0  0  0  0  0  0  0
   25.8212  -18.7220  -11.4916 O   0  0  0  0  0  0  0  0  0  0  0  0
   24.3226  -21.6256   -8.8287 C   0  0  0  0  0  0  0  0  0  0  0  0
   25.0675  -20.5248   -9.5316 C   0  0  2  0  0  0  0  0  0  0  0  0
   25.4652  -20.8891  -10.8798 N   0  0  0  0  0  0  0  0  0  0  0  0
   26.2908  -20.2449   -8.7314 C   0  0  0  0  0  0  0  0  0  0  0  0
   26.1316  -19.4222   -7.6105 O   0  0  0  0  0  0  0  0  0  0  0  0
   27.4145  -20.7148   -9.0330 O   0  0  0  0  0  0  0  0  0  0  0  0
  2  1  1  1
  2  3  1  0
  4  5  2  0
  4  2  1  0
  6  7  1  0
  7  8  1  0
  8 10  1  0
  8  9  1  1
 10 11  1  6
 10 12  1  0
 11  4  1  0
 12 13  2  0
 15 14  1  1
 15 17  1  0
 16 12  1  0
 16 15  1  0
 17 18  1  0
 19 17  2  0
M  END
$$$$
