AIA.pdb
     RDKit          3D

 19 18  0  0  1  0  0  0  0  0999 V2000
   26.7222  -17.5876  -14.5699 C   0  0  0  0  0  0  0  0  0  0  0  0
   27.5477  -18.5430  -13.7378 C   0  0  2  0  0  0  0  0  0  0  0  0
   28.6133  -19.0425  -14.5847 N   0  0  0  0  0  0  0  0  0  0  0  0
   26.7396  -19.6445  -13.1666 C   0  0  0  0  0  0  0  0  0  0  0  0
   26.6637  -20.7201  -13.8088 O   0  0  0  0  0  0  0  0  0  0  0  0
   26.6406  -20.0293   -7.8523 C   0  0  0  0  0  0  0  0  0  0  0  0
   26.6606  -20.4885   -9.2917 C   0  0  0  0  0  0  0  0  0  0  0  0
   25.2859  -20.5107   -9.8992 C   0  0  2  0  0  0  0  0  0  0  0  0
   24.3731  -21.4953   -9.2024 C   0  0  0  0  0  0  0  0  0  0  0  0
   25.2802  -20.6723  -11.3817 C   0  0  2  0  0  0  0  0  0  0  0  0
   26.0482  -19.5477  -11.9339 N   0  0  0  0  0  0  0  0  0  0  0  0
   23.9101  -20.6346  -11.9596 C   0  0  0  0  0  0  0  0  0  0  0  0
   23.1932  -19.6015  -11.9352 O   0  0  0  0  0  0  0  0  0  0  0  0
   21.8555  -22.8996  -14.1891 C   0  0  0  0  0  0  0  0  0  0  0  0
   22.0394  -21.7664  -13.2182 C   0  0  2  0  0  0  0  0  0  0  0  0
   23.3414  -21.7846  -12.5754 N   0  0  0  0  0  0  0  0  0  0  0  0
   20.9886  -21.9108  -12.1741 C   0  0  0  0  0  0  0  0  0  0  0  0
   19.6680  -21.6857  -12.5790 O   0  0  0  0  0  0  0  0  0  0  0  0
   21.2567  -22.2179  -10.9874 O   0  0  0  0  0  0  0  0  0  0  0  0
  2  1  1  6
  2  3  1  0
  4  5  2  0
  4  2  1  0
  6  7  1  0
  7  8  1  0
  8 10  1  0
  8  9  1  1
 10 11  1  6
 10 12  1  0
 11  4  1  0
 12 13  2  0
 15 14  1  6
 15 17  1  0
 16 12  1  0
 16 15  1  0
 17 18  1  0
 19 17  2  0
M  END
$$$$
