AIA.pdb
     RDKit          3D

 19 18  0  0  1  0  0  0  0  0999 V2000
   21.0924  -12.2079  -20.3785 C   0  0  0  0  0  0  0  0  0  0  0  0
   22.2997  -12.4900  -19.5129 C   0  0  2  0  0  0  0  0  0  0  0  0
   22.3313  -13.9189  -19.2693 N   0  0  0  0  0  0  0  0  0  0  0  0
   22.2865  -11.7187  -18.2490 C   0  0  0  0  0  0  0  0  0  0  0  0
   21.4643  -12.0491  -17.3602 O   0  0  0  0  0  0  0  0  0  0  0  0
   26.5355  -10.6411  -15.4555 C   0  0  0  0  0  0  0  0  0  0  0  0
   25.1158  -10.8833  -15.9123 C   0  0  0  0  0  0  0  0  0  0  0  0
   24.4015   -9.6037  -16.2470 C   0  0  2  0  0  0  0  0  0  0  0  0
   24.4460   -8.6132  -15.1046 C   0  0  0  0  0  0  0  0  0  0  0  0
   23.0239   -9.8003  -16.7833 C   0  0  2  0  0  0  0  0  0  0  0  0
   23.1529  -10.6279  -17.9907 N   0  0  0  0  0  0  0  0  0  0  0  0
   22.3644   -8.5210  -17.1586 C   0  0  0  0  0  0  0  0  0  0  0  0
   22.8672   -7.7168  -17.9846 O   0  0  0  0  0  0  0  0  0  0  0  0
   18.9642   -6.9542  -16.6953 C   0  0  0  0  0  0  0  0  0  0  0  0
   20.4504   -6.8955  -16.9153 C   0  0  2  0  0  0  0  0  0  0  0  0
   21.1151   -8.1449  -16.5902 N   0  0  0  0  0  0  0  0  0  0  0  0
   20.9817   -5.8260  -16.0269 C   0  0  0  0  0  0  0  0  0  0  0  0
   20.6883   -4.5067  -16.3901 O   0  0  0  0  0  0  0  0  0  0  0  0
   21.6595   -6.0779  -15.0014 O   0  0  0  0  0  0  0  0  0  0  0  0
  2  1  1  1
  2  3  1  0
  4  5  2  0
  4  2  1  0
  6  7  1  0
  7  8  1  0
  8 10  1  0
  8  9  1  1
 10 11  1  6
 10 12  1  0
 11  4  1  0
 12 13  2  0
 15 14  1  1
 15 17  1  0
 16 12  1  0
 16 15  1  0
 17 18  1  0
 19 17  2  0
M  END
$$$$
