AIA.pdb
     RDKit          3D

 19 18  0  0  1  0  0  0  0  0999 V2000
   27.8811  -19.0604  -15.4237 C   0  0  0  0  0  0  0  0  0  0  0  0
   28.2689  -20.2290  -14.5458 C   0  0  2  0  0  0  0  0  0  0  0  0
   28.9594  -21.1885  -15.3853 N   0  0  0  0  0  0  0  0  0  0  0  0
   27.1052  -20.8372  -13.8613 C   0  0  0  0  0  0  0  0  0  0  0  0
   26.5403  -21.8162  -14.4068 O   0  0  0  0  0  0  0  0  0  0  0  0
   26.8627  -20.4253   -8.4593 C   0  0  0  0  0  0  0  0  0  0  0  0
   26.7326  -21.0497   -9.8291 C   0  0  0  0  0  0  0  0  0  0  0  0
   25.4826  -20.6081  -10.5375 C   0  0  2  0  0  0  0  0  0  0  0  0
   24.2326  -21.0059   -9.7841 C   0  0  0  0  0  0  0  0  0  0  0  0
   25.4325  -20.9939  -11.9771 C   0  0  2  0  0  0  0  0  0  0  0  0
   26.5966  -20.3720  -12.6236 N   0  0  0  0  0  0  0  0  0  0  0  0
   24.2023  -20.5114  -12.6600 C   0  0  0  0  0  0  0  0  0  0  0  0
   23.9363  -19.2893  -12.7922 O   0  0  0  0  0  0  0  0  0  0  0  0
   21.7518  -21.8738  -15.0969 C   0  0  0  0  0  0  0  0  0  0  0  0
   22.0704  -20.9948  -13.9194 C   0  0  2  0  0  0  0  0  0  0  0  0
   23.2570  -21.4266  -13.2023 N   0  0  0  0  0  0  0  0  0  0  0  0
   20.9041  -21.0602  -12.9972 C   0  0  0  0  0  0  0  0  0  0  0  0
   19.7348  -20.4173  -13.4193 O   0  0  0  0  0  0  0  0  0  0  0  0
   20.9507  -21.6570  -11.8944 O   0  0  0  0  0  0  0  0  0  0  0  0
  2  1  1  6
  2  3  1  0
  4  5  2  0
  4  2  1  0
  6  7  1  0
  7  8  1  0
  8 10  1  0
  8  9  1  1
 10 11  1  6
 10 12  1  0
 11  4  1  0
 12 13  2  0
 15 14  1  6
 15 17  1  0
 16 12  1  0
 16 15  1  0
 17 18  1  0
 19 17  2  0
M  END
$$$$
