AIA.pdb
     RDKit          3D

 19 18  0  0  1  0  0  0  0  0999 V2000
   21.1453   -8.7545  -20.7313 C   0  0  0  0  0  0  0  0  0  0  0  0
   21.3379   -9.8020  -19.6578 C   0  0  2  0  0  0  0  0  0  0  0  0
   20.5804  -10.9722  -20.0564 N   0  0  0  0  0  0  0  0  0  0  0  0
   20.9382   -9.3215  -18.3155 C   0  0  0  0  0  0  0  0  0  0  0  0
   19.7461   -9.4827  -17.9577 O   0  0  0  0  0  0  0  0  0  0  0  0
   23.3873  -11.1118  -14.3838 C   0  0  0  0  0  0  0  0  0  0  0  0
   22.3446  -10.4645  -15.2653 C   0  0  0  0  0  0  0  0  0  0  0  0
   22.3145   -8.9703  -15.1048 C   0  0  2  0  0  0  0  0  0  0  0  0
   22.0638   -8.5584  -13.6710 C   0  0  0  0  0  0  0  0  0  0  0  0
   21.4132   -8.2747  -16.0681 C   0  0  2  0  0  0  0  0  0  0  0  0
   21.8305   -8.6895  -17.4147 N   0  0  0  0  0  0  0  0  0  0  0  0
   21.5114   -6.7931  -15.9812 C   0  0  0  0  0  0  0  0  0  0  0  0
   22.5939   -6.1752  -16.1497 O   0  0  0  0  0  0  0  0  0  0  0  0
   19.0520   -3.9197  -15.5824 C   0  0  0  0  0  0  0  0  0  0  0  0
   20.4175   -4.5473  -15.6276 C   0  0  2  0  0  0  0  0  0  0  0  0
   20.3662   -5.9968  -15.6990 N   0  0  0  0  0  0  0  0  0  0  0  0
   21.1205   -4.1548  -14.3759 C   0  0  0  0  0  0  0  0  0  0  0  0
   21.7828   -2.9220  -14.3895 O   0  0  0  0  0  0  0  0  0  0  0  0
   21.1284   -4.8807  -13.3524 O   0  0  0  0  0  0  0  0  0  0  0  0
  2  1  1  6
  2  3  1  0
  4  5  2  0
  4  2  1  0
  6  7  1  0
  7  8  1  0
  8 10  1  0
  8  9  1  1
 10 11  1  6
 10 12  1  0
 11  4  1  0
 12 13  2  0
 15 14  1  1
 15 17  1  0
 16 12  1  0
 16 15  1  0
 17 18  1  0
 19 17  2  0
M  END
$$$$
