AIA.pdb
     RDKit          3D

 19 18  0  0  1  0  0  0  0  0999 V2000
   17.4784   -8.9577  -18.6510 C   0  0  0  0  0  0  0  0  0  0  0  0
   18.2662  -10.0250  -17.9251 C   0  0  2  0  0  0  0  0  0  0  0  0
   17.3648  -11.1333  -17.6779 N   0  0  0  0  0  0  0  0  0  0  0  0
   18.8790   -9.5269  -16.6725 C   0  0  0  0  0  0  0  0  0  0  0  0
   18.1601   -9.4584  -15.6461 O   0  0  0  0  0  0  0  0  0  0  0  0
   23.0245  -11.8033  -14.8629 C   0  0  0  0  0  0  0  0  0  0  0  0
   21.7595  -10.9923  -15.0214 C   0  0  0  0  0  0  0  0  0  0  0  0
   22.0350   -9.5156  -15.0723 C   0  0  2  0  0  0  0  0  0  0  0  0
   22.8489   -9.0487  -13.8857 C   0  0  0  0  0  0  0  0  0  0  0  0
   20.8214   -8.6795  -15.3008 C   0  0  2  0  0  0  0  0  0  0  0  0
   20.2335   -9.1240  -16.5722 N   0  0  0  0  0  0  0  0  0  0  0  0
   21.1335   -7.2292  -15.4089 C   0  0  0  0  0  0  0  0  0  0  0  0
   21.9867   -6.7786  -16.2156 O   0  0  0  0  0  0  0  0  0  0  0  0
   19.7135   -3.9967  -14.0396 C   0  0  0  0  0  0  0  0  0  0  0  0
   20.8066   -4.8602  -14.6053 C   0  0  2  0  0  0  0  0  0  0  0  0
   20.4694   -6.2726  -14.5910 N   0  0  0  0  0  0  0  0  0  0  0  0
   22.0128   -4.6480  -13.7597 C   0  0  0  0  0  0  0  0  0  0  0  0
   22.9110   -3.6629  -14.1855 O   0  0  0  0  0  0  0  0  0  0  0  0
   22.2279   -5.3101  -12.7157 O   0  0  0  0  0  0  0  0  0  0  0  0
  2  1  1  1
  2  3  1  0
  4  5  2  0
  4  2  1  0
  6  7  1  0
  7  8  1  0
  8 10  1  0
  8  9  1  1
 10 11  1  6
 10 12  1  0
 11  4  1  0
 12 13  2  0
 15 14  1  1
 15 17  1  0
 16 12  1  0
 16 15  1  0
 17 18  1  0
 19 17  2  0
M  END
$$$$
