TMP.pdb
     RDKit          3D

 23 23  0  0  1  0  0  0  0  0999 V2000
   26.8468  -20.3466  -17.1221 C   0  0  0  0  0  0  0  0  0  0  0  0
   27.5207  -21.6521  -17.4609 C   0  0  1  0  0  0  0  0  0  0  0  0
   28.6222  -21.5074  -18.2813 O   0  0  0  0  0  0  0  0  0  0  0  0
   27.8157  -22.4675  -16.2201 C   0  0  2  0  0  0  0  0  0  0  0  0
   28.2789  -23.7694  -16.6621 N   0  0  0  0  0  0  0  0  0  0  0  0
   26.6550  -22.5646  -15.3237 C   0  0  0  0  0  0  0  0  0  0  0  0
   25.6989  -23.3093  -15.6335 O   0  0  0  0  0  0  0  0  0  0  0  0
   24.6739  -20.5199   -7.9928 C   0  0  0  0  0  0  0  0  0  0  0  0
   25.8386  -20.9249   -9.3044 S   0  0  0  0  0  0  0  0  0  0  0  0
   24.9306  -21.2425  -10.8659 C   0  0  0  0  0  0  0  0  0  0  0  0
   25.9520  -21.5053  -11.9141 C   0  0  0  0  0  0  0  0  0  0  0  0
   25.4094  -21.9157  -13.2759 C   0  0  2  0  0  0  0  0  0  0  0  0
   26.6358  -21.8180  -14.1289 N   0  0  0  0  0  0  0  0  0  0  0  0
   24.4464  -20.9581  -13.8397 C   0  0  0  0  0  0  0  0  0  0  0  0
   24.9203  -19.8501  -14.2856 O   0  0  0  0  0  0  0  0  0  0  0  0
   23.0644  -21.1400  -13.9392 N   0  0  0  0  0  0  0  0  0  0  0  0
   22.3497  -22.3202  -13.4119 C   0  0  0  0  0  0  0  0  0  0  0  0
   20.9530  -22.2301  -13.9864 C   0  0  0  0  0  0  0  0  0  0  0  0
   21.1534  -21.2972  -15.1613 C   0  0  0  0  0  0  0  0  0  0  0  0
   22.0734  -20.2512  -14.4970 C   0  0  1  0  0  0  0  0  0  0  0  0
   21.2277  -19.6598  -13.3902 C   0  0  0  0  0  0  0  0  0  0  0  0
   21.3681  -20.0608  -12.0772 O   0  0  0  0  0  0  0  0  0  0  0  0
   20.3778  -18.7853  -13.6646 O   0  0  0  0  0  0  0  0  0  0  0  0
  2  1  1  1
  3  2  1  0
  4  2  1  0
  4  6  1  0
  4  5  1  6
  6  7  2  0
  9 10  1  0
  9  8  1  0
 10 11  1  0
 12 11  1  1
 13 12  1  0
 13  6  1  0
 14 12  1  0
 14 15  2  0
 16 14  1  0
 17 16  1  0
 18 17  1  0
 18 19  1  0
 19 20  1  0
 20 16  1  0
 20 21  1  1
 21 22  1  0
 23 21  2  0
M  END
$$$$
