TMP.pdb
     RDKit          3D

 23 23  0  0  1  0  0  0  0  0999 V2000
   21.1279  -13.5777  -21.8058 C   0  0  0  0  0  0  0  0  0  0  0  0
   20.9407  -12.9198  -20.4622 C   0  0  1  0  0  0  0  0  0  0  0  0
   19.7457  -12.2379  -20.3438 O   0  0  0  0  0  0  0  0  0  0  0  0
   21.1774  -13.8917  -19.3260 C   0  0  2  0  0  0  0  0  0  0  0  0
   20.1587  -14.9204  -19.4219 N   0  0  0  0  0  0  0  0  0  0  0  0
   21.1789  -13.2305  -18.0134 C   0  0  0  0  0  0  0  0  0  0  0  0
   20.1153  -13.1603  -17.3586 O   0  0  0  0  0  0  0  0  0  0  0  0
   26.5304  -14.4882  -16.0755 C   0  0  0  0  0  0  0  0  0  0  0  0
   25.6256  -13.9465  -14.6167 S   0  0  0  0  0  0  0  0  0  0  0  0
   23.8516  -13.7317  -15.0294 C   0  0  0  0  0  0  0  0  0  0  0  0
   23.7048  -12.3714  -15.6114 C   0  0  0  0  0  0  0  0  0  0  0  0
   22.3266  -12.0354  -16.1640 C   0  0  2  0  0  0  0  0  0  0  0  0
   22.3774  -12.6857  -17.5114 N   0  0  0  0  0  0  0  0  0  0  0  0
   22.1257  -10.6003  -16.4141 C   0  0  0  0  0  0  0  0  0  0  0  0
   22.7193  -10.0990  -17.4375 O   0  0  0  0  0  0  0  0  0  0  0  0
   21.3478   -9.7303  -15.6455 N   0  0  0  0  0  0  0  0  0  0  0  0
   20.6345  -10.1323  -14.4161 C   0  0  0  0  0  0  0  0  0  0  0  0
   19.7154   -8.9751  -14.0919 C   0  0  0  0  0  0  0  0  0  0  0  0
   19.6324   -8.2547  -15.4205 C   0  0  0  0  0  0  0  0  0  0  0  0
   21.1182   -8.3177  -15.8331 C   0  0  1  0  0  0  0  0  0  0  0  0
   21.8372   -7.5299  -14.7598 C   0  0  0  0  0  0  0  0  0  0  0  0
   21.8557   -6.1499  -14.7627 O   0  0  0  0  0  0  0  0  0  0  0  0
   22.4324   -8.1376  -13.8439 O   0  0  0  0  0  0  0  0  0  0  0  0
  2  1  1  6
  3  2  1  0
  4  2  1  0
  4  6  1  0
  4  5  1  1
  6  7  2  0
  9 10  1  0
  9  8  1  0
 10 11  1  0
 12 11  1  6
 13 12  1  0
 13  6  1  0
 14 12  1  0
 14 15  2  0
 16 14  1  0
 17 16  1  0
 18 17  1  0
 18 19  1  0
 19 20  1  0
 20 16  1  0
 20 21  1  1
 21 22  1  0
 23 21  2  0
M  END
$$$$
