TMP.pdb
     RDKit          3D

 23 23  0  0  1  0  0  0  0  0999 V2000
   26.7198  -21.1170  -17.9612 C   0  0  0  0  0  0  0  0  0  0  0  0
   27.7347  -20.4494  -17.0681 C   0  0  1  0  0  0  0  0  0  0  0  0
   27.3013  -19.2478  -16.5430 O   0  0  0  0  0  0  0  0  0  0  0  0
   28.2585  -21.3975  -16.0108 C   0  0  2  0  0  0  0  0  0  0  0  0
   28.8108  -22.5477  -16.7014 N   0  0  0  0  0  0  0  0  0  0  0  0
   27.2258  -21.7766  -15.0361 C   0  0  0  0  0  0  0  0  0  0  0  0
   26.4103  -22.6805  -15.3238 O   0  0  0  0  0  0  0  0  0  0  0  0
   25.3204  -20.1447   -7.5762 C   0  0  0  0  0  0  0  0  0  0  0  0
   26.4715  -20.3166   -8.9494 S   0  0  0  0  0  0  0  0  0  0  0  0
   25.5926  -20.9736  -10.4190 C   0  0  0  0  0  0  0  0  0  0  0  0
   26.5782  -21.0099  -11.5317 C   0  0  0  0  0  0  0  0  0  0  0  0
   26.0359  -21.4670  -12.8787 C   0  0  2  0  0  0  0  0  0  0  0  0
   27.1691  -21.1172  -13.7923 N   0  0  0  0  0  0  0  0  0  0  0  0
   24.8822  -20.6841  -13.3461 C   0  0  0  0  0  0  0  0  0  0  0  0
   25.1263  -19.5174  -13.8261 O   0  0  0  0  0  0  0  0  0  0  0  0
   23.5452  -21.0899  -13.3204 N   0  0  0  0  0  0  0  0  0  0  0  0
   23.0791  -22.3487  -12.7042 C   0  0  0  0  0  0  0  0  0  0  0  0
   21.6441  -22.5067  -13.1569 C   0  0  0  0  0  0  0  0  0  0  0  0
   21.5921  -21.5994  -14.3672 C   0  0  0  0  0  0  0  0  0  0  0  0
   22.3797  -20.3943  -13.8112 C   0  0  1  0  0  0  0  0  0  0  0  0
   21.5423  -19.9049  -12.6498 C   0  0  0  0  0  0  0  0  0  0  0  0
   20.4668  -19.0603  -12.8362 O   0  0  0  0  0  0  0  0  0  0  0  0
   21.8259  -20.2705  -11.4886 O   0  0  0  0  0  0  0  0  0  0  0  0
  2  1  1  1
  3  2  1  0
  4  2  1  0
  4  6  1  0
  4  5  1  6
  6  7  2  0
  9 10  1  0
  9  8  1  0
 10 11  1  0
 12 11  1  1
 13 12  1  0
 13  6  1  0
 14 12  1  0
 14 15  2  0
 16 14  1  0
 17 16  1  0
 18 17  1  0
 18 19  1  0
 19 20  1  0
 20 16  1  0
 20 21  1  1
 21 22  1  0
 23 21  2  0
M  END
$$$$
