TMP.pdb
     RDKit          3D

 23 23  0  0  1  0  0  0  0  0999 V2000
   17.6599  -10.4092  -19.3556 C   0  0  0  0  0  0  0  0  0  0  0  0
   17.0232  -11.5644  -18.6253 C   0  0  1  0  0  0  0  0  0  0  0  0
   16.7269  -12.6374  -19.4426 O   0  0  0  0  0  0  0  0  0  0  0  0
   17.8219  -11.9608  -17.4020 C   0  0  2  0  0  0  0  0  0  0  0  0
   17.1419  -13.0881  -16.7922 N   0  0  0  0  0  0  0  0  0  0  0  0
   18.0009  -10.8445  -16.4630 C   0  0  0  0  0  0  0  0  0  0  0  0
   17.0125  -10.4035  -15.8358 O   0  0  0  0  0  0  0  0  0  0  0  0
   23.2509  -10.5137  -13.3861 C   0  0  0  0  0  0  0  0  0  0  0  0
   22.2378   -9.4144  -12.3832 S   0  0  0  0  0  0  0  0  0  0  0  0
   20.9946   -8.5774  -13.4404 C   0  0  0  0  0  0  0  0  0  0  0  0
   20.5078   -9.5871  -14.4173 C   0  0  0  0  0  0  0  0  0  0  0  0
   19.4008   -9.1204  -15.3523 C   0  0  2  0  0  0  0  0  0  0  0  0
   19.2824  -10.2873  -16.2825 N   0  0  0  0  0  0  0  0  0  0  0  0
   19.7809   -7.9723  -16.1889 C   0  0  0  0  0  0  0  0  0  0  0  0
   20.5853   -8.2034  -17.1639 O   0  0  0  0  0  0  0  0  0  0  0  0
   19.3479   -6.6537  -16.0257 N   0  0  0  0  0  0  0  0  0  0  0  0
   18.4269   -6.2163  -14.9570 C   0  0  0  0  0  0  0  0  0  0  0  0
   18.0187   -4.8090  -15.3336 C   0  0  0  0  0  0  0  0  0  0  0  0
   18.3481   -4.7682  -16.8103 C   0  0  0  0  0  0  0  0  0  0  0  0
   19.7167   -5.4809  -16.7818 C   0  0  1  0  0  0  0  0  0  0  0  0
   20.5908   -4.5768  -15.9402 C   0  0  0  0  0  0  0  0  0  0  0  0
   21.1719   -3.4390  -16.4620 O   0  0  0  0  0  0  0  0  0  0  0  0
   20.7966   -4.8614  -14.7405 O   0  0  0  0  0  0  0  0  0  0  0  0
  2  1  1  6
  3  2  1  0
  4  2  1  0
  4  6  1  0
  4  5  1  1
  6  7  2  0
  9 10  1  0
  9  8  1  0
 10 11  1  0
 12 11  1  1
 13 12  1  0
 13  6  1  0
 14 12  1  0
 14 15  2  0
 16 14  1  0
 17 16  1  0
 18 17  1  0
 18 19  1  0
 19 20  1  0
 20 16  1  0
 20 21  1  1
 21 22  1  0
 23 21  2  0
M  END
$$$$
