TMP.pdb
     RDKit          3D

 23 23  0  0  1  0  0  0  0  0999 V2000
   22.1854  -22.3446  -15.5558 C   0  0  0  0  0  0  0  0  0  0  0  0
   21.0533  -21.4368  -15.1464 C   0  0  1  0  0  0  0  0  0  0  0  0
   19.8053  -21.9305  -15.4718 O   0  0  0  0  0  0  0  0  0  0  0  0
   21.1625  -21.0277  -13.6930 C   0  0  2  0  0  0  0  0  0  0  0  0
   20.0361  -20.1594  -13.4058 N   0  0  0  0  0  0  0  0  0  0  0  0
   22.4500  -20.3894  -13.3851 C   0  0  0  0  0  0  0  0  0  0  0  0
   22.6334  -19.1921  -13.6975 O   0  0  0  0  0  0  0  0  0  0  0  0
   26.1339  -19.8707   -8.1807 C   0  0  0  0  0  0  0  0  0  0  0  0
   26.9090  -21.1644   -9.1636 S   0  0  0  0  0  0  0  0  0  0  0  0
   26.7126  -20.7911  -10.9485 C   0  0  0  0  0  0  0  0  0  0  0  0
   25.2980  -21.0859  -11.2987 C   0  0  0  0  0  0  0  0  0  0  0  0
   24.8082  -20.4993  -12.6153 C   0  0  2  0  0  0  0  0  0  0  0  0
   23.4587  -21.1345  -12.7428 N   0  0  0  0  0  0  0  0  0  0  0  0
   25.5796  -20.9485  -13.7839 C   0  0  0  0  0  0  0  0  0  0  0  0
   25.2712  -22.0930  -14.2800 O   0  0  0  0  0  0  0  0  0  0  0  0
   26.6147  -20.2472  -14.4081 N   0  0  0  0  0  0  0  0  0  0  0  0
   27.4286  -19.2126  -13.7382 C   0  0  0  0  0  0  0  0  0  0  0  0
   28.2088  -18.5397  -14.8461 C   0  0  0  0  0  0  0  0  0  0  0  0
   27.4046  -18.9144  -16.0724 C   0  0  0  0  0  0  0  0  0  0  0  0
   27.1292  -20.3979  -15.7482 C   0  0  1  0  0  0  0  0  0  0  0  0
   28.5026  -21.0318  -15.7065 C   0  0  0  0  0  0  0  0  0  0  0  0
   29.2254  -21.2727  -16.8572 O   0  0  0  0  0  0  0  0  0  0  0  0
   29.0018  -21.3485  -14.6051 O   0  0  0  0  0  0  0  0  0  0  0  0
  2  1  1  1
  3  2  1  0
  4  2  1  0
  4  6  1  0
  4  5  1  6
  6  7  2  0
  9 10  1  0
  9  8  1  0
 10 11  1  0
 12 11  1  1
 13 12  1  0
 13  6  1  0
 14 12  1  0
 14 15  2  0
 16 14  1  0
 17 16  1  0
 18 17  1  0
 18 19  1  0
 19 20  1  0
 20 16  1  0
 20 21  1  1
 21 22  1  0
 23 21  2  0
M  END
$$$$
