TMP.pdb
     RDKit          3D

 23 23  0  0  1  0  0  0  0  0999 V2000
   19.3056  -22.4235  -15.2558 C   0  0  0  0  0  0  0  0  0  0  0  0
   20.3926  -21.3833  -15.1575 C   0  0  1  0  0  0  0  0  0  0  0  0
   20.1413  -20.2506  -15.9065 O   0  0  0  0  0  0  0  0  0  0  0  0
   20.7383  -21.0704  -13.7173 C   0  0  2  0  0  0  0  0  0  0  0  0
   19.5973  -20.3837  -13.1415 N   0  0  0  0  0  0  0  0  0  0  0  0
   21.9776  -20.2899  -13.5948 C   0  0  0  0  0  0  0  0  0  0  0  0
   21.9118  -19.0478  -13.4616 O   0  0  0  0  0  0  0  0  0  0  0  0
   26.6790  -21.1787   -9.8664 C   0  0  0  0  0  0  0  0  0  0  0  0
   27.6109  -21.5218  -11.3678 S   0  0  0  0  0  0  0  0  0  0  0  0
   26.8400  -20.6566  -12.7895 C   0  0  0  0  0  0  0  0  0  0  0  0
   25.4192  -21.0918  -12.8416 C   0  0  0  0  0  0  0  0  0  0  0  0
   24.4520  -20.1105  -13.4888 C   0  0  2  0  0  0  0  0  0  0  0  0
   23.2212  -20.9512  -13.6290 N   0  0  0  0  0  0  0  0  0  0  0  0
   24.8338  -19.7203  -14.8543 C   0  0  0  0  0  0  0  0  0  0  0  0
   24.2778  -20.3607  -15.8197 O   0  0  0  0  0  0  0  0  0  0  0  0
   25.7421  -18.7168  -15.2017 N   0  0  0  0  0  0  0  0  0  0  0  0
   26.6472  -18.0567  -14.2389 C   0  0  0  0  0  0  0  0  0  0  0  0
   27.2230  -16.8710  -14.9815 C   0  0  0  0  0  0  0  0  0  0  0  0
   26.2275  -16.6882  -16.1068 C   0  0  0  0  0  0  0  0  0  0  0  0
   26.0252  -18.1654  -16.5052 C   0  0  1  0  0  0  0  0  0  0  0  0
   27.3921  -18.6166  -16.9718 C   0  0  0  0  0  0  0  0  0  0  0  0
   28.1853  -19.4425  -16.2016 O   0  0  0  0  0  0  0  0  0  0  0  0
   27.8209  -18.2352  -18.0824 O   0  0  0  0  0  0  0  0  0  0  0  0
  2  1  1  1
  3  2  1  0
  4  2  1  0
  4  6  1  0
  4  5  1  6
  6  7  2  0
  9 10  1  0
  9  8  1  0
 10 11  1  0
 12 11  1  6
 13 12  1  0
 13  6  1  0
 14 12  1  0
 14 15  2  0
 16 14  1  0
 17 16  1  0
 18 17  1  0
 18 19  1  0
 19 20  1  0
 20 16  1  0
 20 21  1  1
 21 22  1  0
 23 21  2  0
M  END
$$$$
