TMP.pdb
     RDKit          3D

 23 23  0  0  1  0  0  0  0  0999 V2000
   20.8709   -9.4294  -20.0620 C   0  0  0  0  0  0  0  0  0  0  0  0
   20.5115  -10.8506  -19.7093 C   0  0  1  0  0  0  0  0  0  0  0  0
   20.0148  -11.5745  -20.7753 O   0  0  0  0  0  0  0  0  0  0  0  0
   21.6481  -11.5549  -18.9997 C   0  0  2  0  0  0  0  0  0  0  0  0
   21.2175  -12.9171  -18.7466 N   0  0  0  0  0  0  0  0  0  0  0  0
   22.0561  -10.8625  -17.7692 C   0  0  0  0  0  0  0  0  0  0  0  0
   21.3798  -11.0095  -16.7273 O   0  0  0  0  0  0  0  0  0  0  0  0
   27.8019  -12.4522  -15.0284 C   0  0  0  0  0  0  0  0  0  0  0  0
   27.2447  -10.9311  -15.8135 S   0  0  0  0  0  0  0  0  0  0  0  0
   25.4137  -10.8390  -15.7611 C   0  0  0  0  0  0  0  0  0  0  0  0
   25.0270   -9.5539  -16.4013 C   0  0  0  0  0  0  0  0  0  0  0  0
   23.5307   -9.3012  -16.5227 C   0  0  2  0  0  0  0  0  0  0  0  0
   23.2025  -10.0434  -17.7806 N   0  0  0  0  0  0  0  0  0  0  0  0
   23.1896   -7.8944  -16.7816 C   0  0  0  0  0  0  0  0  0  0  0  0
   23.3150   -7.4780  -17.9908 O   0  0  0  0  0  0  0  0  0  0  0  0
   22.7393   -6.9677  -15.8376 N   0  0  0  0  0  0  0  0  0  0  0  0
   22.6181   -7.2564  -14.3940 C   0  0  0  0  0  0  0  0  0  0  0  0
   21.8390   -6.0938  -13.8190 C   0  0  0  0  0  0  0  0  0  0  0  0
   21.1743   -5.5179  -15.0508 C   0  0  0  0  0  0  0  0  0  0  0  0
   22.3625   -5.5882  -16.0331 C   0  0  1  0  0  0  0  0  0  0  0  0
   23.4048   -4.6761  -15.4238 C   0  0  0  0  0  0  0  0  0  0  0  0
   23.3805   -3.3109  -15.6248 O   0  0  0  0  0  0  0  0  0  0  0  0
   24.3146   -5.1644  -14.7193 O   0  0  0  0  0  0  0  0  0  0  0  0
  2  1  1  6
  3  2  1  0
  4  2  1  0
  4  6  1  0
  4  5  1  1
  6  7  2  0
  9 10  1  0
  9  8  1  0
 10 11  1  0
 12 11  1  6
 13 12  1  0
 13  6  1  0
 14 12  1  0
 14 15  2  0
 16 14  1  0
 17 16  1  0
 18 17  1  0
 18 19  1  0
 19 20  1  0
 20 16  1  0
 20 21  1  1
 21 22  1  0
 23 21  2  0
M  END
$$$$
