TMP.pdb
     RDKit          3D

 23 23  0  0  1  0  0  0  0  0999 V2000
   26.8474  -20.7432  -16.7960 C   0  0  0  0  0  0  0  0  0  0  0  0
   27.3122  -22.1666  -16.9719 C   0  0  1  0  0  0  0  0  0  0  0  0
   28.4374  -22.2854  -17.7638 O   0  0  0  0  0  0  0  0  0  0  0  0
   27.4518  -22.8774  -15.6427 C   0  0  2  0  0  0  0  0  0  0  0  0
   27.7715  -24.2634  -15.9286 N   0  0  0  0  0  0  0  0  0  0  0  0
   26.2505  -22.7444  -14.8066 C   0  0  0  0  0  0  0  0  0  0  0  0
   25.2637  -23.4814  -15.0255 O   0  0  0  0  0  0  0  0  0  0  0  0
   25.9837  -19.6502   -8.4803 C   0  0  0  0  0  0  0  0  0  0  0  0
   25.2403  -21.1489   -9.1448 S   0  0  0  0  0  0  0  0  0  0  0  0
   26.0713  -21.6129  -10.7126 C   0  0  0  0  0  0  0  0  0  0  0  0
   25.4164  -20.8333  -11.7962 C   0  0  0  0  0  0  0  0  0  0  0  0
   24.9521  -21.6397  -13.0010 C   0  0  2  0  0  0  0  0  0  0  0  0
   26.2272  -21.7894  -13.7709 N   0  0  0  0  0  0  0  0  0  0  0  0
   24.0308  -20.9061  -13.8817 C   0  0  0  0  0  0  0  0  0  0  0  0
   24.5473  -20.0205  -14.6564 O   0  0  0  0  0  0  0  0  0  0  0  0
   22.6468  -21.0829  -13.9582 N   0  0  0  0  0  0  0  0  0  0  0  0
   21.8791  -21.9668  -13.0575 C   0  0  0  0  0  0  0  0  0  0  0  0
   20.5021  -22.0676  -13.6762 C   0  0  0  0  0  0  0  0  0  0  0  0
   20.7651  -21.6434  -15.1051 C   0  0  0  0  0  0  0  0  0  0  0  0
   21.7013  -20.4449  -14.8427 C   0  0  1  0  0  0  0  0  0  0  0  0
   20.8465  -19.4665  -14.0671 C   0  0  0  0  0  0  0  0  0  0  0  0
   19.9382  -18.6396  -14.6963 O   0  0  0  0  0  0  0  0  0  0  0  0
   20.9604  -19.3995  -12.8241 O   0  0  0  0  0  0  0  0  0  0  0  0
  2  1  1  1
  3  2  1  0
  4  2  1  0
  4  6  1  0
  4  5  1  6
  6  7  2  0
  9 10  1  0
  9  8  1  0
 10 11  1  0
 12 11  1  1
 13 12  1  0
 13  6  1  0
 14 12  1  0
 14 15  2  0
 16 14  1  0
 17 16  1  0
 18 17  1  0
 18 19  1  0
 19 20  1  0
 20 16  1  0
 20 21  1  1
 21 22  1  0
 23 21  2  0
M  END
$$$$
