TMP.pdb
     RDKit          3D

 23 23  0  0  1  0  0  0  0  0999 V2000
   25.4992  -16.8446  -15.1527 C   0  0  0  0  0  0  0  0  0  0  0  0
   26.6565  -17.2216  -16.0424 C   0  0  1  0  0  0  0  0  0  0  0  0
   27.1530  -16.1642  -16.7790 O   0  0  0  0  0  0  0  0  0  0  0  0
   27.7330  -17.9604  -15.2763 C   0  0  2  0  0  0  0  0  0  0  0  0
   28.8171  -18.2225  -16.2043 N   0  0  0  0  0  0  0  0  0  0  0  0
   27.2301  -19.1894  -14.6466 C   0  0  0  0  0  0  0  0  0  0  0  0
   27.1192  -20.2306  -15.3311 O   0  0  0  0  0  0  0  0  0  0  0  0
   27.5503  -20.2251   -8.3495 C   0  0  0  0  0  0  0  0  0  0  0  0
   25.8053  -20.5651   -8.6320 S   0  0  0  0  0  0  0  0  0  0  0  0
   25.5482  -21.0941  -10.3692 C   0  0  0  0  0  0  0  0  0  0  0  0
   26.2660  -20.1167  -11.2295 C   0  0  0  0  0  0  0  0  0  0  0  0
   26.2483  -20.4140  -12.7224 C   0  0  2  0  0  0  0  0  0  0  0  0
   26.8803  -19.1776  -13.2818 N   0  0  0  0  0  0  0  0  0  0  0  0
   24.8954  -20.4725  -13.2958 C   0  0  0  0  0  0  0  0  0  0  0  0
   24.3281  -19.3513  -13.5645 O   0  0  0  0  0  0  0  0  0  0  0  0
   24.1690  -21.6322  -13.5789 N   0  0  0  0  0  0  0  0  0  0  0  0
   24.5442  -22.9767  -13.0958 C   0  0  0  0  0  0  0  0  0  0  0  0
   23.6636  -23.9368  -13.8650 C   0  0  0  0  0  0  0  0  0  0  0  0
   23.2348  -23.0952  -15.0476 C   0  0  0  0  0  0  0  0  0  0  0  0
   22.9361  -21.7692  -14.3167 C   0  0  1  0  0  0  0  0  0  0  0  0
   21.8038  -22.1105  -13.3727 C   0  0  0  0  0  0  0  0  0  0  0  0
   20.4953  -22.1825  -13.8056 O   0  0  0  0  0  0  0  0  0  0  0  0
   22.0520  -22.3339  -12.1681 O   0  0  0  0  0  0  0  0  0  0  0  0
  2  1  1  1
  3  2  1  0
  4  2  1  0
  4  6  1  0
  4  5  1  6
  6  7  2  0
  9 10  1  0
  9  8  1  0
 10 11  1  0
 12 11  1  1
 13 12  1  0
 13  6  1  0
 14 12  1  0
 14 15  2  0
 16 14  1  0
 17 16  1  0
 18 17  1  0
 18 19  1  0
 19 20  1  0
 20 16  1  0
 20 21  1  1
 21 22  1  0
 23 21  2  0
M  END
$$$$
