HWG.pdb
     RDKit          3D

 29 31  0  0  1  0  0  0  0  0999 V2000
   27.7699  -21.4772  -15.2026 N   0  0  0  0  0  0  0  0  0  0  0  0
   27.7688  -20.5214  -14.1421 C   0  0  1  0  0  0  0  0  0  0  0  0
   27.0169  -19.2744  -14.6258 C   0  0  0  0  0  0  0  0  0  0  0  0
   27.9497  -18.5454  -15.5296 C   0  0  0  0  0  0  0  0  0  0  0  0
   28.3403  -18.8447  -16.8154 C   0  0  0  0  0  0  0  0  0  0  0  0
   29.2028  -17.8888  -17.2277 N   0  0  0  0  0  0  0  0  0  0  0  0
   29.3599  -17.0059  -16.2399 C   0  0  0  0  0  0  0  0  0  0  0  0
   28.6037  -17.4017  -15.2143 N   0  0  0  0  0  0  0  0  0  0  0  0
   27.0174  -21.0058  -12.9410 C   0  0  0  0  0  0  0  0  0  0  0  0
   26.0231  -21.7656  -13.0520 O   0  0  0  0  0  0  0  0  0  0  0  0
   27.4758  -20.5698  -11.6769 N   0  0  0  0  0  0  0  0  0  0  0  0
   26.7190  -20.9630  -10.4691 C   0  0  1  0  0  0  0  0  0  0  0  0
   27.6624  -20.8394   -9.3366 C   0  0  0  0  0  0  0  0  0  0  0  0
   27.1011  -20.6722   -7.9970 C   0  0  0  0  0  0  0  0  0  0  0  0
   25.7670  -20.8186   -7.6540 C   0  0  0  0  0  0  0  0  0  0  0  0
   25.6296  -20.5268   -6.3730 N   0  0  0  0  0  0  0  0  0  0  0  0
   26.8155  -20.1864   -5.8202 C   0  0  0  0  0  0  0  0  0  0  0  0
   27.2374  -19.8233   -4.5642 C   0  0  0  0  0  0  0  0  0  0  0  0
   28.5610  -19.5572   -4.3207 C   0  0  0  0  0  0  0  0  0  0  0  0
   29.5206  -19.6375   -5.3004 C   0  0  0  0  0  0  0  0  0  0  0  0
   29.0767  -20.0055   -6.5666 C   0  0  0  0  0  0  0  0  0  0  0  0
   27.7446  -20.2804   -6.8507 C   0  0  0  0  0  0  0  0  0  0  0  0
   25.4756  -20.1878  -10.4724 C   0  0  0  0  0  0  0  0  0  0  0  0
   25.4279  -18.9597  -10.7894 O   0  0  0  0  0  0  0  0  0  0  0  0
   24.2139  -20.7588  -10.1068 N   0  0  0  0  0  0  0  0  0  0  0  0
   23.3357  -21.4758  -10.9518 C   0  0  0  0  0  0  0  0  0  0  0  0
   22.5624  -20.5933  -11.8390 C   0  0  0  0  0  0  0  0  0  0  0  0
   22.3692  -19.3741  -11.5391 O   0  0  0  0  0  0  0  0  0  0  0  0
   22.0246  -21.0532  -13.0154 O   0  0  0  0  0  0  0  0  0  0  0  0
  2  1  1  6
  3  2  1  0
  3  4  1  0
  4  5  2  0
  5  6  1  0
  7  6  1  0
  8  4  1  0
  8  7  2  0
  9 10  2  0
  9  2  1  0
 11  9  1  0
 12 13  1  1
 12 11  1  0
 13 14  1  0
 14 15  2  0
 15 16  1  0
 17 18  2  0
 17 16  1  0
 19 18  1  0
 20 19  2  0
 21 20  1  0
 21 22  2  0
 22 14  1  0
 22 17  1  0
 23 12  1  0
 24 23  2  0
 25 23  1  0
 26 27  1  0
 26 25  1  0
 27 29  1  0
 28 27  2  0
M  END
$$$$
