HWG.pdb
     RDKit          3D

 29 31  0  0  1  0  0  0  0  0999 V2000
   26.9853  -21.2030  -14.8202 N   0  0  0  0  0  0  0  0  0  0  0  0
   27.0815  -20.2648  -13.7484 C   0  0  1  0  0  0  0  0  0  0  0  0
   26.2968  -19.0071  -14.1447 C   0  0  0  0  0  0  0  0  0  0  0  0
   27.0479  -18.3794  -15.2672 C   0  0  0  0  0  0  0  0  0  0  0  0
   28.2368  -17.6855  -15.2491 C   0  0  0  0  0  0  0  0  0  0  0  0
   28.5233  -17.3061  -16.5148 N   0  0  0  0  0  0  0  0  0  0  0  0
   27.5513  -17.7424  -17.3176 C   0  0  0  0  0  0  0  0  0  0  0  0
   26.6601  -18.3904  -16.5651 N   0  0  0  0  0  0  0  0  0  0  0  0
   26.4349  -20.7661  -12.4944 C   0  0  0  0  0  0  0  0  0  0  0  0
   25.4381  -21.5297  -12.5307 O   0  0  0  0  0  0  0  0  0  0  0  0
   26.9953  -20.3415  -11.2680 N   0  0  0  0  0  0  0  0  0  0  0  0
   26.4225  -20.8561  -10.0059 C   0  0  1  0  0  0  0  0  0  0  0  0
   27.4859  -20.7174   -8.9872 C   0  0  0  0  0  0  0  0  0  0  0  0
   27.0931  -20.7720   -7.5800 C   0  0  0  0  0  0  0  0  0  0  0  0
   25.9418  -21.3605   -7.0829 C   0  0  0  0  0  0  0  0  0  0  0  0
   25.8963  -21.1553   -5.7787 N   0  0  0  0  0  0  0  0  0  0  0  0
   26.9703  -20.4502   -5.3579 C   0  0  0  0  0  0  0  0  0  0  0  0
   27.4208  -19.9912   -4.1439 C   0  0  0  0  0  0  0  0  0  0  0  0
   28.6048  -19.3045   -4.0513 C   0  0  0  0  0  0  0  0  0  0  0  0
   29.3915  -19.0423   -5.1465 C   0  0  0  0  0  0  0  0  0  0  0  0
   28.9207  -19.5129   -6.3681 C   0  0  0  0  0  0  0  0  0  0  0  0
   27.7260  -20.2101   -6.5004 C   0  0  0  0  0  0  0  0  0  0  0  0
   25.1351  -20.1829   -9.8148 C   0  0  0  0  0  0  0  0  0  0  0  0
   24.9916  -18.9256   -9.9132 O   0  0  0  0  0  0  0  0  0  0  0  0
   23.9361  -20.8965   -9.4912 N   0  0  0  0  0  0  0  0  0  0  0  0
   22.6431  -20.3462   -9.3344 C   0  0  0  0  0  0  0  0  0  0  0  0
   21.7856  -20.5807  -10.5065 C   0  0  0  0  0  0  0  0  0  0  0  0
   22.1134  -20.1419  -11.6527 O   0  0  0  0  0  0  0  0  0  0  0  0
   20.6071  -21.2774  -10.4039 O   0  0  0  0  0  0  0  0  0  0  0  0
  2  1  1  6
  3  2  1  0
  3  4  1  0
  4  5  2  0
  5  6  1  0
  7  6  1  0
  8  4  1  0
  8  7  2  0
  9 10  2  0
  9  2  1  0
 11  9  1  0
 12 13  1  1
 12 11  1  0
 13 14  1  0
 14 15  2  0
 15 16  1  0
 17 18  2  0
 17 16  1  0
 19 18  1  0
 20 19  2  0
 21 20  1  0
 21 22  2  0
 22 14  1  0
 22 17  1  0
 23 12  1  0
 24 23  2  0
 25 23  1  0
 26 27  1  0
 26 25  1  0
 27 29  1  0
 28 27  2  0
M  END
$$$$
