HWG.pdb
     RDKit          3D

 29 31  0  0  1  0  0  0  0  0999 V2000
   25.9649  -20.7057  -15.5741 N   0  0  0  0  0  0  0  0  0  0  0  0
   26.5231  -21.8453  -14.9199 C   0  0  1  0  0  0  0  0  0  0  0  0
   28.0085  -21.9298  -15.2954 C   0  0  0  0  0  0  0  0  0  0  0  0
   28.0617  -22.0255  -16.7807 C   0  0  0  0  0  0  0  0  0  0  0  0
   27.7797  -23.0934  -17.6028 C   0  0  0  0  0  0  0  0  0  0  0  0
   27.9709  -22.7025  -18.8828 N   0  0  0  0  0  0  0  0  0  0  0  0
   28.3618  -21.4270  -18.8819 C   0  0  0  0  0  0  0  0  0  0  0  0
   28.4170  -21.0176  -17.6131 N   0  0  0  0  0  0  0  0  0  0  0  0
   26.4900  -21.7173  -13.4285 C   0  0  0  0  0  0  0  0  0  0  0  0
   27.4953  -21.9862  -12.7247 O   0  0  0  0  0  0  0  0  0  0  0  0
   25.2773  -21.2812  -12.8473 N   0  0  0  0  0  0  0  0  0  0  0  0
   25.2330  -21.0338  -11.3904 C   0  0  1  0  0  0  0  0  0  0  0  0
   26.3122  -20.0627  -11.1070 C   0  0  0  0  0  0  0  0  0  0  0  0
   27.4206  -20.5031  -10.2615 C   0  0  0  0  0  0  0  0  0  0  0  0
   28.4821  -21.2961  -10.6658 C   0  0  0  0  0  0  0  0  0  0  0  0
   29.2470  -21.5387   -9.6164 N   0  0  0  0  0  0  0  0  0  0  0  0
   28.7554  -20.9437   -8.5063 C   0  0  0  0  0  0  0  0  0  0  0  0
   29.1475  -20.8551   -7.1926 C   0  0  0  0  0  0  0  0  0  0  0  0
   28.4131  -20.1271   -6.2911 C   0  0  0  0  0  0  0  0  0  0  0  0
   27.2664  -19.4584   -6.6447 C   0  0  0  0  0  0  0  0  0  0  0  0
   26.8827  -19.5591   -7.9782 C   0  0  0  0  0  0  0  0  0  0  0  0
   27.6000  -20.2886   -8.9186 C   0  0  0  0  0  0  0  0  0  0  0  0
   23.8455  -20.7028  -11.0549 C   0  0  0  0  0  0  0  0  0  0  0  0
   23.4639  -20.4418   -9.8728 O   0  0  0  0  0  0  0  0  0  0  0  0
   22.8070  -20.6579  -12.0404 N   0  0  0  0  0  0  0  0  0  0  0  0
   21.4764  -20.2217  -11.8445 C   0  0  0  0  0  0  0  0  0  0  0  0
   20.4979  -21.3078  -12.0093 C   0  0  0  0  0  0  0  0  0  0  0  0
   19.2569  -21.0994  -11.8356 O   0  0  0  0  0  0  0  0  0  0  0  0
   20.8888  -22.5779  -12.3540 O   0  0  0  0  0  0  0  0  0  0  0  0
  2  1  1  6
  3  2  1  0
  3  4  1  0
  4  5  2  0
  5  6  1  0
  7  6  1  0
  8  4  1  0
  8  7  2  0
  9 10  2  0
  9  2  1  0
 11  9  1  0
 12 13  1  6
 12 11  1  0
 13 14  1  0
 14 15  2  0
 15 16  1  0
 17 18  2  0
 17 16  1  0
 19 18  1  0
 20 19  2  0
 21 20  1  0
 21 22  2  0
 22 14  1  0
 22 17  1  0
 23 12  1  0
 24 23  2  0
 25 23  1  0
 26 27  1  0
 26 25  1  0
 27 29  1  0
 28 27  2  0
M  END
$$$$
