HWG.pdb
     RDKit          3D

 29 31  0  0  1  0  0  0  0  0999 V2000
   28.1781  -20.5172  -14.3802 N   0  0  0  0  0  0  0  0  0  0  0  0
   27.5038  -19.8848  -13.2923 C   0  0  1  0  0  0  0  0  0  0  0  0
   26.1789  -19.3171  -13.8187 C   0  0  0  0  0  0  0  0  0  0  0  0
   26.5368  -18.2705  -14.8161 C   0  0  0  0  0  0  0  0  0  0  0  0
   27.1718  -18.3957  -16.0312 C   0  0  0  0  0  0  0  0  0  0  0  0
   27.2766  -17.1652  -16.5813 N   0  0  0  0  0  0  0  0  0  0  0  0
   26.7269  -16.2807  -15.7475 C   0  0  0  0  0  0  0  0  0  0  0  0
   26.2802  -16.9473  -14.6814 N   0  0  0  0  0  0  0  0  0  0  0  0
   27.1283  -20.8547  -12.2153 C   0  0  0  0  0  0  0  0  0  0  0  0
   27.0096  -22.0829  -12.4510 O   0  0  0  0  0  0  0  0  0  0  0  0
   26.9125  -20.3272  -10.9216 N   0  0  0  0  0  0  0  0  0  0  0  0
   26.5733  -21.2540   -9.8208 C   0  0  1  0  0  0  0  0  0  0  0  0
   27.6817  -21.1553   -8.8463 C   0  0  0  0  0  0  0  0  0  0  0  0
   27.5418  -20.1987   -7.7495 C   0  0  0  0  0  0  0  0  0  0  0  0
   26.8061  -19.0256   -7.7871 C   0  0  0  0  0  0  0  0  0  0  0  0
   26.9685  -18.3926   -6.6390 N   0  0  0  0  0  0  0  0  0  0  0  0
   27.7854  -19.0833   -5.8123 C   0  0  0  0  0  0  0  0  0  0  0  0
   28.2616  -18.9017   -4.5365 C   0  0  0  0  0  0  0  0  0  0  0  0
   29.0825  -19.8356   -3.9568 C   0  0  0  0  0  0  0  0  0  0  0  0
   29.4671  -20.9829   -4.6071 C   0  0  0  0  0  0  0  0  0  0  0  0
   28.9771  -21.1510   -5.8983 C   0  0  0  0  0  0  0  0  0  0  0  0
   28.1456  -20.2261   -6.5181 C   0  0  0  0  0  0  0  0  0  0  0  0
   25.2039  -20.9402   -9.4043 C   0  0  0  0  0  0  0  0  0  0  0  0
   24.7588  -19.7538   -9.3309 O   0  0  0  0  0  0  0  0  0  0  0  0
   24.2615  -21.9545   -9.0372 N   0  0  0  0  0  0  0  0  0  0  0  0
   23.3464  -21.9059   -7.9605 C   0  0  0  0  0  0  0  0  0  0  0  0
   22.1544  -21.1015   -8.2706 C   0  0  0  0  0  0  0  0  0  0  0  0
   21.9259  -20.7044   -9.4555 O   0  0  0  0  0  0  0  0  0  0  0  0
   21.2522  -20.7528   -7.2964 O   0  0  0  0  0  0  0  0  0  0  0  0
  2  1  1  6
  3  2  1  0
  3  4  1  0
  4  5  2  0
  5  6  1  0
  7  6  1  0
  8  4  1  0
  8  7  2  0
  9 10  2  0
  9  2  1  0
 11  9  1  0
 12 13  1  1
 12 11  1  0
 13 14  1  0
 14 15  2  0
 15 16  1  0
 17 18  2  0
 17 16  1  0
 19 18  1  0
 20 19  2  0
 21 20  1  0
 21 22  2  0
 22 14  1  0
 22 17  1  0
 23 12  1  0
 24 23  2  0
 25 23  1  0
 26 27  1  0
 26 25  1  0
 27 29  1  0
 28 27  2  0
M  END
$$$$
