HWG.pdb
     RDKit          3D

 29 31  0  0  1  0  0  0  0  0999 V2000
   27.3253  -23.5343  -16.6105 N   0  0  0  0  0  0  0  0  0  0  0  0
   27.3154  -22.2605  -15.9659 C   0  0  1  0  0  0  0  0  0  0  0  0
   26.5834  -21.2696  -16.8807 C   0  0  0  0  0  0  0  0  0  0  0  0
   27.5895  -20.7857  -17.8665 C   0  0  0  0  0  0  0  0  0  0  0  0
   28.2072  -21.4613  -18.8949 C   0  0  0  0  0  0  0  0  0  0  0  0
   29.0460  -20.6042  -19.5191 N   0  0  0  0  0  0  0  0  0  0  0  0
   28.9686  -19.4188  -18.9120 C   0  0  0  0  0  0  0  0  0  0  0  0
   28.0896  -19.5276  -17.9141 N   0  0  0  0  0  0  0  0  0  0  0  0
   26.5394  -22.2774  -14.6855 C   0  0  0  0  0  0  0  0  0  0  0  0
   25.4924  -22.9605  -14.5622 O   0  0  0  0  0  0  0  0  0  0  0  0
   27.0367  -21.4901  -13.6219 N   0  0  0  0  0  0  0  0  0  0  0  0
   26.3055  -21.4834  -12.3369 C   0  0  1  0  0  0  0  0  0  0  0  0
   27.2145  -20.8577  -11.3519 C   0  0  0  0  0  0  0  0  0  0  0  0
   26.6753  -20.5449  -10.0295 C   0  0  0  0  0  0  0  0  0  0  0  0
   25.3386  -20.3436   -9.7269 C   0  0  0  0  0  0  0  0  0  0  0  0
   25.2427  -20.0188   -8.4500 N   0  0  0  0  0  0  0  0  0  0  0  0
   26.4594  -19.9896   -7.8612 C   0  0  0  0  0  0  0  0  0  0  0  0
   26.9229  -19.7392   -6.5924 C   0  0  0  0  0  0  0  0  0  0  0  0
   28.2627  -19.8187   -6.3089 C   0  0  0  0  0  0  0  0  0  0  0  0
   29.1984  -20.1473   -7.2595 C   0  0  0  0  0  0  0  0  0  0  0  0
   28.7127  -20.3969   -8.5391 C   0  0  0  0  0  0  0  0  0  0  0  0
   27.3635  -20.3239   -8.8636 C   0  0  0  0  0  0  0  0  0  0  0  0
   24.9903  -20.8918  -12.5964 C   0  0  0  0  0  0  0  0  0  0  0  0
   24.8396  -19.7334  -13.0927 O   0  0  0  0  0  0  0  0  0  0  0  0
   23.7681  -21.5769  -12.2989 N   0  0  0  0  0  0  0  0  0  0  0  0
   22.4570  -21.1095  -12.5475 C   0  0  0  0  0  0  0  0  0  0  0  0
   21.9645  -20.2217  -11.4829 C   0  0  0  0  0  0  0  0  0  0  0  0
   21.7806  -18.9835  -11.6993 O   0  0  0  0  0  0  0  0  0  0  0  0
   21.6884  -20.6967  -10.2248 O   0  0  0  0  0  0  0  0  0  0  0  0
  2  1  1  6
  3  2  1  0
  3  4  1  0
  4  5  2  0
  5  6  1  0
  7  6  1  0
  8  4  1  0
  8  7  2  0
  9 10  2  0
  9  2  1  0
 11  9  1  0
 12 13  1  1
 12 11  1  0
 13 14  1  0
 14 15  2  0
 15 16  1  0
 17 18  2  0
 17 16  1  0
 19 18  1  0
 20 19  2  0
 21 20  1  0
 21 22  2  0
 22 14  1  0
 22 17  1  0
 23 12  1  0
 24 23  2  0
 25 23  1  0
 26 27  1  0
 26 25  1  0
 27 29  1  0
 28 27  2  0
M  END
$$$$
