HWG.pdb
     RDKit          3D

 29 31  0  0  1  0  0  0  0  0999 V2000
   28.7506  -20.3397  -14.3504 N   0  0  0  0  0  0  0  0  0  0  0  0
   27.4671  -19.8321  -13.9853 C   0  0  1  0  0  0  0  0  0  0  0  0
   26.7874  -19.2994  -15.2537 C   0  0  0  0  0  0  0  0  0  0  0  0
   27.5804  -18.1167  -15.6904 C   0  0  0  0  0  0  0  0  0  0  0  0
   27.8220  -16.9304  -15.0347 C   0  0  0  0  0  0  0  0  0  0  0  0
   28.5974  -16.1593  -15.8297 N   0  0  0  0  0  0  0  0  0  0  0  0
   28.8452  -16.8284  -16.9569 C   0  0  0  0  0  0  0  0  0  0  0  0
   28.2314  -18.0103  -16.8735 N   0  0  0  0  0  0  0  0  0  0  0  0
   26.5610  -20.9022  -13.4603 C   0  0  0  0  0  0  0  0  0  0  0  0
   26.4871  -22.0281  -14.0126 O   0  0  0  0  0  0  0  0  0  0  0  0
   25.7919  -20.5893  -12.3162 N   0  0  0  0  0  0  0  0  0  0  0  0
   24.7568  -21.5456  -11.8691 C   0  0  1  0  0  0  0  0  0  0  0  0
   25.0261  -21.8006  -10.4373 C   0  0  0  0  0  0  0  0  0  0  0  0
   26.0529  -20.9918   -9.7822 C   0  0  0  0  0  0  0  0  0  0  0  0
   25.8215  -19.9238   -8.9309 C   0  0  0  0  0  0  0  0  0  0  0  0
   26.9856  -19.4014   -8.5886 N   0  0  0  0  0  0  0  0  0  0  0  0
   28.0089  -20.0675   -9.1692 C   0  0  0  0  0  0  0  0  0  0  0  0
   29.3786  -19.9642   -9.1440 C   0  0  0  0  0  0  0  0  0  0  0  0
   30.1594  -20.8432   -9.8509 C   0  0  0  0  0  0  0  0  0  0  0  0
   29.6257  -21.8568  -10.6091 C   0  0  0  0  0  0  0  0  0  0  0  0
   28.2374  -21.9469  -10.6246 C   0  0  0  0  0  0  0  0  0  0  0  0
   27.4149  -21.0738   -9.9231 C   0  0  0  0  0  0  0  0  0  0  0  0
   23.4619  -20.9986  -12.2831 C   0  0  0  0  0  0  0  0  0  0  0  0
   23.1883  -19.7600  -12.2363 O   0  0  0  0  0  0  0  0  0  0  0  0
   22.3975  -21.8266  -12.7657 N   0  0  0  0  0  0  0  0  0  0  0  0
   21.1387  -21.3912  -13.2401 C   0  0  0  0  0  0  0  0  0  0  0  0
   20.1231  -21.3411  -12.1770 C   0  0  0  0  0  0  0  0  0  0  0  0
   20.3616  -21.8186  -11.0242 O   0  0  0  0  0  0  0  0  0  0  0  0
   18.8885  -20.7805  -12.3917 O   0  0  0  0  0  0  0  0  0  0  0  0
  2  1  1  6
  3  2  1  0
  3  4  1  0
  4  5  2  0
  5  6  1  0
  7  6  1  0
  8  4  1  0
  8  7  2  0
  9 10  2  0
  9  2  1  0
 11  9  1  0
 12 13  1  1
 12 11  1  0
 13 14  1  0
 14 15  2  0
 15 16  1  0
 17 18  2  0
 17 16  1  0
 19 18  1  0
 20 19  2  0
 21 20  1  0
 21 22  2  0
 22 14  1  0
 22 17  1  0
 23 12  1  0
 24 23  2  0
 25 23  1  0
 26 27  1  0
 26 25  1  0
 27 29  1  0
 28 27  2  0
M  END
$$$$
