HWG.pdb
     RDKit          3D

 29 31  0  0  1  0  0  0  0  0999 V2000
   16.6940  -19.3359    2.5566 N   0  0  0  0  0  0  0  0  0  0  0  0
   16.3379  -19.0749    3.9143 C   0  0  1  0  0  0  0  0  0  0  0  0
   16.3301  -20.4105    4.6697 C   0  0  0  0  0  0  0  0  0  0  0  0
   15.2426  -21.2290    4.0651 C   0  0  0  0  0  0  0  0  0  0  0  0
   15.2932  -22.1206    3.0172 C   0  0  0  0  0  0  0  0  0  0  0  0
   14.0515  -22.6212    2.8288 N   0  0  0  0  0  0  0  0  0  0  0  0
   13.2323  -22.0697    3.7256 C   0  0  0  0  0  0  0  0  0  0  0  0
   13.9506  -21.2289    4.4723 N   0  0  0  0  0  0  0  0  0  0  0  0
   17.3500  -18.2212    4.6133 C   0  0  0  0  0  0  0  0  0  0  0  0
   18.5642  -18.2475    4.2921 O   0  0  0  0  0  0  0  0  0  0  0  0
   16.8790  -17.3850    5.6513 N   0  0  0  0  0  0  0  0  0  0  0  0
   17.8264  -16.4577    6.3057 C   0  0  1  0  0  0  0  0  0  0  0  0
   17.1762  -15.1292    6.2895 C   0  0  0  0  0  0  0  0  0  0  0  0
   17.9942  -13.9743    5.9226 C   0  0  0  0  0  0  0  0  0  0  0  0
   17.7953  -13.1582    4.8211 C   0  0  0  0  0  0  0  0  0  0  0  0
   18.7668  -12.2639    4.7817 N   0  0  0  0  0  0  0  0  0  0  0  0
   19.6257  -12.4308    5.8123 C   0  0  0  0  0  0  0  0  0  0  0  0
   20.7603  -11.7913    6.2494 C   0  0  0  0  0  0  0  0  0  0  0  0
   21.4050  -12.2093    7.3859 C   0  0  0  0  0  0  0  0  0  0  0  0
   20.9606  -13.2705    8.1366 C   0  0  0  0  0  0  0  0  0  0  0  0
   19.8112  -13.9076    7.6799 C   0  0  0  0  0  0  0  0  0  0  0  0
   19.1331  -13.5136    6.5327 C   0  0  0  0  0  0  0  0  0  0  0  0
   18.2101  -17.0681    7.5814 C   0  0  0  0  0  0  0  0  0  0  0  0
   17.3635  -17.4557    8.4440 O   0  0  0  0  0  0  0  0  0  0  0  0
   19.5779  -17.2658    7.9573 N   0  0  0  0  0  0  0  0  0  0  0  0
   20.0474  -17.8417    9.1603 C   0  0  0  0  0  0  0  0  0  0  0  0
   21.5160  -17.9038    9.2191 C   0  0  0  0  0  0  0  0  0  0  0  0
   22.2187  -17.7231    8.1763 O   0  0  0  0  0  0  0  0  0  0  0  0
   22.1756  -18.1584   10.3959 O   0  0  0  0  0  0  0  0  0  0  0  0
  2  1  1  6
  3  2  1  0
  3  4  1  0
  4  5  2  0
  5  6  1  0
  7  6  1  0
  8  4  1  0
  8  7  2  0
  9 10  2  0
  9  2  1  0
 11  9  1  0
 12 13  1  1
 12 11  1  0
 13 14  1  0
 14 15  2  0
 15 16  1  0
 17 18  2  0
 17 16  1  0
 19 18  1  0
 20 19  2  0
 21 20  1  0
 21 22  2  0
 22 14  1  0
 22 17  1  0
 23 12  1  0
 24 23  2  0
 25 23  1  0
 26 27  1  0
 26 25  1  0
 27 29  1  0
 28 27  2  0
M  END
$$$$
