HWG.pdb
     RDKit          3D

 29 31  0  0  1  0  0  0  0  0999 V2000
   18.7468  -11.6901  -16.5562 N   0  0  0  0  0  0  0  0  0  0  0  0
   19.1651  -10.3287  -16.6555 C   0  0  1  0  0  0  0  0  0  0  0  0
   18.0326   -9.5295  -17.3139 C   0  0  0  0  0  0  0  0  0  0  0  0
   17.8968  -10.0571  -18.7001 C   0  0  0  0  0  0  0  0  0  0  0  0
   16.8256  -10.6774  -19.3029 C   0  0  0  0  0  0  0  0  0  0  0  0
   17.1732  -10.9789  -20.5741 N   0  0  0  0  0  0  0  0  0  0  0  0
   18.4247  -10.5657  -20.7800 C   0  0  0  0  0  0  0  0  0  0  0  0
   18.8624  -10.0091  -19.6490 N   0  0  0  0  0  0  0  0  0  0  0  0
   19.3763   -9.6996  -15.3134 C   0  0  0  0  0  0  0  0  0  0  0  0
   18.8528  -10.1766  -14.2758 O   0  0  0  0  0  0  0  0  0  0  0  0
   20.1902   -8.5448  -15.2656 N   0  0  0  0  0  0  0  0  0  0  0  0
   20.4547   -7.9122  -13.9557 C   0  0  1  0  0  0  0  0  0  0  0  0
   21.8858   -8.1506  -13.6675 C   0  0  0  0  0  0  0  0  0  0  0  0
   22.8703   -7.5772  -14.5837 C   0  0  0  0  0  0  0  0  0  0  0  0
   23.6651   -8.2890  -15.4672 C   0  0  0  0  0  0  0  0  0  0  0  0
   24.4734   -7.4419  -16.0790 N   0  0  0  0  0  0  0  0  0  0  0  0
   24.2662   -6.1756  -15.6529 C   0  0  0  0  0  0  0  0  0  0  0  0
   24.7967   -4.9454  -15.9572 C   0  0  0  0  0  0  0  0  0  0  0  0
   24.3322   -3.8115  -15.3404 C   0  0  0  0  0  0  0  0  0  0  0  0
   23.3295   -3.8418  -14.4019 C   0  0  0  0  0  0  0  0  0  0  0  0
   22.8039   -5.0953  -14.1046 C   0  0  0  0  0  0  0  0  0  0  0  0
   23.2504   -6.2650  -14.7074 C   0  0  0  0  0  0  0  0  0  0  0  0
   19.9429   -6.5413  -14.0317 C   0  0  0  0  0  0  0  0  0  0  0  0
   19.9113   -5.7593  -13.0324 O   0  0  0  0  0  0  0  0  0  0  0  0
   19.4279   -5.9801  -15.2447 N   0  0  0  0  0  0  0  0  0  0  0  0
   18.9442   -4.6640  -15.4267 C   0  0  0  0  0  0  0  0  0  0  0  0
   17.4984   -4.5561  -15.1772 C   0  0  0  0  0  0  0  0  0  0  0  0
   16.8155   -5.5757  -14.8488 O   0  0  0  0  0  0  0  0  0  0  0  0
   16.8395   -3.3571  -15.2904 O   0  0  0  0  0  0  0  0  0  0  0  0
  2  1  1  1
  3  2  1  0
  3  4  1  0
  4  5  2  0
  5  6  1  0
  7  6  1  0
  8  4  1  0
  8  7  2  0
  9 10  2  0
  9  2  1  0
 11  9  1  0
 12 13  1  6
 12 11  1  0
 13 14  1  0
 14 15  2  0
 15 16  1  0
 17 18  2  0
 17 16  1  0
 19 18  1  0
 20 19  2  0
 21 20  1  0
 21 22  2  0
 22 14  1  0
 22 17  1  0
 23 12  1  0
 24 23  2  0
 25 23  1  0
 26 27  1  0
 26 25  1  0
 27 29  1  0
 28 27  2  0
M  END
$$$$
