HWG.pdb
     RDKit          3D

 29 31  0  0  1  0  0  0  0  0999 V2000
   26.3640  -21.2394  -13.6126 N   0  0  0  0  0  0  0  0  0  0  0  0
   25.4294  -20.5402  -12.7906 C   0  0  1  0  0  0  0  0  0  0  0  0
   24.0211  -20.8055  -13.3393 C   0  0  0  0  0  0  0  0  0  0  0  0
   23.8894  -19.9831  -14.5740 C   0  0  0  0  0  0  0  0  0  0  0  0
   23.9416  -20.3675  -15.8951 C   0  0  0  0  0  0  0  0  0  0  0  0
   23.7698  -19.2672  -16.6617 N   0  0  0  0  0  0  0  0  0  0  0  0
   23.6123  -18.2129  -15.8597 C   0  0  0  0  0  0  0  0  0  0  0  0
   23.6845  -18.6443  -14.5991 N   0  0  0  0  0  0  0  0  0  0  0  0
   25.4174  -21.0505  -11.3830 C   0  0  0  0  0  0  0  0  0  0  0  0
   25.5575  -22.2724  -11.1272 O   0  0  0  0  0  0  0  0  0  0  0  0
   25.2407  -20.0965  -10.3548 N   0  0  0  0  0  0  0  0  0  0  0  0
   25.2883  -20.5475   -8.9476 C   0  0  1  0  0  0  0  0  0  0  0  0
   26.1333  -19.5668   -8.2319 C   0  0  0  0  0  0  0  0  0  0  0  0
   27.4944  -19.9682   -7.8801 C   0  0  0  0  0  0  0  0  0  0  0  0
   28.3427  -20.7304   -8.6665 C   0  0  0  0  0  0  0  0  0  0  0  0
   29.4591  -20.9436   -7.9932 N   0  0  0  0  0  0  0  0  0  0  0  0
   29.4139  -20.3579   -6.7755 C   0  0  0  0  0  0  0  0  0  0  0  0
   30.2778  -20.2500   -5.7128 C   0  0  0  0  0  0  0  0  0  0  0  0
   29.9244  -19.5399   -4.5935 C   0  0  0  0  0  0  0  0  0  0  0  0
   28.7100  -18.9088   -4.4747 C   0  0  0  0  0  0  0  0  0  0  0  0
   27.8467  -19.0286   -5.5591 C   0  0  0  0  0  0  0  0  0  0  0  0
   28.1695  -19.7409   -6.7078 C   0  0  0  0  0  0  0  0  0  0  0  0
   23.9036  -20.7673   -8.5219 C   0  0  0  0  0  0  0  0  0  0  0  0
   22.9758  -19.9258   -8.7272 O   0  0  0  0  0  0  0  0  0  0  0  0
   23.4920  -21.9515   -7.8293 N   0  0  0  0  0  0  0  0  0  0  0  0
   22.2801  -22.1391   -7.1254 C   0  0  0  0  0  0  0  0  0  0  0  0
   21.1462  -22.4161   -8.0208 C   0  0  0  0  0  0  0  0  0  0  0  0
   21.3092  -22.4798   -9.2790 O   0  0  0  0  0  0  0  0  0  0  0  0
   19.8788  -22.6136   -7.5315 O   0  0  0  0  0  0  0  0  0  0  0  0
  2  1  1  6
  3  2  1  0
  3  4  1  0
  4  5  2  0
  5  6  1  0
  7  6  1  0
  8  4  1  0
  8  7  2  0
  9 10  2  0
  9  2  1  0
 11  9  1  0
 12 13  1  1
 12 11  1  0
 13 14  1  0
 14 15  2  0
 15 16  1  0
 17 18  2  0
 17 16  1  0
 19 18  1  0
 20 19  2  0
 21 20  1  0
 21 22  2  0
 22 14  1  0
 22 17  1  0
 23 12  1  0
 24 23  2  0
 25 23  1  0
 26 27  1  0
 26 25  1  0
 27 29  1  0
 28 27  2  0
M  END
$$$$
