HWG.pdb
     RDKit          3D

 29 31  0  0  1  0  0  0  0  0999 V2000
   21.5341  -12.7252  -17.3860 N   0  0  0  0  0  0  0  0  0  0  0  0
   20.7831  -11.6164  -16.8914 C   0  0  1  0  0  0  0  0  0  0  0  0
   19.7024  -12.1572  -15.9457 C   0  0  0  0  0  0  0  0  0  0  0  0
   18.8702  -13.0942  -16.7506 C   0  0  0  0  0  0  0  0  0  0  0  0
   18.6460  -14.4413  -16.5759 C   0  0  0  0  0  0  0  0  0  0  0  0
   17.8188  -14.8623  -17.5589 N   0  0  0  0  0  0  0  0  0  0  0  0
   17.5220  -13.8205  -18.3375 C   0  0  0  0  0  0  0  0  0  0  0  0
   18.1566  -12.7526  -17.8502 N   0  0  0  0  0  0  0  0  0  0  0  0
   21.6172  -10.6888  -16.0634 C   0  0  0  0  0  0  0  0  0  0  0  0
   22.2969  -11.1073  -15.0933 O   0  0  0  0  0  0  0  0  0  0  0  0
   21.6054   -9.3212  -16.4211 N   0  0  0  0  0  0  0  0  0  0  0  0
   22.4632   -8.3800  -15.6698 C   0  0  1  0  0  0  0  0  0  0  0  0
   23.4193   -7.8242  -16.6521 C   0  0  0  0  0  0  0  0  0  0  0  0
   24.2751   -8.7625  -17.3765 C   0  0  0  0  0  0  0  0  0  0  0  0
   24.0871   -9.1883  -18.6812 C   0  0  0  0  0  0  0  0  0  0  0  0
   25.0182  -10.0803  -18.9687 N   0  0  0  0  0  0  0  0  0  0  0  0
   25.8401  -10.2847  -17.9148 C   0  0  0  0  0  0  0  0  0  0  0  0
   26.9474  -11.0627  -17.6784 C   0  0  0  0  0  0  0  0  0  0  0  0
   27.5873  -11.0185  -16.4657 C   0  0  0  0  0  0  0  0  0  0  0  0
   27.1649  -10.2091  -15.4393 C   0  0  0  0  0  0  0  0  0  0  0  0
   26.0420   -9.4284  -15.6947 C   0  0  0  0  0  0  0  0  0  0  0  0
   25.3673   -9.4484  -16.9093 C   0  0  0  0  0  0  0  0  0  0  0  0
   21.5698   -7.4834  -14.9315 C   0  0  0  0  0  0  0  0  0  0  0  0
   21.9862   -6.4808  -14.2739 O   0  0  0  0  0  0  0  0  0  0  0  0
   20.1513   -7.6776  -14.8882 N   0  0  0  0  0  0  0  0  0  0  0  0
   19.1981   -6.8083  -14.3095 C   0  0  0  0  0  0  0  0  0  0  0  0
   18.7531   -5.7604  -15.2412 C   0  0  0  0  0  0  0  0  0  0  0  0
   19.2260   -5.6906  -16.4182 O   0  0  0  0  0  0  0  0  0  0  0  0
   17.8171   -4.8257  -14.8739 O   0  0  0  0  0  0  0  0  0  0  0  0
  2  1  1  1
  3  2  1  0
  3  4  1  0
  4  5  2  0
  5  6  1  0
  7  6  1  0
  8  4  1  0
  8  7  2  0
  9 10  2  0
  9  2  1  0
 11  9  1  0
 12 13  1  6
 12 11  1  0
 13 14  1  0
 14 15  2  0
 15 16  1  0
 17 18  2  0
 17 16  1  0
 19 18  1  0
 20 19  2  0
 21 20  1  0
 21 22  2  0
 22 14  1  0
 22 17  1  0
 23 12  1  0
 24 23  2  0
 25 23  1  0
 26 27  1  0
 26 25  1  0
 27 29  1  0
 28 27  2  0
M  END
$$$$
