NRT.pdb
     RDKit          3D

 27 26  0  0  1  0  0  0  0  0999 V2000
   25.0493  -11.0125  -14.7593 N   0  0  0  0  0  0  0  0  0  0  0  0
   24.8806   -9.5931  -14.9091 C   0  0  0  0  0  0  0  0  0  0  0  0
   25.9115   -8.9059  -14.8326 O   0  0  0  0  0  0  0  0  0  0  0  0
   23.5118   -9.1101  -15.1359 C   0  0  0  0  0  0  0  0  0  0  0  0
   22.4410  -10.1455  -15.0566 C   0  0  2  0  0  0  0  0  0  0  0  0
   22.5970  -11.0947  -16.1208 N   0  0  0  0  0  0  0  0  0  0  0  0
   21.1299   -9.4666  -15.0892 C   0  0  0  0  0  0  0  0  0  0  0  0
   20.6517   -9.0716  -16.2012 O   0  0  0  0  0  0  0  0  0  0  0  0
   13.7718  -10.4831  -10.3569 N   0  0  0  0  0  0  0  0  0  0  0  0
   13.3957   -9.6890  -11.4828 C   0  0  0  0  0  0  0  0  0  0  0  0
   12.1736   -9.5557  -11.8207 N   0  0  0  0  0  0  0  0  0  0  0  0
   14.3761   -9.0070  -12.2841 N   0  0  0  0  0  0  0  0  0  0  0  0
   15.6800   -9.5742  -12.4593 C   0  0  0  0  0  0  0  0  0  0  0  0
   16.5801   -8.7972  -13.3837 C   0  0  0  0  0  0  0  0  0  0  0  0
   17.9924   -9.2982  -13.1785 C   0  0  0  0  0  0  0  0  0  0  0  0
   18.9939   -8.6480  -14.0748 C   0  0  2  0  0  0  0  0  0  0  0  0
   20.3216   -9.2037  -13.9486 N   0  0  0  0  0  0  0  0  0  0  0  0
   18.9531   -7.1935  -13.8454 C   0  0  0  0  0  0  0  0  0  0  0  0
   19.5278   -6.7491  -12.8239 O   0  0  0  0  0  0  0  0  0  0  0  0
   11.8311   -8.9791  -12.6159 C   0  0  0  0  0  0  0  0  0  0  0  0
   18.1581   -4.1066  -16.7889 C   0  0  2  0  0  0  0  0  0  0  0  0
   19.0129   -4.0668  -15.5502 O   0  0  0  0  0  0  0  0  0  0  0  0
   19.0942   -2.7351  -15.1409 C   0  0  1  0  0  0  0  0  0  0  0  0
   18.4262   -4.8603  -14.4174 N   0  0  0  0  0  0  0  0  0  0  0  0
   18.3119   -6.2634  -14.6953 C   0  0  0  0  0  0  0  0  0  0  0  0
   17.0915   -4.3020  -14.0931 O   0  0  0  0  0  0  0  0  0  0  0  0
   16.0773   -4.9817  -14.2964 O   0  0  0  0  0  0  0  0  0  0  0  0
  2  1  1  0
  3  2  2  0
  4  2  1  0
  5  4  1  0
  5  6  1  6
  7  5  1  0
  7  8  2  0
  9 10  1  0
 10 11  2  0
 12 10  1  0
 12 13  1  0
 13 14  1  0
 14 15  1  0
 16 15  1  1
 16 17  1  0
 17  7  1  0
 18 16  1  0
 19 18  2  0
 21 20  1  6
 22 21  1  0
 23 21  1  0
 23 24  1  6
 24 18  1  0
 25 27  1  0
 25 23  1  0
 26 25  2  0
M  END
$$$$
