NRT.pdb
     RDKit          3D

 27 26  0  0  1  0  0  0  0  0999 V2000
   27.9032  -20.1287   -7.4624 N   0  0  0  0  0  0  0  0  0  0  0  0
   26.5693  -19.8882   -7.9403 C   0  0  0  0  0  0  0  0  0  0  0  0
   25.7046  -19.6795   -7.0745 O   0  0  0  0  0  0  0  0  0  0  0  0
   26.3734  -19.9151   -9.3960 C   0  0  0  0  0  0  0  0  0  0  0  0
   25.0329  -20.3783   -9.8580 C   0  0  2  0  0  0  0  0  0  0  0  0
   24.6646  -21.5804   -9.1672 N   0  0  0  0  0  0  0  0  0  0  0  0
   25.0786  -20.5570  -11.3233 C   0  0  0  0  0  0  0  0  0  0  0  0
   25.5141  -19.6145  -12.0602 O   0  0  0  0  0  0  0  0  0  0  0  0
   26.4086  -23.6492  -18.2331 N   0  0  0  0  0  0  0  0  0  0  0  0
   27.0705  -24.5929  -17.3901 C   0  0  0  0  0  0  0  0  0  0  0  0
   28.2495  -25.0019  -17.6516 N   0  0  0  0  0  0  0  0  0  0  0  0
   26.4381  -25.1236  -16.2124 N   0  0  0  0  0  0  0  0  0  0  0  0
   25.1111  -24.7121  -15.8634 C   0  0  0  0  0  0  0  0  0  0  0  0
   24.9874  -23.2605  -15.4815 C   0  0  0  0  0  0  0  0  0  0  0  0
   24.8391  -23.1918  -13.9778 C   0  0  0  0  0  0  0  0  0  0  0  0
   24.6754  -21.8026  -13.4557 C   0  0  2  0  0  0  0  0  0  0  0  0
   24.6651  -21.7304  -12.0127 N   0  0  0  0  0  0  0  0  0  0  0  0
   23.4760  -21.2091  -14.0715 C   0  0  0  0  0  0  0  0  0  0  0  0
   22.3636  -21.4870  -13.5650 O   0  0  0  0  0  0  0  0  0  0  0  0
   28.8130  -25.6331  -17.0464 C   0  0  0  0  0  0  0  0  0  0  0  0
   21.1824  -17.9554  -17.0151 C   0  0  1  0  0  0  0  0  0  0  0  0
   22.4748  -18.6087  -16.6032 O   0  0  0  0  0  0  0  0  0  0  0  0
   23.2591  -17.6323  -15.9876 C   0  0  1  0  0  0  0  0  0  0  0  0
   22.2705  -19.7230  -15.6164 N   0  0  0  0  0  0  0  0  0  0  0  0
   23.4904  -20.3488  -15.1932 C   0  0  0  0  0  0  0  0  0  0  0  0
   21.3729  -20.7333  -16.2264 O   0  0  0  0  0  0  0  0  0  0  0  0
   21.8148  -21.5054  -17.0869 O   0  0  0  0  0  0  0  0  0  0  0  0
  2  1  1  0
  3  2  2  0
  4  2  1  0
  5  4  1  0
  5  6  1  1
  7  5  1  0
  7  8  2  0
  9 10  1  0
 10 11  2  0
 12 10  1  0
 12 13  1  0
 13 14  1  0
 14 15  1  0
 16 15  1  1
 16 17  1  0
 17  7  1  0
 18 16  1  0
 19 18  2  0
 21 20  1  6
 22 21  1  0
 23 21  1  0
 23 24  1  6
 24 18  1  0
 25 27  1  0
 25 23  1  0
 26 25  2  0
M  END
$$$$
