NRT.pdb
     RDKit          3D

 27 26  0  0  1  0  0  0  0  0999 V2000
   27.9378  -12.1998  -15.3039 N   0  0  0  0  0  0  0  0  0  0  0  0
   27.9962  -10.9355  -15.9847 C   0  0  0  0  0  0  0  0  0  0  0  0
   29.1304  -10.5007  -16.2404 O   0  0  0  0  0  0  0  0  0  0  0  0
   26.7125  -10.2963  -16.3037 C   0  0  0  0  0  0  0  0  0  0  0  0
   25.4948  -11.0623  -15.9095 C   0  0  2  0  0  0  0  0  0  0  0  0
   25.4597  -12.3178  -16.6027 N   0  0  0  0  0  0  0  0  0  0  0  0
   24.3074  -10.2285  -16.1849 C   0  0  0  0  0  0  0  0  0  0  0  0
   23.8715  -10.1261  -17.3768 O   0  0  0  0  0  0  0  0  0  0  0  0
   16.2603  -10.6842  -13.6567 N   0  0  0  0  0  0  0  0  0  0  0  0
   16.2351   -9.8787  -14.8357 C   0  0  0  0  0  0  0  0  0  0  0  0
   15.1684   -9.7395  -15.5201 N   0  0  0  0  0  0  0  0  0  0  0  0
   17.4088   -9.1913  -15.3030 N   0  0  0  0  0  0  0  0  0  0  0  0
   18.7040   -9.5802  -14.8301 C   0  0  0  0  0  0  0  0  0  0  0  0
   19.8456   -8.7914  -15.4156 C   0  0  0  0  0  0  0  0  0  0  0  0
   21.1332   -9.4597  -14.9878 C   0  0  0  0  0  0  0  0  0  0  0  0
   22.3581   -8.8019  -15.5320 C   0  0  2  0  0  0  0  0  0  0  0  0
   23.5785   -9.5019  -15.2031 N   0  0  0  0  0  0  0  0  0  0  0  0
   22.3658   -7.3942  -15.0981 C   0  0  0  0  0  0  0  0  0  0  0  0
   22.7306   -7.1489  -13.9243 O   0  0  0  0  0  0  0  0  0  0  0  0
   15.0836   -9.1747  -16.3895 C   0  0  0  0  0  0  0  0  0  0  0  0
   24.4024   -4.3775  -16.2429 C   0  0  2  0  0  0  0  0  0  0  0  0
   22.9315   -4.0586  -16.2812 O   0  0  0  0  0  0  0  0  0  0  0  0
   22.4984   -4.2407  -17.5952 C   0  0  2  0  0  0  0  0  0  0  0  0
   22.1203   -4.9658  -15.4004 N   0  0  0  0  0  0  0  0  0  0  0  0
   21.9907   -6.3003  -15.9114 C   0  0  0  0  0  0  0  0  0  0  0  0
   20.7770   -4.3658  -15.2165 O   0  0  0  0  0  0  0  0  0  0  0  0
   19.8066   -4.8387  -15.8220 O   0  0  0  0  0  0  0  0  0  0  0  0
  2  1  1  0
  3  2  2  0
  4  2  1  0
  5  4  1  0
  5  6  1  6
  7  5  1  0
  7  8  2  0
  9 10  1  0
 10 11  2  0
 12 10  1  0
 12 13  1  0
 13 14  1  0
 14 15  1  0
 16 15  1  1
 16 17  1  0
 17  7  1  0
 18 16  1  0
 19 18  2  0
 21 20  1  6
 22 21  1  0
 23 21  1  0
 23 24  1  1
 24 18  1  0
 25 27  1  0
 25 23  1  0
 26 25  2  0
M  END
$$$$
