NRT.pdb
     RDKit          3D

 27 26  0  0  1  0  0  0  0  0999 V2000
   20.4499  -19.9501  -13.4503 N   0  0  0  0  0  0  0  0  0  0  0  0
   21.4473  -20.9447  -13.7359 C   0  0  0  0  0  0  0  0  0  0  0  0
   21.1745  -22.1086  -13.4014 O   0  0  0  0  0  0  0  0  0  0  0  0
   22.6773  -20.4789  -14.3904 C   0  0  0  0  0  0  0  0  0  0  0  0
   23.9271  -21.1916  -13.9967 C   0  0  2  0  0  0  0  0  0  0  0  0
   24.1304  -21.0792  -12.5811 N   0  0  0  0  0  0  0  0  0  0  0  0
   25.0498  -20.6341  -14.7775 C   0  0  0  0  0  0  0  0  0  0  0  0
   25.5248  -19.4928  -14.4723 O   0  0  0  0  0  0  0  0  0  0  0  0
   30.4071  -25.8483  -15.6651 N   0  0  0  0  0  0  0  0  0  0  0  0
   29.2261  -25.7040  -16.4550 C   0  0  0  0  0  0  0  0  0  0  0  0
   28.3593  -26.6362  -16.5269 N   0  0  0  0  0  0  0  0  0  0  0  0
   28.9629  -24.5043  -17.2034 N   0  0  0  0  0  0  0  0  0  0  0  0
   29.6426  -23.2878  -16.8712 C   0  0  0  0  0  0  0  0  0  0  0  0
   28.7978  -22.2809  -16.1359 C   0  0  0  0  0  0  0  0  0  0  0  0
   27.7476  -21.7718  -17.0981 C   0  0  0  0  0  0  0  0  0  0  0  0
   26.8521  -20.7317  -16.5107 C   0  0  2  0  0  0  0  0  0  0  0  0
   25.6729  -21.2801  -15.8810 N   0  0  0  0  0  0  0  0  0  0  0  0
   26.5403  -19.7390  -17.5535 C   0  0  0  0  0  0  0  0  0  0  0  0
   25.4263  -19.8225  -18.1220 O   0  0  0  0  0  0  0  0  0  0  0  0
   27.4534  -26.5745  -17.0344 C   0  0  0  0  0  0  0  0  0  0  0  0
   27.3078  -15.5807  -20.1119 C   0  0  2  0  0  0  0  0  0  0  0  0
   27.7987  -16.5320  -19.0532 O   0  0  0  0  0  0  0  0  0  0  0  0
   27.6721  -15.8883  -17.8215 C   0  0  1  0  0  0  0  0  0  0  0  0
   26.9919  -17.7980  -18.9947 N   0  0  0  0  0  0  0  0  0  0  0  0
   27.4082  -18.6992  -17.9586 C   0  0  0  0  0  0  0  0  0  0  0  0
   27.0785  -18.4728  -20.3121 O   0  0  0  0  0  0  0  0  0  0  0  0
   28.0380  -19.2147  -20.5586 O   0  0  0  0  0  0  0  0  0  0  0  0
  2  1  1  0
  3  2  2  0
  4  2  1  0
  5  4  1  0
  5  6  1  1
  7  5  1  0
  7  8  2  0
  9 10  1  0
 10 11  2  0
 12 10  1  0
 12 13  1  0
 13 14  1  0
 14 15  1  0
 16 15  1  6
 16 17  1  0
 17  7  1  0
 18 16  1  0
 19 18  2  0
 21 20  1  6
 22 21  1  0
 23 21  1  0
 23 24  1  6
 24 18  1  0
 25 27  1  0
 25 23  1  0
 26 25  2  0
M  END
$$$$
