NRT.pdb
     RDKit          3D

 27 26  0  0  1  0  0  0  0  0999 V2000
   31.6952  -21.4169  -10.3574 N   0  0  0  0  0  0  0  0  0  0  0  0
   31.1587  -20.2994  -11.0847 C   0  0  0  0  0  0  0  0  0  0  0  0
   31.8865  -19.2973  -11.1680 O   0  0  0  0  0  0  0  0  0  0  0  0
   29.8122  -20.4627  -11.6491 C   0  0  0  0  0  0  0  0  0  0  0  0
   29.1125  -21.7307  -11.2921 C   0  0  2  0  0  0  0  0  0  0  0  0
   29.7827  -22.8469  -11.8948 N   0  0  0  0  0  0  0  0  0  0  0  0
   27.7012  -21.6213  -11.7130 C   0  0  0  0  0  0  0  0  0  0  0  0
   27.3318  -22.1314  -12.8196 O   0  0  0  0  0  0  0  0  0  0  0  0
   19.6568  -21.5403   -9.0383 N   0  0  0  0  0  0  0  0  0  0  0  0
   20.8617  -21.6878   -8.2860 C   0  0  0  0  0  0  0  0  0  0  0  0
   20.9223  -22.4669   -7.2785 N   0  0  0  0  0  0  0  0  0  0  0  0
   22.0569  -20.9653   -8.6295 N   0  0  0  0  0  0  0  0  0  0  0  0
   22.0437  -20.0322   -9.7165 C   0  0  0  0  0  0  0  0  0  0  0  0
   22.9121  -20.4209  -10.8840 C   0  0  0  0  0  0  0  0  0  0  0  0
   24.3374  -20.5133  -10.3861 C   0  0  0  0  0  0  0  0  0  0  0  0
   25.3127  -20.9279  -11.4377 C   0  0  2  0  0  0  0  0  0  0  0  0
   26.6780  -20.9737  -10.9669 N   0  0  0  0  0  0  0  0  0  0  0  0
   25.1361  -20.0546  -12.6108 C   0  0  0  0  0  0  0  0  0  0  0  0
   25.5016  -18.8601  -12.5074 O   0  0  0  0  0  0  0  0  0  0  0  0
   21.7754  -22.6481   -6.7115 C   0  0  0  0  0  0  0  0  0  0  0  0
   26.6645  -20.0254  -16.0468 C   0  0  2  0  0  0  0  0  0  0  0  0
   25.1658  -19.9783  -16.1832 O   0  0  0  0  0  0  0  0  0  0  0  0
   24.7304  -21.2746  -16.4618 C   0  0  2  0  0  0  0  0  0  0  0  0
   24.4847  -19.5261  -14.9227 N   0  0  0  0  0  0  0  0  0  0  0  0
   24.5835  -20.4679  -13.8447 C   0  0  0  0  0  0  0  0  0  0  0  0
   23.0585  -19.2597  -15.2278 O   0  0  0  0  0  0  0  0  0  0  0  0
   22.1785  -19.9419  -14.6873 O   0  0  0  0  0  0  0  0  0  0  0  0
  2  1  1  0
  3  2  2  0
  4  2  1  0
  5  4  1  0
  5  6  1  6
  7  5  1  0
  7  8  2  0
  9 10  1  0
 10 11  2  0
 12 10  1  0
 12 13  1  0
 13 14  1  0
 14 15  1  0
 16 15  1  1
 16 17  1  0
 17  7  1  0
 18 16  1  0
 19 18  2  0
 21 20  1  6
 22 21  1  0
 23 21  1  0
 23 24  1  6
 24 18  1  0
 25 27  1  0
 25 23  1  0
 26 25  2  0
M  END
$$$$
