NRT.pdb
     RDKit          3D

 27 26  0  0  1  0  0  0  0  0999 V2000
   17.1663  -11.7786  -17.2491 N   0  0  0  0  0  0  0  0  0  0  0  0
   17.1328  -10.8677  -16.1380 C   0  0  0  0  0  0  0  0  0  0  0  0
   16.0124  -10.6178  -15.6656 O   0  0  0  0  0  0  0  0  0  0  0  0
   18.4229  -10.3325  -15.6824 C   0  0  0  0  0  0  0  0  0  0  0  0
   19.6109  -10.7405  -16.4870 C   0  0  2  0  0  0  0  0  0  0  0  0
   20.0124  -12.0703  -16.1286 N   0  0  0  0  0  0  0  0  0  0  0  0
   20.6832   -9.7474  -16.2755 C   0  0  0  0  0  0  0  0  0  0  0  0
   21.3340   -9.7454  -15.1811 O   0  0  0  0  0  0  0  0  0  0  0  0
   26.1922   -6.0911  -21.6157 N   0  0  0  0  0  0  0  0  0  0  0  0
   26.3326   -7.1984  -20.7248 C   0  0  0  0  0  0  0  0  0  0  0  0
   27.1643   -8.1359  -20.9594 N   0  0  0  0  0  0  0  0  0  0  0  0
   25.5436   -7.3057  -19.5271 N   0  0  0  0  0  0  0  0  0  0  0  0
   24.7985   -6.1768  -19.0552 C   0  0  0  0  0  0  0  0  0  0  0  0
   24.0265   -6.4243  -17.7860 C   0  0  0  0  0  0  0  0  0  0  0  0
   22.9316   -7.4192  -18.1005 C   0  0  0  0  0  0  0  0  0  0  0  0
   22.0987   -7.7862  -16.9169 C   0  0  2  0  0  0  0  0  0  0  0  0
   21.0703   -8.7553  -17.2183 N   0  0  0  0  0  0  0  0  0  0  0  0
   21.5683   -6.5502  -16.3161 C   0  0  0  0  0  0  0  0  0  0  0  0
   20.5952   -5.9990  -16.8821 O   0  0  0  0  0  0  0  0  0  0  0  0
   27.3091   -8.9728  -20.3588 C   0  0  0  0  0  0  0  0  0  0  0  0
   20.1528   -6.7864  -13.0717 C   0  0  2  0  0  0  0  0  0  0  0  0
   19.9636   -5.5763  -13.9473 O   0  0  0  0  0  0  0  0  0  0  0  0
   19.3252   -4.6009  -13.1801 C   0  0  1  0  0  0  0  0  0  0  0  0
   21.2656   -5.0022  -14.4291 N   0  0  0  0  0  0  0  0  0  0  0  0
   22.0790   -5.9414  -15.1468 C   0  0  0  0  0  0  0  0  0  0  0  0
   22.0127   -4.4820  -13.2588 O   0  0  0  0  0  0  0  0  0  0  0  0
   23.0556   -5.0430  -12.8991 O   0  0  0  0  0  0  0  0  0  0  0  0
  2  1  1  0
  3  2  2  0
  4  2  1  0
  5  4  1  0
  5  6  1  1
  7  5  1  0
  7  8  2  0
  9 10  1  0
 10 11  2  0
 12 10  1  0
 12 13  1  0
 13 14  1  0
 14 15  1  0
 16 15  1  6
 16 17  1  0
 17  7  1  0
 18 16  1  0
 19 18  2  0
 21 20  1  6
 22 21  1  0
 23 21  1  0
 23 24  1  6
 24 18  1  0
 25 27  1  0
 25 23  1  0
 26 25  2  0
M  END
$$$$
