NRT.pdb
     RDKit          3D

 27 26  0  0  1  0  0  0  0  0999 V2000
   27.1399  -21.5400  -17.4831 N   0  0  0  0  0  0  0  0  0  0  0  0
   25.8957  -22.2493  -17.6036 C   0  0  0  0  0  0  0  0  0  0  0  0
   25.8695  -23.1770  -18.4280 O   0  0  0  0  0  0  0  0  0  0  0  0
   24.7933  -21.8021  -16.7417 C   0  0  0  0  0  0  0  0  0  0  0  0
   25.0954  -20.6373  -15.8602 C   0  0  2  0  0  0  0  0  0  0  0  0
   26.0884  -21.0006  -14.8907 N   0  0  0  0  0  0  0  0  0  0  0  0
   23.8357  -20.1811  -15.2390 C   0  0  0  0  0  0  0  0  0  0  0  0
   23.5042  -20.6192  -14.0903 O   0  0  0  0  0  0  0  0  0  0  0  0
   16.8514  -15.9098  -14.6309 N   0  0  0  0  0  0  0  0  0  0  0  0
   17.6807  -14.8742  -14.1027 C   0  0  0  0  0  0  0  0  0  0  0  0
   17.2253  -14.0188  -13.2741 N   0  0  0  0  0  0  0  0  0  0  0  0
   19.0625  -14.7494  -14.4816 N   0  0  0  0  0  0  0  0  0  0  0  0
   19.6353  -15.6689  -15.4189 C   0  0  0  0  0  0  0  0  0  0  0  0
   20.0330  -16.9962  -14.8285 C   0  0  0  0  0  0  0  0  0  0  0  0
   21.2967  -17.4492  -15.5254 C   0  0  0  0  0  0  0  0  0  0  0  0
   21.7391  -18.8195  -15.1308 C   0  0  2  0  0  0  0  0  0  0  0  0
   22.9243  -19.2620  -15.8288 N   0  0  0  0  0  0  0  0  0  0  0  0
   20.6007  -19.7416  -15.2850 C   0  0  0  0  0  0  0  0  0  0  0  0
   20.2581  -20.0537  -16.4497 O   0  0  0  0  0  0  0  0  0  0  0  0
   17.7777  -13.2513  -12.8405 C   0  0  0  0  0  0  0  0  0  0  0  0
   19.1424  -22.4992  -12.3242 C   0  0  2  0  0  0  0  0  0  0  0  0
   19.0926  -22.6010  -13.8255 O   0  0  0  0  0  0  0  0  0  0  0  0
   18.0276  -23.4413  -14.1525 C   0  0  1  0  0  0  0  0  0  0  0  0
   18.8504  -21.2741  -14.4871 N   0  0  0  0  0  0  0  0  0  0  0  0
   19.8672  -20.2994  -14.2129 C   0  0  0  0  0  0  0  0  0  0  0  0
   17.5311  -20.7616  -14.0455 O   0  0  0  0  0  0  0  0  0  0  0  0
   17.4645  -19.6875  -13.4341 O   0  0  0  0  0  0  0  0  0  0  0  0
  2  1  1  0
  3  2  2  0
  4  2  1  0
  5  4  1  0
  5  6  1  1
  7  5  1  0
  7  8  2  0
  9 10  1  0
 10 11  2  0
 12 10  1  0
 12 13  1  0
 13 14  1  0
 14 15  1  0
 16 15  1  6
 16 17  1  0
 17  7  1  0
 18 16  1  0
 19 18  2  0
 21 20  1  1
 22 21  1  0
 23 21  1  0
 23 24  1  6
 24 18  1  0
 25 27  1  0
 25 23  1  0
 26 25  2  0
M  END
$$$$
