NRT.pdb
     RDKit          3D

 27 26  0  0  1  0  0  0  0  0999 V2000
   28.3469  -23.3047  -20.9507 N   0  0  0  0  0  0  0  0  0  0  0  0
   28.4362  -22.4660  -19.7871 C   0  0  0  0  0  0  0  0  0  0  0  0
   29.2081  -21.4970  -19.8657 O   0  0  0  0  0  0  0  0  0  0  0  0
   27.6077  -22.8440  -18.6342 C   0  0  0  0  0  0  0  0  0  0  0  0
   28.2173  -22.6014  -17.2946 C   0  0  2  0  0  0  0  0  0  0  0  0
   29.1117  -23.6725  -16.9617 N   0  0  0  0  0  0  0  0  0  0  0  0
   27.1304  -22.4420  -16.3075 C   0  0  0  0  0  0  0  0  0  0  0  0
   26.1925  -23.3017  -16.2579 O   0  0  0  0  0  0  0  0  0  0  0  0
   23.4227  -20.8414  -10.2457 N   0  0  0  0  0  0  0  0  0  0  0  0
   24.4217  -20.8362   -9.2252 C   0  0  0  0  0  0  0  0  0  0  0  0
   24.1539  -21.2046   -8.0343 N   0  0  0  0  0  0  0  0  0  0  0  0
   25.7704  -20.4154   -9.4942 N   0  0  0  0  0  0  0  0  0  0  0  0
   26.1476  -20.0183  -10.8179 C   0  0  0  0  0  0  0  0  0  0  0  0
   25.7946  -21.0125  -11.8927 C   0  0  0  0  0  0  0  0  0  0  0  0
   26.3075  -20.4692  -13.2079 C   0  0  0  0  0  0  0  0  0  0  0  0
   25.9815  -21.3342  -14.3803 C   0  0  2  0  0  0  0  0  0  0  0  0
   27.0319  -21.3756  -15.3715 N   0  0  0  0  0  0  0  0  0  0  0  0
   24.6844  -20.9059  -14.9320 C   0  0  0  0  0  0  0  0  0  0  0  0
   24.6405  -19.8035  -15.5269 O   0  0  0  0  0  0  0  0  0  0  0  0
   24.8332  -21.2268   -7.2468 C   0  0  0  0  0  0  0  0  0  0  0  0
   20.0825  -21.6049  -16.5033 C   0  0  2  0  0  0  0  0  0  0  0  0
   21.3948  -22.1664  -16.0243 O   0  0  0  0  0  0  0  0  0  0  0  0
   22.0569  -22.6885  -17.1363 C   0  0  1  0  0  0  0  0  0  0  0  0
   22.2817  -21.1203  -15.4111 N   0  0  0  0  0  0  0  0  0  0  0  0
   23.4859  -21.6498  -14.8379 C   0  0  0  0  0  0  0  0  0  0  0  0
   21.5080  -20.3961  -14.3742 O   0  0  0  0  0  0  0  0  0  0  0  0
   20.7949  -19.4381  -14.6993 O   0  0  0  0  0  0  0  0  0  0  0  0
  2  1  1  0
  3  2  2  0
  4  2  1  0
  5  4  1  0
  5  6  1  1
  7  5  1  0
  7  8  2  0
  9 10  1  0
 10 11  2  0
 12 10  1  0
 12 13  1  0
 13 14  1  0
 14 15  1  0
 16 15  1  1
 16 17  1  0
 17  7  1  0
 18 16  1  0
 19 18  2  0
 21 20  1  1
 22 21  1  0
 23 21  1  0
 23 24  1  1
 24 18  1  0
 25 27  1  0
 25 23  1  0
 26 25  2  0
M  END
$$$$
