SGQ.pdb
     RDKit          3D

 20 19  0  0  1  0  0  0  0  0999 V2000
   12.4053   -8.8456   -8.9627 O   0  0  0  0  0  0  0  0  0  0  0  0
   13.1456   -8.1882   -9.9636 C   0  0  0  0  0  0  0  0  0  0  0  0
   14.3420   -9.0501  -10.2991 C   0  0  2  0  0  0  0  0  0  0  0  0
   15.2557   -8.9751   -9.1808 N   0  0  0  0  0  0  0  0  0  0  0  0
   15.0537   -8.5442  -11.5013 C   0  0  0  0  0  0  0  0  0  0  0  0
   14.4701   -8.3806  -12.6041 O   0  0  0  0  0  0  0  0  0  0  0  0
   16.4607   -8.2165  -11.4508 N   0  0  0  0  0  0  0  0  0  0  0  0
   17.1114   -7.6222  -12.5892 C   0  0  0  0  0  0  0  0  0  0  0  0
   18.5269   -7.3035  -12.4045 C   0  0  0  0  0  0  0  0  0  0  0  0
   18.9655   -7.2979  -11.2241 O   0  0  0  0  0  0  0  0  0  0  0  0
   22.4837  -10.2906  -15.4842 N   0  0  0  0  0  0  0  0  0  0  0  0
   23.3402   -9.5827  -14.6069 C   0  0  0  0  0  0  0  0  0  0  0  0
   24.5406   -9.9617  -14.5000 O   0  0  0  0  0  0  0  0  0  0  0  0
   22.8975   -8.4208  -13.8187 C   0  0  0  0  0  0  0  0  0  0  0  0
   21.4666   -8.0820  -14.0031 C   0  0  0  0  0  0  0  0  0  0  0  0
   20.8989   -6.9426  -13.2401 C   0  0  2  0  0  0  0  0  0  0  0  0
   19.4196   -7.0053  -13.4604 N   0  0  0  0  0  0  0  0  0  0  0  0
   21.2754   -5.5915  -13.6452 C   0  0  0  0  0  0  0  0  0  0  0  0
   22.3725   -4.9247  -13.0949 O   0  0  0  0  0  0  0  0  0  0  0  0
   20.6132   -4.9711  -14.5095 O   0  0  0  0  0  0  0  0  0  0  0  0
  2  1  1  0
  3  5  1  0
  3  2  1  0
  3  4  1  1
  5  7  1  0
  5  6  2  0
  7  8  1  0
  9 10  2  0
  9  8  1  0
 11 12  1  0
 12 14  1  0
 13 12  2  0
 14 15  1  0
 16 15  1  6
 16 18  1  0
 16 17  1  0
 17  9  1  0
 18 19  1  0
 20 18  2  0
M  END
$$$$
