SGQ.pdb
     RDKit          3D

 20 19  0  0  1  0  0  0  0  0999 V2000
    9.3502  -17.1407   -0.7568 O   0  0  0  0  0  0  0  0  0  0  0  0
   10.2511  -17.5370   -1.7634 C   0  0  0  0  0  0  0  0  0  0  0  0
   10.0065  -19.0001   -2.0570 C   0  0  2  0  0  0  0  0  0  0  0  0
    8.5848  -19.1679   -2.2614 N   0  0  0  0  0  0  0  0  0  0  0  0
   10.4043  -19.8565   -0.9098 C   0  0  0  0  0  0  0  0  0  0  0  0
    9.5623  -20.5059   -0.2368 O   0  0  0  0  0  0  0  0  0  0  0  0
   11.7901  -19.9789   -0.5172 N   0  0  0  0  0  0  0  0  0  0  0  0
   12.1554  -20.7700    0.6288 C   0  0  0  0  0  0  0  0  0  0  0  0
   13.5821  -20.7839    0.9501 C   0  0  0  0  0  0  0  0  0  0  0  0
   14.3629  -20.2440    0.1226 O   0  0  0  0  0  0  0  0  0  0  0  0
   15.2239  -17.4318    4.8864 N   0  0  0  0  0  0  0  0  0  0  0  0
   16.4845  -18.0631    4.7583 C   0  0  0  0  0  0  0  0  0  0  0  0
   17.4762  -17.5560    5.3544 O   0  0  0  0  0  0  0  0  0  0  0  0
   16.6911  -19.2876    3.9675 C   0  0  0  0  0  0  0  0  0  0  0  0
   15.4508  -19.8241    3.3593 C   0  0  0  0  0  0  0  0  0  0  0  0
   15.5310  -21.0689    2.5549 C   0  0  2  0  0  0  0  0  0  0  0  0
   14.1286  -21.3607    2.1204 N   0  0  0  0  0  0  0  0  0  0  0  0
   15.9716  -22.2894    3.2238 C   0  0  0  0  0  0  0  0  0  0  0  0
   15.0817  -23.2975    3.6017 O   0  0  0  0  0  0  0  0  0  0  0  0
   17.1816  -22.4749    3.4922 O   0  0  0  0  0  0  0  0  0  0  0  0
  2  1  1  0
  3  5  1  0
  3  2  1  0
  3  4  1  1
  5  7  1  0
  5  6  2  0
  7  8  1  0
  9 10  2  0
  9  8  1  0
 11 12  1  0
 12 14  1  0
 13 12  2  0
 14 15  1  0
 16 15  1  1
 16 18  1  0
 16 17  1  0
 17  9  1  0
 18 19  1  0
 20 18  2  0
M  END
$$$$
