SGQ.pdb
     RDKit          3D

 20 19  0  0  1  0  0  0  0  0999 V2000
   26.8112  -16.2677  -18.3318 O   0  0  0  0  0  0  0  0  0  0  0  0
   26.7201  -15.0370  -17.6543 C   0  0  0  0  0  0  0  0  0  0  0  0
   25.3967  -15.0052  -16.9233 C   0  0  2  0  0  0  0  0  0  0  0  0
   24.3509  -15.0328  -17.9217 N   0  0  0  0  0  0  0  0  0  0  0  0
   25.2417  -13.7533  -16.1381 C   0  0  0  0  0  0  0  0  0  0  0  0
   26.0085  -13.4637  -15.1833 O   0  0  0  0  0  0  0  0  0  0  0  0
   24.1917  -12.8078  -16.4437 N   0  0  0  0  0  0  0  0  0  0  0  0
   23.9982  -11.6430  -15.6202 C   0  0  0  0  0  0  0  0  0  0  0  0
   22.8933  -10.7716  -16.0192 C   0  0  0  0  0  0  0  0  0  0  0  0
   22.3906  -10.9655  -17.1575 O   0  0  0  0  0  0  0  0  0  0  0  0
   17.7173  -10.7330  -13.8000 N   0  0  0  0  0  0  0  0  0  0  0  0
   18.0107  -11.0332  -15.1520 C   0  0  0  0  0  0  0  0  0  0  0  0
   17.2553  -11.8361  -15.7690 O   0  0  0  0  0  0  0  0  0  0  0  0
   19.1521  -10.4470  -15.8738 C   0  0  0  0  0  0  0  0  0  0  0  0
   20.0007   -9.5656  -15.0377 C   0  0  0  0  0  0  0  0  0  0  0  0
   21.1883   -8.9237  -15.6547 C   0  0  2  0  0  0  0  0  0  0  0  0
   22.3637   -9.7379  -15.2118 N   0  0  0  0  0  0  0  0  0  0  0  0
   21.5138   -7.5579  -15.2550 C   0  0  0  0  0  0  0  0  0  0  0  0
   20.8998   -6.4439  -15.8321 O   0  0  0  0  0  0  0  0  0  0  0  0
   22.3734   -7.3339  -14.3711 O   0  0  0  0  0  0  0  0  0  0  0  0
  2  1  1  0
  3  5  1  0
  3  2  1  0
  3  4  1  6
  5  7  1  0
  5  6  2  0
  7  8  1  0
  9 10  2  0
  9  8  1  0
 11 12  1  0
 12 14  1  0
 13 12  2  0
 14 15  1  0
 16 15  1  1
 16 18  1  0
 16 17  1  0
 17  9  1  0
 18 19  1  0
 20 18  2  0
M  END
$$$$
