SGQ.pdb
     RDKit          3D

 20 19  0  0  1  0  0  0  0  0999 V2000
   25.2579  -16.9558  -17.8909 O   0  0  0  0  0  0  0  0  0  0  0  0
   23.8948  -16.9448  -17.5392 C   0  0  0  0  0  0  0  0  0  0  0  0
   23.4675  -18.3735  -17.2881 C   0  0  2  0  0  0  0  0  0  0  0  0
   22.6379  -18.7783  -18.4013 N   0  0  0  0  0  0  0  0  0  0  0  0
   22.6528  -18.4856  -16.0506 C   0  0  0  0  0  0  0  0  0  0  0  0
   21.5262  -17.9361  -15.9399 O   0  0  0  0  0  0  0  0  0  0  0  0
   23.1278  -19.2391  -14.9120 N   0  0  0  0  0  0  0  0  0  0  0  0
   22.3543  -19.2911  -13.6991 C   0  0  0  0  0  0  0  0  0  0  0  0
   21.3592  -20.3612  -13.6374 C   0  0  0  0  0  0  0  0  0  0  0  0
   21.3855  -21.2241  -14.5542 O   0  0  0  0  0  0  0  0  0  0  0  0
   18.1589  -24.7996   -8.7935 N   0  0  0  0  0  0  0  0  0  0  0  0
   18.9037  -23.7457   -9.3755 C   0  0  0  0  0  0  0  0  0  0  0  0
   19.6596  -23.0591   -8.6317 O   0  0  0  0  0  0  0  0  0  0  0  0
   18.8426  -23.4176  -10.8094 C   0  0  0  0  0  0  0  0  0  0  0  0
   19.6016  -22.1992  -11.1779 C   0  0  0  0  0  0  0  0  0  0  0  0
   19.4644  -21.6622  -12.5548 C   0  0  2  0  0  0  0  0  0  0  0  0
   20.3822  -20.4815  -12.6216 N   0  0  0  0  0  0  0  0  0  0  0  0
   18.1624  -21.1410  -12.9601 C   0  0  0  0  0  0  0  0  0  0  0  0
   17.1689  -21.9557  -13.5080 O   0  0  0  0  0  0  0  0  0  0  0  0
   17.8892  -19.9244  -12.8347 O   0  0  0  0  0  0  0  0  0  0  0  0
  2  1  1  0
  3  5  1  0
  3  2  1  0
  3  4  1  6
  5  7  1  0
  5  6  2  0
  7  8  1  0
  9 10  2  0
  9  8  1  0
 11 12  1  0
 12 14  1  0
 13 12  2  0
 14 15  1  0
 16 15  1  1
 16 18  1  0
 16 17  1  0
 17  9  1  0
 18 19  1  0
 20 18  2  0
M  END
$$$$
