SGQ.pdb
     RDKit          3D

 20 19  0  0  1  0  0  0  0  0999 V2000
   15.3158  -15.3370  -11.5007 O   0  0  0  0  0  0  0  0  0  0  0  0
   15.1796  -13.9708  -11.8120 C   0  0  0  0  0  0  0  0  0  0  0  0
   14.3725  -13.3209  -10.7108 C   0  0  2  0  0  0  0  0  0  0  0  0
   13.0392  -13.8781  -10.7659 N   0  0  0  0  0  0  0  0  0  0  0  0
   14.2600  -11.8535  -10.9156 C   0  0  0  0  0  0  0  0  0  0  0  0
   13.3160  -11.3404  -11.5707 O   0  0  0  0  0  0  0  0  0  0  0  0
   15.2419  -10.9472  -10.3641 N   0  0  0  0  0  0  0  0  0  0  0  0
   15.1982   -9.5441  -10.6831 C   0  0  0  0  0  0  0  0  0  0  0  0
   16.3261   -8.7550  -10.1890 C   0  0  0  0  0  0  0  0  0  0  0  0
   16.9336   -9.1921   -9.1762 O   0  0  0  0  0  0  0  0  0  0  0  0
   20.8981   -6.9679  -13.3999 N   0  0  0  0  0  0  0  0  0  0  0  0
   21.2305   -6.3250  -12.1832 C   0  0  0  0  0  0  0  0  0  0  0  0
   22.3710   -5.7926  -12.0745 O   0  0  0  0  0  0  0  0  0  0  0  0
   20.3052   -6.2428  -11.0411 C   0  0  0  0  0  0  0  0  0  0  0  0
   18.9917   -6.8834  -11.2872 C   0  0  0  0  0  0  0  0  0  0  0  0
   17.9489   -6.8006  -10.2342 C   0  0  2  0  0  0  0  0  0  0  0  0
   16.7685   -7.5458  -10.7747 N   0  0  0  0  0  0  0  0  0  0  0  0
   17.4265   -5.4816   -9.8898 C   0  0  0  0  0  0  0  0  0  0  0  0
   17.9806   -4.7005   -8.8731 O   0  0  0  0  0  0  0  0  0  0  0  0
   16.4435   -4.9997  -10.4997 O   0  0  0  0  0  0  0  0  0  0  0  0
  2  1  1  0
  3  5  1  0
  3  2  1  0
  3  4  1  6
  5  7  1  0
  5  6  2  0
  7  8  1  0
  9 10  2  0
  9  8  1  0
 11 12  1  0
 12 14  1  0
 13 12  2  0
 14 15  1  0
 16 15  1  6
 16 18  1  0
 16 17  1  0
 17  9  1  0
 18 19  1  0
 20 18  2  0
M  END
$$$$
