SGQ.pdb
     RDKit          3D

 20 19  0  0  1  0  0  0  0  0999 V2000
   23.8480  -12.5357  -16.3244 O   0  0  0  0  0  0  0  0  0  0  0  0
   24.3259  -11.2430  -16.0373 C   0  0  0  0  0  0  0  0  0  0  0  0
   23.3371  -10.2461  -16.5988 C   0  0  2  0  0  0  0  0  0  0  0  0
   23.6217  -10.1030  -18.0094 N   0  0  0  0  0  0  0  0  0  0  0  0
   23.4956   -8.9111  -15.9661 C   0  0  0  0  0  0  0  0  0  0  0  0
   23.1691   -8.6951  -14.7702 O   0  0  0  0  0  0  0  0  0  0  0  0
   24.0373   -7.7950  -16.7081 N   0  0  0  0  0  0  0  0  0  0  0  0
   24.1092   -6.4880  -16.1088 C   0  0  0  0  0  0  0  0  0  0  0  0
   22.8806   -5.6979  -16.1825 C   0  0  0  0  0  0  0  0  0  0  0  0
   22.3899   -5.5037  -17.3259 O   0  0  0  0  0  0  0  0  0  0  0  0
   17.8246   -6.9975  -17.7347 N   0  0  0  0  0  0  0  0  0  0  0  0
   18.2082   -6.4349  -16.4936 C   0  0  0  0  0  0  0  0  0  0  0  0
   17.3089   -5.9659  -15.7404 O   0  0  0  0  0  0  0  0  0  0  0  0
   19.6068   -6.3775  -16.0376 C   0  0  0  0  0  0  0  0  0  0  0  0
   19.8549   -5.3554  -14.9935 C   0  0  0  0  0  0  0  0  0  0  0  0
   20.9474   -4.3725  -15.2023 C   0  0  2  0  0  0  0  0  0  0  0  0
   22.2205   -5.1466  -15.0594 N   0  0  0  0  0  0  0  0  0  0  0  0
   21.0733   -3.2754  -14.2475 C   0  0  0  0  0  0  0  0  0  0  0  0
   20.2560   -2.1438  -14.2973 O   0  0  0  0  0  0  0  0  0  0  0  0
   21.9369   -3.3084  -13.3400 O   0  0  0  0  0  0  0  0  0  0  0  0
  2  1  1  0
  3  5  1  0
  3  2  1  0
  3  4  1  6
  5  7  1  0
  5  6  2  0
  7  8  1  0
  9 10  2  0
  9  8  1  0
 11 12  1  0
 12 14  1  0
 13 12  2  0
 14 15  1  0
 16 15  1  1
 16 18  1  0
 16 17  1  0
 17  9  1  0
 18 19  1  0
 20 18  2  0
M  END
$$$$
