SGQ.pdb
     RDKit          3D

 20 19  0  0  1  0  0  0  0  0999 V2000
   13.6391  -14.5941   -9.8796 O   0  0  0  0  0  0  0  0  0  0  0  0
   14.1480  -13.5218  -10.6366 C   0  0  0  0  0  0  0  0  0  0  0  0
   13.5429  -12.2444  -10.0991 C   0  0  2  0  0  0  0  0  0  0  0  0
   12.1101  -12.3399  -10.2700 N   0  0  0  0  0  0  0  0  0  0  0  0
   14.0130  -11.0594  -10.8624 C   0  0  0  0  0  0  0  0  0  0  0  0
   13.5275  -10.7492  -11.9811 O   0  0  0  0  0  0  0  0  0  0  0  0
   15.0586  -10.2065  -10.3438 N   0  0  0  0  0  0  0  0  0  0  0  0
   15.5543   -9.1043  -11.1259 C   0  0  0  0  0  0  0  0  0  0  0  0
   16.5913   -8.2977  -10.4831 C   0  0  0  0  0  0  0  0  0  0  0  0
   17.0158   -8.6924   -9.3650 O   0  0  0  0  0  0  0  0  0  0  0  0
   21.5407   -6.7040  -10.4264 N   0  0  0  0  0  0  0  0  0  0  0  0
   21.1047   -7.0993  -11.7140 C   0  0  0  0  0  0  0  0  0  0  0  0
   21.8397   -7.8751  -12.3876 O   0  0  0  0  0  0  0  0  0  0  0  0
   19.8305   -6.6529  -12.3009 C   0  0  0  0  0  0  0  0  0  0  0  0
   19.0470   -5.7554  -11.4196 C   0  0  0  0  0  0  0  0  0  0  0  0
   18.2230   -6.3556  -10.3408 C   0  0  2  0  0  0  0  0  0  0  0  0
   17.1377   -7.1162  -11.0366 N   0  0  0  0  0  0  0  0  0  0  0  0
   17.5188   -5.4534   -9.4344 C   0  0  0  0  0  0  0  0  0  0  0  0
   18.0693   -5.0328   -8.2216 O   0  0  0  0  0  0  0  0  0  0  0  0
   16.3754   -5.0237   -9.7145 O   0  0  0  0  0  0  0  0  0  0  0  0
  2  1  1  0
  3  5  1  0
  3  2  1  0
  3  4  1  6
  5  7  1  0
  5  6  2  0
  7  8  1  0
  9 10  2  0
  9  8  1  0
 11 12  1  0
 12 14  1  0
 13 12  2  0
 14 15  1  0
 16 15  1  6
 16 18  1  0
 16 17  1  0
 17  9  1  0
 18 19  1  0
 20 18  2  0
M  END
$$$$
