SGQ.pdb
     RDKit          3D

 20 19  0  0  1  0  0  0  0  0999 V2000
   20.7238  -13.4683  -19.5042 O   0  0  0  0  0  0  0  0  0  0  0  0
   21.7158  -13.0877  -18.5806 C   0  0  0  0  0  0  0  0  0  0  0  0
   22.5288  -11.9750  -19.2031 C   0  0  2  0  0  0  0  0  0  0  0  0
   23.6611  -12.5851  -19.8640 N   0  0  0  0  0  0  0  0  0  0  0  0
   23.0534  -11.0445  -18.1703 C   0  0  0  0  0  0  0  0  0  0  0  0
   24.1486  -11.2452  -17.5841 O   0  0  0  0  0  0  0  0  0  0  0  0
   22.3177   -9.8584  -17.7939 N   0  0  0  0  0  0  0  0  0  0  0  0
   22.8178   -8.9879  -16.7622 C   0  0  0  0  0  0  0  0  0  0  0  0
   22.0439   -7.7659  -16.5454 C   0  0  0  0  0  0  0  0  0  0  0  0
   21.0607   -7.5657  -17.3065 O   0  0  0  0  0  0  0  0  0  0  0  0
   17.7624   -5.9647  -16.6675 N   0  0  0  0  0  0  0  0  0  0  0  0
   18.1693   -5.0315  -15.6837 C   0  0  0  0  0  0  0  0  0  0  0  0
   17.8161   -3.8255  -15.8139 O   0  0  0  0  0  0  0  0  0  0  0  0
   18.9797   -5.4036  -14.5123 C   0  0  0  0  0  0  0  0  0  0  0  0
   20.1260   -6.2864  -14.8331 C   0  0  0  0  0  0  0  0  0  0  0  0
   21.4046   -5.6677  -15.2635 C   0  0  2  0  0  0  0  0  0  0  0  0
   22.3317   -6.8089  -15.5443 N   0  0  0  0  0  0  0  0  0  0  0  0
   22.1222   -4.8377  -14.3004 C   0  0  0  0  0  0  0  0  0  0  0  0
   21.8998   -3.4635  -14.1861 O   0  0  0  0  0  0  0  0  0  0  0  0
   22.9807   -5.3361  -13.5355 O   0  0  0  0  0  0  0  0  0  0  0  0
  2  1  1  0
  3  5  1  0
  3  2  1  0
  3  4  1  1
  5  7  1  0
  5  6  2  0
  7  8  1  0
  9 10  2  0
  9  8  1  0
 11 12  1  0
 12 14  1  0
 13 12  2  0
 14 15  1  0
 16 15  1  1
 16 18  1  0
 16 17  1  0
 17  9  1  0
 18 19  1  0
 20 18  2  0
M  END
$$$$
