SGQ.pdb
     RDKit          3D

 20 19  0  0  1  0  0  0  0  0999 V2000
   27.1544  -19.4781  -19.4522 O   0  0  0  0  0  0  0  0  0  0  0  0
   27.1313  -19.0101  -18.1247 C   0  0  0  0  0  0  0  0  0  0  0  0
   25.9494  -18.0780  -17.9804 C   0  0  2  0  0  0  0  0  0  0  0  0
   26.4562  -16.7250  -18.0420 N   0  0  0  0  0  0  0  0  0  0  0  0
   25.2796  -18.2522  -16.6656 C   0  0  0  0  0  0  0  0  0  0  0  0
   25.6902  -17.6767  -15.6247 O   0  0  0  0  0  0  0  0  0  0  0  0
   24.1164  -19.0996  -16.5290 N   0  0  0  0  0  0  0  0  0  0  0  0
   23.4289  -19.1951  -15.2678 C   0  0  0  0  0  0  0  0  0  0  0  0
   22.2594  -20.0733  -15.2579 C   0  0  0  0  0  0  0  0  0  0  0  0
   21.8743  -20.5301  -16.3665 O   0  0  0  0  0  0  0  0  0  0  0  0
   21.5982  -24.6327  -11.7473 N   0  0  0  0  0  0  0  0  0  0  0  0
   20.2249  -24.5539  -12.0820 C   0  0  0  0  0  0  0  0  0  0  0  0
   19.4918  -25.5588  -11.8611 O   0  0  0  0  0  0  0  0  0  0  0  0
   19.6107  -23.3519  -12.6696 C   0  0  0  0  0  0  0  0  0  0  0  0
   20.5669  -22.2440  -12.9031 C   0  0  0  0  0  0  0  0  0  0  0  0
   20.4268  -21.4283  -14.1352 C   0  0  2  0  0  0  0  0  0  0  0  0
   21.5454  -20.4345  -14.0914 N   0  0  0  0  0  0  0  0  0  0  0  0
   19.2208  -20.6199  -14.2880 C   0  0  0  0  0  0  0  0  0  0  0  0
   18.1257  -21.0468  -15.0426 O   0  0  0  0  0  0  0  0  0  0  0  0
   19.1275  -19.4947  -13.7444 O   0  0  0  0  0  0  0  0  0  0  0  0
  2  1  1  0
  3  5  1  0
  3  2  1  0
  3  4  1  1
  5  7  1  0
  5  6  2  0
  7  8  1  0
  9 10  2  0
  9  8  1  0
 11 12  1  0
 12 14  1  0
 13 12  2  0
 14 15  1  0
 16 15  1  1
 16 18  1  0
 16 17  1  0
 17  9  1  0
 18 19  1  0
 20 18  2  0
M  END
$$$$
