SGQ.pdb
     RDKit          3D

 20 19  0  0  1  0  0  0  0  0999 V2000
   15.5563  -15.1998  -16.3695 O   0  0  0  0  0  0  0  0  0  0  0  0
   15.3978  -13.8080  -16.2292 C   0  0  0  0  0  0  0  0  0  0  0  0
   16.7614  -13.2084  -15.9687 C   0  0  2  0  0  0  0  0  0  0  0  0
   17.3298  -13.9038  -14.8354 N   0  0  0  0  0  0  0  0  0  0  0  0
   16.6613  -11.7689  -15.6143 C   0  0  0  0  0  0  0  0  0  0  0  0
   15.5621  -11.1564  -15.6103 O   0  0  0  0  0  0  0  0  0  0  0  0
   17.8363  -11.0068  -15.2561 N   0  0  0  0  0  0  0  0  0  0  0  0
   17.7154   -9.6329  -14.8434 C   0  0  0  0  0  0  0  0  0  0  0  0
   18.9725   -8.9718  -14.4945 C   0  0  0  0  0  0  0  0  0  0  0  0
   20.0223   -9.6649  -14.5543 O   0  0  0  0  0  0  0  0  0  0  0  0
   22.3397   -6.1490  -16.4166 N   0  0  0  0  0  0  0  0  0  0  0  0
   22.5031   -5.0902  -15.4911 C   0  0  0  0  0  0  0  0  0  0  0  0
   23.5745   -4.4215  -15.5229 O   0  0  0  0  0  0  0  0  0  0  0  0
   21.4785   -4.7286  -14.4977 C   0  0  0  0  0  0  0  0  0  0  0  0
   20.2938   -5.6189  -14.5079 C   0  0  0  0  0  0  0  0  0  0  0  0
   20.4064   -6.9636  -13.8898 C   0  0  2  0  0  0  0  0  0  0  0  0
   19.0764   -7.6176  -14.0993 N   0  0  0  0  0  0  0  0  0  0  0  0
   20.6317   -7.0386  -12.4493 C   0  0  0  0  0  0  0  0  0  0  0  0
   21.9051   -7.2037  -11.8997 O   0  0  0  0  0  0  0  0  0  0  0  0
   19.6747   -6.9629  -11.6438 O   0  0  0  0  0  0  0  0  0  0  0  0
  2  1  1  0
  3  5  1  0
  3  2  1  0
  3  4  1  1
  5  7  1  0
  5  6  2  0
  7  8  1  0
  9 10  2  0
  9  8  1  0
 11 12  1  0
 12 14  1  0
 13 12  2  0
 14 15  1  0
 16 15  1  1
 16 18  1  0
 16 17  1  0
 17  9  1  0
 18 19  1  0
 20 18  2  0
M  END
$$$$
