TNH.pdb
     RDKit          3D

 26 26  0  0  1  0  0  0  0  0999 V2000
   15.1126   -9.8177  -11.6095 C   0  0  0  0  0  0  0  0  0  0  0  0
   15.8641   -9.7917  -10.2969 C   0  0  1  0  0  0  0  0  0  0  0  0
   17.2182   -9.6645  -10.4388 O   0  0  0  0  0  0  0  0  0  0  0  0
   15.3104   -8.7417   -9.3585 C   0  0  2  0  0  0  0  0  0  0  0  0
   13.8988   -9.0130   -9.0759 N   0  0  0  0  0  0  0  0  0  0  0  0
   15.4240   -7.3684   -9.8453 C   0  0  0  0  0  0  0  0  0  0  0  0
   14.6618   -6.8567  -10.7114 O   0  0  0  0  0  0  0  0  0  0  0  0
   16.7909   -2.6348  -10.8527 N   0  0  0  0  0  0  0  0  0  0  0  0
   16.6496   -2.8169   -9.4693 C   0  0  0  0  0  0  0  0  0  0  0  0
   16.5836   -1.8262   -8.7132 O   0  0  0  0  0  0  0  0  0  0  0  0
   16.5787   -4.1736   -8.9040 C   0  0  0  0  0  0  0  0  0  0  0  0
   16.7685   -5.2667   -9.9303 C   0  0  2  0  0  0  0  0  0  0  0  0
   16.4461   -6.5247   -9.3324 N   0  0  0  0  0  0  0  0  0  0  0  0
   18.1308   -5.1935  -10.4998 C   0  0  0  0  0  0  0  0  0  0  0  0
   19.1268   -5.6309   -9.8520 O   0  0  0  0  0  0  0  0  0  0  0  0
   18.3473   -4.6406  -11.7636 N   0  0  0  0  0  0  0  0  0  0  0  0
   19.7031   -4.6196  -12.4016 C   0  0  1  0  0  0  0  0  0  0  0  0
   19.6221   -5.6759  -13.4543 C   0  0  0  0  0  0  0  0  0  0  0  0
   19.9872   -7.0337  -13.0732 C   0  0  0  0  0  0  0  0  0  0  0  0
   20.4713   -7.6031  -11.9262 C   0  0  0  0  0  0  0  0  0  0  0  0
   20.5760   -8.9467  -12.1229 N   0  0  0  0  0  0  0  0  0  0  0  0
   20.1624   -9.2056  -13.3710 C   0  0  0  0  0  0  0  0  0  0  0  0
   19.8100   -8.0644  -13.9402 N   0  0  0  0  0  0  0  0  0  0  0  0
   19.8037   -3.2913  -13.1088 C   0  0  0  0  0  0  0  0  0  0  0  0
   20.9937   -2.6959  -13.3757 O   0  0  0  0  0  0  0  0  0  0  0  0
   18.7514   -2.7112  -13.4660 O   0  0  0  0  0  0  0  0  0  0  0  0
  2  4  1  0
  2  1  1  6
  3  2  1  0
  4  6  1  0
  4  5  1  6
  6 13  1  0
  6  7  2  0
  8  9  1  0
  9 11  1  0
 10  9  2  0
 12 11  1  1
 12 14  1  0
 13 12  1  0
 14 15  2  0
 16 17  1  0
 16 14  1  0
 17 24  1  0
 18 19  1  0
 17 18  1  6
 19 23  1  0
 20 19  2  0
 20 21  1  0
 21 22  1  0
 23 22  2  0
 24 25  1  0
 26 24  2  0
M  END
$$$$
