TNH.pdb
     RDKit          3D

 26 26  0  0  1  0  0  0  0  0999 V2000
   36.5320  -11.2455  -16.3345 C   0  0  0  0  0  0  0  0  0  0  0  0
   37.0726  -11.6795  -17.6789 C   0  0  1  0  0  0  0  0  0  0  0  0
   37.9958  -12.6856  -17.6037 O   0  0  0  0  0  0  0  0  0  0  0  0
   35.9584  -12.0289  -18.6411 C   0  0  2  0  0  0  0  0  0  0  0  0
   36.5173  -12.4335  -19.9333 N   0  0  0  0  0  0  0  0  0  0  0  0
   34.9958  -10.9544  -18.8751 C   0  0  0  0  0  0  0  0  0  0  0  0
   35.2055   -9.9653  -19.6305 O   0  0  0  0  0  0  0  0  0  0  0  0
   29.0890   -9.6430  -18.1951 N   0  0  0  0  0  0  0  0  0  0  0  0
   30.3961   -9.3866  -18.6342 C   0  0  0  0  0  0  0  0  0  0  0  0
   30.6891   -8.2667  -19.1004 O   0  0  0  0  0  0  0  0  0  0  0  0
   31.4257  -10.4342  -18.5473 C   0  0  0  0  0  0  0  0  0  0  0  0
   32.8133   -9.8975  -18.2819 C   0  0  2  0  0  0  0  0  0  0  0  0
   33.7312  -10.9923  -18.2279 N   0  0  0  0  0  0  0  0  0  0  0  0
   32.8037   -9.0496  -17.0709 C   0  0  0  0  0  0  0  0  0  0  0  0
   32.3871   -9.5055  -15.9657 O   0  0  0  0  0  0  0  0  0  0  0  0
   33.2537   -7.7287  -17.1209 N   0  0  0  0  0  0  0  0  0  0  0  0
   33.2464   -6.8391  -15.9149 C   0  0  1  0  0  0  0  0  0  0  0  0
   34.5830   -6.1739  -15.9501 C   0  0  0  0  0  0  0  0  0  0  0  0
   35.6966   -6.8695  -15.3191 C   0  0  0  0  0  0  0  0  0  0  0  0
   35.8117   -8.0327  -14.6064 C   0  0  0  0  0  0  0  0  0  0  0  0
   37.1259   -8.2255  -14.3053 N   0  0  0  0  0  0  0  0  0  0  0  0
   37.8139   -7.1991  -14.8240 C   0  0  0  0  0  0  0  0  0  0  0  0
   36.9621   -6.3883  -15.4301 N   0  0  0  0  0  0  0  0  0  0  0  0
   32.2119   -5.7777  -16.1939 C   0  0  0  0  0  0  0  0  0  0  0  0
   31.5568   -5.6921  -17.3794 O   0  0  0  0  0  0  0  0  0  0  0  0
   31.9429   -4.9408  -15.3002 O   0  0  0  0  0  0  0  0  0  0  0  0
  2  4  1  0
  2  1  1  1
  3  2  1  0
  4  6  1  0
  4  5  1  6
  6 13  1  0
  6  7  2  0
  8  9  1  0
  9 11  1  0
 10  9  2  0
 12 11  1  1
 12 14  1  0
 13 12  1  0
 14 15  2  0
 16 17  1  0
 16 14  1  0
 17 24  1  0
 18 19  1  0
 17 18  1  6
 19 23  1  0
 20 19  2  0
 20 21  1  0
 21 22  1  0
 23 22  2  0
 24 25  1  0
 26 24  2  0
M  END
$$$$
