TNH.pdb
     RDKit          3D

 26 26  0  0  1  0  0  0  0  0999 V2000
   24.5055  -10.0709  -19.7474 C   0  0  0  0  0  0  0  0  0  0  0  0
   23.6656  -11.2166  -20.2669 C   0  0  1  0  0  0  0  0  0  0  0  0
   24.3973  -12.2303  -20.8210 O   0  0  0  0  0  0  0  0  0  0  0  0
   22.7197  -11.7392  -19.2077 C   0  0  2  0  0  0  0  0  0  0  0  0
   21.9867  -12.9011  -19.7161 N   0  0  0  0  0  0  0  0  0  0  0  0
   21.7479  -10.7614  -18.7225 C   0  0  0  0  0  0  0  0  0  0  0  0
   20.8011  -10.2970  -19.4158 O   0  0  0  0  0  0  0  0  0  0  0  0
   18.9829   -7.7264  -15.6851 N   0  0  0  0  0  0  0  0  0  0  0  0
   19.6400   -8.6590  -14.8694 C   0  0  0  0  0  0  0  0  0  0  0  0
   19.3538   -8.7385  -13.6573 O   0  0  0  0  0  0  0  0  0  0  0  0
   20.6676   -9.5459  -15.4374 C   0  0  0  0  0  0  0  0  0  0  0  0
   20.9862   -9.2525  -16.8853 C   0  0  2  0  0  0  0  0  0  0  0  0
   21.8433  -10.2802  -17.3887 N   0  0  0  0  0  0  0  0  0  0  0  0
   21.5326   -7.8850  -17.0149 C   0  0  0  0  0  0  0  0  0  0  0  0
   22.7354   -7.6374  -16.7069 O   0  0  0  0  0  0  0  0  0  0  0  0
   20.7337   -6.8382  -17.4797 N   0  0  0  0  0  0  0  0  0  0  0  0
   21.2993   -5.4892  -17.8053 C   0  0  1  0  0  0  0  0  0  0  0  0
   20.5372   -5.0620  -19.0164 C   0  0  0  0  0  0  0  0  0  0  0  0
   21.0545   -5.4719  -20.3152 C   0  0  0  0  0  0  0  0  0  0  0  0
   22.1367   -6.2058  -20.7204 C   0  0  0  0  0  0  0  0  0  0  0  0
   22.0950   -6.3225  -22.0767 N   0  0  0  0  0  0  0  0  0  0  0  0
   21.0040   -5.6725  -22.5046 C   0  0  0  0  0  0  0  0  0  0  0  0
   20.3810   -5.1639  -21.4540 N   0  0  0  0  0  0  0  0  0  0  0  0
   20.8819   -4.5847  -16.6729 C   0  0  0  0  0  0  0  0  0  0  0  0
   21.1822   -3.2614  -16.6486 O   0  0  0  0  0  0  0  0  0  0  0  0
   20.2327   -5.0683  -15.7158 O   0  0  0  0  0  0  0  0  0  0  0  0
  2  4  1  0
  2  1  1  1
  3  2  1  0
  4  6  1  0
  4  5  1  6
  6 13  1  0
  6  7  2  0
  8  9  1  0
  9 11  1  0
 10  9  2  0
 12 11  1  1
 12 14  1  0
 13 12  1  0
 14 15  2  0
 16 17  1  0
 16 14  1  0
 17 24  1  0
 18 19  1  0
 17 18  1  6
 19 23  1  0
 20 19  2  0
 20 21  1  0
 21 22  1  0
 23 22  2  0
 24 25  1  0
 26 24  2  0
M  END
$$$$
