TNH.pdb
     RDKit          3D

 26 26  0  0  1  0  0  0  0  0999 V2000
   26.4626  -22.3944  -12.8642 C   0  0  0  0  0  0  0  0  0  0  0  0
   25.9836  -22.0258  -11.4776 C   0  0  1  0  0  0  0  0  0  0  0  0
   26.5287  -22.7910  -10.4839 O   0  0  0  0  0  0  0  0  0  0  0  0
   26.1696  -20.5505  -11.1976 C   0  0  2  0  0  0  0  0  0  0  0  0
   25.5670  -20.2026   -9.9086 N   0  0  0  0  0  0  0  0  0  0  0  0
   25.6149  -19.6621  -12.2168 C   0  0  0  0  0  0  0  0  0  0  0  0
   24.5013  -19.0762  -12.1182 O   0  0  0  0  0  0  0  0  0  0  0  0
   25.2720  -16.8965  -16.6050 N   0  0  0  0  0  0  0  0  0  0  0  0
   26.6224  -17.2124  -16.3963 C   0  0  0  0  0  0  0  0  0  0  0  0
   27.5019  -16.6985  -17.1171 O   0  0  0  0  0  0  0  0  0  0  0  0
   27.0077  -18.1491  -15.3288 C   0  0  0  0  0  0  0  0  0  0  0  0
   25.8532  -18.5725  -14.4503 C   0  0  2  0  0  0  0  0  0  0  0  0
   26.3488  -19.4175  -13.4089 N   0  0  0  0  0  0  0  0  0  0  0  0
   24.7882  -19.1817  -15.2749 C   0  0  0  0  0  0  0  0  0  0  0  0
   24.8706  -20.3884  -15.6490 O   0  0  0  0  0  0  0  0  0  0  0  0
   23.6694  -18.4391  -15.6582 N   0  0  0  0  0  0  0  0  0  0  0  0
   22.2902  -19.0252  -15.6681 C   0  0  1  0  0  0  0  0  0  0  0  0
   21.9489  -19.1672  -14.2212 C   0  0  0  0  0  0  0  0  0  0  0  0
   20.6121  -19.6415  -13.8895 C   0  0  0  0  0  0  0  0  0  0  0  0
   19.5593  -20.1137  -14.6263 C   0  0  0  0  0  0  0  0  0  0  0  0
   18.5614  -20.4722  -13.7715 N   0  0  0  0  0  0  0  0  0  0  0  0
   18.9894  -20.2272  -12.5255 C   0  0  0  0  0  0  0  0  0  0  0  0
   20.2141  -19.7313  -12.5938 N   0  0  0  0  0  0  0  0  0  0  0  0
   21.3929  -17.9540  -16.2356 C   0  0  0  0  0  0  0  0  0  0  0  0
   20.1387  -18.2156  -16.6832 O   0  0  0  0  0  0  0  0  0  0  0  0
   21.8165  -16.7759  -16.2981 O   0  0  0  0  0  0  0  0  0  0  0  0
  2  4  1  0
  2  1  1  6
  3  2  1  0
  4  6  1  0
  4  5  1  1
  6 13  1  0
  6  7  2  0
  8  9  1  0
  9 11  1  0
 10  9  2  0
 12 11  1  6
 12 14  1  0
 13 12  1  0
 14 15  2  0
 16 17  1  0
 16 14  1  0
 17 24  1  0
 18 19  1  0
 17 18  1  1
 19 23  1  0
 20 19  2  0
 20 21  1  0
 21 22  1  0
 23 22  2  0
 24 25  1  0
 26 24  2  0
M  END
$$$$
