TNH.pdb
     RDKit          3D

 26 26  0  0  1  0  0  0  0  0999 V2000
   13.8452   -9.9649  -14.5704 C   0  0  0  0  0  0  0  0  0  0  0  0
   14.2625  -11.4150  -14.6753 C   0  0  1  0  0  0  0  0  0  0  0  0
   13.6234  -12.1026  -15.6697 O   0  0  0  0  0  0  0  0  0  0  0  0
   15.7647  -11.5557  -14.7899 C   0  0  2  0  0  0  0  0  0  0  0  0
   16.1360  -12.9721  -14.8336 N   0  0  0  0  0  0  0  0  0  0  0  0
   16.5205  -10.9175  -13.7141 C   0  0  0  0  0  0  0  0  0  0  0  0
   16.6372  -11.3915  -12.5503 O   0  0  0  0  0  0  0  0  0  0  0  0
   19.0830   -7.2278  -11.1155 N   0  0  0  0  0  0  0  0  0  0  0  0
   19.6094   -7.3215  -12.4121 C   0  0  0  0  0  0  0  0  0  0  0  0
   20.6646   -6.7216  -12.7017 O   0  0  0  0  0  0  0  0  0  0  0  0
   18.9217   -8.1258  -13.4346 C   0  0  0  0  0  0  0  0  0  0  0  0
   17.7324   -8.8915  -12.9023 C   0  0  2  0  0  0  0  0  0  0  0  0
   17.1807   -9.6827  -13.9576 N   0  0  0  0  0  0  0  0  0  0  0  0
   16.7726   -7.9598  -12.2730 C   0  0  0  0  0  0  0  0  0  0  0  0
   16.0584   -7.1911  -12.9814 O   0  0  0  0  0  0  0  0  0  0  0  0
   16.6338   -7.9082  -10.8844 N   0  0  0  0  0  0  0  0  0  0  0  0
   15.5682   -7.0897  -10.2208 C   0  0  1  0  0  0  0  0  0  0  0  0
   14.8632   -8.0652   -9.3367 C   0  0  0  0  0  0  0  0  0  0  0  0
   13.7723   -7.5599   -8.5140 C   0  0  0  0  0  0  0  0  0  0  0  0
   13.1832   -6.3335   -8.3625 C   0  0  0  0  0  0  0  0  0  0  0  0
   12.1512   -6.4567   -7.4824 N   0  0  0  0  0  0  0  0  0  0  0  0
   12.1010   -7.7389   -7.0959 C   0  0  0  0  0  0  0  0  0  0  0  0
   13.0682   -8.3995   -7.7111 N   0  0  0  0  0  0  0  0  0  0  0  0
   16.2948   -6.1187   -9.3243 C   0  0  0  0  0  0  0  0  0  0  0  0
   15.8280   -4.8694   -9.0732 O   0  0  0  0  0  0  0  0  0  0  0  0
   17.3707   -6.4741   -8.7882 O   0  0  0  0  0  0  0  0  0  0  0  0
  2  4  1  0
  2  1  1  6
  3  2  1  0
  4  6  1  0
  4  5  1  1
  6 13  1  0
  6  7  2  0
  8  9  1  0
  9 11  1  0
 10  9  2  0
 12 11  1  6
 12 14  1  0
 13 12  1  0
 14 15  2  0
 16 17  1  0
 16 14  1  0
 17 24  1  0
 18 19  1  0
 17 18  1  1
 19 23  1  0
 20 19  2  0
 20 21  1  0
 21 22  1  0
 23 22  2  0
 24 25  1  0
 26 24  2  0
M  END
$$$$
