TNH.pdb
     RDKit          3D

 26 26  0  0  1  0  0  0  0  0999 V2000
   26.4768  -17.2281  -14.7184 C   0  0  0  0  0  0  0  0  0  0  0  0
   27.0743  -18.2596  -15.6495 C   0  0  1  0  0  0  0  0  0  0  0  0
   28.1881  -17.8247  -16.3131 O   0  0  0  0  0  0  0  0  0  0  0  0
   27.3372  -19.5681  -14.9365 C   0  0  2  0  0  0  0  0  0  0  0  0
   28.0378  -20.4955  -15.8281 N   0  0  0  0  0  0  0  0  0  0  0  0
   26.1408  -20.2368  -14.4292 C   0  0  0  0  0  0  0  0  0  0  0  0
   25.3713  -20.9467  -15.1339 O   0  0  0  0  0  0  0  0  0  0  0  0
   26.5530  -20.5056   -9.3845 N   0  0  0  0  0  0  0  0  0  0  0  0
   25.8793  -21.1722  -10.4182 C   0  0  0  0  0  0  0  0  0  0  0  0
   26.3123  -22.2627  -10.8435 O   0  0  0  0  0  0  0  0  0  0  0  0
   24.6617  -20.5906  -11.0050 C   0  0  0  0  0  0  0  0  0  0  0  0
   24.6084  -20.6929  -12.5119 C   0  0  2  0  0  0  0  0  0  0  0  0
   25.7901  -20.1023  -13.0585 N   0  0  0  0  0  0  0  0  0  0  0  0
   23.3466  -20.1082  -13.0133 C   0  0  0  0  0  0  0  0  0  0  0  0
   23.1478  -18.8589  -12.9629 O   0  0  0  0  0  0  0  0  0  0  0  0
   22.3479  -20.9216  -13.5529 N   0  0  0  0  0  0  0  0  0  0  0  0
   21.0779  -20.3571  -14.1134 C   0  0  1  0  0  0  0  0  0  0  0  0
   21.0936  -20.7862  -15.5438 C   0  0  0  0  0  0  0  0  0  0  0  0
   21.8987  -20.0031  -16.4716 C   0  0  0  0  0  0  0  0  0  0  0  0
   22.6267  -18.8490  -16.3606 C   0  0  0  0  0  0  0  0  0  0  0  0
   23.2327  -18.6051  -17.5557 N   0  0  0  0  0  0  0  0  0  0  0  0
   22.8868  -19.5926  -18.3929 C   0  0  0  0  0  0  0  0  0  0  0  0
   22.0903  -20.4288  -17.7472 N   0  0  0  0  0  0  0  0  0  0  0  0
   19.9600  -21.1077  -13.4342 C   0  0  0  0  0  0  0  0  0  0  0  0
   18.6616  -20.7242  -13.5291 O   0  0  0  0  0  0  0  0  0  0  0  0
   20.2349  -22.1251  -12.7555 O   0  0  0  0  0  0  0  0  0  0  0  0
  2  4  1  0
  2  1  1  1
  3  2  1  0
  4  6  1  0
  4  5  1  6
  6 13  1  0
  6  7  2  0
  8  9  1  0
  9 11  1  0
 10  9  2  0
 12 11  1  1
 12 14  1  0
 13 12  1  0
 14 15  2  0
 16 17  1  0
 16 14  1  0
 17 24  1  0
 18 19  1  0
 17 18  1  6
 19 23  1  0
 20 19  2  0
 20 21  1  0
 21 22  1  0
 23 22  2  0
 24 25  1  0
 26 24  2  0
M  END
$$$$
