TNH.pdb
     RDKit          3D

 26 26  0  0  1  0  0  0  0  0999 V2000
    9.5410  -10.9166  -11.2709 C   0  0  0  0  0  0  0  0  0  0  0  0
   10.9490  -10.3643  -11.2517 C   0  0  1  0  0  0  0  0  0  0  0  0
   11.1165   -9.3095  -10.3976 O   0  0  0  0  0  0  0  0  0  0  0  0
   11.9699  -11.4497  -10.9887 C   0  0  2  0  0  0  0  0  0  0  0  0
   11.7027  -12.0906   -9.6989 N   0  0  0  0  0  0  0  0  0  0  0  0
   13.3587  -10.9947  -10.9947 C   0  0  0  0  0  0  0  0  0  0  0  0
   13.9914  -10.6317   -9.9647 O   0  0  0  0  0  0  0  0  0  0  0  0
   15.6903  -13.3352  -14.5515 N   0  0  0  0  0  0  0  0  0  0  0  0
   16.1871  -12.5614  -13.4925 C   0  0  0  0  0  0  0  0  0  0  0  0
   16.7277  -13.1166  -12.5143 O   0  0  0  0  0  0  0  0  0  0  0  0
   16.0737  -11.0948  -13.5298 C   0  0  0  0  0  0  0  0  0  0  0  0
   15.4341  -10.5064  -12.2933 C   0  0  2  0  0  0  0  0  0  0  0  0
   14.0753  -10.9452  -12.2209 N   0  0  0  0  0  0  0  0  0  0  0  0
   15.6015   -9.0375  -12.2886 C   0  0  0  0  0  0  0  0  0  0  0  0
   14.8070   -8.2941  -12.9357 O   0  0  0  0  0  0  0  0  0  0  0  0
   16.6392   -8.4398  -11.5704 N   0  0  0  0  0  0  0  0  0  0  0  0
   16.7913   -6.9516  -11.4809 C   0  0  1  0  0  0  0  0  0  0  0  0
   17.0877   -6.7061  -10.0379 C   0  0  0  0  0  0  0  0  0  0  0  0
   15.9544   -6.5722   -9.1324 C   0  0  0  0  0  0  0  0  0  0  0  0
   14.5967   -6.6524   -9.2881 C   0  0  0  0  0  0  0  0  0  0  0  0
   14.0129   -6.4983   -8.0673 N   0  0  0  0  0  0  0  0  0  0  0  0
   14.9931   -6.3267   -7.1697 C   0  0  0  0  0  0  0  0  0  0  0  0
   16.1535   -6.3708   -7.8038 N   0  0  0  0  0  0  0  0  0  0  0  0
   18.0413   -6.6192  -12.2565 C   0  0  0  0  0  0  0  0  0  0  0  0
   18.3813   -5.3457  -12.5798 O   0  0  0  0  0  0  0  0  0  0  0  0
   18.7985   -7.5504  -12.6181 O   0  0  0  0  0  0  0  0  0  0  0  0
  2  4  1  0
  2  1  1  1
  3  2  1  0
  4  6  1  0
  4  5  1  1
  6 13  1  0
  6  7  2  0
  8  9  1  0
  9 11  1  0
 10  9  2  0
 12 11  1  6
 12 14  1  0
 13 12  1  0
 14 15  2  0
 16 17  1  0
 16 14  1  0
 17 24  1  0
 18 19  1  0
 17 18  1  1
 19 23  1  0
 20 19  2  0
 20 21  1  0
 21 22  1  0
 23 22  2  0
 24 25  1  0
 26 24  2  0
M  END
$$$$
