TNH.pdb
     RDKit          3D

 26 26  0  0  1  0  0  0  0  0999 V2000
   21.7149  -12.8231  -18.5071 C   0  0  0  0  0  0  0  0  0  0  0  0
   22.3516  -13.8765  -17.6279 C   0  0  1  0  0  0  0  0  0  0  0  0
   22.3363  -15.1314  -18.1710 O   0  0  0  0  0  0  0  0  0  0  0  0
   23.7492  -13.4793  -17.2053 C   0  0  2  0  0  0  0  0  0  0  0  0
   24.3619  -14.5528  -16.4192 N   0  0  0  0  0  0  0  0  0  0  0  0
   23.8230  -12.2437  -16.4284 C   0  0  0  0  0  0  0  0  0  0  0  0
   23.1676  -12.0294  -15.3712 O   0  0  0  0  0  0  0  0  0  0  0  0
   28.0523  -10.6794  -16.4882 N   0  0  0  0  0  0  0  0  0  0  0  0
   27.1235   -9.9104  -15.7718 C   0  0  0  0  0  0  0  0  0  0  0  0
   27.2367   -9.7882  -14.5351 O   0  0  0  0  0  0  0  0  0  0  0  0
   26.0139   -9.2457  -16.4734 C   0  0  0  0  0  0  0  0  0  0  0  0
   24.6729   -9.9036  -16.2436 C   0  0  2  0  0  0  0  0  0  0  0  0
   24.6778  -11.1936  -16.8600 N   0  0  0  0  0  0  0  0  0  0  0  0
   23.5874   -9.0119  -16.7042 C   0  0  0  0  0  0  0  0  0  0  0  0
   23.3280   -8.8929  -17.9376 O   0  0  0  0  0  0  0  0  0  0  0  0
   22.8260   -8.2825  -15.7887 N   0  0  0  0  0  0  0  0  0  0  0  0
   21.7303   -7.3571  -16.2231 C   0  0  1  0  0  0  0  0  0  0  0  0
   20.5067   -8.2131  -16.2027 C   0  0  0  0  0  0  0  0  0  0  0  0
   19.2354   -7.5757  -16.5183 C   0  0  0  0  0  0  0  0  0  0  0  0
   18.8779   -6.3273  -16.9516 C   0  0  0  0  0  0  0  0  0  0  0  0
   17.5290   -6.3057  -17.1386 N   0  0  0  0  0  0  0  0  0  0  0  0
   17.0587   -7.5214  -16.8273 C   0  0  0  0  0  0  0  0  0  0  0  0
   18.0763   -8.2814  -16.4568 N   0  0  0  0  0  0  0  0  0  0  0  0
   21.5851   -6.3440  -15.1153 C   0  0  0  0  0  0  0  0  0  0  0  0
   20.8015   -5.2423  -15.2333 O   0  0  0  0  0  0  0  0  0  0  0  0
   22.2092   -6.5218  -14.0428 O   0  0  0  0  0  0  0  0  0  0  0  0
  2  4  1  0
  2  1  1  6
  3  2  1  0
  4  6  1  0
  4  5  1  1
  6 13  1  0
  6  7  2  0
  8  9  1  0
  9 11  1  0
 10  9  2  0
 12 11  1  6
 12 14  1  0
 13 12  1  0
 14 15  2  0
 16 17  1  0
 16 14  1  0
 17 24  1  0
 18 19  1  0
 17 18  1  1
 19 23  1  0
 20 19  2  0
 20 21  1  0
 21 22  1  0
 23 22  2  0
 24 25  1  0
 26 24  2  0
M  END
$$$$
