TNH.pdb
     RDKit          3D

 26 26  0  0  1  0  0  0  0  0999 V2000
   25.9938  -32.0270   -5.3943 C   0  0  0  0  0  0  0  0  0  0  0  0
   25.1627  -32.1427   -6.6528 C   0  0  1  0  0  0  0  0  0  0  0  0
   24.8023  -30.9374   -7.1888 O   0  0  0  0  0  0  0  0  0  0  0  0
   25.8336  -33.0228   -7.6847 C   0  0  2  0  0  0  0  0  0  0  0  0
   24.9744  -33.1622   -8.8630 N   0  0  0  0  0  0  0  0  0  0  0  0
   26.1814  -34.3609   -7.2111 C   0  0  0  0  0  0  0  0  0  0  0  0
   25.4395  -35.3741   -7.3377 O   0  0  0  0  0  0  0  0  0  0  0  0
   26.6373  -37.8721   -7.5726 N   0  0  0  0  0  0  0  0  0  0  0  0
   27.9779  -37.5716   -7.8550 C   0  0  0  0  0  0  0  0  0  0  0  0
   28.5738  -38.1776   -8.7688 O   0  0  0  0  0  0  0  0  0  0  0  0
   28.6863  -36.5430   -7.0770 C   0  0  0  0  0  0  0  0  0  0  0  0
   27.8149  -35.8522   -6.0535 C   0  0  2  0  0  0  0  0  0  0  0  0
   27.4277  -34.5733   -6.5620 N   0  0  0  0  0  0  0  0  0  0  0  0
   28.5088  -35.8051   -4.7490 C   0  0  0  0  0  0  0  0  0  0  0  0
   29.3574  -34.8991   -4.5004 O   0  0  0  0  0  0  0  0  0  0  0  0
   28.2427  -36.7586   -3.7641 N   0  0  0  0  0  0  0  0  0  0  0  0
   28.8584  -36.6870   -2.3998 C   0  0  1  0  0  0  0  0  0  0  0  0
   28.2497  -35.4653   -1.7938 C   0  0  0  0  0  0  0  0  0  0  0  0
   28.4963  -35.2229   -0.3786 C   0  0  0  0  0  0  0  0  0  0  0  0
   29.4799  -35.6018    0.4950 C   0  0  0  0  0  0  0  0  0  0  0  0
   29.2275  -35.0274    1.7038 N   0  0  0  0  0  0  0  0  0  0  0  0
   28.1065  -34.3035    1.5808 C   0  0  0  0  0  0  0  0  0  0  0  0
   27.6684  -34.4188    0.3377 N   0  0  0  0  0  0  0  0  0  0  0  0
   28.3207  -37.8759   -1.6436 C   0  0  0  0  0  0  0  0  0  0  0  0
   28.7471  -38.2003   -0.3967 O   0  0  0  0  0  0  0  0  0  0  0  0
   27.4463  -38.5947   -2.1824 O   0  0  0  0  0  0  0  0  0  0  0  0
  2  4  1  0
  2  1  1  1
  3  2  1  0
  4  6  1  0
  4  5  1  6
  6 13  1  0
  6  7  2  0
  8  9  1  0
  9 11  1  0
 10  9  2  0
 12 11  1  6
 12 14  1  0
 13 12  1  0
 14 15  2  0
 16 17  1  0
 16 14  1  0
 17 24  1  0
 18 19  1  0
 17 18  1  1
 19 23  1  0
 20 19  2  0
 20 21  1  0
 21 22  1  0
 23 22  2  0
 24 25  1  0
 26 24  2  0
M  END
$$$$
