TNH.pdb
     RDKit          3D

 26 26  0  0  1  0  0  0  0  0999 V2000
   28.6619  -33.6084   -3.4612 C   0  0  0  0  0  0  0  0  0  0  0  0
   28.2852  -34.4019   -4.6926 C   0  0  1  0  0  0  0  0  0  0  0  0
   27.4557  -33.7316   -5.5486 O   0  0  0  0  0  0  0  0  0  0  0  0
   29.5080  -34.9268   -5.4130 C   0  0  2  0  0  0  0  0  0  0  0  0
   29.1048  -35.7374   -6.5646 N   0  0  0  0  0  0  0  0  0  0  0  0
   30.4080  -35.7255   -4.5836 C   0  0  0  0  0  0  0  0  0  0  0  0
   30.2224  -36.9419   -4.3025 O   0  0  0  0  0  0  0  0  0  0  0  0
   35.6604  -36.7145   -2.7119 N   0  0  0  0  0  0  0  0  0  0  0  0
   34.7390  -35.7944   -2.1908 C   0  0  0  0  0  0  0  0  0  0  0  0
   34.7401  -35.5338   -0.9704 O   0  0  0  0  0  0  0  0  0  0  0  0
   33.7691  -35.1336   -3.0784 C   0  0  0  0  0  0  0  0  0  0  0  0
   32.4158  -35.8059   -3.1022 C   0  0  2  0  0  0  0  0  0  0  0  0
   31.5781  -35.1281   -4.0419 N   0  0  0  0  0  0  0  0  0  0  0  0
   31.8631  -35.8768   -1.7329 C   0  0  0  0  0  0  0  0  0  0  0  0
   31.1994  -34.9115   -1.2528 O   0  0  0  0  0  0  0  0  0  0  0  0
   32.0615  -37.0096   -0.9409 N   0  0  0  0  0  0  0  0  0  0  0  0
   31.6952  -37.0393    0.5119 C   0  0  1  0  0  0  0  0  0  0  0  0
   30.2018  -37.0506    0.5065 C   0  0  0  0  0  0  0  0  0  0  0  0
   29.5406  -38.1781   -0.1368 C   0  0  0  0  0  0  0  0  0  0  0  0
   29.9847  -39.2877   -0.8043 C   0  0  0  0  0  0  0  0  0  0  0  0
   28.9059  -40.0452   -1.1469 N   0  0  0  0  0  0  0  0  0  0  0  0
   27.8114  -39.4156   -0.6978 C   0  0  0  0  0  0  0  0  0  0  0  0
   28.1884  -38.3003   -0.0939 N   0  0  0  0  0  0  0  0  0  0  0  0
   32.1501  -38.3834    1.0228 C   0  0  0  0  0  0  0  0  0  0  0  0
   32.8230  -39.2690    0.2451 O   0  0  0  0  0  0  0  0  0  0  0  0
   31.9002  -38.6993    2.2099 O   0  0  0  0  0  0  0  0  0  0  0  0
  2  4  1  0
  2  1  1  1
  3  2  1  0
  4  6  1  0
  4  5  1  6
  6 13  1  0
  6  7  2  0
  8  9  1  0
  9 11  1  0
 10  9  2  0
 12 11  1  1
 12 14  1  0
 13 12  1  0
 14 15  2  0
 16 17  1  0
 16 14  1  0
 17 24  1  0
 18 19  1  0
 17 18  1  6
 19 23  1  0
 20 19  2  0
 20 21  1  0
 21 22  1  0
 23 22  2  0
 24 25  1  0
 26 24  2  0
M  END
$$$$
