TNH.pdb
     RDKit          3D

 26 26  0  0  1  0  0  0  0  0999 V2000
   14.5175  -12.7196   -9.7019 C   0  0  0  0  0  0  0  0  0  0  0  0
   14.8444  -11.3552  -10.2673 C   0  0  1  0  0  0  0  0  0  0  0  0
   14.7868  -11.2952  -11.6322 O   0  0  0  0  0  0  0  0  0  0  0  0
   13.9974  -10.2725   -9.6349 C   0  0  2  0  0  0  0  0  0  0  0  0
   12.5907  -10.4557  -10.0003 N   0  0  0  0  0  0  0  0  0  0  0  0
   14.3881   -8.9091   -9.9875 C   0  0  0  0  0  0  0  0  0  0  0  0
   14.0414   -8.3236  -11.0505 O   0  0  0  0  0  0  0  0  0  0  0  0
   13.3031   -5.6029   -9.1140 N   0  0  0  0  0  0  0  0  0  0  0  0
   14.2854   -5.3533   -8.1446 C   0  0  0  0  0  0  0  0  0  0  0  0
   14.0273   -4.6180   -7.1700 O   0  0  0  0  0  0  0  0  0  0  0  0
   15.6219   -5.9558   -8.2719 C   0  0  0  0  0  0  0  0  0  0  0  0
   15.7542   -6.8891   -9.4532 C   0  0  2  0  0  0  0  0  0  0  0  0
   15.2104   -8.1633   -9.1002 N   0  0  0  0  0  0  0  0  0  0  0  0
   17.1601   -6.9310   -9.9085 C   0  0  0  0  0  0  0  0  0  0  0  0
   18.1108   -6.9299   -9.0725 O   0  0  0  0  0  0  0  0  0  0  0  0
   17.4685   -6.9728  -11.2698 N   0  0  0  0  0  0  0  0  0  0  0  0
   18.8824   -7.0123  -11.7648 C   0  0  1  0  0  0  0  0  0  0  0  0
   18.9041   -8.1764  -12.7000 C   0  0  0  0  0  0  0  0  0  0  0  0
   20.1282   -8.4093  -13.4547 C   0  0  0  0  0  0  0  0  0  0  0  0
   21.3688   -7.8306  -13.4589 C   0  0  0  0  0  0  0  0  0  0  0  0
   22.1550   -8.5025  -14.3450 N   0  0  0  0  0  0  0  0  0  0  0  0
   21.4138   -9.4824  -14.8803 C   0  0  0  0  0  0  0  0  0  0  0  0
   20.2031   -9.4286  -14.3496 N   0  0  0  0  0  0  0  0  0  0  0  0
   19.0610   -5.7673  -12.5971 C   0  0  0  0  0  0  0  0  0  0  0  0
   18.0117   -5.0246  -13.0319 O   0  0  0  0  0  0  0  0  0  0  0  0
   20.2204   -5.4001  -12.9011 O   0  0  0  0  0  0  0  0  0  0  0  0
  2  4  1  0
  2  1  1  1
  3  2  1  0
  4  6  1  0
  4  5  1  6
  6 13  1  0
  6  7  2  0
  8  9  1  0
  9 11  1  0
 10  9  2  0
 12 11  1  1
 12 14  1  0
 13 12  1  0
 14 15  2  0
 16 17  1  0
 16 14  1  0
 17 24  1  0
 18 19  1  0
 17 18  1  6
 19 23  1  0
 20 19  2  0
 20 21  1  0
 21 22  1  0
 23 22  2  0
 24 25  1  0
 26 24  2  0
M  END
$$$$
