TNH.pdb
     RDKit          3D

 26 26  0  0  1  0  0  0  0  0999 V2000
   14.0283  -11.9583   -9.2704 C   0  0  0  0  0  0  0  0  0  0  0  0
   14.3924  -10.6274   -9.8902 C   0  0  1  0  0  0  0  0  0  0  0  0
   14.2205  -10.5847  -11.2462 O   0  0  0  0  0  0  0  0  0  0  0  0
   13.6754   -9.4814   -9.2105 C   0  0  2  0  0  0  0  0  0  0  0  0
   12.2373   -9.5569   -9.4791 N   0  0  0  0  0  0  0  0  0  0  0  0
   14.1443   -8.1529   -9.5990 C   0  0  0  0  0  0  0  0  0  0  0  0
   13.8535   -7.5880  -10.6896 O   0  0  0  0  0  0  0  0  0  0  0  0
   13.1504   -4.8703   -8.7673 N   0  0  0  0  0  0  0  0  0  0  0  0
   14.1428   -4.6042   -7.8127 C   0  0  0  0  0  0  0  0  0  0  0  0
   13.8948   -3.8521   -6.8482 O   0  0  0  0  0  0  0  0  0  0  0  0
   15.4778   -5.2089   -7.9435 C   0  0  0  0  0  0  0  0  0  0  0  0
   15.5907   -6.1816   -9.0947 C   0  0  2  0  0  0  0  0  0  0  0  0
   14.9830   -7.4193   -8.7168 N   0  0  0  0  0  0  0  0  0  0  0  0
   17.0018   -6.2998   -9.5193 C   0  0  0  0  0  0  0  0  0  0  0  0
   17.9327   -6.3502   -8.6628 O   0  0  0  0  0  0  0  0  0  0  0  0
   17.3371   -6.3581  -10.8736 N   0  0  0  0  0  0  0  0  0  0  0  0
   18.7381   -6.6206  -11.3362 C   0  0  1  0  0  0  0  0  0  0  0  0
   18.6331   -7.9040  -12.0926 C   0  0  0  0  0  0  0  0  0  0  0  0
   19.7973   -8.3305  -12.8574 C   0  0  0  0  0  0  0  0  0  0  0  0
   21.0342   -7.7914  -13.0886 C   0  0  0  0  0  0  0  0  0  0  0  0
   21.7519   -8.6677  -13.8450 N   0  0  0  0  0  0  0  0  0  0  0  0
   20.9726   -9.7329  -14.0775 C   0  0  0  0  0  0  0  0  0  0  0  0
   19.8049   -9.5336  -13.4882 N   0  0  0  0  0  0  0  0  0  0  0  0
   19.0500   -5.5365  -12.3372 C   0  0  0  0  0  0  0  0  0  0  0  0
   18.1105   -4.6651  -12.7843 O   0  0  0  0  0  0  0  0  0  0  0  0
   20.2197   -5.4317  -12.7757 O   0  0  0  0  0  0  0  0  0  0  0  0
  2  4  1  0
  2  1  1  1
  3  2  1  0
  4  6  1  0
  4  5  1  6
  6 13  1  0
  6  7  2  0
  8  9  1  0
  9 11  1  0
 10  9  2  0
 12 11  1  1
 12 14  1  0
 13 12  1  0
 14 15  2  0
 16 17  1  0
 16 14  1  0
 17 24  1  0
 18 19  1  0
 17 18  1  6
 19 23  1  0
 20 19  2  0
 20 21  1  0
 21 22  1  0
 23 22  2  0
 24 25  1  0
 26 24  2  0
M  END
$$$$
