TNH.pdb
     RDKit          3D

 26 26  0  0  1  0  0  0  0  0999 V2000
   16.4088  -11.1516  -18.6797 C   0  0  0  0  0  0  0  0  0  0  0  0
   16.0705  -12.2522  -17.6987 C   0  0  1  0  0  0  0  0  0  0  0  0
   15.3599  -13.2828  -18.2491 O   0  0  0  0  0  0  0  0  0  0  0  0
   17.3033  -12.7580  -16.9817 C   0  0  2  0  0  0  0  0  0  0  0  0
   16.9442  -13.8461  -16.0691 N   0  0  0  0  0  0  0  0  0  0  0  0
   18.0255  -11.7412  -16.2199 C   0  0  0  0  0  0  0  0  0  0  0  0
   17.6045  -11.2247  -15.1481 O   0  0  0  0  0  0  0  0  0  0  0  0
   21.6155   -8.7554  -14.3227 N   0  0  0  0  0  0  0  0  0  0  0  0
   22.2457   -9.6960  -15.1504 C   0  0  0  0  0  0  0  0  0  0  0  0
   23.4727   -9.8977  -15.0440 O   0  0  0  0  0  0  0  0  0  0  0  0
   21.4651  -10.4478  -16.1457 C   0  0  0  0  0  0  0  0  0  0  0  0
   19.9777  -10.1929  -16.0654 C   0  0  2  0  0  0  0  0  0  0  0  0
   19.2869  -11.2806  -16.6850 N   0  0  0  0  0  0  0  0  0  0  0  0
   19.6614   -8.8660  -16.6354 C   0  0  0  0  0  0  0  0  0  0  0  0
   19.6964   -8.6745  -17.8863 O   0  0  0  0  0  0  0  0  0  0  0  0
   19.3175   -7.7965  -15.8060 N   0  0  0  0  0  0  0  0  0  0  0  0
   18.8650   -6.4773  -16.3544 C   0  0  1  0  0  0  0  0  0  0  0  0
   17.6960   -6.1137  -15.4991 C   0  0  0  0  0  0  0  0  0  0  0  0
   17.0911   -4.8052  -15.7088 C   0  0  0  0  0  0  0  0  0  0  0  0
   17.2811   -3.8039  -16.6228 C   0  0  0  0  0  0  0  0  0  0  0  0
   16.3805   -2.8137  -16.3710 N   0  0  0  0  0  0  0  0  0  0  0  0
   15.6438   -3.1959  -15.3189 C   0  0  0  0  0  0  0  0  0  0  0  0
   16.0664   -4.3852  -14.9221 N   0  0  0  0  0  0  0  0  0  0  0  0
   19.9701   -5.5006  -16.0389 C   0  0  0  0  0  0  0  0  0  0  0  0
   19.9582   -4.2183  -16.4831 O   0  0  0  0  0  0  0  0  0  0  0  0
   20.9382   -5.8824  -15.3401 O   0  0  0  0  0  0  0  0  0  0  0  0
  2  4  1  0
  2  1  1  6
  3  2  1  0
  4  6  1  0
  4  5  1  1
  6 13  1  0
  6  7  2  0
  8  9  1  0
  9 11  1  0
 10  9  2  0
 12 11  1  6
 12 14  1  0
 13 12  1  0
 14 15  2  0
 16 17  1  0
 16 14  1  0
 17 24  1  0
 18 19  1  0
 17 18  1  1
 19 23  1  0
 20 19  2  0
 20 21  1  0
 21 22  1  0
 23 22  2  0
 24 25  1  0
 26 24  2  0
M  END
$$$$
