DYC.pdb
     RDKit          3D

 27 27  0  0  1  0  0  0  0  0999 V2000
    8.9991  -18.5301   22.1803 N   0  0  0  0  0  0  0  0  0  0  0  0
    7.5425  -18.4354   22.1993 C   0  0  1  0  0  0  0  0  0  0  0  0
    6.9546  -19.8333   22.1305 C   0  0  0  0  0  0  0  0  0  0  0  0
    7.3833  -20.5515   20.9260 C   0  0  0  0  0  0  0  0  0  0  0  0
    8.2507  -20.0866   20.1635 O   0  0  0  0  0  0  0  0  0  0  0  0
    7.0652  -17.6603   23.3639 C   0  0  0  0  0  0  0  0  0  0  0  0
    5.8301  -17.5306   23.5494 O   0  0  0  0  0  0  0  0  0  0  0  0
    6.8108  -21.7732   20.6281 O   0  0  0  0  0  0  0  0  0  0  0  0
    8.8901  -21.5293   29.1315 O   0  0  0  0  0  0  0  0  0  0  0  0
    8.7352  -20.2913   28.5205 C   0  0  0  0  0  0  0  0  0  0  0  0
    9.8549  -19.5747   28.1465 C   0  0  0  0  0  0  0  0  0  0  0  0
    9.7707  -18.3427   27.5383 C   0  0  0  0  0  0  0  0  0  0  0  0
    8.5220  -17.7787   27.2802 C   0  0  0  0  0  0  0  0  0  0  0  0
    8.5258  -16.4584   26.6164 C   0  0  0  0  0  0  0  0  0  0  0  0
    7.5267  -16.3383   25.4869 C   0  0  2  0  0  0  0  0  0  0  0  0
    7.9281  -17.0415   24.3036 N   0  0  0  0  0  0  0  0  0  0  0  0
    7.4109  -14.9055   25.1550 C   0  0  0  0  0  0  0  0  0  0  0  0
    8.2258  -14.4503   24.2966 O   0  0  0  0  0  0  0  0  0  0  0  0
    7.4060  -18.4865   27.6494 C   0  0  0  0  0  0  0  0  0  0  0  0
    7.5010  -19.7371   28.2672 C   0  0  0  0  0  0  0  0  0  0  0  0
    6.4766  -14.0067   25.7098 N   0  0  0  0  0  0  0  0  0  0  0  0
    6.6551  -12.5927   25.4712 C   0  0  1  0  0  0  0  0  0  0  0  0
    5.3941  -11.8012   25.7104 C   0  0  0  0  0  0  0  0  0  0  0  0
    4.7224  -12.2869   27.3398 S   0  0  0  0  0  0  0  0  0  0  0  0
    7.7203  -12.0870   26.3968 C   0  0  0  0  0  0  0  0  0  0  0  0
    8.1859  -12.8577   27.2433 O   0  0  0  0  0  0  0  0  0  0  0  0
    8.1873  -10.7707   26.3126 O   0  0  0  0  0  0  0  0  0  0  0  0
  2  1  1  1
  2  6  1  0
  3  2  1  0
  3  4  1  0
  4  5  2  0
  6 16  1  0
  6  7  2  0
  8  4  1  0
  9 10  1  0
 10 11  2  0
 11 12  1  0
 13 14  1  0
 13 12  2  0
 15 14  1  1
 15 17  1  0
 16 15  1  0
 17 18  2  0
 19 13  1  0
 20 19  2  0
 20 10  1  0
 21 17  1  0
 21 22  1  0
 22 25  1  0
 22 23  1  1
 24 23  1  0
 25 27  1  0
 26 25  2  0
M  END
$$$$
