DYC.pdb
     RDKit          3D

 27 27  0  0  1  0  0  0  0  0999 V2000
    9.5238  -17.7216   19.8531 N   0  0  0  0  0  0  0  0  0  0  0  0
   10.7970  -17.3303   20.4504 C   0  0  1  0  0  0  0  0  0  0  0  0
   11.6440  -16.6354   19.3997 C   0  0  0  0  0  0  0  0  0  0  0  0
   11.9479  -17.5165   18.2675 C   0  0  0  0  0  0  0  0  0  0  0  0
   11.6887  -17.1855   17.0956 O   0  0  0  0  0  0  0  0  0  0  0  0
   10.5967  -16.5161   21.6678 C   0  0  0  0  0  0  0  0  0  0  0  0
   11.5965  -16.0285   22.2504 O   0  0  0  0  0  0  0  0  0  0  0  0
   12.5348  -18.7444   18.5055 O   0  0  0  0  0  0  0  0  0  0  0  0
    6.7862  -11.4639   27.8521 O   0  0  0  0  0  0  0  0  0  0  0  0
    6.9538  -12.3860   26.8267 C   0  0  0  0  0  0  0  0  0  0  0  0
    7.6689  -12.0264   25.7013 C   0  0  0  0  0  0  0  0  0  0  0  0
    7.8706  -12.8918   24.6501 C   0  0  0  0  0  0  0  0  0  0  0  0
    7.3444  -14.1819   24.7009 C   0  0  0  0  0  0  0  0  0  0  0  0
    7.6173  -15.0456   23.5332 C   0  0  0  0  0  0  0  0  0  0  0  0
    9.0672  -15.4565   23.4013 C   0  0  2  0  0  0  0  0  0  0  0  0
    9.3244  -16.2446   22.2316 N   0  0  0  0  0  0  0  0  0  0  0  0
    9.4021  -16.2679   24.5870 C   0  0  0  0  0  0  0  0  0  0  0  0
    8.8264  -17.3930   24.6904 O   0  0  0  0  0  0  0  0  0  0  0  0
    6.6331  -14.5448   25.8168 C   0  0  0  0  0  0  0  0  0  0  0  0
    6.4328  -13.6589   26.8798 C   0  0  0  0  0  0  0  0  0  0  0  0
   10.3021  -15.8983   25.6078 N   0  0  0  0  0  0  0  0  0  0  0  0
   10.6158  -16.8663   26.6337 C   0  0  1  0  0  0  0  0  0  0  0  0
   12.0934  -17.1518   26.7286 C   0  0  0  0  0  0  0  0  0  0  0  0
   12.6880  -17.6133   25.0626 S   0  0  0  0  0  0  0  0  0  0  0  0
   10.1469  -16.3281   27.9519 C   0  0  0  0  0  0  0  0  0  0  0  0
    9.6914  -15.1801   27.9962 O   0  0  0  0  0  0  0  0  0  0  0  0
   10.2172  -17.1014   29.1159 O   0  0  0  0  0  0  0  0  0  0  0  0
  2  1  1  6
  2  6  1  0
  3  2  1  0
  3  4  1  0
  4  5  2  0
  6 16  1  0
  6  7  2  0
  8  4  1  0
  9 10  1  0
 10 11  2  0
 11 12  1  0
 13 14  1  0
 13 12  2  0
 15 14  1  1
 15 17  1  0
 16 15  1  0
 17 18  2  0
 19 13  1  0
 20 19  2  0
 20 10  1  0
 21 17  1  0
 21 22  1  0
 22 25  1  0
 22 23  1  1
 24 23  1  0
 25 27  1  0
 26 25  2  0
M  END
$$$$
