DYC.pdb
     RDKit          3D

 27 27  0  0  1  0  0  0  0  0999 V2000
    9.1161  -16.6290   18.3462 N   0  0  0  0  0  0  0  0  0  0  0  0
    9.1059  -17.5054   19.5136 C   0  0  1  0  0  0  0  0  0  0  0  0
   10.1709  -18.5731   19.3405 C   0  0  0  0  0  0  0  0  0  0  0  0
    9.9779  -19.3478   18.1104 C   0  0  0  0  0  0  0  0  0  0  0  0
    8.8446  -19.5431   17.6336 O   0  0  0  0  0  0  0  0  0  0  0  0
    9.2505  -16.7376   20.7686 C   0  0  0  0  0  0  0  0  0  0  0  0
   10.3938  -16.5826   21.2639 O   0  0  0  0  0  0  0  0  0  0  0  0
   11.0794  -19.8756   17.4645 O   0  0  0  0  0  0  0  0  0  0  0  0
    7.3287  -11.6198   27.7757 O   0  0  0  0  0  0  0  0  0  0  0  0
    7.1982  -12.4278   26.6531 C   0  0  0  0  0  0  0  0  0  0  0  0
    7.7183  -12.0019   25.4468 C   0  0  0  0  0  0  0  0  0  0  0  0
    7.6221  -12.7537   24.2977 C   0  0  0  0  0  0  0  0  0  0  0  0
    6.9819  -13.9919   24.3286 C   0  0  0  0  0  0  0  0  0  0  0  0
    6.9331  -14.7344   23.0518 C   0  0  0  0  0  0  0  0  0  0  0  0
    8.2380  -15.4050   22.6834 C   0  0  2  0  0  0  0  0  0  0  0  0
    8.1610  -16.1535   21.4629 N   0  0  0  0  0  0  0  0  0  0  0  0
    8.5750  -16.3374   23.7758 C   0  0  0  0  0  0  0  0  0  0  0  0
    7.8909  -17.4026   23.8491 O   0  0  0  0  0  0  0  0  0  0  0  0
    6.4634  -14.4202   25.5246 C   0  0  0  0  0  0  0  0  0  0  0  0
    6.5655  -13.6497   26.6868 C   0  0  0  0  0  0  0  0  0  0  0  0
    9.5869  -16.1433   24.7387 N   0  0  0  0  0  0  0  0  0  0  0  0
    9.8730  -17.2161   25.6635 C   0  0  1  0  0  0  0  0  0  0  0  0
   11.1892  -17.8935   25.3757 C   0  0  0  0  0  0  0  0  0  0  0  0
   12.4576  -16.5950   25.1584 S   0  0  0  0  0  0  0  0  0  0  0  0
    9.9211  -16.6464   27.0493 C   0  0  0  0  0  0  0  0  0  0  0  0
    9.8597  -15.4201   27.1893 O   0  0  0  0  0  0  0  0  0  0  0  0
   10.0316  -17.4769   28.1699 O   0  0  0  0  0  0  0  0  0  0  0  0
  2  1  1  6
  2  6  1  0
  3  2  1  0
  3  4  1  0
  4  5  2  0
  6 16  1  0
  6  7  2  0
  8  4  1  0
  9 10  1  0
 10 11  2  0
 11 12  1  0
 13 14  1  0
 13 12  2  0
 15 14  1  1
 15 17  1  0
 16 15  1  0
 17 18  2  0
 19 13  1  0
 20 19  2  0
 20 10  1  0
 21 17  1  0
 21 22  1  0
 22 25  1  0
 22 23  1  6
 24 23  1  0
 25 27  1  0
 26 25  2  0
M  END
$$$$
