DYC.pdb
     RDKit          3D

 27 27  0  0  1  0  0  0  0  0999 V2000
   10.1982  -17.0606   18.9585 N   0  0  0  0  0  0  0  0  0  0  0  0
    8.9275  -16.8289   19.6387 C   0  0  1  0  0  0  0  0  0  0  0  0
    8.1693  -18.1407   19.7316 C   0  0  0  0  0  0  0  0  0  0  0  0
    7.9434  -18.7398   18.4124 C   0  0  0  0  0  0  0  0  0  0  0  0
    8.4590  -18.2651   17.3834 O   0  0  0  0  0  0  0  0  0  0  0  0
    9.1264  -16.1777   20.9508 C   0  0  0  0  0  0  0  0  0  0  0  0
   10.2583  -16.2231   21.4922 O   0  0  0  0  0  0  0  0  0  0  0  0
    7.1379  -19.8575   18.3068 O   0  0  0  0  0  0  0  0  0  0  0  0
    7.0659  -11.8731   28.5392 O   0  0  0  0  0  0  0  0  0  0  0  0
    7.1084  -12.3419   27.2321 C   0  0  0  0  0  0  0  0  0  0  0  0
    6.3040  -13.4030   26.8658 C   0  0  0  0  0  0  0  0  0  0  0  0
    6.2991  -13.9156   25.5882 C   0  0  0  0  0  0  0  0  0  0  0  0
    7.1263  -13.3602   24.6131 C   0  0  0  0  0  0  0  0  0  0  0  0
    7.0495  -13.9670   23.2678 C   0  0  0  0  0  0  0  0  0  0  0  0
    8.2349  -14.8407   22.9218 C   0  0  2  0  0  0  0  0  0  0  0  0
    8.1021  -15.4918   21.6514 N   0  0  0  0  0  0  0  0  0  0  0  0
    8.3324  -15.8797   23.9646 C   0  0  0  0  0  0  0  0  0  0  0  0
    7.4992  -16.8335   23.9003 O   0  0  0  0  0  0  0  0  0  0  0  0
    7.9275  -12.3054   24.9715 C   0  0  0  0  0  0  0  0  0  0  0  0
    7.9263  -11.7915   26.2717 C   0  0  0  0  0  0  0  0  0  0  0  0
    9.2679  -15.8994   25.0196 N   0  0  0  0  0  0  0  0  0  0  0  0
    9.3319  -17.0716   25.8622 C   0  0  1  0  0  0  0  0  0  0  0  0
   10.0677  -18.2146   25.2096 C   0  0  0  0  0  0  0  0  0  0  0  0
   11.7069  -17.6026   24.6799 S   0  0  0  0  0  0  0  0  0  0  0  0
   10.0438  -16.7055   27.1295 C   0  0  0  0  0  0  0  0  0  0  0  0
   10.5033  -15.5640   27.2438 O   0  0  0  0  0  0  0  0  0  0  0  0
   10.1902  -17.6292   28.1703 O   0  0  0  0  0  0  0  0  0  0  0  0
  2  1  1  1
  2  6  1  0
  3  2  1  0
  3  4  1  0
  4  5  2  0
  6 16  1  0
  6  7  2  0
  8  4  1  0
  9 10  1  0
 10 11  2  0
 11 12  1  0
 13 14  1  0
 13 12  2  0
 15 14  1  1
 15 17  1  0
 16 15  1  0
 17 18  2  0
 19 13  1  0
 20 19  2  0
 20 10  1  0
 21 17  1  0
 21 22  1  0
 22 25  1  0
 22 23  1  6
 24 23  1  0
 25 27  1  0
 26 25  2  0
M  END
$$$$
