DYC.pdb
     RDKit          3D

 27 27  0  0  1  0  0  0  0  0999 V2000
   10.3569  -17.0196   18.7531 N   0  0  0  0  0  0  0  0  0  0  0  0
    9.3008  -17.3627   19.7006 C   0  0  1  0  0  0  0  0  0  0  0  0
    9.2838  -18.8675   19.8996 C   0  0  0  0  0  0  0  0  0  0  0  0
    9.2203  -19.5900   18.6251 C   0  0  0  0  0  0  0  0  0  0  0  0
   10.0604  -20.4585   18.3251 O   0  0  0  0  0  0  0  0  0  0  0  0
    9.4421  -16.6102   20.9651 C   0  0  0  0  0  0  0  0  0  0  0  0
   10.5763  -16.5082   21.4941 O   0  0  0  0  0  0  0  0  0  0  0  0
    8.2049  -19.3003   17.7341 O   0  0  0  0  0  0  0  0  0  0  0  0
    6.9840  -12.0437   28.2920 O   0  0  0  0  0  0  0  0  0  0  0  0
    7.0688  -12.6088   27.0257 C   0  0  0  0  0  0  0  0  0  0  0  0
    6.2879  -13.7057   26.7189 C   0  0  0  0  0  0  0  0  0  0  0  0
    6.3250  -14.3129   25.4841 C   0  0  0  0  0  0  0  0  0  0  0  0
    7.1726  -13.8207   24.4925 C   0  0  0  0  0  0  0  0  0  0  0  0
    7.1409  -14.5281   23.1954 C   0  0  0  0  0  0  0  0  0  0  0  0
    8.4377  -15.2242   22.8460 C   0  0  2  0  0  0  0  0  0  0  0  0
    8.3592  -15.9839   21.6326 N   0  0  0  0  0  0  0  0  0  0  0  0
    8.7490  -16.1508   23.9510 C   0  0  0  0  0  0  0  0  0  0  0  0
    8.0687  -17.2194   24.0092 O   0  0  0  0  0  0  0  0  0  0  0  0
    7.9507  -12.7309   24.7918 C   0  0  0  0  0  0  0  0  0  0  0  0
    7.9068  -12.1207   26.0490 C   0  0  0  0  0  0  0  0  0  0  0  0
    9.7325  -15.9477   24.9409 N   0  0  0  0  0  0  0  0  0  0  0  0
    9.9752  -17.0029   25.8979 C   0  0  1  0  0  0  0  0  0  0  0  0
   11.4229  -17.4227   25.9426 C   0  0  0  0  0  0  0  0  0  0  0  0
   11.6368  -18.5647   27.3540 S   0  0  0  0  0  0  0  0  0  0  0  0
    9.5776  -16.5103   27.2567 C   0  0  0  0  0  0  0  0  0  0  0  0
    9.6145  -15.2958   27.4821 O   0  0  0  0  0  0  0  0  0  0  0  0
    9.1695  -17.3986   28.2579 O   0  0  0  0  0  0  0  0  0  0  0  0
  2  1  1  6
  2  6  1  0
  3  2  1  0
  3  4  1  0
  4  5  2  0
  6 16  1  0
  6  7  2  0
  8  4  1  0
  9 10  1  0
 10 11  2  0
 11 12  1  0
 13 14  1  0
 13 12  2  0
 15 14  1  1
 15 17  1  0
 16 15  1  0
 17 18  2  0
 19 13  1  0
 20 19  2  0
 20 10  1  0
 21 17  1  0
 21 22  1  0
 22 25  1  0
 22 23  1  1
 24 23  1  0
 25 27  1  0
 26 25  2  0
M  END
$$$$
