DYC.pdb
     RDKit          3D

 27 27  0  0  1  0  0  0  0  0999 V2000
    9.7752  -19.3950   19.4437 N   0  0  0  0  0  0  0  0  0  0  0  0
   10.9767  -18.6982   18.9946 C   0  0  1  0  0  0  0  0  0  0  0  0
   10.7406  -18.1545   17.5971 C   0  0  0  0  0  0  0  0  0  0  0  0
   10.4878  -19.2242   16.6264 C   0  0  0  0  0  0  0  0  0  0  0  0
    9.8455  -19.0172   15.5802 O   0  0  0  0  0  0  0  0  0  0  0  0
   11.3932  -17.6593   19.9602 C   0  0  0  0  0  0  0  0  0  0  0  0
   12.4256  -16.9839   19.7265 O   0  0  0  0  0  0  0  0  0  0  0  0
   10.9723  -20.4935   16.8781 O   0  0  0  0  0  0  0  0  0  0  0  0
    6.3804  -12.9100   19.2349 O   0  0  0  0  0  0  0  0  0  0  0  0
    7.1643  -13.6559   20.1061 C   0  0  0  0  0  0  0  0  0  0  0  0
    8.4190  -13.1950   20.4534 C   0  0  0  0  0  0  0  0  0  0  0  0
    9.2454  -13.8860   21.3103 C   0  0  0  0  0  0  0  0  0  0  0  0
    8.8225  -15.0956   21.8596 C   0  0  0  0  0  0  0  0  0  0  0  0
    9.7699  -15.7642   22.7757 C   0  0  0  0  0  0  0  0  0  0  0  0
   10.9953  -16.3238   22.0875 C   0  0  2  0  0  0  0  0  0  0  0  0
   10.6890  -17.3701   21.1565 N   0  0  0  0  0  0  0  0  0  0  0  0
   11.8705  -16.8811   23.1363 C   0  0  0  0  0  0  0  0  0  0  0  0
   11.7082  -18.1053   23.4246 O   0  0  0  0  0  0  0  0  0  0  0  0
    7.5766  -15.5583   21.5182 C   0  0  0  0  0  0  0  0  0  0  0  0
    6.7440  -14.8499   20.6466 C   0  0  0  0  0  0  0  0  0  0  0  0
   12.8645  -16.1703   23.8400 N   0  0  0  0  0  0  0  0  0  0  0  0
   13.7724  -16.9105   24.6861 C   0  0  1  0  0  0  0  0  0  0  0  0
   15.1077  -16.2271   24.8405 C   0  0  0  0  0  0  0  0  0  0  0  0
   15.7807  -15.9173   23.1692 S   0  0  0  0  0  0  0  0  0  0  0  0
   13.1478  -17.0520   26.0414 C   0  0  0  0  0  0  0  0  0  0  0  0
   12.0363  -16.5487   26.2382 O   0  0  0  0  0  0  0  0  0  0  0  0
   13.8000  -17.7394   27.0709 O   0  0  0  0  0  0  0  0  0  0  0  0
  2  1  1  1
  2  6  1  0
  3  2  1  0
  3  4  1  0
  4  5  2  0
  6 16  1  0
  6  7  2  0
  8  4  1  0
  9 10  1  0
 10 11  2  0
 11 12  1  0
 13 14  1  0
 13 12  2  0
 15 14  1  1
 15 17  1  0
 16 15  1  0
 17 18  2  0
 19 13  1  0
 20 19  2  0
 20 10  1  0
 21 17  1  0
 21 22  1  0
 22 25  1  0
 22 23  1  1
 24 23  1  0
 25 27  1  0
 26 25  2  0
M  END
$$$$
