DYC.pdb
     RDKit          3D

 27 27  0  0  1  0  0  0  0  0999 V2000
   10.1771  -17.2081   16.4228 N   0  0  0  0  0  0  0  0  0  0  0  0
   11.3084  -16.3834   16.0093 C   0  0  1  0  0  0  0  0  0  0  0  0
   10.8617  -15.4523   14.8967 C   0  0  0  0  0  0  0  0  0  0  0  0
   10.6451  -16.1674   13.6349 C   0  0  0  0  0  0  0  0  0  0  0  0
   10.6025  -17.4109   13.5890 O   0  0  0  0  0  0  0  0  0  0  0  0
   11.9083  -15.6718   17.1576 C   0  0  0  0  0  0  0  0  0  0  0  0
   12.9376  -14.9756   16.9774 O   0  0  0  0  0  0  0  0  0  0  0  0
   10.4855  -15.4454   12.4678 O   0  0  0  0  0  0  0  0  0  0  0  0
    6.2406  -12.0926   18.6851 O   0  0  0  0  0  0  0  0  0  0  0  0
    7.3249  -12.8043   19.1830 C   0  0  0  0  0  0  0  0  0  0  0  0
    8.5707  -12.2092   19.2129 C   0  0  0  0  0  0  0  0  0  0  0  0
    9.6852  -12.8594   19.6925 C   0  0  0  0  0  0  0  0  0  0  0  0
    9.5768  -14.1646   20.1704 C   0  0  0  0  0  0  0  0  0  0  0  0
   10.8215  -14.7816   20.6743 C   0  0  0  0  0  0  0  0  0  0  0  0
   11.8739  -14.9948   19.6088 C   0  0  2  0  0  0  0  0  0  0  0  0
   11.3870  -15.7251   18.4751 N   0  0  0  0  0  0  0  0  0  0  0  0
   12.9677  -15.7715   20.2226 C   0  0  0  0  0  0  0  0  0  0  0  0
   13.0933  -16.9762   19.8472 O   0  0  0  0  0  0  0  0  0  0  0  0
    8.3412  -14.7608   20.1432 C   0  0  0  0  0  0  0  0  0  0  0  0
    7.2146  -14.0929   19.6539 C   0  0  0  0  0  0  0  0  0  0  0  0
   13.8778  -15.2890   21.1857 N   0  0  0  0  0  0  0  0  0  0  0  0
   15.1676  -15.9307   21.2974 C   0  0  1  0  0  0  0  0  0  0  0  0
   15.9628  -15.8595   20.0181 C   0  0  0  0  0  0  0  0  0  0  0  0
   16.1203  -14.0999   19.5477 S   0  0  0  0  0  0  0  0  0  0  0  0
   15.9443  -15.2472   22.3822 C   0  0  0  0  0  0  0  0  0  0  0  0
   15.4525  -14.2536   22.9284 O   0  0  0  0  0  0  0  0  0  0  0  0
   17.2016  -15.7165   22.7781 O   0  0  0  0  0  0  0  0  0  0  0  0
  2  1  1  1
  2  6  1  0
  3  2  1  0
  3  4  1  0
  4  5  2  0
  6 16  1  0
  6  7  2  0
  8  4  1  0
  9 10  1  0
 10 11  2  0
 11 12  1  0
 13 14  1  0
 13 12  2  0
 15 14  1  1
 15 17  1  0
 16 15  1  0
 17 18  2  0
 19 13  1  0
 20 19  2  0
 20 10  1  0
 21 17  1  0
 21 22  1  0
 22 25  1  0
 22 23  1  6
 24 23  1  0
 25 27  1  0
 26 25  2  0
M  END
$$$$
