DYC.pdb
     RDKit          3D

 27 27  0  0  1  0  0  0  0  0999 V2000
    9.1294  -15.5401   19.4642 N   0  0  0  0  0  0  0  0  0  0  0  0
    8.5432  -16.2444   20.6005 C   0  0  1  0  0  0  0  0  0  0  0  0
    8.4298  -17.7201   20.2634 C   0  0  0  0  0  0  0  0  0  0  0  0
    7.3145  -17.9916   19.3508 C   0  0  0  0  0  0  0  0  0  0  0  0
    6.3255  -17.2381   19.2872 O   0  0  0  0  0  0  0  0  0  0  0  0
    9.2989  -15.9883   21.8449 C   0  0  0  0  0  0  0  0  0  0  0  0
   10.5316  -16.2254   21.8731 O   0  0  0  0  0  0  0  0  0  0  0  0
    7.3602  -19.1111   18.5424 O   0  0  0  0  0  0  0  0  0  0  0  0
   10.5744  -14.9424   30.6091 O   0  0  0  0  0  0  0  0  0  0  0  0
   10.0914  -14.8188   29.3125 C   0  0  0  0  0  0  0  0  0  0  0  0
    9.3343  -15.8388   28.7706 C   0  0  0  0  0  0  0  0  0  0  0  0
    8.8270  -15.7793   27.4924 C   0  0  0  0  0  0  0  0  0  0  0  0
    9.0725  -14.6599   26.6984 C   0  0  0  0  0  0  0  0  0  0  0  0
    8.4820  -14.6771   25.3438 C   0  0  0  0  0  0  0  0  0  0  0  0
    9.3597  -15.3347   24.3018 C   0  0  2  0  0  0  0  0  0  0  0  0
    8.7109  -15.4825   23.0319 N   0  0  0  0  0  0  0  0  0  0  0  0
    9.7033  -16.6788   24.8035 C   0  0  0  0  0  0  0  0  0  0  0  0
    8.8563  -17.5996   24.5962 O   0  0  0  0  0  0  0  0  0  0  0  0
    9.8240  -13.6432   27.2317 C   0  0  0  0  0  0  0  0  0  0  0  0
   10.3357  -13.7124   28.5310 C   0  0  0  0  0  0  0  0  0  0  0  0
   10.8863  -17.0218   25.4900 N   0  0  0  0  0  0  0  0  0  0  0  0
   11.2370  -18.4190   25.6032 C   0  0  1  0  0  0  0  0  0  0  0  0
   11.6198  -19.0294   24.2785 C   0  0  0  0  0  0  0  0  0  0  0  0
   12.1897  -20.7387   24.5874 S   0  0  0  0  0  0  0  0  0  0  0  0
   12.4008  -18.5407   26.5402 C   0  0  0  0  0  0  0  0  0  0  0  0
   12.9736  -17.5108   26.9121 O   0  0  0  0  0  0  0  0  0  0  0  0
   12.8380  -19.7904   26.9929 O   0  0  0  0  0  0  0  0  0  0  0  0
  2  1  1  6
  2  6  1  0
  3  2  1  0
  3  4  1  0
  4  5  2  0
  6 16  1  0
  6  7  2  0
  8  4  1  0
  9 10  1  0
 10 11  2  0
 11 12  1  0
 13 14  1  0
 13 12  2  0
 15 14  1  1
 15 17  1  0
 16 15  1  0
 17 18  2  0
 19 13  1  0
 20 19  2  0
 20 10  1  0
 21 17  1  0
 21 22  1  0
 22 25  1  0
 22 23  1  6
 24 23  1  0
 25 27  1  0
 26 25  2  0
M  END
$$$$
