DYC.pdb
     RDKit          3D

 27 27  0  0  1  0  0  0  0  0999 V2000
    8.1170  -17.9210   18.4031 N   0  0  0  0  0  0  0  0  0  0  0  0
    7.9008  -19.3646   18.3871 C   0  0  1  0  0  0  0  0  0  0  0  0
    8.6763  -19.9686   17.2302 C   0  0  0  0  0  0  0  0  0  0  0  0
    9.8710  -19.1848   16.9003 C   0  0  0  0  0  0  0  0  0  0  0  0
   10.1574  -18.1417   17.5167 O   0  0  0  0  0  0  0  0  0  0  0  0
    8.2316  -19.9763   19.6915 C   0  0  0  0  0  0  0  0  0  0  0  0
    8.1213  -21.2193   19.8311 O   0  0  0  0  0  0  0  0  0  0  0  0
   10.6990  -19.6122   15.8802 O   0  0  0  0  0  0  0  0  0  0  0  0
   11.2872  -20.6348   28.1123 O   0  0  0  0  0  0  0  0  0  0  0  0
   10.9137  -20.2133   26.8424 C   0  0  0  0  0  0  0  0  0  0  0  0
    9.9501  -19.2330   26.7093 C   0  0  0  0  0  0  0  0  0  0  0  0
    9.5346  -18.7718   25.4806 C   0  0  0  0  0  0  0  0  0  0  0  0
   10.0923  -19.2974   24.3159 C   0  0  0  0  0  0  0  0  0  0  0  0
    9.5939  -18.7375   23.0423 C   0  0  0  0  0  0  0  0  0  0  0  0
    9.0228  -19.7738   22.0999 C   0  0  2  0  0  0  0  0  0  0  0  0
    8.6741  -19.2365   20.8173 N   0  0  0  0  0  0  0  0  0  0  0  0
    7.7975  -20.3067   22.7254 C   0  0  0  0  0  0  0  0  0  0  0  0
    6.8237  -19.5039   22.8490 O   0  0  0  0  0  0  0  0  0  0  0  0
   11.0504  -20.2715   24.4422 C   0  0  0  0  0  0  0  0  0  0  0  0
   11.4660  -20.7343   25.6943 C   0  0  0  0  0  0  0  0  0  0  0  0
    7.6211  -21.6248   23.1944 N   0  0  0  0  0  0  0  0  0  0  0  0
    6.4355  -21.9303   23.9619 C   0  0  1  0  0  0  0  0  0  0  0  0
    5.5849  -22.9943   23.3150 C   0  0  0  0  0  0  0  0  0  0  0  0
    5.1650  -22.4332   21.6266 S   0  0  0  0  0  0  0  0  0  0  0  0
    6.8595  -22.4143   25.3158 C   0  0  0  0  0  0  0  0  0  0  0  0
    8.0669  -22.5220   25.5564 O   0  0  0  0  0  0  0  0  0  0  0  0
    5.9160  -22.7393   26.2966 O   0  0  0  0  0  0  0  0  0  0  0  0
  2  1  1  1
  2  6  1  0
  3  2  1  0
  3  4  1  0
  4  5  2  0
  6 16  1  0
  6  7  2  0
  8  4  1  0
  9 10  1  0
 10 11  2  0
 11 12  1  0
 13 14  1  0
 13 12  2  0
 15 14  1  1
 15 17  1  0
 16 15  1  0
 17 18  2  0
 19 13  1  0
 20 19  2  0
 20 10  1  0
 21 17  1  0
 21 22  1  0
 22 25  1  0
 22 23  1  6
 24 23  1  0
 25 27  1  0
 26 25  2  0
M  END
$$$$
