DYC.pdb
     RDKit          3D

 27 27  0  0  1  0  0  0  0  0999 V2000
    9.6880  -18.6240   19.3802 N   0  0  0  0  0  0  0  0  0  0  0  0
   10.9192  -17.8587   19.5512 C   0  0  1  0  0  0  0  0  0  0  0  0
   11.2726  -17.1890   18.2355 C   0  0  0  0  0  0  0  0  0  0  0  0
   11.3767  -18.1552   17.1372 C   0  0  0  0  0  0  0  0  0  0  0  0
   10.7796  -19.2471   17.1704 O   0  0  0  0  0  0  0  0  0  0  0  0
   10.8139  -16.9078   20.6780 C   0  0  0  0  0  0  0  0  0  0  0  0
   11.7923  -16.1694   20.9503 O   0  0  0  0  0  0  0  0  0  0  0  0
   12.1569  -17.8483   16.0390 O   0  0  0  0  0  0  0  0  0  0  0  0
    7.2347  -12.2739   17.7798 O   0  0  0  0  0  0  0  0  0  0  0  0
    7.5078  -12.9221   18.9778 C   0  0  0  0  0  0  0  0  0  0  0  0
    6.9453  -14.1593   19.2230 C   0  0  0  0  0  0  0  0  0  0  0  0
    7.1747  -14.8536   20.3893 C   0  0  0  0  0  0  0  0  0  0  0  0
    8.0007  -14.3090   21.3716 C   0  0  0  0  0  0  0  0  0  0  0  0
    8.1984  -15.1268   22.5865 C   0  0  0  0  0  0  0  0  0  0  0  0
    9.5052  -15.8885   22.6057 C   0  0  2  0  0  0  0  0  0  0  0  0
    9.6575  -16.7726   21.4873 N   0  0  0  0  0  0  0  0  0  0  0  0
    9.5224  -16.6977   23.8391 C   0  0  0  0  0  0  0  0  0  0  0  0
    8.4357  -17.2634   24.1663 O   0  0  0  0  0  0  0  0  0  0  0  0
    8.5626  -13.0800   21.1331 C   0  0  0  0  0  0  0  0  0  0  0  0
    8.3236  -12.3817   19.9457 C   0  0  0  0  0  0  0  0  0  0  0  0
   10.6387  -16.8921   24.6785 N   0  0  0  0  0  0  0  0  0  0  0  0
   10.5079  -17.7913   25.8020 C   0  0  1  0  0  0  0  0  0  0  0  0
   10.9818  -19.1873   25.4851 C   0  0  0  0  0  0  0  0  0  0  0  0
   12.6304  -19.0610   24.7052 S   0  0  0  0  0  0  0  0  0  0  0  0
   11.3272  -17.2538   26.9366 C   0  0  0  0  0  0  0  0  0  0  0  0
   12.0992  -16.3139   26.7181 O   0  0  0  0  0  0  0  0  0  0  0  0
   11.2272  -17.7966   28.2223 O   0  0  0  0  0  0  0  0  0  0  0  0
  2  1  1  6
  2  6  1  0
  3  2  1  0
  3  4  1  0
  4  5  2  0
  6 16  1  0
  6  7  2  0
  8  4  1  0
  9 10  1  0
 10 11  2  0
 11 12  1  0
 13 14  1  0
 13 12  2  0
 15 14  1  6
 15 17  1  0
 16 15  1  0
 17 18  2  0
 19 13  1  0
 20 19  2  0
 20 10  1  0
 21 17  1  0
 21 22  1  0
 22 25  1  0
 22 23  1  6
 24 23  1  0
 25 27  1  0
 26 25  2  0
M  END
$$$$
