DYC.pdb
     RDKit          3D

 27 27  0  0  1  0  0  0  0  0999 V2000
   10.8915  -16.9333   18.8957 N   0  0  0  0  0  0  0  0  0  0  0  0
   10.1166  -17.5144   19.9878 C   0  0  1  0  0  0  0  0  0  0  0  0
   10.7169  -18.8578   20.3608 C   0  0  0  0  0  0  0  0  0  0  0  0
   10.7251  -19.7898   19.2286 C   0  0  0  0  0  0  0  0  0  0  0  0
   11.7176  -20.4965   18.9727 O   0  0  0  0  0  0  0  0  0  0  0  0
   10.0134  -16.5853   21.1329 C   0  0  0  0  0  0  0  0  0  0  0  0
   11.0311  -15.9466   21.4975 O   0  0  0  0  0  0  0  0  0  0  0  0
    9.6056  -19.8861   18.4246 O   0  0  0  0  0  0  0  0  0  0  0  0
    6.6712  -11.6469   27.6965 O   0  0  0  0  0  0  0  0  0  0  0  0
    6.7676  -12.5341   26.6318 C   0  0  0  0  0  0  0  0  0  0  0  0
    7.4579  -12.1584   25.4962 C   0  0  0  0  0  0  0  0  0  0  0  0
    7.5897  -12.9893   24.4067 C   0  0  0  0  0  0  0  0  0  0  0  0
    7.0151  -14.2595   24.4276 C   0  0  0  0  0  0  0  0  0  0  0  0
    7.2142  -15.0868   23.2194 C   0  0  0  0  0  0  0  0  0  0  0  0
    8.6552  -15.4771   22.9753 C   0  0  2  0  0  0  0  0  0  0  0  0
    8.8167  -16.3641   21.8606 N   0  0  0  0  0  0  0  0  0  0  0  0
    9.1331  -16.1682   24.1879 C   0  0  0  0  0  0  0  0  0  0  0  0
    8.8028  -17.3855   24.3193 O   0  0  0  0  0  0  0  0  0  0  0  0
    6.3282  -14.6382   25.5534 C   0  0  0  0  0  0  0  0  0  0  0  0
    6.1990  -13.7873   26.6553 C   0  0  0  0  0  0  0  0  0  0  0  0
    9.9204  -15.5914   25.2058 N   0  0  0  0  0  0  0  0  0  0  0  0
   10.3408  -16.4257   26.3081 C   0  0  1  0  0  0  0  0  0  0  0  0
   11.2526  -15.7026   27.2671 C   0  0  0  0  0  0  0  0  0  0  0  0
   11.5643  -16.8057   28.6912 S   0  0  0  0  0  0  0  0  0  0  0  0
    9.1206  -16.8746   27.0544 C   0  0  0  0  0  0  0  0  0  0  0  0
    8.2404  -16.0447   27.3069 O   0  0  0  0  0  0  0  0  0  0  0  0
    8.9694  -18.2049   27.4610 O   0  0  0  0  0  0  0  0  0  0  0  0
  2  1  1  6
  2  6  1  0
  3  2  1  0
  3  4  1  0
  4  5  2  0
  6 16  1  0
  6  7  2  0
  8  4  1  0
  9 10  1  0
 10 11  2  0
 11 12  1  0
 13 14  1  0
 13 12  2  0
 15 14  1  1
 15 17  1  0
 16 15  1  0
 17 18  2  0
 19 13  1  0
 20 19  2  0
 20 10  1  0
 21 17  1  0
 21 22  1  0
 22 25  1  0
 22 23  1  1
 24 23  1  0
 25 27  1  0
 26 25  2  0
M  END
$$$$
