DYC.pdb
     RDKit          3D

 27 27  0  0  1  0  0  0  0  0999 V2000
   10.4891  -17.2227   18.9332 N   0  0  0  0  0  0  0  0  0  0  0  0
    9.5015  -17.5845   19.9454 C   0  0  1  0  0  0  0  0  0  0  0  0
    9.6790  -19.0474   20.3098 C   0  0  0  0  0  0  0  0  0  0  0  0
    9.3689  -19.9358   19.1851 C   0  0  0  0  0  0  0  0  0  0  0  0
    9.3409  -19.5182   18.0126 O   0  0  0  0  0  0  0  0  0  0  0  0
    9.5678  -16.6818   21.1140 C   0  0  0  0  0  0  0  0  0  0  0  0
   10.6853  -16.2556   21.4966 O   0  0  0  0  0  0  0  0  0  0  0  0
    9.0996  -21.2685   19.4310 O   0  0  0  0  0  0  0  0  0  0  0  0
    6.7935  -11.7684   28.0908 O   0  0  0  0  0  0  0  0  0  0  0  0
    6.8932  -12.4854   26.9050 C   0  0  0  0  0  0  0  0  0  0  0  0
    6.3392  -13.7480   26.8273 C   0  0  0  0  0  0  0  0  0  0  0  0
    6.4039  -14.5106   25.6831 C   0  0  0  0  0  0  0  0  0  0  0  0
    7.0456  -14.0116   24.5504 C   0  0  0  0  0  0  0  0  0  0  0  0
    7.0593  -14.8940   23.3650 C   0  0  0  0  0  0  0  0  0  0  0  0
    8.4340  -15.4111   23.0028 C   0  0  2  0  0  0  0  0  0  0  0  0
    8.4297  -16.2574   21.8455 N   0  0  0  0  0  0  0  0  0  0  0  0
    8.9212  -16.2007   24.1498 C   0  0  0  0  0  0  0  0  0  0  0  0
    8.3623  -17.3211   24.3506 O   0  0  0  0  0  0  0  0  0  0  0  0
    7.5977  -12.7574   24.6219 C   0  0  0  0  0  0  0  0  0  0  0  0
    7.5276  -11.9901   25.7885 C   0  0  0  0  0  0  0  0  0  0  0  0
    9.9488  -15.8151   25.0352 N   0  0  0  0  0  0  0  0  0  0  0  0
   10.3802  -16.7573   26.0423 C   0  0  1  0  0  0  0  0  0  0  0  0
   11.8760  -16.9474   26.0550 C   0  0  0  0  0  0  0  0  0  0  0  0
   12.3657  -17.6841   24.4551 S   0  0  0  0  0  0  0  0  0  0  0  0
    9.9516  -16.2451   27.3844 C   0  0  0  0  0  0  0  0  0  0  0  0
    9.3662  -15.1584   27.4458 O   0  0  0  0  0  0  0  0  0  0  0  0
   10.2026  -16.9748   28.5516 O   0  0  0  0  0  0  0  0  0  0  0  0
  2  1  1  6
  2  6  1  0
  3  2  1  0
  3  4  1  0
  4  5  2  0
  6 16  1  0
  6  7  2  0
  8  4  1  0
  9 10  1  0
 10 11  2  0
 11 12  1  0
 13 14  1  0
 13 12  2  0
 15 14  1  1
 15 17  1  0
 16 15  1  0
 17 18  2  0
 19 13  1  0
 20 19  2  0
 20 10  1  0
 21 17  1  0
 21 22  1  0
 22 25  1  0
 22 23  1  1
 24 23  1  0
 25 27  1  0
 26 25  2  0
M  END
$$$$
