DMR.pdb
     RDKit          3D

 28 27  0  0  1  0  0  0  0  0999 V2000
   23.4415  -28.7186  -16.3012 N   0  0  0  0  0  0  0  0  0  0  0  0
   22.6594  -27.5989  -16.7138 C   0  0  1  0  0  0  0  0  0  0  0  0
   21.6555  -28.0326  -17.7361 C   0  0  0  0  0  0  0  0  0  0  0  0
   20.5331  -28.7939  -17.1699 C   0  0  0  0  0  0  0  0  0  0  0  0
   19.5415  -28.2448  -16.6312 O   0  0  0  0  0  0  0  0  0  0  0  0
   22.0578  -26.8566  -15.5891 C   0  0  0  0  0  0  0  0  0  0  0  0
   22.1993  -27.2294  -14.3737 O   0  0  0  0  0  0  0  0  0  0  0  0
   20.5582  -30.1779  -17.2265 O   0  0  0  0  0  0  0  0  0  0  0  0
   21.1684  -20.1240  -12.4972 C   0  0  0  0  0  0  0  0  0  0  0  0
   21.8286  -21.4096  -13.5799 S   0  0  0  0  0  0  0  0  0  0  0  0
   20.5091  -22.3158  -14.4207 C   0  0  0  0  0  0  0  0  0  0  0  0
   20.9883  -23.4656  -15.2056 C   0  0  0  0  0  0  0  0  0  0  0  0
   20.7794  -24.8444  -14.7051 C   0  0  2  0  0  0  0  0  0  0  0  0
   21.3007  -25.7037  -15.8079 N   0  0  0  0  0  0  0  0  0  0  0  0
   19.4585  -25.2665  -14.3021 C   0  0  0  0  0  0  0  0  0  0  0  0
   18.5269  -25.4297  -15.1720 O   0  0  0  0  0  0  0  0  0  0  0  0
   17.5719  -24.7070   -6.0651 N   0  0  0  0  0  0  0  0  0  0  0  0
   18.2458  -25.8932   -6.4404 C   0  0  0  0  0  0  0  0  0  0  0  0
   18.6966  -26.7440   -5.5629 N   0  0  0  0  0  0  0  0  0  0  0  0
   18.4738  -26.2327   -7.8149 N   0  0  0  0  0  0  0  0  0  0  0  0
   17.7495  -25.5727   -8.8562 C   0  0  0  0  0  0  0  0  0  0  0  0
   18.1088  -26.0911  -10.2322 C   0  0  0  0  0  0  0  0  0  0  0  0
   17.3424  -25.3418  -11.2924 C   0  0  0  0  0  0  0  0  0  0  0  0
   17.6640  -25.9194  -12.6887 C   0  0  2  0  0  0  0  0  0  0  0  0
   19.0499  -25.5520  -12.9501 N   0  0  0  0  0  0  0  0  0  0  0  0
   16.7733  -25.2725  -13.6589 C   0  0  0  0  0  0  0  0  0  0  0  0
   16.5251  -23.9205  -13.7512 O   0  0  0  0  0  0  0  0  0  0  0  0
   16.1738  -26.0341  -14.4901 O   0  0  0  0  0  0  0  0  0  0  0  0
  2  1  1  1
  2  3  1  0
  3  4  1  0
  4  8  1  0
  5  4  2  0
  6  2  1  0
  7  6  2  0
  9 10  1  0
 10 11  1  0
 11 12  1  0
 13 12  1  6
 13 14  1  0
 14  6  1  0
 15 25  1  0
 15 13  1  0
 16 15  2  0
 18 17  1  0
 18 19  2  0
 20 18  1  0
 21 20  1  0
 21 22  1  0
 23 22  1  0
 24 23  1  1
 24 25  1  0
 26 27  1  0
 26 24  1  0
 28 26  2  0
M  END
$$$$
