DMR.pdb
     RDKit          3D

 28 27  0  0  1  0  0  0  0  0999 V2000
   29.3859  -19.8393  -17.5169 N   0  0  0  0  0  0  0  0  0  0  0  0
   28.6540  -19.1155  -16.5290 C   0  0  1  0  0  0  0  0  0  0  0  0
   27.5516  -18.3417  -17.1824 C   0  0  0  0  0  0  0  0  0  0  0  0
   28.0279  -17.3582  -18.1652 C   0  0  0  0  0  0  0  0  0  0  0  0
   27.3641  -17.0335  -19.1794 O   0  0  0  0  0  0  0  0  0  0  0  0
   28.1871  -19.9574  -15.4102 C   0  0  0  0  0  0  0  0  0  0  0  0
   27.1032  -20.6337  -15.4731 O   0  0  0  0  0  0  0  0  0  0  0  0
   29.2612  -16.7563  -17.9758 O   0  0  0  0  0  0  0  0  0  0  0  0
   32.4717  -22.3776  -11.1284 C   0  0  0  0  0  0  0  0  0  0  0  0
   31.2312  -21.6515  -10.0355 S   0  0  0  0  0  0  0  0  0  0  0  0
   29.6262  -21.5022  -10.8547 C   0  0  0  0  0  0  0  0  0  0  0  0
   29.7096  -20.9782  -12.2281 C   0  0  0  0  0  0  0  0  0  0  0  0
   28.4877  -20.8807  -13.0605 C   0  0  2  0  0  0  0  0  0  0  0  0
   28.9177  -20.0511  -14.2238 N   0  0  0  0  0  0  0  0  0  0  0  0
   27.2680  -20.3671  -12.4828 C   0  0  0  0  0  0  0  0  0  0  0  0
   27.1088  -19.1055  -12.2981 O   0  0  0  0  0  0  0  0  0  0  0  0
   19.4384  -19.7435  -10.0773 N   0  0  0  0  0  0  0  0  0  0  0  0
   19.5018  -19.3394  -11.4318 C   0  0  0  0  0  0  0  0  0  0  0  0
   18.7187  -18.4201  -11.9204 N   0  0  0  0  0  0  0  0  0  0  0  0
   20.4359  -19.9191  -12.3526 N   0  0  0  0  0  0  0  0  0  0  0  0
   21.2782  -21.0015  -11.9484 C   0  0  0  0  0  0  0  0  0  0  0  0
   22.5485  -20.5286  -11.2745 C   0  0  0  0  0  0  0  0  0  0  0  0
   23.7563  -20.9705  -12.0612 C   0  0  0  0  0  0  0  0  0  0  0  0
   25.0500  -20.5298  -11.3411 C   0  0  2  0  0  0  0  0  0  0  0  0
   26.1376  -21.1629  -12.0762 N   0  0  0  0  0  0  0  0  0  0  0  0
   24.9968  -21.0425   -9.9673 C   0  0  0  0  0  0  0  0  0  0  0  0
   24.4842  -20.3761   -8.8758 O   0  0  0  0  0  0  0  0  0  0  0  0
   25.4709  -22.2112   -9.7679 O   0  0  0  0  0  0  0  0  0  0  0  0
  2  1  1  6
  2  3  1  0
  3  4  1  0
  4  8  1  0
  5  4  2  0
  6  2  1  0
  7  6  2  0
  9 10  1  0
 10 11  1  0
 11 12  1  0
 13 12  1  1
 13 14  1  0
 14  6  1  0
 15 25  1  0
 15 13  1  0
 16 15  2  0
 18 17  1  0
 18 19  2  0
 20 18  1  0
 21 20  1  0
 21 22  1  0
 23 22  1  0
 24 23  1  6
 24 25  1  0
 26 27  1  0
 26 24  1  0
 28 26  2  0
M  END
$$$$
