DMR.pdb
     RDKit          3D

 28 27  0  0  1  0  0  0  0  0999 V2000
   28.0305  -19.8362  -12.7538 N   0  0  0  0  0  0  0  0  0  0  0  0
   26.8187  -20.5616  -12.9560 C   0  0  1  0  0  0  0  0  0  0  0  0
   27.0535  -21.6784  -13.9248 C   0  0  0  0  0  0  0  0  0  0  0  0
   27.4680  -21.2206  -15.2585 C   0  0  0  0  0  0  0  0  0  0  0  0
   27.6296  -20.0089  -15.5421 O   0  0  0  0  0  0  0  0  0  0  0  0
   26.1848  -21.0074  -11.7000 C   0  0  0  0  0  0  0  0  0  0  0  0
   25.3664  -21.9898  -11.6615 O   0  0  0  0  0  0  0  0  0  0  0  0
   27.6933  -22.1566  -16.2546 O   0  0  0  0  0  0  0  0  0  0  0  0
   27.8052  -19.0723   -5.3553 C   0  0  0  0  0  0  0  0  0  0  0  0
   28.8935  -19.6374   -6.6809 S   0  0  0  0  0  0  0  0  0  0  0  0
   27.9882  -20.5792   -7.9310 C   0  0  0  0  0  0  0  0  0  0  0  0
   26.6239  -20.0816   -8.1735 C   0  0  0  0  0  0  0  0  0  0  0  0
   25.7748  -20.7180   -9.2075 C   0  0  2  0  0  0  0  0  0  0  0  0
   26.4553  -20.3679  -10.4884 N   0  0  0  0  0  0  0  0  0  0  0  0
   24.3665  -20.4047   -9.2686 C   0  0  0  0  0  0  0  0  0  0  0  0
   23.9618  -19.2930   -9.7702 O   0  0  0  0  0  0  0  0  0  0  0  0
   18.1783  -23.4929  -13.0394 N   0  0  0  0  0  0  0  0  0  0  0  0
   18.2133  -22.0891  -13.2125 C   0  0  0  0  0  0  0  0  0  0  0  0
   17.1742  -21.4115  -13.6104 N   0  0  0  0  0  0  0  0  0  0  0  0
   19.3991  -21.3236  -12.9588 N   0  0  0  0  0  0  0  0  0  0  0  0
   20.5908  -21.9624  -12.4936 C   0  0  0  0  0  0  0  0  0  0  0  0
   20.7270  -21.9110  -10.9869 C   0  0  0  0  0  0  0  0  0  0  0  0
   21.7497  -20.8779  -10.5870 C   0  0  0  0  0  0  0  0  0  0  0  0
   21.9188  -20.8643   -9.0514 C   0  0  2  0  0  0  0  0  0  0  0  0
   23.3008  -21.2595   -8.8104 N   0  0  0  0  0  0  0  0  0  0  0  0
   20.9984  -21.8589   -8.4889 C   0  0  0  0  0  0  0  0  0  0  0  0
   21.3608  -23.0248   -7.8504 O   0  0  0  0  0  0  0  0  0  0  0  0
   19.7493  -21.6209   -8.6048 O   0  0  0  0  0  0  0  0  0  0  0  0
  2  1  1  1
  2  3  1  0
  3  4  1  0
  4  8  1  0
  5  4  2  0
  6  2  1  0
  7  6  2  0
  9 10  1  0
 10 11  1  0
 11 12  1  0
 13 12  1  1
 13 14  1  0
 14  6  1  0
 15 25  1  0
 15 13  1  0
 16 15  2  0
 18 17  1  0
 18 19  2  0
 20 18  1  0
 21 20  1  0
 21 22  1  0
 23 22  1  0
 24 23  1  6
 24 25  1  0
 26 27  1  0
 26 24  1  0
 28 26  2  0
M  END
$$$$
