DMR.pdb
     RDKit          3D

 28 27  0  0  1  0  0  0  0  0999 V2000
   28.7553  -20.8585  -15.4955 N   0  0  0  0  0  0  0  0  0  0  0  0
   28.0022  -20.0120  -14.6284 C   0  0  1  0  0  0  0  0  0  0  0  0
   27.1603  -19.0774  -15.4401 C   0  0  0  0  0  0  0  0  0  0  0  0
   27.9428  -18.1903  -16.3123 C   0  0  0  0  0  0  0  0  0  0  0  0
   28.6870  -17.2828  -15.8680 O   0  0  0  0  0  0  0  0  0  0  0  0
   27.2307  -20.7515  -13.6106 C   0  0  0  0  0  0  0  0  0  0  0  0
   26.6800  -21.8789  -13.8597 O   0  0  0  0  0  0  0  0  0  0  0  0
   27.8647  -18.3522  -17.6859 O   0  0  0  0  0  0  0  0  0  0  0  0
   28.2651  -19.6842   -7.5061 C   0  0  0  0  0  0  0  0  0  0  0  0
   26.4805  -19.8870   -7.3203 S   0  0  0  0  0  0  0  0  0  0  0  0
   25.7198  -20.5179   -8.8345 C   0  0  0  0  0  0  0  0  0  0  0  0
   26.5057  -20.2453  -10.0493 C   0  0  0  0  0  0  0  0  0  0  0  0
   26.0454  -20.7574  -11.3612 C   0  0  2  0  0  0  0  0  0  0  0  0
   27.0683  -20.2452  -12.3193 N   0  0  0  0  0  0  0  0  0  0  0  0
   24.7104  -20.4524  -11.8195 C   0  0  0  0  0  0  0  0  0  0  0  0
   24.4225  -19.2859  -12.2750 O   0  0  0  0  0  0  0  0  0  0  0  0
   21.8156  -25.3330  -17.2577 N   0  0  0  0  0  0  0  0  0  0  0  0
   22.3833  -25.4312  -15.9654 C   0  0  0  0  0  0  0  0  0  0  0  0
   22.7763  -26.5671  -15.4632 N   0  0  0  0  0  0  0  0  0  0  0  0
   22.5618  -24.2817  -15.1268 N   0  0  0  0  0  0  0  0  0  0  0  0
   22.3545  -22.9651  -15.6447 C   0  0  0  0  0  0  0  0  0  0  0  0
   22.7292  -21.8850  -14.6526 C   0  0  0  0  0  0  0  0  0  0  0  0
   21.9136  -22.0235  -13.3923 C   0  0  0  0  0  0  0  0  0  0  0  0
   22.3211  -20.9361  -12.3734 C   0  0  2  0  0  0  0  0  0  0  0  0
   23.6019  -21.3729  -11.8321 N   0  0  0  0  0  0  0  0  0  0  0  0
   21.3040  -20.9067  -11.3162 C   0  0  0  0  0  0  0  0  0  0  0  0
   21.4990  -21.2558   -9.9978 O   0  0  0  0  0  0  0  0  0  0  0  0
   20.1328  -20.5245  -11.6518 O   0  0  0  0  0  0  0  0  0  0  0  0
  2  1  1  6
  2  3  1  0
  3  4  1  0
  4  8  1  0
  5  4  2  0
  6  2  1  0
  7  6  2  0
  9 10  1  0
 10 11  1  0
 11 12  1  0
 13 12  1  1
 13 14  1  0
 14  6  1  0
 15 25  1  0
 15 13  1  0
 16 15  2  0
 18 17  1  0
 18 19  2  0
 20 18  1  0
 21 20  1  0
 21 22  1  0
 23 22  1  0
 24 23  1  6
 24 25  1  0
 26 27  1  0
 26 24  1  0
 28 26  2  0
M  END
$$$$
