DMR.pdb
     RDKit          3D

 28 27  0  0  1  0  0  0  0  0999 V2000
   18.3229  -32.4983   -0.8711 N   0  0  0  0  0  0  0  0  0  0  0  0
   18.8185  -31.2907   -1.4470 C   0  0  1  0  0  0  0  0  0  0  0  0
   18.8562  -31.4198   -2.9379 C   0  0  0  0  0  0  0  0  0  0  0  0
   19.8996  -32.3352   -3.4212 C   0  0  0  0  0  0  0  0  0  0  0  0
   20.7224  -32.8938   -2.6559 O   0  0  0  0  0  0  0  0  0  0  0  0
   18.1031  -30.0844   -0.9875 C   0  0  0  0  0  0  0  0  0  0  0  0
   16.8260  -30.0245   -0.9457 O   0  0  0  0  0  0  0  0  0  0  0  0
   19.9897  -32.6014   -4.7778 O   0  0  0  0  0  0  0  0  0  0  0  0
   20.4822  -25.8066    3.6771 C   0  0  0  0  0  0  0  0  0  0  0  0
   20.2848  -24.9373    2.1067 S   0  0  0  0  0  0  0  0  0  0  0  0
   18.9186  -25.6159    1.1359 C   0  0  0  0  0  0  0  0  0  0  0  0
   19.1818  -26.9642    0.6062 C   0  0  0  0  0  0  0  0  0  0  0  0
   18.1256  -27.6874   -0.1399 C   0  0  2  0  0  0  0  0  0  0  0  0
   18.7988  -28.9459   -0.5750 N   0  0  0  0  0  0  0  0  0  0  0  0
   17.4669  -27.0433   -1.2518 C   0  0  0  0  0  0  0  0  0  0  0  0
   18.0987  -26.8148   -2.3472 O   0  0  0  0  0  0  0  0  0  0  0  0
   11.9108  -24.4665   -5.8001 N   0  0  0  0  0  0  0  0  0  0  0  0
   11.3661  -25.7559   -6.0070 C   0  0  0  0  0  0  0  0  0  0  0  0
   10.8476  -26.1170   -7.1462 N   0  0  0  0  0  0  0  0  0  0  0  0
   11.3523  -26.7477   -4.9714 N   0  0  0  0  0  0  0  0  0  0  0  0
   11.9418  -26.4763   -3.6973 C   0  0  0  0  0  0  0  0  0  0  0  0
   13.4475  -26.3404   -3.7710 C   0  0  0  0  0  0  0  0  0  0  0  0
   14.0278  -26.1698   -2.3901 C   0  0  0  0  0  0  0  0  0  0  0  0
   15.5595  -25.9882   -2.4760 C   0  0  2  0  0  0  0  0  0  0  0  0
   16.0919  -26.6126   -1.2715 N   0  0  0  0  0  0  0  0  0  0  0  0
   15.8425  -24.5485   -2.4717 C   0  0  0  0  0  0  0  0  0  0  0  0
   16.1259  -23.7842   -1.3609 O   0  0  0  0  0  0  0  0  0  0  0  0
   15.8215  -23.9522   -3.6006 O   0  0  0  0  0  0  0  0  0  0  0  0
  2  1  1  1
  2  3  1  0
  3  4  1  0
  4  8  1  0
  5  4  2  0
  6  2  1  0
  7  6  2  0
  9 10  1  0
 10 11  1  0
 11 12  1  0
 13 12  1  6
 13 14  1  0
 14  6  1  0
 15 25  1  0
 15 13  1  0
 16 15  2  0
 18 17  1  0
 18 19  2  0
 20 18  1  0
 21 20  1  0
 21 22  1  0
 23 22  1  0
 24 23  1  1
 24 25  1  0
 26 27  1  0
 26 24  1  0
 28 26  2  0
M  END
$$$$
