DMR.pdb
     RDKit          3D

 28 27  0  0  1  0  0  0  0  0999 V2000
   28.2403  -20.4865  -16.8659 N   0  0  0  0  0  0  0  0  0  0  0  0
   27.6874  -21.7972  -16.7566 C   0  0  1  0  0  0  0  0  0  0  0  0
   28.7813  -22.8159  -16.8376 C   0  0  0  0  0  0  0  0  0  0  0  0
   29.4440  -22.8620  -18.1486 C   0  0  0  0  0  0  0  0  0  0  0  0
   29.1500  -22.0827  -19.0873 O   0  0  0  0  0  0  0  0  0  0  0  0
   26.8192  -21.9715  -15.5759 C   0  0  0  0  0  0  0  0  0  0  0  0
   26.2653  -23.0903  -15.2971 O   0  0  0  0  0  0  0  0  0  0  0  0
   30.4376  -23.8014  -18.3710 O   0  0  0  0  0  0  0  0  0  0  0  0
   24.9025  -20.7977   -8.5508 C   0  0  0  0  0  0  0  0  0  0  0  0
   25.7137  -21.1911  -10.1153 S   0  0  0  0  0  0  0  0  0  0  0  0
   25.7141  -19.7759  -11.2406 C   0  0  0  0  0  0  0  0  0  0  0  0
   26.3497  -20.0530  -12.5395 C   0  0  0  0  0  0  0  0  0  0  0  0
   25.7533  -21.0494  -13.4598 C   0  0  2  0  0  0  0  0  0  0  0  0
   26.5638  -20.9103  -14.7048 N   0  0  0  0  0  0  0  0  0  0  0  0
   24.3408  -20.9951  -13.7545 C   0  0  0  0  0  0  0  0  0  0  0  0
   23.8603  -20.0649  -14.4996 O   0  0  0  0  0  0  0  0  0  0  0  0
   16.3328  -25.0961  -12.9860 N   0  0  0  0  0  0  0  0  0  0  0  0
   16.8572  -24.9903  -14.2960 C   0  0  0  0  0  0  0  0  0  0  0  0
   16.1630  -25.3108  -15.3507 N   0  0  0  0  0  0  0  0  0  0  0  0
   18.1897  -24.5215  -14.5433 N   0  0  0  0  0  0  0  0  0  0  0  0
   19.0821  -24.2619  -13.4566 C   0  0  0  0  0  0  0  0  0  0  0  0
   19.7590  -22.9129  -13.5705 C   0  0  0  0  0  0  0  0  0  0  0  0
   21.2383  -23.0438  -13.3111 C   0  0  0  0  0  0  0  0  0  0  0  0
   21.9480  -21.7006  -13.5916 C   0  0  2  0  0  0  0  0  0  0  0  0
   23.3535  -21.9334  -13.2842 N   0  0  0  0  0  0  0  0  0  0  0  0
   21.3863  -20.6966  -12.6809 C   0  0  0  0  0  0  0  0  0  0  0  0
   20.4688  -19.7251  -13.0164 O   0  0  0  0  0  0  0  0  0  0  0  0
   21.7874  -20.7270  -11.4690 O   0  0  0  0  0  0  0  0  0  0  0  0
  2  1  1  1
  2  3  1  0
  3  4  1  0
  4  8  1  0
  5  4  2  0
  6  2  1  0
  7  6  2  0
  9 10  1  0
 10 11  1  0
 11 12  1  0
 13 12  1  1
 13 14  1  0
 14  6  1  0
 15 25  1  0
 15 13  1  0
 16 15  2  0
 18 17  1  0
 18 19  2  0
 20 18  1  0
 21 20  1  0
 21 22  1  0
 23 22  1  0
 24 23  1  1
 24 25  1  0
 26 27  1  0
 26 24  1  0
 28 26  2  0
M  END
$$$$
