DMR.pdb
     RDKit          3D

 28 27  0  0  1  0  0  0  0  0999 V2000
   18.6066  -27.8758  -10.1984 N   0  0  0  0  0  0  0  0  0  0  0  0
   18.6718  -26.6819   -9.4200 C   0  0  1  0  0  0  0  0  0  0  0  0
   18.5763  -25.4874  -10.3172 C   0  0  0  0  0  0  0  0  0  0  0  0
   19.6829  -25.3862  -11.2790 C   0  0  0  0  0  0  0  0  0  0  0  0
   20.6217  -26.2177  -11.3261 O   0  0  0  0  0  0  0  0  0  0  0  0
   17.7007  -26.6517   -8.3090 C   0  0  0  0  0  0  0  0  0  0  0  0
   16.4501  -26.8486   -8.4922 O   0  0  0  0  0  0  0  0  0  0  0  0
   19.7029  -24.3323  -12.1780 O   0  0  0  0  0  0  0  0  0  0  0  0
   19.9983  -27.9468   -2.6842 C   0  0  0  0  0  0  0  0  0  0  0  0
   18.5551  -27.0898   -2.0182 S   0  0  0  0  0  0  0  0  0  0  0  0
   17.3996  -26.6147   -3.3252 C   0  0  0  0  0  0  0  0  0  0  0  0
   17.9900  -26.6377   -4.6739 C   0  0  0  0  0  0  0  0  0  0  0  0
   17.1643  -26.2817   -5.8514 C   0  0  2  0  0  0  0  0  0  0  0  0
   18.1118  -26.4040   -6.9976 N   0  0  0  0  0  0  0  0  0  0  0  0
   16.4751  -25.0132   -5.8844 C   0  0  0  0  0  0  0  0  0  0  0  0
   17.1286  -23.9133   -6.0048 O   0  0  0  0  0  0  0  0  0  0  0  0
   12.4234  -21.4958  -11.7483 N   0  0  0  0  0  0  0  0  0  0  0  0
   13.7748  -21.7613  -11.4238 C   0  0  0  0  0  0  0  0  0  0  0  0
   14.6935  -21.9054  -12.3360 N   0  0  0  0  0  0  0  0  0  0  0  0
   14.2171  -21.8877  -10.0655 N   0  0  0  0  0  0  0  0  0  0  0  0
   13.3193  -21.6329   -8.9822 C   0  0  0  0  0  0  0  0  0  0  0  0
   13.9671  -21.8403   -7.6299 C   0  0  0  0  0  0  0  0  0  0  0  0
   13.9266  -23.2977   -7.2460 C   0  0  0  0  0  0  0  0  0  0  0  0
   14.4952  -23.4882   -5.8223 C   0  0  2  0  0  0  0  0  0  0  0  0
   15.0473  -24.8369   -5.8029 N   0  0  0  0  0  0  0  0  0  0  0  0
   13.3802  -23.3799   -4.8747 C   0  0  0  0  0  0  0  0  0  0  0  0
   12.7129  -22.2214   -4.5416 O   0  0  0  0  0  0  0  0  0  0  0  0
   12.9971  -24.4578   -4.3075 O   0  0  0  0  0  0  0  0  0  0  0  0
  2  1  1  6
  2  3  1  0
  3  4  1  0
  4  8  1  0
  5  4  2  0
  6  2  1  0
  7  6  2  0
  9 10  1  0
 10 11  1  0
 11 12  1  0
 13 12  1  1
 13 14  1  0
 14  6  1  0
 15 25  1  0
 15 13  1  0
 16 15  2  0
 18 17  1  0
 18 19  2  0
 20 18  1  0
 21 20  1  0
 21 22  1  0
 23 22  1  0
 24 23  1  6
 24 25  1  0
 26 27  1  0
 26 24  1  0
 28 26  2  0
M  END
$$$$
