DMR.pdb
     RDKit          3D

 28 27  0  0  1  0  0  0  0  0999 V2000
   26.2835  -14.2981  -18.2582 N   0  0  0  0  0  0  0  0  0  0  0  0
   26.3155  -13.3088  -19.2857 C   0  0  1  0  0  0  0  0  0  0  0  0
   25.0258  -13.3269  -20.0454 C   0  0  0  0  0  0  0  0  0  0  0  0
   24.7579  -14.6070  -20.7160 C   0  0  0  0  0  0  0  0  0  0  0  0
   25.4921  -15.6151  -20.5761 O   0  0  0  0  0  0  0  0  0  0  0  0
   26.6810  -11.9654  -18.7959 C   0  0  0  0  0  0  0  0  0  0  0  0
   26.0752  -11.4098  -17.8158 O   0  0  0  0  0  0  0  0  0  0  0  0
   23.6506  -14.7191  -21.5409 O   0  0  0  0  0  0  0  0  0  0  0  0
   31.8607   -7.2382  -16.5513 C   0  0  0  0  0  0  0  0  0  0  0  0
   30.8178   -8.6759  -16.8770 S   0  0  0  0  0  0  0  0  0  0  0  0
   30.5709   -8.9329  -18.6496 C   0  0  0  0  0  0  0  0  0  0  0  0
   29.7011  -10.0780  -18.9659 C   0  0  0  0  0  0  0  0  0  0  0  0
   28.2305   -9.9500  -18.8387 C   0  0  2  0  0  0  0  0  0  0  0  0
   27.7147  -11.2374  -19.3890 N   0  0  0  0  0  0  0  0  0  0  0  0
   27.5559   -8.8241  -19.4407 C   0  0  0  0  0  0  0  0  0  0  0  0
   27.5771   -8.6492  -20.7136 O   0  0  0  0  0  0  0  0  0  0  0  0
   20.8882   -8.3512  -16.6827 N   0  0  0  0  0  0  0  0  0  0  0  0
   21.9886   -7.6528  -16.1319 C   0  0  0  0  0  0  0  0  0  0  0  0
   22.3067   -7.7396  -14.8716 N   0  0  0  0  0  0  0  0  0  0  0  0
   22.8242   -6.8041  -16.9306 N   0  0  0  0  0  0  0  0  0  0  0  0
   22.6320   -6.7181  -18.3449 C   0  0  0  0  0  0  0  0  0  0  0  0
   23.8763   -7.0874  -19.1237 C   0  0  0  0  0  0  0  0  0  0  0  0
   25.0352   -6.2187  -18.7051 C   0  0  0  0  0  0  0  0  0  0  0  0
   26.3191   -6.6515  -19.4472 C   0  0  2  0  0  0  0  0  0  0  0  0
   26.8074   -7.8207  -18.7270 N   0  0  0  0  0  0  0  0  0  0  0  0
   27.2863   -5.5524  -19.3509 C   0  0  0  0  0  0  0  0  0  0  0  0
   27.2878   -4.4081  -20.1183 O   0  0  0  0  0  0  0  0  0  0  0  0
   28.2102   -5.6707  -18.4775 O   0  0  0  0  0  0  0  0  0  0  0  0
  2  1  1  1
  2  3  1  0
  3  4  1  0
  4  8  1  0
  5  4  2  0
  6  2  1  0
  7  6  2  0
  9 10  1  0
 10 11  1  0
 11 12  1  0
 13 12  1  6
 13 14  1  0
 14  6  1  0
 15 25  1  0
 15 13  1  0
 16 15  2  0
 18 17  1  0
 18 19  2  0
 20 18  1  0
 21 20  1  0
 21 22  1  0
 23 22  1  0
 24 23  1  1
 24 25  1  0
 26 27  1  0
 26 24  1  0
 28 26  2  0
M  END
$$$$
