DMR.pdb
     RDKit          3D

 28 27  0  0  1  0  0  0  0  0999 V2000
   21.7207  -21.6438   -8.6702 N   0  0  0  0  0  0  0  0  0  0  0  0
   21.6983  -21.2321  -10.0361 C   0  0  1  0  0  0  0  0  0  0  0  0
   20.5418  -20.3101  -10.2674 C   0  0  0  0  0  0  0  0  0  0  0  0
   19.2678  -21.0101  -10.4843 C   0  0  0  0  0  0  0  0  0  0  0  0
   19.1771  -22.2611  -10.5243 O   0  0  0  0  0  0  0  0  0  0  0  0
   22.9839  -20.6780  -10.5034 C   0  0  0  0  0  0  0  0  0  0  0  0
   23.0485  -19.7825  -11.4145 O   0  0  0  0  0  0  0  0  0  0  0  0
   18.1097  -20.2690  -10.6534 O   0  0  0  0  0  0  0  0  0  0  0  0
   27.6785  -19.3169   -5.3544 C   0  0  0  0  0  0  0  0  0  0  0  0
   27.6533  -20.4531   -6.7576 S   0  0  0  0  0  0  0  0  0  0  0  0
   26.4797  -19.9205   -8.0259 C   0  0  0  0  0  0  0  0  0  0  0  0
   26.3778  -20.8484   -9.1646 C   0  0  0  0  0  0  0  0  0  0  0  0
   25.5144  -20.5122  -10.3207 C   0  0  2  0  0  0  0  0  0  0  0  0
   24.1962  -21.1135   -9.9642 N   0  0  0  0  0  0  0  0  0  0  0  0
   25.9170  -20.9026  -11.6513 C   0  0  0  0  0  0  0  0  0  0  0  0
   25.9925  -22.1432  -11.9776 O   0  0  0  0  0  0  0  0  0  0  0  0
   25.6046  -16.8301  -19.5425 N   0  0  0  0  0  0  0  0  0  0  0  0
   25.5621  -18.2291  -19.7504 C   0  0  0  0  0  0  0  0  0  0  0  0
   25.2167  -18.7520  -20.8924 N   0  0  0  0  0  0  0  0  0  0  0  0
   25.8985  -19.1599  -18.7128 N   0  0  0  0  0  0  0  0  0  0  0  0
   26.2695  -18.6956  -17.4123 C   0  0  0  0  0  0  0  0  0  0  0  0
   26.5297  -19.8289  -16.4432 C   0  0  0  0  0  0  0  0  0  0  0  0
   26.2231  -19.3946  -15.0324 C   0  0  0  0  0  0  0  0  0  0  0  0
   26.5462  -20.5361  -14.0429 C   0  0  2  0  0  0  0  0  0  0  0  0
   26.2533  -19.9972  -12.7208 N   0  0  0  0  0  0  0  0  0  0  0  0
   27.9758  -20.8440  -14.1629 C   0  0  0  0  0  0  0  0  0  0  0  0
   28.5158  -21.9338  -14.8101 O   0  0  0  0  0  0  0  0  0  0  0  0
   28.7906  -20.0275  -13.6153 O   0  0  0  0  0  0  0  0  0  0  0  0
  2  1  1  1
  2  3  1  0
  3  4  1  0
  4  8  1  0
  5  4  2  0
  6  2  1  0
  7  6  2  0
  9 10  1  0
 10 11  1  0
 11 12  1  0
 13 12  1  1
 13 14  1  0
 14  6  1  0
 15 25  1  0
 15 13  1  0
 16 15  2  0
 18 17  1  0
 18 19  2  0
 20 18  1  0
 21 20  1  0
 21 22  1  0
 23 22  1  0
 24 23  1  6
 24 25  1  0
 26 27  1  0
 26 24  1  0
 28 26  2  0
M  END
$$$$
