DMR.pdb
     RDKit          3D

 28 27  0  0  1  0  0  0  0  0999 V2000
   28.5655  -21.0095  -15.9157 N   0  0  0  0  0  0  0  0  0  0  0  0
   27.9516  -20.1377  -14.9677 C   0  0  1  0  0  0  0  0  0  0  0  0
   27.3448  -18.9669  -15.6762 C   0  0  0  0  0  0  0  0  0  0  0  0
   28.2728  -18.2916  -16.5943 C   0  0  0  0  0  0  0  0  0  0  0  0
   28.6474  -18.7999  -17.6788 O   0  0  0  0  0  0  0  0  0  0  0  0
   27.0057  -20.8235  -14.0660 C   0  0  0  0  0  0  0  0  0  0  0  0
   26.4035  -21.9008  -14.4025 O   0  0  0  0  0  0  0  0  0  0  0  0
   28.7627  -17.0396  -16.2601 O   0  0  0  0  0  0  0  0  0  0  0  0
   27.9618  -20.3737   -7.8502 C   0  0  0  0  0  0  0  0  0  0  0  0
   26.1607  -20.2645   -7.7802 S   0  0  0  0  0  0  0  0  0  0  0  0
   25.3991  -20.8053   -9.3284 C   0  0  0  0  0  0  0  0  0  0  0  0
   26.2099  -20.5096  -10.5213 C   0  0  0  0  0  0  0  0  0  0  0  0
   25.7498  -20.9504  -11.8589 C   0  0  2  0  0  0  0  0  0  0  0  0
   26.7259  -20.3189  -12.7943 N   0  0  0  0  0  0  0  0  0  0  0  0
   24.3921  -20.6835  -12.2720 C   0  0  0  0  0  0  0  0  0  0  0  0
   24.0349  -19.5029  -12.6323 O   0  0  0  0  0  0  0  0  0  0  0  0
   18.5128  -24.0078  -16.5594 N   0  0  0  0  0  0  0  0  0  0  0  0
   19.4994  -24.7293  -15.8466 C   0  0  0  0  0  0  0  0  0  0  0  0
   20.1721  -25.7058  -16.3860 N   0  0  0  0  0  0  0  0  0  0  0  0
   19.8207  -24.4278  -14.4819 N   0  0  0  0  0  0  0  0  0  0  0  0
   19.0424  -23.4821  -13.7440 C   0  0  0  0  0  0  0  0  0  0  0  0
   19.8062  -22.2106  -13.4423 C   0  0  0  0  0  0  0  0  0  0  0  0
   21.2143  -22.5335  -13.0108 C   0  0  0  0  0  0  0  0  0  0  0  0
   21.9967  -21.2309  -12.7323 C   0  0  2  0  0  0  0  0  0  0  0  0
   23.3331  -21.6585  -12.3383 N   0  0  0  0  0  0  0  0  0  0  0  0
   21.3347  -20.5376  -11.6214 C   0  0  0  0  0  0  0  0  0  0  0  0
   20.3785  -19.5527  -11.7390 O   0  0  0  0  0  0  0  0  0  0  0  0
   21.6794  -20.8785  -10.4401 O   0  0  0  0  0  0  0  0  0  0  0  0
  2  1  1  6
  2  3  1  0
  3  4  1  0
  4  8  1  0
  5  4  2  0
  6  2  1  0
  7  6  2  0
  9 10  1  0
 10 11  1  0
 11 12  1  0
 13 12  1  1
 13 14  1  0
 14  6  1  0
 15 25  1  0
 15 13  1  0
 16 15  2  0
 18 17  1  0
 18 19  2  0
 20 18  1  0
 21 20  1  0
 21 22  1  0
 23 22  1  0
 24 23  1  1
 24 25  1  0
 26 27  1  0
 26 24  1  0
 28 26  2  0
M  END
$$$$
