GAY.pdb
     RDKit          3D

 22 22  0  0  1  0  0  0  0  0999 V2000
   24.3111  -12.2169  -20.9665 N   0  0  0  0  0  0  0  0  0  0  0  0
   25.0273  -11.6976  -19.8303 C   0  0  0  0  0  0  0  0  0  0  0  0
   24.1020  -11.4093  -18.7211 C   0  0  0  0  0  0  0  0  0  0  0  0
   22.9412  -10.9929  -18.9690 O   0  0  0  0  0  0  0  0  0  0  0  0
   24.2090  -11.7057  -14.9493 C   0  0  0  0  0  0  0  0  0  0  0  0
   23.6548  -11.2517  -16.2941 C   0  0  2  0  0  0  0  0  0  0  0  0
   24.5146  -11.5990  -17.3799 N   0  0  0  0  0  0  0  0  0  0  0  0
   23.5002   -9.7504  -16.1836 C   0  0  0  0  0  0  0  0  0  0  0  0
   24.3981   -9.0120  -16.6490 O   0  0  0  0  0  0  0  0  0  0  0  0
   17.5439   -8.0853  -20.2107 O   0  0  0  0  0  0  0  0  0  0  0  0
   18.6415   -7.8461  -19.3830 C   0  0  0  0  0  0  0  0  0  0  0  0
   18.5466   -7.0784  -18.2378 C   0  0  0  0  0  0  0  0  0  0  0  0
   19.6648   -6.8574  -17.4296 C   0  0  0  0  0  0  0  0  0  0  0  0
   20.8877   -7.4011  -17.7575 C   0  0  0  0  0  0  0  0  0  0  0  0
   22.0459   -7.1528  -16.8904 C   0  0  0  0  0  0  0  0  0  0  0  0
   22.0190   -7.7766  -15.5454 C   0  0  2  0  0  0  0  0  0  0  0  0
   22.3731   -9.1769  -15.5713 N   0  0  0  0  0  0  0  0  0  0  0  0
   20.8307   -7.4728  -14.7130 C   0  0  0  0  0  0  0  0  0  0  0  0
   20.4914   -6.1294  -14.4538 O   0  0  0  0  0  0  0  0  0  0  0  0
   20.9450   -8.1606  -18.9057 C   0  0  0  0  0  0  0  0  0  0  0  0
   19.8624   -8.3941  -19.7183 C   0  0  0  0  0  0  0  0  0  0  0  0
   20.0970   -8.3549  -14.2153 O   0  0  0  0  0  0  0  0  0  0  0  0
  2  1  1  0
  3  4  2  0
  3  2  1  0
  6  5  1  1
  6  8  1  0
  6  7  1  0
  7  3  1  0
  8  9  2  0
 10 11  1  0
 11 21  2  0
 12 11  1  0
 12 13  2  0
 13 14  1  0
 14 20  2  0
 14 15  1  0
 16 15  1  6
 17 16  1  0
 17  8  1  0
 18 16  1  0
 19 18  1  0
 21 20  1  0
 22 18  2  0
M  END
$$$$
