GAY.pdb
     RDKit          3D

 22 22  0  0  1  0  0  0  0  0999 V2000
   14.7814  -12.3939    3.9975 N   0  0  0  0  0  0  0  0  0  0  0  0
   15.7781  -11.6507    4.7239 C   0  0  0  0  0  0  0  0  0  0  0  0
   16.9402  -12.5026    5.0299 C   0  0  0  0  0  0  0  0  0  0  0  0
   16.8927  -13.7351    4.7829 O   0  0  0  0  0  0  0  0  0  0  0  0
   20.3767  -11.9597    6.5293 C   0  0  0  0  0  0  0  0  0  0  0  0
   19.1944  -12.7693    6.0111 C   0  0  2  0  0  0  0  0  0  0  0  0
   18.1077  -11.9394    5.5998 N   0  0  0  0  0  0  0  0  0  0  0  0
   18.7858  -13.6699    7.1565 C   0  0  0  0  0  0  0  0  0  0  0  0
   17.8514  -13.3096    7.9081 O   0  0  0  0  0  0  0  0  0  0  0  0
   15.8102  -19.4505    4.0707 O   0  0  0  0  0  0  0  0  0  0  0  0
   16.2465  -18.6515    5.1282 C   0  0  0  0  0  0  0  0  0  0  0  0
   15.4258  -17.7190    5.7338 C   0  0  0  0  0  0  0  0  0  0  0  0
   15.8928  -16.9340    6.7911 C   0  0  0  0  0  0  0  0  0  0  0  0
   17.1834  -17.0730    7.2533 C   0  0  0  0  0  0  0  0  0  0  0  0
   17.6479  -16.2352    8.3657 C   0  0  0  0  0  0  0  0  0  0  0  0
   19.0887  -15.8846    8.3813 C   0  0  2  0  0  0  0  0  0  0  0  0
   19.4341  -14.8949    7.3874 N   0  0  0  0  0  0  0  0  0  0  0  0
   20.0332  -17.0252    8.4469 C   0  0  0  0  0  0  0  0  0  0  0  0
   19.9195  -17.9594    9.4964 O   0  0  0  0  0  0  0  0  0  0  0  0
   17.9729  -18.0120    6.6260 C   0  0  0  0  0  0  0  0  0  0  0  0
   17.5402  -18.7969    5.5851 C   0  0  0  0  0  0  0  0  0  0  0  0
   20.9445  -17.2112    7.6109 O   0  0  0  0  0  0  0  0  0  0  0  0
  2  1  1  0
  3  4  2  0
  3  2  1  0
  6  5  1  1
  6  8  1  0
  6  7  1  0
  7  3  1  0
  8  9  2  0
 10 11  1  0
 11 21  2  0
 12 11  1  0
 12 13  2  0
 13 14  1  0
 14 20  2  0
 14 15  1  0
 16 15  1  6
 17 16  1  0
 17  8  1  0
 18 16  1  0
 19 18  1  0
 21 20  1  0
 22 18  2  0
M  END
$$$$
