GAY.pdb
     RDKit          3D

 22 22  0  0  1  0  0  0  0  0999 V2000
   26.3857   -1.2881  -20.2151 N   0  0  0  0  0  0  0  0  0  0  0  0
   25.4510   -2.3711  -20.3787 C   0  0  0  0  0  0  0  0  0  0  0  0
   24.8879   -2.7716  -19.0778 C   0  0  0  0  0  0  0  0  0  0  0  0
   25.6506   -3.1949  -18.1714 O   0  0  0  0  0  0  0  0  0  0  0  0
   21.4639   -2.7196  -17.4707 C   0  0  0  0  0  0  0  0  0  0  0  0
   22.9299   -3.1123  -17.6063 C   0  0  2  0  0  0  0  0  0  0  0  0
   23.4940   -2.6817  -18.8453 N   0  0  0  0  0  0  0  0  0  0  0  0
   22.9583   -4.6210  -17.4926 C   0  0  0  0  0  0  0  0  0  0  0  0
   23.2656   -5.2997  -18.4990 O   0  0  0  0  0  0  0  0  0  0  0  0
   24.6433  -12.8631  -15.6437 O   0  0  0  0  0  0  0  0  0  0  0  0
   24.5020  -11.4878  -15.8327 C   0  0  0  0  0  0  0  0  0  0  0  0
   25.4566  -10.5840  -15.4064 C   0  0  0  0  0  0  0  0  0  0  0  0
   25.2855   -9.2125  -15.6108 C   0  0  0  0  0  0  0  0  0  0  0  0
   24.1597   -8.7309  -16.2427 C   0  0  0  0  0  0  0  0  0  0  0  0
   24.0057   -7.2850  -16.4443 C   0  0  0  0  0  0  0  0  0  0  0  0
   22.7197   -6.6842  -16.0151 C   0  0  2  0  0  0  0  0  0  0  0  0
   22.6474   -5.2668  -16.2841 N   0  0  0  0  0  0  0  0  0  0  0  0
   22.2455   -7.0640  -14.6630 C   0  0  0  0  0  0  0  0  0  0  0  0
   21.3336   -8.1297  -14.5226 O   0  0  0  0  0  0  0  0  0  0  0  0
   23.2295   -9.6605  -16.6540 C   0  0  0  0  0  0  0  0  0  0  0  0
   23.3718  -11.0138  -16.4662 C   0  0  0  0  0  0  0  0  0  0  0  0
   22.6122   -6.4827  -13.6181 O   0  0  0  0  0  0  0  0  0  0  0  0
  2  1  1  0
  3  4  2  0
  3  2  1  0
  6  5  1  6
  6  8  1  0
  6  7  1  0
  7  3  1  0
  8  9  2  0
 10 11  1  0
 11 21  2  0
 12 11  1  0
 12 13  2  0
 13 14  1  0
 14 20  2  0
 14 15  1  0
 16 15  1  1
 17 16  1  0
 17  8  1  0
 18 16  1  0
 19 18  1  0
 21 20  1  0
 22 18  2  0
M  END
$$$$
