GAY.pdb
     RDKit          3D

 22 22  0  0  1  0  0  0  0  0999 V2000
   19.2466  -12.0471  -19.4213 N   0  0  0  0  0  0  0  0  0  0  0  0
   19.5282  -10.8345  -20.1449 C   0  0  0  0  0  0  0  0  0  0  0  0
   20.3963   -9.9468  -19.3524 C   0  0  0  0  0  0  0  0  0  0  0  0
   20.9429  -10.3805  -18.3057 O   0  0  0  0  0  0  0  0  0  0  0  0
   21.7123   -6.4171  -19.7162 C   0  0  0  0  0  0  0  0  0  0  0  0
   21.4537   -7.7388  -19.0036 C   0  0  2  0  0  0  0  0  0  0  0  0
   20.6166   -8.6102  -19.7644 N   0  0  0  0  0  0  0  0  0  0  0  0
   20.8006   -7.3704  -17.6891 C   0  0  0  0  0  0  0  0  0  0  0  0
   19.5511   -7.3818  -17.6081 O   0  0  0  0  0  0  0  0  0  0  0  0
   19.0046   -6.2212   -9.1752 O   0  0  0  0  0  0  0  0  0  0  0  0
   19.5905   -6.5146  -10.4071 C   0  0  0  0  0  0  0  0  0  0  0  0
   20.4365   -5.6304  -11.0493 C   0  0  0  0  0  0  0  0  0  0  0  0
   21.0076   -5.9540  -12.2827 C   0  0  0  0  0  0  0  0  0  0  0  0
   20.7391   -7.1633  -12.8861 C   0  0  0  0  0  0  0  0  0  0  0  0
   21.3527   -7.4774  -14.1822 C   0  0  0  0  0  0  0  0  0  0  0  0
   21.0784   -6.5378  -15.2961 C   0  0  2  0  0  0  0  0  0  0  0  0
   21.5693   -7.0184  -16.5669 N   0  0  0  0  0  0  0  0  0  0  0  0
   21.3874   -5.1120  -15.0331 C   0  0  0  0  0  0  0  0  0  0  0  0
   22.7188   -4.6609  -15.1379 O   0  0  0  0  0  0  0  0  0  0  0  0
   19.8917   -8.0195  -12.2174 C   0  0  0  0  0  0  0  0  0  0  0  0
   19.3165   -7.7275  -11.0046 C   0  0  0  0  0  0  0  0  0  0  0  0
   20.5203   -4.2686  -14.7157 O   0  0  0  0  0  0  0  0  0  0  0  0
  2  1  1  0
  3  4  2  0
  3  2  1  0
  6  5  1  6
  6  8  1  0
  6  7  1  0
  7  3  1  0
  8  9  2  0
 10 11  1  0
 11 21  2  0
 12 11  1  0
 12 13  2  0
 13 14  1  0
 14 20  2  0
 14 15  1  0
 16 15  1  1
 17 16  1  0
 17  8  1  0
 18 16  1  0
 19 18  1  0
 21 20  1  0
 22 18  2  0
M  END
$$$$
