GAY.pdb
     RDKit          3D

 22 22  0  0  1  0  0  0  0  0999 V2000
   25.4172  -21.5816  -19.7401 N   0  0  0  0  0  0  0  0  0  0  0  0
   24.0712  -21.1846  -20.0631 C   0  0  0  0  0  0  0  0  0  0  0  0
   23.4097  -20.5897  -18.8891 C   0  0  0  0  0  0  0  0  0  0  0  0
   24.0464  -19.7960  -18.1496 O   0  0  0  0  0  0  0  0  0  0  0  0
   19.8964  -20.5528  -17.4985 C   0  0  0  0  0  0  0  0  0  0  0  0
   21.4017  -20.3181  -17.4716 C   0  0  2  0  0  0  0  0  0  0  0  0
   22.0624  -20.9080  -18.5916 N   0  0  0  0  0  0  0  0  0  0  0  0
   21.8846  -20.9285  -16.1738 C   0  0  0  0  0  0  0  0  0  0  0  0
   22.2054  -22.1388  -16.1547 O   0  0  0  0  0  0  0  0  0  0  0  0
   25.9051  -21.2889   -8.2682 O   0  0  0  0  0  0  0  0  0  0  0  0
   25.3409  -20.9234   -9.4910 C   0  0  0  0  0  0  0  0  0  0  0  0
   24.1500  -20.2272   -9.5736 C   0  0  0  0  0  0  0  0  0  0  0  0
   23.6109  -19.8758  -10.8138 C   0  0  0  0  0  0  0  0  0  0  0  0
   24.2560  -20.2164  -11.9827 C   0  0  0  0  0  0  0  0  0  0  0  0
   23.6671  -19.8345  -13.2720 C   0  0  0  0  0  0  0  0  0  0  0  0
   22.4785  -20.6017  -13.7167 C   0  0  2  0  0  0  0  0  0  0  0  0
   21.9778  -20.1635  -14.9989 N   0  0  0  0  0  0  0  0  0  0  0  0
   21.4218  -20.8089  -12.6980 C   0  0  0  0  0  0  0  0  0  0  0  0
   21.3932  -22.0121  -11.9642 O   0  0  0  0  0  0  0  0  0  0  0  0
   25.4404  -20.9101  -11.8622 C   0  0  0  0  0  0  0  0  0  0  0  0
   25.9931  -21.2683  -10.6567 C   0  0  0  0  0  0  0  0  0  0  0  0
   20.5351  -19.9636  -12.4465 O   0  0  0  0  0  0  0  0  0  0  0  0
  2  1  1  0
  3  4  2  0
  3  2  1  0
  6  5  1  6
  6  8  1  0
  6  7  1  0
  7  3  1  0
  8  9  2  0
 10 11  1  0
 11 21  2  0
 12 11  1  0
 12 13  2  0
 13 14  1  0
 14 20  2  0
 14 15  1  0
 16 15  1  1
 17 16  1  0
 17  8  1  0
 18 16  1  0
 19 18  1  0
 21 20  1  0
 22 18  2  0
M  END
$$$$
