GAY.pdb
     RDKit          3D

 22 22  0  0  1  0  0  0  0  0999 V2000
   33.2202  -35.3009   -8.5116 N   0  0  0  0  0  0  0  0  0  0  0  0
   33.3682  -35.3642   -7.0807 C   0  0  0  0  0  0  0  0  0  0  0  0
   32.2067  -36.0313   -6.4678 C   0  0  0  0  0  0  0  0  0  0  0  0
   31.1515  -36.1849   -7.1350 O   0  0  0  0  0  0  0  0  0  0  0  0
   31.4968  -37.9003   -3.2772 C   0  0  0  0  0  0  0  0  0  0  0  0
   31.1282  -37.0649   -4.4970 C   0  0  2  0  0  0  0  0  0  0  0  0
   32.2746  -36.4990   -5.1329 N   0  0  0  0  0  0  0  0  0  0  0  0
   30.2033  -35.9828   -3.9837 C   0  0  0  0  0  0  0  0  0  0  0  0
   30.6988  -34.9292   -3.5230 O   0  0  0  0  0  0  0  0  0  0  0  0
   26.7992  -32.4975   -9.5656 O   0  0  0  0  0  0  0  0  0  0  0  0
   26.7583  -33.1883   -8.3538 C   0  0  0  0  0  0  0  0  0  0  0  0
   26.9582  -34.5536   -8.2775 C   0  0  0  0  0  0  0  0  0  0  0  0
   26.9109  -35.2163   -7.0484 C   0  0  0  0  0  0  0  0  0  0  0  0
   26.6634  -34.5217   -5.8843 C   0  0  0  0  0  0  0  0  0  0  0  0
   26.6192  -35.2432   -4.6066 C   0  0  0  0  0  0  0  0  0  0  0  0
   27.8137  -35.1314   -3.7350 C   0  0  2  0  0  0  0  0  0  0  0  0
   28.8075  -36.1414   -4.0161 N   0  0  0  0  0  0  0  0  0  0  0  0
   27.5463  -34.9375   -2.2899 C   0  0  0  0  0  0  0  0  0  0  0  0
   28.0555  -35.8668   -1.3603 O   0  0  0  0  0  0  0  0  0  0  0  0
   26.4690  -33.1624   -5.9984 C   0  0  0  0  0  0  0  0  0  0  0  0
   26.5099  -32.4855   -7.1929 C   0  0  0  0  0  0  0  0  0  0  0  0
   26.8812  -33.9802   -1.8369 O   0  0  0  0  0  0  0  0  0  0  0  0
  2  1  1  0
  3  4  2  0
  3  2  1  0
  6  5  1  1
  6  8  1  0
  6  7  1  0
  7  3  1  0
  8  9  2  0
 10 11  1  0
 11 21  2  0
 12 11  1  0
 12 13  2  0
 13 14  1  0
 14 20  2  0
 14 15  1  0
 16 15  1  6
 17 16  1  0
 17  8  1  0
 18 16  1  0
 19 18  1  0
 21 20  1  0
 22 18  2  0
M  END
$$$$
