GAY.pdb
     RDKit          3D

 22 22  0  0  1  0  0  0  0  0999 V2000
   18.7576  -20.9501    9.4492 N   0  0  0  0  0  0  0  0  0  0  0  0
   17.7057  -20.7808    8.4806 C   0  0  0  0  0  0  0  0  0  0  0  0
   17.3739  -22.0673    7.8445 C   0  0  0  0  0  0  0  0  0  0  0  0
   18.1019  -23.0720    8.0517 O   0  0  0  0  0  0  0  0  0  0  0  0
   14.4807  -23.4763    5.8962 C   0  0  0  0  0  0  0  0  0  0  0  0
   15.9365  -23.4037    6.3402 C   0  0  2  0  0  0  0  0  0  0  0  0
   16.2406  -22.1758    7.0026 N   0  0  0  0  0  0  0  0  0  0  0  0
   16.7544  -23.5550    5.0760 C   0  0  0  0  0  0  0  0  0  0  0  0
   17.5163  -22.6231    4.7310 O   0  0  0  0  0  0  0  0  0  0  0  0
   22.3086  -25.8143   -1.0914 O   0  0  0  0  0  0  0  0  0  0  0  0
   21.4651  -25.5934   -0.0019 C   0  0  0  0  0  0  0  0  0  0  0  0
   20.3962  -26.4221    0.2816 C   0  0  0  0  0  0  0  0  0  0  0  0
   19.5699  -26.1738    1.3806 C   0  0  0  0  0  0  0  0  0  0  0  0
   19.8035  -25.0958    2.2064 C   0  0  0  0  0  0  0  0  0  0  0  0
   18.9194  -24.8585    3.3541 C   0  0  0  0  0  0  0  0  0  0  0  0
   17.4648  -25.0315    3.1236 C   0  0  2  0  0  0  0  0  0  0  0  0
   16.6725  -24.7165    4.2897 N   0  0  0  0  0  0  0  0  0  0  0  0
   17.0605  -26.2849    2.4432 C   0  0  0  0  0  0  0  0  0  0  0  0
   16.6841  -26.2457    1.0853 O   0  0  0  0  0  0  0  0  0  0  0  0
   20.8775  -24.2915    1.8934 C   0  0  0  0  0  0  0  0  0  0  0  0
   21.7058  -24.5118    0.8200 C   0  0  0  0  0  0  0  0  0  0  0  0
   17.0310  -27.3974    3.0137 O   0  0  0  0  0  0  0  0  0  0  0  0
  2  1  1  0
  3  4  2  0
  3  2  1  0
  6  5  1  6
  6  8  1  0
  6  7  1  0
  7  3  1  0
  8  9  2  0
 10 11  1  0
 11 21  2  0
 12 11  1  0
 12 13  2  0
 13 14  1  0
 14 20  2  0
 14 15  1  0
 16 15  1  1
 17 16  1  0
 17  8  1  0
 18 16  1  0
 19 18  1  0
 21 20  1  0
 22 18  2  0
M  END
$$$$
