GAY.pdb
     RDKit          3D

 22 22  0  0  1  0  0  0  0  0999 V2000
   22.2027  -12.3771  -17.7068 N   0  0  0  0  0  0  0  0  0  0  0  0
   22.6284  -11.0043  -17.6197 C   0  0  0  0  0  0  0  0  0  0  0  0
   21.8283  -10.2751  -16.6209 C   0  0  0  0  0  0  0  0  0  0  0  0
   20.5893  -10.1409  -16.7912 O   0  0  0  0  0  0  0  0  0  0  0  0
   22.5061   -8.5682  -13.3117 C   0  0  0  0  0  0  0  0  0  0  0  0
   21.7164   -8.8921  -14.5739 C   0  0  2  0  0  0  0  0  0  0  0  0
   22.4485   -9.7262  -15.4723 N   0  0  0  0  0  0  0  0  0  0  0  0
   21.4010   -7.5556  -15.2097 C   0  0  0  0  0  0  0  0  0  0  0  0
   22.1865   -7.0910  -16.0670 O   0  0  0  0  0  0  0  0  0  0  0  0
   14.2527   -8.2189  -17.3319 O   0  0  0  0  0  0  0  0  0  0  0  0
   15.4822   -7.5748  -17.1885 C   0  0  0  0  0  0  0  0  0  0  0  0
   15.5780   -6.2320  -16.8762 C   0  0  0  0  0  0  0  0  0  0  0  0
   16.8246   -5.6161  -16.7394 C   0  0  0  0  0  0  0  0  0  0  0  0
   17.9870   -6.3354  -16.9132 C   0  0  0  0  0  0  0  0  0  0  0  0
   19.2833   -5.6630  -16.7635 C   0  0  0  0  0  0  0  0  0  0  0  0
   19.8266   -5.5589  -15.3876 C   0  0  2  0  0  0  0  0  0  0  0  0
   20.2488   -6.8337  -14.8552 N   0  0  0  0  0  0  0  0  0  0  0  0
   19.0335   -4.7438  -14.4369 C   0  0  0  0  0  0  0  0  0  0  0  0
   18.8110   -3.3794  -14.7121 O   0  0  0  0  0  0  0  0  0  0  0  0
   17.8534   -7.6712  -17.2235 C   0  0  0  0  0  0  0  0  0  0  0  0
   16.6413   -8.3021  -17.3640 C   0  0  0  0  0  0  0  0  0  0  0  0
   18.5414   -5.2030  -13.3829 O   0  0  0  0  0  0  0  0  0  0  0  0
  2  1  1  0
  3  4  2  0
  3  2  1  0
  6  5  1  1
  6  8  1  0
  6  7  1  0
  7  3  1  0
  8  9  2  0
 10 11  1  0
 11 21  2  0
 12 11  1  0
 12 13  2  0
 13 14  1  0
 14 20  2  0
 14 15  1  0
 16 15  1  6
 17 16  1  0
 17  8  1  0
 18 16  1  0
 19 18  1  0
 21 20  1  0
 22 18  2  0
M  END
$$$$
