GAY.pdb
     RDKit          3D

 22 22  0  0  1  0  0  0  0  0999 V2000
   20.2926   -2.1722  -21.6114 N   0  0  0  0  0  0  0  0  0  0  0  0
   19.8092   -1.4336  -20.4738 C   0  0  0  0  0  0  0  0  0  0  0  0
   20.5884   -1.7673  -19.2691 C   0  0  0  0  0  0  0  0  0  0  0  0
   21.4887   -2.6436  -19.3313 O   0  0  0  0  0  0  0  0  0  0  0  0
   20.6859   -0.5620  -15.6806 C   0  0  0  0  0  0  0  0  0  0  0  0
   21.0099   -1.4850  -16.8489 C   0  0  2  0  0  0  0  0  0  0  0  0
   20.3274   -1.1062  -18.0445 N   0  0  0  0  0  0  0  0  0  0  0  0
   20.5920   -2.8688  -16.4011 C   0  0  0  0  0  0  0  0  0  0  0  0
   19.5956   -3.4050  -16.9373 O   0  0  0  0  0  0  0  0  0  0  0  0
   18.7573  -10.9596  -15.1246 O   0  0  0  0  0  0  0  0  0  0  0  0
   19.3459   -9.7169  -15.3623 C   0  0  0  0  0  0  0  0  0  0  0  0
   20.7140   -9.5283  -15.3112 C   0  0  0  0  0  0  0  0  0  0  0  0
   21.2727   -8.2709  -15.5541 C   0  0  0  0  0  0  0  0  0  0  0  0
   20.4704   -7.1905  -15.8503 C   0  0  0  0  0  0  0  0  0  0  0  0
   21.0841   -5.8807  -16.1012 C   0  0  0  0  0  0  0  0  0  0  0  0
   21.0916   -4.9195  -14.9721 C   0  0  2  0  0  0  0  0  0  0  0  0
   21.2997   -3.5556  -15.4002 N   0  0  0  0  0  0  0  0  0  0  0  0
   21.9017   -5.3095  -13.7936 C   0  0  0  0  0  0  0  0  0  0  0  0
   21.2879   -5.9993  -12.7285 O   0  0  0  0  0  0  0  0  0  0  0  0
   19.1117   -7.4155  -15.8926 C   0  0  0  0  0  0  0  0  0  0  0  0
   18.5356   -8.6402  -15.6582 C   0  0  0  0  0  0  0  0  0  0  0  0
   23.1216   -5.0565  -13.6846 O   0  0  0  0  0  0  0  0  0  0  0  0
  2  1  1  0
  3  4  2  0
  3  2  1  0
  6  5  1  1
  6  8  1  0
  6  7  1  0
  7  3  1  0
  8  9  2  0
 10 11  1  0
 11 21  2  0
 12 11  1  0
 12 13  2  0
 13 14  1  0
 14 20  2  0
 14 15  1  0
 16 15  1  6
 17 16  1  0
 17  8  1  0
 18 16  1  0
 19 18  1  0
 21 20  1  0
 22 18  2  0
M  END
$$$$
