GAY.pdb
     RDKit          3D

 22 22  0  0  1  0  0  0  0  0999 V2000
   17.2118  -21.8851    2.6776 N   0  0  0  0  0  0  0  0  0  0  0  0
   16.4406  -21.6148    3.8632 C   0  0  0  0  0  0  0  0  0  0  0  0
   16.1642  -20.1731    3.9851 C   0  0  0  0  0  0  0  0  0  0  0  0
   16.6487  -19.3717    3.1453 O   0  0  0  0  0  0  0  0  0  0  0  0
   13.8685  -18.0306    6.0673 C   0  0  0  0  0  0  0  0  0  0  0  0
   15.0624  -18.2957    5.1584 C   0  0  2  0  0  0  0  0  0  0  0  0
   15.3567  -19.6881    5.0424 N   0  0  0  0  0  0  0  0  0  0  0  0
   16.2207  -17.5467    5.7809 C   0  0  0  0  0  0  0  0  0  0  0  0
   16.9971  -18.1594    6.5488 O   0  0  0  0  0  0  0  0  0  0  0  0
   21.8296  -10.6218    6.8620 O   0  0  0  0  0  0  0  0  0  0  0  0
   20.9362  -11.5951    6.4128 C   0  0  0  0  0  0  0  0  0  0  0  0
   21.2131  -12.9461    6.5021 C   0  0  0  0  0  0  0  0  0  0  0  0
   20.2973  -13.8962    6.0431 C   0  0  0  0  0  0  0  0  0  0  0  0
   19.0967  -13.5060    5.4909 C   0  0  0  0  0  0  0  0  0  0  0  0
   18.1529  -14.5256    5.0167 C   0  0  0  0  0  0  0  0  0  0  0  0
   17.4842  -15.3497    6.0523 C   0  0  2  0  0  0  0  0  0  0  0  0
   16.4364  -16.1845    5.5121 N   0  0  0  0  0  0  0  0  0  0  0  0
   17.1065  -14.6432    7.2995 C   0  0  0  0  0  0  0  0  0  0  0  0
   18.0516  -14.5170    8.3377 O   0  0  0  0  0  0  0  0  0  0  0  0
   18.8545  -12.1516    5.4180 C   0  0  0  0  0  0  0  0  0  0  0  0
   19.7363  -11.1961    5.8612 C   0  0  0  0  0  0  0  0  0  0  0  0
   15.9760  -14.1437    7.4905 O   0  0  0  0  0  0  0  0  0  0  0  0
  2  1  1  0
  3  4  2  0
  3  2  1  0
  6  5  1  1
  6  8  1  0
  6  7  1  0
  7  3  1  0
  8  9  2  0
 10 11  1  0
 11 21  2  0
 12 11  1  0
 12 13  2  0
 13 14  1  0
 14 20  2  0
 14 15  1  0
 16 15  1  6
 17 16  1  0
 17  8  1  0
 18 16  1  0
 19 18  1  0
 21 20  1  0
 22 18  2  0
M  END
$$$$
