GAY.pdb
     RDKit          3D

 22 22  0  0  1  0  0  0  0  0999 V2000
   29.7196  -16.8545  -18.5755 N   0  0  0  0  0  0  0  0  0  0  0  0
   30.1039  -18.2194  -18.3248 C   0  0  0  0  0  0  0  0  0  0  0  0
   28.9140  -19.0707  -18.1541 C   0  0  0  0  0  0  0  0  0  0  0  0
   27.8100  -18.5472  -17.8551 O   0  0  0  0  0  0  0  0  0  0  0  0
   28.0384  -22.6764  -18.7891 C   0  0  0  0  0  0  0  0  0  0  0  0
   27.8708  -21.3126  -18.1305 C   0  0  2  0  0  0  0  0  0  0  0  0
   29.0093  -20.4731  -18.3251 N   0  0  0  0  0  0  0  0  0  0  0  0
   27.6509  -21.5960  -16.6604 C   0  0  0  0  0  0  0  0  0  0  0  0
   28.6390  -21.8640  -15.9396 O   0  0  0  0  0  0  0  0  0  0  0  0
   24.9898  -20.7585   -8.3832 O   0  0  0  0  0  0  0  0  0  0  0  0
   25.3526  -20.7148   -9.7299 C   0  0  0  0  0  0  0  0  0  0  0  0
   26.6372  -20.9946  -10.1558 C   0  0  0  0  0  0  0  0  0  0  0  0
   26.9690  -20.9421  -11.5121 C   0  0  0  0  0  0  0  0  0  0  0  0
   26.0210  -20.6098  -12.4553 C   0  0  0  0  0  0  0  0  0  0  0  0
   26.3971  -20.5623  -13.8735 C   0  0  0  0  0  0  0  0  0  0  0  0
   26.0242  -21.7336  -14.7028 C   0  0  2  0  0  0  0  0  0  0  0  0
   26.3644  -21.5632  -16.0964 N   0  0  0  0  0  0  0  0  0  0  0  0
   24.6649  -22.2808  -14.4788 C   0  0  0  0  0  0  0  0  0  0  0  0
   24.5104  -23.4719  -13.7410 O   0  0  0  0  0  0  0  0  0  0  0  0
   24.7514  -20.3373  -11.9946 C   0  0  0  0  0  0  0  0  0  0  0  0
   24.3976  -20.3813  -10.6680 C   0  0  0  0  0  0  0  0  0  0  0  0
   23.6258  -21.7389  -14.9155 O   0  0  0  0  0  0  0  0  0  0  0  0
  2  1  1  0
  3  4  2  0
  3  2  1  0
  6  5  1  6
  6  8  1  0
  6  7  1  0
  7  3  1  0
  8  9  2  0
 10 11  1  0
 11 21  2  0
 12 11  1  0
 12 13  2  0
 13 14  1  0
 14 20  2  0
 14 15  1  0
 16 15  1  1
 17 16  1  0
 17  8  1  0
 18 16  1  0
 19 18  1  0
 21 20  1  0
 22 18  2  0
M  END
$$$$
