GAY.pdb
     RDKit          3D

 22 22  0  0  1  0  0  0  0  0999 V2000
   33.0105    0.8824  -13.5470 N   0  0  0  0  0  0  0  0  0  0  0  0
   34.0686    1.5860  -12.8698 C   0  0  0  0  0  0  0  0  0  0  0  0
   34.8800    0.6552  -12.0668 C   0  0  0  0  0  0  0  0  0  0  0  0
   34.5179   -0.5434  -11.9457 O   0  0  0  0  0  0  0  0  0  0  0  0
   38.2499    0.7839  -10.3697 C   0  0  0  0  0  0  0  0  0  0  0  0
   36.8731    0.2060  -10.6737 C   0  0  2  0  0  0  0  0  0  0  0  0
   36.0634    1.1046  -11.4324 N   0  0  0  0  0  0  0  0  0  0  0  0
   36.2473   -0.0822   -9.3264 C   0  0  0  0  0  0  0  0  0  0  0  0
   35.4439    0.7464   -8.8407 O   0  0  0  0  0  0  0  0  0  0  0  0
   39.3410   -7.1252   -8.3542 O   0  0  0  0  0  0  0  0  0  0  0  0
   38.3949   -6.1245   -8.1288 C   0  0  0  0  0  0  0  0  0  0  0  0
   37.7805   -5.4455   -9.1638 C   0  0  0  0  0  0  0  0  0  0  0  0
   36.8368   -4.4482   -8.9049 C   0  0  0  0  0  0  0  0  0  0  0  0
   36.4981   -4.1199   -7.6102 C   0  0  0  0  0  0  0  0  0  0  0  0
   35.5034   -3.0679   -7.3671 C   0  0  0  0  0  0  0  0  0  0  0  0
   36.0000   -1.6708   -7.3485 C   0  0  2  0  0  0  0  0  0  0  0  0
   36.5519   -1.2566   -8.6176 N   0  0  0  0  0  0  0  0  0  0  0  0
   36.8306   -1.2930   -6.1802 C   0  0  0  0  0  0  0  0  0  0  0  0
   36.2388   -1.2243   -4.9027 O   0  0  0  0  0  0  0  0  0  0  0  0
   37.1304   -4.8172   -6.6041 C   0  0  0  0  0  0  0  0  0  0  0  0
   38.0614   -5.8018   -6.8296 C   0  0  0  0  0  0  0  0  0  0  0  0
   38.0493   -1.0245   -6.2620 O   0  0  0  0  0  0  0  0  0  0  0  0
  2  1  1  0
  3  4  2  0
  3  2  1  0
  6  5  1  1
  6  8  1  0
  6  7  1  0
  7  3  1  0
  8  9  2  0
 10 11  1  0
 11 21  2  0
 12 11  1  0
 12 13  2  0
 13 14  1  0
 14 20  2  0
 14 15  1  0
 16 15  1  6
 17 16  1  0
 17  8  1  0
 18 16  1  0
 19 18  1  0
 21 20  1  0
 22 18  2  0
M  END
$$$$
