GAY.pdb
     RDKit          3D

 22 22  0  0  1  0  0  0  0  0999 V2000
   23.3724  -29.5185  -16.1233 N   0  0  0  0  0  0  0  0  0  0  0  0
   22.1821  -29.0642  -16.7942 C   0  0  0  0  0  0  0  0  0  0  0  0
   21.9787  -27.6225  -16.5710 C   0  0  0  0  0  0  0  0  0  0  0  0
   22.6949  -27.0133  -15.7355 O   0  0  0  0  0  0  0  0  0  0  0  0
   19.8124  -24.9192  -18.0882 C   0  0  0  0  0  0  0  0  0  0  0  0
   20.7394  -25.5365  -17.0483 C   0  0  2  0  0  0  0  0  0  0  0  0
   20.9817  -26.9222  -17.2927 N   0  0  0  0  0  0  0  0  0  0  0  0
   20.0489  -25.3331  -15.7172 C   0  0  0  0  0  0  0  0  0  0  0  0
   19.4398  -26.2952  -15.1963 O   0  0  0  0  0  0  0  0  0  0  0  0
   20.7663  -29.1401  -10.3953 O   0  0  0  0  0  0  0  0  0  0  0  0
   20.6992  -27.8655  -10.9594 C   0  0  0  0  0  0  0  0  0  0  0  0
   21.6766  -27.3842  -11.8095 C   0  0  0  0  0  0  0  0  0  0  0  0
   21.5803  -26.1028  -12.3582 C   0  0  0  0  0  0  0  0  0  0  0  0
   20.5072  -25.2905  -12.0630 C   0  0  0  0  0  0  0  0  0  0  0  0
   20.4313  -23.9487  -12.6535 C   0  0  0  0  0  0  0  0  0  0  0  0
   19.4888  -23.7690  -13.7841 C   0  0  2  0  0  0  0  0  0  0  0  0
   20.0807  -24.0905  -15.0620 N   0  0  0  0  0  0  0  0  0  0  0  0
   18.7080  -22.5090  -13.7838 C   0  0  0  0  0  0  0  0  0  0  0  0
   17.7280  -22.3014  -12.7920 O   0  0  0  0  0  0  0  0  0  0  0  0
   19.5522  -25.8032  -11.2123 C   0  0  0  0  0  0  0  0  0  0  0  0
   19.6214  -27.0585  -10.6588 C   0  0  0  0  0  0  0  0  0  0  0  0
   18.8685  -21.6012  -14.6289 O   0  0  0  0  0  0  0  0  0  0  0  0
  2  1  1  0
  3  4  2  0
  3  2  1  0
  6  5  1  6
  6  8  1  0
  6  7  1  0
  7  3  1  0
  8  9  2  0
 10 11  1  0
 11 21  2  0
 12 11  1  0
 12 13  2  0
 13 14  1  0
 14 20  2  0
 14 15  1  0
 16 15  1  1
 17 16  1  0
 17  8  1  0
 18 16  1  0
 19 18  1  0
 21 20  1  0
 22 18  2  0
M  END
$$$$
