GAY.pdb
     RDKit          3D

 22 22  0  0  1  0  0  0  0  0999 V2000
   20.6962  -11.6242  -18.2720 N   0  0  0  0  0  0  0  0  0  0  0  0
   20.0286  -11.3117  -17.0350 C   0  0  0  0  0  0  0  0  0  0  0  0
   20.0088   -9.8562  -16.8093 C   0  0  0  0  0  0  0  0  0  0  0  0
   21.0288   -9.1696  -17.0749 O   0  0  0  0  0  0  0  0  0  0  0  0
   17.4536   -7.3364  -15.5987 C   0  0  0  0  0  0  0  0  0  0  0  0
   18.8297   -7.8261  -16.0324 C   0  0  2  0  0  0  0  0  0  0  0  0
   18.8477   -9.2294  -16.2955 N   0  0  0  0  0  0  0  0  0  0  0  0
   19.7628   -7.4757  -14.8937 C   0  0  0  0  0  0  0  0  0  0  0  0
   20.0415   -8.3537  -14.0455 O   0  0  0  0  0  0  0  0  0  0  0  0
   25.8662   -5.9369  -18.5022 O   0  0  0  0  0  0  0  0  0  0  0  0
   25.0579   -6.0913  -17.3752 C   0  0  0  0  0  0  0  0  0  0  0  0
   24.8885   -5.0818  -16.4468 C   0  0  0  0  0  0  0  0  0  0  0  0
   24.0720   -5.2677  -15.3283 C   0  0  0  0  0  0  0  0  0  0  0  0
   23.4173   -6.4634  -15.1268 C   0  0  0  0  0  0  0  0  0  0  0  0
   22.5656   -6.6315  -13.9430 C   0  0  0  0  0  0  0  0  0  0  0  0
   21.3574   -5.7755  -13.8626 C   0  0  2  0  0  0  0  0  0  0  0  0
   20.3168   -6.1900  -14.7748 N   0  0  0  0  0  0  0  0  0  0  0  0
   21.5983   -4.3129  -13.8506 C   0  0  0  0  0  0  0  0  0  0  0  0
   22.3997   -3.7510  -12.8363 O   0  0  0  0  0  0  0  0  0  0  0  0
   23.6095   -7.4469  -16.0725 C   0  0  0  0  0  0  0  0  0  0  0  0
   24.4060   -7.2915  -17.1808 C   0  0  0  0  0  0  0  0  0  0  0  0
   21.1219   -3.5314  -14.7029 O   0  0  0  0  0  0  0  0  0  0  0  0
  2  1  1  0
  3  4  2  0
  3  2  1  0
  6  5  1  1
  6  8  1  0
  6  7  1  0
  7  3  1  0
  8  9  2  0
 10 11  1  0
 11 21  2  0
 12 11  1  0
 12 13  2  0
 13 14  1  0
 14 20  2  0
 14 15  1  0
 16 15  1  6
 17 16  1  0
 17  8  1  0
 18 16  1  0
 19 18  1  0
 21 20  1  0
 22 18  2  0
M  END
$$$$
