NCC.pdb
     RDKit          3D

 21 20  0  0  1  0  0  0  0  0999 V2000
   11.9223  -17.8317   19.1264 N   0  0  0  0  0  0  0  0  0  0  0  0
   10.5710  -17.4902   19.4099 C   0  0  0  0  0  0  0  0  0  0  0  0
    9.6679  -18.1502   18.8364 O   0  0  0  0  0  0  0  0  0  0  0  0
   10.3072  -16.3792   20.3626 C   0  0  0  0  0  0  0  0  0  0  0  0
    9.8480  -16.9814   21.6498 C   0  0  2  0  0  0  0  0  0  0  0  0
    8.6367  -17.7065   21.4368 N   0  0  0  0  0  0  0  0  0  0  0  0
    9.7606  -16.0087   22.7644 C   0  0  0  0  0  0  0  0  0  0  0  0
   10.7726  -15.3857   23.1163 O   0  0  0  0  0  0  0  0  0  0  0  0
    8.5470  -15.7626   23.4512 N   0  0  0  0  0  0  0  0  0  0  0  0
    8.3643  -14.8030   24.4889 C   0  0  1  0  0  0  0  0  0  0  0  0
    6.9370  -14.3278   24.5733 C   0  0  0  0  0  0  0  0  0  0  0  0
    6.7554  -13.2012   25.9666 S   0  0  0  0  0  0  0  0  0  0  0  0
    8.8809  -15.2580   25.8036 C   0  0  0  0  0  0  0  0  0  0  0  0
    8.3995  -16.2987   26.3087 O   0  0  0  0  0  0  0  0  0  0  0  0
    9.8952  -14.5780   26.5248 N   0  0  0  0  0  0  0  0  0  0  0  0
   10.4157  -15.0347   27.7945 C   0  0  1  0  0  0  0  0  0  0  0  0
    9.4729  -14.4767   28.8672 C   0  0  0  0  0  0  0  0  0  0  0  0
    9.4029  -12.6831   28.6412 S   0  0  0  0  0  0  0  0  0  0  0  0
   10.4476  -16.5019   27.9126 C   0  0  0  0  0  0  0  0  0  0  0  0
   10.8873  -17.0380   28.9524 O   0  0  0  0  0  0  0  0  0  0  0  0
    9.9973  -17.3081   26.8869 O   0  0  0  0  0  0  0  0  0  0  0  0
  2  4  1  0
  2  1  1  0
  3  2  2  0
  5  7  1  0
  5  4  1  0
  5  6  1  6
  7  9  1  0
  8  7  2  0
  9 10  1  0
 10 13  1  0
 11 12  1  0
 10 11  1  1
 13 15  1  0
 13 14  2  0
 15 16  1  0
 16 19  1  0
 16 17  1  1
 18 17  1  0
 19 21  1  0
 20 19  2  0
M  END
$$$$
