NCC.pdb
     RDKit          3D

 21 20  0  0  1  0  0  0  0  0999 V2000
   13.2522  -19.0361   20.6968 N   0  0  0  0  0  0  0  0  0  0  0  0
   11.9096  -18.8761   20.2554 C   0  0  0  0  0  0  0  0  0  0  0  0
   11.6474  -19.1680   19.0612 O   0  0  0  0  0  0  0  0  0  0  0  0
   10.9006  -18.3761   21.2267 C   0  0  0  0  0  0  0  0  0  0  0  0
   10.1821  -17.2321   20.5899 C   0  0  2  0  0  0  0  0  0  0  0  0
   11.1289  -16.2915   20.0829 N   0  0  0  0  0  0  0  0  0  0  0  0
    9.1530  -16.6166   21.4606 C   0  0  0  0  0  0  0  0  0  0  0  0
    8.0215  -16.3905   21.0082 O   0  0  0  0  0  0  0  0  0  0  0  0
    9.4194  -16.2723   22.8080 N   0  0  0  0  0  0  0  0  0  0  0  0
    8.4367  -15.9529   23.7895 C   0  0  1  0  0  0  0  0  0  0  0  0
    7.3744  -17.0165   23.8915 C   0  0  0  0  0  0  0  0  0  0  0  0
    6.3140  -16.6794   25.3076 S   0  0  0  0  0  0  0  0  0  0  0  0
    9.0193  -15.6158   25.1121 C   0  0  0  0  0  0  0  0  0  0  0  0
    9.7525  -16.4607   25.6766 O   0  0  0  0  0  0  0  0  0  0  0  0
    8.7925  -14.3839   25.7772 N   0  0  0  0  0  0  0  0  0  0  0  0
    9.5216  -13.9651   26.9538 C   0  0  1  0  0  0  0  0  0  0  0  0
    8.9861  -12.5745   27.3147 C   0  0  0  0  0  0  0  0  0  0  0  0
    7.1806  -12.6840   27.3415 S   0  0  0  0  0  0  0  0  0  0  0  0
    9.3233  -14.8598   28.1062 C   0  0  0  0  0  0  0  0  0  0  0  0
    8.4517  -15.7544   28.0630 O   0  0  0  0  0  0  0  0  0  0  0  0
   10.0885  -14.7301   29.2474 O   0  0  0  0  0  0  0  0  0  0  0  0
  2  4  1  0
  2  1  1  0
  3  2  2  0
  5  7  1  0
  5  4  1  0
  5  6  1  1
  7  9  1  0
  8  7  2  0
  9 10  1  0
 10 13  1  0
 11 12  1  0
 10 11  1  1
 13 15  1  0
 13 14  2  0
 15 16  1  0
 16 19  1  0
 16 17  1  1
 18 17  1  0
 19 21  1  0
 20 19  2  0
M  END
$$$$
