NCC.pdb
     RDKit          3D

 21 20  0  0  1  0  0  0  0  0999 V2000
   15.2214  -17.5768   13.4302 N   0  0  0  0  0  0  0  0  0  0  0  0
   15.0893  -16.1624   13.5016 C   0  0  0  0  0  0  0  0  0  0  0  0
   15.3596  -15.4965   12.4703 O   0  0  0  0  0  0  0  0  0  0  0  0
   14.6416  -15.5577   14.7844 C   0  0  0  0  0  0  0  0  0  0  0  0
   13.1998  -15.8991   14.9710 C   0  0  2  0  0  0  0  0  0  0  0  0
   12.4303  -15.3354   13.9087 N   0  0  0  0  0  0  0  0  0  0  0  0
   12.6774  -15.5618   16.3162 C   0  0  0  0  0  0  0  0  0  0  0  0
   12.7656  -14.3986   16.7349 O   0  0  0  0  0  0  0  0  0  0  0  0
   12.0739  -16.5330   17.1513 N   0  0  0  0  0  0  0  0  0  0  0  0
   11.6706  -16.3259   18.5024 C   0  0  1  0  0  0  0  0  0  0  0  0
   10.5969  -17.2944   18.9258 C   0  0  0  0  0  0  0  0  0  0  0  0
    9.1614  -17.1137   17.8533 S   0  0  0  0  0  0  0  0  0  0  0  0
   12.8085  -16.3010   19.4549 C   0  0  0  0  0  0  0  0  0  0  0  0
   13.9734  -16.2573   18.9954 O   0  0  0  0  0  0  0  0  0  0  0  0
   12.6512  -16.3235   20.8642 N   0  0  0  0  0  0  0  0  0  0  0  0
   13.7514  -16.1890   21.7931 C   0  0  1  0  0  0  0  0  0  0  0  0
   14.3151  -14.7784   21.5849 C   0  0  0  0  0  0  0  0  0  0  0  0
   15.6932  -14.5744   22.7391 S   0  0  0  0  0  0  0  0  0  0  0  0
   13.3412  -16.3294   23.2001 C   0  0  0  0  0  0  0  0  0  0  0  0
   12.2093  -15.9449   23.5647 O   0  0  0  0  0  0  0  0  0  0  0  0
   14.1901  -16.8830   24.1368 O   0  0  0  0  0  0  0  0  0  0  0  0
  2  4  1  0
  2  1  1  0
  3  2  2  0
  5  7  1  0
  5  4  1  0
  5  6  1  6
  7  9  1  0
  8  7  2  0
  9 10  1  0
 10 13  1  0
 11 12  1  0
 10 11  1  1
 13 15  1  0
 13 14  2  0
 15 16  1  0
 16 19  1  0
 16 17  1  1
 18 17  1  0
 19 21  1  0
 20 19  2  0
M  END
$$$$
