NCC.pdb
     RDKit          3D

 21 20  0  0  1  0  0  0  0  0999 V2000
    7.5845  -14.8376   17.4702 N   0  0  0  0  0  0  0  0  0  0  0  0
    7.2163  -15.2956   18.7655 C   0  0  0  0  0  0  0  0  0  0  0  0
    6.1101  -15.8800   18.8871 O   0  0  0  0  0  0  0  0  0  0  0  0
    8.1560  -15.0577   19.8933 C   0  0  0  0  0  0  0  0  0  0  0  0
    7.6549  -13.8807   20.6641 C   0  0  2  0  0  0  0  0  0  0  0  0
    7.7252  -12.7085   19.8521 N   0  0  0  0  0  0  0  0  0  0  0  0
    8.3014  -13.7167   21.9874 C   0  0  0  0  0  0  0  0  0  0  0  0
    9.4154  -13.1788   22.0639 O   0  0  0  0  0  0  0  0  0  0  0  0
    7.6847  -14.1586   23.1830 N   0  0  0  0  0  0  0  0  0  0  0  0
    8.3132  -14.2294   24.4601 C   0  0  1  0  0  0  0  0  0  0  0  0
    7.6119  -13.3735   25.4826 C   0  0  0  0  0  0  0  0  0  0  0  0
    5.8457  -13.7249   25.4574 S   0  0  0  0  0  0  0  0  0  0  0  0
    8.5125  -15.6205   24.9372 C   0  0  0  0  0  0  0  0  0  0  0  0
    7.5413  -16.4113   24.9005 O   0  0  0  0  0  0  0  0  0  0  0  0
    9.7476  -16.1087   25.4349 N   0  0  0  0  0  0  0  0  0  0  0  0
    9.9413  -17.4639   25.9013 C   0  0  1  0  0  0  0  0  0  0  0  0
   11.1886  -17.9887   25.1805 C   0  0  0  0  0  0  0  0  0  0  0  0
   12.3176  -16.5904   24.9727 S   0  0  0  0  0  0  0  0  0  0  0  0
   10.1659  -17.5491   27.3540 C   0  0  0  0  0  0  0  0  0  0  0  0
   10.2611  -16.5063   28.0361 O   0  0  0  0  0  0  0  0  0  0  0  0
   10.2753  -18.7709   27.9864 O   0  0  0  0  0  0  0  0  0  0  0  0
  2  4  1  0
  2  1  1  0
  3  2  2  0
  5  7  1  0
  5  4  1  0
  5  6  1  6
  7  9  1  0
  8  7  2  0
  9 10  1  0
 10 13  1  0
 11 12  1  0
 10 11  1  1
 13 15  1  0
 13 14  2  0
 15 16  1  0
 16 19  1  0
 16 17  1  6
 18 17  1  0
 19 21  1  0
 20 19  2  0
M  END
$$$$
