NCC.pdb
     RDKit          3D

 21 20  0  0  1  0  0  0  0  0999 V2000
   13.2578  -18.5135   19.5271 N   0  0  0  0  0  0  0  0  0  0  0  0
   12.1805  -18.3088   18.6212 C   0  0  0  0  0  0  0  0  0  0  0  0
   12.1376  -19.0276   17.5909 O   0  0  0  0  0  0  0  0  0  0  0  0
   11.1740  -17.2627   18.9441 C   0  0  0  0  0  0  0  0  0  0  0  0
   10.9284  -17.3050   20.4166 C   0  0  2  0  0  0  0  0  0  0  0  0
   10.1541  -18.4594   20.7424 N   0  0  0  0  0  0  0  0  0  0  0  0
   10.3646  -16.0479   20.9624 C   0  0  0  0  0  0  0  0  0  0  0  0
   11.1264  -15.1635   21.3791 O   0  0  0  0  0  0  0  0  0  0  0  0
    8.9688  -15.8180   21.0265 N   0  0  0  0  0  0  0  0  0  0  0  0
    8.3423  -14.7079   21.6640 C   0  0  1  0  0  0  0  0  0  0  0  0
    6.9248  -14.5126   21.1924 C   0  0  0  0  0  0  0  0  0  0  0  0
    5.8687  -15.7854   21.9053 S   0  0  0  0  0  0  0  0  0  0  0  0
    8.4380  -14.7534   23.1442 C   0  0  0  0  0  0  0  0  0  0  0  0
    8.1099  -13.7356   23.7973 O   0  0  0  0  0  0  0  0  0  0  0  0
    8.8818  -15.8907   23.8661 N   0  0  0  0  0  0  0  0  0  0  0  0
    8.9894  -15.9299   25.3077 C   0  0  1  0  0  0  0  0  0  0  0  0
    7.5597  -15.7974   25.8457 C   0  0  0  0  0  0  0  0  0  0  0  0
    6.7850  -17.4274   25.7207 S   0  0  0  0  0  0  0  0  0  0  0  0
    9.5672  -17.1873   25.8108 C   0  0  0  0  0  0  0  0  0  0  0  0
    9.8200  -18.1217   25.0203 O   0  0  0  0  0  0  0  0  0  0  0  0
    9.8387  -17.3585   27.1530 O   0  0  0  0  0  0  0  0  0  0  0  0
  2  4  1  0
  2  1  1  0
  3  2  2  0
  5  7  1  0
  5  4  1  0
  5  6  1  6
  7  9  1  0
  8  7  2  0
  9 10  1  0
 10 13  1  0
 11 12  1  0
 10 11  1  1
 13 15  1  0
 13 14  2  0
 15 16  1  0
 16 19  1  0
 16 17  1  1
 18 17  1  0
 19 21  1  0
 20 19  2  0
M  END
$$$$
