NCC.pdb
     RDKit          3D

 21 20  0  0  1  0  0  0  0  0999 V2000
    9.9624  -17.6520   14.5073 N   0  0  0  0  0  0  0  0  0  0  0  0
   10.1060  -16.2657   14.2236 C   0  0  0  0  0  0  0  0  0  0  0  0
   10.2810  -15.9285   13.0253 O   0  0  0  0  0  0  0  0  0  0  0  0
   10.0408  -15.3019   15.3543 C   0  0  0  0  0  0  0  0  0  0  0  0
    8.6013  -15.0904   15.6910 C   0  0  2  0  0  0  0  0  0  0  0  0
    7.9639  -14.3611   14.6421 N   0  0  0  0  0  0  0  0  0  0  0  0
    8.3844  -14.4984   17.0322 C   0  0  0  0  0  0  0  0  0  0  0  0
    8.5621  -13.2838   17.2031 O   0  0  0  0  0  0  0  0  0  0  0  0
    7.9768  -15.2806   18.1399 N   0  0  0  0  0  0  0  0  0  0  0  0
    7.7833  -14.7975   19.4666 C   0  0  1  0  0  0  0  0  0  0  0  0
    6.3546  -14.9500   19.9200 C   0  0  0  0  0  0  0  0  0  0  0  0
    5.9146  -16.6959   19.9585 S   0  0  0  0  0  0  0  0  0  0  0  0
    8.7439  -15.3691   20.4428 C   0  0  0  0  0  0  0  0  0  0  0  0
    9.3163  -16.4470   20.1591 O   0  0  0  0  0  0  0  0  0  0  0  0
    9.0530  -14.7605   21.6860 N   0  0  0  0  0  0  0  0  0  0  0  0
    9.8129  -15.4143   22.7284 C   0  0  1  0  0  0  0  0  0  0  0  0
    9.5117  -14.6465   24.0210 C   0  0  0  0  0  0  0  0  0  0  0  0
   10.5508  -15.3547   25.3215 S   0  0  0  0  0  0  0  0  0  0  0  0
    9.4372  -16.8250   22.9202 C   0  0  0  0  0  0  0  0  0  0  0  0
    8.2324  -17.1570   22.9322 O   0  0  0  0  0  0  0  0  0  0  0  0
   10.3986  -17.8005   23.0894 O   0  0  0  0  0  0  0  0  0  0  0  0
  2  4  1  0
  2  1  1  0
  3  2  2  0
  5  7  1  0
  5  4  1  0
  5  6  1  6
  7  9  1  0
  8  7  2  0
  9 10  1  0
 10 13  1  0
 11 12  1  0
 10 11  1  1
 13 15  1  0
 13 14  2  0
 15 16  1  0
 16 19  1  0
 16 17  1  1
 18 17  1  0
 19 21  1  0
 20 19  2  0
M  END
$$$$
