NCC.pdb
     RDKit          3D

 21 20  0  0  1  0  0  0  0  0999 V2000
   10.7770  -17.1655   16.2965 N   0  0  0  0  0  0  0  0  0  0  0  0
   11.5128  -17.6000   17.4336 C   0  0  0  0  0  0  0  0  0  0  0  0
   12.1807  -18.6597   17.3285 O   0  0  0  0  0  0  0  0  0  0  0  0
   11.4494  -16.7801   18.6726 C   0  0  0  0  0  0  0  0  0  0  0  0
   11.0424  -17.6786   19.7939 C   0  0  2  0  0  0  0  0  0  0  0  0
    9.7696  -18.2588   19.5079 N   0  0  0  0  0  0  0  0  0  0  0  0
   11.1065  -17.0339   21.1267 C   0  0  0  0  0  0  0  0  0  0  0  0
   12.1772  -16.5535   21.5254 O   0  0  0  0  0  0  0  0  0  0  0  0
    9.9742  -16.9463   21.9724 N   0  0  0  0  0  0  0  0  0  0  0  0
    9.9778  -16.4565   23.3107 C   0  0  1  0  0  0  0  0  0  0  0  0
    8.6798  -15.7801   23.6677 C   0  0  0  0  0  0  0  0  0  0  0  0
    8.6914  -15.3294   25.4114 S   0  0  0  0  0  0  0  0  0  0  0  0
   10.3657  -17.4844   24.3084 C   0  0  0  0  0  0  0  0  0  0  0  0
    9.7152  -18.5546   24.3497 O   0  0  0  0  0  0  0  0  0  0  0  0
   11.4377  -17.3235   25.2228 N   0  0  0  0  0  0  0  0  0  0  0  0
   11.8094  -18.3212   26.2016 C   0  0  1  0  0  0  0  0  0  0  0  0
   13.3264  -18.5018   26.0714 C   0  0  0  0  0  0  0  0  0  0  0  0
   13.8293  -19.7288   27.3020 S   0  0  0  0  0  0  0  0  0  0  0  0
   11.4999  -17.9191   27.5838 C   0  0  0  0  0  0  0  0  0  0  0  0
   11.0655  -16.7714   27.8207 O   0  0  0  0  0  0  0  0  0  0  0  0
   11.6817  -18.7928   28.6365 O   0  0  0  0  0  0  0  0  0  0  0  0
  2  4  1  0
  2  1  1  0
  3  2  2  0
  5  7  1  0
  5  4  1  0
  5  6  1  6
  7  9  1  0
  8  7  2  0
  9 10  1  0
 10 13  1  0
 11 12  1  0
 10 11  1  1
 13 15  1  0
 13 14  2  0
 15 16  1  0
 16 19  1  0
 16 17  1  1
 18 17  1  0
 19 21  1  0
 20 19  2  0
M  END
$$$$
