NCC.pdb
     RDKit          3D

 21 20  0  0  1  0  0  0  0  0999 V2000
    7.3942  -14.1277   14.4907 N   0  0  0  0  0  0  0  0  0  0  0  0
    8.4898  -14.6417   15.2381 C   0  0  0  0  0  0  0  0  0  0  0  0
    9.3197  -15.3685   14.6355 O   0  0  0  0  0  0  0  0  0  0  0  0
    8.5888  -14.2913   16.6800 C   0  0  0  0  0  0  0  0  0  0  0  0
    8.9624  -15.5300   17.4259 C   0  0  2  0  0  0  0  0  0  0  0  0
    7.9045  -16.4844   17.3345 N   0  0  0  0  0  0  0  0  0  0  0  0
    9.4044  -15.2765   18.8175 C   0  0  0  0  0  0  0  0  0  0  0  0
   10.6090  -15.1121   19.0586 O   0  0  0  0  0  0  0  0  0  0  0  0
    8.4885  -15.2151   19.8956 N   0  0  0  0  0  0  0  0  0  0  0  0
    8.8372  -15.0613   21.2688 C   0  0  1  0  0  0  0  0  0  0  0  0
    7.6310  -14.7932   22.1308 C   0  0  0  0  0  0  0  0  0  0  0  0
    6.9043  -13.2084   21.6796 S   0  0  0  0  0  0  0  0  0  0  0  0
    9.6608  -16.1797   21.7916 C   0  0  0  0  0  0  0  0  0  0  0  0
    9.4469  -17.3353   21.3570 O   0  0  0  0  0  0  0  0  0  0  0  0
   10.6829  -16.0136   22.7607 N   0  0  0  0  0  0  0  0  0  0  0  0
   11.3919  -17.1165   23.3710 C   0  0  1  0  0  0  0  0  0  0  0  0
   12.8765  -16.7340   23.3476 C   0  0  0  0  0  0  0  0  0  0  0  0
   13.7943  -18.0945   24.1089 S   0  0  0  0  0  0  0  0  0  0  0  0
   10.9905  -17.3612   24.7663 C   0  0  0  0  0  0  0  0  0  0  0  0
   10.9011  -18.5309   25.1972 O   0  0  0  0  0  0  0  0  0  0  0  0
   10.7071  -16.3138   25.6191 O   0  0  0  0  0  0  0  0  0  0  0  0
  2  4  1  0
  2  1  1  0
  3  2  2  0
  5  7  1  0
  5  4  1  0
  5  6  1  1
  7  9  1  0
  8  7  2  0
  9 10  1  0
 10 13  1  0
 11 12  1  0
 10 11  1  1
 13 15  1  0
 13 14  2  0
 15 16  1  0
 16 19  1  0
 16 17  1  1
 18 17  1  0
 19 21  1  0
 20 19  2  0
M  END
$$$$
