NCC.pdb
     RDKit          3D

 21 20  0  0  1  0  0  0  0  0999 V2000
    5.6001  -23.1652   20.8161 N   0  0  0  0  0  0  0  0  0  0  0  0
    5.4561  -22.6538   22.1355 C   0  0  0  0  0  0  0  0  0  0  0  0
    4.4920  -23.0739   22.8241 O   0  0  0  0  0  0  0  0  0  0  0  0
    6.4487  -21.6581   22.6203 C   0  0  0  0  0  0  0  0  0  0  0  0
    7.2704  -22.3128   23.6818 C   0  0  2  0  0  0  0  0  0  0  0  0
    6.4391  -23.1495   24.4864 N   0  0  0  0  0  0  0  0  0  0  0  0
    8.0868  -21.3626   24.4734 C   0  0  0  0  0  0  0  0  0  0  0  0
    8.8397  -20.5679   23.8922 O   0  0  0  0  0  0  0  0  0  0  0  0
    8.0376  -21.3297   25.8881 N   0  0  0  0  0  0  0  0  0  0  0  0
    8.8232  -20.4833   26.7232 C   0  0  1  0  0  0  0  0  0  0  0  0
    7.9971  -19.8278   27.7992 C   0  0  0  0  0  0  0  0  0  0  0  0
    6.2479  -20.1089   27.4753 S   0  0  0  0  0  0  0  0  0  0  0  0
   10.0251  -21.1577   27.2738 C   0  0  0  0  0  0  0  0  0  0  0  0
    9.8729  -22.2227   27.9162 O   0  0  0  0  0  0  0  0  0  0  0  0
   11.3443  -20.6624   27.1127 N   0  0  0  0  0  0  0  0  0  0  0  0
   12.5191  -21.3415   27.6127 C   0  0  1  0  0  0  0  0  0  0  0  0
   13.4424  -21.5412   26.4050 C   0  0  0  0  0  0  0  0  0  0  0  0
   13.6068  -19.9380   25.5831 S   0  0  0  0  0  0  0  0  0  0  0  0
   13.2426  -20.5686   28.6359 C   0  0  0  0  0  0  0  0  0  0  0  0
   14.2699  -21.0406   29.1685 O   0  0  0  0  0  0  0  0  0  0  0  0
   12.8052  -19.3187   29.0247 O   0  0  0  0  0  0  0  0  0  0  0  0
  2  4  1  0
  2  1  1  0
  3  2  2  0
  5  7  1  0
  5  4  1  0
  5  6  1  1
  7  9  1  0
  8  7  2  0
  9 10  1  0
 10 13  1  0
 11 12  1  0
 10 11  1  1
 13 15  1  0
 13 14  2  0
 15 16  1  0
 16 19  1  0
 16 17  1  6
 18 17  1  0
 19 21  1  0
 20 19  2  0
M  END
$$$$
