NCC.pdb
     RDKit          3D

 21 20  0  0  1  0  0  0  0  0999 V2000
   10.6513  -19.2194   12.7668 N   0  0  0  0  0  0  0  0  0  0  0  0
   10.9371  -17.9220   12.2589 C   0  0  0  0  0  0  0  0  0  0  0  0
   10.7022  -17.7045   11.0433 O   0  0  0  0  0  0  0  0  0  0  0  0
   11.4936  -16.9047   13.1900 C   0  0  0  0  0  0  0  0  0  0  0  0
   10.3464  -16.1650   13.7960 C   0  0  2  0  0  0  0  0  0  0  0  0
    9.6987  -15.3785   12.7958 N   0  0  0  0  0  0  0  0  0  0  0  0
   10.7099  -15.3907   15.0062 C   0  0  0  0  0  0  0  0  0  0  0  0
   11.4209  -14.3812   14.8984 O   0  0  0  0  0  0  0  0  0  0  0  0
   10.2690  -15.7677   16.2979 N   0  0  0  0  0  0  0  0  0  0  0  0
   10.6891  -15.1706   17.5218 C   0  0  1  0  0  0  0  0  0  0  0  0
    9.6767  -15.3637   18.6207 C   0  0  0  0  0  0  0  0  0  0  0  0
   10.3548  -14.7700   20.1799 S   0  0  0  0  0  0  0  0  0  0  0  0
   12.0518  -15.5861   17.9375 C   0  0  0  0  0  0  0  0  0  0  0  0
   12.3159  -16.8099   17.9870 O   0  0  0  0  0  0  0  0  0  0  0  0
   13.0786  -14.6709   18.2834 N   0  0  0  0  0  0  0  0  0  0  0  0
   14.3942  -15.0764   18.7263 C   0  0  1  0  0  0  0  0  0  0  0  0
   15.2548  -13.8075   18.7236 C   0  0  0  0  0  0  0  0  0  0  0  0
   16.9240  -14.2889   19.2285 S   0  0  0  0  0  0  0  0  0  0  0  0
   14.3977  -15.6450   20.0844 C   0  0  0  0  0  0  0  0  0  0  0  0
   13.6898  -15.1355   20.9794 O   0  0  0  0  0  0  0  0  0  0  0  0
   15.1758  -16.7419   20.3944 O   0  0  0  0  0  0  0  0  0  0  0  0
  2  4  1  0
  2  1  1  0
  3  2  2  0
  5  7  1  0
  5  4  1  0
  5  6  1  6
  7  9  1  0
  8  7  2  0
  9 10  1  0
 10 13  1  0
 11 12  1  0
 10 11  1  1
 13 15  1  0
 13 14  2  0
 15 16  1  0
 16 19  1  0
 16 17  1  1
 18 17  1  0
 19 21  1  0
 20 19  2  0
M  END
$$$$
