NCC.pdb
     RDKit          3D

 21 20  0  0  1  0  0  0  0  0999 V2000
    7.3137  -17.4570   18.6506 N   0  0  0  0  0  0  0  0  0  0  0  0
    8.4331  -16.6128   18.4112 C   0  0  0  0  0  0  0  0  0  0  0  0
    8.9217  -16.6031   17.2531 O   0  0  0  0  0  0  0  0  0  0  0  0
    8.9566  -15.7959   19.5382 C   0  0  0  0  0  0  0  0  0  0  0  0
    8.1815  -16.1575   20.7624 C   0  0  2  0  0  0  0  0  0  0  0  0
    6.8232  -15.7445   20.6115 N   0  0  0  0  0  0  0  0  0  0  0  0
    8.8019  -15.6828   22.0217 C   0  0  0  0  0  0  0  0  0  0  0  0
    9.9851  -15.9599   22.2656 O   0  0  0  0  0  0  0  0  0  0  0  0
    8.0824  -14.9146   22.9689 N   0  0  0  0  0  0  0  0  0  0  0  0
    8.5274  -14.5965   24.2849 C   0  0  1  0  0  0  0  0  0  0  0  0
    7.7753  -13.4286   24.8682 C   0  0  0  0  0  0  0  0  0  0  0  0
    6.0859  -13.9247   25.2468 S   0  0  0  0  0  0  0  0  0  0  0  0
    8.5380  -15.7669   25.1973 C   0  0  0  0  0  0  0  0  0  0  0  0
    7.6661  -16.6536   25.0443 O   0  0  0  0  0  0  0  0  0  0  0  0
    9.4851  -15.9399   26.2387 N   0  0  0  0  0  0  0  0  0  0  0  0
    9.7767  -17.2181   26.8491 C   0  0  1  0  0  0  0  0  0  0  0  0
   10.4223  -18.0759   25.7544 C   0  0  0  0  0  0  0  0  0  0  0  0
   10.8939  -19.6494   26.5125 S   0  0  0  0  0  0  0  0  0  0  0  0
   10.7117  -17.1184   27.9820 C   0  0  0  0  0  0  0  0  0  0  0  0
   10.9824  -18.1309   28.6628 O   0  0  0  0  0  0  0  0  0  0  0  0
   11.3027  -15.9159   28.3129 O   0  0  0  0  0  0  0  0  0  0  0  0
  2  4  1  0
  2  1  1  0
  3  2  2  0
  5  7  1  0
  5  4  1  0
  5  6  1  6
  7  9  1  0
  8  7  2  0
  9 10  1  0
 10 13  1  0
 11 12  1  0
 10 11  1  1
 13 15  1  0
 13 14  2  0
 15 16  1  0
 16 19  1  0
 16 17  1  6
 18 17  1  0
 19 21  1  0
 20 19  2  0
M  END
$$$$
