NCC.pdb
     RDKit          3D

 21 20  0  0  1  0  0  0  0  0999 V2000
    9.3808  -17.9906   15.5108 N   0  0  0  0  0  0  0  0  0  0  0  0
   10.5313  -18.4509   16.2090 C   0  0  0  0  0  0  0  0  0  0  0  0
   11.3521  -19.1642   15.5783 O   0  0  0  0  0  0  0  0  0  0  0  0
   10.6950  -18.0638   17.6354 C   0  0  0  0  0  0  0  0  0  0  0  0
   11.3104  -19.2193   18.3540 C   0  0  2  0  0  0  0  0  0  0  0  0
   10.4030  -20.3216   18.3587 N   0  0  0  0  0  0  0  0  0  0  0  0
   11.8240  -18.8773   19.7014 C   0  0  0  0  0  0  0  0  0  0  0  0
   12.7279  -18.0374   19.8188 O   0  0  0  0  0  0  0  0  0  0  0  0
   11.3132  -19.4837   20.8746 N   0  0  0  0  0  0  0  0  0  0  0  0
   11.7873  -19.2522   22.1985 C   0  0  1  0  0  0  0  0  0  0  0  0
   10.6578  -19.0667   23.1781 C   0  0  0  0  0  0  0  0  0  0  0  0
   11.3256  -18.8135   24.8314 S   0  0  0  0  0  0  0  0  0  0  0  0
   12.7632  -20.2720   22.6567 C   0  0  0  0  0  0  0  0  0  0  0  0
   12.4099  -21.4741   22.6740 O   0  0  0  0  0  0  0  0  0  0  0  0
   14.0813  -19.9615   23.0782 N   0  0  0  0  0  0  0  0  0  0  0  0
   15.0507  -20.9603   23.4706 C   0  0  1  0  0  0  0  0  0  0  0  0
   16.3920  -20.5070   22.8821 C   0  0  0  0  0  0  0  0  0  0  0  0
   16.2036  -20.4661   21.0834 S   0  0  0  0  0  0  0  0  0  0  0  0
   15.1949  -21.0845   24.9306 C   0  0  0  0  0  0  0  0  0  0  0  0
   14.5369  -20.3425   25.6911 O   0  0  0  0  0  0  0  0  0  0  0  0
   16.0518  -22.0139   25.4844 O   0  0  0  0  0  0  0  0  0  0  0  0
  2  4  1  0
  2  1  1  0
  3  2  2  0
  5  7  1  0
  5  4  1  0
  5  6  1  1
  7  9  1  0
  8  7  2  0
  9 10  1  0
 10 13  1  0
 11 12  1  0
 10 11  1  1
 13 15  1  0
 13 14  2  0
 15 16  1  0
 16 19  1  0
 16 17  1  6
 18 17  1  0
 19 21  1  0
 20 19  2  0
M  END
$$$$
