NCC.pdb
     RDKit          3D

 21 20  0  0  1  0  0  0  0  0999 V2000
    8.4935  -17.1589   16.6771 N   0  0  0  0  0  0  0  0  0  0  0  0
    8.8745  -17.9938   17.7637 C   0  0  0  0  0  0  0  0  0  0  0  0
    9.9137  -18.6887   17.6314 O   0  0  0  0  0  0  0  0  0  0  0  0
    8.0266  -17.9958   18.9853 C   0  0  0  0  0  0  0  0  0  0  0  0
    8.6546  -17.0737   19.9781 C   0  0  2  0  0  0  0  0  0  0  0  0
    9.8629  -17.6507   20.4735 N   0  0  0  0  0  0  0  0  0  0  0  0
    7.7311  -16.6359   21.0513 C   0  0  0  0  0  0  0  0  0  0  0  0
    6.6477  -16.1130   20.7533 O   0  0  0  0  0  0  0  0  0  0  0  0
    8.0461  -16.7951   22.4226 N   0  0  0  0  0  0  0  0  0  0  0  0
    7.2219  -16.3906   23.5125 C   0  0  1  0  0  0  0  0  0  0  0  0
    6.9521  -17.5243   24.4673 C   0  0  0  0  0  0  0  0  0  0  0  0
    8.4848  -18.0103   25.2787 S   0  0  0  0  0  0  0  0  0  0  0  0
    7.7258  -15.1808   24.2090 C   0  0  0  0  0  0  0  0  0  0  0  0
    8.9613  -14.9731   24.2307 O   0  0  0  0  0  0  0  0  0  0  0  0
    6.8832  -14.2405   24.8548 N   0  0  0  0  0  0  0  0  0  0  0  0
    7.3736  -13.1895   25.7188 C   0  0  1  0  0  0  0  0  0  0  0  0
    6.1457  -12.3694   26.1318 C   0  0  0  0  0  0  0  0  0  0  0  0
    6.7325  -11.0076   27.1681 S   0  0  0  0  0  0  0  0  0  0  0  0
    8.0302  -13.6989   26.9341 C   0  0  0  0  0  0  0  0  0  0  0  0
    7.6824  -14.7956   27.4221 O   0  0  0  0  0  0  0  0  0  0  0  0
    9.0338  -12.9825   27.5540 O   0  0  0  0  0  0  0  0  0  0  0  0
  2  4  1  0
  2  1  1  0
  3  2  2  0
  5  7  1  0
  5  4  1  0
  5  6  1  1
  7  9  1  0
  8  7  2  0
  9 10  1  0
 10 13  1  0
 11 12  1  0
 10 11  1  1
 13 15  1  0
 13 14  2  0
 15 16  1  0
 16 19  1  0
 16 17  1  1
 18 17  1  0
 19 21  1  0
 20 19  2  0
M  END
$$$$
