TWW.pdb
     RDKit          3D

 36 39  0  0  1  0  0  0  0  0999 V2000
   25.7489  -19.2277  -15.0944 C   0  0  0  0  0  0  0  0  0  0  0  0
   25.4099  -19.9227  -13.8168 C   0  0  1  0  0  0  0  0  0  0  0  0
   24.2952  -20.7661  -13.9413 O   0  0  0  0  0  0  0  0  0  0  0  0
   26.5621  -20.6724  -13.2027 C   0  0  2  0  0  0  0  0  0  0  0  0
   27.0252  -21.7454  -14.0428 N   0  0  0  0  0  0  0  0  0  0  0  0
   26.1731  -21.1413  -11.8566 C   0  0  0  0  0  0  0  0  0  0  0  0
   25.8431  -22.3409  -11.7012 O   0  0  0  0  0  0  0  0  0  0  0  0
   26.1667  -20.2759  -10.7588 N   0  0  0  0  0  0  0  0  0  0  0  0
   25.8088  -20.6558   -9.4092 C   0  0  1  0  0  0  0  0  0  0  0  0
   26.4531  -19.6694   -8.4323 C   0  0  0  0  0  0  0  0  0  0  0  0
   27.6712  -20.2238   -7.8225 C   0  0  0  0  0  0  0  0  0  0  0  0
   28.5593  -21.0864   -8.4333 C   0  0  0  0  0  0  0  0  0  0  0  0
   29.5582  -21.3888   -7.5830 N   0  0  0  0  0  0  0  0  0  0  0  0
   29.3366  -20.7363   -6.4247 C   0  0  0  0  0  0  0  0  0  0  0  0
   29.9960  -20.6556   -5.2175 C   0  0  0  0  0  0  0  0  0  0  0  0
   29.5243  -19.8856   -4.1747 C   0  0  0  0  0  0  0  0  0  0  0  0
   28.3568  -19.1732   -4.3426 C   0  0  0  0  0  0  0  0  0  0  0  0
   27.6630  -19.2229   -5.5315 C   0  0  0  0  0  0  0  0  0  0  0  0
   28.1629  -20.0023   -6.5522 C   0  0  0  0  0  0  0  0  0  0  0  0
   24.3380  -20.5295   -9.2702 C   0  0  0  0  0  0  0  0  0  0  0  0
   23.7073  -19.5029   -9.6668 O   0  0  0  0  0  0  0  0  0  0  0  0
   23.5684  -21.5616   -8.6824 N   0  0  0  0  0  0  0  0  0  0  0  0
   22.1420  -21.4435   -8.4637 C   0  0  1  0  0  0  0  0  0  0  0  0
   21.4970  -22.6013   -9.2000 C   0  0  0  0  0  0  0  0  0  0  0  0
   20.0307  -22.6130   -9.1031 C   0  0  0  0  0  0  0  0  0  0  0  0
   19.1548  -21.9678   -9.9487 C   0  0  0  0  0  0  0  0  0  0  0  0
   17.9125  -22.2348   -9.5092 N   0  0  0  0  0  0  0  0  0  0  0  0
   17.9670  -23.0236   -8.4191 C   0  0  0  0  0  0  0  0  0  0  0  0
   16.9776  -23.5592   -7.6220 C   0  0  0  0  0  0  0  0  0  0  0  0
   17.3672  -24.3441   -6.5563 C   0  0  0  0  0  0  0  0  0  0  0  0
   18.6854  -24.6110   -6.2598 C   0  0  0  0  0  0  0  0  0  0  0  0
   19.6690  -24.0767   -7.0547 C   0  0  0  0  0  0  0  0  0  0  0  0
   19.2919  -23.2906   -8.1227 C   0  0  0  0  0  0  0  0  0  0  0  0
   21.8883  -21.4847   -7.0145 C   0  0  0  0  0  0  0  0  0  0  0  0
   20.7631  -20.9434   -6.4120 O   0  0  0  0  0  0  0  0  0  0  0  0
   22.7364  -22.0413   -6.2727 O   0  0  0  0  0  0  0  0  0  0  0  0
  2  1  1  6
  2  3  1  0
  4  2  1  0
  4  5  1  6
  6  7  2  0
  6  4  1  0
  8  6  1  0
  9  8  1  0
  9 10  1  1
 11 10  1  0
 11 19  1  0
 12 13  1  0
 12 11  2  0
 13 14  1  0
 14 15  2  0
 14 19  1  0
 15 16  1  0
 16 17  2  0
 18 17  1  0
 19 18  2  0
 20 21  2  0
 20  9  1  0
 22 20  1  0
 23 22  1  0
 23 24  1  6
 25 24  1  0
 25 26  2  0
 27 26  1  0
 28 27  1  0
 29 28  2  0
 30 29  1  0
 31 30  2  0
 31 32  1  0
 32 33  2  0
 33 28  1  0
 33 25  1  0
 34 23  1  0
 35 34  1  0
 36 34  2  0
M  END
$$$$
