TWW.pdb
     RDKit          3D

 36 39  0  0  1  0  0  0  0  0999 V2000
   29.1156  -21.7876  -19.7679 C   0  0  0  0  0  0  0  0  0  0  0  0
   28.3061  -22.0407  -18.5387 C   0  0  1  0  0  0  0  0  0  0  0  0
   27.1387  -22.7730  -18.8035 O   0  0  0  0  0  0  0  0  0  0  0  0
   29.0788  -22.6832  -17.4177 C   0  0  2  0  0  0  0  0  0  0  0  0
   29.5058  -24.0185  -17.7439 N   0  0  0  0  0  0  0  0  0  0  0  0
   28.2688  -22.6390  -16.1827 C   0  0  0  0  0  0  0  0  0  0  0  0
   27.6149  -23.6546  -15.8464 O   0  0  0  0  0  0  0  0  0  0  0  0
   28.2189  -21.4910  -15.3866 N   0  0  0  0  0  0  0  0  0  0  0  0
   27.4010  -21.3418  -14.2022 C   0  0  1  0  0  0  0  0  0  0  0  0
   27.9312  -20.1631  -13.3826 C   0  0  0  0  0  0  0  0  0  0  0  0
   27.2714  -20.0706  -12.0714 C   0  0  0  0  0  0  0  0  0  0  0  0
   26.0415  -19.4938  -11.8253 C   0  0  0  0  0  0  0  0  0  0  0  0
   25.7490  -19.5870  -10.5146 N   0  0  0  0  0  0  0  0  0  0  0  0
   26.7696  -20.2168   -9.8995 C   0  0  0  0  0  0  0  0  0  0  0  0
   27.0347  -20.5898   -8.5999 C   0  0  0  0  0  0  0  0  0  0  0  0
   28.1976  -21.2427   -8.2474 C   0  0  0  0  0  0  0  0  0  0  0  0
   29.1256  -21.5325   -9.2239 C   0  0  0  0  0  0  0  0  0  0  0  0
   28.9043  -21.1791  -10.5367 C   0  0  0  0  0  0  0  0  0  0  0  0
   27.7318  -20.5279  -10.8535 C   0  0  0  0  0  0  0  0  0  0  0  0
   26.0231  -21.0049  -14.6338 C   0  0  0  0  0  0  0  0  0  0  0  0
   25.7909  -20.2752  -15.6450 O   0  0  0  0  0  0  0  0  0  0  0  0
   24.8970  -21.4896  -13.9267 N   0  0  0  0  0  0  0  0  0  0  0  0
   23.5820  -21.5862  -14.5251 C   0  0  1  0  0  0  0  0  0  0  0  0
   22.6110  -21.8440  -13.3897 C   0  0  0  0  0  0  0  0  0  0  0  0
   22.1724  -20.6200  -12.7048 C   0  0  0  0  0  0  0  0  0  0  0  0
   21.8410  -19.4257  -13.3067 C   0  0  0  0  0  0  0  0  0  0  0  0
   21.4976  -18.5715  -12.3269 N   0  0  0  0  0  0  0  0  0  0  0  0
   21.5984  -19.1775  -11.1285 C   0  0  0  0  0  0  0  0  0  0  0  0
   21.3592  -18.7264   -9.8477 C   0  0  0  0  0  0  0  0  0  0  0  0
   21.5597  -19.6112   -8.8081 C   0  0  0  0  0  0  0  0  0  0  0  0
   21.9831  -20.9084   -8.9943 C   0  0  0  0  0  0  0  0  0  0  0  0
   22.2207  -21.3555  -10.2705 C   0  0  0  0  0  0  0  0  0  0  0  0
   22.0238  -20.4804  -11.3174 C   0  0  0  0  0  0  0  0  0  0  0  0
   23.2999  -20.3278  -15.2343 C   0  0  0  0  0  0  0  0  0  0  0  0
   24.0633  -19.1783  -15.1004 O   0  0  0  0  0  0  0  0  0  0  0  0
   22.3109  -20.2842  -16.0085 O   0  0  0  0  0  0  0  0  0  0  0  0
  2  1  1  6
  2  3  1  0
  4  2  1  0
  4  5  1  6
  6  7  2  0
  6  4  1  0
  8  6  1  0
  9  8  1  0
  9 10  1  1
 11 10  1  0
 11 19  1  0
 12 13  1  0
 12 11  2  0
 13 14  1  0
 14 15  2  0
 14 19  1  0
 15 16  1  0
 16 17  2  0
 18 17  1  0
 19 18  2  0
 20 21  2  0
 20  9  1  0
 22 20  1  0
 23 22  1  0
 23 24  1  1
 25 24  1  0
 25 26  2  0
 27 26  1  0
 28 27  1  0
 29 28  2  0
 30 29  1  0
 31 30  2  0
 31 32  1  0
 32 33  2  0
 33 28  1  0
 33 25  1  0
 34 23  1  0
 35 34  1  0
 36 34  2  0
M  END
$$$$
