TWW.pdb
     RDKit          3D

 36 39  0  0  1  0  0  0  0  0999 V2000
   25.7302  -24.2723  -14.8736 C   0  0  0  0  0  0  0  0  0  0  0  0
   26.4807  -23.8596  -16.0970 C   0  0  1  0  0  0  0  0  0  0  0  0
   26.2236  -24.6952  -17.1946 O   0  0  0  0  0  0  0  0  0  0  0  0
   26.2781  -22.4185  -16.4830 C   0  0  2  0  0  0  0  0  0  0  0  0
   26.9460  -22.0837  -17.7133 N   0  0  0  0  0  0  0  0  0  0  0  0
   26.6989  -21.5525  -15.3623 C   0  0  0  0  0  0  0  0  0  0  0  0
   27.8920  -21.1719  -15.3012 O   0  0  0  0  0  0  0  0  0  0  0  0
   25.7951  -21.1517  -14.3741 N   0  0  0  0  0  0  0  0  0  0  0  0
   26.0963  -20.2220  -13.3068 C   0  0  1  0  0  0  0  0  0  0  0  0
   25.1037  -19.0589  -13.3718 C   0  0  0  0  0  0  0  0  0  0  0  0
   25.5701  -17.9944  -14.2731 C   0  0  0  0  0  0  0  0  0  0  0  0
   26.6412  -17.1540  -14.0440 C   0  0  0  0  0  0  0  0  0  0  0  0
   26.7810  -16.3025  -15.0772 N   0  0  0  0  0  0  0  0  0  0  0  0
   25.8169  -16.5736  -15.9792 C   0  0  0  0  0  0  0  0  0  0  0  0
   25.4618  -16.0506  -17.2035 C   0  0  0  0  0  0  0  0  0  0  0  0
   24.3952  -16.5404  -17.9283 C   0  0  0  0  0  0  0  0  0  0  0  0
   23.6597  -17.5862  -17.4143 C   0  0  0  0  0  0  0  0  0  0  0  0
   23.9771  -18.1413  -16.1943 C   0  0  0  0  0  0  0  0  0  0  0  0
   25.0488  -17.6273  -15.4970 C   0  0  0  0  0  0  0  0  0  0  0  0
   25.8863  -20.9199  -12.0156 C   0  0  0  0  0  0  0  0  0  0  0  0
   24.9543  -21.7637  -11.8470 O   0  0  0  0  0  0  0  0  0  0  0  0
   26.7272  -20.6703  -10.9050 N   0  0  0  0  0  0  0  0  0  0  0  0
   26.5793  -21.3638   -9.6426 C   0  0  1  0  0  0  0  0  0  0  0  0
   27.8906  -21.1916   -8.9013 C   0  0  0  0  0  0  0  0  0  0  0  0
   27.8314  -20.1847   -7.8325 C   0  0  0  0  0  0  0  0  0  0  0  0
   27.0683  -19.0376   -7.8375 C   0  0  0  0  0  0  0  0  0  0  0  0
   27.3064  -18.3997   -6.6781 N   0  0  0  0  0  0  0  0  0  0  0  0
   28.1899  -19.0976   -5.9392 C   0  0  0  0  0  0  0  0  0  0  0  0
   28.7397  -18.8597   -4.6973 C   0  0  0  0  0  0  0  0  0  0  0  0
   29.6349  -19.7865   -4.2040 C   0  0  0  0  0  0  0  0  0  0  0  0
   29.9969  -20.9238   -4.8913 C   0  0  0  0  0  0  0  0  0  0  0  0
   29.4483  -21.1586   -6.1277 C   0  0  0  0  0  0  0  0  0  0  0  0
   28.5525  -20.2395   -6.6312 C   0  0  0  0  0  0  0  0  0  0  0  0
   25.4405  -20.7756   -8.9191 C   0  0  0  0  0  0  0  0  0  0  0  0
   24.8191  -21.3787   -7.8365 O   0  0  0  0  0  0  0  0  0  0  0  0
   24.9996  -19.6616   -9.2985 O   0  0  0  0  0  0  0  0  0  0  0  0
  2  1  1  1
  2  3  1  0
  4  2  1  0
  4  5  1  6
  6  7  2  0
  6  4  1  0
  8  6  1  0
  9  8  1  0
  9 10  1  1
 11 10  1  0
 11 19  1  0
 12 13  1  0
 12 11  2  0
 13 14  1  0
 14 15  2  0
 14 19  1  0
 15 16  1  0
 16 17  2  0
 18 17  1  0
 19 18  2  0
 20 21  2  0
 20  9  1  0
 22 20  1  0
 23 22  1  0
 23 24  1  1
 25 24  1  0
 25 26  2  0
 27 26  1  0
 28 27  1  0
 29 28  2  0
 30 29  1  0
 31 30  2  0
 31 32  1  0
 32 33  2  0
 33 28  1  0
 33 25  1  0
 34 23  1  0
 35 34  1  0
 36 34  2  0
M  END
$$$$
