TWW.pdb
     RDKit          3D

 36 39  0  0  1  0  0  0  0  0999 V2000
   27.5561  -23.4169  -20.0581 C   0  0  0  0  0  0  0  0  0  0  0  0
   26.9184  -23.2390  -18.7195 C   0  0  1  0  0  0  0  0  0  0  0  0
   25.9006  -24.1746  -18.4787 O   0  0  0  0  0  0  0  0  0  0  0  0
   27.8939  -23.2265  -17.5728 C   0  0  2  0  0  0  0  0  0  0  0  0
   28.5908  -24.4784  -17.4351 N   0  0  0  0  0  0  0  0  0  0  0  0
   27.1836  -22.8407  -16.3360 C   0  0  0  0  0  0  0  0  0  0  0  0
   26.9577  -23.7143  -15.4654 O   0  0  0  0  0  0  0  0  0  0  0  0
   26.7613  -21.5257  -16.1201 N   0  0  0  0  0  0  0  0  0  0  0  0
   26.1364  -21.0474  -14.9057 C   0  0  1  0  0  0  0  0  0  0  0  0
   26.5892  -19.6075  -14.6527 C   0  0  0  0  0  0  0  0  0  0  0  0
   27.9438  -19.5547  -14.0824 C   0  0  0  0  0  0  0  0  0  0  0  0
   29.0312  -18.9142  -14.6422 C   0  0  0  0  0  0  0  0  0  0  0  0
   30.1088  -19.0708  -13.8508 N   0  0  0  0  0  0  0  0  0  0  0  0
   29.7423  -19.8042  -12.7811 C   0  0  0  0  0  0  0  0  0  0  0  0
   30.3928  -20.2760  -11.6618 C   0  0  0  0  0  0  0  0  0  0  0  0
   29.7475  -21.0260  -10.7006 C   0  0  0  0  0  0  0  0  0  0  0  0
   28.4097  -21.3141  -10.8621 C   0  0  0  0  0  0  0  0  0  0  0  0
   27.7176  -20.8641  -11.9647 C   0  0  0  0  0  0  0  0  0  0  0  0
   28.3935  -20.1175  -12.9054 C   0  0  0  0  0  0  0  0  0  0  0  0
   24.6695  -21.0256  -15.1209 C   0  0  0  0  0  0  0  0  0  0  0  0
   24.1568  -20.8308  -16.2647 O   0  0  0  0  0  0  0  0  0  0  0  0
   23.7705  -21.2236  -14.0459 N   0  0  0  0  0  0  0  0  0  0  0  0
   22.3365  -21.2995  -14.2317 C   0  0  1  0  0  0  0  0  0  0  0  0
   21.7755  -21.9527  -12.9838 C   0  0  0  0  0  0  0  0  0  0  0  0
   22.0237  -21.1822  -11.7573 C   0  0  0  0  0  0  0  0  0  0  0  0
   21.0987  -20.4262  -11.0708 C   0  0  0  0  0  0  0  0  0  0  0  0
   21.7332  -19.8896  -10.0138 N   0  0  0  0  0  0  0  0  0  0  0  0
   23.0233  -20.2760  -10.0038 C   0  0  0  0  0  0  0  0  0  0  0  0
   24.0599  -19.9950   -9.1391 C   0  0  0  0  0  0  0  0  0  0  0  0
   25.2907  -20.5570   -9.4093 C   0  0  0  0  0  0  0  0  0  0  0  0
   25.5234  -21.3757  -10.4921 C   0  0  0  0  0  0  0  0  0  0  0  0
   24.4899  -21.6540  -11.3518 C   0  0  0  0  0  0  0  0  0  0  0  0
   23.2553  -21.0982  -11.0922 C   0  0  0  0  0  0  0  0  0  0  0  0
   21.8208  -19.9362  -14.4357 C   0  0  0  0  0  0  0  0  0  0  0  0
   22.5692  -18.7883  -14.2255 O   0  0  0  0  0  0  0  0  0  0  0  0
   20.6335  -19.7957  -14.8230 O   0  0  0  0  0  0  0  0  0  0  0  0
  2  1  1  6
  2  3  1  0
  4  2  1  0
  4  5  1  1
  6  7  2  0
  6  4  1  0
  8  6  1  0
  9  8  1  0
  9 10  1  6
 11 10  1  0
 11 19  1  0
 12 13  1  0
 12 11  2  0
 13 14  1  0
 14 15  2  0
 14 19  1  0
 15 16  1  0
 16 17  2  0
 18 17  1  0
 19 18  2  0
 20 21  2  0
 20  9  1  0
 22 20  1  0
 23 22  1  0
 23 24  1  1
 25 24  1  0
 25 26  2  0
 27 26  1  0
 28 27  1  0
 29 28  2  0
 30 29  1  0
 31 30  2  0
 31 32  1  0
 32 33  2  0
 33 28  1  0
 33 25  1  0
 34 23  1  0
 35 34  1  0
 36 34  2  0
M  END
$$$$
