TWW.pdb
     RDKit          3D

 36 39  0  0  1  0  0  0  0  0999 V2000
   29.1259  -17.8797  -14.3804 C   0  0  0  0  0  0  0  0  0  0  0  0
   28.0978  -18.8988  -14.0133 C   0  0  1  0  0  0  0  0  0  0  0  0
   27.0763  -19.0026  -14.9698 O   0  0  0  0  0  0  0  0  0  0  0  0
   28.6654  -20.2599  -13.7102 C   0  0  2  0  0  0  0  0  0  0  0  0
   29.3824  -20.8140  -14.8285 N   0  0  0  0  0  0  0  0  0  0  0  0
   27.5781  -21.1462  -13.2458 C   0  0  0  0  0  0  0  0  0  0  0  0
   27.1421  -22.0320  -14.0187 O   0  0  0  0  0  0  0  0  0  0  0  0
   27.0299  -21.0155  -11.9666 N   0  0  0  0  0  0  0  0  0  0  0  0
   25.9377  -21.8122  -11.4504 C   0  0  1  0  0  0  0  0  0  0  0  0
   26.2067  -22.1206   -9.9757 C   0  0  0  0  0  0  0  0  0  0  0  0
   26.5384  -20.9052   -9.2167 C   0  0  0  0  0  0  0  0  0  0  0  0
   25.8928  -19.6891   -9.3173 C   0  0  0  0  0  0  0  0  0  0  0  0
   26.4593  -18.8021   -8.4779 N   0  0  0  0  0  0  0  0  0  0  0  0
   27.4662  -19.4203   -7.8295 C   0  0  0  0  0  0  0  0  0  0  0  0
   28.3834  -19.0365   -6.8755 C   0  0  0  0  0  0  0  0  0  0  0  0
   29.3305  -19.9069   -6.3772 C   0  0  0  0  0  0  0  0  0  0  0  0
   29.3628  -21.2021   -6.8464 C   0  0  0  0  0  0  0  0  0  0  0  0
   28.4661  -21.6312   -7.8000 C   0  0  0  0  0  0  0  0  0  0  0  0
   27.5335  -20.7352   -8.2758 C   0  0  0  0  0  0  0  0  0  0  0  0
   24.7007  -20.9976  -11.5204 C   0  0  0  0  0  0  0  0  0  0  0  0
   24.6277  -19.8349  -11.0186 O   0  0  0  0  0  0  0  0  0  0  0  0
   23.5369  -21.4900  -12.1576 N   0  0  0  0  0  0  0  0  0  0  0  0
   22.3715  -20.6654  -12.3995 C   0  0  1  0  0  0  0  0  0  0  0  0
   22.2693  -20.4960  -13.9026 C   0  0  0  0  0  0  0  0  0  0  0  0
   21.0987  -19.7149  -14.3258 C   0  0  0  0  0  0  0  0  0  0  0  0
   20.6927  -18.5082  -13.7990 C   0  0  0  0  0  0  0  0  0  0  0  0
   19.5846  -18.1392  -14.4651 N   0  0  0  0  0  0  0  0  0  0  0  0
   19.2730  -19.0643  -15.3927 C   0  0  0  0  0  0  0  0  0  0  0  0
   18.2453  -19.1367  -16.3092 C   0  0  0  0  0  0  0  0  0  0  0  0
   18.2020  -20.2385  -17.1387 C   0  0  0  0  0  0  0  0  0  0  0  0
   19.1301  -21.2549  -17.0897 C   0  0  0  0  0  0  0  0  0  0  0  0
   20.1524  -21.1808  -16.1764 C   0  0  0  0  0  0  0  0  0  0  0  0
   20.2062  -20.0846  -15.3421 C   0  0  0  0  0  0  0  0  0  0  0  0
   21.1962  -21.3412  -11.8265 C   0  0  0  0  0  0  0  0  0  0  0  0
   20.1024  -20.6726  -11.2986 O   0  0  0  0  0  0  0  0  0  0  0  0
   21.1749  -22.5976  -11.8111 O   0  0  0  0  0  0  0  0  0  0  0  0
  2  1  1  6
  2  3  1  0
  4  2  1  0
  4  5  1  6
  6  7  2  0
  6  4  1  0
  8  6  1  0
  9  8  1  0
  9 10  1  1
 11 10  1  0
 11 19  1  0
 12 13  1  0
 12 11  2  0
 13 14  1  0
 14 15  2  0
 14 19  1  0
 15 16  1  0
 16 17  2  0
 18 17  1  0
 19 18  2  0
 20 21  2  0
 20  9  1  0
 22 20  1  0
 23 22  1  0
 23 24  1  6
 25 24  1  0
 25 26  2  0
 27 26  1  0
 28 27  1  0
 29 28  2  0
 30 29  1  0
 31 30  2  0
 31 32  1  0
 32 33  2  0
 33 28  1  0
 33 25  1  0
 34 23  1  0
 35 34  1  0
 36 34  2  0
M  END
$$$$
