TWW.pdb
     RDKit          3D

 36 39  0  0  1  0  0  0  0  0999 V2000
   30.0173  -23.7259  -18.9515 C   0  0  0  0  0  0  0  0  0  0  0  0
   29.3650  -22.9874  -17.8294 C   0  0  1  0  0  0  0  0  0  0  0  0
   30.1676  -22.9356  -16.6795 O   0  0  0  0  0  0  0  0  0  0  0  0
   28.8948  -21.6052  -18.1969 C   0  0  2  0  0  0  0  0  0  0  0  0
   29.9494  -20.8002  -18.7551 N   0  0  0  0  0  0  0  0  0  0  0  0
   28.2729  -20.9741  -17.0145 C   0  0  0  0  0  0  0  0  0  0  0  0
   28.9247  -20.1224  -16.3650 O   0  0  0  0  0  0  0  0  0  0  0  0
   26.9773  -21.3078  -16.6093 N   0  0  0  0  0  0  0  0  0  0  0  0
   26.2189  -20.5997  -15.6006 C   0  0  1  0  0  0  0  0  0  0  0  0
   24.7465  -20.5762  -16.0173 C   0  0  0  0  0  0  0  0  0  0  0  0
   24.0653  -19.3623  -15.5426 C   0  0  0  0  0  0  0  0  0  0  0  0
   24.6018  -18.0904  -15.5236 C   0  0  0  0  0  0  0  0  0  0  0  0
   23.7004  -17.2233  -15.0258 N   0  0  0  0  0  0  0  0  0  0  0  0
   22.5816  -17.9095  -14.7189 C   0  0  0  0  0  0  0  0  0  0  0  0
   21.3545  -17.5738  -14.1898 C   0  0  0  0  0  0  0  0  0  0  0  0
   20.3664  -18.5125  -13.9770 C   0  0  0  0  0  0  0  0  0  0  0  0
   20.6114  -19.8288  -14.3029 C   0  0  0  0  0  0  0  0  0  0  0  0
   21.8232  -20.2117  -14.8343 C   0  0  0  0  0  0  0  0  0  0  0  0
   22.7877  -19.2478  -15.0336 C   0  0  0  0  0  0  0  0  0  0  0  0
   26.3147  -21.3626  -14.3328 C   0  0  0  0  0  0  0  0  0  0  0  0
   26.6470  -22.5864  -14.3038 O   0  0  0  0  0  0  0  0  0  0  0  0
   26.0360  -20.7492  -13.0882 N   0  0  0  0  0  0  0  0  0  0  0  0
   26.0489  -21.4794  -11.8379 C   0  0  1  0  0  0  0  0  0  0  0  0
   27.2788  -21.0162  -11.0822 C   0  0  0  0  0  0  0  0  0  0  0  0
   26.9661  -20.2596   -9.8619 C   0  0  0  0  0  0  0  0  0  0  0  0
   25.8570  -19.4679   -9.6578 C   0  0  0  0  0  0  0  0  0  0  0  0
   25.9568  -18.9605   -8.4167 N   0  0  0  0  0  0  0  0  0  0  0  0
   27.0850  -19.3994   -7.8269 C   0  0  0  0  0  0  0  0  0  0  0  0
   27.6210  -19.1634   -6.5786 C   0  0  0  0  0  0  0  0  0  0  0  0
   28.8185  -19.7748   -6.2687 C   0  0  0  0  0  0  0  0  0  0  0  0
   29.4912  -20.5997   -7.1426 C   0  0  0  0  0  0  0  0  0  0  0  0
   28.9558  -20.8333   -8.3850 C   0  0  0  0  0  0  0  0  0  0  0  0
   27.7596  -20.2278   -8.7062 C   0  0  0  0  0  0  0  0  0  0  0  0
   24.7998  -21.1880  -11.1160 C   0  0  0  0  0  0  0  0  0  0  0  0
   23.9340  -20.1597  -11.4551 O   0  0  0  0  0  0  0  0  0  0  0  0
   24.4928  -21.9088  -10.1334 O   0  0  0  0  0  0  0  0  0  0  0  0
  2  1  1  6
  2  3  1  0
  4  2  1  0
  4  5  1  1
  6  7  2  0
  6  4  1  0
  8  6  1  0
  9  8  1  0
  9 10  1  6
 11 10  1  0
 11 19  1  0
 12 13  1  0
 12 11  2  0
 13 14  1  0
 14 15  2  0
 14 19  1  0
 15 16  1  0
 16 17  2  0
 18 17  1  0
 19 18  2  0
 20 21  2  0
 20  9  1  0
 22 20  1  0
 23 22  1  0
 23 24  1  1
 25 24  1  0
 25 26  2  0
 27 26  1  0
 28 27  1  0
 29 28  2  0
 30 29  1  0
 31 30  2  0
 31 32  1  0
 32 33  2  0
 33 28  1  0
 33 25  1  0
 34 23  1  0
 35 34  1  0
 36 34  2  0
M  END
$$$$
