TWW.pdb
     RDKit          3D

 36 39  0  0  1  0  0  0  0  0999 V2000
   25.6198  -23.5874  -18.4005 C   0  0  0  0  0  0  0  0  0  0  0  0
   26.8873  -24.3046  -18.0703 C   0  0  1  0  0  0  0  0  0  0  0  0
   27.5375  -24.8025  -19.2099 O   0  0  0  0  0  0  0  0  0  0  0  0
   27.8472  -23.4995  -17.2353 C   0  0  2  0  0  0  0  0  0  0  0  0
   29.0001  -24.2644  -16.8386 N   0  0  0  0  0  0  0  0  0  0  0  0
   27.1249  -22.9320  -16.0780 C   0  0  0  0  0  0  0  0  0  0  0  0
   26.9196  -23.6544  -15.0740 O   0  0  0  0  0  0  0  0  0  0  0  0
   26.6688  -21.6105  -16.0823 N   0  0  0  0  0  0  0  0  0  0  0  0
   26.0898  -20.9325  -14.9425 C   0  0  1  0  0  0  0  0  0  0  0  0
   26.6911  -19.5284  -14.8468 C   0  0  0  0  0  0  0  0  0  0  0  0
   28.0562  -19.5564  -14.3002 C   0  0  0  0  0  0  0  0  0  0  0  0
   29.1733  -18.9984  -14.8890 C   0  0  0  0  0  0  0  0  0  0  0  0
   30.2522  -19.2134  -14.1131 N   0  0  0  0  0  0  0  0  0  0  0  0
   29.8571  -19.9038  -13.0250 C   0  0  0  0  0  0  0  0  0  0  0  0
   30.4949  -20.3999  -11.9089 C   0  0  0  0  0  0  0  0  0  0  0  0
   29.8187  -21.0900  -10.9244 C   0  0  0  0  0  0  0  0  0  0  0  0
   28.4622  -21.2914  -11.0585 C   0  0  0  0  0  0  0  0  0  0  0  0
   27.7818  -20.8141  -12.1570 C   0  0  0  0  0  0  0  0  0  0  0  0
   28.4886  -20.1290  -13.1214 C   0  0  0  0  0  0  0  0  0  0  0  0
   24.6351  -20.7824  -15.1866 C   0  0  0  0  0  0  0  0  0  0  0  0
   24.1585  -20.6154  -16.3502 O   0  0  0  0  0  0  0  0  0  0  0  0
   23.7074  -20.8197  -14.1183 N   0  0  0  0  0  0  0  0  0  0  0  0
   22.2764  -20.8838  -14.3293 C   0  0  1  0  0  0  0  0  0  0  0  0
   21.7131  -21.7268  -13.2021 C   0  0  0  0  0  0  0  0  0  0  0  0
   21.9701  -21.1677  -11.8676 C   0  0  0  0  0  0  0  0  0  0  0  0
   21.0643  -20.4888  -11.0823 C   0  0  0  0  0  0  0  0  0  0  0  0
   21.7009  -20.1507   -9.9473 N   0  0  0  0  0  0  0  0  0  0  0  0
   22.9738  -20.5886   -9.9829 C   0  0  0  0  0  0  0  0  0  0  0  0
   24.0052  -20.4901   -9.0731 C   0  0  0  0  0  0  0  0  0  0  0  0
   25.2170  -21.0553   -9.4135 C   0  0  0  0  0  0  0  0  0  0  0  0
   25.4359  -21.7049  -10.6081 C   0  0  0  0  0  0  0  0  0  0  0  0
   24.4076  -21.8018  -11.5125 C   0  0  0  0  0  0  0  0  0  0  0  0
   23.1920  -21.2408  -11.1835 C   0  0  0  0  0  0  0  0  0  0  0  0
   21.7439  -19.5117  -14.3283 C   0  0  0  0  0  0  0  0  0  0  0  0
   20.4639  -19.1800  -14.7453 O   0  0  0  0  0  0  0  0  0  0  0  0
   22.4864  -18.5804  -13.9275 O   0  0  0  0  0  0  0  0  0  0  0  0
  2  1  1  6
  2  3  1  0
  4  2  1  0
  4  5  1  1
  6  7  2  0
  6  4  1  0
  8  6  1  0
  9  8  1  0
  9 10  1  6
 11 10  1  0
 11 19  1  0
 12 13  1  0
 12 11  2  0
 13 14  1  0
 14 15  2  0
 14 19  1  0
 15 16  1  0
 16 17  2  0
 18 17  1  0
 19 18  2  0
 20 21  2  0
 20  9  1  0
 22 20  1  0
 23 22  1  0
 23 24  1  1
 25 24  1  0
 25 26  2  0
 27 26  1  0
 28 27  1  0
 29 28  2  0
 30 29  1  0
 31 30  2  0
 31 32  1  0
 32 33  2  0
 33 28  1  0
 33 25  1  0
 34 23  1  0
 35 34  1  0
 36 34  2  0
M  END
$$$$
