TWW.pdb
     RDKit          3D

 36 39  0  0  1  0  0  0  0  0999 V2000
   28.1291  -17.1805  -14.5658 C   0  0  0  0  0  0  0  0  0  0  0  0
   27.4517  -18.4696  -14.2348 C   0  0  1  0  0  0  0  0  0  0  0  0
   27.0688  -19.1866  -15.3788 O   0  0  0  0  0  0  0  0  0  0  0  0
   28.2398  -19.3553  -13.3068 C   0  0  2  0  0  0  0  0  0  0  0  0
   29.4838  -19.7862  -13.8887 N   0  0  0  0  0  0  0  0  0  0  0  0
   27.3939  -20.4912  -12.8857 C   0  0  0  0  0  0  0  0  0  0  0  0
   27.6279  -21.6310  -13.3528 O   0  0  0  0  0  0  0  0  0  0  0  0
   26.3429  -20.3187  -11.9803 N   0  0  0  0  0  0  0  0  0  0  0  0
   25.3801  -21.3398  -11.6276 C   0  0  1  0  0  0  0  0  0  0  0  0
   24.9864  -21.1598  -10.1597 C   0  0  0  0  0  0  0  0  0  0  0  0
   26.0175  -20.4322   -9.4044 C   0  0  0  0  0  0  0  0  0  0  0  0
   25.8475  -19.2181   -8.7695 C   0  0  0  0  0  0  0  0  0  0  0  0
   26.9990  -18.8484   -8.1781 N   0  0  0  0  0  0  0  0  0  0  0  0
   27.9199  -19.8031   -8.4168 C   0  0  0  0  0  0  0  0  0  0  0  0
   29.2442  -19.9771   -8.0781 C   0  0  0  0  0  0  0  0  0  0  0  0
   29.9619  -21.0870   -8.4728 C   0  0  0  0  0  0  0  0  0  0  0  0
   29.3375  -22.0542   -9.2299 C   0  0  0  0  0  0  0  0  0  0  0  0
   28.0151  -21.9236   -9.5928 C   0  0  0  0  0  0  0  0  0  0  0  0
   27.3282  -20.8021   -9.1813 C   0  0  0  0  0  0  0  0  0  0  0  0
   24.1634  -21.1281  -12.4480 C   0  0  0  0  0  0  0  0  0  0  0  0
   23.9432  -20.0404  -13.0625 O   0  0  0  0  0  0  0  0  0  0  0  0
   23.1861  -22.1431  -12.5808 N   0  0  0  0  0  0  0  0  0  0  0  0
   22.0939  -22.0558  -13.5274 C   0  0  1  0  0  0  0  0  0  0  0  0
   22.7190  -22.0800  -14.9084 C   0  0  0  0  0  0  0  0  0  0  0  0
   23.6025  -23.2329  -15.1313 C   0  0  0  0  0  0  0  0  0  0  0  0
   23.3263  -24.5434  -14.8080 C   0  0  0  0  0  0  0  0  0  0  0  0
   24.3929  -25.2745  -15.1765 N   0  0  0  0  0  0  0  0  0  0  0  0
   25.3334  -24.4787  -15.7203 C   0  0  0  0  0  0  0  0  0  0  0  0
   26.5809  -24.7532  -16.2398 C   0  0  0  0  0  0  0  0  0  0  0  0
   27.3175  -23.6954  -16.7320 C   0  0  0  0  0  0  0  0  0  0  0  0
   26.8646  -22.3948  -16.7259 C   0  0  0  0  0  0  0  0  0  0  0  0
   25.6223  -22.1238  -16.2082 C   0  0  0  0  0  0  0  0  0  0  0  0
   24.8768  -23.1727  -15.7133 C   0  0  0  0  0  0  0  0  0  0  0  0
   21.1875  -23.1925  -13.2982 C   0  0  0  0  0  0  0  0  0  0  0  0
   21.4712  -24.2458  -12.4426 O   0  0  0  0  0  0  0  0  0  0  0  0
   20.0900  -23.2175  -13.9100 O   0  0  0  0  0  0  0  0  0  0  0  0
  2  1  1  6
  2  3  1  0
  4  2  1  0
  4  5  1  6
  6  7  2  0
  6  4  1  0
  8  6  1  0
  9  8  1  0
  9 10  1  1
 11 10  1  0
 11 19  1  0
 12 13  1  0
 12 11  2  0
 13 14  1  0
 14 15  2  0
 14 19  1  0
 15 16  1  0
 16 17  2  0
 18 17  1  0
 19 18  2  0
 20 21  2  0
 20  9  1  0
 22 20  1  0
 23 22  1  0
 23 24  1  6
 25 24  1  0
 25 26  2  0
 27 26  1  0
 28 27  1  0
 29 28  2  0
 30 29  1  0
 31 30  2  0
 31 32  1  0
 32 33  2  0
 33 28  1  0
 33 25  1  0
 34 23  1  0
 35 34  1  0
 36 34  2  0
M  END
$$$$
