TWW.pdb
     RDKit          3D

 36 39  0  0  1  0  0  0  0  0999 V2000
   14.9846  -23.8508    7.8241 C   0  0  0  0  0  0  0  0  0  0  0  0
   15.3359  -24.7887    6.7163 C   0  0  1  0  0  0  0  0  0  0  0  0
   14.6409  -26.0050    6.7991 O   0  0  0  0  0  0  0  0  0  0  0  0
   15.1835  -24.1964    5.3406 C   0  0  2  0  0  0  0  0  0  0  0  0
   15.4445  -25.1568    4.3006 N   0  0  0  0  0  0  0  0  0  0  0  0
   16.0446  -23.0008    5.2293 C   0  0  0  0  0  0  0  0  0  0  0  0
   17.2603  -23.1485    4.9603 O   0  0  0  0  0  0  0  0  0  0  0  0
   15.5305  -21.7145    5.4174 N   0  0  0  0  0  0  0  0  0  0  0  0
   16.3030  -20.4943    5.3253 C   0  0  1  0  0  0  0  0  0  0  0  0
   15.5920  -19.5318    4.3712 C   0  0  0  0  0  0  0  0  0  0  0  0
   15.9935  -19.7541    2.9739 C   0  0  0  0  0  0  0  0  0  0  0  0
   17.0207  -19.1073    2.3163 C   0  0  0  0  0  0  0  0  0  0  0  0
   17.1061  -19.5579    1.0507 N   0  0  0  0  0  0  0  0  0  0  0  0
   16.1497  -20.4904    0.8706 C   0  0  0  0  0  0  0  0  0  0  0  0
   15.7566  -21.2825   -0.1860 C   0  0  0  0  0  0  0  0  0  0  0  0
   14.7110  -22.1763   -0.0827 C   0  0  0  0  0  0  0  0  0  0  0  0
   14.0363  -22.2827    1.1141 C   0  0  0  0  0  0  0  0  0  0  0  0
   14.3934  -21.5113    2.1980 C   0  0  0  0  0  0  0  0  0  0  0  0
   15.4427  -20.6288    2.0596 C   0  0  0  0  0  0  0  0  0  0  0  0
   16.3262  -19.8621    6.6662 C   0  0  0  0  0  0  0  0  0  0  0  0
   15.3833  -20.0132    7.5012 O   0  0  0  0  0  0  0  0  0  0  0  0
   17.4143  -19.0543    7.0743 N   0  0  0  0  0  0  0  0  0  0  0  0
   17.4476  -18.3785    8.3545 C   0  0  1  0  0  0  0  0  0  0  0  0
   18.9097  -18.2459    8.7326 C   0  0  0  0  0  0  0  0  0  0  0  0
   19.3951  -19.3381    9.5876 C   0  0  0  0  0  0  0  0  0  0  0  0
   18.6858  -20.4616    9.9525 C   0  0  0  0  0  0  0  0  0  0  0  0
   19.4915  -21.2004   10.7353 N   0  0  0  0  0  0  0  0  0  0  0  0
   20.6827  -20.5893   10.8804 C   0  0  0  0  0  0  0  0  0  0  0  0
   21.8190  -20.9447   11.5761 C   0  0  0  0  0  0  0  0  0  0  0  0
   22.8972  -20.0852   11.5252 C   0  0  0  0  0  0  0  0  0  0  0  0
   22.8855  -18.9034   10.8181 C   0  0  0  0  0  0  0  0  0  0  0  0
   21.7531  -18.5516   10.1262 C   0  0  0  0  0  0  0  0  0  0  0  0
   20.6692  -19.4024   10.1696 C   0  0  0  0  0  0  0  0  0  0  0  0
   16.7815  -17.0741    8.2095 C   0  0  0  0  0  0  0  0  0  0  0  0
   16.1914  -16.6349    7.0343 O   0  0  0  0  0  0  0  0  0  0  0  0
   16.7409  -16.3074    9.2045 O   0  0  0  0  0  0  0  0  0  0  0  0
  2  1  1  1
  2  3  1  0
  4  2  1  0
  4  5  1  6
  6  7  2  0
  6  4  1  0
  8  6  1  0
  9  8  1  0
  9 10  1  6
 11 10  1  0
 11 19  1  0
 12 13  1  0
 12 11  2  0
 13 14  1  0
 14 15  2  0
 14 19  1  0
 15 16  1  0
 16 17  2  0
 18 17  1  0
 19 18  2  0
 20 21  2  0
 20  9  1  0
 22 20  1  0
 23 22  1  0
 23 24  1  6
 25 24  1  0
 25 26  2  0
 27 26  1  0
 28 27  1  0
 29 28  2  0
 30 29  1  0
 31 30  2  0
 31 32  1  0
 32 33  2  0
 33 28  1  0
 33 25  1  0
 34 23  1  0
 35 34  1  0
 36 34  2  0
M  END
$$$$
