TWW.pdb
     RDKit          3D

 36 39  0  0  1  0  0  0  0  0999 V2000
   20.2528  -22.1530  -12.0075 C   0  0  0  0  0  0  0  0  0  0  0  0
   21.5929  -21.5176  -11.8329 C   0  0  1  0  0  0  0  0  0  0  0  0
   22.3537  -21.5311  -13.0120 O   0  0  0  0  0  0  0  0  0  0  0  0
   21.5411  -20.1244  -11.2645 C   0  0  2  0  0  0  0  0  0  0  0  0
   20.8952  -19.1954  -12.1542 N   0  0  0  0  0  0  0  0  0  0  0  0
   22.9085  -19.6970  -10.9031 C   0  0  0  0  0  0  0  0  0  0  0  0
   23.5084  -18.8830  -11.6446 O   0  0  0  0  0  0  0  0  0  0  0  0
   23.5421  -20.1812   -9.7549 N   0  0  0  0  0  0  0  0  0  0  0  0
   24.9153  -19.9061   -9.3906 C   0  0  1  0  0  0  0  0  0  0  0  0
   25.1120  -20.2530   -7.9130 C   0  0  0  0  0  0  0  0  0  0  0  0
   26.2822  -19.5678   -7.3437 C   0  0  0  0  0  0  0  0  0  0  0  0
   26.8126  -18.3726   -7.7865 C   0  0  0  0  0  0  0  0  0  0  0  0
   27.8794  -18.0417   -7.0350 N   0  0  0  0  0  0  0  0  0  0  0  0
   28.0545  -19.0030   -6.1067 C   0  0  0  0  0  0  0  0  0  0  0  0
   28.9565  -19.2103   -5.0859 C   0  0  0  0  0  0  0  0  0  0  0  0
   28.8947  -20.3187   -4.2670 C   0  0  0  0  0  0  0  0  0  0  0  0
   27.9004  -21.2500   -4.4739 C   0  0  0  0  0  0  0  0  0  0  0  0
   26.9764  -21.0854   -5.4821 C   0  0  0  0  0  0  0  0  0  0  0  0
   27.0677  -19.9665   -6.2814 C   0  0  0  0  0  0  0  0  0  0  0  0
   25.7902  -20.8035  -10.1829 C   0  0  0  0  0  0  0  0  0  0  0  0
   25.4875  -22.0140  -10.4111 O   0  0  0  0  0  0  0  0  0  0  0  0
   27.0135  -20.3406  -10.7235 N   0  0  0  0  0  0  0  0  0  0  0  0
   27.9958  -21.2307  -11.3060 C   0  0  1  0  0  0  0  0  0  0  0  0
   29.2654  -20.4191  -11.4735 C   0  0  0  0  0  0  0  0  0  0  0  0
   30.4275  -21.2252  -11.8727 C   0  0  0  0  0  0  0  0  0  0  0  0
   30.7317  -21.6351  -13.1524 C   0  0  0  0  0  0  0  0  0  0  0  0
   31.8699  -22.3470  -13.0791 N   0  0  0  0  0  0  0  0  0  0  0  0
   32.2984  -22.4041  -11.8037 C   0  0  0  0  0  0  0  0  0  0  0  0
   33.3980  -23.0065  -11.2299 C   0  0  0  0  0  0  0  0  0  0  0  0
   33.5602  -22.8790   -9.8656 C   0  0  0  0  0  0  0  0  0  0  0  0
   32.6814  -22.1843   -9.0644 C   0  0  0  0  0  0  0  0  0  0  0  0
   31.5872  -21.5853   -9.6379 C   0  0  0  0  0  0  0  0  0  0  0  0
   31.4144  -21.7059  -11.0003 C   0  0  0  0  0  0  0  0  0  0  0  0
   28.1753  -22.3798  -10.4041 C   0  0  0  0  0  0  0  0  0  0  0  0
   28.4145  -23.6738  -10.8407 O   0  0  0  0  0  0  0  0  0  0  0  0
   28.1095  -22.1854   -9.1643 O   0  0  0  0  0  0  0  0  0  0  0  0
  2  1  1  6
  2  3  1  0
  4  2  1  0
  4  5  1  6
  6  7  2  0
  6  4  1  0
  8  6  1  0
  9  8  1  0
  9 10  1  1
 11 10  1  0
 11 19  1  0
 12 13  1  0
 12 11  2  0
 13 14  1  0
 14 15  2  0
 14 19  1  0
 15 16  1  0
 16 17  2  0
 18 17  1  0
 19 18  2  0
 20 21  2  0
 20  9  1  0
 22 20  1  0
 23 22  1  0
 23 24  1  1
 25 24  1  0
 25 26  2  0
 27 26  1  0
 28 27  1  0
 29 28  2  0
 30 29  1  0
 31 30  2  0
 31 32  1  0
 32 33  2  0
 33 28  1  0
 33 25  1  0
 34 23  1  0
 35 34  1  0
 36 34  2  0
M  END
$$$$
