TWW.pdb
     RDKit          3D

 36 39  0  0  1  0  0  0  0  0999 V2000
   28.2453  -18.7866  -15.7405 C   0  0  0  0  0  0  0  0  0  0  0  0
   27.4455  -19.4261  -14.6535 C   0  0  1  0  0  0  0  0  0  0  0  0
   26.0747  -19.4747  -14.9501 O   0  0  0  0  0  0  0  0  0  0  0  0
   27.9384  -20.7908  -14.2519 C   0  0  2  0  0  0  0  0  0  0  0  0
   27.7947  -21.7563  -15.3097 N   0  0  0  0  0  0  0  0  0  0  0  0
   27.2510  -21.2095  -13.0128 C   0  0  0  0  0  0  0  0  0  0  0  0
   26.2565  -21.9686  -13.0945 O   0  0  0  0  0  0  0  0  0  0  0  0
   27.6876  -20.7766  -11.7573 N   0  0  0  0  0  0  0  0  0  0  0  0
   27.0234  -21.0692  -10.5054 C   0  0  1  0  0  0  0  0  0  0  0  0
   27.8635  -20.5035   -9.3580 C   0  0  0  0  0  0  0  0  0  0  0  0
   27.1881  -20.6581   -8.0607 C   0  0  0  0  0  0  0  0  0  0  0  0
   25.9716  -21.2768   -7.8523 C   0  0  0  0  0  0  0  0  0  0  0  0
   25.6581  -21.2356   -6.5438 N   0  0  0  0  0  0  0  0  0  0  0  0
   26.6519  -20.5991   -5.8929 C   0  0  0  0  0  0  0  0  0  0  0  0
   26.8877  -20.2621   -4.5779 C   0  0  0  0  0  0  0  0  0  0  0  0
   28.0264  -19.5889   -4.1866 C   0  0  0  0  0  0  0  0  0  0  0  0
   28.9596  -19.2411   -5.1389 C   0  0  0  0  0  0  0  0  0  0  0  0
   28.7671  -19.5567   -6.4658 C   0  0  0  0  0  0  0  0  0  0  0  0
   27.6183  -20.2295   -6.8215 C   0  0  0  0  0  0  0  0  0  0  0  0
   25.7205  -20.3616  -10.4993 C   0  0  0  0  0  0  0  0  0  0  0  0
   25.6374  -19.0988  -10.4127 O   0  0  0  0  0  0  0  0  0  0  0  0
   24.5015  -21.0747  -10.5911 N   0  0  0  0  0  0  0  0  0  0  0  0
   23.2795  -20.4718  -11.0809 C   0  0  1  0  0  0  0  0  0  0  0  0
   23.5839  -19.9536  -12.4728 C   0  0  0  0  0  0  0  0  0  0  0  0
   22.4233  -19.3454  -13.1382 C   0  0  0  0  0  0  0  0  0  0  0  0
   21.5505  -18.4366  -12.5808 C   0  0  0  0  0  0  0  0  0  0  0  0
   20.6376  -18.1374  -13.5216 N   0  0  0  0  0  0  0  0  0  0  0  0
   20.8979  -18.8207  -14.6524 C   0  0  0  0  0  0  0  0  0  0  0  0
   20.2598  -18.8524  -15.8743 C   0  0  0  0  0  0  0  0  0  0  0  0
   20.7851  -19.6731  -16.8512 C   0  0  0  0  0  0  0  0  0  0  0  0
   21.9050  -20.4513  -16.6588 C   0  0  0  0  0  0  0  0  0  0  0  0
   22.5388  -20.4182  -15.4414 C   0  0  0  0  0  0  0  0  0  0  0  0
   22.0231  -19.6019  -14.4574 C   0  0  0  0  0  0  0  0  0  0  0  0
   22.2220  -21.4954  -11.0785 C   0  0  0  0  0  0  0  0  0  0  0  0
   20.9006  -21.2394  -10.7459 O   0  0  0  0  0  0  0  0  0  0  0  0
   22.5261  -22.6729  -11.3952 O   0  0  0  0  0  0  0  0  0  0  0  0
  2  1  1  6
  2  3  1  0
  4  2  1  0
  4  5  1  6
  6  7  2  0
  6  4  1  0
  8  6  1  0
  9  8  1  0
  9 10  1  1
 11 10  1  0
 11 19  1  0
 12 13  1  0
 12 11  2  0
 13 14  1  0
 14 15  2  0
 14 19  1  0
 15 16  1  0
 16 17  2  0
 18 17  1  0
 19 18  2  0
 20 21  2  0
 20  9  1  0
 22 20  1  0
 23 22  1  0
 23 24  1  6
 25 24  1  0
 25 26  2  0
 27 26  1  0
 28 27  1  0
 29 28  2  0
 30 29  1  0
 31 30  2  0
 31 32  1  0
 32 33  2  0
 33 28  1  0
 33 25  1  0
 34 23  1  0
 35 34  1  0
 36 34  2  0
M  END
$$$$
