YMN.pdb
     RDKit          3D

 29 29  0  0  1  0  0  0  0  0999 V2000
    6.0416  -10.7417   26.6183 O   0  0  0  0  0  0  0  0  0  0  0  0
    6.4121  -12.0839   26.5794 C   0  0  0  0  0  0  0  0  0  0  0  0
    5.4845  -13.1044   26.5746 C   0  0  0  0  0  0  0  0  0  0  0  0
    5.8662  -14.4373   26.5357 C   0  0  0  0  0  0  0  0  0  0  0  0
    7.1970  -14.7995   26.4999 C   0  0  0  0  0  0  0  0  0  0  0  0
    7.6607  -16.2124   26.4576 C   0  0  0  0  0  0  0  0  0  0  0  0
    6.8769  -16.9066   25.3783 C   0  0  2  0  0  0  0  0  0  0  0  0
    6.4765  -18.2067   25.8835 N   0  0  0  0  0  0  0  0  0  0  0  0
    7.6275  -17.1145   24.1335 C   0  0  0  0  0  0  0  0  0  0  0  0
    8.1875  -18.2484   23.9907 O   0  0  0  0  0  0  0  0  0  0  0  0
    8.1224  -13.7739   26.5047 C   0  0  0  0  0  0  0  0  0  0  0  0
    7.7428  -12.4458   26.5435 C   0  0  0  0  0  0  0  0  0  0  0  0
    7.9044  -11.3207   19.9605 C   0  0  0  0  0  0  0  0  0  0  0  0
    7.6996  -13.0791   19.6386 S   0  0  0  0  0  0  0  0  0  0  0  0
    8.4264  -14.0319   21.0461 C   0  0  0  0  0  0  0  0  0  0  0  0
    8.0406  -15.4384   20.8278 C   0  0  0  0  0  0  0  0  0  0  0  0
    8.4589  -16.4548   21.8294 C   0  0  2  0  0  0  0  0  0  0  0  0
    7.7581  -16.1411   23.1064 N   0  0  0  0  0  0  0  0  0  0  0  0
    9.8787  -16.5813   22.1093 C   0  0  0  0  0  0  0  0  0  0  0  0
   10.4261  -15.8867   23.0042 O   0  0  0  0  0  0  0  0  0  0  0  0
   11.4817  -19.2368   23.9446 N   0  0  0  0  0  0  0  0  0  0  0  0
   12.5349  -19.6124   23.0784 C   0  0  0  0  0  0  0  0  0  0  0  0
   13.3562  -20.4838   23.4378 O   0  0  0  0  0  0  0  0  0  0  0  0
   12.6416  -18.9689   21.7714 C   0  0  0  0  0  0  0  0  0  0  0  0
   12.1274  -17.5439   21.7282 C   0  0  2  0  0  0  0  0  0  0  0  0
   10.7095  -17.4846   21.4024 N   0  0  0  0  0  0  0  0  0  0  0  0
   12.8697  -16.7002   20.8002 C   0  0  0  0  0  0  0  0  0  0  0  0
   12.4023  -16.4129   19.6690 O   0  0  0  0  0  0  0  0  0  0  0  0
   14.1091  -16.1911   21.1364 O   0  0  0  0  0  0  0  0  0  0  0  0
  2 12  2  0
  2  1  1  0
  3  2  1  0
  4  5  1  0
  4  3  2  0
  5 11  2  0
  6  5  1  0
  7  6  1  0
  7  8  1  1
  9 10  2  0
  9  7  1  0
 11 12  1  0
 13 14  1  0
 14 15  1  0
 16 15  1  0
 17 16  1  6
 17 18  1  0
 18  9  1  0
 19 17  1  0
 19 26  1  0
 20 19  2  0
 21 22  1  0
 22 24  1  0
 23 22  2  0
 25 24  1  6
 25 26  1  0
 25 27  1  0
 27 29  1  0
 28 27  2  0
M  END
$$$$
