YMN.pdb
     RDKit          3D

 29 29  0  0  1  0  0  0  0  0999 V2000
    8.1313  -14.4072   15.2331 O   0  0  0  0  0  0  0  0  0  0  0  0
    8.3832  -14.1908   16.5858 C   0  0  0  0  0  0  0  0  0  0  0  0
    9.6078  -14.4611   17.1597 C   0  0  0  0  0  0  0  0  0  0  0  0
    9.8463  -14.2413   18.5082 C   0  0  0  0  0  0  0  0  0  0  0  0
    8.8628  -13.7402   19.3361 C   0  0  0  0  0  0  0  0  0  0  0  0
    9.0651  -13.4861   20.7878 C   0  0  0  0  0  0  0  0  0  0  0  0
    9.2022  -14.8243   21.4597 C   0  0  2  0  0  0  0  0  0  0  0  0
    8.0551  -15.6309   21.0863 N   0  0  0  0  0  0  0  0  0  0  0  0
    9.2512  -14.7555   22.9256 C   0  0  0  0  0  0  0  0  0  0  0  0
   10.3176  -14.2852   23.4368 O   0  0  0  0  0  0  0  0  0  0  0  0
    7.6380  -13.4709   18.7568 C   0  0  0  0  0  0  0  0  0  0  0  0
    7.3998  -13.6898   17.4134 C   0  0  0  0  0  0  0  0  0  0  0  0
    6.2803  -11.0151   28.3688 C   0  0  0  0  0  0  0  0  0  0  0  0
    6.5056  -11.6827   26.7132 S   0  0  0  0  0  0  0  0  0  0  0  0
    6.6721  -13.5202   26.8283 C   0  0  0  0  0  0  0  0  0  0  0  0
    6.9546  -13.9899   25.4593 C   0  0  0  0  0  0  0  0  0  0  0  0
    8.1780  -14.8018   25.2238 C   0  0  2  0  0  0  0  0  0  0  0  0
    8.1975  -15.1757   23.7815 N   0  0  0  0  0  0  0  0  0  0  0  0
    8.3457  -16.0121   26.0094 C   0  0  0  0  0  0  0  0  0  0  0  0
    8.2103  -15.9956   27.2601 O   0  0  0  0  0  0  0  0  0  0  0  0
    5.8126  -19.4003   25.7138 N   0  0  0  0  0  0  0  0  0  0  0  0
    7.0173  -19.4731   24.9762 C   0  0  0  0  0  0  0  0  0  0  0  0
    6.9929  -19.3629   23.7311 O   0  0  0  0  0  0  0  0  0  0  0  0
    8.2749  -19.6770   25.6908 C   0  0  0  0  0  0  0  0  0  0  0  0
    8.8786  -18.4151   26.2740 C   0  0  2  0  0  0  0  0  0  0  0  0
    8.6615  -17.2588   25.4162 N   0  0  0  0  0  0  0  0  0  0  0  0
   10.3027  -18.5445   26.5557 C   0  0  0  0  0  0  0  0  0  0  0  0
   10.7081  -19.1249   27.5947 O   0  0  0  0  0  0  0  0  0  0  0  0
   11.2492  -18.0332   25.6891 O   0  0  0  0  0  0  0  0  0  0  0  0
  2 12  2  0
  2  1  1  0
  3  2  1  0
  4  5  1  0
  4  3  2  0
  5 11  2  0
  6  5  1  0
  7  6  1  0
  7  8  1  1
  9 10  2  0
  9  7  1  0
 11 12  1  0
 13 14  1  0
 14 15  1  0
 16 15  1  0
 17 16  1  1
 17 18  1  0
 18  9  1  0
 19 17  1  0
 19 26  1  0
 20 19  2  0
 21 22  1  0
 22 24  1  0
 23 22  2  0
 25 24  1  6
 25 26  1  0
 25 27  1  0
 27 29  1  0
 28 27  2  0
M  END
$$$$
