YMN.pdb
     RDKit          3D

 29 29  0  0  1  0  0  0  0  0999 V2000
    8.2406  -14.0388   15.4955 O   0  0  0  0  0  0  0  0  0  0  0  0
    8.2508  -13.8747   16.8786 C   0  0  0  0  0  0  0  0  0  0  0  0
    7.0940  -13.6958   17.6079 C   0  0  0  0  0  0  0  0  0  0  0  0
    7.1174  -13.5333   18.9851 C   0  0  0  0  0  0  0  0  0  0  0  0
    8.3055  -13.5440   19.6866 C   0  0  0  0  0  0  0  0  0  0  0  0
    8.3872  -13.3743   21.1623 C   0  0  0  0  0  0  0  0  0  0  0  0
    8.7555  -14.7107   21.7449 C   0  0  2  0  0  0  0  0  0  0  0  0
    7.7601  -15.6749   21.3143 N   0  0  0  0  0  0  0  0  0  0  0  0
    8.8024  -14.7311   23.2124 C   0  0  0  0  0  0  0  0  0  0  0  0
    9.7698  -14.1100   23.7582 O   0  0  0  0  0  0  0  0  0  0  0  0
    9.4614  -13.7236   18.9519 C   0  0  0  0  0  0  0  0  0  0  0  0
    9.4388  -13.8855   17.5798 C   0  0  0  0  0  0  0  0  0  0  0  0
    6.3039  -10.7938   26.7929 C   0  0  0  0  0  0  0  0  0  0  0  0
    7.0281  -12.4355   26.9275 S   0  0  0  0  0  0  0  0  0  0  0  0
    6.1715  -13.5645   25.7405 C   0  0  0  0  0  0  0  0  0  0  0  0
    6.6451  -14.9244   26.0584 C   0  0  0  0  0  0  0  0  0  0  0  0
    7.9593  -15.3645   25.5196 C   0  0  2  0  0  0  0  0  0  0  0  0
    7.8490  -15.3910   24.0339 N   0  0  0  0  0  0  0  0  0  0  0  0
    8.4725  -16.6501   25.9602 C   0  0  0  0  0  0  0  0  0  0  0  0
    8.5118  -16.9466   27.1822 O   0  0  0  0  0  0  0  0  0  0  0  0
    6.7209  -19.9192   25.1157 N   0  0  0  0  0  0  0  0  0  0  0  0
    7.8065  -20.0340   24.2163 C   0  0  0  0  0  0  0  0  0  0  0  0
    7.5916  -20.1100   22.9870 O   0  0  0  0  0  0  0  0  0  0  0  0
    9.1671  -20.0617   24.7472 C   0  0  0  0  0  0  0  0  0  0  0  0
    9.5463  -18.8461   25.5690 C   0  0  2  0  0  0  0  0  0  0  0  0
    8.9449  -17.6262   25.0492 N   0  0  0  0  0  0  0  0  0  0  0  0
   10.9879  -18.6625   25.6795 C   0  0  0  0  0  0  0  0  0  0  0  0
   11.5967  -17.8496   24.9383 O   0  0  0  0  0  0  0  0  0  0  0  0
   11.7280  -19.3763   26.6019 O   0  0  0  0  0  0  0  0  0  0  0  0
  2 12  2  0
  2  1  1  0
  3  2  1  0
  4  5  1  0
  4  3  2  0
  5 11  2  0
  6  5  1  0
  7  6  1  0
  7  8  1  1
  9 10  2  0
  9  7  1  0
 11 12  1  0
 13 14  1  0
 14 15  1  0
 16 15  1  0
 17 16  1  1
 17 18  1  0
 18  9  1  0
 19 17  1  0
 19 26  1  0
 20 19  2  0
 21 22  1  0
 22 24  1  0
 23 22  2  0
 25 24  1  6
 25 26  1  0
 25 27  1  0
 27 29  1  0
 28 27  2  0
M  END
$$$$
