YMN.pdb
     RDKit          3D

 29 29  0  0  1  0  0  0  0  0999 V2000
    7.5294  -14.0934   15.0919 O   0  0  0  0  0  0  0  0  0  0  0  0
    7.9299  -13.9547   16.4187 C   0  0  0  0  0  0  0  0  0  0  0  0
    9.2473  -14.0786   16.8074 C   0  0  0  0  0  0  0  0  0  0  0  0
    9.6335  -13.9383   18.1322 C   0  0  0  0  0  0  0  0  0  0  0  0
    8.7107  -13.6675   19.1214 C   0  0  0  0  0  0  0  0  0  0  0  0
    9.0706  -13.5078   20.5560 C   0  0  0  0  0  0  0  0  0  0  0  0
    9.0663  -14.8795   21.1720 C   0  0  2  0  0  0  0  0  0  0  0  0
    7.7973  -15.5075   20.8542 N   0  0  0  0  0  0  0  0  0  0  0  0
    9.2201  -14.8800   22.6323 C   0  0  0  0  0  0  0  0  0  0  0  0
   10.3570  -14.5288   23.0837 O   0  0  0  0  0  0  0  0  0  0  0  0
    7.3926  -13.5443   18.7273 C   0  0  0  0  0  0  0  0  0  0  0  0
    7.0071  -13.6839   17.4077 C   0  0  0  0  0  0  0  0  0  0  0  0
    6.1022  -10.4591   26.5528 C   0  0  0  0  0  0  0  0  0  0  0  0
    6.2074  -12.2446   26.7483 S   0  0  0  0  0  0  0  0  0  0  0  0
    7.2691  -12.9310   25.3997 C   0  0  0  0  0  0  0  0  0  0  0  0
    7.2867  -14.3920   25.5992 C   0  0  0  0  0  0  0  0  0  0  0  0
    8.4082  -15.1763   25.0174 C   0  0  2  0  0  0  0  0  0  0  0  0
    8.1926  -15.2427   23.5445 N   0  0  0  0  0  0  0  0  0  0  0  0
    8.6117  -16.5282   25.5083 C   0  0  0  0  0  0  0  0  0  0  0  0
    7.6464  -17.3267   25.6239 O   0  0  0  0  0  0  0  0  0  0  0  0
   12.1905  -21.2045   25.6099 N   0  0  0  0  0  0  0  0  0  0  0  0
   10.9036  -20.6532   25.8112 C   0  0  0  0  0  0  0  0  0  0  0  0
   10.0231  -21.3230   26.3936 O   0  0  0  0  0  0  0  0  0  0  0  0
   10.6282  -19.3016   25.3302 C   0  0  0  0  0  0  0  0  0  0  0  0
   10.0156  -18.3787   26.3646 C   0  0  2  0  0  0  0  0  0  0  0  0
    9.8911  -17.0137   25.8732 N   0  0  0  0  0  0  0  0  0  0  0  0
   10.7486  -18.3714   27.6243 C   0  0  0  0  0  0  0  0  0  0  0  0
   11.8846  -17.8397   27.7105 O   0  0  0  0  0  0  0  0  0  0  0  0
   10.2166  -18.9486   28.7609 O   0  0  0  0  0  0  0  0  0  0  0  0
  2 12  2  0
  2  1  1  0
  3  2  1  0
  4  5  1  0
  4  3  2  0
  5 11  2  0
  6  5  1  0
  7  6  1  0
  7  8  1  1
  9 10  2  0
  9  7  1  0
 11 12  1  0
 13 14  1  0
 14 15  1  0
 16 15  1  0
 17 16  1  1
 17 18  1  0
 18  9  1  0
 19 17  1  0
 19 26  1  0
 20 19  2  0
 21 22  1  0
 22 24  1  0
 23 22  2  0
 25 24  1  6
 25 26  1  0
 25 27  1  0
 27 29  1  0
 28 27  2  0
M  END
$$$$
