YMN.pdb
     RDKit          3D

 29 29  0  0  1  0  0  0  0  0999 V2000
    7.6694  -14.1833   14.5300 O   0  0  0  0  0  0  0  0  0  0  0  0
    7.7148  -14.4600   15.8943 C   0  0  0  0  0  0  0  0  0  0  0  0
    7.6476  -13.4679   16.8499 C   0  0  0  0  0  0  0  0  0  0  0  0
    7.6939  -13.7563   18.2058 C   0  0  0  0  0  0  0  0  0  0  0  0
    7.8097  -15.0549   18.6573 C   0  0  0  0  0  0  0  0  0  0  0  0
    7.8639  -15.4194   20.0986 C   0  0  0  0  0  0  0  0  0  0  0  0
    9.0244  -14.6780   20.7025 C   0  0  2  0  0  0  0  0  0  0  0  0
   10.2462  -15.2472   20.1646 N   0  0  0  0  0  0  0  0  0  0  0  0
    9.0907  -14.7614   22.1669 C   0  0  0  0  0  0  0  0  0  0  0  0
    9.9719  -15.5411   22.6520 O   0  0  0  0  0  0  0  0  0  0  0  0
    7.8765  -16.0451   17.6966 C   0  0  0  0  0  0  0  0  0  0  0  0
    7.8305  -15.7585   16.3456 C   0  0  0  0  0  0  0  0  0  0  0  0
    6.1456  -11.5511   28.7854 C   0  0  0  0  0  0  0  0  0  0  0  0
    6.1740  -11.7977   27.0033 S   0  0  0  0  0  0  0  0  0  0  0  0
    7.2521  -13.2494   26.6189 C   0  0  0  0  0  0  0  0  0  0  0  0
    7.3178  -13.3295   25.1479 C   0  0  0  0  0  0  0  0  0  0  0  0
    8.4051  -14.1313   24.5267 C   0  0  2  0  0  0  0  0  0  0  0  0
    8.2444  -14.0359   23.0484 N   0  0  0  0  0  0  0  0  0  0  0  0
    8.4955  -15.5364   24.8842 C   0  0  0  0  0  0  0  0  0  0  0  0
    9.1231  -16.3497   24.1580 O   0  0  0  0  0  0  0  0  0  0  0  0
    7.4124  -20.5698   25.9135 N   0  0  0  0  0  0  0  0  0  0  0  0
    8.4553  -19.7429   25.4347 C   0  0  0  0  0  0  0  0  0  0  0  0
    9.5958  -20.2214   25.2524 O   0  0  0  0  0  0  0  0  0  0  0  0
    8.1754  -18.3356   25.1611 C   0  0  0  0  0  0  0  0  0  0  0  0
    8.1009  -17.4578   26.3944 C   0  0  2  0  0  0  0  0  0  0  0  0
    7.8940  -16.0569   26.0560 N   0  0  0  0  0  0  0  0  0  0  0  0
    9.2755  -17.5780   27.2487 C   0  0  0  0  0  0  0  0  0  0  0  0
   10.1764  -16.7009   27.2397 O   0  0  0  0  0  0  0  0  0  0  0  0
    9.4338  -18.6592   28.0937 O   0  0  0  0  0  0  0  0  0  0  0  0
  2 12  2  0
  2  1  1  0
  3  2  1  0
  4  5  1  0
  4  3  2  0
  5 11  2  0
  6  5  1  0
  7  6  1  0
  7  8  1  6
  9 10  2  0
  9  7  1  0
 11 12  1  0
 13 14  1  0
 14 15  1  0
 16 15  1  0
 17 16  1  1
 17 18  1  0
 18  9  1  0
 19 17  1  0
 19 26  1  0
 20 19  2  0
 21 22  1  0
 22 24  1  0
 23 22  2  0
 25 24  1  6
 25 26  1  0
 25 27  1  0
 27 29  1  0
 28 27  2  0
M  END
$$$$
