YMN.pdb
     RDKit          3D

 29 29  0  0  1  0  0  0  0  0999 V2000
    8.4316  -13.5287   14.9103 O   0  0  0  0  0  0  0  0  0  0  0  0
    8.2735  -14.1694   16.1369 C   0  0  0  0  0  0  0  0  0  0  0  0
    8.6568  -15.4787   16.3391 C   0  0  0  0  0  0  0  0  0  0  0  0
    8.4940  -16.1057   17.5655 C   0  0  0  0  0  0  0  0  0  0  0  0
    7.9388  -15.4420   18.6401 C   0  0  0  0  0  0  0  0  0  0  0  0
    7.7415  -16.0665   19.9758 C   0  0  0  0  0  0  0  0  0  0  0  0
    6.9364  -15.1033   20.8036 C   0  0  2  0  0  0  0  0  0  0  0  0
    6.8186  -13.8640   20.0578 N   0  0  0  0  0  0  0  0  0  0  0  0
    7.5328  -14.7928   22.1089 C   0  0  0  0  0  0  0  0  0  0  0  0
    8.4533  -13.9141   22.1182 O   0  0  0  0  0  0  0  0  0  0  0  0
    7.5565  -14.1308   18.4328 C   0  0  0  0  0  0  0  0  0  0  0  0
    7.7184  -13.5056   17.2113 C   0  0  0  0  0  0  0  0  0  0  0  0
    8.4903  -12.0176   28.4091 C   0  0  0  0  0  0  0  0  0  0  0  0
    8.0900  -12.5662   26.7429 S   0  0  0  0  0  0  0  0  0  0  0  0
    6.9567  -14.0226   26.8503 C   0  0  0  0  0  0  0  0  0  0  0  0
    6.6557  -14.4077   25.4590 C   0  0  0  0  0  0  0  0  0  0  0  0
    7.7453  -14.9872   24.6294 C   0  0  2  0  0  0  0  0  0  0  0  0
    7.1461  -15.4064   23.3310 N   0  0  0  0  0  0  0  0  0  0  0  0
    8.4816  -16.1143   25.1750 C   0  0  0  0  0  0  0  0  0  0  0  0
    7.9119  -17.2145   25.3936 O   0  0  0  0  0  0  0  0  0  0  0  0
   12.5608  -16.6066   23.1277 N   0  0  0  0  0  0  0  0  0  0  0  0
   11.9029  -17.5677   23.9301 C   0  0  0  0  0  0  0  0  0  0  0  0
   11.3274  -18.5389   23.3929 O   0  0  0  0  0  0  0  0  0  0  0  0
   11.9099  -17.4040   25.3817 C   0  0  0  0  0  0  0  0  0  0  0  0
   10.5389  -17.2167   26.0000 C   0  0  2  0  0  0  0  0  0  0  0  0
    9.8622  -16.0366   25.4810 N   0  0  0  0  0  0  0  0  0  0  0  0
   10.5768  -17.1483   27.4554 C   0  0  0  0  0  0  0  0  0  0  0  0
   10.1136  -16.1542   28.0702 O   0  0  0  0  0  0  0  0  0  0  0  0
   11.1230  -18.1739   28.2023 O   0  0  0  0  0  0  0  0  0  0  0  0
  2 12  2  0
  2  1  1  0
  3  2  1  0
  4  5  1  0
  4  3  2  0
  5 11  2  0
  6  5  1  0
  7  6  1  0
  7  8  1  6
  9 10  2  0
  9  7  1  0
 11 12  1  0
 13 14  1  0
 14 15  1  0
 16 15  1  0
 17 16  1  1
 17 18  1  0
 18  9  1  0
 19 17  1  0
 19 26  1  0
 20 19  2  0
 21 22  1  0
 22 24  1  0
 23 22  2  0
 25 24  1  6
 25 26  1  0
 25 27  1  0
 27 29  1  0
 28 27  2  0
M  END
$$$$
