YMN.pdb
     RDKit          3D

 29 29  0  0  1  0  0  0  0  0999 V2000
    8.0011  -14.1880   15.4595 O   0  0  0  0  0  0  0  0  0  0  0  0
    8.2070  -14.0839   16.8332 C   0  0  0  0  0  0  0  0  0  0  0  0
    9.1914  -14.7953   17.4866 C   0  0  0  0  0  0  0  0  0  0  0  0
    9.3865  -14.6830   18.8552 C   0  0  0  0  0  0  0  0  0  0  0  0
    8.5996  -13.8504   19.6239 C   0  0  0  0  0  0  0  0  0  0  0  0
    8.7658  -13.6929   21.0938 C   0  0  0  0  0  0  0  0  0  0  0  0
    8.6741  -15.0649   21.7023 C   0  0  2  0  0  0  0  0  0  0  0  0
    7.4506  -15.6834   21.2264 N   0  0  0  0  0  0  0  0  0  0  0  0
    8.6430  -15.0674   23.1703 C   0  0  0  0  0  0  0  0  0  0  0  0
    9.6798  -14.6251   23.7610 O   0  0  0  0  0  0  0  0  0  0  0  0
    7.6150  -13.1399   18.9651 C   0  0  0  0  0  0  0  0  0  0  0  0
    7.4201  -13.2513   17.6017 C   0  0  0  0  0  0  0  0  0  0  0  0
    6.3312  -10.9779   27.5553 C   0  0  0  0  0  0  0  0  0  0  0  0
    7.3807  -12.2804   26.8923 S   0  0  0  0  0  0  0  0  0  0  0  0
    6.5090  -13.0856   25.4750 C   0  0  0  0  0  0  0  0  0  0  0  0
    6.4195  -14.5182   25.8129 C   0  0  0  0  0  0  0  0  0  0  0  0
    7.5459  -15.4110   25.4317 C   0  0  2  0  0  0  0  0  0  0  0  0
    7.5442  -15.5261   23.9461 N   0  0  0  0  0  0  0  0  0  0  0  0
    7.5632  -16.7514   25.9913 C   0  0  0  0  0  0  0  0  0  0  0  0
    6.6362  -17.5663   25.7475 O   0  0  0  0  0  0  0  0  0  0  0  0
    9.9893  -21.1260   24.4452 N   0  0  0  0  0  0  0  0  0  0  0  0
    9.1175  -20.6992   25.4740 C   0  0  0  0  0  0  0  0  0  0  0  0
    8.7069  -21.5201   26.3229 O   0  0  0  0  0  0  0  0  0  0  0  0
    8.7122  -19.2967   25.5235 C   0  0  0  0  0  0  0  0  0  0  0  0
    8.9135  -18.6311   26.8701 C   0  0  2  0  0  0  0  0  0  0  0  0
    8.6129  -17.2071   26.8258 N   0  0  0  0  0  0  0  0  0  0  0  0
   10.2562  -18.8228   27.4034 C   0  0  0  0  0  0  0  0  0  0  0  0
   10.5565  -19.8608   28.0462 O   0  0  0  0  0  0  0  0  0  0  0  0
   11.2387  -17.8697   27.2181 O   0  0  0  0  0  0  0  0  0  0  0  0
  2 12  2  0
  2  1  1  0
  3  2  1  0
  4  5  1  0
  4  3  2  0
  5 11  2  0
  6  5  1  0
  7  6  1  0
  7  8  1  6
  9 10  2  0
  9  7  1  0
 11 12  1  0
 13 14  1  0
 14 15  1  0
 16 15  1  0
 17 16  1  1
 17 18  1  0
 18  9  1  0
 19 17  1  0
 19 26  1  0
 20 19  2  0
 21 22  1  0
 22 24  1  0
 23 22  2  0
 25 24  1  6
 25 26  1  0
 25 27  1  0
 27 29  1  0
 28 27  2  0
M  END
$$$$
