YMN.pdb
     RDKit          3D

 29 29  0  0  1  0  0  0  0  0999 V2000
    7.0518  -14.2067   15.5174 O   0  0  0  0  0  0  0  0  0  0  0  0
    7.5297  -14.1085   16.8221 C   0  0  0  0  0  0  0  0  0  0  0  0
    8.8524  -14.3336   17.1411 C   0  0  0  0  0  0  0  0  0  0  0  0
    9.3161  -14.2328   18.4444 C   0  0  0  0  0  0  0  0  0  0  0  0
    8.4686  -13.9013   19.4815 C   0  0  0  0  0  0  0  0  0  0  0  0
    8.9132  -13.7800   20.8960 C   0  0  0  0  0  0  0  0  0  0  0  0
    9.3158  -15.1538   21.3560 C   0  0  2  0  0  0  0  0  0  0  0  0
    8.1477  -16.0113   21.2763 N   0  0  0  0  0  0  0  0  0  0  0  0
    9.8194  -15.1994   22.7346 C   0  0  0  0  0  0  0  0  0  0  0  0
   10.8507  -14.4973   22.9859 O   0  0  0  0  0  0  0  0  0  0  0  0
    7.1448  -13.6767   19.1571 C   0  0  0  0  0  0  0  0  0  0  0  0
    6.6822  -13.7770   17.8589 C   0  0  0  0  0  0  0  0  0  0  0  0
   10.2670  -13.3034   29.2990 C   0  0  0  0  0  0  0  0  0  0  0  0
    9.9611  -13.6709   27.5644 S   0  0  0  0  0  0  0  0  0  0  0  0
    8.8481  -15.1428   27.4537 C   0  0  0  0  0  0  0  0  0  0  0  0
    8.6084  -15.3646   26.0156 C   0  0  0  0  0  0  0  0  0  0  0  0
    9.7265  -15.8744   25.1782 C   0  0  2  0  0  0  0  0  0  0  0  0
    9.2308  -15.9666   23.7760 N   0  0  0  0  0  0  0  0  0  0  0  0
   10.3099  -17.1549   25.5390 C   0  0  0  0  0  0  0  0  0  0  0  0
    9.7241  -18.2335   25.2630 O   0  0  0  0  0  0  0  0  0  0  0  0
   11.8765  -17.8922   29.1917 N   0  0  0  0  0  0  0  0  0  0  0  0
   11.0734  -18.9726   28.7578 C   0  0  0  0  0  0  0  0  0  0  0  0
   10.3159  -19.5501   29.5675 O   0  0  0  0  0  0  0  0  0  0  0  0
   11.1466  -19.3942   27.3611 C   0  0  0  0  0  0  0  0  0  0  0  0
   12.0923  -18.5751   26.5057 C   0  0  2  0  0  0  0  0  0  0  0  0
   11.5545  -17.2553   26.2074 N   0  0  0  0  0  0  0  0  0  0  0  0
   12.4522  -19.2407   25.2601 C   0  0  0  0  0  0  0  0  0  0  0  0
   13.6538  -19.3485   24.9062 O   0  0  0  0  0  0  0  0  0  0  0  0
   11.4835  -19.7728   24.4315 O   0  0  0  0  0  0  0  0  0  0  0  0
  2 12  2  0
  2  1  1  0
  3  2  1  0
  4  5  1  0
  4  3  2  0
  5 11  2  0
  6  5  1  0
  7  6  1  0
  7  8  1  1
  9 10  2  0
  9  7  1  0
 11 12  1  0
 13 14  1  0
 14 15  1  0
 16 15  1  0
 17 16  1  1
 17 18  1  0
 18  9  1  0
 19 17  1  0
 19 26  1  0
 20 19  2  0
 21 22  1  0
 22 24  1  0
 23 22  2  0
 25 24  1  6
 25 26  1  0
 25 27  1  0
 27 29  1  0
 28 27  2  0
M  END
$$$$
