YMN.pdb
     RDKit          3D

 29 29  0  0  1  0  0  0  0  0999 V2000
    7.7672  -14.2678   15.2633 O   0  0  0  0  0  0  0  0  0  0  0  0
    8.0268  -14.0925   16.6205 C   0  0  0  0  0  0  0  0  0  0  0  0
    9.2437  -14.4123   17.1852 C   0  0  0  0  0  0  0  0  0  0  0  0
    9.4899  -14.2332   18.5383 C   0  0  0  0  0  0  0  0  0  0  0  0
    8.5223  -13.7247   19.3803 C   0  0  0  0  0  0  0  0  0  0  0  0
    8.7335  -13.5128   20.8375 C   0  0  0  0  0  0  0  0  0  0  0  0
    8.7101  -14.8661   21.4927 C   0  0  2  0  0  0  0  0  0  0  0  0
    7.4975  -15.5440   21.0735 N   0  0  0  0  0  0  0  0  0  0  0  0
    8.7208  -14.8205   22.9603 C   0  0  0  0  0  0  0  0  0  0  0  0
    9.7744  -14.3612   23.5065 O   0  0  0  0  0  0  0  0  0  0  0  0
    7.3052  -13.4058   18.8102 C   0  0  0  0  0  0  0  0  0  0  0  0
    7.0592  -13.5841   17.4622 C   0  0  0  0  0  0  0  0  0  0  0  0
    7.1114  -11.3982   27.5193 C   0  0  0  0  0  0  0  0  0  0  0  0
    5.7222  -11.8788   26.4817 S   0  0  0  0  0  0  0  0  0  0  0  0
    6.3470  -12.9374   25.1009 C   0  0  0  0  0  0  0  0  0  0  0  0
    6.5068  -14.2903   25.6655 C   0  0  0  0  0  0  0  0  0  0  0  0
    7.6911  -15.0942   25.2626 C   0  0  2  0  0  0  0  0  0  0  0  0
    7.6440  -15.2513   23.7815 N   0  0  0  0  0  0  0  0  0  0  0  0
    7.8450  -16.4117   25.8546 C   0  0  0  0  0  0  0  0  0  0  0  0
    6.8414  -17.1201   26.1264 O   0  0  0  0  0  0  0  0  0  0  0  0
    6.0999  -19.4327   25.1807 N   0  0  0  0  0  0  0  0  0  0  0  0
    7.1180  -19.6106   26.1463 C   0  0  0  0  0  0  0  0  0  0  0  0
    6.8250  -20.0108   27.2939 O   0  0  0  0  0  0  0  0  0  0  0  0
    8.5018  -19.3206   25.7792 C   0  0  0  0  0  0  0  0  0  0  0  0
    9.1940  -18.3166   26.6792 C   0  0  2  0  0  0  0  0  0  0  0  0
    9.1160  -16.9629   26.1489 N   0  0  0  0  0  0  0  0  0  0  0  0
   10.5885  -18.6524   26.9375 C   0  0  0  0  0  0  0  0  0  0  0  0
   10.8977  -19.6850   27.5848 O   0  0  0  0  0  0  0  0  0  0  0  0
   11.6118  -17.8459   26.4788 O   0  0  0  0  0  0  0  0  0  0  0  0
  2 12  2  0
  2  1  1  0
  3  2  1  0
  4  5  1  0
  4  3  2  0
  5 11  2  0
  6  5  1  0
  7  6  1  0
  7  8  1  1
  9 10  2  0
  9  7  1  0
 11 12  1  0
 13 14  1  0
 14 15  1  0
 16 15  1  0
 17 16  1  1
 17 18  1  0
 18  9  1  0
 19 17  1  0
 19 26  1  0
 20 19  2  0
 21 22  1  0
 22 24  1  0
 23 22  2  0
 25 24  1  6
 25 26  1  0
 25 27  1  0
 27 29  1  0
 28 27  2  0
M  END
$$$$
