YMN.pdb
     RDKit          3D

 29 29  0  0  1  0  0  0  0  0999 V2000
    6.9772  -12.3239   17.4647 O   0  0  0  0  0  0  0  0  0  0  0  0
    7.6454  -13.2006   18.3161 C   0  0  0  0  0  0  0  0  0  0  0  0
    7.1986  -13.4725   19.5922 C   0  0  0  0  0  0  0  0  0  0  0  0
    7.8731  -14.3476   20.4306 C   0  0  0  0  0  0  0  0  0  0  0  0
    9.0254  -14.9860   20.0206 C   0  0  0  0  0  0  0  0  0  0  0  0
    9.7872  -15.9328   20.8787 C   0  0  0  0  0  0  0  0  0  0  0  0
    9.0318  -16.0689   22.1717 C   0  0  2  0  0  0  0  0  0  0  0  0
    8.0472  -15.0043   22.2276 N   0  0  0  0  0  0  0  0  0  0  0  0
    9.8748  -15.9712   23.3701 C   0  0  0  0  0  0  0  0  0  0  0  0
   10.6797  -16.9348   23.5783 O   0  0  0  0  0  0  0  0  0  0  0  0
    9.4691  -14.7106   18.7417 C   0  0  0  0  0  0  0  0  0  0  0  0
    8.7976  -13.8388   17.9059 C   0  0  0  0  0  0  0  0  0  0  0  0
    7.2104  -11.3970   25.9574 C   0  0  0  0  0  0  0  0  0  0  0  0
    6.9666  -12.9528   26.8279 S   0  0  0  0  0  0  0  0  0  0  0  0
    6.3649  -14.2214   25.6254 C   0  0  0  0  0  0  0  0  0  0  0  0
    7.5110  -14.5278   24.7495 C   0  0  0  0  0  0  0  0  0  0  0  0
    8.8259  -14.8267   25.3764 C   0  0  2  0  0  0  0  0  0  0  0  0
    9.8398  -14.8853   24.2860 N   0  0  0  0  0  0  0  0  0  0  0  0
    8.9363  -16.0413   26.1654 C   0  0  0  0  0  0  0  0  0  0  0  0
    8.2806  -16.1833   27.2297 O   0  0  0  0  0  0  0  0  0  0  0  0
    8.9902  -20.6706   24.0672 N   0  0  0  0  0  0  0  0  0  0  0  0
    9.0285  -20.2520   25.4177 C   0  0  0  0  0  0  0  0  0  0  0  0
    8.0616  -20.4939   26.1725 O   0  0  0  0  0  0  0  0  0  0  0  0
   10.2067  -19.5399   25.9061 C   0  0  0  0  0  0  0  0  0  0  0  0
    9.9007  -18.2654   26.6672 C   0  0  2  0  0  0  0  0  0  0  0  0
    9.7731  -17.1173   25.7809 N   0  0  0  0  0  0  0  0  0  0  0  0
   10.8866  -17.9695   27.6989 C   0  0  0  0  0  0  0  0  0  0  0  0
   11.0391  -18.7310   28.6877 O   0  0  0  0  0  0  0  0  0  0  0  0
   11.6828  -16.8434   27.6208 O   0  0  0  0  0  0  0  0  0  0  0  0
  2 12  2  0
  2  1  1  0
  3  2  1  0
  4  5  1  0
  4  3  2  0
  5 11  2  0
  6  5  1  0
  7  6  1  0
  7  8  1  1
  9 10  2  0
  9  7  1  0
 11 12  1  0
 13 14  1  0
 14 15  1  0
 16 15  1  0
 17 16  1  6
 17 18  1  0
 18  9  1  0
 19 17  1  0
 19 26  1  0
 20 19  2  0
 21 22  1  0
 22 24  1  0
 23 22  2  0
 25 24  1  6
 25 26  1  0
 25 27  1  0
 27 29  1  0
 28 27  2  0
M  END
$$$$
