YMN.pdb
     RDKit          3D

 29 29  0  0  1  0  0  0  0  0999 V2000
   11.9317  -16.0553   31.8248 O   0  0  0  0  0  0  0  0  0  0  0  0
   11.4954  -16.1103   30.5032 C   0  0  0  0  0  0  0  0  0  0  0  0
   10.9992  -15.0049   29.8445 C   0  0  0  0  0  0  0  0  0  0  0  0
   10.5677  -15.0726   28.5281 C   0  0  0  0  0  0  0  0  0  0  0  0
   10.6173  -16.2551   27.8190 C   0  0  0  0  0  0  0  0  0  0  0  0
   10.1678  -16.3829   26.4066 C   0  0  0  0  0  0  0  0  0  0  0  0
    8.6643  -16.3595   26.4136 C   0  0  2  0  0  0  0  0  0  0  0  0
    8.2008  -17.6216   26.9596 N   0  0  0  0  0  0  0  0  0  0  0  0
    8.0625  -16.1912   25.0848 C   0  0  0  0  0  0  0  0  0  0  0  0
    7.3916  -17.1753   24.6365 O   0  0  0  0  0  0  0  0  0  0  0  0
   11.1151  -17.3594   28.4828 C   0  0  0  0  0  0  0  0  0  0  0  0
   11.5451  -17.2927   29.7943 C   0  0  0  0  0  0  0  0  0  0  0  0
    6.4783  -11.2092   26.3239 C   0  0  0  0  0  0  0  0  0  0  0  0
    6.1353  -12.6305   25.2752 S   0  0  0  0  0  0  0  0  0  0  0  0
    7.2115  -12.5387   23.7750 C   0  0  0  0  0  0  0  0  0  0  0  0
    6.7881  -13.6491   22.9018 C   0  0  0  0  0  0  0  0  0  0  0  0
    7.5546  -14.9225   22.9476 C   0  0  2  0  0  0  0  0  0  0  0  0
    8.1869  -15.0174   24.2935 N   0  0  0  0  0  0  0  0  0  0  0  0
    8.5865  -15.1249   21.9454 C   0  0  0  0  0  0  0  0  0  0  0  0
    8.3709  -14.8659   20.7333 O   0  0  0  0  0  0  0  0  0  0  0  0
   11.8353  -14.9487   18.0877 N   0  0  0  0  0  0  0  0  0  0  0  0
   12.1336  -14.5976   19.4251 C   0  0  0  0  0  0  0  0  0  0  0  0
   13.3137  -14.3508   19.7558 O   0  0  0  0  0  0  0  0  0  0  0  0
   11.0474  -14.5303   20.3995 C   0  0  0  0  0  0  0  0  0  0  0  0
   10.8562  -15.7924   21.2164 C   0  0  2  0  0  0  0  0  0  0  0  0
    9.8740  -15.6135   22.2763 N   0  0  0  0  0  0  0  0  0  0  0  0
   12.0993  -16.2902   21.7917 C   0  0  0  0  0  0  0  0  0  0  0  0
   12.9751  -16.8338   21.0717 O   0  0  0  0  0  0  0  0  0  0  0  0
   12.3521  -16.1795   23.1452 O   0  0  0  0  0  0  0  0  0  0  0  0
  2 12  2  0
  2  1  1  0
  3  2  1  0
  4  5  1  0
  4  3  2  0
  5 11  2  0
  6  5  1  0
  7  6  1  0
  7  8  1  6
  9 10  2  0
  9  7  1  0
 11 12  1  0
 13 14  1  0
 14 15  1  0
 16 15  1  0
 17 16  1  6
 17 18  1  0
 18  9  1  0
 19 17  1  0
 19 26  1  0
 20 19  2  0
 21 22  1  0
 22 24  1  0
 23 22  2  0
 25 24  1  1
 25 26  1  0
 25 27  1  0
 27 29  1  0
 28 27  2  0
M  END
$$$$
