YMN.pdb
     RDKit          3D

 29 29  0  0  1  0  0  0  0  0999 V2000
    6.6879  -13.7463   16.6545 O   0  0  0  0  0  0  0  0  0  0  0  0
    7.5678  -14.0587   17.6881 C   0  0  0  0  0  0  0  0  0  0  0  0
    8.2322  -15.2656   17.7506 C   0  0  0  0  0  0  0  0  0  0  0  0
    9.1060  -15.5648   18.7853 C   0  0  0  0  0  0  0  0  0  0  0  0
    9.3480  -14.6626   19.8007 C   0  0  0  0  0  0  0  0  0  0  0  0
   10.2743  -14.9325   20.9330 C   0  0  0  0  0  0  0  0  0  0  0  0
    9.4792  -15.6279   22.0032 C   0  0  2  0  0  0  0  0  0  0  0  0
    8.0739  -15.5167   21.6586 N   0  0  0  0  0  0  0  0  0  0  0  0
    9.6633  -15.0645   23.3466 C   0  0  0  0  0  0  0  0  0  0  0  0
   10.2078  -13.9161   23.4110 O   0  0  0  0  0  0  0  0  0  0  0  0
    8.6803  -13.4552   19.7338 C   0  0  0  0  0  0  0  0  0  0  0  0
    7.8096  -13.1564   18.7032 C   0  0  0  0  0  0  0  0  0  0  0  0
    6.4389  -11.5938   27.5397 C   0  0  0  0  0  0  0  0  0  0  0  0
    6.9634  -12.1929   25.9261 S   0  0  0  0  0  0  0  0  0  0  0  0
    6.1686  -13.8319   25.6109 C   0  0  0  0  0  0  0  0  0  0  0  0
    7.1592  -14.6275   24.8625 C   0  0  0  0  0  0  0  0  0  0  0  0
    8.4111  -15.0370   25.5527 C   0  0  2  0  0  0  0  0  0  0  0  0
    9.2755  -15.7176   24.5477 N   0  0  0  0  0  0  0  0  0  0  0  0
    8.2897  -15.9059   26.7104 C   0  0  0  0  0  0  0  0  0  0  0  0
    7.4262  -15.6841   27.5981 O   0  0  0  0  0  0  0  0  0  0  0  0
    6.8444  -20.7785   24.9338 N   0  0  0  0  0  0  0  0  0  0  0  0
    6.8268  -19.9206   26.0583 C   0  0  0  0  0  0  0  0  0  0  0  0
    6.2603  -20.2855   27.1113 O   0  0  0  0  0  0  0  0  0  0  0  0
    7.4765  -18.6157   25.9646 C   0  0  0  0  0  0  0  0  0  0  0  0
    8.5107  -18.3494   27.0401 C   0  0  2  0  0  0  0  0  0  0  0  0
    9.1227  -17.0361   26.8962 N   0  0  0  0  0  0  0  0  0  0  0  0
    9.5556  -19.3644   27.0869 C   0  0  0  0  0  0  0  0  0  0  0  0
    9.3054  -20.5355   27.4701 O   0  0  0  0  0  0  0  0  0  0  0  0
   10.8519  -19.0697   26.7116 O   0  0  0  0  0  0  0  0  0  0  0  0
  2 12  2  0
  2  1  1  0
  3  2  1  0
  4  5  1  0
  4  3  2  0
  5 11  2  0
  6  5  1  0
  7  6  1  0
  7  8  1  6
  9 10  2  0
  9  7  1  0
 11 12  1  0
 13 14  1  0
 14 15  1  0
 16 15  1  0
 17 16  1  6
 17 18  1  0
 18  9  1  0
 19 17  1  0
 19 26  1  0
 20 19  2  0
 21 22  1  0
 22 24  1  0
 23 22  2  0
 25 24  1  6
 25 26  1  0
 25 27  1  0
 27 29  1  0
 28 27  2  0
M  END
$$$$
