YMN.pdb
     RDKit          3D

 29 29  0  0  1  0  0  0  0  0999 V2000
    7.5310  -13.9719   15.3226 O   0  0  0  0  0  0  0  0  0  0  0  0
    7.8673  -13.9148   16.6731 C   0  0  0  0  0  0  0  0  0  0  0  0
    8.9566  -14.5844   17.1901 C   0  0  0  0  0  0  0  0  0  0  0  0
    9.2810  -14.5197   18.5370 C   0  0  0  0  0  0  0  0  0  0  0  0
    8.5235  -13.7786   19.4204 C   0  0  0  0  0  0  0  0  0  0  0  0
    8.8266  -13.6753   20.8732 C   0  0  0  0  0  0  0  0  0  0  0  0
    8.9828  -15.0763   21.3966 C   0  0  2  0  0  0  0  0  0  0  0  0
    7.7525  -15.7951   21.1220 N   0  0  0  0  0  0  0  0  0  0  0  0
    9.2394  -15.1503   22.8405 C   0  0  0  0  0  0  0  0  0  0  0  0
   10.3982  -14.7968   23.2302 O   0  0  0  0  0  0  0  0  0  0  0  0
    7.4336  -13.1097   18.8981 C   0  0  0  0  0  0  0  0  0  0  0  0
    7.1097  -13.1738   17.5563 C   0  0  0  0  0  0  0  0  0  0  0  0
    6.6976  -10.8203   26.9530 C   0  0  0  0  0  0  0  0  0  0  0  0
    6.9230  -12.5830   27.2354 S   0  0  0  0  0  0  0  0  0  0  0  0
    7.1646  -13.4222   25.6061 C   0  0  0  0  0  0  0  0  0  0  0  0
    7.4195  -14.8418   25.9133 C   0  0  0  0  0  0  0  0  0  0  0  0
    8.5740  -15.5149   25.2612 C   0  0  2  0  0  0  0  0  0  0  0  0
    8.2863  -15.5848   23.8008 N   0  0  0  0  0  0  0  0  0  0  0  0
    8.9244  -16.8480   25.7196 C   0  0  0  0  0  0  0  0  0  0  0  0
    8.0815  -17.7818   25.6986 O   0  0  0  0  0  0  0  0  0  0  0  0
   11.2496  -19.5544   23.6800 N   0  0  0  0  0  0  0  0  0  0  0  0
   11.9178  -18.7806   24.6575 C   0  0  0  0  0  0  0  0  0  0  0  0
   12.6563  -17.8353   24.3055 O   0  0  0  0  0  0  0  0  0  0  0  0
   11.7293  -19.1052   26.0692 C   0  0  0  0  0  0  0  0  0  0  0  0
   10.4808  -18.5108   26.6898 C   0  0  2  0  0  0  0  0  0  0  0  0
   10.2174  -17.1639   26.2036 N   0  0  0  0  0  0  0  0  0  0  0  0
   10.5223  -18.4968   28.1465 C   0  0  0  0  0  0  0  0  0  0  0  0
   10.5040  -17.4141   28.7854 O   0  0  0  0  0  0  0  0  0  0  0  0
   10.5830  -19.6729   28.8685 O   0  0  0  0  0  0  0  0  0  0  0  0
  2 12  2  0
  2  1  1  0
  3  2  1  0
  4  5  1  0
  4  3  2  0
  5 11  2  0
  6  5  1  0
  7  6  1  0
  7  8  1  1
  9 10  2  0
  9  7  1  0
 11 12  1  0
 13 14  1  0
 14 15  1  0
 16 15  1  0
 17 16  1  1
 17 18  1  0
 18  9  1  0
 19 17  1  0
 19 26  1  0
 20 19  2  0
 21 22  1  0
 22 24  1  0
 23 22  2  0
 25 24  1  6
 25 26  1  0
 25 27  1  0
 27 29  1  0
 28 27  2  0
M  END
$$$$
