VCN.pdb
     RDKit          3D

 22 21  0  0  1  0  0  0  0  0999 V2000
    7.5153  -12.2473   20.7788 C   0  0  0  0  0  0  0  0  0  0  0  0
    8.2843  -13.3197   20.0363 C   0  0  2  0  0  0  0  0  0  0  0  0
    7.5499  -13.5659   18.7364 C   0  0  0  0  0  0  0  0  0  0  0  0
    8.2585  -14.6049   20.8272 C   0  0  2  0  0  0  0  0  0  0  0  0
    6.8677  -15.0229   20.9071 N   0  0  0  0  0  0  0  0  0  0  0  0
    8.7348  -14.4156   22.2226 C   0  0  0  0  0  0  0  0  0  0  0  0
    9.9308  -14.1007   22.4990 O   0  0  0  0  0  0  0  0  0  0  0  0
    7.8747  -14.5755   23.3587 N   0  0  0  0  0  0  0  0  0  0  0  0
    8.3332  -14.5598   24.7083 C   0  0  1  0  0  0  0  0  0  0  0  0
    7.6643  -13.3697   25.4068 C   0  0  0  0  0  0  0  0  0  0  0  0
    5.9061  -13.6684   25.6606 S   0  0  0  0  0  0  0  0  0  0  0  0
    8.0311  -15.8250   25.4353 C   0  0  0  0  0  0  0  0  0  0  0  0
    6.9125  -16.3563   25.2322 O   0  0  0  0  0  0  0  0  0  0  0  0
   10.2563  -19.8020   23.1342 N   0  0  0  0  0  0  0  0  0  0  0  0
    9.4161  -19.0675   23.9990 C   0  0  0  0  0  0  0  0  0  0  0  0
    8.2088  -19.3573   24.0357 O   0  0  0  0  0  0  0  0  0  0  0  0
    9.9805  -18.0008   24.8166 C   0  0  0  0  0  0  0  0  0  0  0  0
    9.4050  -17.8294   26.1848 C   0  0  2  0  0  0  0  0  0  0  0  0
    8.9238  -16.4413   26.3222 N   0  0  0  0  0  0  0  0  0  0  0  0
   10.3541  -18.1227   27.2906 C   0  0  0  0  0  0  0  0  0  0  0  0
   10.3766  -19.1653   27.9394 O   0  0  0  0  0  0  0  0  0  0  0  0
   11.3155  -17.1522   27.6502 O   0  0  0  0  0  0  0  0  0  0  0  0
  2  4  1  0
  2  1  1  1
  3  2  1  0
  4  6  1  0
  4  5  1  1
  6  8  1  0
  6  7  2  0
  8  9  1  0
  9 12  1  0
  9 10  1  1
 11 10  1  0
 12 19  1  0
 13 12  2  0
 15 14  1  0
 16 15  2  0
 17 15  1  0
 18 17  1  6
 19 18  1  0
 20 18  1  0
 20 22  1  0
 21 20  2  0
M  END
$$$$
