VCN.pdb
     RDKit          3D

 22 21  0  0  1  0  0  0  0  0999 V2000
    6.9550  -13.0851   20.0476 C   0  0  0  0  0  0  0  0  0  0  0  0
    8.3530  -13.0448   19.4676 C   0  0  2  0  0  0  0  0  0  0  0  0
    8.2115  -13.2037   17.9694 C   0  0  0  0  0  0  0  0  0  0  0  0
    9.1508  -14.2194   19.9792 C   0  0  2  0  0  0  0  0  0  0  0  0
    8.4846  -15.4211   19.5023 N   0  0  0  0  0  0  0  0  0  0  0  0
    9.1591  -14.2890   21.4641 C   0  0  0  0  0  0  0  0  0  0  0  0
    8.8891  -13.2902   22.1958 O   0  0  0  0  0  0  0  0  0  0  0  0
    9.4734  -15.4925   22.1773 N   0  0  0  0  0  0  0  0  0  0  0  0
    9.4098  -15.6124   23.5963 C   0  0  1  0  0  0  0  0  0  0  0  0
    7.9823  -15.2505   24.0242 C   0  0  0  0  0  0  0  0  0  0  0  0
    7.8449  -15.1563   25.8178 S   0  0  0  0  0  0  0  0  0  0  0  0
    9.7653  -16.9774   24.0767 C   0  0  0  0  0  0  0  0  0  0  0  0
    9.6170  -17.9304   23.2739 O   0  0  0  0  0  0  0  0  0  0  0  0
   13.0834  -20.7512   23.9437 N   0  0  0  0  0  0  0  0  0  0  0  0
   12.0936  -19.7469   23.8730 C   0  0  0  0  0  0  0  0  0  0  0  0
   11.1966  -19.8612   23.0214 O   0  0  0  0  0  0  0  0  0  0  0  0
   12.1494  -18.6155   24.7904 C   0  0  0  0  0  0  0  0  0  0  0  0
   11.0006  -18.4599   25.7331 C   0  0  2  0  0  0  0  0  0  0  0  0
   10.2505  -17.2440   25.3640 N   0  0  0  0  0  0  0  0  0  0  0  0
   11.3898  -18.3707   27.1648 C   0  0  0  0  0  0  0  0  0  0  0  0
   11.4766  -17.3266   27.8057 O   0  0  0  0  0  0  0  0  0  0  0  0
   11.6905  -19.5554   27.8731 O   0  0  0  0  0  0  0  0  0  0  0  0
  2  4  1  0
  2  1  1  1
  3  2  1  0
  4  6  1  0
  4  5  1  6
  6  8  1  0
  6  7  2  0
  8  9  1  0
  9 12  1  0
  9 10  1  6
 11 10  1  0
 12 19  1  0
 13 12  2  0
 15 14  1  0
 16 15  2  0
 17 15  1  0
 18 17  1  6
 19 18  1  0
 20 18  1  0
 20 22  1  0
 21 20  2  0
M  END
$$$$
