VCN.pdb
     RDKit          3D

 22 21  0  0  1  0  0  0  0  0999 V2000
    8.3571  -14.9638   15.8044 C   0  0  0  0  0  0  0  0  0  0  0  0
    8.9827  -14.5361   17.1154 C   0  0  2  0  0  0  0  0  0  0  0  0
    9.7861  -15.7136   17.6231 C   0  0  0  0  0  0  0  0  0  0  0  0
    7.8998  -14.2504   18.1272 C   0  0  2  0  0  0  0  0  0  0  0  0
    7.0959  -13.1645   17.5889 N   0  0  0  0  0  0  0  0  0  0  0  0
    8.4528  -13.7785   19.4239 C   0  0  0  0  0  0  0  0  0  0  0  0
    8.2820  -12.5971   19.8495 O   0  0  0  0  0  0  0  0  0  0  0  0
    9.2206  -14.6265   20.2884 N   0  0  0  0  0  0  0  0  0  0  0  0
    9.2624  -14.4834   21.7060 C   0  0  1  0  0  0  0  0  0  0  0  0
    7.8133  -14.4417   22.2063 C   0  0  0  0  0  0  0  0  0  0  0  0
    7.7481  -14.3367   24.0033 S   0  0  0  0  0  0  0  0  0  0  0  0
   10.0109  -15.5844   22.3754 C   0  0  0  0  0  0  0  0  0  0  0  0
    9.5505  -16.7467   22.2671 O   0  0  0  0  0  0  0  0  0  0  0  0
   13.3674  -15.7129   21.0351 N   0  0  0  0  0  0  0  0  0  0  0  0
   14.1042  -15.5196   22.2238 C   0  0  0  0  0  0  0  0  0  0  0  0
   15.2451  -15.0361   22.1391 O   0  0  0  0  0  0  0  0  0  0  0  0
   13.5135  -15.8879   23.5047 C   0  0  0  0  0  0  0  0  0  0  0  0
   12.1342  -16.4612   23.4663 C   0  0  2  0  0  0  0  0  0  0  0  0
   11.1879  -15.3867   23.1097 N   0  0  0  0  0  0  0  0  0  0  0  0
   11.6948  -17.0878   24.7406 C   0  0  0  0  0  0  0  0  0  0  0  0
   10.8392  -16.6272   25.4918 O   0  0  0  0  0  0  0  0  0  0  0  0
   12.2846  -18.3041   25.1505 O   0  0  0  0  0  0  0  0  0  0  0  0
  2  4  1  0
  2  1  1  6
  3  2  1  0
  4  6  1  0
  4  5  1  6
  6  8  1  0
  6  7  2  0
  8  9  1  0
  9 12  1  0
  9 10  1  1
 11 10  1  0
 12 19  1  0
 13 12  2  0
 15 14  1  0
 16 15  2  0
 17 15  1  0
 18 17  1  1
 19 18  1  0
 20 18  1  0
 20 22  1  0
 21 20  2  0
M  END
$$$$
