VCN.pdb
     RDKit          3D

 22 21  0  0  1  0  0  0  0  0999 V2000
    9.0528  -12.1432   19.1657 C   0  0  0  0  0  0  0  0  0  0  0  0
    8.2970  -13.4290   18.9046 C   0  0  2  0  0  0  0  0  0  0  0  0
    7.0768  -13.4104   19.7994 C   0  0  0  0  0  0  0  0  0  0  0  0
    9.1448  -14.6097   19.3110 C   0  0  2  0  0  0  0  0  0  0  0  0
    8.3330  -15.7999   19.1119 N   0  0  0  0  0  0  0  0  0  0  0  0
    9.5096  -14.5701   20.7515 C   0  0  0  0  0  0  0  0  0  0  0  0
   10.3429  -13.7394   21.2222 O   0  0  0  0  0  0  0  0  0  0  0  0
    8.9446  -15.4699   21.7145 N   0  0  0  0  0  0  0  0  0  0  0  0
    9.2766  -15.4577   23.1006 C   0  0  1  0  0  0  0  0  0  0  0  0
    7.9777  -15.6773   23.8859 C   0  0  0  0  0  0  0  0  0  0  0  0
    8.3086  -15.8969   25.6428 S   0  0  0  0  0  0  0  0  0  0  0  0
   10.2832  -16.4953   23.4622 C   0  0  0  0  0  0  0  0  0  0  0  0
   10.0180  -17.6861   23.1686 O   0  0  0  0  0  0  0  0  0  0  0  0
   14.6047  -14.8108   22.7803 N   0  0  0  0  0  0  0  0  0  0  0  0
   14.2966  -16.1679   23.0180 C   0  0  0  0  0  0  0  0  0  0  0  0
   14.4052  -16.9714   22.0771 O   0  0  0  0  0  0  0  0  0  0  0  0
   13.8644  -16.5860   24.3460 C   0  0  0  0  0  0  0  0  0  0  0  0
   12.5149  -17.2200   24.4427 C   0  0  2  0  0  0  0  0  0  0  0  0
   11.4947  -16.2087   24.1053 N   0  0  0  0  0  0  0  0  0  0  0  0
   12.2017  -17.7950   25.7771 C   0  0  0  0  0  0  0  0  0  0  0  0
   12.5377  -18.9136   26.1568 O   0  0  0  0  0  0  0  0  0  0  0  0
   11.4627  -17.0260   26.7034 O   0  0  0  0  0  0  0  0  0  0  0  0
  2  4  1  0
  2  1  1  1
  3  2  1  0
  4  6  1  0
  4  5  1  1
  6  8  1  0
  6  7  2  0
  8  9  1  0
  9 12  1  0
  9 10  1  1
 11 10  1  0
 12 19  1  0
 13 12  2  0
 15 14  1  0
 16 15  2  0
 17 15  1  0
 18 17  1  1
 19 18  1  0
 20 18  1  0
 20 22  1  0
 21 20  2  0
M  END
$$$$
