VCN.pdb
     RDKit          3D

 22 21  0  0  1  0  0  0  0  0999 V2000
    9.3658  -12.8405   19.0779 C   0  0  0  0  0  0  0  0  0  0  0  0
    7.9240  -13.3017   19.1111 C   0  0  2  0  0  0  0  0  0  0  0  0
    7.1608  -12.2967   19.9462 C   0  0  0  0  0  0  0  0  0  0  0  0
    7.8326  -14.6382   19.8065 C   0  0  2  0  0  0  0  0  0  0  0  0
    6.4536  -15.0840   19.6832 N   0  0  0  0  0  0  0  0  0  0  0  0
    8.1266  -14.5365   21.2601 C   0  0  0  0  0  0  0  0  0  0  0  0
    7.4795  -13.7711   22.0357 O   0  0  0  0  0  0  0  0  0  0  0  0
    9.1649  -15.2977   21.8913 N   0  0  0  0  0  0  0  0  0  0  0  0
    9.3825  -15.3259   23.2997 C   0  0  1  0  0  0  0  0  0  0  0  0
    8.0420  -15.6613   23.9649 C   0  0  0  0  0  0  0  0  0  0  0  0
    8.2465  -15.9516   25.7308 S   0  0  0  0  0  0  0  0  0  0  0  0
   10.4233  -16.3130   23.7033 C   0  0  0  0  0  0  0  0  0  0  0  0
   10.2105  -17.5205   23.4363 O   0  0  0  0  0  0  0  0  0  0  0  0
   13.8312  -16.4604   22.1340 N   0  0  0  0  0  0  0  0  0  0  0  0
   14.5242  -15.9548   23.2553 C   0  0  0  0  0  0  0  0  0  0  0  0
   15.5700  -15.3131   23.0628 O   0  0  0  0  0  0  0  0  0  0  0  0
   14.0003  -16.1962   24.5941 C   0  0  0  0  0  0  0  0  0  0  0  0
   12.6923  -16.9130   24.6826 C   0  0  2  0  0  0  0  0  0  0  0  0
   11.6118  -15.9621   24.3575 N   0  0  0  0  0  0  0  0  0  0  0  0
   12.4155  -17.5224   26.0098 C   0  0  0  0  0  0  0  0  0  0  0  0
   11.7147  -17.0170   26.8828 O   0  0  0  0  0  0  0  0  0  0  0  0
   12.9854  -18.7758   26.3258 O   0  0  0  0  0  0  0  0  0  0  0  0
  2  4  1  0
  2  1  1  1
  3  2  1  0
  4  6  1  0
  4  5  1  1
  6  8  1  0
  6  7  2  0
  8  9  1  0
  9 12  1  0
  9 10  1  1
 11 10  1  0
 12 19  1  0
 13 12  2  0
 15 14  1  0
 16 15  2  0
 17 15  1  0
 18 17  1  1
 19 18  1  0
 20 18  1  0
 20 22  1  0
 21 20  2  0
M  END
$$$$
