VCN.pdb
     RDKit          3D

 22 21  0  0  1  0  0  0  0  0999 V2000
    6.7607  -12.8490   19.2984 C   0  0  0  0  0  0  0  0  0  0  0  0
    8.0900  -12.9719   20.0129 C   0  0  2  0  0  0  0  0  0  0  0  0
    9.1510  -12.4771   19.0543 C   0  0  0  0  0  0  0  0  0  0  0  0
    8.3787  -14.4242   20.3054 C   0  0  2  0  0  0  0  0  0  0  0  0
    7.1049  -15.1247   20.2594 N   0  0  0  0  0  0  0  0  0  0  0  0
    8.9333  -14.6230   21.6702 C   0  0  0  0  0  0  0  0  0  0  0  0
   10.1602  -14.4558   21.9396 O   0  0  0  0  0  0  0  0  0  0  0  0
    8.1196  -15.0189   22.7825 N   0  0  0  0  0  0  0  0  0  0  0  0
    8.6341  -15.2915   24.0835 C   0  0  1  0  0  0  0  0  0  0  0  0
    7.4984  -15.0525   25.0860 C   0  0  0  0  0  0  0  0  0  0  0  0
    6.8960  -13.3574   24.9949 S   0  0  0  0  0  0  0  0  0  0  0  0
    9.1605  -16.6792   24.2170 C   0  0  0  0  0  0  0  0  0  0  0  0
    8.6619  -17.5611   23.4765 O   0  0  0  0  0  0  0  0  0  0  0  0
   12.4030  -20.1572   22.5610 N   0  0  0  0  0  0  0  0  0  0  0  0
   12.7799  -18.9548   23.1978 C   0  0  0  0  0  0  0  0  0  0  0  0
   13.9849  -18.7621   23.4292 O   0  0  0  0  0  0  0  0  0  0  0  0
   11.7572  -17.9822   23.5626 C   0  0  0  0  0  0  0  0  0  0  0  0
   11.1157  -18.1545   24.9010 C   0  0  2  0  0  0  0  0  0  0  0  0
   10.1716  -17.0412   25.1170 N   0  0  0  0  0  0  0  0  0  0  0  0
   12.0721  -18.2036   26.0378 C   0  0  0  0  0  0  0  0  0  0  0  0
   12.5759  -17.2208   26.5752 O   0  0  0  0  0  0  0  0  0  0  0  0
   12.4537  -19.4574   26.5646 O   0  0  0  0  0  0  0  0  0  0  0  0
  2  4  1  0
  2  1  1  6
  3  2  1  0
  4  6  1  0
  4  5  1  1
  6  8  1  0
  6  7  2  0
  8  9  1  0
  9 12  1  0
  9 10  1  1
 11 10  1  0
 12 19  1  0
 13 12  2  0
 15 14  1  0
 16 15  2  0
 17 15  1  0
 18 17  1  6
 19 18  1  0
 20 18  1  0
 20 22  1  0
 21 20  2  0
M  END
$$$$
