VCN.pdb
     RDKit          3D

 22 21  0  0  1  0  0  0  0  0999 V2000
    7.2842  -12.8026   20.2004 C   0  0  0  0  0  0  0  0  0  0  0  0
    8.3714  -13.3021   19.2725 C   0  0  2  0  0  0  0  0  0  0  0  0
    7.7322  -13.5034   17.9157 C   0  0  0  0  0  0  0  0  0  0  0  0
    8.8692  -14.6454   19.7478 C   0  0  2  0  0  0  0  0  0  0  0  0
    7.7420  -15.5618   19.6770 N   0  0  0  0  0  0  0  0  0  0  0  0
    9.3109  -14.6108   21.1668 C   0  0  0  0  0  0  0  0  0  0  0  0
   10.4159  -14.1047   21.5257 O   0  0  0  0  0  0  0  0  0  0  0  0
    8.5182  -15.1482   22.2338 N   0  0  0  0  0  0  0  0  0  0  0  0
    8.9720  -15.2580   23.5806 C   0  0  1  0  0  0  0  0  0  0  0  0
    7.7398  -15.1687   24.4892 C   0  0  0  0  0  0  0  0  0  0  0  0
    8.2074  -15.2292   26.2277 S   0  0  0  0  0  0  0  0  0  0  0  0
    9.7156  -16.5235   23.8378 C   0  0  0  0  0  0  0  0  0  0  0  0
    9.1653  -17.5980   23.4953 O   0  0  0  0  0  0  0  0  0  0  0  0
   12.7413  -17.6784   22.1175 N   0  0  0  0  0  0  0  0  0  0  0  0
   13.6503  -17.5015   23.1832 C   0  0  0  0  0  0  0  0  0  0  0  0
   14.8430  -17.2857   22.9121 O   0  0  0  0  0  0  0  0  0  0  0  0
   13.1709  -17.5757   24.5579 C   0  0  0  0  0  0  0  0  0  0  0  0
   11.7082  -17.8169   24.7453 C   0  0  2  0  0  0  0  0  0  0  0  0
   10.9823  -16.5703   24.4352 N   0  0  0  0  0  0  0  0  0  0  0  0
   11.3311  -18.2681   26.1104 C   0  0  0  0  0  0  0  0  0  0  0  0
   11.2764  -19.4403   26.4732 O   0  0  0  0  0  0  0  0  0  0  0  0
   11.0035  -17.3041   27.0897 O   0  0  0  0  0  0  0  0  0  0  0  0
  2  4  1  0
  2  1  1  1
  3  2  1  0
  4  6  1  0
  4  5  1  1
  6  8  1  0
  6  7  2  0
  8  9  1  0
  9 12  1  0
  9 10  1  1
 11 10  1  0
 12 19  1  0
 13 12  2  0
 15 14  1  0
 16 15  2  0
 17 15  1  0
 18 17  1  1
 19 18  1  0
 20 18  1  0
 20 22  1  0
 21 20  2  0
M  END
$$$$
