VCN.pdb
     RDKit          3D

 22 21  0  0  1  0  0  0  0  0999 V2000
    7.3327  -12.7378   19.7563 C   0  0  0  0  0  0  0  0  0  0  0  0
    8.4813  -13.3065   18.9499 C   0  0  2  0  0  0  0  0  0  0  0  0
    7.9432  -13.6002   17.5664 C   0  0  0  0  0  0  0  0  0  0  0  0
    8.9291  -14.6151   19.5542 C   0  0  2  0  0  0  0  0  0  0  0  0
    7.8099  -15.5368   19.4404 N   0  0  0  0  0  0  0  0  0  0  0  0
    9.2401  -14.4879   21.0023 C   0  0  0  0  0  0  0  0  0  0  0  0
   10.2837  -13.9088   21.4282 O   0  0  0  0  0  0  0  0  0  0  0  0
    8.3810  -15.0118   22.0238 N   0  0  0  0  0  0  0  0  0  0  0  0
    8.7348  -15.0715   23.4033 C   0  0  1  0  0  0  0  0  0  0  0  0
    7.4422  -14.9264   24.2157 C   0  0  0  0  0  0  0  0  0  0  0  0
    7.7776  -14.9668   25.9850 S   0  0  0  0  0  0  0  0  0  0  0  0
    9.4359  -16.3356   23.7652 C   0  0  0  0  0  0  0  0  0  0  0  0
    8.8941  -17.4154   23.4263 O   0  0  0  0  0  0  0  0  0  0  0  0
   13.9433  -16.2385   22.6499 N   0  0  0  0  0  0  0  0  0  0  0  0
   13.0320  -17.2523   23.0173 C   0  0  0  0  0  0  0  0  0  0  0  0
   12.4687  -17.8946   22.1158 O   0  0  0  0  0  0  0  0  0  0  0  0
   12.7791  -17.5158   24.4286 C   0  0  0  0  0  0  0  0  0  0  0  0
   11.3478  -17.6185   24.8450 C   0  0  2  0  0  0  0  0  0  0  0  0
   10.6544  -16.3754   24.4561 N   0  0  0  0  0  0  0  0  0  0  0  0
   11.1473  -17.8479   26.2998 C   0  0  0  0  0  0  0  0  0  0  0  0
   10.5165  -17.1056   27.0479 O   0  0  0  0  0  0  0  0  0  0  0  0
   11.7112  -18.9948   26.9015 O   0  0  0  0  0  0  0  0  0  0  0  0
  2  4  1  0
  2  1  1  1
  3  2  1  0
  4  6  1  0
  4  5  1  1
  6  8  1  0
  6  7  2  0
  8  9  1  0
  9 12  1  0
  9 10  1  1
 11 10  1  0
 12 19  1  0
 13 12  2  0
 15 14  1  0
 16 15  2  0
 17 15  1  0
 18 17  1  1
 19 18  1  0
 20 18  1  0
 20 22  1  0
 21 20  2  0
M  END
$$$$
