VCN.pdb
     RDKit          3D

 22 21  0  0  1  0  0  0  0  0999 V2000
    7.3928  -12.7394   19.9498 C   0  0  0  0  0  0  0  0  0  0  0  0
    8.4173  -13.4391   19.0818 C   0  0  2  0  0  0  0  0  0  0  0  0
    7.7505  -13.7157   17.7519 C   0  0  0  0  0  0  0  0  0  0  0  0
    8.7827  -14.7685   19.6960 C   0  0  2  0  0  0  0  0  0  0  0  0
    7.5686  -15.5689   19.7213 N   0  0  0  0  0  0  0  0  0  0  0  0
    9.2398  -14.6303   21.1037 C   0  0  0  0  0  0  0  0  0  0  0  0
   10.3306  -14.0653   21.4150 O   0  0  0  0  0  0  0  0  0  0  0  0
    8.4791  -15.1267   22.2132 N   0  0  0  0  0  0  0  0  0  0  0  0
    8.9221  -15.0695   23.5668 C   0  0  1  0  0  0  0  0  0  0  0  0
    7.6856  -14.8446   24.4456 C   0  0  0  0  0  0  0  0  0  0  0  0
    8.1195  -14.8533   26.1938 S   0  0  0  0  0  0  0  0  0  0  0  0
    9.6426  -16.3030   23.9909 C   0  0  0  0  0  0  0  0  0  0  0  0
    9.0729  -17.4033   23.7924 O   0  0  0  0  0  0  0  0  0  0  0  0
   14.0275  -15.5682   23.2547 N   0  0  0  0  0  0  0  0  0  0  0  0
   13.5648  -16.8801   23.4958 C   0  0  0  0  0  0  0  0  0  0  0  0
   13.5606  -17.6873   22.5518 O   0  0  0  0  0  0  0  0  0  0  0  0
   13.1096  -17.2488   24.8307 C   0  0  0  0  0  0  0  0  0  0  0  0
   11.6467  -17.5064   24.9924 C   0  0  2  0  0  0  0  0  0  0  0  0
   10.9083  -16.2931   24.5921 N   0  0  0  0  0  0  0  0  0  0  0  0
   11.2395  -17.8864   26.3705 C   0  0  0  0  0  0  0  0  0  0  0  0
   10.6975  -17.1339   27.1758 O   0  0  0  0  0  0  0  0  0  0  0  0
   11.4793  -19.2031   26.8223 O   0  0  0  0  0  0  0  0  0  0  0  0
  2  4  1  0
  2  1  1  1
  3  2  1  0
  4  6  1  0
  4  5  1  1
  6  8  1  0
  6  7  2  0
  8  9  1  0
  9 12  1  0
  9 10  1  1
 11 10  1  0
 12 19  1  0
 13 12  2  0
 15 14  1  0
 16 15  2  0
 17 15  1  0
 18 17  1  1
 19 18  1  0
 20 18  1  0
 20 22  1  0
 21 20  2  0
M  END
$$$$
