VCN.pdb
     RDKit          3D

 22 21  0  0  1  0  0  0  0  0999 V2000
    9.2130  -13.4235   19.5686 C   0  0  0  0  0  0  0  0  0  0  0  0
    7.8129  -13.8419   19.9655 C   0  0  2  0  0  0  0  0  0  0  0  0
    7.2072  -12.6822   20.7257 C   0  0  0  0  0  0  0  0  0  0  0  0
    7.8808  -15.0204   20.9060 C   0  0  2  0  0  0  0  0  0  0  0  0
    6.5105  -15.4373   21.1588 N   0  0  0  0  0  0  0  0  0  0  0  0
    8.4724  -14.6568   22.2204 C   0  0  0  0  0  0  0  0  0  0  0  0
    9.7003  -14.3775   22.3626 O   0  0  0  0  0  0  0  0  0  0  0  0
    7.6961  -14.5955   23.4244 N   0  0  0  0  0  0  0  0  0  0  0  0
    8.2313  -14.2337   24.6949 C   0  0  1  0  0  0  0  0  0  0  0  0
    7.1683  -13.3998   25.4205 C   0  0  0  0  0  0  0  0  0  0  0  0
    7.7825  -12.7970   27.0029 S   0  0  0  0  0  0  0  0  0  0  0  0
    8.6144  -15.4156   25.5177 C   0  0  0  0  0  0  0  0  0  0  0  0
    7.7219  -16.2623   25.7652 O   0  0  0  0  0  0  0  0  0  0  0  0
   11.8884  -17.3805   23.7444 N   0  0  0  0  0  0  0  0  0  0  0  0
   11.2980  -18.0023   24.8660 C   0  0  0  0  0  0  0  0  0  0  0  0
   10.6227  -19.0288   24.6845 O   0  0  0  0  0  0  0  0  0  0  0  0
   11.4941  -17.4301   26.1924 C   0  0  0  0  0  0  0  0  0  0  0  0
   10.3026  -16.7924   26.8298 C   0  0  2  0  0  0  0  0  0  0  0  0
    9.9054  -15.6238   26.0211 N   0  0  0  0  0  0  0  0  0  0  0  0
   10.5183  -16.3563   28.2343 C   0  0  0  0  0  0  0  0  0  0  0  0
   10.8533  -17.0956   29.1562 O   0  0  0  0  0  0  0  0  0  0  0  0
   10.3320  -14.9971   28.5710 O   0  0  0  0  0  0  0  0  0  0  0  0
  2  4  1  0
  2  1  1  1
  3  2  1  0
  4  6  1  0
  4  5  1  1
  6  8  1  0
  6  7  2  0
  8  9  1  0
  9 12  1  0
  9 10  1  1
 11 10  1  0
 12 19  1  0
 13 12  2  0
 15 14  1  0
 16 15  2  0
 17 15  1  0
 18 17  1  6
 19 18  1  0
 20 18  1  0
 20 22  1  0
 21 20  2  0
M  END
$$$$
