VCN.pdb
     RDKit          3D

 22 21  0  0  1  0  0  0  0  0999 V2000
    7.1310  -13.2062   18.8282 C   0  0  0  0  0  0  0  0  0  0  0  0
    7.6618  -13.1000   20.2423 C   0  0  2  0  0  0  0  0  0  0  0  0
    8.8996  -12.2317   20.1825 C   0  0  0  0  0  0  0  0  0  0  0  0
    8.0828  -14.4642   20.7321 C   0  0  2  0  0  0  0  0  0  0  0  0
    6.8853  -15.2892   20.7622 N   0  0  0  0  0  0  0  0  0  0  0  0
    8.6157  -14.4233   22.1192 C   0  0  0  0  0  0  0  0  0  0  0  0
    9.8113  -14.0952   22.3819 O   0  0  0  0  0  0  0  0  0  0  0  0
    7.8151  -14.7524   23.2623 N   0  0  0  0  0  0  0  0  0  0  0  0
    8.3367  -14.8927   24.5814 C   0  0  1  0  0  0  0  0  0  0  0  0
    7.1870  -14.6260   25.5607 C   0  0  0  0  0  0  0  0  0  0  0  0
    5.6862  -15.4815   25.0506 S   0  0  0  0  0  0  0  0  0  0  0  0
    8.9272  -16.2383   24.8285 C   0  0  0  0  0  0  0  0  0  0  0  0
    9.0175  -17.0193   23.8505 O   0  0  0  0  0  0  0  0  0  0  0  0
   11.3821  -18.7925   23.8805 N   0  0  0  0  0  0  0  0  0  0  0  0
   12.0870  -17.6515   24.3215 C   0  0  0  0  0  0  0  0  0  0  0  0
   13.0141  -17.2211   23.6158 O   0  0  0  0  0  0  0  0  0  0  0  0
   11.7127  -17.0157   25.5788 C   0  0  0  0  0  0  0  0  0  0  0  0
   10.5230  -17.5785   26.2862 C   0  0  2  0  0  0  0  0  0  0  0  0
    9.3803  -16.6672   26.0832 N   0  0  0  0  0  0  0  0  0  0  0  0
   10.7193  -17.7888   27.7444 C   0  0  0  0  0  0  0  0  0  0  0  0
   10.5259  -16.9386   28.6094 O   0  0  0  0  0  0  0  0  0  0  0  0
   11.1620  -19.0483   28.2064 O   0  0  0  0  0  0  0  0  0  0  0  0
  2  4  1  0
  2  1  1  6
  3  2  1  0
  4  6  1  0
  4  5  1  1
  6  8  1  0
  6  7  2  0
  8  9  1  0
  9 12  1  0
  9 10  1  1
 11 10  1  0
 12 19  1  0
 13 12  2  0
 15 14  1  0
 16 15  2  0
 17 15  1  0
 18 17  1  1
 19 18  1  0
 20 18  1  0
 20 22  1  0
 21 20  2  0
M  END
$$$$
