VCN.pdb
     RDKit          3D

 22 21  0  0  1  0  0  0  0  0999 V2000
    7.0292  -12.8109   20.5062 C   0  0  0  0  0  0  0  0  0  0  0  0
    8.2900  -13.5295   20.0741 C   0  0  2  0  0  0  0  0  0  0  0  0
    8.5029  -13.2019   18.6122 C   0  0  0  0  0  0  0  0  0  0  0  0
    8.0892  -15.0214   20.1844 C   0  0  2  0  0  0  0  0  0  0  0  0
    7.0985  -15.3883   19.1847 N   0  0  0  0  0  0  0  0  0  0  0  0
    7.5377  -15.4178   21.5067 C   0  0  0  0  0  0  0  0  0  0  0  0
    6.2935  -15.4523   21.7450 O   0  0  0  0  0  0  0  0  0  0  0  0
    8.3741  -15.7905   22.6100 N   0  0  0  0  0  0  0  0  0  0  0  0
    7.8780  -16.1169   23.9058 C   0  0  1  0  0  0  0  0  0  0  0  0
    8.0586  -17.6275   24.0996 C   0  0  0  0  0  0  0  0  0  0  0  0
    7.6127  -18.1269   25.7719 S   0  0  0  0  0  0  0  0  0  0  0  0
    8.5681  -15.3680   24.9937 C   0  0  0  0  0  0  0  0  0  0  0  0
    9.8175  -15.2724   24.9281 O   0  0  0  0  0  0  0  0  0  0  0  0
    5.6165  -11.7475   26.9310 N   0  0  0  0  0  0  0  0  0  0  0  0
    6.9799  -12.0880   26.7945 C   0  0  0  0  0  0  0  0  0  0  0  0
    7.6321  -11.5575   25.8802 O   0  0  0  0  0  0  0  0  0  0  0  0
    7.5795  -13.0421   27.7192 C   0  0  0  0  0  0  0  0  0  0  0  0
    8.5635  -14.0070   27.1419 C   0  0  2  0  0  0  0  0  0  0  0  0
    7.8978  -14.7737   26.0712 N   0  0  0  0  0  0  0  0  0  0  0  0
    9.1415  -14.9573   28.1280 C   0  0  0  0  0  0  0  0  0  0  0  0
    9.7725  -14.6325   29.1304 O   0  0  0  0  0  0  0  0  0  0  0  0
    8.9731  -16.3456   27.9287 O   0  0  0  0  0  0  0  0  0  0  0  0
  2  4  1  0
  2  1  1  6
  3  2  1  0
  4  6  1  0
  4  5  1  6
  6  8  1  0
  6  7  2  0
  8  9  1  0
  9 12  1  0
  9 10  1  1
 11 10  1  0
 12 19  1  0
 13 12  2  0
 15 14  1  0
 16 15  2  0
 17 15  1  0
 18 17  1  1
 19 18  1  0
 20 18  1  0
 20 22  1  0
 21 20  2  0
M  END
$$$$
