VCN.pdb
     RDKit          3D

 22 21  0  0  1  0  0  0  0  0999 V2000
    7.5712  -14.1882   17.4796 C   0  0  0  0  0  0  0  0  0  0  0  0
    8.2952  -14.5306   18.7646 C   0  0  2  0  0  0  0  0  0  0  0  0
    7.7442  -15.8578   19.2387 C   0  0  0  0  0  0  0  0  0  0  0  0
    7.9759  -13.4994   19.8195 C   0  0  2  0  0  0  0  0  0  0  0  0
    8.5397  -12.2394   19.3614 N   0  0  0  0  0  0  0  0  0  0  0  0
    8.6174  -13.8124   21.1235 C   0  0  0  0  0  0  0  0  0  0  0  0
    9.8751  -13.8472   21.2747 O   0  0  0  0  0  0  0  0  0  0  0  0
    7.8591  -14.0979   22.3064 N   0  0  0  0  0  0  0  0  0  0  0  0
    8.4393  -14.5290   23.5349 C   0  0  1  0  0  0  0  0  0  0  0  0
    7.4396  -14.2078   24.6527 C   0  0  0  0  0  0  0  0  0  0  0  0
    7.2360  -12.4293   24.8523 S   0  0  0  0  0  0  0  0  0  0  0  0
    8.7718  -15.9816   23.5379 C   0  0  0  0  0  0  0  0  0  0  0  0
    8.1764  -16.7133   22.7104 O   0  0  0  0  0  0  0  0  0  0  0  0
   12.3972  -18.6796   21.2098 N   0  0  0  0  0  0  0  0  0  0  0  0
   12.5691  -17.9677   22.4169 C   0  0  0  0  0  0  0  0  0  0  0  0
   13.6337  -18.1111   23.0403 O   0  0  0  0  0  0  0  0  0  0  0  0
   11.5051  -17.0931   22.8944 C   0  0  0  0  0  0  0  0  0  0  0  0
   10.6649  -17.6109   24.0162 C   0  0  2  0  0  0  0  0  0  0  0  0
    9.7047  -16.5613   24.4081 N   0  0  0  0  0  0  0  0  0  0  0  0
   11.4354  -18.0321   25.2156 C   0  0  0  0  0  0  0  0  0  0  0  0
   12.1210  -19.0485   25.2892 O   0  0  0  0  0  0  0  0  0  0  0  0
   11.3987  -17.2281   26.3765 O   0  0  0  0  0  0  0  0  0  0  0  0
  2  4  1  0
  2  1  1  6
  3  2  1  0
  4  6  1  0
  4  5  1  6
  6  8  1  0
  6  7  2  0
  8  9  1  0
  9 12  1  0
  9 10  1  1
 11 10  1  0
 12 19  1  0
 13 12  2  0
 15 14  1  0
 16 15  2  0
 17 15  1  0
 18 17  1  6
 19 18  1  0
 20 18  1  0
 20 22  1  0
 21 20  2  0
M  END
$$$$
