HFV.pdb
     RDKit          3D

 29 30  0  0  1  0  0  0  0  0999 V2000
   10.6052  -16.8903   19.9032 N   0  0  0  0  0  0  0  0  0  0  0  0
    9.6653  -17.4084   20.8560 C   0  0  1  0  0  0  0  0  0  0  0  0
   10.0954  -18.7480   21.4191 C   0  0  0  0  0  0  0  0  0  0  0  0
    9.7874  -19.8721   20.5082 C   0  0  0  0  0  0  0  0  0  0  0  0
    8.9952  -20.9518   20.8761 C   0  0  0  0  0  0  0  0  0  0  0  0
    8.9383  -21.7577   19.8126 N   0  0  0  0  0  0  0  0  0  0  0  0
    9.6658  -21.2025   18.8220 C   0  0  0  0  0  0  0  0  0  0  0  0
   10.1990  -20.0296   19.2421 N   0  0  0  0  0  0  0  0  0  0  0  0
    9.5815  -16.4715   22.0038 C   0  0  0  0  0  0  0  0  0  0  0  0
   10.6101  -15.8918   22.4032 O   0  0  0  0  0  0  0  0  0  0  0  0
    8.3594  -16.2009   22.6797 N   0  0  0  0  0  0  0  0  0  0  0  0
    8.3524  -15.2451   23.7682 C   0  0  1  0  0  0  0  0  0  0  0  0
    6.9962  -14.6104   23.9496 C   0  0  0  0  0  0  0  0  0  0  0  0
    6.9379  -13.6495   25.0540 C   0  0  0  0  0  0  0  0  0  0  0  0
    7.5415  -12.4203   24.9300 C   0  0  0  0  0  0  0  0  0  0  0  0
    7.5116  -11.4862   25.9430 C   0  0  0  0  0  0  0  0  0  0  0  0
    6.8673  -11.7622   27.1238 C   0  0  0  0  0  0  0  0  0  0  0  0
    6.2566  -12.9886   27.2668 C   0  0  0  0  0  0  0  0  0  0  0  0
    6.2886  -13.9359   26.2356 C   0  0  0  0  0  0  0  0  0  0  0  0
    8.6970  -15.9063   25.0621 C   0  0  0  0  0  0  0  0  0  0  0  0
    8.1801  -17.0088   25.3639 O   0  0  0  0  0  0  0  0  0  0  0  0
   11.0366  -14.0319   28.2724 C   0  0  0  0  0  0  0  0  0  0  0  0
   11.4104  -15.3465   27.6414 C   0  0  2  0  0  0  0  0  0  0  0  0
   12.4939  -15.2121   26.6088 C   0  0  0  0  0  0  0  0  0  0  0  0
   10.1825  -16.0464   27.0825 C   0  0  2  0  0  0  0  0  0  0  0  0
    9.6052  -15.3285   25.9872 N   0  0  0  0  0  0  0  0  0  0  0  0
    9.2354  -16.3110   28.1823 C   0  0  0  0  0  0  0  0  0  0  0  0
    8.1039  -15.7676   28.1154 O   0  0  0  0  0  0  0  0  0  0  0  0
    9.5236  -17.1147   29.2678 O   0  0  0  0  0  0  0  0  0  0  0  0
  2  1  1  6
  2  3  1  0
  4  8  1  0
  4  3  1  0
  5  4  2  0
  6  5  1  0
  6  7  1  0
  7  8  2  0
  9  2  1  0
 10  9  2  0
 11  9  1  0
 12 11  1  0
 12 13  1  1
 13 14  1  0
 14 15  2  0
 15 16  1  0
 17 16  2  0
 18 17  1  0
 19 14  1  0
 19 18  2  0
 20 12  1  0
 21 20  2  0
 23 22  1  6
 23 24  1  0
 23 25  1  0
 25 27  1  0
 25 26  1  6
 26 20  1  0
 27 29  1  0
 28 27  2  0
M  END
$$$$
