HFV.pdb
     RDKit          3D

 29 30  0  0  1  0  0  0  0  0999 V2000
    9.8900  -16.2421   19.4298 N   0  0  0  0  0  0  0  0  0  0  0  0
    8.9911  -16.8042   20.3970 C   0  0  1  0  0  0  0  0  0  0  0  0
    9.2990  -18.2583   20.6924 C   0  0  0  0  0  0  0  0  0  0  0  0
    9.0402  -19.1403   19.5335 C   0  0  0  0  0  0  0  0  0  0  0  0
    7.7957  -19.2512   18.9271 C   0  0  0  0  0  0  0  0  0  0  0  0
    7.9391  -20.1268   17.9289 N   0  0  0  0  0  0  0  0  0  0  0  0
    9.2213  -20.5446   17.9138 C   0  0  0  0  0  0  0  0  0  0  0  0
    9.9163  -19.9385   18.9067 N   0  0  0  0  0  0  0  0  0  0  0  0
    9.1438  -16.0684   21.6767 C   0  0  0  0  0  0  0  0  0  0  0  0
   10.2743  -15.9479   22.1878 O   0  0  0  0  0  0  0  0  0  0  0  0
    8.0394  -15.4850   22.3575 N   0  0  0  0  0  0  0  0  0  0  0  0
    8.2753  -14.7491   23.5827 C   0  0  1  0  0  0  0  0  0  0  0  0
    7.0861  -13.9058   23.9694 C   0  0  0  0  0  0  0  0  0  0  0  0
    7.2668  -13.1715   25.2241 C   0  0  0  0  0  0  0  0  0  0  0  0
    6.6201  -13.5866   26.3643 C   0  0  0  0  0  0  0  0  0  0  0  0
    6.7612  -12.9261   27.5658 C   0  0  0  0  0  0  0  0  0  0  0  0
    7.5650  -11.8168   27.6586 C   0  0  0  0  0  0  0  0  0  0  0  0
    8.2213  -11.3855   26.5268 C   0  0  0  0  0  0  0  0  0  0  0  0
    8.0760  -12.0588   25.3072 C   0  0  0  0  0  0  0  0  0  0  0  0
    8.5355  -15.6783   24.7224 C   0  0  0  0  0  0  0  0  0  0  0  0
    7.7163  -16.5891   24.9928 O   0  0  0  0  0  0  0  0  0  0  0  0
   11.8929  -18.1771   27.1421 C   0  0  0  0  0  0  0  0  0  0  0  0
   11.5160  -17.0752   26.1882 C   0  0  2  0  0  0  0  0  0  0  0  0
   12.5089  -15.9473   26.1764 C   0  0  0  0  0  0  0  0  0  0  0  0
   10.1051  -16.5816   26.4629 C   0  0  2  0  0  0  0  0  0  0  0  0
    9.6964  -15.5739   25.5324 N   0  0  0  0  0  0  0  0  0  0  0  0
   10.0071  -16.1603   27.8733 C   0  0  0  0  0  0  0  0  0  0  0  0
    9.9528  -14.9263   28.1066 O   0  0  0  0  0  0  0  0  0  0  0  0
    9.9723  -17.0400   28.9374 O   0  0  0  0  0  0  0  0  0  0  0  0
  2  1  1  6
  2  3  1  0
  4  8  1  0
  4  3  1  0
  5  4  2  0
  6  5  1  0
  6  7  1  0
  7  8  2  0
  9  2  1  0
 10  9  2  0
 11  9  1  0
 12 11  1  0
 12 13  1  1
 13 14  1  0
 14 15  2  0
 15 16  1  0
 17 16  2  0
 18 17  1  0
 19 14  1  0
 19 18  2  0
 20 12  1  0
 21 20  2  0
 23 22  1  1
 23 24  1  0
 23 25  1  0
 25 27  1  0
 25 26  1  6
 26 20  1  0
 27 29  1  0
 28 27  2  0
M  END
$$$$
