HFV.pdb
     RDKit          3D

 29 30  0  0  1  0  0  0  0  0999 V2000
   11.4041  -16.7559   20.0410 N   0  0  0  0  0  0  0  0  0  0  0  0
   10.3675  -17.3168   20.8598 C   0  0  1  0  0  0  0  0  0  0  0  0
   10.7789  -18.6331   21.4880 C   0  0  0  0  0  0  0  0  0  0  0  0
   10.6674  -19.7701   20.5484 C   0  0  0  0  0  0  0  0  0  0  0  0
   10.2059  -19.6355   19.2454 C   0  0  0  0  0  0  0  0  0  0  0  0
   10.2430  -20.8558   18.7041 N   0  0  0  0  0  0  0  0  0  0  0  0
   10.7088  -21.7162   19.6323 C   0  0  0  0  0  0  0  0  0  0  0  0
   10.9764  -21.0533   20.7835 N   0  0  0  0  0  0  0  0  0  0  0  0
   10.0821  -16.3829   21.9772 C   0  0  0  0  0  0  0  0  0  0  0  0
   11.0002  -15.6811   22.4444 O   0  0  0  0  0  0  0  0  0  0  0  0
    8.7860  -16.2506   22.5484 N   0  0  0  0  0  0  0  0  0  0  0  0
    8.5679  -15.2561   23.5788 C   0  0  1  0  0  0  0  0  0  0  0  0
    7.1211  -14.8370   23.6578 C   0  0  0  0  0  0  0  0  0  0  0  0
    6.8727  -13.7516   24.6098 C   0  0  0  0  0  0  0  0  0  0  0  0
    7.3452  -12.4866   24.3506 C   0  0  0  0  0  0  0  0  0  0  0  0
    7.1349  -11.4362   25.2179 C   0  0  0  0  0  0  0  0  0  0  0  0
    6.4360  -11.6275   26.3842 C   0  0  0  0  0  0  0  0  0  0  0  0
    5.9546  -12.8881   26.6614 C   0  0  0  0  0  0  0  0  0  0  0  0
    6.1699  -13.9536   25.7781 C   0  0  0  0  0  0  0  0  0  0  0  0
    8.9374  -15.7900   24.9236 C   0  0  0  0  0  0  0  0  0  0  0  0
    8.7238  -16.9939   25.2043 O   0  0  0  0  0  0  0  0  0  0  0  0
   11.4828  -14.9748   29.1451 C   0  0  0  0  0  0  0  0  0  0  0  0
   10.6897  -14.4002   28.0020 C   0  0  2  0  0  0  0  0  0  0  0  0
    9.5509  -13.5325   28.4586 C   0  0  0  0  0  0  0  0  0  0  0  0
   10.2200  -15.4994   27.0635 C   0  0  2  0  0  0  0  0  0  0  0  0
    9.5338  -14.9761   25.9217 N   0  0  0  0  0  0  0  0  0  0  0  0
    9.4313  -16.4834   27.8290 C   0  0  0  0  0  0  0  0  0  0  0  0
    8.1928  -16.5234   27.6175 O   0  0  0  0  0  0  0  0  0  0  0  0
    9.9758  -17.3520   28.7545 O   0  0  0  0  0  0  0  0  0  0  0  0
  2  1  1  6
  2  3  1  0
  4  8  1  0
  4  3  1  0
  5  4  2  0
  6  5  1  0
  6  7  1  0
  7  8  2  0
  9  2  1  0
 10  9  2  0
 11  9  1  0
 12 11  1  0
 12 13  1  1
 13 14  1  0
 14 15  2  0
 15 16  1  0
 17 16  2  0
 18 17  1  0
 19 14  1  0
 19 18  2  0
 20 12  1  0
 21 20  2  0
 23 22  1  1
 23 24  1  0
 23 25  1  0
 25 27  1  0
 25 26  1  6
 26 20  1  0
 27 29  1  0
 28 27  2  0
M  END
$$$$
