HFV.pdb
     RDKit          3D

 29 30  0  0  1  0  0  0  0  0999 V2000
    9.5410  -17.9980   20.7575 N   0  0  0  0  0  0  0  0  0  0  0  0
   10.6451  -17.1090   20.9810 C   0  0  1  0  0  0  0  0  0  0  0  0
   10.9367  -16.2387   19.7751 C   0  0  0  0  0  0  0  0  0  0  0  0
   11.0195  -17.0170   18.5199 C   0  0  0  0  0  0  0  0  0  0  0  0
   11.7080  -18.2186   18.4159 C   0  0  0  0  0  0  0  0  0  0  0  0
   11.5661  -18.6266   17.1521 N   0  0  0  0  0  0  0  0  0  0  0  0
   10.8194  -17.7158   16.4951 C   0  0  0  0  0  0  0  0  0  0  0  0
   10.4731  -16.7101   17.3347 N   0  0  0  0  0  0  0  0  0  0  0  0
   10.3025  -16.1909   22.0954 C   0  0  0  0  0  0  0  0  0  0  0  0
   11.0636  -15.2426   22.3696 O   0  0  0  0  0  0  0  0  0  0  0  0
    9.1247  -16.3472   22.8777 N   0  0  0  0  0  0  0  0  0  0  0  0
    8.9351  -15.5067   24.0421 C   0  0  1  0  0  0  0  0  0  0  0  0
    7.4745  -15.3254   24.3722 C   0  0  0  0  0  0  0  0  0  0  0  0
    7.2001  -14.1549   25.2093 C   0  0  0  0  0  0  0  0  0  0  0  0
    6.1196  -14.1545   26.0597 C   0  0  0  0  0  0  0  0  0  0  0  0
    5.8239  -13.0756   26.8648 C   0  0  0  0  0  0  0  0  0  0  0  0
    6.6136  -11.9526   26.8393 C   0  0  0  0  0  0  0  0  0  0  0  0
    7.7009  -11.9341   25.9937 C   0  0  0  0  0  0  0  0  0  0  0  0
    7.9988  -13.0321   25.1766 C   0  0  0  0  0  0  0  0  0  0  0  0
    9.5791  -16.1098   25.2470 C   0  0  0  0  0  0  0  0  0  0  0  0
    9.6066  -17.3558   25.3899 O   0  0  0  0  0  0  0  0  0  0  0  0
    9.6750  -14.4821   29.2271 C   0  0  0  0  0  0  0  0  0  0  0  0
   10.9660  -14.7978   28.5202 C   0  0  2  0  0  0  0  0  0  0  0  0
   11.6418  -13.5762   27.9641 C   0  0  0  0  0  0  0  0  0  0  0  0
   10.7526  -15.8591   27.4535 C   0  0  2  0  0  0  0  0  0  0  0  0
   10.1755  -15.3164   26.2616 N   0  0  0  0  0  0  0  0  0  0  0  0
    9.9798  -16.9752   28.0308 C   0  0  0  0  0  0  0  0  0  0  0  0
   10.5427  -17.6758   28.9097 O   0  0  0  0  0  0  0  0  0  0  0  0
    8.6861  -17.2866   27.6606 O   0  0  0  0  0  0  0  0  0  0  0  0
  2  1  1  6
  2  3  1  0
  4  8  1  0
  4  3  1  0
  5  4  2  0
  6  5  1  0
  6  7  1  0
  7  8  2  0
  9  2  1  0
 10  9  2  0
 11  9  1  0
 12 11  1  0
 12 13  1  1
 13 14  1  0
 14 15  2  0
 15 16  1  0
 17 16  2  0
 18 17  1  0
 19 14  1  0
 19 18  2  0
 20 12  1  0
 21 20  2  0
 23 22  1  6
 23 24  1  0
 23 25  1  0
 25 27  1  0
 25 26  1  6
 26 20  1  0
 27 29  1  0
 28 27  2  0
M  END
$$$$
