HFV.pdb
     RDKit          3D

 29 30  0  0  1  0  0  0  0  0999 V2000
   11.6879  -16.3799   20.1500 N   0  0  0  0  0  0  0  0  0  0  0  0
   10.6556  -17.0448   20.8928 C   0  0  1  0  0  0  0  0  0  0  0  0
   11.1132  -18.3791   21.4467 C   0  0  0  0  0  0  0  0  0  0  0  0
   10.9862  -19.4761   20.4626 C   0  0  0  0  0  0  0  0  0  0  0  0
   10.5115  -19.2862   19.1713 C   0  0  0  0  0  0  0  0  0  0  0  0
   10.5369  -20.4834   18.5801 N   0  0  0  0  0  0  0  0  0  0  0  0
   11.0085  -21.3832   19.4672 C   0  0  0  0  0  0  0  0  0  0  0  0
   11.2916  -20.7692   20.6416 N   0  0  0  0  0  0  0  0  0  0  0  0
   10.2874  -16.2038   22.0587 C   0  0  0  0  0  0  0  0  0  0  0  0
   11.1316  -15.4315   22.5533 O   0  0  0  0  0  0  0  0  0  0  0  0
    8.9927  -16.2402   22.6468 N   0  0  0  0  0  0  0  0  0  0  0  0
    8.6898  -15.3407   23.7411 C   0  0  1  0  0  0  0  0  0  0  0  0
    7.2199  -15.0088   23.8051 C   0  0  0  0  0  0  0  0  0  0  0  0
    6.8770  -14.0504   24.8587 C   0  0  0  0  0  0  0  0  0  0  0  0
    7.3283  -12.7537   24.7836 C   0  0  0  0  0  0  0  0  0  0  0  0
    7.0302  -11.8191   25.7517 C   0  0  0  0  0  0  0  0  0  0  0  0
    6.2613  -12.1632   26.8362 C   0  0  0  0  0  0  0  0  0  0  0  0
    5.7999  -13.4578   26.9291 C   0  0  0  0  0  0  0  0  0  0  0  0
    6.1045  -14.4054   25.9436 C   0  0  0  0  0  0  0  0  0  0  0  0
    9.0521  -15.9546   25.0533 C   0  0  0  0  0  0  0  0  0  0  0  0
    8.8333  -17.1722   25.2614 O   0  0  0  0  0  0  0  0  0  0  0  0
    9.1269  -14.3543   29.1082 C   0  0  0  0  0  0  0  0  0  0  0  0
   10.3920  -14.7308   28.3843 C   0  0  2  0  0  0  0  0  0  0  0  0
   11.1164  -13.5428   27.8167 C   0  0  0  0  0  0  0  0  0  0  0  0
   10.1147  -15.7823   27.3226 C   0  0  2  0  0  0  0  0  0  0  0  0
    9.6470  -15.2032   26.1002 N   0  0  0  0  0  0  0  0  0  0  0  0
    9.2071  -16.8032   27.8798 C   0  0  0  0  0  0  0  0  0  0  0  0
    8.0142  -16.7956   27.4836 O   0  0  0  0  0  0  0  0  0  0  0  0
    9.5949  -17.7549   28.8025 O   0  0  0  0  0  0  0  0  0  0  0  0
  2  1  1  1
  2  3  1  0
  4  8  1  0
  4  3  1  0
  5  4  2  0
  6  5  1  0
  6  7  1  0
  7  8  2  0
  9  2  1  0
 10  9  2  0
 11  9  1  0
 12 11  1  0
 12 13  1  1
 13 14  1  0
 14 15  2  0
 15 16  1  0
 17 16  2  0
 18 17  1  0
 19 14  1  0
 19 18  2  0
 20 12  1  0
 21 20  2  0
 23 22  1  6
 23 24  1  0
 23 25  1  0
 25 27  1  0
 25 26  1  6
 26 20  1  0
 27 29  1  0
 28 27  2  0
M  END
$$$$
