HFV.pdb
     RDKit          3D

 29 30  0  0  1  0  0  0  0  0999 V2000
   11.1061  -16.7663   20.1568 N   0  0  0  0  0  0  0  0  0  0  0  0
   10.2047  -17.3982   21.0775 C   0  0  1  0  0  0  0  0  0  0  0  0
   10.7851  -18.6649   21.6736 C   0  0  0  0  0  0  0  0  0  0  0  0
   10.6914  -19.8198   20.7542 C   0  0  0  0  0  0  0  0  0  0  0  0
   10.1411  -19.7345   19.4819 C   0  0  0  0  0  0  0  0  0  0  0  0
   10.2260  -20.9571   18.9513 N   0  0  0  0  0  0  0  0  0  0  0  0
   10.8058  -21.7716   19.8565 C   0  0  0  0  0  0  0  0  0  0  0  0
   11.1000  -21.0763   20.9818 N   0  0  0  0  0  0  0  0  0  0  0  0
    9.9502  -16.4731   22.2095 C   0  0  0  0  0  0  0  0  0  0  0  0
   10.8635  -15.7272   22.6139 O   0  0  0  0  0  0  0  0  0  0  0  0
    8.6898  -16.3981   22.8647 N   0  0  0  0  0  0  0  0  0  0  0  0
    8.4956  -15.4135   23.9093 C   0  0  1  0  0  0  0  0  0  0  0  0
    7.0537  -14.9837   24.0151 C   0  0  0  0  0  0  0  0  0  0  0  0
    6.8311  -13.8969   24.9720 C   0  0  0  0  0  0  0  0  0  0  0  0
    7.3717  -12.6540   24.7405 C   0  0  0  0  0  0  0  0  0  0  0  0
    7.1879  -11.6033   25.6133 C   0  0  0  0  0  0  0  0  0  0  0  0
    6.4472  -11.7717   26.7573 C   0  0  0  0  0  0  0  0  0  0  0  0
    5.8974  -13.0100   27.0065 C   0  0  0  0  0  0  0  0  0  0  0  0
    6.0860  -14.0759   26.1176 C   0  0  0  0  0  0  0  0  0  0  0  0
    8.8813  -15.9654   25.2422 C   0  0  0  0  0  0  0  0  0  0  0  0
    8.5948  -17.1496   25.5410 O   0  0  0  0  0  0  0  0  0  0  0  0
    9.5103  -14.0176   29.0372 C   0  0  0  0  0  0  0  0  0  0  0  0
   10.6707  -14.6711   28.3355 C   0  0  2  0  0  0  0  0  0  0  0  0
   11.5739  -13.6821   27.6540 C   0  0  0  0  0  0  0  0  0  0  0  0
   10.1866  -15.7465   27.3769 C   0  0  2  0  0  0  0  0  0  0  0  0
    9.5742  -15.1908   26.2088 N   0  0  0  0  0  0  0  0  0  0  0  0
    9.3200  -16.6903   28.1080 C   0  0  0  0  0  0  0  0  0  0  0  0
    8.1113  -16.7491   27.7678 O   0  0  0  0  0  0  0  0  0  0  0  0
    9.7618  -17.5024   29.1340 O   0  0  0  0  0  0  0  0  0  0  0  0
  2  1  1  6
  2  3  1  0
  4  8  1  0
  4  3  1  0
  5  4  2  0
  6  5  1  0
  6  7  1  0
  7  8  2  0
  9  2  1  0
 10  9  2  0
 11  9  1  0
 12 11  1  0
 12 13  1  1
 13 14  1  0
 14 15  2  0
 15 16  1  0
 17 16  2  0
 18 17  1  0
 19 14  1  0
 19 18  2  0
 20 12  1  0
 21 20  2  0
 23 22  1  6
 23 24  1  0
 23 25  1  0
 25 27  1  0
 25 26  1  6
 26 20  1  0
 27 29  1  0
 28 27  2  0
M  END
$$$$
