HFV.pdb
     RDKit          3D

 29 30  0  0  1  0  0  0  0  0999 V2000
   10.7891  -16.9450   19.9511 N   0  0  0  0  0  0  0  0  0  0  0  0
    9.8457  -17.5148   20.8702 C   0  0  1  0  0  0  0  0  0  0  0  0
   10.2881  -18.8708   21.3824 C   0  0  0  0  0  0  0  0  0  0  0  0
   10.1874  -19.9274   20.3521 C   0  0  0  0  0  0  0  0  0  0  0  0
    9.1945  -20.8984   20.3552 C   0  0  0  0  0  0  0  0  0  0  0  0
    9.4185  -21.6703   19.2887 N   0  0  0  0  0  0  0  0  0  0  0  0
   10.5071  -21.1994   18.6468 C   0  0  0  0  0  0  0  0  0  0  0  0
   10.9944  -20.1157   19.2982 N   0  0  0  0  0  0  0  0  0  0  0  0
    9.7357  -16.6277   22.0548 C   0  0  0  0  0  0  0  0  0  0  0  0
   10.7623  -16.1064   22.5324 O   0  0  0  0  0  0  0  0  0  0  0  0
    8.4906  -16.3409   22.6798 N   0  0  0  0  0  0  0  0  0  0  0  0
    8.4463  -15.3627   23.7473 C   0  0  1  0  0  0  0  0  0  0  0  0
    7.0773  -14.7452   23.8870 C   0  0  0  0  0  0  0  0  0  0  0  0
    7.0130  -13.6728   24.8830 C   0  0  0  0  0  0  0  0  0  0  0  0
    7.4757  -12.4158   24.5724 C   0  0  0  0  0  0  0  0  0  0  0  0
    7.4347  -11.3777   25.4780 C   0  0  0  0  0  0  0  0  0  0  0  0
    6.9219  -11.5736   26.7367 C   0  0  0  0  0  0  0  0  0  0  0  0
    6.4533  -12.8263   27.0665 C   0  0  0  0  0  0  0  0  0  0  0  0
    6.4963  -13.8793   26.1440 C   0  0  0  0  0  0  0  0  0  0  0  0
    8.7734  -15.9911   25.0619 C   0  0  0  0  0  0  0  0  0  0  0  0
    8.3476  -17.1390   25.3352 O   0  0  0  0  0  0  0  0  0  0  0  0
   10.7974  -13.9340   28.3598 C   0  0  0  0  0  0  0  0  0  0  0  0
   11.3494  -15.1728   27.7065 C   0  0  2  0  0  0  0  0  0  0  0  0
   12.4247  -14.8733   26.7003 C   0  0  0  0  0  0  0  0  0  0  0  0
   10.2327  -16.0107   27.1061 C   0  0  2  0  0  0  0  0  0  0  0  0
    9.5637  -15.3312   26.0389 N   0  0  0  0  0  0  0  0  0  0  0  0
    9.3290  -16.4545   28.1844 C   0  0  0  0  0  0  0  0  0  0  0  0
    8.1281  -16.0886   28.1207 O   0  0  0  0  0  0  0  0  0  0  0  0
    9.7287  -17.2411   29.2469 O   0  0  0  0  0  0  0  0  0  0  0  0
  2  1  1  6
  2  3  1  0
  4  8  1  0
  4  3  1  0
  5  4  2  0
  6  5  1  0
  6  7  1  0
  7  8  2  0
  9  2  1  0
 10  9  2  0
 11  9  1  0
 12 11  1  0
 12 13  1  1
 13 14  1  0
 14 15  2  0
 15 16  1  0
 17 16  2  0
 18 17  1  0
 19 14  1  0
 19 18  2  0
 20 12  1  0
 21 20  2  0
 23 22  1  6
 23 24  1  0
 23 25  1  0
 25 27  1  0
 25 26  1  6
 26 20  1  0
 27 29  1  0
 28 27  2  0
M  END
$$$$
