HFV.pdb
     RDKit          3D

 29 30  0  0  1  0  0  0  0  0999 V2000
   10.0417  -16.4763   19.4380 N   0  0  0  0  0  0  0  0  0  0  0  0
    9.0378  -16.9378   20.3538 C   0  0  1  0  0  0  0  0  0  0  0  0
    9.1974  -18.4067   20.6908 C   0  0  0  0  0  0  0  0  0  0  0  0
    8.8901  -19.2889   19.5439 C   0  0  0  0  0  0  0  0  0  0  0  0
    7.7553  -19.1430   18.7567 C   0  0  0  0  0  0  0  0  0  0  0  0
    7.8124  -20.1036   17.8307 N   0  0  0  0  0  0  0  0  0  0  0  0
    8.9375  -20.8194   18.0328 C   0  0  0  0  0  0  0  0  0  0  0  0
    9.6163  -20.3227   19.0952 N   0  0  0  0  0  0  0  0  0  0  0  0
    9.1739  -16.1914   21.6292 C   0  0  0  0  0  0  0  0  0  0  0  0
   10.3068  -15.9925   22.1095 O   0  0  0  0  0  0  0  0  0  0  0  0
    8.0508  -15.6846   22.3399 N   0  0  0  0  0  0  0  0  0  0  0  0
    8.2692  -14.9159   23.5482 C   0  0  1  0  0  0  0  0  0  0  0  0
    7.0738  -14.0646   23.8962 C   0  0  0  0  0  0  0  0  0  0  0  0
    7.2498  -13.2709   25.1149 C   0  0  0  0  0  0  0  0  0  0  0  0
    6.5681  -13.6078   26.2605 C   0  0  0  0  0  0  0  0  0  0  0  0
    6.7034  -12.8896   27.4291 C   0  0  0  0  0  0  0  0  0  0  0  0
    7.5367  -11.7995   27.4821 C   0  0  0  0  0  0  0  0  0  0  0  0
    8.2283  -11.4464   26.3443 C   0  0  0  0  0  0  0  0  0  0  0  0
    8.0887  -12.1782   25.1582 C   0  0  0  0  0  0  0  0  0  0  0  0
    8.5153  -15.8139   24.7157 C   0  0  0  0  0  0  0  0  0  0  0  0
    7.6764  -16.6955   25.0206 O   0  0  0  0  0  0  0  0  0  0  0  0
   12.4851  -16.2184   26.3031 C   0  0  0  0  0  0  0  0  0  0  0  0
   11.4144  -17.2756   26.2592 C   0  0  2  0  0  0  0  0  0  0  0  0
   11.4393  -18.0805   24.9905 C   0  0  0  0  0  0  0  0  0  0  0  0
   10.0447  -16.6687   26.5153 C   0  0  2  0  0  0  0  0  0  0  0  0
    9.6841  -15.7115   25.5144 N   0  0  0  0  0  0  0  0  0  0  0  0
   10.0032  -16.1333   27.8893 C   0  0  0  0  0  0  0  0  0  0  0  0
    9.8272  -14.8959   28.0235 O   0  0  0  0  0  0  0  0  0  0  0  0
   10.1460  -16.9110   29.0217 O   0  0  0  0  0  0  0  0  0  0  0  0
  2  1  1  6
  2  3  1  0
  4  8  1  0
  4  3  1  0
  5  4  2  0
  6  5  1  0
  6  7  1  0
  7  8  2  0
  9  2  1  0
 10  9  2  0
 11  9  1  0
 12 11  1  0
 12 13  1  1
 13 14  1  0
 14 15  2  0
 15 16  1  0
 17 16  2  0
 18 17  1  0
 19 14  1  0
 19 18  2  0
 20 12  1  0
 21 20  2  0
 23 22  1  6
 23 24  1  0
 23 25  1  0
 25 27  1  0
 25 26  1  6
 26 20  1  0
 27 29  1  0
 28 27  2  0
M  END
$$$$
