HFV.pdb
     RDKit          3D

 29 30  0  0  1  0  0  0  0  0999 V2000
    9.7092  -16.3792   19.3371 N   0  0  0  0  0  0  0  0  0  0  0  0
    8.8049  -16.9321   20.3045 C   0  0  1  0  0  0  0  0  0  0  0  0
    9.0737  -18.3995   20.5711 C   0  0  0  0  0  0  0  0  0  0  0  0
    8.7460  -19.2567   19.4110 C   0  0  0  0  0  0  0  0  0  0  0  0
    7.5033  -19.8507   19.2332 C   0  0  0  0  0  0  0  0  0  0  0  0
    7.5749  -20.5410   18.0922 N   0  0  0  0  0  0  0  0  0  0  0  0
    8.8123  -20.3835   17.5796 C   0  0  0  0  0  0  0  0  0  0  0  0
    9.5502  -19.5870   18.3904 N   0  0  0  0  0  0  0  0  0  0  0  0
    8.9928  -16.2238   21.5950 C   0  0  0  0  0  0  0  0  0  0  0  0
   10.1374  -16.1102   22.0753 O   0  0  0  0  0  0  0  0  0  0  0  0
    7.9070  -15.6595   22.3203 N   0  0  0  0  0  0  0  0  0  0  0  0
    8.1786  -14.9300   23.5420 C   0  0  1  0  0  0  0  0  0  0  0  0
    7.0253  -14.0401   23.9331 C   0  0  0  0  0  0  0  0  0  0  0  0
    7.2343  -13.3239   25.1939 C   0  0  0  0  0  0  0  0  0  0  0  0
    8.1763  -12.3251   25.2706 C   0  0  0  0  0  0  0  0  0  0  0  0
    8.4062  -11.6256   26.4357 C   0  0  0  0  0  0  0  0  0  0  0  0
    7.6887  -11.9117   27.5710 C   0  0  0  0  0  0  0  0  0  0  0  0
    6.7404  -12.9092   27.5138 C   0  0  0  0  0  0  0  0  0  0  0  0
    6.5090  -13.6185   26.3283 C   0  0  0  0  0  0  0  0  0  0  0  0
    8.4092  -15.8656   24.6829 C   0  0  0  0  0  0  0  0  0  0  0  0
    7.4713  -16.5799   25.1118 O   0  0  0  0  0  0  0  0  0  0  0  0
   12.4297  -16.6835   26.3167 C   0  0  0  0  0  0  0  0  0  0  0  0
   11.2813  -17.6398   26.1361 C   0  0  2  0  0  0  0  0  0  0  0  0
   11.3231  -18.3612   24.8185 C   0  0  0  0  0  0  0  0  0  0  0  0
    9.9521  -16.9353   26.3514 C   0  0  2  0  0  0  0  0  0  0  0  0
    9.6727  -15.9849   25.3184 N   0  0  0  0  0  0  0  0  0  0  0  0
    9.9255  -16.3592   27.7093 C   0  0  0  0  0  0  0  0  0  0  0  0
    9.9123  -15.1060   27.8065 O   0  0  0  0  0  0  0  0  0  0  0  0
    9.9146  -17.1155   28.8648 O   0  0  0  0  0  0  0  0  0  0  0  0
  2  1  1  6
  2  3  1  0
  4  8  1  0
  4  3  1  0
  5  4  2  0
  6  5  1  0
  6  7  1  0
  7  8  2  0
  9  2  1  0
 10  9  2  0
 11  9  1  0
 12 11  1  0
 12 13  1  1
 13 14  1  0
 14 15  2  0
 15 16  1  0
 17 16  2  0
 18 17  1  0
 19 14  1  0
 19 18  2  0
 20 12  1  0
 21 20  2  0
 23 22  1  6
 23 24  1  0
 23 25  1  0
 25 27  1  0
 25 26  1  6
 26 20  1  0
 27 29  1  0
 28 27  2  0
M  END
$$$$
