HFV.pdb
     RDKit          3D

 29 30  0  0  1  0  0  0  0  0999 V2000
   11.1767  -16.8199   19.8975 N   0  0  0  0  0  0  0  0  0  0  0  0
   10.4679  -17.5105   20.9368 C   0  0  1  0  0  0  0  0  0  0  0  0
   11.2775  -18.6463   21.5292 C   0  0  0  0  0  0  0  0  0  0  0  0
   11.3391  -19.8250   20.6376 C   0  0  0  0  0  0  0  0  0  0  0  0
   10.2470  -20.6460   20.3884 C   0  0  0  0  0  0  0  0  0  0  0  0
   10.6714  -21.5938   19.5487 N   0  0  0  0  0  0  0  0  0  0  0  0
   11.9754  -21.3725   19.2853 C   0  0  0  0  0  0  0  0  0  0  0  0
   12.4024  -20.2754   19.9565 N   0  0  0  0  0  0  0  0  0  0  0  0
   10.1952  -16.5600   22.0433 C   0  0  0  0  0  0  0  0  0  0  0  0
   11.1147  -15.8396   22.4783 O   0  0  0  0  0  0  0  0  0  0  0  0
    8.9101  -16.4323   22.6397 N   0  0  0  0  0  0  0  0  0  0  0  0
    8.6894  -15.3918   23.6232 C   0  0  1  0  0  0  0  0  0  0  0  0
    7.2351  -15.0019   23.7118 C   0  0  0  0  0  0  0  0  0  0  0  0
    6.9746  -13.9053   24.6477 C   0  0  0  0  0  0  0  0  0  0  0  0
    6.2361  -14.1315   25.7852 C   0  0  0  0  0  0  0  0  0  0  0  0
    5.9668  -13.1298   26.6927 C   0  0  0  0  0  0  0  0  0  0  0  0
    6.4366  -11.8568   26.4821 C   0  0  0  0  0  0  0  0  0  0  0  0
    7.1785  -11.6106   25.3478 C   0  0  0  0  0  0  0  0  0  0  0  0
    7.4506  -12.6307   24.4274 C   0  0  0  0  0  0  0  0  0  0  0  0
    9.0986  -15.8482   24.9849 C   0  0  0  0  0  0  0  0  0  0  0  0
    8.8777  -17.0289   25.3468 O   0  0  0  0  0  0  0  0  0  0  0  0
   11.3460  -14.7617   29.3103 C   0  0  0  0  0  0  0  0  0  0  0  0
   10.6836  -14.2665   28.0525 C   0  0  2  0  0  0  0  0  0  0  0  0
    9.5166  -13.3597   28.3245 C   0  0  0  0  0  0  0  0  0  0  0  0
   10.2974  -15.4280   27.1516 C   0  0  2  0  0  0  0  0  0  0  0  0
    9.7417  -14.9845   25.9095 N   0  0  0  0  0  0  0  0  0  0  0  0
    9.4185  -16.3472   27.8993 C   0  0  0  0  0  0  0  0  0  0  0  0
    8.1775  -16.1904   27.7756 O   0  0  0  0  0  0  0  0  0  0  0  0
    9.8824  -17.3583   28.7177 O   0  0  0  0  0  0  0  0  0  0  0  0
  2  1  1  6
  2  3  1  0
  4  8  1  0
  4  3  1  0
  5  4  2  0
  6  5  1  0
  6  7  1  0
  7  8  2  0
  9  2  1  0
 10  9  2  0
 11  9  1  0
 12 11  1  0
 12 13  1  1
 13 14  1  0
 14 15  2  0
 15 16  1  0
 17 16  2  0
 18 17  1  0
 19 14  1  0
 19 18  2  0
 20 12  1  0
 21 20  2  0
 23 22  1  1
 23 24  1  0
 23 25  1  0
 25 27  1  0
 25 26  1  6
 26 20  1  0
 27 29  1  0
 28 27  2  0
M  END
$$$$
