HFV.pdb
     RDKit          3D

 29 30  0  0  1  0  0  0  0  0999 V2000
    9.9537  -17.8420   20.2971 N   0  0  0  0  0  0  0  0  0  0  0  0
   11.0656  -17.2719   21.0029 C   0  0  1  0  0  0  0  0  0  0  0  0
   11.9951  -16.5015   20.0868 C   0  0  0  0  0  0  0  0  0  0  0  0
   12.4718  -17.3150   18.9471 C   0  0  0  0  0  0  0  0  0  0  0  0
   11.6364  -18.1297   18.1942 C   0  0  0  0  0  0  0  0  0  0  0  0
   12.4054  -18.7019   17.2642 N   0  0  0  0  0  0  0  0  0  0  0  0
   13.6692  -18.2614   17.4309 C   0  0  0  0  0  0  0  0  0  0  0  0
   13.7236  -17.3984   18.4742 N   0  0  0  0  0  0  0  0  0  0  0  0
   10.5521  -16.3018   22.0016 C   0  0  0  0  0  0  0  0  0  0  0  0
   11.2287  -15.2948   22.2878 O   0  0  0  0  0  0  0  0  0  0  0  0
    9.3016  -16.4726   22.6578 N   0  0  0  0  0  0  0  0  0  0  0  0
    8.9328  -15.5601   23.7207 C   0  0  1  0  0  0  0  0  0  0  0  0
    7.4447  -15.3170   23.7612 C   0  0  0  0  0  0  0  0  0  0  0  0
    7.0484  -14.2353   24.6662 C   0  0  0  0  0  0  0  0  0  0  0  0
    7.5089  -12.9571   24.4549 C   0  0  0  0  0  0  0  0  0  0  0  0
    7.1618  -11.9096   25.2807 C   0  0  0  0  0  0  0  0  0  0  0  0
    6.3325  -12.1174   26.3553 C   0  0  0  0  0  0  0  0  0  0  0  0
    5.8608  -13.3914   26.5833 C   0  0  0  0  0  0  0  0  0  0  0  0
    6.2153  -14.4539   25.7423 C   0  0  0  0  0  0  0  0  0  0  0  0
    9.3175  -16.1102   25.0547 C   0  0  0  0  0  0  0  0  0  0  0  0
    9.2384  -17.3426   25.2750 O   0  0  0  0  0  0  0  0  0  0  0  0
    9.3653  -14.3599   29.1327 C   0  0  0  0  0  0  0  0  0  0  0  0
   10.6020  -14.6779   28.3355 C   0  0  2  0  0  0  0  0  0  0  0  0
   11.2024  -13.4664   27.6798 C   0  0  0  0  0  0  0  0  0  0  0  0
   10.3278  -15.7851   27.3311 C   0  0  2  0  0  0  0  0  0  0  0  0
    9.7798  -15.2802   26.1092 N   0  0  0  0  0  0  0  0  0  0  0  0
    9.4947  -16.8213   27.9704 C   0  0  0  0  0  0  0  0  0  0  0  0
    8.2835  -16.8764   27.6389 O   0  0  0  0  0  0  0  0  0  0  0  0
    9.9704  -17.7226   28.9025 O   0  0  0  0  0  0  0  0  0  0  0  0
  2  1  1  6
  2  3  1  0
  4  8  1  0
  4  3  1  0
  5  4  2  0
  6  5  1  0
  6  7  1  0
  7  8  2  0
  9  2  1  0
 10  9  2  0
 11  9  1  0
 12 11  1  0
 12 13  1  1
 13 14  1  0
 14 15  2  0
 15 16  1  0
 17 16  2  0
 18 17  1  0
 19 14  1  0
 19 18  2  0
 20 12  1  0
 21 20  2  0
 23 22  1  6
 23 24  1  0
 23 25  1  0
 25 27  1  0
 25 26  1  6
 26 20  1  0
 27 29  1  0
 28 27  2  0
M  END
$$$$
