HFV.pdb
     RDKit          3D

 29 30  0  0  1  0  0  0  0  0999 V2000
   10.5863  -17.5382   19.9795 N   0  0  0  0  0  0  0  0  0  0  0  0
    9.9615  -18.0935   21.1461 C   0  0  1  0  0  0  0  0  0  0  0  0
   10.8061  -19.1729   21.7928 C   0  0  0  0  0  0  0  0  0  0  0  0
   10.7677  -20.4484   21.0446 C   0  0  0  0  0  0  0  0  0  0  0  0
    9.9259  -21.5005   21.3808 C   0  0  0  0  0  0  0  0  0  0  0  0
   10.1644  -22.4720   20.4960 N   0  0  0  0  0  0  0  0  0  0  0  0
   11.1164  -22.0426   19.6428 C   0  0  0  0  0  0  0  0  0  0  0  0
   11.4999  -20.7856   19.9733 N   0  0  0  0  0  0  0  0  0  0  0  0
    9.7957  -17.0200   22.1572 C   0  0  0  0  0  0  0  0  0  0  0  0
   10.6417  -16.1077   22.2325 O   0  0  0  0  0  0  0  0  0  0  0  0
    8.6964  -16.9851   23.0592 N   0  0  0  0  0  0  0  0  0  0  0  0
    8.5601  -15.8601   23.9615 C   0  0  1  0  0  0  0  0  0  0  0  0
    7.1196  -15.4455   24.1289 C   0  0  0  0  0  0  0  0  0  0  0  0
    6.9444  -14.2342   24.9341 C   0  0  0  0  0  0  0  0  0  0  0  0
    7.5210  -13.0518   24.5340 C   0  0  0  0  0  0  0  0  0  0  0  0
    7.3823  -11.8887   25.2604 C   0  0  0  0  0  0  0  0  0  0  0  0
    6.6521  -11.8788   26.4232 C   0  0  0  0  0  0  0  0  0  0  0  0
    6.0667  -13.0539   26.8405 C   0  0  0  0  0  0  0  0  0  0  0  0
    6.2095  -14.2343   26.1002 C   0  0  0  0  0  0  0  0  0  0  0  0
    9.0729  -16.2010   25.3219 C   0  0  0  0  0  0  0  0  0  0  0  0
    8.8813  -17.3452   25.7993 O   0  0  0  0  0  0  0  0  0  0  0  0
    9.1834  -14.2122   29.0910 C   0  0  0  0  0  0  0  0  0  0  0  0
   10.4526  -14.3746   28.2981 C   0  0  2  0  0  0  0  0  0  0  0  0
   10.8332  -13.1322   27.5432 C   0  0  0  0  0  0  0  0  0  0  0  0
   10.3679  -15.5860   27.3843 C   0  0  2  0  0  0  0  0  0  0  0  0
    9.7844  -15.2653   26.1174 N   0  0  0  0  0  0  0  0  0  0  0  0
    9.6776  -16.6792   28.0948 C   0  0  0  0  0  0  0  0  0  0  0  0
    8.4737  -16.8909   27.8016 O   0  0  0  0  0  0  0  0  0  0  0  0
   10.2775  -17.4722   29.0532 O   0  0  0  0  0  0  0  0  0  0  0  0
  2  1  1  6
  2  3  1  0
  4  8  1  0
  4  3  1  0
  5  4  2  0
  6  5  1  0
  6  7  1  0
  7  8  2  0
  9  2  1  0
 10  9  2  0
 11  9  1  0
 12 11  1  0
 12 13  1  1
 13 14  1  0
 14 15  2  0
 15 16  1  0
 17 16  2  0
 18 17  1  0
 19 14  1  0
 19 18  2  0
 20 12  1  0
 21 20  2  0
 23 22  1  6
 23 24  1  0
 23 25  1  0
 25 27  1  0
 25 26  1  6
 26 20  1  0
 27 29  1  0
 28 27  2  0
M  END
$$$$
