HFV.pdb
     RDKit          3D

 29 30  0  0  1  0  0  0  0  0999 V2000
   11.4188  -16.9021   19.9358 N   0  0  0  0  0  0  0  0  0  0  0  0
   10.7935  -17.5840   21.0329 C   0  0  1  0  0  0  0  0  0  0  0  0
   11.7067  -18.6143   21.6661 C   0  0  0  0  0  0  0  0  0  0  0  0
   11.7916  -19.8609   20.8742 C   0  0  0  0  0  0  0  0  0  0  0  0
   10.7109  -20.3992   20.1879 C   0  0  0  0  0  0  0  0  0  0  0  0
   11.1557  -21.5105   19.5957 N   0  0  0  0  0  0  0  0  0  0  0  0
   12.4610  -21.6588   19.9007 C   0  0  0  0  0  0  0  0  0  0  0  0
   12.8683  -20.6393   20.6952 N   0  0  0  0  0  0  0  0  0  0  0  0
   10.4709  -16.5942   22.0904 C   0  0  0  0  0  0  0  0  0  0  0  0
   11.3139  -15.7319   22.4060 O   0  0  0  0  0  0  0  0  0  0  0  0
    9.2220  -16.5853   22.7713 N   0  0  0  0  0  0  0  0  0  0  0  0
    8.9733  -15.5707   23.7749 C   0  0  1  0  0  0  0  0  0  0  0  0
    7.5080  -15.2275   23.8757 C   0  0  0  0  0  0  0  0  0  0  0  0
    7.2293  -14.0812   24.7444 C   0  0  0  0  0  0  0  0  0  0  0  0
    6.4806  -14.2479   25.8856 C   0  0  0  0  0  0  0  0  0  0  0  0
    6.1941  -13.1980   26.7313 C   0  0  0  0  0  0  0  0  0  0  0  0
    6.6563  -11.9354   26.4527 C   0  0  0  0  0  0  0  0  0  0  0  0
    7.4083  -11.7485   25.3137 C   0  0  0  0  0  0  0  0  0  0  0  0
    7.6978  -12.8174   24.4562 C   0  0  0  0  0  0  0  0  0  0  0  0
    9.4016  -16.0397   25.1265 C   0  0  0  0  0  0  0  0  0  0  0  0
    9.2263  -17.2353   25.4636 O   0  0  0  0  0  0  0  0  0  0  0  0
    9.2646  -14.1732   28.9311 C   0  0  0  0  0  0  0  0  0  0  0  0
   10.6149  -14.4722   28.3365 C   0  0  2  0  0  0  0  0  0  0  0  0
   11.2754  -13.2584   27.7463 C   0  0  0  0  0  0  0  0  0  0  0  0
   10.5234  -15.6091   27.3320 C   0  0  2  0  0  0  0  0  0  0  0  0
   10.0127  -15.1718   26.0686 N   0  0  0  0  0  0  0  0  0  0  0  0
    9.7571  -16.7197   27.9284 C   0  0  0  0  0  0  0  0  0  0  0  0
   10.3332  -17.4182   28.8003 O   0  0  0  0  0  0  0  0  0  0  0  0
    8.4559  -17.0280   27.5830 O   0  0  0  0  0  0  0  0  0  0  0  0
  2  1  1  6
  2  3  1  0
  4  8  1  0
  4  3  1  0
  5  4  2  0
  6  5  1  0
  6  7  1  0
  7  8  2  0
  9  2  1  0
 10  9  2  0
 11  9  1  0
 12 11  1  0
 12 13  1  1
 13 14  1  0
 14 15  2  0
 15 16  1  0
 17 16  2  0
 18 17  1  0
 19 14  1  0
 19 18  2  0
 20 12  1  0
 21 20  2  0
 23 22  1  6
 23 24  1  0
 23 25  1  0
 25 27  1  0
 25 26  1  6
 26 20  1  0
 27 29  1  0
 28 27  2  0
M  END
$$$$
