HFV.pdb
     RDKit          3D

 29 30  0  0  1  0  0  0  0  0999 V2000
   11.2714  -16.8698   19.8433 N   0  0  0  0  0  0  0  0  0  0  0  0
   10.7925  -17.5526   21.0112 C   0  0  1  0  0  0  0  0  0  0  0  0
   11.8490  -18.4460   21.6294 C   0  0  0  0  0  0  0  0  0  0  0  0
   12.0827  -19.6769   20.8431 C   0  0  0  0  0  0  0  0  0  0  0  0
   11.0783  -20.5878   20.5426 C   0  0  0  0  0  0  0  0  0  0  0  0
   11.6518  -21.5599   19.8286 N   0  0  0  0  0  0  0  0  0  0  0  0
   12.9608  -21.2665   19.6897 C   0  0  0  0  0  0  0  0  0  0  0  0
   13.2413  -20.0981   20.3161 N   0  0  0  0  0  0  0  0  0  0  0  0
   10.4315  -16.5458   22.0400 C   0  0  0  0  0  0  0  0  0  0  0  0
   11.2677  -15.6874   22.3831 O   0  0  0  0  0  0  0  0  0  0  0  0
    9.1528  -16.5161   22.6623 N   0  0  0  0  0  0  0  0  0  0  0  0
    8.8763  -15.5003   23.6574 C   0  0  1  0  0  0  0  0  0  0  0  0
    7.4054  -15.1757   23.7351 C   0  0  0  0  0  0  0  0  0  0  0  0
    7.0916  -14.0777   24.6529 C   0  0  0  0  0  0  0  0  0  0  0  0
    7.4616  -12.7911   24.3394 C   0  0  0  0  0  0  0  0  0  0  0  0
    7.1870  -11.7283   25.1729 C   0  0  0  0  0  0  0  0  0  0  0  0
    6.5252  -11.9287   26.3592 C   0  0  0  0  0  0  0  0  0  0  0  0
    6.1463  -13.2109   26.6907 C   0  0  0  0  0  0  0  0  0  0  0  0
    6.4268  -14.2890   25.8416 C   0  0  0  0  0  0  0  0  0  0  0  0
    9.2907  -15.9576   25.0172 C   0  0  0  0  0  0  0  0  0  0  0  0
    9.2889  -17.1800   25.2990 O   0  0  0  0  0  0  0  0  0  0  0  0
   10.7054  -13.0579   27.7362 C   0  0  0  0  0  0  0  0  0  0  0  0
   10.1535  -14.3290   28.3243 C   0  0  2  0  0  0  0  0  0  0  0  0
   10.8229  -14.7158   29.6128 C   0  0  0  0  0  0  0  0  0  0  0  0
   10.1938  -15.4574   27.3069 C   0  0  2  0  0  0  0  0  0  0  0  0
    9.6962  -15.0484   26.0289 N   0  0  0  0  0  0  0  0  0  0  0  0
    9.5002  -16.6343   27.8638 C   0  0  0  0  0  0  0  0  0  0  0  0
    8.2897  -16.7892   27.5626 O   0  0  0  0  0  0  0  0  0  0  0  0
   10.1041  -17.5632   28.6884 O   0  0  0  0  0  0  0  0  0  0  0  0
  2  1  1  6
  2  3  1  0
  4  8  1  0
  4  3  1  0
  5  4  2  0
  6  5  1  0
  6  7  1  0
  7  8  2  0
  9  2  1  0
 10  9  2  0
 11  9  1  0
 12 11  1  0
 12 13  1  1
 13 14  1  0
 14 15  2  0
 15 16  1  0
 17 16  2  0
 18 17  1  0
 19 14  1  0
 19 18  2  0
 20 12  1  0
 21 20  2  0
 23 22  1  6
 23 24  1  0
 23 25  1  0
 25 27  1  0
 25 26  1  6
 26 20  1  0
 27 29  1  0
 28 27  2  0
M  END
$$$$
