HFV.pdb
     RDKit          3D

 29 30  0  0  1  0  0  0  0  0999 V2000
   10.9691  -16.9647   20.1081 N   0  0  0  0  0  0  0  0  0  0  0  0
    9.9594  -17.4130   21.0241 C   0  0  1  0  0  0  0  0  0  0  0  0
   10.3361  -18.7136   21.7047 C   0  0  0  0  0  0  0  0  0  0  0  0
    9.8774  -19.9018   20.9524 C   0  0  0  0  0  0  0  0  0  0  0  0
    8.6711  -19.9463   20.2658 C   0  0  0  0  0  0  0  0  0  0  0  0
    8.5952  -21.1604   19.7147 N   0  0  0  0  0  0  0  0  0  0  0  0
    9.7095  -21.8449   20.0445 C   0  0  0  0  0  0  0  0  0  0  0  0
   10.5148  -21.0731   20.8140 N   0  0  0  0  0  0  0  0  0  0  0  0
    9.8034  -16.4006   22.0978 C   0  0  0  0  0  0  0  0  0  0  0  0
   10.7999  -15.7683   22.4988 O   0  0  0  0  0  0  0  0  0  0  0  0
    8.5466  -16.1147   22.6997 N   0  0  0  0  0  0  0  0  0  0  0  0
    8.4872  -15.1622   23.7895 C   0  0  1  0  0  0  0  0  0  0  0  0
    7.1066  -14.5761   23.9487 C   0  0  0  0  0  0  0  0  0  0  0  0
    7.0090  -13.5789   25.0174 C   0  0  0  0  0  0  0  0  0  0  0  0
    7.6983  -12.3933   24.9181 C   0  0  0  0  0  0  0  0  0  0  0  0
    7.6356  -11.4273   25.8992 C   0  0  0  0  0  0  0  0  0  0  0  0
    6.8701  -11.6258   27.0217 C   0  0  0  0  0  0  0  0  0  0  0  0
    6.1721  -12.8076   27.1394 C   0  0  0  0  0  0  0  0  0  0  0  0
    6.2378  -13.7874   26.1406 C   0  0  0  0  0  0  0  0  0  0  0  0
    8.8328  -15.8138   25.0880 C   0  0  0  0  0  0  0  0  0  0  0  0
    8.3931  -16.9577   25.3560 O   0  0  0  0  0  0  0  0  0  0  0  0
   10.4385  -13.8898   28.6878 C   0  0  0  0  0  0  0  0  0  0  0  0
   11.1816  -14.9780   27.9599 C   0  0  2  0  0  0  0  0  0  0  0  0
   12.2852  -14.4496   27.0876 C   0  0  0  0  0  0  0  0  0  0  0  0
   10.2207  -15.8609   27.1809 C   0  0  2  0  0  0  0  0  0  0  0  0
    9.6565  -15.1808   26.0552 N   0  0  0  0  0  0  0  0  0  0  0  0
    9.2125  -16.4113   28.1067 C   0  0  0  0  0  0  0  0  0  0  0  0
    8.0108  -16.1030   27.9041 O   0  0  0  0  0  0  0  0  0  0  0  0
    9.5163  -17.2374   29.1710 O   0  0  0  0  0  0  0  0  0  0  0  0
  2  1  1  6
  2  3  1  0
  4  8  1  0
  4  3  1  0
  5  4  2  0
  6  5  1  0
  6  7  1  0
  7  8  2  0
  9  2  1  0
 10  9  2  0
 11  9  1  0
 12 11  1  0
 12 13  1  1
 13 14  1  0
 14 15  2  0
 15 16  1  0
 17 16  2  0
 18 17  1  0
 19 14  1  0
 19 18  2  0
 20 12  1  0
 21 20  2  0
 23 22  1  6
 23 24  1  0
 23 25  1  0
 25 27  1  0
 25 26  1  6
 26 20  1  0
 27 29  1  0
 28 27  2  0
M  END
$$$$
