SGR.pdb
     RDKit          3D

 22 21  0  0  1  0  0  0  0  0999 V2000
    8.4960  -13.0875   16.3928 O   0  0  0  0  0  0  0  0  0  0  0  0
    7.3732  -13.9108   16.5360 C   0  0  0  0  0  0  0  0  0  0  0  0
    7.2937  -14.3886   17.9628 C   0  0  2  0  0  0  0  0  0  0  0  0
    7.2252  -13.2416   18.8259 N   0  0  0  0  0  0  0  0  0  0  0  0
    8.5862  -15.0915   18.2473 C   0  0  0  0  0  0  0  0  0  0  0  0
    9.0053  -15.9614   17.4491 O   0  0  0  0  0  0  0  0  0  0  0  0
    9.3529  -14.7951   19.4050 N   0  0  0  0  0  0  0  0  0  0  0  0
   10.6309  -15.4088   19.6460 C   0  0  0  0  0  0  0  0  0  0  0  0
   11.3141  -14.7861   20.8366 C   0  0  0  0  0  0  0  0  0  0  0  0
   11.3378  -13.5368   20.9553 O   0  0  0  0  0  0  0  0  0  0  0  0
    6.7130  -20.0185   25.0875 N   0  0  0  0  0  0  0  0  0  0  0  0
    7.2044  -18.9363   25.8606 C   0  0  0  0  0  0  0  0  0  0  0  0
    7.3610  -19.0940   27.1319 N   0  0  0  0  0  0  0  0  0  0  0  0
    7.5244  -17.6887   25.2580 N   0  0  0  0  0  0  0  0  0  0  0  0
    8.7166  -17.5589   24.3934 C   0  0  0  0  0  0  0  0  0  0  0  0
    8.7763  -16.2067   23.8117 C   0  0  0  0  0  0  0  0  0  0  0  0
    9.8149  -15.8345   22.8573 C   0  0  0  0  0  0  0  0  0  0  0  0
   11.2652  -15.8705   23.1249 C   0  0  2  0  0  0  0  0  0  0  0  0
   11.9292  -15.5740   21.8236 N   0  0  0  0  0  0  0  0  0  0  0  0
   11.8922  -17.0147   23.7457 C   0  0  0  0  0  0  0  0  0  0  0  0
   12.3115  -16.9335   25.1107 O   0  0  0  0  0  0  0  0  0  0  0  0
   12.1288  -18.1074   23.2365 O   0  0  0  0  0  0  0  0  0  0  0  0
  1  2  1  0
  2  3  1  0
  3  4  1  1
  5  3  1  0
  5  7  1  0
  6  5  2  0
  8  7  1  0
  8  9  1  0
  9 19  1  0
  9 10  2  0
 11 12  1  0
 12 14  1  0
 12 13  2  0
 14 15  1  0
 16 15  1  0
 18 17  1  6
 17 16  1  0
 18 20  1  0
 19 18  1  0
 20 22  2  0
 20 21  1  0
M  END
$$$$
