SGR.pdb
     RDKit          3D

 22 21  0  0  1  0  0  0  0  0999 V2000
    9.8054  -20.4444   19.0528 O   0  0  0  0  0  0  0  0  0  0  0  0
    8.8089  -20.3400   18.0755 C   0  0  0  0  0  0  0  0  0  0  0  0
    8.9265  -19.0004   17.3958 C   0  0  2  0  0  0  0  0  0  0  0  0
   10.3131  -18.7518   17.1120 N   0  0  0  0  0  0  0  0  0  0  0  0
    8.4795  -17.9772   18.3953 C   0  0  0  0  0  0  0  0  0  0  0  0
    7.3021  -18.0038   18.8226 O   0  0  0  0  0  0  0  0  0  0  0  0
    9.3612  -16.9724   18.8735 N   0  0  0  0  0  0  0  0  0  0  0  0
    8.9347  -15.9761   19.8188 C   0  0  0  0  0  0  0  0  0  0  0  0
    9.6999  -16.0946   21.1120 C   0  0  0  0  0  0  0  0  0  0  0  0
   10.2538  -17.1813   21.4081 O   0  0  0  0  0  0  0  0  0  0  0  0
    7.8783  -12.5916   27.5132 N   0  0  0  0  0  0  0  0  0  0  0  0
    6.6383  -12.1195   27.0136 C   0  0  0  0  0  0  0  0  0  0  0  0
    5.8433  -11.4842   27.8073 N   0  0  0  0  0  0  0  0  0  0  0  0
    6.2619  -12.3353   25.6593 N   0  0  0  0  0  0  0  0  0  0  0  0
    7.2635  -12.7752   24.6650 C   0  0  0  0  0  0  0  0  0  0  0  0
    6.9367  -14.1274   24.1802 C   0  0  0  0  0  0  0  0  0  0  0  0
    7.7854  -14.8144   23.2128 C   0  0  0  0  0  0  0  0  0  0  0  0
    9.2319  -15.0556   23.3739 C   0  0  2  0  0  0  0  0  0  0  0  0
    9.8098  -15.0121   22.0005 N   0  0  0  0  0  0  0  0  0  0  0  0
    9.7323  -16.2127   24.0799 C   0  0  0  0  0  0  0  0  0  0  0  0
   11.1183  -16.5518   23.9829 O   0  0  0  0  0  0  0  0  0  0  0  0
    9.0982  -16.9888   24.7905 O   0  0  0  0  0  0  0  0  0  0  0  0
  1  2  1  0
  2  3  1  0
  3  4  1  1
  5  3  1  0
  5  7  1  0
  6  5  2  0
  8  7  1  0
  8  9  1  0
  9 19  1  0
  9 10  2  0
 11 12  1  0
 12 14  1  0
 12 13  2  0
 14 15  1  0
 16 15  1  0
 18 17  1  6
 17 16  1  0
 18 20  1  0
 19 18  1  0
 20 22  2  0
 20 21  1  0
M  END
$$$$
