SGR.pdb
     RDKit          3D

 22 21  0  0  1  0  0  0  0  0999 V2000
   10.6083  -18.4288   15.0628 O   0  0  0  0  0  0  0  0  0  0  0  0
   10.5744  -17.0352   15.1886 C   0  0  0  0  0  0  0  0  0  0  0  0
   11.5134  -16.6189   16.2909 C   0  0  2  0  0  0  0  0  0  0  0  0
   12.5928  -17.5654   16.3540 N   0  0  0  0  0  0  0  0  0  0  0  0
   10.7408  -16.7289   17.5702 C   0  0  0  0  0  0  0  0  0  0  0  0
    9.8242  -15.9095   17.8111 O   0  0  0  0  0  0  0  0  0  0  0  0
   11.0223  -17.7440   18.5222 N   0  0  0  0  0  0  0  0  0  0  0  0
   10.2828  -17.8584   19.7502 C   0  0  0  0  0  0  0  0  0  0  0  0
   10.8948  -17.0054   20.8318 C   0  0  0  0  0  0  0  0  0  0  0  0
   12.0649  -17.2406   21.2201 O   0  0  0  0  0  0  0  0  0  0  0  0
    7.8564  -11.8167   19.2897 N   0  0  0  0  0  0  0  0  0  0  0  0
    7.9794  -13.2290   19.3106 C   0  0  0  0  0  0  0  0  0  0  0  0
    8.3632  -13.8409   18.2411 N   0  0  0  0  0  0  0  0  0  0  0  0
    7.6874  -13.9746   20.4858 N   0  0  0  0  0  0  0  0  0  0  0  0
    8.2500  -13.5661   21.7905 C   0  0  0  0  0  0  0  0  0  0  0  0
    7.8408  -14.5166   22.8390 C   0  0  0  0  0  0  0  0  0  0  0  0
    8.7004  -15.6257   23.2378 C   0  0  0  0  0  0  0  0  0  0  0  0
   10.1300  -15.7557   22.8977 C   0  0  2  0  0  0  0  0  0  0  0  0
   10.1838  -15.9464   21.4202 N   0  0  0  0  0  0  0  0  0  0  0  0
   10.9775  -16.7281   23.5487 C   0  0  0  0  0  0  0  0  0  0  0  0
   10.5823  -18.1024   23.5734 O   0  0  0  0  0  0  0  0  0  0  0  0
   12.0489  -16.5280   24.1155 O   0  0  0  0  0  0  0  0  0  0  0  0
  1  2  1  0
  2  3  1  0
  3  4  1  1
  5  3  1  0
  5  7  1  0
  6  5  2  0
  8  7  1  0
  8  9  1  0
  9 19  1  0
  9 10  2  0
 11 12  1  0
 12 14  1  0
 12 13  2  0
 14 15  1  0
 16 15  1  0
 18 17  1  1
 17 16  1  0
 18 20  1  0
 19 18  1  0
 20 22  2  0
 20 21  1  0
M  END
$$$$
