SGR.pdb
     RDKit          3D

 22 21  0  0  1  0  0  0  0  0999 V2000
    9.8387  -12.7945   17.1112 O   0  0  0  0  0  0  0  0  0  0  0  0
    8.8065  -12.7462   18.0554 C   0  0  0  0  0  0  0  0  0  0  0  0
    9.1041  -13.7284   19.1585 C   0  0  2  0  0  0  0  0  0  0  0  0
    9.0595  -15.0569   18.6124 N   0  0  0  0  0  0  0  0  0  0  0  0
    7.9840  -13.6084   20.1467 C   0  0  0  0  0  0  0  0  0  0  0  0
    7.9428  -12.6215   20.9174 O   0  0  0  0  0  0  0  0  0  0  0  0
    6.9618  -14.5900   20.2325 N   0  0  0  0  0  0  0  0  0  0  0  0
    5.9848  -14.5776   21.2876 C   0  0  0  0  0  0  0  0  0  0  0  0
    6.5555  -15.1490   22.5603 C   0  0  0  0  0  0  0  0  0  0  0  0
    5.8444  -15.1949   23.5936 O   0  0  0  0  0  0  0  0  0  0  0  0
   10.9837  -18.5497   27.2764 N   0  0  0  0  0  0  0  0  0  0  0  0
   12.1229  -19.0998   26.6363 C   0  0  0  0  0  0  0  0  0  0  0  0
   12.9754  -19.7677   27.3383 N   0  0  0  0  0  0  0  0  0  0  0  0
   12.3369  -18.9264   25.2411 N   0  0  0  0  0  0  0  0  0  0  0  0
   11.7590  -17.7639   24.5339 C   0  0  0  0  0  0  0  0  0  0  0  0
   10.3203  -17.9770   24.2993 C   0  0  0  0  0  0  0  0  0  0  0  0
    9.5529  -17.0943   23.4275 C   0  0  0  0  0  0  0  0  0  0  0  0
    8.4389  -16.2308   23.8631 C   0  0  2  0  0  0  0  0  0  0  0  0
    7.8721  -15.6351   22.6197 N   0  0  0  0  0  0  0  0  0  0  0  0
    8.6243  -15.2011   24.8596 C   0  0  0  0  0  0  0  0  0  0  0  0
    8.3564  -15.4945   26.2336 O   0  0  0  0  0  0  0  0  0  0  0  0
    9.0001  -14.0452   24.6815 O   0  0  0  0  0  0  0  0  0  0  0  0
  1  2  1  0
  2  3  1  0
  3  4  1  6
  5  3  1  0
  5  7  1  0
  6  5  2  0
  8  7  1  0
  8  9  1  0
  9 19  1  0
  9 10  2  0
 11 12  1  0
 12 14  1  0
 12 13  2  0
 14 15  1  0
 16 15  1  0
 18 17  1  6
 17 16  1  0
 18 20  1  0
 19 18  1  0
 20 22  2  0
 20 21  1  0
M  END
$$$$
