SGR.pdb
     RDKit          3D

 22 21  0  0  1  0  0  0  0  0999 V2000
   13.0616  -20.2858   16.3699 O   0  0  0  0  0  0  0  0  0  0  0  0
   11.9963  -19.4858   15.9406 C   0  0  0  0  0  0  0  0  0  0  0  0
   12.0116  -18.1921   16.7129 C   0  0  2  0  0  0  0  0  0  0  0  0
   13.3750  -17.7609   16.8556 N   0  0  0  0  0  0  0  0  0  0  0  0
   11.4926  -18.5097   18.0823 C   0  0  0  0  0  0  0  0  0  0  0  0
   10.2821  -18.7948   18.2338 O   0  0  0  0  0  0  0  0  0  0  0  0
   12.3425  -18.4959   19.2196 N   0  0  0  0  0  0  0  0  0  0  0  0
   11.8883  -18.9353   20.5114 C   0  0  0  0  0  0  0  0  0  0  0  0
   11.8096  -17.7817   21.4784 C   0  0  0  0  0  0  0  0  0  0  0  0
   12.5863  -16.8051   21.3439 O   0  0  0  0  0  0  0  0  0  0  0  0
    7.5366  -11.8968   20.3854 N   0  0  0  0  0  0  0  0  0  0  0  0
    8.1952  -12.8777   19.6015 C   0  0  0  0  0  0  0  0  0  0  0  0
    8.4432  -12.6257   18.3603 N   0  0  0  0  0  0  0  0  0  0  0  0
    8.5830  -14.1262   20.1610 N   0  0  0  0  0  0  0  0  0  0  0  0
    8.3356  -14.4156   21.5894 C   0  0  0  0  0  0  0  0  0  0  0  0
    8.8185  -15.7666   21.9241 C   0  0  0  0  0  0  0  0  0  0  0  0
    9.3947  -16.0665   23.2303 C   0  0  0  0  0  0  0  0  0  0  0  0
   10.7479  -16.6088   23.4562 C   0  0  2  0  0  0  0  0  0  0  0  0
   10.8823  -17.7719   22.5336 N   0  0  0  0  0  0  0  0  0  0  0  0
   11.2058  -16.9751   24.7768 C   0  0  0  0  0  0  0  0  0  0  0  0
   11.6250  -15.9532   25.6854 O   0  0  0  0  0  0  0  0  0  0  0  0
   11.2904  -18.1040   25.2541 O   0  0  0  0  0  0  0  0  0  0  0  0
  1  2  1  0
  2  3  1  0
  3  4  1  1
  5  3  1  0
  5  7  1  0
  6  5  2  0
  8  7  1  0
  8  9  1  0
  9 19  1  0
  9 10  2  0
 11 12  1  0
 12 14  1  0
 12 13  2  0
 14 15  1  0
 16 15  1  0
 18 17  1  1
 17 16  1  0
 18 20  1  0
 19 18  1  0
 20 22  2  0
 20 21  1  0
M  END
$$$$
