SGR.pdb
     RDKit          3D

 22 21  0  0  1  0  0  0  0  0999 V2000
    9.7259  -14.4404   15.8932 O   0  0  0  0  0  0  0  0  0  0  0  0
    8.3674  -14.4939   15.5606 C   0  0  0  0  0  0  0  0  0  0  0  0
    7.5529  -14.0619   16.7523 C   0  0  2  0  0  0  0  0  0  0  0  0
    8.2145  -12.9513   17.3800 N   0  0  0  0  0  0  0  0  0  0  0  0
    7.5759  -15.2066   17.7191 C   0  0  0  0  0  0  0  0  0  0  0  0
    7.1711  -16.3339   17.3519 O   0  0  0  0  0  0  0  0  0  0  0  0
    8.0475  -15.0457   19.0486 N   0  0  0  0  0  0  0  0  0  0  0  0
    8.1150  -16.1491   19.9683 C   0  0  0  0  0  0  0  0  0  0  0  0
    8.9909  -15.8165   21.1491 C   0  0  0  0  0  0  0  0  0  0  0  0
   10.2375  -15.9189   21.0454 O   0  0  0  0  0  0  0  0  0  0  0  0
    5.6097  -10.6903   26.8988 N   0  0  0  0  0  0  0  0  0  0  0  0
    6.2107  -11.9540   27.1265 C   0  0  0  0  0  0  0  0  0  0  0  0
    6.1208  -12.4894   28.2973 N   0  0  0  0  0  0  0  0  0  0  0  0
    6.9064  -12.6343   26.0893 N   0  0  0  0  0  0  0  0  0  0  0  0
    7.0688  -12.0070   24.7605 C   0  0  0  0  0  0  0  0  0  0  0  0
    7.7793  -12.9227   23.8511 C   0  0  0  0  0  0  0  0  0  0  0  0
    8.4862  -14.0961   24.3526 C   0  0  0  0  0  0  0  0  0  0  0  0
    9.2999  -15.0118   23.5306 C   0  0  2  0  0  0  0  0  0  0  0  0
    8.4436  -15.3917   22.3711 N   0  0  0  0  0  0  0  0  0  0  0  0
    9.9134  -16.1922   24.0945 C   0  0  0  0  0  0  0  0  0  0  0  0
   11.0929  -16.0599   24.8926 O   0  0  0  0  0  0  0  0  0  0  0  0
    9.5432  -17.3577   23.9771 O   0  0  0  0  0  0  0  0  0  0  0  0
  1  2  1  0
  2  3  1  0
  3  4  1  1
  5  3  1  0
  5  7  1  0
  6  5  2  0
  8  7  1  0
  8  9  1  0
  9 19  1  0
  9 10  2  0
 11 12  1  0
 12 14  1  0
 12 13  2  0
 14 15  1  0
 16 15  1  0
 18 17  1  1
 17 16  1  0
 18 20  1  0
 19 18  1  0
 20 22  2  0
 20 21  1  0
M  END
$$$$
