SGR.pdb
     RDKit          3D

 22 21  0  0  1  0  0  0  0  0999 V2000
    8.6277  -17.2791   16.8288 O   0  0  0  0  0  0  0  0  0  0  0  0
    8.4569  -16.2552   17.7677 C   0  0  0  0  0  0  0  0  0  0  0  0
    8.2309  -16.8674   19.1258 C   0  0  2  0  0  0  0  0  0  0  0  0
    6.8891  -17.3790   19.1792 N   0  0  0  0  0  0  0  0  0  0  0  0
    8.3273  -15.7477   20.1170 C   0  0  0  0  0  0  0  0  0  0  0  0
    9.4374  -15.4651   20.6242 O   0  0  0  0  0  0  0  0  0  0  0  0
    7.1860  -14.9940   20.4983 N   0  0  0  0  0  0  0  0  0  0  0  0
    7.2612  -13.9503   21.4847 C   0  0  0  0  0  0  0  0  0  0  0  0
    7.2330  -14.5209   22.8796 C   0  0  0  0  0  0  0  0  0  0  0  0
    6.2066  -14.3787   23.5877 O   0  0  0  0  0  0  0  0  0  0  0  0
    5.4061  -22.1647   24.7074 N   0  0  0  0  0  0  0  0  0  0  0  0
    6.0057  -21.7743   25.9314 C   0  0  0  0  0  0  0  0  0  0  0  0
    5.8910  -22.5454   26.9599 N   0  0  0  0  0  0  0  0  0  0  0  0
    6.7263  -20.5531   26.0398 N   0  0  0  0  0  0  0  0  0  0  0  0
    6.7855  -19.6149   24.8989 C   0  0  0  0  0  0  0  0  0  0  0  0
    7.4453  -18.3623   25.3061 C   0  0  0  0  0  0  0  0  0  0  0  0
    7.6213  -17.2565   24.3711 C   0  0  0  0  0  0  0  0  0  0  0  0
    8.2506  -15.9624   24.6965 C   0  0  2  0  0  0  0  0  0  0  0  0
    8.3342  -15.2128   23.4107 N   0  0  0  0  0  0  0  0  0  0  0  0
    9.5162  -15.8893   25.3898 C   0  0  0  0  0  0  0  0  0  0  0  0
   10.6940  -15.5182   24.6682 O   0  0  0  0  0  0  0  0  0  0  0  0
    9.7337  -16.1143   26.5778 O   0  0  0  0  0  0  0  0  0  0  0  0
  1  2  1  0
  2  3  1  0
  3  4  1  6
  5  3  1  0
  5  7  1  0
  6  5  2  0
  8  7  1  0
  8  9  1  0
  9 19  1  0
  9 10  2  0
 11 12  1  0
 12 14  1  0
 12 13  2  0
 14 15  1  0
 16 15  1  0
 18 17  1  6
 17 16  1  0
 18 20  1  0
 19 18  1  0
 20 22  2  0
 20 21  1  0
M  END
$$$$
