SGR.pdb
     RDKit          3D

 22 21  0  0  1  0  0  0  0  0999 V2000
    6.3010  -13.2512   17.7390 O   0  0  0  0  0  0  0  0  0  0  0  0
    7.5388  -13.6333   17.2089 C   0  0  0  0  0  0  0  0  0  0  0  0
    8.6073  -13.4107   18.2476 C   0  0  2  0  0  0  0  0  0  0  0  0
    9.8843  -13.7139   17.6623 N   0  0  0  0  0  0  0  0  0  0  0  0
    8.3586  -14.4133   19.3333 C   0  0  0  0  0  0  0  0  0  0  0  0
    8.4005  -15.6366   19.0664 O   0  0  0  0  0  0  0  0  0  0  0  0
    8.0751  -14.0101   20.6648 N   0  0  0  0  0  0  0  0  0  0  0  0
    7.3302  -14.8452   21.5680 C   0  0  0  0  0  0  0  0  0  0  0  0
    7.3107  -14.2583   22.9562 C   0  0  0  0  0  0  0  0  0  0  0  0
    8.0178  -13.2542   23.2155 O   0  0  0  0  0  0  0  0  0  0  0  0
    8.7318  -20.1360   29.4591 N   0  0  0  0  0  0  0  0  0  0  0  0
    8.0173  -20.0940   28.2352 C   0  0  0  0  0  0  0  0  0  0  0  0
    6.8718  -20.6834   28.1572 N   0  0  0  0  0  0  0  0  0  0  0  0
    8.5425  -19.4159   27.1009 N   0  0  0  0  0  0  0  0  0  0  0  0
    8.0092  -18.0951   26.7051 C   0  0  0  0  0  0  0  0  0  0  0  0
    7.2585  -18.2091   25.4426 C   0  0  0  0  0  0  0  0  0  0  0  0
    6.7243  -17.0320   24.7664 C   0  0  0  0  0  0  0  0  0  0  0  0
    7.0970  -15.6372   25.0698 C   0  0  2  0  0  0  0  0  0  0  0  0
    6.5156  -14.8103   23.9742 N   0  0  0  0  0  0  0  0  0  0  0  0
    8.4712  -15.2533   25.2974 C   0  0  0  0  0  0  0  0  0  0  0  0
    8.8181  -14.5550   26.4964 O   0  0  0  0  0  0  0  0  0  0  0  0
    9.4363  -15.4537   24.5640 O   0  0  0  0  0  0  0  0  0  0  0  0
  1  2  1  0
  2  3  1  0
  3  4  1  6
  5  3  1  0
  5  7  1  0
  6  5  2  0
  8  7  1  0
  8  9  1  0
  9 19  1  0
  9 10  2  0
 11 12  1  0
 12 14  1  0
 12 13  2  0
 14 15  1  0
 16 15  1  0
 18 17  1  6
 17 16  1  0
 18 20  1  0
 19 18  1  0
 20 22  2  0
 20 21  1  0
M  END
$$$$
