HMC.pdb
     RDKit          3D

 25 25  0  0  1  0  0  0  0  0999 V2000
   22.6954  -16.6493  -18.1515 N   0  0  0  0  0  0  0  0  0  0  0  0
   22.1720  -15.3401  -18.4560 C   0  0  1  0  0  0  0  0  0  0  0  0
   20.6990  -15.3877  -18.0135 C   0  0  0  0  0  0  0  0  0  0  0  0
   19.9429  -16.3135  -18.9261 C   0  0  0  0  0  0  0  0  0  0  0  0
   20.0569  -16.4023  -20.2965 C   0  0  0  0  0  0  0  0  0  0  0  0
   19.2083  -17.3447  -20.7606 N   0  0  0  0  0  0  0  0  0  0  0  0
   18.5629  -17.8489  -19.7036 C   0  0  0  0  0  0  0  0  0  0  0  0
   19.0088  -17.2231  -18.5912 N   0  0  0  0  0  0  0  0  0  0  0  0
   22.7961  -14.2672  -17.6304 C   0  0  0  0  0  0  0  0  0  0  0  0
   22.9697  -14.4949  -16.4154 O   0  0  0  0  0  0  0  0  0  0  0  0
   28.5308   -9.0482  -17.1983 C   0  0  0  0  0  0  0  0  0  0  0  0
   27.5701  -10.2577  -18.1330 S   0  0  0  0  0  0  0  0  0  0  0  0
   25.9863  -10.6223  -17.3384 C   0  0  0  0  0  0  0  0  0  0  0  0
   25.2230  -11.6567  -18.1269 C   0  0  0  0  0  0  0  0  0  0  0  0
   23.9038  -12.0090  -17.4412 C   0  0  2  0  0  0  0  0  0  0  0  0
   23.1933  -13.0229  -18.1606 N   0  0  0  0  0  0  0  0  0  0  0  0
   23.1182  -10.7595  -17.3391 C   0  0  0  0  0  0  0  0  0  0  0  0
   22.5675  -10.2222  -18.3484 O   0  0  0  0  0  0  0  0  0  0  0  0
   22.9133  -10.0578  -16.1026 N   0  0  0  0  0  0  0  0  0  0  0  0
   22.1490   -8.8224  -16.0601 C   0  0  1  0  0  0  0  0  0  0  0  0
   21.4123   -8.6983  -14.7316 C   0  0  0  0  0  0  0  0  0  0  0  0
   20.1854  -10.0347  -14.6735 S   0  0  0  0  0  0  0  0  0  0  0  0
   23.0639   -7.6696  -16.1665 C   0  0  0  0  0  0  0  0  0  0  0  0
   24.3011   -7.8453  -16.1817 O   0  0  0  0  0  0  0  0  0  0  0  0
   22.5394   -6.3928  -16.2494 O   0  0  0  0  0  0  0  0  0  0  0  0
  2  1  1  1
  2  9  1  0
  3  4  1  0
  3  2  1  0
  4  5  2  0
  6  5  1  0
  7  6  1  0
  8  7  2  0
  8  4  1  0
  9 10  2  0
 11 12  1  0
 12 13  1  0
 14 13  1  0
 15 14  1  6
 16 15  1  0
 16  9  1  0
 17 15  1  0
 18 17  2  0
 19 17  1  0
 20 23  1  0
 20 19  1  0
 20 21  1  1
 22 21  1  0
 23 25  1  0
 24 23  2  0
M  END
$$$$
