HMC.pdb
     RDKit          3D

 25 25  0  0  1  0  0  0  0  0999 V2000
   19.9372  -19.8596  -14.1659 N   0  0  0  0  0  0  0  0  0  0  0  0
   20.9816  -20.8184  -14.4312 C   0  0  1  0  0  0  0  0  0  0  0  0
   21.0435  -20.9253  -15.9650 C   0  0  0  0  0  0  0  0  0  0  0  0
   20.0757  -21.9819  -16.4219 C   0  0  0  0  0  0  0  0  0  0  0  0
   18.7501  -21.8042  -16.7535 C   0  0  0  0  0  0  0  0  0  0  0  0
   18.2100  -22.9901  -17.1079 N   0  0  0  0  0  0  0  0  0  0  0  0
   19.1751  -23.9097  -17.0039 C   0  0  0  0  0  0  0  0  0  0  0  0
   20.3065  -23.2977  -16.5878 N   0  0  0  0  0  0  0  0  0  0  0  0
   22.3274  -20.3292  -14.0165 C   0  0  0  0  0  0  0  0  0  0  0  0
   22.5726  -19.1132  -14.1559 O   0  0  0  0  0  0  0  0  0  0  0  0
   25.2541  -20.3073   -8.8145 C   0  0  0  0  0  0  0  0  0  0  0  0
   26.5650  -21.2620   -9.6080 S   0  0  0  0  0  0  0  0  0  0  0  0
   26.4769  -21.1613  -11.4121 C   0  0  0  0  0  0  0  0  0  0  0  0
   25.1342  -21.6395  -11.9050 C   0  0  0  0  0  0  0  0  0  0  0  0
   24.6107  -20.7473  -13.0296 C   0  0  2  0  0  0  0  0  0  0  0  0
   23.3200  -21.1739  -13.4796 N   0  0  0  0  0  0  0  0  0  0  0  0
   25.6102  -20.7880  -14.1196 C   0  0  0  0  0  0  0  0  0  0  0  0
   25.7035  -21.7720  -14.9157 O   0  0  0  0  0  0  0  0  0  0  0  0
   26.5480  -19.7284  -14.3671 N   0  0  0  0  0  0  0  0  0  0  0  0
   27.4746  -19.7940  -15.4847 C   0  0  1  0  0  0  0  0  0  0  0  0
   28.3919  -18.5768  -15.4873 C   0  0  0  0  0  0  0  0  0  0  0  0
   27.3299  -17.1070  -15.5683 S   0  0  0  0  0  0  0  0  0  0  0  0
   28.3288  -20.9897  -15.3509 C   0  0  0  0  0  0  0  0  0  0  0  0
   28.3888  -21.6038  -14.2641 O   0  0  0  0  0  0  0  0  0  0  0  0
   29.0624  -21.4245  -16.4394 O   0  0  0  0  0  0  0  0  0  0  0  0
  2  1  1  6
  2  9  1  0
  3  4  1  0
  3  2  1  0
  4  5  2  0
  6  5  1  0
  7  6  1  0
  8  7  2  0
  8  4  1  0
  9 10  2  0
 11 12  1  0
 12 13  1  0
 14 13  1  0
 15 14  1  1
 16 15  1  0
 16  9  1  0
 17 15  1  0
 18 17  2  0
 19 17  1  0
 20 23  1  0
 20 19  1  0
 20 21  1  1
 22 21  1  0
 23 25  1  0
 24 23  2  0
M  END
$$$$
