HMC.pdb
     RDKit          3D

 25 25  0  0  1  0  0  0  0  0999 V2000
   25.6736  -21.3586  -14.4423 N   0  0  0  0  0  0  0  0  0  0  0  0
   25.1808  -20.4192  -13.4649 C   0  0  1  0  0  0  0  0  0  0  0  0
   23.7159  -20.1643  -13.8612 C   0  0  0  0  0  0  0  0  0  0  0  0
   23.6846  -19.3101  -15.0984 C   0  0  0  0  0  0  0  0  0  0  0  0
   24.6520  -18.4231  -15.5182 C   0  0  0  0  0  0  0  0  0  0  0  0
   24.2596  -17.8381  -16.6703 N   0  0  0  0  0  0  0  0  0  0  0  0
   23.0612  -18.3434  -16.9808 C   0  0  0  0  0  0  0  0  0  0  0  0
   22.7128  -19.2361  -16.0271 N   0  0  0  0  0  0  0  0  0  0  0  0
   25.1219  -20.9981  -12.0925 C   0  0  0  0  0  0  0  0  0  0  0  0
   24.7349  -22.1791  -11.9755 O   0  0  0  0  0  0  0  0  0  0  0  0
   27.2310  -17.7799   -6.4382 C   0  0  0  0  0  0  0  0  0  0  0  0
   27.4049  -19.5593   -6.1875 S   0  0  0  0  0  0  0  0  0  0  0  0
   26.2961  -20.5042   -7.2601 C   0  0  0  0  0  0  0  0  0  0  0  0
   26.2828  -19.9240   -8.6520 C   0  0  0  0  0  0  0  0  0  0  0  0
   25.4528  -20.7876   -9.6008 C   0  0  2  0  0  0  0  0  0  0  0  0
   25.4819  -20.2747  -10.9374 N   0  0  0  0  0  0  0  0  0  0  0  0
   24.0759  -20.8285   -9.0612 C   0  0  0  0  0  0  0  0  0  0  0  0
   23.2271  -19.9166   -9.3031 O   0  0  0  0  0  0  0  0  0  0  0  0
   23.5884  -21.8928   -8.2287 N   0  0  0  0  0  0  0  0  0  0  0  0
   22.2069  -21.9188   -7.7782 C   0  0  1  0  0  0  0  0  0  0  0  0
   22.0159  -22.9887   -6.7097 C   0  0  0  0  0  0  0  0  0  0  0  0
   20.2549  -22.9976   -6.2705 S   0  0  0  0  0  0  0  0  0  0  0  0
   21.8596  -20.6203   -7.1694 C   0  0  0  0  0  0  0  0  0  0  0  0
   20.7527  -20.0896   -7.4035 O   0  0  0  0  0  0  0  0  0  0  0  0
   22.7707  -19.9961   -6.3372 O   0  0  0  0  0  0  0  0  0  0  0  0
  2  1  1  6
  2  9  1  0
  3  4  1  0
  3  2  1  0
  4  5  2  0
  6  5  1  0
  7  6  1  0
  8  7  2  0
  8  4  1  0
  9 10  2  0
 11 12  1  0
 12 13  1  0
 14 13  1  0
 15 14  1  1
 16 15  1  0
 16  9  1  0
 17 15  1  0
 18 17  2  0
 19 17  1  0
 20 23  1  0
 20 19  1  0
 20 21  1  1
 22 21  1  0
 23 25  1  0
 24 23  2  0
M  END
$$$$
