HMC.pdb
     RDKit          3D

 25 25  0  0  1  0  0  0  0  0999 V2000
   20.2120  -13.4972  -18.5304 N   0  0  0  0  0  0  0  0  0  0  0  0
   21.1472  -12.4785  -18.9405 C   0  0  1  0  0  0  0  0  0  0  0  0
   20.3259  -11.5118  -19.8116 C   0  0  0  0  0  0  0  0  0  0  0  0
   20.0759  -12.1503  -21.1500 C   0  0  0  0  0  0  0  0  0  0  0  0
   20.9911  -12.8193  -21.9333 C   0  0  0  0  0  0  0  0  0  0  0  0
   20.3918  -13.2428  -23.0669 N   0  0  0  0  0  0  0  0  0  0  0  0
   19.1150  -12.8502  -23.0082 C   0  0  0  0  0  0  0  0  0  0  0  0
   18.9238  -12.1876  -21.8454 N   0  0  0  0  0  0  0  0  0  0  0  0
   21.6380  -11.6574  -17.7972 C   0  0  0  0  0  0  0  0  0  0  0  0
   20.8662  -11.4851  -16.8313 O   0  0  0  0  0  0  0  0  0  0  0  0
   28.0853  -10.6242  -16.5406 C   0  0  0  0  0  0  0  0  0  0  0  0
   27.2186  -10.0930  -15.0486 S   0  0  0  0  0  0  0  0  0  0  0  0
   25.4916   -9.6716  -15.3842 C   0  0  0  0  0  0  0  0  0  0  0  0
   24.9400  -10.5363  -16.4898 C   0  0  0  0  0  0  0  0  0  0  0  0
   23.4444  -10.2921  -16.6859 C   0  0  2  0  0  0  0  0  0  0  0  0
   22.9219  -11.0766  -17.7639 N   0  0  0  0  0  0  0  0  0  0  0  0
   23.2673   -8.8436  -16.9285 C   0  0  0  0  0  0  0  0  0  0  0  0
   23.5994   -8.2955  -18.0240 O   0  0  0  0  0  0  0  0  0  0  0  0
   22.7093   -7.9454  -15.9563 N   0  0  0  0  0  0  0  0  0  0  0  0
   22.4222   -6.5611  -16.2931 C   0  0  1  0  0  0  0  0  0  0  0  0
   21.0758   -6.1413  -15.7151 C   0  0  0  0  0  0  0  0  0  0  0  0
   21.0811   -6.6007  -13.9591 S   0  0  0  0  0  0  0  0  0  0  0  0
   23.4497   -5.6834  -15.7004 C   0  0  0  0  0  0  0  0  0  0  0  0
   24.3302   -6.1590  -14.9518 O   0  0  0  0  0  0  0  0  0  0  0  0
   23.4292   -4.3296  -15.9812 O   0  0  0  0  0  0  0  0  0  0  0  0
  2  1  1  1
  2  9  1  0
  3  4  1  0
  3  2  1  0
  4  5  2  0
  6  5  1  0
  7  6  1  0
  8  7  2  0
  8  4  1  0
  9 10  2  0
 11 12  1  0
 12 13  1  0
 14 13  1  0
 15 14  1  6
 16 15  1  0
 16  9  1  0
 17 15  1  0
 18 17  2  0
 19 17  1  0
 20 23  1  0
 20 19  1  0
 20 21  1  1
 22 21  1  0
 23 25  1  0
 24 23  2  0
M  END
$$$$
