HMC.pdb
     RDKit          3D

 25 25  0  0  1  0  0  0  0  0999 V2000
   28.4027  -21.2434  -16.5074 N   0  0  0  0  0  0  0  0  0  0  0  0
   27.7526  -20.3157  -15.6146 C   0  0  1  0  0  0  0  0  0  0  0  0
   26.9010  -19.4156  -16.5270 C   0  0  0  0  0  0  0  0  0  0  0  0
   27.7752  -18.3371  -17.1052 C   0  0  0  0  0  0  0  0  0  0  0  0
   29.1410  -18.2154  -16.9693 C   0  0  0  0  0  0  0  0  0  0  0  0
   29.5640  -17.1132  -17.6250 N   0  0  0  0  0  0  0  0  0  0  0  0
   28.4857  -16.5407  -18.1703 C   0  0  0  0  0  0  0  0  0  0  0  0
   27.4009  -17.2834  -17.8548 N   0  0  0  0  0  0  0  0  0  0  0  0
   26.7804  -20.9835  -14.7029 C   0  0  0  0  0  0  0  0  0  0  0  0
   26.2961  -22.0747  -15.0675 O   0  0  0  0  0  0  0  0  0  0  0  0
   26.7195  -20.7366   -8.0294 C   0  0  0  0  0  0  0  0  0  0  0  0
   24.9768  -20.6098   -8.4838 S   0  0  0  0  0  0  0  0  0  0  0  0
   24.6784  -21.1660  -10.1792 C   0  0  0  0  0  0  0  0  0  0  0  0
   25.6797  -20.5496  -11.1236 C   0  0  0  0  0  0  0  0  0  0  0  0
   25.4591  -21.0367  -12.5549 C   0  0  2  0  0  0  0  0  0  0  0  0
   26.3924  -20.4393  -13.4618 N   0  0  0  0  0  0  0  0  0  0  0  0
   24.0618  -20.7112  -12.9158 C   0  0  0  0  0  0  0  0  0  0  0  0
   23.6680  -19.5169  -13.0872 O   0  0  0  0  0  0  0  0  0  0  0  0
   23.0447  -21.7082  -13.1023 N   0  0  0  0  0  0  0  0  0  0  0  0
   21.7132  -21.3441  -13.5569 C   0  0  1  0  0  0  0  0  0  0  0  0
   21.1115  -22.4667  -14.3941 C   0  0  0  0  0  0  0  0  0  0  0  0
   22.1344  -22.6296  -15.8846 S   0  0  0  0  0  0  0  0  0  0  0  0
   20.8302  -21.1404  -12.3924 C   0  0  0  0  0  0  0  0  0  0  0  0
   21.1807  -21.5324  -11.2586 O   0  0  0  0  0  0  0  0  0  0  0  0
   19.6112  -20.5116  -12.5673 O   0  0  0  0  0  0  0  0  0  0  0  0
  2  1  1  6
  2  9  1  0
  3  4  1  0
  3  2  1  0
  4  5  2  0
  6  5  1  0
  7  6  1  0
  8  7  2  0
  8  4  1  0
  9 10  2  0
 11 12  1  0
 12 13  1  0
 14 13  1  0
 15 14  1  1
 16 15  1  0
 16  9  1  0
 17 15  1  0
 18 17  2  0
 19 17  1  0
 20 23  1  0
 20 19  1  0
 20 21  1  6
 22 21  1  0
 23 25  1  0
 24 23  2  0
M  END
$$$$
