HMC.pdb
     RDKit          3D

 25 25  0  0  1  0  0  0  0  0999 V2000
   13.6922  -10.3924  -12.5024 N   0  0  0  0  0  0  0  0  0  0  0  0
   14.4458   -9.2049  -12.8226 C   0  0  1  0  0  0  0  0  0  0  0  0
   13.3864   -8.1315  -13.1279 C   0  0  0  0  0  0  0  0  0  0  0  0
   12.8090   -8.3873  -14.4927 C   0  0  0  0  0  0  0  0  0  0  0  0
   13.3519   -8.0197  -15.7047 C   0  0  0  0  0  0  0  0  0  0  0  0
   12.5367   -8.4186  -16.7047 N   0  0  0  0  0  0  0  0  0  0  0  0
   11.4904   -9.0306  -16.1402 C   0  0  0  0  0  0  0  0  0  0  0  0
   11.6560   -9.0113  -14.7985 N   0  0  0  0  0  0  0  0  0  0  0  0
   15.2120   -8.6807  -11.6562 C   0  0  0  0  0  0  0  0  0  0  0  0
   14.7262   -8.8479  -10.5185 O   0  0  0  0  0  0  0  0  0  0  0  0
   22.1853   -5.8978   -8.9891 C   0  0  0  0  0  0  0  0  0  0  0  0
   21.2007   -6.5374  -10.3606 S   0  0  0  0  0  0  0  0  0  0  0  0
   19.4564   -6.7151   -9.9150 C   0  0  0  0  0  0  0  0  0  0  0  0
   18.6798   -7.3353  -11.0492 C   0  0  0  0  0  0  0  0  0  0  0  0
   17.1955   -7.4473  -10.7040 C   0  0  2  0  0  0  0  0  0  0  0  0
   16.4470   -8.0135  -11.7854 N   0  0  0  0  0  0  0  0  0  0  0  0
   16.7227   -6.0869  -10.3656 C   0  0  0  0  0  0  0  0  0  0  0  0
   16.5726   -5.1845  -11.2453 O   0  0  0  0  0  0  0  0  0  0  0  0
   16.3957   -5.6777   -9.0281 N   0  0  0  0  0  0  0  0  0  0  0  0
   15.9460   -4.3244   -8.7476 C   0  0  1  0  0  0  0  0  0  0  0  0
   15.1686   -4.2832   -7.4372 C   0  0  0  0  0  0  0  0  0  0  0  0
   14.6459   -2.5643   -7.1793 S   0  0  0  0  0  0  0  0  0  0  0  0
   17.1138   -3.4354   -8.5959 C   0  0  0  0  0  0  0  0  0  0  0  0
   18.1343   -3.8316   -7.9929 O   0  0  0  0  0  0  0  0  0  0  0  0
   17.0685   -2.1596   -9.1272 O   0  0  0  0  0  0  0  0  0  0  0  0
  2  1  1  1
  2  9  1  0
  3  4  1  0
  3  2  1  0
  4  5  2  0
  6  5  1  0
  7  6  1  0
  8  7  2  0
  8  4  1  0
  9 10  2  0
 11 12  1  0
 12 13  1  0
 14 13  1  0
 15 14  1  6
 16 15  1  0
 16  9  1  0
 17 15  1  0
 18 17  2  0
 19 17  1  0
 20 23  1  0
 20 19  1  0
 20 21  1  1
 22 21  1  0
 23 25  1  0
 24 23  2  0
M  END
$$$$
