HMC.pdb
     RDKit          3D

 25 25  0  0  1  0  0  0  0  0999 V2000
   22.7415  -12.2235  -18.9969 N   0  0  0  0  0  0  0  0  0  0  0  0
   22.6656  -10.7835  -19.0327 C   0  0  1  0  0  0  0  0  0  0  0  0
   21.8811  -10.4583  -20.3159 C   0  0  0  0  0  0  0  0  0  0  0  0
   22.7205  -10.8233  -21.5091 C   0  0  0  0  0  0  0  0  0  0  0  0
   22.5337  -11.8922  -22.3584 C   0  0  0  0  0  0  0  0  0  0  0  0
   23.4962  -11.8907  -23.3055 N   0  0  0  0  0  0  0  0  0  0  0  0
   24.2847  -10.8380  -23.0646 C   0  0  0  0  0  0  0  0  0  0  0  0
   23.8139  -10.1909  -21.9749 N   0  0  0  0  0  0  0  0  0  0  0  0
   21.8470  -10.2249  -17.9191 C   0  0  0  0  0  0  0  0  0  0  0  0
   20.7371  -10.7497  -17.6931 O   0  0  0  0  0  0  0  0  0  0  0  0
   21.2281   -8.7717  -10.4917 C   0  0  0  0  0  0  0  0  0  0  0  0
   22.2065   -9.2030  -11.9464 S   0  0  0  0  0  0  0  0  0  0  0  0
   21.4196   -8.6493  -13.4784 C   0  0  0  0  0  0  0  0  0  0  0  0
   22.1501   -9.1979  -14.6782 C   0  0  0  0  0  0  0  0  0  0  0  0
   21.5734   -8.6380  -15.9777 C   0  0  2  0  0  0  0  0  0  0  0  0
   22.2713   -9.1429  -17.1215 N   0  0  0  0  0  0  0  0  0  0  0  0
   21.6584   -7.1635  -15.8928 C   0  0  0  0  0  0  0  0  0  0  0  0
   22.7660   -6.5457  -15.9417 O   0  0  0  0  0  0  0  0  0  0  0  0
   20.5074   -6.3159  -15.7510 N   0  0  0  0  0  0  0  0  0  0  0  0
   20.6287   -4.8695  -15.8237 C   0  0  1  0  0  0  0  0  0  0  0  0
   19.3363   -4.2529  -16.3458 C   0  0  0  0  0  0  0  0  0  0  0  0
   19.0976   -4.8641  -18.0381 S   0  0  0  0  0  0  0  0  0  0  0  0
   20.8640   -4.3234  -14.4733 C   0  0  0  0  0  0  0  0  0  0  0  0
   20.3890   -4.8964  -13.4693 O   0  0  0  0  0  0  0  0  0  0  0  0
   21.6151   -3.1714  -14.3290 O   0  0  0  0  0  0  0  0  0  0  0  0
  2  1  1  1
  2  9  1  0
  3  4  1  0
  3  2  1  0
  4  5  2  0
  6  5  1  0
  7  6  1  0
  8  7  2  0
  8  4  1  0
  9 10  2  0
 11 12  1  0
 12 13  1  0
 14 13  1  0
 15 14  1  1
 16 15  1  0
 16  9  1  0
 17 15  1  0
 18 17  2  0
 19 17  1  0
 20 23  1  0
 20 19  1  0
 20 21  1  1
 22 21  1  0
 23 25  1  0
 24 23  2  0
M  END
$$$$
