HMC.pdb
     RDKit          3D

 25 25  0  0  1  0  0  0  0  0999 V2000
   28.1594  -19.6041  -15.9249 N   0  0  0  0  0  0  0  0  0  0  0  0
   27.3544  -19.0227  -14.8788 C   0  0  1  0  0  0  0  0  0  0  0  0
   26.3297  -18.1380  -15.6103 C   0  0  0  0  0  0  0  0  0  0  0  0
   27.0082  -16.8750  -16.0640 C   0  0  0  0  0  0  0  0  0  0  0  0
   27.2058  -15.7287  -15.3252 C   0  0  0  0  0  0  0  0  0  0  0  0
   27.8448  -14.8091  -16.0798 N   0  0  0  0  0  0  0  0  0  0  0  0
   28.0515  -15.3593  -17.2808 C   0  0  0  0  0  0  0  0  0  0  0  0
   27.5439  -16.6123  -17.2708 N   0  0  0  0  0  0  0  0  0  0  0  0
   26.5453  -20.0384  -14.1466 C   0  0  0  0  0  0  0  0  0  0  0  0
   26.1515  -21.0373  -14.7834 O   0  0  0  0  0  0  0  0  0  0  0  0
   26.4078  -19.3542   -7.9597 C   0  0  0  0  0  0  0  0  0  0  0  0
   26.9126  -21.0403   -8.3618 S   0  0  0  0  0  0  0  0  0  0  0  0
   26.0944  -21.6527   -9.8546 C   0  0  0  0  0  0  0  0  0  0  0  0
   25.3788  -20.5314  -10.5651 C   0  0  0  0  0  0  0  0  0  0  0  0
   25.3201  -20.7824  -12.0712 C   0  0  2  0  0  0  0  0  0  0  0  0
   26.2128  -19.9176  -12.7821 N   0  0  0  0  0  0  0  0  0  0  0  0
   23.9158  -20.5833  -12.4919 C   0  0  0  0  0  0  0  0  0  0  0  0
   23.3921  -19.4304  -12.5775 O   0  0  0  0  0  0  0  0  0  0  0  0
   23.0368  -21.6658  -12.8370 N   0  0  0  0  0  0  0  0  0  0  0  0
   21.6993  -21.4116  -13.3455 C   0  0  1  0  0  0  0  0  0  0  0  0
   21.2623  -22.5353  -14.2779 C   0  0  0  0  0  0  0  0  0  0  0  0
   21.8543  -24.0912  -13.5545 S   0  0  0  0  0  0  0  0  0  0  0  0
   20.7418  -21.3720  -12.2235 C   0  0  0  0  0  0  0  0  0  0  0  0
   21.1036  -21.7002  -11.0732 O   0  0  0  0  0  0  0  0  0  0  0  0
   19.4400  -20.9681  -12.4568 O   0  0  0  0  0  0  0  0  0  0  0  0
  2  1  1  6
  2  9  1  0
  3  4  1  0
  3  2  1  0
  4  5  2  0
  6  5  1  0
  7  6  1  0
  8  7  2  0
  8  4  1  0
  9 10  2  0
 11 12  1  0
 12 13  1  0
 14 13  1  0
 15 14  1  1
 16 15  1  0
 16  9  1  0
 17 15  1  0
 18 17  2  0
 19 17  1  0
 20 23  1  0
 20 19  1  0
 20 21  1  6
 22 21  1  0
 23 25  1  0
 24 23  2  0
M  END
$$$$
