HMC.pdb
     RDKit          3D

 25 25  0  0  1  0  0  0  0  0999 V2000
   15.4698   -8.8784  -16.8117 N   0  0  0  0  0  0  0  0  0  0  0  0
   16.8564   -8.5333  -16.6145 C   0  0  1  0  0  0  0  0  0  0  0  0
   17.1752   -7.5165  -17.7245 C   0  0  0  0  0  0  0  0  0  0  0  0
   17.1976   -8.2281  -19.0492 C   0  0  0  0  0  0  0  0  0  0  0  0
   18.1254   -9.1520  -19.4783 C   0  0  0  0  0  0  0  0  0  0  0  0
   17.8127   -9.5603  -20.7270 N   0  0  0  0  0  0  0  0  0  0  0  0
   16.7034   -8.9074  -21.0890 C   0  0  0  0  0  0  0  0  0  0  0  0
   16.3307   -8.0994  -20.0710 N   0  0  0  0  0  0  0  0  0  0  0  0
   17.0892   -7.8045  -15.3350 C   0  0  0  0  0  0  0  0  0  0  0  0
   16.1898   -7.0399  -14.9292 O   0  0  0  0  0  0  0  0  0  0  0  0
   15.6902  -11.0820  -10.6062 C   0  0  0  0  0  0  0  0  0  0  0  0
   17.2061  -10.1035  -10.6692 S   0  0  0  0  0  0  0  0  0  0  0  0
   17.1866   -8.9144  -12.0324 C   0  0  0  0  0  0  0  0  0  0  0  0
   18.5247   -8.2304  -12.1587 C   0  0  0  0  0  0  0  0  0  0  0  0
   18.5406   -7.2658  -13.3436 C   0  0  2  0  0  0  0  0  0  0  0  0
   18.2683   -7.9437  -14.5752 N   0  0  0  0  0  0  0  0  0  0  0  0
   19.8698   -6.6166  -13.3596 C   0  0  0  0  0  0  0  0  0  0  0  0
   20.3056   -5.9429  -12.3763 O   0  0  0  0  0  0  0  0  0  0  0  0
   20.7701   -6.6945  -14.4763 N   0  0  0  0  0  0  0  0  0  0  0  0
   22.0138   -5.9428  -14.4897 C   0  0  1  0  0  0  0  0  0  0  0  0
   22.9594   -6.4980  -15.5482 C   0  0  0  0  0  0  0  0  0  0  0  0
   23.0914   -8.2856  -15.2628 S   0  0  0  0  0  0  0  0  0  0  0  0
   21.7388   -4.5357  -14.8382 C   0  0  0  0  0  0  0  0  0  0  0  0
   20.6609   -4.2205  -15.3865 O   0  0  0  0  0  0  0  0  0  0  0  0
   22.6850   -3.5687  -14.5524 O   0  0  0  0  0  0  0  0  0  0  0  0
  2  1  1  1
  2  9  1  0
  3  4  1  0
  3  2  1  0
  4  5  2  0
  6  5  1  0
  7  6  1  0
  8  7  2  0
  8  4  1  0
  9 10  2  0
 11 12  1  0
 12 13  1  0
 14 13  1  0
 15 14  1  1
 16 15  1  0
 16  9  1  0
 17 15  1  0
 18 17  2  0
 19 17  1  0
 20 23  1  0
 20 19  1  0
 20 21  1  6
 22 21  1  0
 23 25  1  0
 24 23  2  0
M  END
$$$$
