HMC.pdb
     RDKit          3D

 25 25  0  0  1  0  0  0  0  0999 V2000
   21.4820  -10.4370  -16.0819 N   0  0  0  0  0  0  0  0  0  0  0  0
   20.3727   -9.5791  -15.7439 C   0  0  1  0  0  0  0  0  0  0  0  0
   19.1798  -10.5306  -15.5457 C   0  0  0  0  0  0  0  0  0  0  0  0
   18.6552  -10.9458  -16.8926 C   0  0  0  0  0  0  0  0  0  0  0  0
   17.6023  -10.3839  -17.5814 C   0  0  0  0  0  0  0  0  0  0  0  0
   17.4284  -11.0355  -18.7513 N   0  0  0  0  0  0  0  0  0  0  0  0
   18.3551  -11.9977  -18.8083 C   0  0  0  0  0  0  0  0  0  0  0  0
   19.0989  -11.9430  -17.6806 N   0  0  0  0  0  0  0  0  0  0  0  0
   20.5547   -8.8978  -14.4305 C   0  0  0  0  0  0  0  0  0  0  0  0
   21.1312   -9.5306  -13.5220 O   0  0  0  0  0  0  0  0  0  0  0  0
   21.2266   -2.1183  -13.6702 C   0  0  0  0  0  0  0  0  0  0  0  0
   22.0221   -3.5003  -14.5167 S   0  0  0  0  0  0  0  0  0  0  0  0
   21.0294   -5.0099  -14.4260 C   0  0  0  0  0  0  0  0  0  0  0  0
   21.2269   -5.6955  -13.0974 C   0  0  0  0  0  0  0  0  0  0  0  0
   20.2749   -6.8806  -12.9422 C   0  0  2  0  0  0  0  0  0  0  0  0
   20.1085   -7.5848  -14.1779 N   0  0  0  0  0  0  0  0  0  0  0  0
   18.9901   -6.3451  -12.4413 C   0  0  0  0  0  0  0  0  0  0  0  0
   18.0997   -5.8841  -13.2194 O   0  0  0  0  0  0  0  0  0  0  0  0
   18.6448   -6.3037  -11.0475 N   0  0  0  0  0  0  0  0  0  0  0  0
   17.3835   -5.7335  -10.6048 C   0  0  1  0  0  0  0  0  0  0  0  0
   16.3082   -6.8114  -10.5340 C   0  0  0  0  0  0  0  0  0  0  0  0
   14.8349   -6.0496   -9.7968 S   0  0  0  0  0  0  0  0  0  0  0  0
   17.5404   -5.1770   -9.2472 C   0  0  0  0  0  0  0  0  0  0  0  0
   18.4387   -5.6037   -8.4904 O   0  0  0  0  0  0  0  0  0  0  0  0
   16.6839   -4.1789   -8.8202 O   0  0  0  0  0  0  0  0  0  0  0  0
  2  1  1  1
  2  9  1  0
  3  4  1  0
  3  2  1  0
  4  5  2  0
  6  5  1  0
  7  6  1  0
  8  7  2  0
  8  4  1  0
  9 10  2  0
 11 12  1  0
 12 13  1  0
 14 13  1  0
 15 14  1  6
 16 15  1  0
 16  9  1  0
 17 15  1  0
 18 17  2  0
 19 17  1  0
 20 23  1  0
 20 19  1  0
 20 21  1  1
 22 21  1  0
 23 25  1  0
 24 23  2  0
M  END
$$$$
