HMC.pdb
     RDKit          3D

 25 25  0  0  1  0  0  0  0  0999 V2000
   22.3304  -15.1004  -16.5112 N   0  0  0  0  0  0  0  0  0  0  0  0
   21.7846  -13.8534  -16.9885 C   0  0  1  0  0  0  0  0  0  0  0  0
   20.2699  -13.9609  -16.7398 C   0  0  0  0  0  0  0  0  0  0  0  0
   19.6919  -14.9890  -17.6728 C   0  0  0  0  0  0  0  0  0  0  0  0
   19.8744  -15.0668  -19.0364 C   0  0  0  0  0  0  0  0  0  0  0  0
   19.1885  -16.1226  -19.5247 N   0  0  0  0  0  0  0  0  0  0  0  0
   18.5781  -16.7091  -18.4897 C   0  0  0  0  0  0  0  0  0  0  0  0
   18.8837  -16.0211  -17.3666 N   0  0  0  0  0  0  0  0  0  0  0  0
   22.2339  -12.6844  -16.1799 C   0  0  0  0  0  0  0  0  0  0  0  0
   22.2937  -12.8227  -14.9407 O   0  0  0  0  0  0  0  0  0  0  0  0
   28.4195  -11.7842  -16.0304 C   0  0  0  0  0  0  0  0  0  0  0  0
   27.1820  -10.6207  -16.6424 S   0  0  0  0  0  0  0  0  0  0  0  0
   25.5285  -11.0010  -16.0148 C   0  0  0  0  0  0  0  0  0  0  0  0
   24.5305   -9.9777  -16.4956 C   0  0  0  0  0  0  0  0  0  0  0  0
   23.1171  -10.3263  -16.0314 C   0  0  2  0  0  0  0  0  0  0  0  0
   22.5899  -11.4461  -16.7517 N   0  0  0  0  0  0  0  0  0  0  0  0
   22.2861   -9.1166  -16.2179 C   0  0  0  0  0  0  0  0  0  0  0  0
   21.8386   -8.7717  -17.3543 O   0  0  0  0  0  0  0  0  0  0  0  0
   21.9183   -8.2410  -15.1401 N   0  0  0  0  0  0  0  0  0  0  0  0
   21.0968   -7.0658  -15.3769 C   0  0  1  0  0  0  0  0  0  0  0  0
   20.2093   -6.7853  -14.1700 C   0  0  0  0  0  0  0  0  0  0  0  0
   19.1402   -8.2346  -13.9440 S   0  0  0  0  0  0  0  0  0  0  0  0
   21.9626   -5.8868  -15.5713 C   0  0  0  0  0  0  0  0  0  0  0  0
   23.1972   -5.9753  -15.3985 O   0  0  0  0  0  0  0  0  0  0  0  0
   21.3950   -4.6830  -15.9465 O   0  0  0  0  0  0  0  0  0  0  0  0
  2  1  1  1
  2  9  1  0
  3  4  1  0
  3  2  1  0
  4  5  2  0
  6  5  1  0
  7  6  1  0
  8  7  2  0
  8  4  1  0
  9 10  2  0
 11 12  1  0
 12 13  1  0
 14 13  1  0
 15 14  1  6
 16 15  1  0
 16  9  1  0
 17 15  1  0
 18 17  2  0
 19 17  1  0
 20 23  1  0
 20 19  1  0
 20 21  1  1
 22 21  1  0
 23 25  1  0
 24 23  2  0
M  END
$$$$
