VYY.pdb
     RDKit          3D

 32 33  0  0  1  0  0  0  0  0999 V2000
   20.5001  -12.7439  -15.5456 C   0  0  0  0  0  0  0  0  0  0  0  0
   19.3627  -12.0044  -16.1715 C   0  0  1  0  0  0  0  0  0  0  0  0
   18.1535  -12.9063  -16.1666 C   0  0  0  0  0  0  0  0  0  0  0  0
   19.0068  -10.7167  -15.5056 C   0  0  2  0  0  0  0  0  0  0  0  0
   17.8044  -10.1569  -16.0589 N   0  0  0  0  0  0  0  0  0  0  0  0
   20.1290   -9.7377  -15.6542 C   0  0  0  0  0  0  0  0  0  0  0  0
   21.1987  -10.0072  -15.0648 O   0  0  0  0  0  0  0  0  0  0  0  0
   17.4123   -6.9665  -21.8147 O   0  0  0  0  0  0  0  0  0  0  0  0
   18.4474   -7.1716  -20.8914 C   0  0  0  0  0  0  0  0  0  0  0  0
   18.2670   -7.9553  -19.7716 C   0  0  0  0  0  0  0  0  0  0  0  0
   19.2923   -8.1481  -18.8732 C   0  0  0  0  0  0  0  0  0  0  0  0
   20.5530   -7.5635  -19.0531 C   0  0  0  0  0  0  0  0  0  0  0  0
   21.6363   -7.7648  -18.0703 C   0  0  0  0  0  0  0  0  0  0  0  0
   21.1426   -7.6620  -16.6750 C   0  0  2  0  0  0  0  0  0  0  0  0
   20.0329   -8.5610  -16.4075 N   0  0  0  0  0  0  0  0  0  0  0  0
   20.7694   -6.3024  -16.2849 C   0  0  0  0  0  0  0  0  0  0  0  0
   19.5729   -5.9270  -16.1923 O   0  0  0  0  0  0  0  0  0  0  0  0
   20.6794   -6.7907  -20.1869 C   0  0  0  0  0  0  0  0  0  0  0  0
   19.6639   -6.5895  -21.0928 C   0  0  0  0  0  0  0  0  0  0  0  0
   20.4839    1.3387  -12.0202 O   0  0  0  0  0  0  0  0  0  0  0  0
   20.7484    0.0602  -12.5426 C   0  0  0  0  0  0  0  0  0  0  0  0
   21.9752   -0.2333  -13.0964 C   0  0  0  0  0  0  0  0  0  0  0  0
   22.2316   -1.4927  -13.6093 C   0  0  0  0  0  0  0  0  0  0  0  0
   21.2882   -2.4951  -13.5906 C   0  0  0  0  0  0  0  0  0  0  0  0
   21.5390   -3.8260  -14.1314 C   0  0  0  0  0  0  0  0  0  0  0  0
   21.4144   -3.9369  -15.6323 C   0  0  2  0  0  0  0  0  0  0  0  0
   21.7340   -5.2941  -15.9785 N   0  0  0  0  0  0  0  0  0  0  0  0
   22.1706   -2.9417  -16.3846 C   0  0  0  0  0  0  0  0  0  0  0  0
   21.6394   -1.7224  -16.7611 O   0  0  0  0  0  0  0  0  0  0  0  0
   20.0721   -2.1747  -13.0320 C   0  0  0  0  0  0  0  0  0  0  0  0
   19.7943   -0.9295  -12.5158 C   0  0  0  0  0  0  0  0  0  0  0  0
   23.3569   -3.1842  -16.7146 O   0  0  0  0  0  0  0  0  0  0  0  0
  2  1  1  1
  2  3  1  0
  4  6  1  0
  4  2  1  0
  4  5  1  6
  6  7  2  0
  8  9  1  0
  9 10  2  0
  9 19  1  0
 10 11  1  0
 11 12  2  0
 12 13  1  0
 14 13  1  6
 15 14  1  0
 15  6  1  0
 16 17  2  0
 16 14  1  0
 18 12  1  0
 19 18  2  0
 20 21  1  0
 21 22  2  0
 21 31  1  0
 22 23  1  0
 23 24  2  0
 24 25  1  0
 26 25  1  1
 26 28  1  0
 26 27  1  0
 27 16  1  0
 28 29  1  0
 30 24  1  0
 31 30  2  0
 32 28  2  0
M  END
$$$$
