VYY.pdb
     RDKit          3D

 32 33  0  0  1  0  0  0  0  0999 V2000
   21.6544   -4.2536  -21.2617 C   0  0  0  0  0  0  0  0  0  0  0  0
   22.4760   -3.1865  -21.9089 C   0  0  1  0  0  0  0  0  0  0  0  0
   22.2478   -3.2534  -23.3985 C   0  0  0  0  0  0  0  0  0  0  0  0
   22.1890   -1.7992  -21.4385 C   0  0  2  0  0  0  0  0  0  0  0  0
   23.1002   -0.8515  -22.0191 N   0  0  0  0  0  0  0  0  0  0  0  0
   22.2846   -1.7358  -19.9464 C   0  0  0  0  0  0  0  0  0  0  0  0
   23.4272   -1.6002  -19.4563 O   0  0  0  0  0  0  0  0  0  0  0  0
   22.4482    4.4923  -18.8621 O   0  0  0  0  0  0  0  0  0  0  0  0
   21.9461    3.2500  -18.4490 C   0  0  0  0  0  0  0  0  0  0  0  0
   20.7841    2.7317  -18.9798 C   0  0  0  0  0  0  0  0  0  0  0  0
   20.3027    1.5104  -18.5649 C   0  0  0  0  0  0  0  0  0  0  0  0
   20.9639    0.7457  -17.5947 C   0  0  0  0  0  0  0  0  0  0  0  0
   20.4241   -0.5536  -17.1469 C   0  0  0  0  0  0  0  0  0  0  0  0
   21.2325   -1.6910  -17.6508 C   0  0  2  0  0  0  0  0  0  0  0  0
   21.1743   -1.8201  -19.0969 N   0  0  0  0  0  0  0  0  0  0  0  0
   20.8871   -2.9725  -17.0357 C   0  0  0  0  0  0  0  0  0  0  0  0
   19.9596   -3.7041  -17.4666 O   0  0  0  0  0  0  0  0  0  0  0  0
   22.1188    1.3092  -17.0974 C   0  0  0  0  0  0  0  0  0  0  0  0
   22.6114    2.5281  -17.5026 C   0  0  0  0  0  0  0  0  0  0  0  0
   22.3361  -10.4135  -12.3270 O   0  0  0  0  0  0  0  0  0  0  0  0
   22.3985   -9.1331  -12.9052 C   0  0  0  0  0  0  0  0  0  0  0  0
   21.8812   -8.0385  -12.2479 C   0  0  0  0  0  0  0  0  0  0  0  0
   21.9447   -6.7803  -12.8202 C   0  0  0  0  0  0  0  0  0  0  0  0
   22.5184   -6.5667  -14.0533 C   0  0  0  0  0  0  0  0  0  0  0  0
   22.5892   -5.2489  -14.6739 C   0  0  0  0  0  0  0  0  0  0  0  0
   21.2968   -4.7637  -15.2861 C   0  0  2  0  0  0  0  0  0  0  0  0
   21.5755   -3.4939  -15.8978 N   0  0  0  0  0  0  0  0  0  0  0  0
   20.1576   -4.7430  -14.3751 C   0  0  0  0  0  0  0  0  0  0  0  0
   19.2698   -5.7962  -14.2593 O   0  0  0  0  0  0  0  0  0  0  0  0
   23.0269   -7.6770  -14.6874 C   0  0  0  0  0  0  0  0  0  0  0  0
   22.9753   -8.9377  -14.1380 C   0  0  0  0  0  0  0  0  0  0  0  0
   19.9569   -3.7337  -13.6567 O   0  0  0  0  0  0  0  0  0  0  0  0
  2  1  1  1
  2  3  1  0
  4  6  1  0
  4  2  1  0
  4  5  1  6
  6  7  2  0
  8  9  1  0
  9 10  2  0
  9 19  1  0
 10 11  1  0
 11 12  2  0
 12 13  1  0
 14 13  1  1
 15 14  1  0
 15  6  1  0
 16 17  2  0
 16 14  1  0
 18 12  1  0
 19 18  2  0
 20 21  1  0
 21 22  2  0
 21 31  1  0
 22 23  1  0
 23 24  2  0
 24 25  1  0
 26 25  1  1
 26 28  1  0
 26 27  1  0
 27 16  1  0
 28 29  1  0
 30 24  1  0
 31 30  2  0
 32 28  2  0
M  END
$$$$
