VYY.pdb
     RDKit          3D

 32 33  0  0  1  0  0  0  0  0999 V2000
   26.9404  -17.6951  -14.1179 C   0  0  0  0  0  0  0  0  0  0  0  0
   27.5864  -18.5446  -15.1636 C   0  0  1  0  0  0  0  0  0  0  0  0
   28.6369  -17.7170  -15.8614 C   0  0  0  0  0  0  0  0  0  0  0  0
   28.2186  -19.7973  -14.6544 C   0  0  2  0  0  0  0  0  0  0  0  0
   28.9057  -20.4997  -15.7032 N   0  0  0  0  0  0  0  0  0  0  0  0
   27.1762  -20.6883  -14.0550 C   0  0  0  0  0  0  0  0  0  0  0  0
   26.3992  -21.2652  -14.8472 O   0  0  0  0  0  0  0  0  0  0  0  0
   26.7619  -18.7303   -6.4096 O   0  0  0  0  0  0  0  0  0  0  0  0
   26.6576  -19.6118   -7.4950 C   0  0  0  0  0  0  0  0  0  0  0  0
   25.4312  -20.0184   -7.9757 C   0  0  0  0  0  0  0  0  0  0  0  0
   25.3437  -20.8843   -9.0424 C   0  0  0  0  0  0  0  0  0  0  0  0
   26.4844  -21.3873   -9.6822 C   0  0  0  0  0  0  0  0  0  0  0  0
   26.3735  -22.3303  -10.8130 C   0  0  0  0  0  0  0  0  0  0  0  0
   25.9564  -21.6479  -12.0626 C   0  0  2  0  0  0  0  0  0  0  0  0
   27.0384  -20.8976  -12.6771 N   0  0  0  0  0  0  0  0  0  0  0  0
   24.7960  -20.7735  -11.8926 C   0  0  0  0  0  0  0  0  0  0  0  0
   24.8629  -19.6630  -11.3065 O   0  0  0  0  0  0  0  0  0  0  0  0
   27.6833  -20.9499   -9.1626 C   0  0  0  0  0  0  0  0  0  0  0  0
   27.7855  -20.0850   -8.0977 C   0  0  0  0  0  0  0  0  0  0  0  0
   22.5401  -19.1142  -18.5138 O   0  0  0  0  0  0  0  0  0  0  0  0
   22.5376  -19.0865  -17.1079 C   0  0  0  0  0  0  0  0  0  0  0  0
   21.3796  -19.3278  -16.4016 C   0  0  0  0  0  0  0  0  0  0  0  0
   21.3813  -19.2996  -15.0182 C   0  0  0  0  0  0  0  0  0  0  0  0
   22.5216  -19.0333  -14.2943 C   0  0  0  0  0  0  0  0  0  0  0  0
   22.5407  -18.9942  -12.8366 C   0  0  0  0  0  0  0  0  0  0  0  0
   22.3131  -20.3256  -12.1613 C   0  0  2  0  0  0  0  0  0  0  0  0
   23.4960  -21.1116  -12.3788 N   0  0  0  0  0  0  0  0  0  0  0  0
   21.0771  -21.0011  -12.5407 C   0  0  0  0  0  0  0  0  0  0  0  0
   21.0575  -22.1974  -13.2330 O   0  0  0  0  0  0  0  0  0  0  0  0
   23.6634  -18.7960  -15.0247 C   0  0  0  0  0  0  0  0  0  0  0  0
   23.6859  -18.8188  -16.4005 C   0  0  0  0  0  0  0  0  0  0  0  0
   19.9725  -20.4899  -12.2349 O   0  0  0  0  0  0  0  0  0  0  0  0
  2  1  1  1
  2  3  1  0
  4  6  1  0
  4  2  1  0
  4  5  1  6
  6  7  2  0
  8  9  1  0
  9 10  2  0
  9 19  1  0
 10 11  1  0
 11 12  2  0
 12 13  1  0
 14 13  1  1
 15 14  1  0
 15  6  1  0
 16 17  2  0
 16 14  1  0
 18 12  1  0
 19 18  2  0
 20 21  1  0
 21 22  2  0
 21 31  1  0
 22 23  1  0
 23 24  2  0
 24 25  1  0
 26 25  1  6
 26 28  1  0
 26 27  1  0
 27 16  1  0
 28 29  1  0
 30 24  1  0
 31 30  2  0
 32 28  2  0
M  END
$$$$
