VYY.pdb
     RDKit          3D

 32 33  0  0  1  0  0  0  0  0999 V2000
   27.7650  -18.6920  -16.5459 C   0  0  0  0  0  0  0  0  0  0  0  0
   26.5086  -19.4756  -16.3468 C   0  0  1  0  0  0  0  0  0  0  0  0
   25.4541  -18.9197  -17.2711 C   0  0  0  0  0  0  0  0  0  0  0  0
   26.6372  -20.9430  -16.5886 C   0  0  2  0  0  0  0  0  0  0  0  0
   26.8770  -21.2248  -17.9773 N   0  0  0  0  0  0  0  0  0  0  0  0
   25.3929  -21.6450  -16.1431 C   0  0  0  0  0  0  0  0  0  0  0  0
   24.4719  -21.7545  -16.9823 O   0  0  0  0  0  0  0  0  0  0  0  0
   25.2549  -27.6754  -18.3490 O   0  0  0  0  0  0  0  0  0  0  0  0
   25.0051  -26.8161  -17.2695 C   0  0  0  0  0  0  0  0  0  0  0  0
   26.0341  -26.2165  -16.5750 C   0  0  0  0  0  0  0  0  0  0  0  0
   25.7742  -25.3747  -15.5170 C   0  0  0  0  0  0  0  0  0  0  0  0
   24.4664  -25.0913  -15.1013 C   0  0  0  0  0  0  0  0  0  0  0  0
   24.2053  -24.2012  -13.9526 C   0  0  0  0  0  0  0  0  0  0  0  0
   23.9990  -22.7952  -14.3788 C   0  0  2  0  0  0  0  0  0  0  0  0
   25.2212  -22.1714  -14.8567 N   0  0  0  0  0  0  0  0  0  0  0  0
   23.3973  -21.9527  -13.3454 C   0  0  0  0  0  0  0  0  0  0  0  0
   24.0766  -21.3810  -12.4549 O   0  0  0  0  0  0  0  0  0  0  0  0
   23.4766  -25.7159  -15.8286 C   0  0  0  0  0  0  0  0  0  0  0  0
   23.7216  -26.5590  -16.8876 C   0  0  0  0  0  0  0  0  0  0  0  0
   20.4518  -17.2588  -17.7677 O   0  0  0  0  0  0  0  0  0  0  0  0
   20.8390  -17.7896  -16.5244 C   0  0  0  0  0  0  0  0  0  0  0  0
   22.0755  -18.3756  -16.3641 C   0  0  0  0  0  0  0  0  0  0  0  0
   22.4528  -18.8966  -15.1390 C   0  0  0  0  0  0  0  0  0  0  0  0
   21.6238  -18.8546  -14.0407 C   0  0  0  0  0  0  0  0  0  0  0  0
   22.0027  -19.4034  -12.7437 C   0  0  0  0  0  0  0  0  0  0  0  0
   21.3767  -20.7365  -12.4095 C   0  0  2  0  0  0  0  0  0  0  0  0
   21.9913  -21.7127  -13.2660 N   0  0  0  0  0  0  0  0  0  0  0  0
   19.9184  -20.7542  -12.4450 C   0  0  0  0  0  0  0  0  0  0  0  0
   19.1369  -20.1015  -11.5101 O   0  0  0  0  0  0  0  0  0  0  0  0
   20.3953  -18.2641  -14.2289 C   0  0  0  0  0  0  0  0  0  0  0  0
   19.9983  -17.7391  -15.4375 C   0  0  0  0  0  0  0  0  0  0  0  0
   19.3283  -21.3845  -13.3558 O   0  0  0  0  0  0  0  0  0  0  0  0
  2  1  1  6
  2  3  1  0
  4  6  1  0
  4  2  1  0
  4  5  1  6
  6  7  2  0
  8  9  1  0
  9 10  2  0
  9 19  1  0
 10 11  1  0
 11 12  2  0
 12 13  1  0
 14 13  1  1
 15 14  1  0
 15  6  1  0
 16 17  2  0
 16 14  1  0
 18 12  1  0
 19 18  2  0
 20 21  1  0
 21 22  2  0
 21 31  1  0
 22 23  1  0
 23 24  2  0
 24 25  1  0
 26 25  1  6
 26 28  1  0
 26 27  1  0
 27 16  1  0
 28 29  1  0
 30 24  1  0
 31 30  2  0
 32 28  2  0
M  END
$$$$
