VYY.pdb
     RDKit          3D

 32 33  0  0  1  0  0  0  0  0999 V2000
   36.1416   -5.8992  -14.8408 C   0  0  0  0  0  0  0  0  0  0  0  0
   34.8001   -5.7300  -15.4766 C   0  0  1  0  0  0  0  0  0  0  0  0
   34.9997   -5.1366  -16.8491 C   0  0  0  0  0  0  0  0  0  0  0  0
   34.0017   -6.9847  -15.6049 C   0  0  2  0  0  0  0  0  0  0  0  0
   34.6550   -7.9345  -16.4631 N   0  0  0  0  0  0  0  0  0  0  0  0
   32.6426   -6.6720  -16.1476 C   0  0  0  0  0  0  0  0  0  0  0  0
   31.8998   -5.9568  -15.4398 O   0  0  0  0  0  0  0  0  0  0  0  0
   25.5904   -4.1627  -20.4247 O   0  0  0  0  0  0  0  0  0  0  0  0
   26.8589   -4.4705  -19.9126 C   0  0  0  0  0  0  0  0  0  0  0  0
   27.1995   -4.1742  -18.6100 C   0  0  0  0  0  0  0  0  0  0  0  0
   28.4489   -4.4823  -18.1204 C   0  0  0  0  0  0  0  0  0  0  0  0
   29.4216   -5.1045  -18.9142 C   0  0  0  0  0  0  0  0  0  0  0  0
   30.7633   -5.4109  -18.3794 C   0  0  0  0  0  0  0  0  0  0  0  0
   30.8752   -6.8252  -17.9452 C   0  0  2  0  0  0  0  0  0  0  0  0
   32.1795   -7.1359  -17.3853 N   0  0  0  0  0  0  0  0  0  0  0  0
   30.5590   -7.7880  -19.0001 C   0  0  0  0  0  0  0  0  0  0  0  0
   31.3620   -8.0683  -19.9263 O   0  0  0  0  0  0  0  0  0  0  0  0
   29.0298   -5.3782  -20.2066 C   0  0  0  0  0  0  0  0  0  0  0  0
   27.7853   -5.0761  -20.7090 C   0  0  0  0  0  0  0  0  0  0  0  0
   28.1555  -14.9619  -23.2938 O   0  0  0  0  0  0  0  0  0  0  0  0
   28.4457  -13.9282  -22.3856 C   0  0  0  0  0  0  0  0  0  0  0  0
   27.5300  -13.5580  -21.4252 C   0  0  0  0  0  0  0  0  0  0  0  0
   27.8194  -12.5403  -20.5334 C   0  0  0  0  0  0  0  0  0  0  0  0
   29.0164  -11.8611  -20.5635 C   0  0  0  0  0  0  0  0  0  0  0  0
   29.3361  -10.7827  -19.6352 C   0  0  0  0  0  0  0  0  0  0  0  0
   28.9422   -9.4022  -20.1038 C   0  0  2  0  0  0  0  0  0  0  0  0
   29.3140   -8.4857  -19.0616 N   0  0  0  0  0  0  0  0  0  0  0  0
   27.5544   -9.2748  -20.5349 C   0  0  0  0  0  0  0  0  0  0  0  0
   27.1247   -9.6358  -21.7982 O   0  0  0  0  0  0  0  0  0  0  0  0
   29.9122  -12.2510  -21.5324 C   0  0  0  0  0  0  0  0  0  0  0  0
   29.6467  -13.2601  -22.4298 C   0  0  0  0  0  0  0  0  0  0  0  0
   26.6976   -8.8190  -19.7392 O   0  0  0  0  0  0  0  0  0  0  0  0
  2  1  1  6
  2  3  1  0
  4  6  1  0
  4  2  1  0
  4  5  1  6
  6  7  2  0
  8  9  1  0
  9 10  2  0
  9 19  1  0
 10 11  1  0
 11 12  2  0
 12 13  1  0
 14 13  1  6
 15 14  1  0
 15  6  1  0
 16 17  2  0
 16 14  1  0
 18 12  1  0
 19 18  2  0
 20 21  1  0
 21 22  2  0
 21 31  1  0
 22 23  1  0
 23 24  2  0
 24 25  1  0
 26 25  1  1
 26 28  1  0
 26 27  1  0
 27 16  1  0
 28 29  1  0
 30 24  1  0
 31 30  2  0
 32 28  2  0
M  END
$$$$
