VYY.pdb
     RDKit          3D

 32 33  0  0  1  0  0  0  0  0999 V2000
   27.8079  -21.1667  -19.8699 C   0  0  0  0  0  0  0  0  0  0  0  0
   27.1906  -21.4715  -18.5439 C   0  0  1  0  0  0  0  0  0  0  0  0
   26.1332  -22.5281  -18.7472 C   0  0  0  0  0  0  0  0  0  0  0  0
   28.1465  -21.9405  -17.4977 C   0  0  2  0  0  0  0  0  0  0  0  0
   28.7151  -23.2145  -17.8425 N   0  0  0  0  0  0  0  0  0  0  0  0
   27.4484  -22.0448  -16.1780 C   0  0  0  0  0  0  0  0  0  0  0  0
   27.1334  -23.1920  -15.7920 O   0  0  0  0  0  0  0  0  0  0  0  0
   24.7585  -20.5606   -7.9186 O   0  0  0  0  0  0  0  0  0  0  0  0
   25.4045  -20.5741   -9.1630 C   0  0  0  0  0  0  0  0  0  0  0  0
   25.9921  -21.7198   -9.6555 C   0  0  0  0  0  0  0  0  0  0  0  0
   26.6231  -21.7187  -10.8792 C   0  0  0  0  0  0  0  0  0  0  0  0
   26.6966  -20.5659  -11.6724 C   0  0  0  0  0  0  0  0  0  0  0  0
   27.3935  -20.5767  -12.9740 C   0  0  0  0  0  0  0  0  0  0  0  0
   26.5012  -21.0163  -14.0748 C   0  0  2  0  0  0  0  0  0  0  0  0
   27.1408  -20.9378  -15.3772 N   0  0  0  0  0  0  0  0  0  0  0  0
   25.2268  -20.2994  -14.1170 C   0  0  0  0  0  0  0  0  0  0  0  0
   25.1288  -19.1123  -14.5200 O   0  0  0  0  0  0  0  0  0  0  0  0
   26.0940  -19.4499  -11.1338 C   0  0  0  0  0  0  0  0  0  0  0  0
   25.4602  -19.4366   -9.9129 C   0  0  0  0  0  0  0  0  0  0  0  0
   21.4280  -23.9709  -18.7137 O   0  0  0  0  0  0  0  0  0  0  0  0
   21.6650  -22.9290  -17.7996 C   0  0  0  0  0  0  0  0  0  0  0  0
   20.7407  -22.6250  -16.8244 C   0  0  0  0  0  0  0  0  0  0  0  0
   20.9777  -21.5989  -15.9268 C   0  0  0  0  0  0  0  0  0  0  0  0
   22.1296  -20.8459  -15.9655 C   0  0  0  0  0  0  0  0  0  0  0  0
   22.3936  -19.7576  -15.0313 C   0  0  0  0  0  0  0  0  0  0  0  0
   22.7395  -20.1939  -13.6276 C   0  0  2  0  0  0  0  0  0  0  0  0
   23.9937  -20.8906  -13.7041 N   0  0  0  0  0  0  0  0  0  0  0  0
   21.6901  -20.9404  -12.9423 C   0  0  0  0  0  0  0  0  0  0  0  0
   21.8635  -22.2344  -12.4882 O   0  0  0  0  0  0  0  0  0  0  0  0
   23.0351  -21.1708  -16.9493 C   0  0  0  0  0  0  0  0  0  0  0  0
   22.8212  -22.1867  -17.8527 C   0  0  0  0  0  0  0  0  0  0  0  0
   20.5732  -20.4021  -12.7471 O   0  0  0  0  0  0  0  0  0  0  0  0
  2  1  1  6
  2  3  1  0
  4  6  1  0
  4  2  1  0
  4  5  1  6
  6  7  2  0
  8  9  1  0
  9 10  2  0
  9 19  1  0
 10 11  1  0
 11 12  2  0
 12 13  1  0
 14 13  1  1
 15 14  1  0
 15  6  1  0
 16 17  2  0
 16 14  1  0
 18 12  1  0
 19 18  2  0
 20 21  1  0
 21 22  2  0
 21 31  1  0
 22 23  1  0
 23 24  2  0
 24 25  1  0
 26 25  1  6
 26 28  1  0
 26 27  1  0
 27 16  1  0
 28 29  1  0
 30 24  1  0
 31 30  2  0
 32 28  2  0
M  END
$$$$
