VYY.pdb
     RDKit          3D

 32 33  0  0  1  0  0  0  0  0999 V2000
   28.2265  -18.4305  -16.7200 C   0  0  0  0  0  0  0  0  0  0  0  0
   27.3934  -19.1272  -15.6938 C   0  0  1  0  0  0  0  0  0  0  0  0
   26.1377  -19.6258  -16.3646 C   0  0  0  0  0  0  0  0  0  0  0  0
   28.0637  -20.2733  -15.0115 C   0  0  2  0  0  0  0  0  0  0  0  0
   28.2693  -21.3717  -15.9152 N   0  0  0  0  0  0  0  0  0  0  0  0
   27.2384  -20.7292  -13.8494 C   0  0  0  0  0  0  0  0  0  0  0  0
   26.5125  -21.7319  -14.0277 O   0  0  0  0  0  0  0  0  0  0  0  0
   32.2956  -22.4229   -9.7414 O   0  0  0  0  0  0  0  0  0  0  0  0
   31.0118  -21.8707   -9.8552 C   0  0  0  0  0  0  0  0  0  0  0  0
   30.7452  -20.8472  -10.7394 C   0  0  0  0  0  0  0  0  0  0  0  0
   29.4798  -20.3145  -10.8407 C   0  0  0  0  0  0  0  0  0  0  0  0
   28.4155  -20.7825  -10.0586 C   0  0  0  0  0  0  0  0  0  0  0  0
   27.0685  -20.1874  -10.1658 C   0  0  0  0  0  0  0  0  0  0  0  0
   26.4294  -20.4979  -11.4681 C   0  0  2  0  0  0  0  0  0  0  0  0
   27.2453  -20.0948  -12.6008 N   0  0  0  0  0  0  0  0  0  0  0  0
   25.0881  -19.9320  -11.6115 C   0  0  0  0  0  0  0  0  0  0  0  0
   24.8866  -18.7529  -11.9991 O   0  0  0  0  0  0  0  0  0  0  0  0
   28.7360  -21.8049   -9.1922 C   0  0  0  0  0  0  0  0  0  0  0  0
   29.9956  -22.3467   -9.0806 C   0  0  0  0  0  0  0  0  0  0  0  0
   22.1082  -24.6783  -16.1858 O   0  0  0  0  0  0  0  0  0  0  0  0
   22.1935  -23.5086  -15.4099 C   0  0  0  0  0  0  0  0  0  0  0  0
   23.3683  -22.7922  -15.3441 C   0  0  0  0  0  0  0  0  0  0  0  0
   23.4481  -21.6417  -14.5794 C   0  0  0  0  0  0  0  0  0  0  0  0
   22.3747  -21.1667  -13.8601 C   0  0  0  0  0  0  0  0  0  0  0  0
   22.4422  -19.9595  -13.0448 C   0  0  0  0  0  0  0  0  0  0  0  0
   22.5657  -20.2010  -11.5593 C   0  0  2  0  0  0  0  0  0  0  0  0
   23.9017  -20.6736  -11.3228 N   0  0  0  0  0  0  0  0  0  0  0  0
   21.5281  -21.0535  -10.9893 C   0  0  0  0  0  0  0  0  0  0  0  0
   21.8013  -22.2658  -10.3839 O   0  0  0  0  0  0  0  0  0  0  0  0
   21.2142  -21.9015  -13.9436 C   0  0  0  0  0  0  0  0  0  0  0  0
   21.1112  -23.0483  -14.6974 C   0  0  0  0  0  0  0  0  0  0  0  0
   20.3285  -20.6884  -11.0411 O   0  0  0  0  0  0  0  0  0  0  0  0
  2  1  1  6
  2  3  1  0
  4  6  1  0
  4  2  1  0
  4  5  1  6
  6  7  2  0
  8  9  1  0
  9 10  2  0
  9 19  1  0
 10 11  1  0
 11 12  2  0
 12 13  1  0
 14 13  1  1
 15 14  1  0
 15  6  1  0
 16 17  2  0
 16 14  1  0
 18 12  1  0
 19 18  2  0
 20 21  1  0
 21 22  2  0
 21 31  1  0
 22 23  1  0
 23 24  2  0
 24 25  1  0
 26 25  1  6
 26 28  1  0
 26 27  1  0
 27 16  1  0
 28 29  1  0
 30 24  1  0
 31 30  2  0
 32 28  2  0
M  END
$$$$
