VYY.pdb
     RDKit          3D

 32 33  0  0  1  0  0  0  0  0999 V2000
   29.9243  -22.3440  -19.6425 C   0  0  0  0  0  0  0  0  0  0  0  0
   29.2538  -22.5461  -18.3226 C   0  0  1  0  0  0  0  0  0  0  0  0
   30.2431  -22.2108  -17.2343 C   0  0  0  0  0  0  0  0  0  0  0  0
   28.0161  -21.7377  -18.1153 C   0  0  2  0  0  0  0  0  0  0  0  0
   28.2554  -20.3425  -18.3636 N   0  0  0  0  0  0  0  0  0  0  0  0
   27.5165  -21.9184  -16.7163 C   0  0  0  0  0  0  0  0  0  0  0  0
   27.1368  -23.0655  -16.3932 O   0  0  0  0  0  0  0  0  0  0  0  0
   25.2420  -20.7631   -8.2765 O   0  0  0  0  0  0  0  0  0  0  0  0
   25.8049  -20.5973   -9.5500 C   0  0  0  0  0  0  0  0  0  0  0  0
   25.3254  -19.6508  -10.4302 C   0  0  0  0  0  0  0  0  0  0  0  0
   25.8878  -19.4988  -11.6776 C   0  0  0  0  0  0  0  0  0  0  0  0
   26.9618  -20.2903  -12.1061 C   0  0  0  0  0  0  0  0  0  0  0  0
   27.5413  -20.1275  -13.4543 C   0  0  0  0  0  0  0  0  0  0  0  0
   26.8775  -21.0039  -14.4505 C   0  0  2  0  0  0  0  0  0  0  0  0
   27.4580  -20.8814  -15.7768 N   0  0  0  0  0  0  0  0  0  0  0  0
   25.4309  -20.8036  -14.5345 C   0  0  0  0  0  0  0  0  0  0  0  0
   24.9137  -19.8443  -15.1618 O   0  0  0  0  0  0  0  0  0  0  0  0
   27.4017  -21.2197  -11.1888 C   0  0  0  0  0  0  0  0  0  0  0  0
   26.8495  -21.3824   -9.9394 C   0  0  0  0  0  0  0  0  0  0  0  0
   16.7605  -22.9137  -13.9254 O   0  0  0  0  0  0  0  0  0  0  0  0
   18.1666  -22.8986  -13.9301 C   0  0  0  0  0  0  0  0  0  0  0  0
   18.8644  -22.7312  -15.1061 C   0  0  0  0  0  0  0  0  0  0  0  0
   20.2480  -22.7169  -15.1064 C   0  0  0  0  0  0  0  0  0  0  0  0
   20.9804  -22.8670  -13.9505 C   0  0  0  0  0  0  0  0  0  0  0  0
   22.4387  -22.8600  -13.9328 C   0  0  0  0  0  0  0  0  0  0  0  0
   23.0682  -21.4875  -13.9120 C   0  0  2  0  0  0  0  0  0  0  0  0
   24.4918  -21.6811  -13.9110 N   0  0  0  0  0  0  0  0  0  0  0  0
   22.5906  -20.6110  -12.8481 C   0  0  0  0  0  0  0  0  0  0  0  0
   21.5776  -19.6889  -13.0332 O   0  0  0  0  0  0  0  0  0  0  0  0
   20.2585  -23.0326  -12.7908 C   0  0  0  0  0  0  0  0  0  0  0  0
   18.8826  -23.0500  -12.7659 C   0  0  0  0  0  0  0  0  0  0  0  0
   23.1097  -20.6811  -11.7076 O   0  0  0  0  0  0  0  0  0  0  0  0
  2  1  1  6
  2  3  1  0
  4  6  1  0
  4  2  1  0
  4  5  1  1
  6  7  2  0
  8  9  1  0
  9 10  2  0
  9 19  1  0
 10 11  1  0
 11 12  2  0
 12 13  1  0
 14 13  1  1
 15 14  1  0
 15  6  1  0
 16 17  2  0
 16 14  1  0
 18 12  1  0
 19 18  2  0
 20 21  1  0
 21 22  2  0
 21 31  1  0
 22 23  1  0
 23 24  2  0
 24 25  1  0
 26 25  1  1
 26 28  1  0
 26 27  1  0
 27 16  1  0
 28 29  1  0
 30 24  1  0
 31 30  2  0
 32 28  2  0
M  END
$$$$
