VYY.pdb
     RDKit          3D

 32 33  0  0  1  0  0  0  0  0999 V2000
   25.6792  -20.6097  -18.4362 C   0  0  0  0  0  0  0  0  0  0  0  0
   26.4741  -21.8731  -18.5021 C   0  0  1  0  0  0  0  0  0  0  0  0
   27.3576  -21.8117  -19.7233 C   0  0  0  0  0  0  0  0  0  0  0  0
   27.3236  -22.1452  -17.3052 C   0  0  2  0  0  0  0  0  0  0  0  0
   28.0586  -23.3712  -17.4537 N   0  0  0  0  0  0  0  0  0  0  0  0
   26.4692  -22.2194  -16.0787 C   0  0  0  0  0  0  0  0  0  0  0  0
   25.7857  -23.2555  -15.9253 O   0  0  0  0  0  0  0  0  0  0  0  0
   22.6652  -20.5635   -8.2550 O   0  0  0  0  0  0  0  0  0  0  0  0
   23.5038  -20.5353   -9.3784 C   0  0  0  0  0  0  0  0  0  0  0  0
   24.7089  -21.2045   -9.3929 C   0  0  0  0  0  0  0  0  0  0  0  0
   25.5224  -21.1683  -10.5030 C   0  0  0  0  0  0  0  0  0  0  0  0
   25.1673  -20.4574  -11.6572 C   0  0  0  0  0  0  0  0  0  0  0  0
   26.0598  -20.4129  -12.8325 C   0  0  0  0  0  0  0  0  0  0  0  0
   25.5277  -21.2157  -13.9610 C   0  0  2  0  0  0  0  0  0  0  0  0
   26.4051  -21.2013  -15.1192 N   0  0  0  0  0  0  0  0  0  0  0  0
   24.1783  -20.8271  -14.3707 C   0  0  0  0  0  0  0  0  0  0  0  0
   23.9494  -19.8141  -15.0796 O   0  0  0  0  0  0  0  0  0  0  0  0
   23.9543  -19.8071  -11.5897 C   0  0  0  0  0  0  0  0  0  0  0  0
   23.1316  -19.8348  -10.4875 C   0  0  0  0  0  0  0  0  0  0  0  0
   21.9100  -17.7045  -19.7760 O   0  0  0  0  0  0  0  0  0  0  0  0
   21.7991  -18.6951  -18.7841 C   0  0  0  0  0  0  0  0  0  0  0  0
   22.6878  -19.7467  -18.7377 C   0  0  0  0  0  0  0  0  0  0  0  0
   22.5752  -20.7194  -17.7600 C   0  0  0  0  0  0  0  0  0  0  0  0
   21.5859  -20.6826  -16.8033 C   0  0  0  0  0  0  0  0  0  0  0  0
   21.4489  -21.7017  -15.7692 C   0  0  0  0  0  0  0  0  0  0  0  0
   21.6702  -21.2104  -14.3584 C   0  0  2  0  0  0  0  0  0  0  0  0
   23.0145  -21.5671  -13.9982 N   0  0  0  0  0  0  0  0  0  0  0  0
   20.6653  -21.6446  -13.3942 C   0  0  0  0  0  0  0  0  0  0  0  0
   19.3686  -21.1658  -13.3941 O   0  0  0  0  0  0  0  0  0  0  0  0
   20.7123  -19.6218  -16.8731 C   0  0  0  0  0  0  0  0  0  0  0  0
   20.8046  -18.6428  -17.8360 C   0  0  0  0  0  0  0  0  0  0  0  0
   20.9717  -22.4890  -12.5177 O   0  0  0  0  0  0  0  0  0  0  0  0
  2  1  1  1
  2  3  1  0
  4  6  1  0
  4  2  1  0
  4  5  1  6
  6  7  2  0
  8  9  1  0
  9 10  2  0
  9 19  1  0
 10 11  1  0
 11 12  2  0
 12 13  1  0
 14 13  1  1
 15 14  1  0
 15  6  1  0
 16 17  2  0
 16 14  1  0
 18 12  1  0
 19 18  2  0
 20 21  1  0
 21 22  2  0
 21 31  1  0
 22 23  1  0
 23 24  2  0
 24 25  1  0
 26 25  1  6
 26 28  1  0
 26 27  1  0
 27 16  1  0
 28 29  1  0
 30 24  1  0
 31 30  2  0
 32 28  2  0
M  END
$$$$
