VYY.pdb
     RDKit          3D

 32 33  0  0  1  0  0  0  0  0999 V2000
   28.9183  -18.8882  -16.6265 C   0  0  0  0  0  0  0  0  0  0  0  0
   28.3091  -19.5962  -17.7927 C   0  0  1  0  0  0  0  0  0  0  0  0
   29.4229  -20.1890  -18.6194 C   0  0  0  0  0  0  0  0  0  0  0  0
   27.3433  -20.6777  -17.4378 C   0  0  2  0  0  0  0  0  0  0  0  0
   26.9884  -21.4602  -18.5898 N   0  0  0  0  0  0  0  0  0  0  0  0
   26.1084  -20.0829  -16.8372 C   0  0  0  0  0  0  0  0  0  0  0  0
   26.2346  -19.5077  -15.7338 O   0  0  0  0  0  0  0  0  0  0  0  0
   17.7972  -17.4676  -15.3765 O   0  0  0  0  0  0  0  0  0  0  0  0
   19.0183  -17.8187  -15.9696 C   0  0  0  0  0  0  0  0  0  0  0  0
   19.1351  -18.9379  -16.7660 C   0  0  0  0  0  0  0  0  0  0  0  0
   20.3404  -19.2707  -17.3421 C   0  0  0  0  0  0  0  0  0  0  0  0
   21.4918  -18.4959  -17.1482 C   0  0  0  0  0  0  0  0  0  0  0  0
   22.7814  -18.8771  -17.7579 C   0  0  0  0  0  0  0  0  0  0  0  0
   23.6151  -19.6805  -16.8302 C   0  0  2  0  0  0  0  0  0  0  0  0
   24.8480  -20.1423  -17.4449 N   0  0  0  0  0  0  0  0  0  0  0  0
   22.9085  -20.8204  -16.2462 C   0  0  0  0  0  0  0  0  0  0  0  0
   22.5935  -21.8383  -16.9139 O   0  0  0  0  0  0  0  0  0  0  0  0
   21.3202  -17.3898  -16.3446 C   0  0  0  0  0  0  0  0  0  0  0  0
   20.1222  -17.0454  -15.7627 C   0  0  0  0  0  0  0  0  0  0  0  0
   25.5117  -19.9657   -9.4299 O   0  0  0  0  0  0  0  0  0  0  0  0
   24.7888  -20.6529  -10.4212 C   0  0  0  0  0  0  0  0  0  0  0  0
   23.4163  -20.7497  -10.3510 C   0  0  0  0  0  0  0  0  0  0  0  0
   22.7086  -21.4267  -11.3284 C   0  0  0  0  0  0  0  0  0  0  0  0
   23.3325  -22.0257  -12.3995 C   0  0  0  0  0  0  0  0  0  0  0  0
   22.6033  -22.7478  -13.4357 C   0  0  0  0  0  0  0  0  0  0  0  0
   21.6987  -21.8926  -14.2906 C   0  0  2  0  0  0  0  0  0  0  0  0
   22.5205  -20.8676  -14.8722 N   0  0  0  0  0  0  0  0  0  0  0  0
   20.5137  -21.3835  -13.6089 C   0  0  0  0  0  0  0  0  0  0  0  0
   20.3795  -20.0634  -13.2216 O   0  0  0  0  0  0  0  0  0  0  0  0
   24.7032  -21.9138  -12.4446 C   0  0  0  0  0  0  0  0  0  0  0  0
   25.4282  -21.2455  -11.4845 C   0  0  0  0  0  0  0  0  0  0  0  0
   19.5634  -22.1624  -13.3532 O   0  0  0  0  0  0  0  0  0  0  0  0
  2  1  1  1
  2  3  1  0
  4  6  1  0
  4  2  1  0
  4  5  1  6
  6  7  2  0
  8  9  1  0
  9 10  2  0
  9 19  1  0
 10 11  1  0
 11 12  2  0
 12 13  1  0
 14 13  1  6
 15 14  1  0
 15  6  1  0
 16 17  2  0
 16 14  1  0
 18 12  1  0
 19 18  2  0
 20 21  1  0
 21 22  2  0
 21 31  1  0
 22 23  1  0
 23 24  2  0
 24 25  1  0
 26 25  1  1
 26 28  1  0
 26 27  1  0
 27 16  1  0
 28 29  1  0
 30 24  1  0
 31 30  2  0
 32 28  2  0
M  END
$$$$
