VYY.pdb
     RDKit          3D

 32 33  0  0  1  0  0  0  0  0999 V2000
   21.0759  -32.5468  -15.3658 C   0  0  0  0  0  0  0  0  0  0  0  0
   22.3096  -32.8016  -16.1693 C   0  0  1  0  0  0  0  0  0  0  0  0
   22.0692  -32.3054  -17.5734 C   0  0  0  0  0  0  0  0  0  0  0  0
   23.5499  -32.1634  -15.6376 C   0  0  2  0  0  0  0  0  0  0  0  0
   24.6595  -32.3532  -16.5310 N   0  0  0  0  0  0  0  0  0  0  0  0
   23.8840  -32.7361  -14.2960 C   0  0  0  0  0  0  0  0  0  0  0  0
   24.1682  -33.9533  -14.2535 O   0  0  0  0  0  0  0  0  0  0  0  0
   25.3971  -33.8869   -5.6783 O   0  0  0  0  0  0  0  0  0  0  0  0
   25.1831  -33.3025   -6.9348 C   0  0  0  0  0  0  0  0  0  0  0  0
   24.0533  -32.5577   -7.1982 C   0  0  0  0  0  0  0  0  0  0  0  0
   23.8562  -31.9895   -8.4367 C   0  0  0  0  0  0  0  0  0  0  0  0
   24.7844  -32.1400   -9.4756 C   0  0  0  0  0  0  0  0  0  0  0  0
   24.5490  -31.5400  -10.8040 C   0  0  0  0  0  0  0  0  0  0  0  0
   24.0623  -32.5416  -11.7842 C   0  0  2  0  0  0  0  0  0  0  0  0
   23.8914  -31.9835  -13.1149 N   0  0  0  0  0  0  0  0  0  0  0  0
   22.8254  -33.2073  -11.3757 C   0  0  0  0  0  0  0  0  0  0  0  0
   21.6923  -32.6806  -11.5174 O   0  0  0  0  0  0  0  0  0  0  0  0
   25.8943  -32.8929   -9.1595 C   0  0  0  0  0  0  0  0  0  0  0  0
   26.1042  -33.4662   -7.9268 C   0  0  0  0  0  0  0  0  0  0  0  0
   17.6830  -34.1652  -15.3275 O   0  0  0  0  0  0  0  0  0  0  0  0
   18.5616  -34.6591  -14.3469 C   0  0  0  0  0  0  0  0  0  0  0  0
   19.9240  -34.6415  -14.5500 C   0  0  0  0  0  0  0  0  0  0  0  0
   20.7852  -35.1284  -13.5825 C   0  0  0  0  0  0  0  0  0  0  0  0
   20.3283  -35.6450  -12.3910 C   0  0  0  0  0  0  0  0  0  0  0  0
   21.2208  -36.1674  -11.3627 C   0  0  0  0  0  0  0  0  0  0  0  0
   21.6252  -35.1691  -10.3041 C   0  0  2  0  0  0  0  0  0  0  0  0
   22.8067  -34.5074  -10.7840 N   0  0  0  0  0  0  0  0  0  0  0  0
   21.7622  -35.7223   -8.9613 C   0  0  0  0  0  0  0  0  0  0  0  0
   22.9134  -35.5880   -8.2080 O   0  0  0  0  0  0  0  0  0  0  0  0
   18.9637  -35.6505  -12.2145 C   0  0  0  0  0  0  0  0  0  0  0  0
   18.0880  -35.1717  -13.1621 C   0  0  0  0  0  0  0  0  0  0  0  0
   20.8045  -36.3518   -8.4497 O   0  0  0  0  0  0  0  0  0  0  0  0
  2  1  1  1
  2  3  1  0
  4  6  1  0
  4  2  1  0
  4  5  1  6
  6  7  2  0
  8  9  1  0
  9 10  2  0
  9 19  1  0
 10 11  1  0
 11 12  2  0
 12 13  1  0
 14 13  1  1
 15 14  1  0
 15  6  1  0
 16 17  2  0
 16 14  1  0
 18 12  1  0
 19 18  2  0
 20 21  1  0
 21 22  2  0
 21 31  1  0
 22 23  1  0
 23 24  2  0
 24 25  1  0
 26 25  1  6
 26 28  1  0
 26 27  1  0
 27 16  1  0
 28 29  1  0
 30 24  1  0
 31 30  2  0
 32 28  2  0
M  END
$$$$
