VYY.pdb
     RDKit          3D

 32 33  0  0  1  0  0  0  0  0999 V2000
   26.5341  -17.9687  -18.4640 C   0  0  0  0  0  0  0  0  0  0  0  0
   27.0980  -19.1894  -19.1152 C   0  0  1  0  0  0  0  0  0  0  0  0
   27.7418  -18.7762  -20.4153 C   0  0  0  0  0  0  0  0  0  0  0  0
   28.0995  -19.9339  -18.2961 C   0  0  2  0  0  0  0  0  0  0  0  0
   28.6401  -21.0515  -19.0202 N   0  0  0  0  0  0  0  0  0  0  0  0
   27.4654  -20.4177  -17.0298 C   0  0  0  0  0  0  0  0  0  0  0  0
   26.6490  -21.3601  -17.1282 O   0  0  0  0  0  0  0  0  0  0  0  0
   24.9635  -20.8292   -8.5326 O   0  0  0  0  0  0  0  0  0  0  0  0
   25.6952  -20.6313   -9.7122 C   0  0  0  0  0  0  0  0  0  0  0  0
   25.8871  -19.3707  -10.2363 C   0  0  0  0  0  0  0  0  0  0  0  0
   26.6078  -19.1911  -11.3954 C   0  0  0  0  0  0  0  0  0  0  0  0
   27.1738  -20.2692  -12.0890 C   0  0  0  0  0  0  0  0  0  0  0  0
   27.9279  -20.0614  -13.3412 C   0  0  0  0  0  0  0  0  0  0  0  0
   27.0764  -20.2640  -14.5391 C   0  0  2  0  0  0  0  0  0  0  0  0
   27.7416  -19.8719  -15.7699 N   0  0  0  0  0  0  0  0  0  0  0  0
   25.7789  -19.5938  -14.4550 C   0  0  0  0  0  0  0  0  0  0  0  0
   25.6580  -18.3426  -14.4848 O   0  0  0  0  0  0  0  0  0  0  0  0
   26.9521  -21.5058  -11.5229 C   0  0  0  0  0  0  0  0  0  0  0  0
   26.2342  -21.6999  -10.3656 C   0  0  0  0  0  0  0  0  0  0  0  0
   22.4485  -21.1872  -20.1951 O   0  0  0  0  0  0  0  0  0  0  0  0
   22.5565  -20.5974  -18.9231 C   0  0  0  0  0  0  0  0  0  0  0  0
   22.5572  -21.3741  -17.7854 C   0  0  0  0  0  0  0  0  0  0  0  0
   22.6637  -20.7899  -16.5355 C   0  0  0  0  0  0  0  0  0  0  0  0
   22.7721  -19.4271  -16.3730 C   0  0  0  0  0  0  0  0  0  0  0  0
   22.8796  -18.7939  -15.0637 C   0  0  0  0  0  0  0  0  0  0  0  0
   23.2968  -19.7164  -13.9432 C   0  0  2  0  0  0  0  0  0  0  0  0
   24.5472  -20.3071  -14.3325 N   0  0  0  0  0  0  0  0  0  0  0  0
   22.2850  -20.6870  -13.5403 C   0  0  0  0  0  0  0  0  0  0  0  0
   21.0389  -20.3201  -13.0679 O   0  0  0  0  0  0  0  0  0  0  0  0
   22.7686  -18.6755  -17.5256 C   0  0  0  0  0  0  0  0  0  0  0  0
   22.6640  -19.2341  -18.7790 C   0  0  0  0  0  0  0  0  0  0  0  0
   22.5377  -21.9139  -13.6180 O   0  0  0  0  0  0  0  0  0  0  0  0
  2  1  1  1
  2  3  1  0
  4  6  1  0
  4  2  1  0
  4  5  1  6
  6  7  2  0
  8  9  1  0
  9 10  2  0
  9 19  1  0
 10 11  1  0
 11 12  2  0
 12 13  1  0
 14 13  1  1
 15 14  1  0
 15  6  1  0
 16 17  2  0
 16 14  1  0
 18 12  1  0
 19 18  2  0
 20 21  1  0
 21 22  2  0
 21 31  1  0
 22 23  1  0
 23 24  2  0
 24 25  1  0
 26 25  1  6
 26 28  1  0
 26 27  1  0
 27 16  1  0
 28 29  1  0
 30 24  1  0
 31 30  2  0
 32 28  2  0
M  END
$$$$
