VYY.pdb
     RDKit          3D

 32 33  0  0  1  0  0  0  0  0999 V2000
   25.0343  -16.4659  -19.3497 C   0  0  0  0  0  0  0  0  0  0  0  0
   24.7654  -14.9965  -19.3790 C   0  0  1  0  0  0  0  0  0  0  0  0
   25.6552  -14.3333  -18.3572 C   0  0  0  0  0  0  0  0  0  0  0  0
   24.9819  -14.3434  -20.7037 C   0  0  2  0  0  0  0  0  0  0  0  0
   26.3376  -14.5072  -21.1518 N   0  0  0  0  0  0  0  0  0  0  0  0
   24.6575  -12.8853  -20.6134 C   0  0  0  0  0  0  0  0  0  0  0  0
   25.6211  -12.0954  -20.5039 O   0  0  0  0  0  0  0  0  0  0  0  0
   20.9240   -5.0341  -21.7938 O   0  0  0  0  0  0  0  0  0  0  0  0
   21.2539   -6.3967  -21.8211 C   0  0  0  0  0  0  0  0  0  0  0  0
   20.3539   -7.3623  -21.4236 C   0  0  0  0  0  0  0  0  0  0  0  0
   20.6912   -8.6967  -21.4556 C   0  0  0  0  0  0  0  0  0  0  0  0
   21.9510   -9.1308  -21.8891 C   0  0  0  0  0  0  0  0  0  0  0  0
   22.3037  -10.5645  -21.8994 C   0  0  0  0  0  0  0  0  0  0  0  0
   23.0147  -10.9676  -20.6612 C   0  0  2  0  0  0  0  0  0  0  0  0
   23.3513  -12.3810  -20.6455 N   0  0  0  0  0  0  0  0  0  0  0  0
   22.2930  -10.6278  -19.4350 C   0  0  0  0  0  0  0  0  0  0  0  0
   21.3767  -11.3491  -18.9646 O   0  0  0  0  0  0  0  0  0  0  0  0
   22.8116   -8.1261  -22.2746 C   0  0  0  0  0  0  0  0  0  0  0  0
   22.4880   -6.7893  -22.2478 C   0  0  0  0  0  0  0  0  0  0  0  0
   20.7684   -8.7884  -11.1131 O   0  0  0  0  0  0  0  0  0  0  0  0
   21.2966   -8.8434  -12.4151 C   0  0  0  0  0  0  0  0  0  0  0  0
   21.0555   -7.8290  -13.3155 C   0  0  0  0  0  0  0  0  0  0  0  0
   21.5772   -7.8870  -14.5958 C   0  0  0  0  0  0  0  0  0  0  0  0
   22.3490   -8.9438  -15.0231 C   0  0  0  0  0  0  0  0  0  0  0  0
   22.9023   -9.0241  -16.3700 C   0  0  0  0  0  0  0  0  0  0  0  0
   21.8767   -9.0681  -17.4776 C   0  0  2  0  0  0  0  0  0  0  0  0
   22.5719   -9.4506  -18.6753 N   0  0  0  0  0  0  0  0  0  0  0  0
   21.0771   -7.8563  -17.6202 C   0  0  0  0  0  0  0  0  0  0  0  0
   21.6340   -6.6125  -17.8517 O   0  0  0  0  0  0  0  0  0  0  0  0
   22.5739   -9.9427  -14.1038 C   0  0  0  0  0  0  0  0  0  0  0  0
   22.0658   -9.9068  -12.8254 C   0  0  0  0  0  0  0  0  0  0  0  0
   19.8271   -7.9246  -17.5315 O   0  0  0  0  0  0  0  0  0  0  0  0
  2  1  1  6
  2  3  1  0
  4  6  1  0
  4  2  1  0
  4  5  1  1
  6  7  2  0
  8  9  1  0
  9 10  2  0
  9 19  1  0
 10 11  1  0
 11 12  2  0
 12 13  1  0
 14 13  1  6
 15 14  1  0
 15  6  1  0
 16 17  2  0
 16 14  1  0
 18 12  1  0
 19 18  2  0
 20 21  1  0
 21 22  2  0
 21 31  1  0
 22 23  1  0
 23 24  2  0
 24 25  1  0
 26 25  1  1
 26 28  1  0
 26 27  1  0
 27 16  1  0
 28 29  1  0
 30 24  1  0
 31 30  2  0
 32 28  2  0
M  END
$$$$
