VYY.pdb
     RDKit          3D

 32 33  0  0  1  0  0  0  0  0999 V2000
   30.3945  -24.9466  -17.8026 C   0  0  0  0  0  0  0  0  0  0  0  0
   29.3446  -24.0719  -17.1987 C   0  0  1  0  0  0  0  0  0  0  0  0
   29.9682  -23.3030  -16.0605 C   0  0  0  0  0  0  0  0  0  0  0  0
   28.7107  -23.1056  -18.1436 C   0  0  2  0  0  0  0  0  0  0  0  0
   29.6996  -22.3193  -18.8286 N   0  0  0  0  0  0  0  0  0  0  0  0
   27.7791  -22.2007  -17.4000 C   0  0  0  0  0  0  0  0  0  0  0  0
   28.2066  -21.0621  -17.1083 O   0  0  0  0  0  0  0  0  0  0  0  0
   20.5629  -18.6454  -13.7011 O   0  0  0  0  0  0  0  0  0  0  0  0
   21.4553  -19.4188  -14.4571 C   0  0  0  0  0  0  0  0  0  0  0  0
   22.2442  -18.8544  -15.4367 C   0  0  0  0  0  0  0  0  0  0  0  0
   23.1162  -19.6260  -16.1714 C   0  0  0  0  0  0  0  0  0  0  0  0
   23.2413  -21.0055  -15.9601 C   0  0  0  0  0  0  0  0  0  0  0  0
   24.1675  -21.8221  -16.7696 C   0  0  0  0  0  0  0  0  0  0  0  0
   25.5656  -21.7161  -16.2846 C   0  0  2  0  0  0  0  0  0  0  0  0
   26.4801  -22.5674  -17.0264 N   0  0  0  0  0  0  0  0  0  0  0  0
   25.7102  -21.9812  -14.8533 C   0  0  0  0  0  0  0  0  0  0  0  0
   25.7142  -23.1442  -14.3753 O   0  0  0  0  0  0  0  0  0  0  0  0
   22.4308  -21.5183  -14.9707 C   0  0  0  0  0  0  0  0  0  0  0  0
   21.5553  -20.7595  -14.2290 C   0  0  0  0  0  0  0  0  0  0  0  0
   27.8058  -20.1804   -6.3471 O   0  0  0  0  0  0  0  0  0  0  0  0
   27.6145  -20.1823   -7.7402 C   0  0  0  0  0  0  0  0  0  0  0  0
   26.5028  -19.5903   -8.2983 C   0  0  0  0  0  0  0  0  0  0  0  0
   26.3183  -19.5942   -9.6697 C   0  0  0  0  0  0  0  0  0  0  0  0
   27.2221  -20.1805  -10.5268 C   0  0  0  0  0  0  0  0  0  0  0  0
   27.0411  -20.1989  -11.9737 C   0  0  0  0  0  0  0  0  0  0  0  0
   25.9813  -21.1533  -12.4703 C   0  0  2  0  0  0  0  0  0  0  0  0
   25.8582  -20.9406  -13.8858 N   0  0  0  0  0  0  0  0  0  0  0  0
   24.7139  -21.0889  -11.7509 C   0  0  0  0  0  0  0  0  0  0  0  0
   24.3914  -21.9511  -10.7197 O   0  0  0  0  0  0  0  0  0  0  0  0
   28.3228  -20.7643   -9.9427 C   0  0  0  0  0  0  0  0  0  0  0  0
   28.5276  -20.7727   -8.5819 C   0  0  0  0  0  0  0  0  0  0  0  0
   23.8652  -20.2202  -12.0673 O   0  0  0  0  0  0  0  0  0  0  0  0
  2  1  1  6
  2  3  1  0
  4  6  1  0
  4  2  1  0
  4  5  1  1
  6  7  2  0
  8  9  1  0
  9 10  2  0
  9 19  1  0
 10 11  1  0
 11 12  2  0
 12 13  1  0
 14 13  1  6
 15 14  1  0
 15  6  1  0
 16 17  2  0
 16 14  1  0
 18 12  1  0
 19 18  2  0
 20 21  1  0
 21 22  2  0
 21 31  1  0
 22 23  1  0
 23 24  2  0
 24 25  1  0
 26 25  1  1
 26 28  1  0
 26 27  1  0
 27 16  1  0
 28 29  1  0
 30 24  1  0
 31 30  2  0
 32 28  2  0
M  END
$$$$
