RFL.pdb
     RDKit          3D

 31 31  0  0  1  0  0  0  0  0999 V2000
   28.9762  -20.1616  -21.0866 N   0  0  0  0  0  0  0  0  0  0  0  0
   29.8059  -21.2008  -20.5434 C   0  0  0  0  0  0  0  0  0  0  0  0
   31.0867  -21.2202  -20.7627 N   0  0  0  0  0  0  0  0  0  0  0  0
   29.2685  -22.2469  -19.7497 N   0  0  0  0  0  0  0  0  0  0  0  0
   27.8753  -22.3457  -19.3809 C   0  0  0  0  0  0  0  0  0  0  0  0
   27.3423  -21.0337  -18.8100 C   0  0  0  0  0  0  0  0  0  0  0  0
   26.5212  -21.2952  -17.5866 C   0  0  0  0  0  0  0  0  0  0  0  0
   27.0717  -22.3013  -16.6435 C   0  0  2  0  0  0  0  0  0  0  0  0
   27.2387  -23.6252  -17.1985 N   0  0  0  0  0  0  0  0  0  0  0  0
   26.4389  -22.3040  -15.2996 C   0  0  0  0  0  0  0  0  0  0  0  0
   25.5568  -23.1598  -15.0795 O   0  0  0  0  0  0  0  0  0  0  0  0
   31.6770  -22.0070  -20.4302 N   0  0  0  0  0  0  0  0  0  0  0  0
   26.7940  -21.3830  -14.2736 C   0  0  1  0  0  0  0  0  0  0  0  0
   26.1028  -21.2981  -13.0040 C   0  0  0  0  0  0  0  0  0  0  0  0
   26.8817  -20.5394  -11.9523 C   0  0  0  0  0  0  0  0  0  0  0  0
   26.1824  -20.3879  -10.6781 C   0  0  0  0  0  0  0  0  0  0  0  0
   26.1524  -21.4341   -9.7815 C   0  0  0  0  0  0  0  0  0  0  0  0
   25.5008  -21.3265   -8.5648 C   0  0  0  0  0  0  0  0  0  0  0  0
   24.8488  -20.1566   -8.1972 C   0  0  0  0  0  0  0  0  0  0  0  0
   24.8836  -19.1149   -9.0997 C   0  0  0  0  0  0  0  0  0  0  0  0
   25.5305  -19.2117  -10.3153 C   0  0  0  0  0  0  0  0  0  0  0  0
   24.7932  -20.6017  -13.1456 O   0  0  0  0  0  0  0  0  0  0  0  0
   24.8009  -19.4341  -13.5939 C   0  0  0  0  0  0  0  0  0  0  0  0
   21.1254  -21.8094  -16.2451 C   0  0  1  0  0  0  0  0  0  0  0  0
   21.9521  -20.9899  -15.2620 C   0  0  0  0  0  0  0  0  0  0  0  0
   21.7618  -19.5264  -15.6888 C   0  0  0  0  0  0  0  0  0  0  0  0
   21.3920  -21.1513  -13.8816 C   0  0  2  0  0  0  0  0  0  0  0  0
   22.2738  -20.5194  -12.8635 N   0  0  0  0  0  0  0  0  0  0  0  0
   23.5751  -21.2174  -12.7928 C   0  0  0  0  0  0  0  0  0  0  0  0
   21.6655  -20.4724  -11.5180 O   0  0  0  0  0  0  0  0  0  0  0  0
   20.7436  -19.5430  -11.0909 O   0  0  0  0  0  0  0  0  0  0  0  0
  2  1  1  0
  2  3  2  0
  4  5  1  0
  4  2  1  0
  6  5  1  0
  7  6  1  0
  8  9  1  6
  8  7  1  0
 10  8  1  0
 10 11  2  0
 12 10  1  0
 13 12  1  0
 13 21  1  0
 13 14  1  1
 15 14  1  0
 16 15  2  0
 17 16  1  0
 18 17  2  0
 18 19  1  0
 19 20  2  0
 20 15  1  0
 21 28  1  0
 22 21  2  0
 24 23  1  6
 24 25  1  0
 24 26  1  0
 27 26  1  6
 27 29  1  0
 28 27  1  0
 29 31  2  0
 29 30  1  0
M  END
$$$$
