RFL.pdb
     RDKit          3D

 31 31  0  0  1  0  0  0  0  0999 V2000
   27.2641  -22.0223  -21.3614 N   0  0  0  0  0  0  0  0  0  0  0  0
   26.3110  -20.9498  -21.4308 C   0  0  0  0  0  0  0  0  0  0  0  0
   25.6579  -20.7025  -22.5268 N   0  0  0  0  0  0  0  0  0  0  0  0
   26.0421  -20.1167  -20.3142 N   0  0  0  0  0  0  0  0  0  0  0  0
   26.6170  -20.3134  -19.0037 C   0  0  0  0  0  0  0  0  0  0  0  0
   26.4163  -21.7413  -18.5016 C   0  0  0  0  0  0  0  0  0  0  0  0
   26.0210  -21.7336  -17.0584 C   0  0  0  0  0  0  0  0  0  0  0  0
   27.1405  -21.7445  -16.0831 C   0  0  2  0  0  0  0  0  0  0  0  0
   28.2009  -22.6779  -16.3876 N   0  0  0  0  0  0  0  0  0  0  0  0
   26.7222  -21.7760  -14.6581 C   0  0  0  0  0  0  0  0  0  0  0  0
   25.7158  -22.4556  -14.3677 O   0  0  0  0  0  0  0  0  0  0  0  0
   24.9990  -19.9027  -22.5909 N   0  0  0  0  0  0  0  0  0  0  0  0
   27.4130  -21.0719  -13.6316 C   0  0  2  0  0  0  0  0  0  0  0  0
   26.9844  -21.0553  -12.2485 C   0  0  0  0  0  0  0  0  0  0  0  0
   27.9890  -20.4063  -11.3222 C   0  0  0  0  0  0  0  0  0  0  0  0
   27.5455  -20.2986   -9.9339 C   0  0  0  0  0  0  0  0  0  0  0  0
   26.7860  -19.2194   -9.5365 C   0  0  0  0  0  0  0  0  0  0  0  0
   26.3472  -19.0846   -8.2304 C   0  0  0  0  0  0  0  0  0  0  0  0
   26.6554  -20.0340   -7.2648 C   0  0  0  0  0  0  0  0  0  0  0  0
   27.4154  -21.1104   -7.6707 C   0  0  0  0  0  0  0  0  0  0  0  0
   27.8579  -21.2545   -8.9702 C   0  0  0  0  0  0  0  0  0  0  0  0
   25.7095  -20.3016  -12.0854 O   0  0  0  0  0  0  0  0  0  0  0  0
   25.6097  -19.1960  -12.6615 C   0  0  0  0  0  0  0  0  0  0  0  0
   20.7295  -20.5704  -14.2705 C   0  0  2  0  0  0  0  0  0  0  0  0
   21.2332  -20.2976  -12.8585 C   0  0  0  0  0  0  0  0  0  0  0  0
   20.4044  -21.2134  -11.9450 C   0  0  0  0  0  0  0  0  0  0  0  0
   22.6705  -20.7079  -12.7525 C   0  0  1  0  0  0  0  0  0  0  0  0
   23.2546  -20.2975  -11.4473 N   0  0  0  0  0  0  0  0  0  0  0  0
   24.6394  -20.7976  -11.3133 C   0  0  0  0  0  0  0  0  0  0  0  0
   22.4548  -20.7435  -10.2880 O   0  0  0  0  0  0  0  0  0  0  0  0
   22.6936  -21.8759   -9.5417 O   0  0  0  0  0  0  0  0  0  0  0  0
  2  1  1  0
  2  3  2  0
  4  5  1  0
  4  2  1  0
  6  5  1  0
  7  6  1  0
  8  9  1  6
  8  7  1  0
 10  8  1  0
 10 11  2  0
 12 10  1  0
 13 12  1  0
 13 21  1  0
 13 14  1  6
 15 14  1  0
 16 15  2  0
 17 16  1  0
 18 17  2  0
 18 19  1  0
 19 20  2  0
 20 15  1  0
 21 28  1  0
 22 21  2  0
 24 23  1  1
 24 25  1  0
 24 26  1  0
 27 26  1  6
 27 29  1  0
 28 27  1  0
 29 31  2  0
 29 30  1  0
M  END
$$$$
