RFL.pdb
     RDKit          3D

 31 31  0  0  1  0  0  0  0  0999 V2000
   11.9844  -25.1328    3.5197 N   0  0  0  0  0  0  0  0  0  0  0  0
   12.0172  -26.4416    2.9285 C   0  0  0  0  0  0  0  0  0  0  0  0
   11.8387  -27.5081    3.6493 N   0  0  0  0  0  0  0  0  0  0  0  0
   12.2461  -26.6283    1.5407 N   0  0  0  0  0  0  0  0  0  0  0  0
   12.4643  -25.5484    0.6064 C   0  0  0  0  0  0  0  0  0  0  0  0
   12.6934  -26.0607   -0.8135 C   0  0  0  0  0  0  0  0  0  0  0  0
   12.8673  -24.9131   -1.7580 C   0  0  0  0  0  0  0  0  0  0  0  0
   14.2678  -24.5943   -2.1344 C   0  0  2  0  0  0  0  0  0  0  0  0
   15.0066  -25.6950   -2.7100 N   0  0  0  0  0  0  0  0  0  0  0  0
   15.0338  -23.8492   -1.1026 C   0  0  0  0  0  0  0  0  0  0  0  0
   16.2213  -24.1847   -0.9121 O   0  0  0  0  0  0  0  0  0  0  0  0
   11.8597  -28.4546    3.2231 N   0  0  0  0  0  0  0  0  0  0  0  0
   14.4734  -22.7878   -0.3369 C   0  0  2  0  0  0  0  0  0  0  0  0
   15.2468  -21.9615    0.5664 C   0  0  0  0  0  0  0  0  0  0  0  0
   14.7452  -20.5366    0.6458 C   0  0  0  0  0  0  0  0  0  0  0  0
   15.5809  -19.6484    1.4512 C   0  0  0  0  0  0  0  0  0  0  0  0
   15.0281  -18.9507    2.5033 C   0  0  0  0  0  0  0  0  0  0  0  0
   15.7891  -18.1015    3.2883 C   0  0  0  0  0  0  0  0  0  0  0  0
   17.1444  -17.9175    3.0469 C   0  0  0  0  0  0  0  0  0  0  0  0
   17.6894  -18.6192    1.9926 C   0  0  0  0  0  0  0  0  0  0  0  0
   16.9397  -19.4684    1.2038 C   0  0  0  0  0  0  0  0  0  0  0  0
   15.2142  -22.5000    1.9554 O   0  0  0  0  0  0  0  0  0  0  0  0
   14.2113  -23.1638    2.2984 C   0  0  0  0  0  0  0  0  0  0  0  0
   19.0655  -25.3790    4.0445 C   0  0  1  0  0  0  0  0  0  0  0  0
   17.6849  -24.7847    3.7942 C   0  0  0  0  0  0  0  0  0  0  0  0
   16.6914  -25.7954    4.3871 C   0  0  0  0  0  0  0  0  0  0  0  0
   17.5501  -23.4978    4.5498 C   0  0  2  0  0  0  0  0  0  0  0  0
   16.2594  -22.8243    4.2436 N   0  0  0  0  0  0  0  0  0  0  0  0
   16.2656  -22.2813    2.8686 C   0  0  0  0  0  0  0  0  0  0  0  0
   15.9266  -21.7467    5.1979 O   0  0  0  0  0  0  0  0  0  0  0  0
   16.0139  -20.3969    4.9398 O   0  0  0  0  0  0  0  0  0  0  0  0
  2  1  1  0
  2  3  2  0
  4  5  1  0
  4  2  1  0
  6  5  1  0
  7  6  1  0
  8  9  1  1
  8  7  1  0
 10  8  1  0
 10 11  2  0
 12 10  1  0
 13 12  1  0
 13 21  1  0
 13 14  1  1
 15 14  1  0
 16 15  2  0
 17 16  1  0
 18 17  2  0
 18 19  1  0
 19 20  2  0
 20 15  1  0
 21 28  1  0
 22 21  2  0
 24 23  1  6
 24 25  1  0
 24 26  1  0
 27 26  1  6
 27 29  1  0
 28 27  1  0
 29 31  2  0
 29 30  1  0
M  END
$$$$
