RFL.pdb
     RDKit          3D

 31 31  0  0  1  0  0  0  0  0999 V2000
   24.8696  -19.8383  -16.1760 N   0  0  0  0  0  0  0  0  0  0  0  0
   23.6717  -19.1395  -15.8014 C   0  0  0  0  0  0  0  0  0  0  0  0
   22.6747  -19.0268  -16.6274 N   0  0  0  0  0  0  0  0  0  0  0  0
   23.5242  -18.5434  -14.5224 N   0  0  0  0  0  0  0  0  0  0  0  0
   24.1232  -19.0643  -13.3154 C   0  0  0  0  0  0  0  0  0  0  0  0
   23.4650  -20.3676  -12.8691 C   0  0  0  0  0  0  0  0  0  0  0  0
   24.0895  -20.8568  -11.6002 C   0  0  0  0  0  0  0  0  0  0  0  0
   25.5726  -20.9283  -11.5972 C   0  0  2  0  0  0  0  0  0  0  0  0
   26.1398  -21.7986  -12.6020 N   0  0  0  0  0  0  0  0  0  0  0  0
   26.1829  -21.1061  -10.2547 C   0  0  0  0  0  0  0  0  0  0  0  0
   25.9591  -22.1795   -9.6573 O   0  0  0  0  0  0  0  0  0  0  0  0
   21.7893  -18.5659  -16.3413 N   0  0  0  0  0  0  0  0  0  0  0  0
   26.9969  -20.1156   -9.6357 C   0  0  2  0  0  0  0  0  0  0  0  0
   27.5608  -20.2613   -8.3099 C   0  0  0  0  0  0  0  0  0  0  0  0
   28.6037  -19.2136   -7.9888 C   0  0  0  0  0  0  0  0  0  0  0  0
   29.1630  -19.3143   -6.6424 C   0  0  0  0  0  0  0  0  0  0  0  0
   29.9184  -20.4124   -6.2918 C   0  0  0  0  0  0  0  0  0  0  0  0
   30.4648  -20.5412   -5.0264 C   0  0  0  0  0  0  0  0  0  0  0  0
   30.2735  -19.5664   -4.0559 C   0  0  0  0  0  0  0  0  0  0  0  0
   29.5167  -18.4711   -4.4147 C   0  0  0  0  0  0  0  0  0  0  0  0
   28.9674  -18.3329   -5.6735 C   0  0  0  0  0  0  0  0  0  0  0  0
   26.5104  -20.1492   -7.2591 O   0  0  0  0  0  0  0  0  0  0  0  0
   25.7597  -19.1493   -7.2914 C   0  0  0  0  0  0  0  0  0  0  0  0
   22.2374  -23.1568   -5.7393 C   0  0  1  0  0  0  0  0  0  0  0  0
   23.0716  -21.8838   -5.6658 C   0  0  0  0  0  0  0  0  0  0  0  0
   22.3875  -21.0078   -4.6052 C   0  0  0  0  0  0  0  0  0  0  0  0
   24.4495  -22.2164   -5.1801 C   0  0  2  0  0  0  0  0  0  0  0  0
   25.3295  -21.0169   -5.1887 N   0  0  0  0  0  0  0  0  0  0  0  0
   26.3497  -21.1239   -6.2534 C   0  0  0  0  0  0  0  0  0  0  0  0
   25.9939  -20.7754   -3.8915 O   0  0  0  0  0  0  0  0  0  0  0  0
   25.5217  -19.9518   -2.8940 O   0  0  0  0  0  0  0  0  0  0  0  0
  2  1  1  0
  2  3  2  0
  4  5  1  0
  4  2  1  0
  6  5  1  0
  7  6  1  0
  8  9  1  6
  8  7  1  0
 10  8  1  0
 10 11  2  0
 12 10  1  0
 13 12  1  0
 13 21  1  0
 13 14  1  6
 15 14  1  0
 16 15  2  0
 17 16  1  0
 18 17  2  0
 18 19  1  0
 19 20  2  0
 20 15  1  0
 21 28  1  0
 22 21  2  0
 24 23  1  6
 24 25  1  0
 24 26  1  0
 27 26  1  6
 27 29  1  0
 28 27  1  0
 29 31  2  0
 29 30  1  0
M  END
$$$$
