RFL.pdb
     RDKit          3D

 31 31  0  0  1  0  0  0  0  0999 V2000
   29.4522  -19.4173  -18.9116 N   0  0  0  0  0  0  0  0  0  0  0  0
   29.5068  -20.3716  -19.9839 C   0  0  0  0  0  0  0  0  0  0  0  0
   30.1924  -20.1314  -21.0615 N   0  0  0  0  0  0  0  0  0  0  0  0
   28.8184  -21.6104  -19.9165 N   0  0  0  0  0  0  0  0  0  0  0  0
   28.1860  -22.1181  -18.7210 C   0  0  0  0  0  0  0  0  0  0  0  0
   26.9360  -21.3213  -18.3552 C   0  0  0  0  0  0  0  0  0  0  0  0
   26.1623  -22.0298  -17.2881 C   0  0  0  0  0  0  0  0  0  0  0  0
   26.9605  -22.5438  -16.1464 C   0  0  2  0  0  0  0  0  0  0  0  0
   27.6206  -23.8066  -16.3876 N   0  0  0  0  0  0  0  0  0  0  0  0
   26.2730  -22.4828  -14.8310 C   0  0  0  0  0  0  0  0  0  0  0  0
   25.9034  -23.5620  -14.3232 O   0  0  0  0  0  0  0  0  0  0  0  0
   30.2301  -20.8187  -21.8388 N   0  0  0  0  0  0  0  0  0  0  0  0
   26.0240  -21.2620  -14.1422 C   0  0  2  0  0  0  0  0  0  0  0  0
   25.3152  -21.1879  -12.8816 C   0  0  0  0  0  0  0  0  0  0  0  0
   25.9343  -20.2098  -11.9078 C   0  0  0  0  0  0  0  0  0  0  0  0
   27.2732  -20.5794  -11.4531 C   0  0  0  0  0  0  0  0  0  0  0  0
   28.3740  -20.2431  -12.2110 C   0  0  0  0  0  0  0  0  0  0  0  0
   29.6571  -20.5755  -11.8114 C   0  0  0  0  0  0  0  0  0  0  0  0
   29.8879  -21.2635  -10.6272 C   0  0  0  0  0  0  0  0  0  0  0  0
   28.7812  -21.5961   -9.8750 C   0  0  0  0  0  0  0  0  0  0  0  0
   27.4978  -21.2694  -10.2642 C   0  0  0  0  0  0  0  0  0  0  0  0
   23.9036  -20.7532  -13.0785 O   0  0  0  0  0  0  0  0  0  0  0  0
   23.7070  -19.6109  -13.5483 C   0  0  0  0  0  0  0  0  0  0  0  0
   20.7843  -22.2972  -15.5304 C   0  0  2  0  0  0  0  0  0  0  0  0
   19.7813  -22.3047  -14.3834 C   0  0  0  0  0  0  0  0  0  0  0  0
   18.9992  -23.6185  -14.5332 C   0  0  0  0  0  0  0  0  0  0  0  0
   20.5153  -22.3434  -13.0777 C   0  0  2  0  0  0  0  0  0  0  0  0
   21.4050  -21.1612  -12.9229 N   0  0  0  0  0  0  0  0  0  0  0  0
   22.8117  -21.5835  -12.7536 C   0  0  0  0  0  0  0  0  0  0  0  0
   21.0147  -20.2844  -11.7997 O   0  0  0  0  0  0  0  0  0  0  0  0
   19.9622  -19.3964  -11.8088 O   0  0  0  0  0  0  0  0  0  0  0  0
  2  1  1  0
  2  3  2  0
  4  5  1  0
  4  2  1  0
  6  5  1  0
  7  6  1  0
  8  9  1  6
  8  7  1  0
 10  8  1  0
 10 11  2  0
 12 10  1  0
 13 12  1  0
 13 21  1  0
 13 14  1  6
 15 14  1  0
 16 15  2  0
 17 16  1  0
 18 17  2  0
 18 19  1  0
 19 20  2  0
 20 15  1  0
 21 28  1  0
 22 21  2  0
 24 23  1  6
 24 25  1  0
 24 26  1  0
 27 26  1  6
 27 29  1  0
 28 27  1  0
 29 31  2  0
 29 30  1  0
M  END
$$$$
