RFL.pdb
     RDKit          3D

 31 31  0  0  1  0  0  0  0  0999 V2000
   23.0377  -16.0999  -16.7477 N   0  0  0  0  0  0  0  0  0  0  0  0
   22.5192  -16.9893  -15.7458 C   0  0  0  0  0  0  0  0  0  0  0  0
   21.2941  -16.8846  -15.3250 N   0  0  0  0  0  0  0  0  0  0  0  0
   23.3158  -18.0141  -15.1728 N   0  0  0  0  0  0  0  0  0  0  0  0
   24.7516  -18.0926  -15.3114 C   0  0  0  0  0  0  0  0  0  0  0  0
   25.1860  -19.3679  -16.0297 C   0  0  0  0  0  0  0  0  0  0  0  0
   25.5758  -20.4167  -15.0360 C   0  0  0  0  0  0  0  0  0  0  0  0
   27.0075  -20.4320  -14.6427 C   0  0  2  0  0  0  0  0  0  0  0  0
   27.9365  -20.5736  -15.7407 N   0  0  0  0  0  0  0  0  0  0  0  0
   27.3249  -21.3114  -13.4884 C   0  0  0  0  0  0  0  0  0  0  0  0
   27.0414  -22.5230  -13.5918 O   0  0  0  0  0  0  0  0  0  0  0  0
   20.8845  -17.5898  -14.6824 N   0  0  0  0  0  0  0  0  0  0  0  0
   27.9277  -20.8318  -12.2911 C   0  0  2  0  0  0  0  0  0  0  0  0
   28.1781  -21.6665  -11.1346 C   0  0  0  0  0  0  0  0  0  0  0  0
   29.4291  -21.2759  -10.3789 C   0  0  0  0  0  0  0  0  0  0  0  0
   30.6561  -21.8810  -10.8928 C   0  0  0  0  0  0  0  0  0  0  0  0
   31.1689  -21.4726  -12.1050 C   0  0  0  0  0  0  0  0  0  0  0  0
   32.3293  -22.0223  -12.6225 C   0  0  0  0  0  0  0  0  0  0  0  0
   33.0258  -23.0106  -11.9392 C   0  0  0  0  0  0  0  0  0  0  0  0
   32.5062  -23.4134  -10.7273 C   0  0  0  0  0  0  0  0  0  0  0  0
   31.3500  -22.8718  -10.2023 C   0  0  0  0  0  0  0  0  0  0  0  0
   27.0539  -21.5928  -10.1595 O   0  0  0  0  0  0  0  0  0  0  0  0
   27.0084  -22.4583   -9.2578 C   0  0  0  0  0  0  0  0  0  0  0  0
   27.0178  -18.8383   -6.5505 C   0  0  1  0  0  0  0  0  0  0  0  0
   26.5818  -19.9462   -7.5014 C   0  0  0  0  0  0  0  0  0  0  0  0
   26.3211  -21.1703   -6.6105 C   0  0  0  0  0  0  0  0  0  0  0  0
   25.2908  -19.5621   -8.1580 C   0  0  2  0  0  0  0  0  0  0  0  0
   24.9493  -20.4952   -9.2653 N   0  0  0  0  0  0  0  0  0  0  0  0
   26.0643  -20.5914  -10.2313 C   0  0  0  0  0  0  0  0  0  0  0  0
   23.7103  -20.1213   -9.9778 O   0  0  0  0  0  0  0  0  0  0  0  0
   23.6293  -19.7675  -11.3061 O   0  0  0  0  0  0  0  0  0  0  0  0
  2  1  1  0
  2  3  2  0
  4  5  1  0
  4  2  1  0
  6  5  1  0
  7  6  1  0
  8  9  1  6
  8  7  1  0
 10  8  1  0
 10 11  2  0
 12 10  1  0
 13 12  1  0
 13 21  1  0
 13 14  1  1
 15 14  1  0
 16 15  2  0
 17 16  1  0
 18 17  2  0
 18 19  1  0
 19 20  2  0
 20 15  1  0
 21 28  1  0
 22 21  2  0
 24 23  1  6
 24 25  1  0
 24 26  1  0
 27 26  1  1
 27 29  1  0
 28 27  1  0
 29 31  2  0
 29 30  1  0
M  END
$$$$
