RFL.pdb
     RDKit          3D

 31 31  0  0  1  0  0  0  0  0999 V2000
   26.6198  -29.0210  -17.1719 N   0  0  0  0  0  0  0  0  0  0  0  0
   28.0177  -28.7392  -16.9986 C   0  0  0  0  0  0  0  0  0  0  0  0
   28.9150  -29.6631  -17.1730 N   0  0  0  0  0  0  0  0  0  0  0  0
   28.4791  -27.4490  -16.6305 N   0  0  0  0  0  0  0  0  0  0  0  0
   27.6085  -26.3364  -16.3288 C   0  0  0  0  0  0  0  0  0  0  0  0
   26.8790  -25.8305  -17.5710 C   0  0  0  0  0  0  0  0  0  0  0  0
   25.9522  -24.7125  -17.2098 C   0  0  0  0  0  0  0  0  0  0  0  0
   26.5926  -23.3926  -16.9807 C   0  0  2  0  0  0  0  0  0  0  0  0
   28.0286  -23.4344  -16.8236 N   0  0  0  0  0  0  0  0  0  0  0  0
   25.9160  -22.5416  -15.9686 C   0  0  0  0  0  0  0  0  0  0  0  0
   26.2312  -22.7081  -14.7719 O   0  0  0  0  0  0  0  0  0  0  0  0
   29.9174  -29.4836  -16.9706 N   0  0  0  0  0  0  0  0  0  0  0  0
   24.9391  -21.5627  -16.3068 C   0  0  1  0  0  0  0  0  0  0  0  0
   24.3526  -20.6551  -15.3429 C   0  0  0  0  0  0  0  0  0  0  0  0
   24.9812  -19.2793  -15.3624 C   0  0  0  0  0  0  0  0  0  0  0  0
   26.4137  -19.2680  -15.0731 C   0  0  0  0  0  0  0  0  0  0  0  0
   26.8523  -19.0963  -13.7779 C   0  0  0  0  0  0  0  0  0  0  0  0
   28.2011  -19.0813  -13.4663 C   0  0  0  0  0  0  0  0  0  0  0  0
   29.1698  -19.2392  -14.4489 C   0  0  0  0  0  0  0  0  0  0  0  0
   28.7225  -19.4105  -15.7418 C   0  0  0  0  0  0  0  0  0  0  0  0
   27.3802  -19.4270  -16.0633 C   0  0  0  0  0  0  0  0  0  0  0  0
   22.8977  -20.4596  -15.5983 O   0  0  0  0  0  0  0  0  0  0  0  0
   22.5140  -20.4372  -16.7885 C   0  0  0  0  0  0  0  0  0  0  0  0
   18.9480  -22.9802  -16.1558 C   0  0  2  0  0  0  0  0  0  0  0  0
   19.4220  -23.0833  -14.7113 C   0  0  0  0  0  0  0  0  0  0  0  0
   19.5980  -24.5861  -14.4454 C   0  0  0  0  0  0  0  0  0  0  0  0
   20.7610  -22.4243  -14.5764 C   0  0  1  0  0  0  0  0  0  0  0  0
   20.6344  -20.9421  -14.5599 N   0  0  0  0  0  0  0  0  0  0  0  0
   21.9675  -20.3031  -14.5507 C   0  0  0  0  0  0  0  0  0  0  0  0
   19.8391  -20.4404  -13.4204 O   0  0  0  0  0  0  0  0  0  0  0  0
   20.2075  -20.5148  -12.0957 O   0  0  0  0  0  0  0  0  0  0  0  0
  2  1  1  0
  2  3  2  0
  4  5  1  0
  4  2  1  0
  6  5  1  0
  7  6  1  0
  8  9  1  1
  8  7  1  0
 10  8  1  0
 10 11  2  0
 12 10  1  0
 13 12  1  0
 13 21  1  0
 13 14  1  1
 15 14  1  0
 16 15  2  0
 17 16  1  0
 18 17  2  0
 18 19  1  0
 19 20  2  0
 20 15  1  0
 21 28  1  0
 22 21  2  0
 24 23  1  1
 24 25  1  0
 24 26  1  0
 27 26  1  6
 27 29  1  0
 28 27  1  0
 29 31  2  0
 29 30  1  0
M  END
$$$$
