RFL.pdb
     RDKit          3D

 31 31  0  0  1  0  0  0  0  0999 V2000
   30.2988  -17.8784  -17.2695 N   0  0  0  0  0  0  0  0  0  0  0  0
   29.4846  -16.7049  -17.1162 C   0  0  0  0  0  0  0  0  0  0  0  0
   29.5837  -15.7070  -17.9429 N   0  0  0  0  0  0  0  0  0  0  0  0
   28.5430  -16.5819  -16.0621 N   0  0  0  0  0  0  0  0  0  0  0  0
   27.9146  -17.7053  -15.4064 C   0  0  0  0  0  0  0  0  0  0  0  0
   27.4137  -18.7428  -16.4084 C   0  0  0  0  0  0  0  0  0  0  0  0
   26.7174  -19.8593  -15.6956 C   0  0  0  0  0  0  0  0  0  0  0  0
   27.4187  -20.4001  -14.5038 C   0  0  2  0  0  0  0  0  0  0  0  0
   28.5942  -21.1877  -14.7975 N   0  0  0  0  0  0  0  0  0  0  0  0
   26.5301  -21.0268  -13.4919 C   0  0  0  0  0  0  0  0  0  0  0  0
   26.1814  -22.2101  -13.6849 O   0  0  0  0  0  0  0  0  0  0  0  0
   28.9889  -14.8623  -17.8394 N   0  0  0  0  0  0  0  0  0  0  0  0
   26.0695  -20.3401  -12.3330 C   0  0  2  0  0  0  0  0  0  0  0  0
   25.1157  -20.9020  -11.3994 C   0  0  0  0  0  0  0  0  0  0  0  0
   25.1682  -20.2542  -10.0334 C   0  0  0  0  0  0  0  0  0  0  0  0
   26.4056  -20.5028   -9.2967 C   0  0  0  0  0  0  0  0  0  0  0  0
   27.2046  -21.5733   -9.6357 C   0  0  0  0  0  0  0  0  0  0  0  0
   28.3838  -21.8389   -8.9611 C   0  0  0  0  0  0  0  0  0  0  0  0
   28.8110  -21.0353   -7.9120 C   0  0  0  0  0  0  0  0  0  0  0  0
   28.0060  -19.9665   -7.5793 C   0  0  0  0  0  0  0  0  0  0  0  0
   26.8284  -19.6927   -8.2455 C   0  0  0  0  0  0  0  0  0  0  0  0
   23.7181  -20.7419  -11.8906 O   0  0  0  0  0  0  0  0  0  0  0  0
   23.3874  -19.6268  -12.3505 C   0  0  0  0  0  0  0  0  0  0  0  0
   19.4871  -22.4881  -14.6481 C   0  0  2  0  0  0  0  0  0  0  0  0
   19.4345  -22.9124  -13.1856 C   0  0  0  0  0  0  0  0  0  0  0  0
   18.8123  -24.3171  -13.1898 C   0  0  0  0  0  0  0  0  0  0  0  0
   20.8282  -23.0197  -12.6456 C   0  0  1  0  0  0  0  0  0  0  0  0
   21.4134  -21.6761  -12.3902 N   0  0  0  0  0  0  0  0  0  0  0  0
   22.7836  -21.7965  -11.8481 C   0  0  0  0  0  0  0  0  0  0  0  0
   20.5939  -20.8497  -11.4802 O   0  0  0  0  0  0  0  0  0  0  0  0
   19.6409  -19.9362  -11.8722 O   0  0  0  0  0  0  0  0  0  0  0  0
  2  1  1  0
  2  3  2  0
  4  5  1  0
  4  2  1  0
  6  5  1  0
  7  6  1  0
  8  9  1  6
  8  7  1  0
 10  8  1  0
 10 11  2  0
 12 10  1  0
 13 12  1  0
 13 21  1  0
 13 14  1  6
 15 14  1  0
 16 15  2  0
 17 16  1  0
 18 17  2  0
 18 19  1  0
 19 20  2  0
 20 15  1  0
 21 28  1  0
 22 21  2  0
 24 23  1  1
 24 25  1  0
 24 26  1  0
 27 26  1  6
 27 29  1  0
 28 27  1  0
 29 31  2  0
 29 30  1  0
M  END
$$$$
