RFL.pdb
     RDKit          3D

 31 31  0  0  1  0  0  0  0  0999 V2000
   18.7894  -23.2399  -15.3814 N   0  0  0  0  0  0  0  0  0  0  0  0
   18.7290  -24.1296  -14.2552 C   0  0  0  0  0  0  0  0  0  0  0  0
   18.1523  -25.2905  -14.3475 N   0  0  0  0  0  0  0  0  0  0  0  0
   19.2908  -23.7831  -12.9992 N   0  0  0  0  0  0  0  0  0  0  0  0
   20.6381  -23.2915  -12.8260 C   0  0  0  0  0  0  0  0  0  0  0  0
   21.3966  -23.2289  -14.1496 C   0  0  0  0  0  0  0  0  0  0  0  0
   22.4392  -22.1566  -14.1005 C   0  0  0  0  0  0  0  0  0  0  0  0
   22.6717  -21.5439  -12.7682 C   0  0  2  0  0  0  0  0  0  0  0  0
   21.5524  -20.7973  -12.2404 N   0  0  0  0  0  0  0  0  0  0  0  0
   23.9688  -20.8333  -12.6294 C   0  0  0  0  0  0  0  0  0  0  0  0
   23.9500  -19.5856  -12.6728 O   0  0  0  0  0  0  0  0  0  0  0  0
   18.0936  -25.9279  -13.5300 N   0  0  0  0  0  0  0  0  0  0  0  0
   25.2087  -21.5104  -12.4534 C   0  0  2  0  0  0  0  0  0  0  0  0
   26.4904  -20.8366  -12.4402 C   0  0  0  0  0  0  0  0  0  0  0  0
   27.4252  -21.3576  -11.3710 C   0  0  0  0  0  0  0  0  0  0  0  0
   27.1239  -20.8798  -10.0232 C   0  0  0  0  0  0  0  0  0  0  0  0
   27.8695  -21.3248   -8.9531 C   0  0  0  0  0  0  0  0  0  0  0  0
   27.6136  -20.8931   -7.6629 C   0  0  0  0  0  0  0  0  0  0  0  0
   26.5921  -19.9915   -7.3936 C   0  0  0  0  0  0  0  0  0  0  0  0
   25.8510  -19.5513   -8.4697 C   0  0  0  0  0  0  0  0  0  0  0  0
   26.0979  -19.9753   -9.7600 C   0  0  0  0  0  0  0  0  0  0  0  0
   27.2011  -20.9986  -13.7397 O   0  0  0  0  0  0  0  0  0  0  0  0
   27.7889  -22.0824  -13.9500 C   0  0  0  0  0  0  0  0  0  0  0  0
   25.6572  -20.3921  -18.8844 C   0  0  2  0  0  0  0  0  0  0  0  0
   26.2025  -21.5114  -18.0060 C   0  0  0  0  0  0  0  0  0  0  0  0
   27.6896  -21.6307  -18.3724 C   0  0  0  0  0  0  0  0  0  0  0  0
   26.1064  -21.1085  -16.5659 C   0  0  2  0  0  0  0  0  0  0  0  0
   27.2590  -20.2577  -16.1649 N   0  0  0  0  0  0  0  0  0  0  0  0
   27.2240  -19.9794  -14.7133 C   0  0  0  0  0  0  0  0  0  0  0  0
   27.3265  -18.9837  -16.9099 O   0  0  0  0  0  0  0  0  0  0  0  0
   28.2704  -18.6639  -17.8602 O   0  0  0  0  0  0  0  0  0  0  0  0
  2  1  1  0
  2  3  2  0
  4  5  1  0
  4  2  1  0
  6  5  1  0
  7  6  1  0
  8  9  1  6
  8  7  1  0
 10  8  1  0
 10 11  2  0
 12 10  1  0
 13 12  1  0
 13 21  1  0
 13 14  1  6
 15 14  1  0
 16 15  2  0
 17 16  1  0
 18 17  2  0
 18 19  1  0
 19 20  2  0
 20 15  1  0
 21 28  1  0
 22 21  2  0
 24 23  1  6
 24 25  1  0
 24 26  1  0
 27 26  1  1
 27 29  1  0
 28 27  1  0
 29 31  2  0
 29 30  1  0
M  END
$$$$
