RFL.pdb
     RDKit          3D

 31 31  0  0  1  0  0  0  0  0999 V2000
   30.1796  -27.5814  -17.6272 N   0  0  0  0  0  0  0  0  0  0  0  0
   29.1072  -27.7897  -18.5601 C   0  0  0  0  0  0  0  0  0  0  0  0
   28.7703  -28.9864  -18.9388 N   0  0  0  0  0  0  0  0  0  0  0  0
   28.3732  -26.7060  -19.1078 N   0  0  0  0  0  0  0  0  0  0  0  0
   28.6206  -25.3195  -18.7864 C   0  0  0  0  0  0  0  0  0  0  0  0
   28.4427  -25.0394  -17.2961 C   0  0  0  0  0  0  0  0  0  0  0  0
   27.1421  -24.3412  -17.0505 C   0  0  0  0  0  0  0  0  0  0  0  0
   27.2430  -22.9550  -16.5281 C   0  0  2  0  0  0  0  0  0  0  0  0
   28.5438  -22.3436  -16.6783 N   0  0  0  0  0  0  0  0  0  0  0  0
   26.6527  -22.7551  -15.1798 C   0  0  0  0  0  0  0  0  0  0  0  0
   25.8417  -23.6128  -14.7726 O   0  0  0  0  0  0  0  0  0  0  0  0
   28.0458  -29.1354  -19.6674 N   0  0  0  0  0  0  0  0  0  0  0  0
   26.9710  -21.6419  -14.3514 C   0  0  1  0  0  0  0  0  0  0  0  0
   26.3967  -21.4350  -13.0382 C   0  0  0  0  0  0  0  0  0  0  0  0
   27.2402  -20.5434  -12.1539 C   0  0  0  0  0  0  0  0  0  0  0  0
   26.7351  -20.3970  -10.7904 C   0  0  0  0  0  0  0  0  0  0  0  0
   27.1232  -21.2887   -9.8138 C   0  0  0  0  0  0  0  0  0  0  0  0
   26.6660  -21.1805   -8.5117 C   0  0  0  0  0  0  0  0  0  0  0  0
   25.7952  -20.1662   -8.1352 C   0  0  0  0  0  0  0  0  0  0  0  0
   25.4121  -19.2784   -9.1181 C   0  0  0  0  0  0  0  0  0  0  0  0
   25.8620  -19.3773  -10.4193 C   0  0  0  0  0  0  0  0  0  0  0  0
   25.0546  -20.7940  -13.1287 O   0  0  0  0  0  0  0  0  0  0  0  0
   24.9882  -19.6527  -13.6361 C   0  0  0  0  0  0  0  0  0  0  0  0
   21.3219  -22.9269  -15.5053 C   0  0  1  0  0  0  0  0  0  0  0  0
   22.0977  -21.7841  -14.8620 C   0  0  0  0  0  0  0  0  0  0  0  0
   21.7713  -20.5426  -15.7060 C   0  0  0  0  0  0  0  0  0  0  0  0
   21.5867  -21.5527  -13.4725 C   0  0  2  0  0  0  0  0  0  0  0  0
   22.5618  -20.7761  -12.6606 N   0  0  0  0  0  0  0  0  0  0  0  0
   23.8865  -21.4324  -12.6649 C   0  0  0  0  0  0  0  0  0  0  0  0
   22.1196  -20.5669  -11.2666 O   0  0  0  0  0  0  0  0  0  0  0  0
   21.1034  -19.7269  -10.8691 O   0  0  0  0  0  0  0  0  0  0  0  0
  2  1  1  0
  2  3  2  0
  4  5  1  0
  4  2  1  0
  6  5  1  0
  7  6  1  0
  8  9  1  1
  8  7  1  0
 10  8  1  0
 10 11  2  0
 12 10  1  0
 13 12  1  0
 13 21  1  0
 13 14  1  6
 15 14  1  0
 16 15  2  0
 17 16  1  0
 18 17  2  0
 18 19  1  0
 19 20  2  0
 20 15  1  0
 21 28  1  0
 22 21  2  0
 24 23  1  6
 24 25  1  0
 24 26  1  0
 27 26  1  6
 27 29  1  0
 28 27  1  0
 29 31  2  0
 29 30  1  0
M  END
$$$$
