RFL.pdb
     RDKit          3D

 31 31  0  0  1  0  0  0  0  0999 V2000
   23.2756  -19.4135  -16.4175 N   0  0  0  0  0  0  0  0  0  0  0  0
   24.3430  -18.4523  -16.4044 C   0  0  0  0  0  0  0  0  0  0  0  0
   24.3612  -17.4584  -17.2415 N   0  0  0  0  0  0  0  0  0  0  0  0
   25.4192  -18.5444  -15.4844 N   0  0  0  0  0  0  0  0  0  0  0  0
   25.4698  -19.4904  -14.3938 C   0  0  0  0  0  0  0  0  0  0  0  0
   24.2790  -19.3370  -13.4506 C   0  0  0  0  0  0  0  0  0  0  0  0
   24.3571  -20.3451  -12.3474 C   0  0  0  0  0  0  0  0  0  0  0  0
   25.6643  -21.0322  -12.1931 C   0  0  2  0  0  0  0  0  0  0  0  0
   25.8445  -22.1900  -13.0391 N   0  0  0  0  0  0  0  0  0  0  0  0
   26.0825  -21.2624  -10.7865 C   0  0  0  0  0  0  0  0  0  0  0  0
   25.6785  -22.3036  -10.2281 O   0  0  0  0  0  0  0  0  0  0  0  0
   25.1492  -16.7825  -17.2561 N   0  0  0  0  0  0  0  0  0  0  0  0
   26.9101  -20.3558  -10.0654 C   0  0  2  0  0  0  0  0  0  0  0  0
   27.2669  -20.5362   -8.6736 C   0  0  0  0  0  0  0  0  0  0  0  0
   28.4143  -19.6535   -8.2345 C   0  0  0  0  0  0  0  0  0  0  0  0
   28.7348  -19.7466   -6.8117 C   0  0  0  0  0  0  0  0  0  0  0  0
   29.4918  -20.7993   -6.3447 C   0  0  0  0  0  0  0  0  0  0  0  0
   29.8158  -20.9195   -5.0042 C   0  0  0  0  0  0  0  0  0  0  0  0
   29.3899  -19.9816   -4.0727 C   0  0  0  0  0  0  0  0  0  0  0  0
   28.6331  -18.9316   -4.5481 C   0  0  0  0  0  0  0  0  0  0  0  0
   28.3045  -18.8023   -5.8825 C   0  0  0  0  0  0  0  0  0  0  0  0
   26.1212  -20.2194   -7.7751 O   0  0  0  0  0  0  0  0  0  0  0  0
   25.6402  -19.0663   -7.8306 C   0  0  0  0  0  0  0  0  0  0  0  0
   21.5862  -22.5960   -7.3622 C   0  0  1  0  0  0  0  0  0  0  0  0
   22.6776  -21.5400   -7.2370 C   0  0  0  0  0  0  0  0  0  0  0  0
   21.9397  -20.1933   -7.1920 C   0  0  0  0  0  0  0  0  0  0  0  0
   23.4012  -21.7206   -5.9373 C   0  0  2  0  0  0  0  0  0  0  0  0
   24.5853  -20.8244   -5.8493 N   0  0  0  0  0  0  0  0  0  0  0  0
   25.5817  -21.1704   -6.8853 C   0  0  0  0  0  0  0  0  0  0  0  0
   25.2294  -20.8429   -4.5198 O   0  0  0  0  0  0  0  0  0  0  0  0
   26.4712  -21.3692   -4.2418 O   0  0  0  0  0  0  0  0  0  0  0  0
  2  1  1  0
  2  3  2  0
  4  5  1  0
  4  2  1  0
  6  5  1  0
  7  6  1  0
  8  9  1  6
  8  7  1  0
 10  8  1  0
 10 11  2  0
 12 10  1  0
 13 12  1  0
 13 21  1  0
 13 14  1  6
 15 14  1  0
 16 15  2  0
 17 16  1  0
 18 17  2  0
 18 19  1  0
 19 20  2  0
 20 15  1  0
 21 28  1  0
 22 21  2  0
 24 23  1  6
 24 25  1  0
 24 26  1  0
 27 26  1  6
 27 29  1  0
 28 27  1  0
 29 31  2  0
 29 30  1  0
M  END
$$$$
