RFL.pdb
     RDKit          3D

 31 31  0  0  1  0  0  0  0  0999 V2000
   20.3459  -20.1623  -14.8618 N   0  0  0  0  0  0  0  0  0  0  0  0
   19.6078  -20.9790  -13.9390 C   0  0  0  0  0  0  0  0  0  0  0  0
   18.3101  -21.0344  -13.9816 N   0  0  0  0  0  0  0  0  0  0  0  0
   20.2572  -21.7555  -12.9448 N   0  0  0  0  0  0  0  0  0  0  0  0
   21.6918  -21.8660  -12.8167 C   0  0  0  0  0  0  0  0  0  0  0  0
   22.3295  -20.5456  -12.3911 C   0  0  0  0  0  0  0  0  0  0  0  0
   23.6026  -20.7998  -11.6469 C   0  0  0  0  0  0  0  0  0  0  0  0
   24.8298  -20.2243  -12.2531 C   0  0  2  0  0  0  0  0  0  0  0  0
   24.9009  -20.3280  -13.6928 N   0  0  0  0  0  0  0  0  0  0  0  0
   26.0949  -20.6050  -11.5742 C   0  0  0  0  0  0  0  0  0  0  0  0
   26.6582  -21.6537  -11.9508 O   0  0  0  0  0  0  0  0  0  0  0  0
   17.7759  -21.6345  -13.3239 N   0  0  0  0  0  0  0  0  0  0  0  0
   26.6765  -19.8331  -10.5288 C   0  0  1  0  0  0  0  0  0  0  0  0
   27.7678  -20.3044   -9.7019 C   0  0  0  0  0  0  0  0  0  0  0  0
   28.6688  -19.1910   -9.2149 C   0  0  0  0  0  0  0  0  0  0  0  0
   29.7074  -19.6222   -8.2816 C   0  0  0  0  0  0  0  0  0  0  0  0
   29.8699  -18.9643   -7.0816 C   0  0  0  0  0  0  0  0  0  0  0  0
   30.8421  -19.3453   -6.1727 C   0  0  0  0  0  0  0  0  0  0  0  0
   31.6958  -20.4091   -6.4340 C   0  0  0  0  0  0  0  0  0  0  0  0
   31.5267  -21.0619   -7.6366 C   0  0  0  0  0  0  0  0  0  0  0  0
   30.5605  -20.6901   -8.5497 C   0  0  0  0  0  0  0  0  0  0  0  0
   27.2638  -21.0035   -8.4864 O   0  0  0  0  0  0  0  0  0  0  0  0
   27.9585  -21.9331   -8.0201 C   0  0  0  0  0  0  0  0  0  0  0  0
   27.6023  -20.1345   -3.8267 C   0  0  1  0  0  0  0  0  0  0  0  0
   27.3012  -20.7891   -5.1693 C   0  0  0  0  0  0  0  0  0  0  0  0
   27.6950  -22.2645   -5.0019 C   0  0  0  0  0  0  0  0  0  0  0  0
   25.8283  -20.7255   -5.4374 C   0  0  2  0  0  0  0  0  0  0  0  0
   25.4837  -21.3924   -6.7218 N   0  0  0  0  0  0  0  0  0  0  0  0
   26.0488  -20.6470   -7.8666 C   0  0  0  0  0  0  0  0  0  0  0  0
   24.0290  -21.5637   -6.9145 O   0  0  0  0  0  0  0  0  0  0  0  0
   23.2857  -20.9972   -7.9259 O   0  0  0  0  0  0  0  0  0  0  0  0
  2  1  1  0
  2  3  2  0
  4  5  1  0
  4  2  1  0
  6  5  1  0
  7  6  1  0
  8  9  1  6
  8  7  1  0
 10  8  1  0
 10 11  2  0
 12 10  1  0
 13 12  1  0
 13 21  1  0
 13 14  1  1
 15 14  1  0
 16 15  2  0
 17 16  1  0
 18 17  2  0
 18 19  1  0
 19 20  2  0
 20 15  1  0
 21 28  1  0
 22 21  2  0
 24 23  1  6
 24 25  1  0
 24 26  1  0
 27 26  1  1
 27 29  1  0
 28 27  1  0
 29 31  2  0
 29 30  1  0
M  END
$$$$
