RFL.pdb
     RDKit          3D

 31 31  0  0  1  0  0  0  0  0999 V2000
   30.8799  -23.6226  -17.4986 N   0  0  0  0  0  0  0  0  0  0  0  0
   29.4859  -23.8748  -17.7372 C   0  0  0  0  0  0  0  0  0  0  0  0
   29.0887  -24.9864  -18.2807 N   0  0  0  0  0  0  0  0  0  0  0  0
   28.4866  -22.9277  -17.3943 N   0  0  0  0  0  0  0  0  0  0  0  0
   28.7654  -21.5622  -17.0145 C   0  0  0  0  0  0  0  0  0  0  0  0
   29.5465  -21.4830  -15.7049 C   0  0  0  0  0  0  0  0  0  0  0  0
   28.6515  -21.7944  -14.5468 C   0  0  0  0  0  0  0  0  0  0  0  0
   27.7134  -20.7146  -14.1483 C   0  0  2  0  0  0  0  0  0  0  0  0
   28.3468  -19.5073  -13.6690 N   0  0  0  0  0  0  0  0  0  0  0  0
   26.5795  -21.1598  -13.2981 C   0  0  0  0  0  0  0  0  0  0  0  0
   25.9826  -22.2038  -13.6338 O   0  0  0  0  0  0  0  0  0  0  0  0
   28.0843  -25.1583  -18.4801 N   0  0  0  0  0  0  0  0  0  0  0  0
   26.1562  -20.4521  -12.1376 C   0  0  1  0  0  0  0  0  0  0  0  0
   25.0127  -20.8414  -11.3390 C   0  0  0  0  0  0  0  0  0  0  0  0
   25.0949  -20.3589   -9.9076 C   0  0  0  0  0  0  0  0  0  0  0  0
   26.4029  -20.5468   -9.2835 C   0  0  0  0  0  0  0  0  0  0  0  0
   26.7836  -19.7446   -8.2295 C   0  0  0  0  0  0  0  0  0  0  0  0
   28.0140  -19.8944   -7.6132 C   0  0  0  0  0  0  0  0  0  0  0  0
   28.9176  -20.8620   -8.0330 C   0  0  0  0  0  0  0  0  0  0  0  0
   28.5290  -21.6603   -9.0879 C   0  0  0  0  0  0  0  0  0  0  0  0
   27.3045  -21.5193   -9.7094 C   0  0  0  0  0  0  0  0  0  0  0  0
   23.7472  -20.2899  -11.8998 O   0  0  0  0  0  0  0  0  0  0  0  0
   23.8274  -19.2790  -12.6320 C   0  0  0  0  0  0  0  0  0  0  0  0
   20.7187  -20.3543  -15.6054 C   0  0  2  0  0  0  0  0  0  0  0  0
   20.6039  -21.6448  -14.8035 C   0  0  0  0  0  0  0  0  0  0  0  0
   20.8355  -22.7769  -15.8158 C   0  0  0  0  0  0  0  0  0  0  0  0
   21.6997  -21.6984  -13.7829 C   0  0  1  0  0  0  0  0  0  0  0  0
   21.3760  -20.8588  -12.5982 N   0  0  0  0  0  0  0  0  0  0  0  0
   22.4916  -20.8703  -11.6280 C   0  0  0  0  0  0  0  0  0  0  0  0
   20.1288  -21.2682  -11.9203 O   0  0  0  0  0  0  0  0  0  0  0  0
   18.9598  -20.5408  -11.8925 O   0  0  0  0  0  0  0  0  0  0  0  0
  2  1  1  0
  2  3  2  0
  4  5  1  0
  4  2  1  0
  6  5  1  0
  7  6  1  0
  8  9  1  1
  8  7  1  0
 10  8  1  0
 10 11  2  0
 12 10  1  0
 13 12  1  0
 13 21  1  0
 13 14  1  1
 15 14  1  0
 16 15  2  0
 17 16  1  0
 18 17  2  0
 18 19  1  0
 19 20  2  0
 20 15  1  0
 21 28  1  0
 22 21  2  0
 24 23  1  6
 24 25  1  0
 24 26  1  0
 27 26  1  6
 27 29  1  0
 28 27  1  0
 29 31  2  0
 29 30  1  0
M  END
$$$$
