RFL.pdb
     RDKit          3D

 31 31  0  0  1  0  0  0  0  0999 V2000
   28.1093  -16.3910  -15.3761 N   0  0  0  0  0  0  0  0  0  0  0  0
   28.5546  -16.8057  -16.6773 C   0  0  0  0  0  0  0  0  0  0  0  0
   29.6033  -16.2722  -17.2291 N   0  0  0  0  0  0  0  0  0  0  0  0
   27.8737  -17.8084  -17.4149 N   0  0  0  0  0  0  0  0  0  0  0  0
   27.3914  -19.0439  -16.8423 C   0  0  0  0  0  0  0  0  0  0  0  0
   28.5339  -19.9954  -16.4952 C   0  0  0  0  0  0  0  0  0  0  0  0
   28.1716  -20.8306  -15.3075 C   0  0  0  0  0  0  0  0  0  0  0  0
   27.5006  -20.1122  -14.1947 C   0  0  2  0  0  0  0  0  0  0  0  0
   28.3941  -19.4248  -13.2905 N   0  0  0  0  0  0  0  0  0  0  0  0
   26.4469  -20.8933  -13.4975 C   0  0  0  0  0  0  0  0  0  0  0  0
   25.8987  -21.8176  -14.1333 O   0  0  0  0  0  0  0  0  0  0  0  0
   29.8919  -16.5275  -18.1932 N   0  0  0  0  0  0  0  0  0  0  0  0
   26.0461  -20.6305  -12.1569 C   0  0  2  0  0  0  0  0  0  0  0  0
   24.9538  -21.3191  -11.5016 C   0  0  0  0  0  0  0  0  0  0  0  0
   25.0558  -21.2954   -9.9924 C   0  0  0  0  0  0  0  0  0  0  0  0
   26.3370  -20.8103   -9.4835 C   0  0  0  0  0  0  0  0  0  0  0  0
   27.4780  -21.5616   -9.6651 C   0  0  0  0  0  0  0  0  0  0  0  0
   28.7088  -21.1334   -9.1978 C   0  0  0  0  0  0  0  0  0  0  0  0
   28.8442  -19.9260   -8.5250 C   0  0  0  0  0  0  0  0  0  0  0  0
   27.6979  -19.1806   -8.3476 C   0  0  0  0  0  0  0  0  0  0  0  0
   26.4660  -19.5982   -8.8096 C   0  0  0  0  0  0  0  0  0  0  0  0
   23.6410  -20.7047  -11.8469 O   0  0  0  0  0  0  0  0  0  0  0  0
   23.5236  -19.4672  -11.7082 C   0  0  0  0  0  0  0  0  0  0  0  0
   20.4928  -19.3760  -15.6005 C   0  0  2  0  0  0  0  0  0  0  0  0
   20.2554  -20.8374  -15.2403 C   0  0  0  0  0  0  0  0  0  0  0  0
   20.1778  -21.5815  -16.5822 C   0  0  0  0  0  0  0  0  0  0  0  0
   21.4356  -21.3633  -14.4813 C   0  0  1  0  0  0  0  0  0  0  0  0
   21.4275  -20.8866  -13.0721 N   0  0  0  0  0  0  0  0  0  0  0  0
   22.5549  -21.4716  -12.3153 C   0  0  0  0  0  0  0  0  0  0  0  0
   20.1600  -21.1741  -12.3697 O   0  0  0  0  0  0  0  0  0  0  0  0
   19.7916  -22.3978  -11.8565 O   0  0  0  0  0  0  0  0  0  0  0  0
  2  1  1  0
  2  3  2  0
  4  5  1  0
  4  2  1  0
  6  5  1  0
  7  6  1  0
  8  9  1  1
  8  7  1  0
 10  8  1  0
 10 11  2  0
 12 10  1  0
 13 12  1  0
 13 21  1  0
 13 14  1  1
 15 14  1  0
 16 15  2  0
 17 16  1  0
 18 17  2  0
 18 19  1  0
 19 20  2  0
 20 15  1  0
 21 28  1  0
 22 21  2  0
 24 23  1  6
 24 25  1  0
 24 26  1  0
 27 26  1  6
 27 29  1  0
 28 27  1  0
 29 31  2  0
 29 30  1  0
M  END
$$$$
