HKD.pdb
     RDKit          3D

 28 28  0  0  1  0  0  0  0  0999 V2000
   25.0839  -11.6931  -18.3109 N   0  0  0  0  0  0  0  0  0  0  0  0
   24.6657  -11.4474  -16.9424 C   0  0  1  0  0  0  0  0  0  0  0  0
   25.8674  -11.0962  -16.0728 C   0  0  0  0  0  0  0  0  0  0  0  0
   26.8784  -12.1505  -16.0358 C   0  0  0  0  0  0  0  0  0  0  0  0
   28.2218  -12.1003  -16.3745 C   0  0  0  0  0  0  0  0  0  0  0  0
   28.7324  -13.3399  -16.1684 N   0  0  0  0  0  0  0  0  0  0  0  0
   27.7349  -14.1193  -15.7197 C   0  0  0  0  0  0  0  0  0  0  0  0
   26.6167  -13.4112  -15.6374 N   0  0  0  0  0  0  0  0  0  0  0  0
   23.7200  -10.3089  -16.9553 C   0  0  0  0  0  0  0  0  0  0  0  0
   23.8664   -9.3261  -17.7169 O   0  0  0  0  0  0  0  0  0  0  0  0
   22.6101  -10.3223  -16.0839 N   0  0  0  0  0  0  0  0  0  0  0  0
   21.4969   -9.3884  -16.1302 C   0  0  1  0  0  0  0  0  0  0  0  0
   20.2042  -10.0726  -15.7804 C   0  0  0  0  0  0  0  0  0  0  0  0
   19.7976  -11.0083  -16.8530 C   0  0  0  0  0  0  0  0  0  0  0  0
   18.4289  -11.6060  -16.6966 C   0  0  0  0  0  0  0  0  0  0  0  0
   18.1139  -12.6324  -17.7595 C   0  0  0  0  0  0  0  0  0  0  0  0
   16.7340  -13.0482  -17.5431 N   0  0  0  0  0  0  0  0  0  0  0  0
   21.7864   -8.2294  -15.2590 C   0  0  0  0  0  0  0  0  0  0  0  0
   22.2743   -8.3111  -14.1003 O   0  0  0  0  0  0  0  0  0  0  0  0
   21.5252   -6.8842  -15.6883 N   0  0  0  0  0  0  0  0  0  0  0  0
   21.7122   -5.7319  -14.8042 C   0  0  1  0  0  0  0  0  0  0  0  0
   21.7133   -4.4557  -15.5716 C   0  0  0  0  0  0  0  0  0  0  0  0
   21.8936   -3.2991  -14.6839 C   0  0  0  0  0  0  0  0  0  0  0  0
   22.7226   -3.2539  -13.7167 O   0  0  0  0  0  0  0  0  0  0  0  0
   20.5748   -5.6898  -13.8217 C   0  0  0  0  0  0  0  0  0  0  0  0
   19.4533   -6.1721  -14.2020 O   0  0  0  0  0  0  0  0  0  0  0  0
   21.1446   -2.1190  -14.8287 O   0  0  0  0  0  0  0  0  0  0  0  0
   20.6399   -5.1801  -12.5596 O   0  0  0  0  0  0  0  0  0  0  0  0
  2  1  1  6
  3  4  1  0
  3  2  1  0
  4  5  2  0
  6  5  1  0
  7  6  1  0
  8  7  2  0
  8  4  1  0
  9 11  1  0
  9  2  1  0
 10  9  2  0
 12 11  1  0
 12 13  1  1
 13 14  1  0
 14 15  1  0
 15 16  1  0
 17 16  1  0
 18 12  1  0
 19 18  2  0
 20 18  1  0
 21 25  1  0
 21 20  1  0
 21 22  1  6
 23 27  1  0
 23 22  1  0
 24 23  2  0
 25 28  1  0
 26 25  2  0
M  END
$$$$
