HKD.pdb
     RDKit          3D

 28 28  0  0  1  0  0  0  0  0999 V2000
   19.3993  -13.3485  -15.8029 N   0  0  0  0  0  0  0  0  0  0  0  0
   18.6883  -12.0987  -16.0042 C   0  0  1  0  0  0  0  0  0  0  0  0
   17.4471  -12.0432  -15.1210 C   0  0  0  0  0  0  0  0  0  0  0  0
   16.4183  -13.0035  -15.5138 C   0  0  0  0  0  0  0  0  0  0  0  0
   16.4169  -13.9245  -16.5501 C   0  0  0  0  0  0  0  0  0  0  0  0
   15.2315  -14.5817  -16.4991 N   0  0  0  0  0  0  0  0  0  0  0  0
   14.5339  -14.0790  -15.4675 C   0  0  0  0  0  0  0  0  0  0  0  0
   15.2408  -13.1294  -14.8700 N   0  0  0  0  0  0  0  0  0  0  0  0
   19.6018  -10.9936  -15.6367 C   0  0  0  0  0  0  0  0  0  0  0  0
   20.1699  -10.9378  -14.5225 O   0  0  0  0  0  0  0  0  0  0  0  0
   19.8492   -9.9626  -16.5679 N   0  0  0  0  0  0  0  0  0  0  0  0
   20.8349   -8.9062  -16.4065 C   0  0  1  0  0  0  0  0  0  0  0  0
   22.1061   -9.2385  -17.1381 C   0  0  0  0  0  0  0  0  0  0  0  0
   22.4798   -8.1467  -18.0653 C   0  0  0  0  0  0  0  0  0  0  0  0
   23.7455   -8.3710  -18.8416 C   0  0  0  0  0  0  0  0  0  0  0  0
   24.1656   -7.1581  -19.6384 C   0  0  0  0  0  0  0  0  0  0  0  0
   25.3170   -7.5604  -20.4361 N   0  0  0  0  0  0  0  0  0  0  0  0
   20.2509   -7.6153  -16.8288 C   0  0  0  0  0  0  0  0  0  0  0  0
   19.7041   -7.4099  -17.9451 O   0  0  0  0  0  0  0  0  0  0  0  0
   20.2643   -6.4675  -15.9658 N   0  0  0  0  0  0  0  0  0  0  0  0
   19.7128   -5.1748  -16.3769 C   0  0  1  0  0  0  0  0  0  0  0  0
   18.8340   -4.6008  -15.3206 C   0  0  0  0  0  0  0  0  0  0  0  0
   18.2817   -3.3033  -15.7324 C   0  0  0  0  0  0  0  0  0  0  0  0
   18.1237   -2.9376  -16.9432 O   0  0  0  0  0  0  0  0  0  0  0  0
   20.8500   -4.2200  -16.6135 C   0  0  0  0  0  0  0  0  0  0  0  0
   21.9324   -4.4249  -15.9643 O   0  0  0  0  0  0  0  0  0  0  0  0
   17.8762   -2.3318  -14.8017 O   0  0  0  0  0  0  0  0  0  0  0  0
   20.8229   -3.1542  -17.4623 O   0  0  0  0  0  0  0  0  0  0  0  0
  2  1  1  1
  3  4  1  0
  3  2  1  0
  4  5  2  0
  6  5  1  0
  7  6  1  0
  8  7  2  0
  8  4  1  0
  9 11  1  0
  9  2  1  0
 10  9  2  0
 12 11  1  0
 12 13  1  6
 13 14  1  0
 14 15  1  0
 15 16  1  0
 17 16  1  0
 18 12  1  0
 19 18  2  0
 20 18  1  0
 21 25  1  0
 21 20  1  0
 21 22  1  1
 23 27  1  0
 23 22  1  0
 24 23  2  0
 25 28  1  0
 26 25  2  0
M  END
$$$$
