HKD.pdb
     RDKit          3D

 28 28  0  0  1  0  0  0  0  0999 V2000
   44.1504  -14.2264   -7.9782 N   0  0  0  0  0  0  0  0  0  0  0  0
   43.8783  -12.9496   -8.6137 C   0  0  1  0  0  0  0  0  0  0  0  0
   42.8728  -13.1215   -9.7465 C   0  0  0  0  0  0  0  0  0  0  0  0
   43.4292  -13.8081  -10.9101 C   0  0  0  0  0  0  0  0  0  0  0  0
   44.7077  -14.3022  -11.1184 C   0  0  0  0  0  0  0  0  0  0  0  0
   44.7267  -14.8515  -12.3584 N   0  0  0  0  0  0  0  0  0  0  0  0
   43.5023  -14.6977  -12.8882 C   0  0  0  0  0  0  0  0  0  0  0  0
   42.7163  -14.0711  -12.0234 N   0  0  0  0  0  0  0  0  0  0  0  0
   43.3121  -12.0449   -7.5882 C   0  0  0  0  0  0  0  0  0  0  0  0
   42.3987  -12.4032   -6.8108 O   0  0  0  0  0  0  0  0  0  0  0  0
   43.8134  -10.7308   -7.4733 N   0  0  0  0  0  0  0  0  0  0  0  0
   43.3366   -9.7313   -6.5313 C   0  0  1  0  0  0  0  0  0  0  0  0
   44.4855   -9.0467   -5.8439 C   0  0  0  0  0  0  0  0  0  0  0  0
   43.9958   -8.0066   -4.9111 C   0  0  0  0  0  0  0  0  0  0  0  0
   45.0655   -7.2028   -4.2295 C   0  0  0  0  0  0  0  0  0  0  0  0
   44.5052   -6.1672   -3.2829 C   0  0  0  0  0  0  0  0  0  0  0  0
   45.6460   -5.4678   -2.7057 N   0  0  0  0  0  0  0  0  0  0  0  0
   42.4379   -8.7850   -7.2263 C   0  0  0  0  0  0  0  0  0  0  0  0
   42.6955   -8.2349   -8.3300 O   0  0  0  0  0  0  0  0  0  0  0  0
   41.1644   -8.4166   -6.6742 N   0  0  0  0  0  0  0  0  0  0  0  0
   40.2594   -7.4857   -7.3514 C   0  0  1  0  0  0  0  0  0  0  0  0
   38.8456   -7.7106   -6.9413 C   0  0  0  0  0  0  0  0  0  0  0  0
   37.9316   -6.8137   -7.6612 C   0  0  0  0  0  0  0  0  0  0  0  0
   38.2986   -5.9499   -8.5237 O   0  0  0  0  0  0  0  0  0  0  0  0
   40.6419   -6.0817   -6.9730 C   0  0  0  0  0  0  0  0  0  0  0  0
   41.0422   -5.8858   -5.7745 O   0  0  0  0  0  0  0  0  0  0  0  0
   36.5426   -6.8313   -7.4495 O   0  0  0  0  0  0  0  0  0  0  0  0
   40.5970   -5.0005   -7.8013 O   0  0  0  0  0  0  0  0  0  0  0  0
  2  1  1  1
  3  4  1  0
  3  2  1  0
  4  5  2  0
  6  5  1  0
  7  6  1  0
  8  7  2  0
  8  4  1  0
  9 11  1  0
  9  2  1  0
 10  9  2  0
 12 11  1  0
 12 13  1  6
 13 14  1  0
 14 15  1  0
 15 16  1  0
 17 16  1  0
 18 12  1  0
 19 18  2  0
 20 18  1  0
 21 25  1  0
 21 20  1  0
 21 22  1  1
 23 27  1  0
 23 22  1  0
 24 23  2  0
 25 28  1  0
 26 25  2  0
M  END
$$$$
