HKD.pdb
     RDKit          3D

 28 28  0  0  1  0  0  0  0  0999 V2000
   27.7902  -21.4076  -15.8266 N   0  0  0  0  0  0  0  0  0  0  0  0
   27.3681  -20.4535  -14.8169 C   0  0  1  0  0  0  0  0  0  0  0  0
   27.0207  -19.1157  -15.4596 C   0  0  0  0  0  0  0  0  0  0  0  0
   26.2295  -19.2523  -16.6804 C   0  0  0  0  0  0  0  0  0  0  0  0
   24.9754  -19.8143  -16.8638 C   0  0  0  0  0  0  0  0  0  0  0  0
   24.6748  -19.6994  -18.1814 N   0  0  0  0  0  0  0  0  0  0  0  0
   25.7097  -19.0887  -18.7811 C   0  0  0  0  0  0  0  0  0  0  0  0
   26.6486  -18.8167  -17.8850 N   0  0  0  0  0  0  0  0  0  0  0  0
   26.1674  -21.0031  -14.1484 C   0  0  0  0  0  0  0  0  0  0  0  0
   25.4684  -21.9049  -14.6638 O   0  0  0  0  0  0  0  0  0  0  0  0
   25.7891  -20.5014  -12.8848 N   0  0  0  0  0  0  0  0  0  0  0  0
   24.6731  -20.9874  -12.0899 C   0  0  1  0  0  0  0  0  0  0  0  0
   24.7438  -20.4614  -10.6828 C   0  0  0  0  0  0  0  0  0  0  0  0
   25.9831  -20.9164  -10.0131 C   0  0  0  0  0  0  0  0  0  0  0  0
   26.1384  -20.4761   -8.5859 C   0  0  0  0  0  0  0  0  0  0  0  0
   27.4202  -20.9704   -7.9574 C   0  0  0  0  0  0  0  0  0  0  0  0
   27.4952  -20.3685   -6.6323 N   0  0  0  0  0  0  0  0  0  0  0  0
   23.4012  -20.6512  -12.7646 C   0  0  0  0  0  0  0  0  0  0  0  0
   23.1826  -19.5746  -13.3813 O   0  0  0  0  0  0  0  0  0  0  0  0
   22.2896  -21.5604  -12.7664 N   0  0  0  0  0  0  0  0  0  0  0  0
   21.0275  -21.2497  -13.4409 C   0  0  1  0  0  0  0  0  0  0  0  0
   20.4755  -22.4465  -14.1340 C   0  0  0  0  0  0  0  0  0  0  0  0
   19.2390  -22.1214  -14.8577 C   0  0  0  0  0  0  0  0  0  0  0  0
   18.6815  -20.9752  -14.8555 O   0  0  0  0  0  0  0  0  0  0  0  0
   20.0292  -20.8000  -12.4103 C   0  0  0  0  0  0  0  0  0  0  0  0
   20.1716  -21.2483  -11.2213 O   0  0  0  0  0  0  0  0  0  0  0  0
   18.5490  -23.0729  -15.6279 O   0  0  0  0  0  0  0  0  0  0  0  0
   18.9851  -19.9545  -12.6384 O   0  0  0  0  0  0  0  0  0  0  0  0
  2  1  1  6
  3  4  1  0
  3  2  1  0
  4  5  2  0
  6  5  1  0
  7  6  1  0
  8  7  2  0
  8  4  1  0
  9 11  1  0
  9  2  1  0
 10  9  2  0
 12 11  1  0
 12 13  1  1
 13 14  1  0
 14 15  1  0
 15 16  1  0
 17 16  1  0
 18 12  1  0
 19 18  2  0
 20 18  1  0
 21 25  1  0
 21 20  1  0
 21 22  1  1
 23 27  1  0
 23 22  1  0
 24 23  2  0
 25 28  1  0
 26 25  2  0
M  END
$$$$
