HKD.pdb
     RDKit          3D

 28 28  0  0  1  0  0  0  0  0999 V2000
   18.6505  -14.5235  -17.6947 N   0  0  0  0  0  0  0  0  0  0  0  0
   19.3713  -13.4409  -18.3401 C   0  0  1  0  0  0  0  0  0  0  0  0
   18.4129  -12.5621  -19.1355 C   0  0  0  0  0  0  0  0  0  0  0  0
   17.8064  -13.2535  -20.2709 C   0  0  0  0  0  0  0  0  0  0  0  0
   17.6460  -14.6120  -20.4967 C   0  0  0  0  0  0  0  0  0  0  0  0
   17.0265  -14.7472  -21.6957 N   0  0  0  0  0  0  0  0  0  0  0  0
   16.8164  -13.5141  -22.1844 C   0  0  0  0  0  0  0  0  0  0  0  0
   17.2826  -12.6104  -21.3333 N   0  0  0  0  0  0  0  0  0  0  0  0
   20.0155  -12.6314  -17.2816 C   0  0  0  0  0  0  0  0  0  0  0  0
   19.3853  -12.2084  -16.2860 O   0  0  0  0  0  0  0  0  0  0  0  0
   21.3880  -12.3211  -17.3877 N   0  0  0  0  0  0  0  0  0  0  0  0
   22.1608  -11.5892  -16.3973 C   0  0  1  0  0  0  0  0  0  0  0  0
   23.6160  -11.9620  -16.4657 C   0  0  0  0  0  0  0  0  0  0  0  0
   23.8341  -13.3279  -15.9382 C   0  0  0  0  0  0  0  0  0  0  0  0
   25.1933  -13.9080  -16.2050 C   0  0  0  0  0  0  0  0  0  0  0  0
   25.3311  -15.3279  -15.7078 C   0  0  0  0  0  0  0  0  0  0  0  0
   26.6521  -15.7877  -16.1171 N   0  0  0  0  0  0  0  0  0  0  0  0
   21.9321  -10.1381  -16.5646 C   0  0  0  0  0  0  0  0  0  0  0  0
   21.9167   -9.5406  -17.6736 O   0  0  0  0  0  0  0  0  0  0  0  0
   21.7011   -9.2799  -15.4365 N   0  0  0  0  0  0  0  0  0  0  0  0
   21.3962   -7.8557  -15.5881 C   0  0  1  0  0  0  0  0  0  0  0  0
   20.1406   -7.6505  -16.3619 C   0  0  0  0  0  0  0  0  0  0  0  0
   19.7954   -6.2253  -16.4513 C   0  0  0  0  0  0  0  0  0  0  0  0
   20.4080   -5.3787  -17.1811 O   0  0  0  0  0  0  0  0  0  0  0  0
   21.2111   -7.2553  -14.2220 C   0  0  0  0  0  0  0  0  0  0  0  0
   21.1151   -5.9823  -14.1491 O   0  0  0  0  0  0  0  0  0  0  0  0
   18.7373   -5.6628  -15.7174 O   0  0  0  0  0  0  0  0  0  0  0  0
   21.1373   -7.9553  -13.0551 O   0  0  0  0  0  0  0  0  0  0  0  0
  2  1  1  1
  3  4  1  0
  3  2  1  0
  4  5  2  0
  6  5  1  0
  7  6  1  0
  8  7  2  0
  8  4  1  0
  9 11  1  0
  9  2  1  0
 10  9  2  0
 12 11  1  0
 12 13  1  6
 13 14  1  0
 14 15  1  0
 15 16  1  0
 17 16  1  0
 18 12  1  0
 19 18  2  0
 20 18  1  0
 21 25  1  0
 21 20  1  0
 21 22  1  6
 23 27  1  0
 23 22  1  0
 24 23  2  0
 25 28  1  0
 26 25  2  0
M  END
$$$$
