HKD.pdb
     RDKit          3D

 28 28  0  0  1  0  0  0  0  0999 V2000
   21.3953  -28.1329  -13.5159 N   0  0  0  0  0  0  0  0  0  0  0  0
   21.2324  -27.1852  -14.6038 C   0  0  1  0  0  0  0  0  0  0  0  0
   19.7685  -27.0976  -15.0197 C   0  0  0  0  0  0  0  0  0  0  0  0
   19.3065  -28.2759  -15.7498 C   0  0  0  0  0  0  0  0  0  0  0  0
   19.3728  -28.5592  -17.1054 C   0  0  0  0  0  0  0  0  0  0  0  0
   18.8069  -29.7785  -17.2869 N   0  0  0  0  0  0  0  0  0  0  0  0
   18.4092  -30.2235  -16.0839 C   0  0  0  0  0  0  0  0  0  0  0  0
   18.7061  -29.3255  -15.1544 N   0  0  0  0  0  0  0  0  0  0  0  0
   21.6858  -25.8610  -14.1225 C   0  0  0  0  0  0  0  0  0  0  0  0
   21.3966  -25.4280  -12.9840 O   0  0  0  0  0  0  0  0  0  0  0  0
   22.4734  -25.0508  -14.9679 N   0  0  0  0  0  0  0  0  0  0  0  0
   23.0249  -23.7541  -14.6103 C   0  0  1  0  0  0  0  0  0  0  0  0
   24.3022  -23.4867  -15.3576 C   0  0  0  0  0  0  0  0  0  0  0  0
   24.8800  -22.1826  -14.9614 C   0  0  0  0  0  0  0  0  0  0  0  0
   26.1240  -21.7822  -15.7012 C   0  0  0  0  0  0  0  0  0  0  0  0
   26.6732  -20.4510  -15.2443 C   0  0  0  0  0  0  0  0  0  0  0  0
   27.9030  -20.2269  -15.9935 N   0  0  0  0  0  0  0  0  0  0  0  0
   22.0046  -22.7058  -14.8251 C   0  0  0  0  0  0  0  0  0  0  0  0
   21.4094  -22.5014  -15.9165 O   0  0  0  0  0  0  0  0  0  0  0  0
   21.6056  -21.8193  -13.7681 N   0  0  0  0  0  0  0  0  0  0  0  0
   20.6930  -20.6964  -13.9933 C   0  0  1  0  0  0  0  0  0  0  0  0
   19.6850  -20.5912  -12.9022 C   0  0  0  0  0  0  0  0  0  0  0  0
   18.5044  -21.4186  -13.1844 C   0  0  0  0  0  0  0  0  0  0  0  0
   18.2943  -22.0245  -14.2860 O   0  0  0  0  0  0  0  0  0  0  0  0
   21.4934  -19.4238  -14.0194 C   0  0  0  0  0  0  0  0  0  0  0  0
   22.6048  -19.4170  -13.3871 O   0  0  0  0  0  0  0  0  0  0  0  0
   17.4813  -21.6115  -12.2408 O   0  0  0  0  0  0  0  0  0  0  0  0
   21.1326  -18.2768  -14.6608 O   0  0  0  0  0  0  0  0  0  0  0  0
  2  1  1  1
  3  4  1  0
  3  2  1  0
  4  5  2  0
  6  5  1  0
  7  6  1  0
  8  7  2  0
  8  4  1  0
  9 11  1  0
  9  2  1  0
 10  9  2  0
 12 11  1  0
 12 13  1  6
 13 14  1  0
 14 15  1  0
 15 16  1  0
 17 16  1  0
 18 12  1  0
 19 18  2  0
 20 18  1  0
 21 25  1  0
 21 20  1  0
 21 22  1  1
 23 27  1  0
 23 22  1  0
 24 23  2  0
 25 28  1  0
 26 25  2  0
M  END
$$$$
