HKD.pdb
     RDKit          3D

 28 28  0  0  1  0  0  0  0  0999 V2000
   27.2758  -21.8459  -16.5591 N   0  0  0  0  0  0  0  0  0  0  0  0
   27.0741  -20.7377  -15.6430 C   0  0  1  0  0  0  0  0  0  0  0  0
   26.2675  -19.6317  -16.3135 C   0  0  0  0  0  0  0  0  0  0  0  0
   26.9980  -18.9540  -17.3822 C   0  0  0  0  0  0  0  0  0  0  0  0
   27.0682  -19.2536  -18.7340 C   0  0  0  0  0  0  0  0  0  0  0  0
   27.8770  -18.3277  -19.3070 N   0  0  0  0  0  0  0  0  0  0  0  0
   28.2861  -17.4923  -18.3383 C   0  0  0  0  0  0  0  0  0  0  0  0
   27.7618  -17.8624  -17.1778 N   0  0  0  0  0  0  0  0  0  0  0  0
   26.3273  -21.2486  -14.4717 C   0  0  0  0  0  0  0  0  0  0  0  0
   25.5543  -22.2304  -14.5474 O   0  0  0  0  0  0  0  0  0  0  0  0
   26.4859  -20.6151  -13.2207 N   0  0  0  0  0  0  0  0  0  0  0  0
   25.7857  -20.9822  -12.0006 C   0  0  1  0  0  0  0  0  0  0  0  0
   26.4923  -20.4391  -10.7893 C   0  0  0  0  0  0  0  0  0  0  0  0
   25.8389  -20.9068   -9.5460 C   0  0  0  0  0  0  0  0  0  0  0  0
   26.4558  -20.4069   -8.2714 C   0  0  0  0  0  0  0  0  0  0  0  0
   25.8358  -21.0246   -7.0399 C   0  0  0  0  0  0  0  0  0  0  0  0
   26.4751  -20.3970   -5.8905 N   0  0  0  0  0  0  0  0  0  0  0  0
   24.3765  -20.5433  -12.0874 C   0  0  0  0  0  0  0  0  0  0  0  0
   23.7784  -19.8818  -11.1975 O   0  0  0  0  0  0  0  0  0  0  0  0
   23.5647  -20.8484  -13.2320 N   0  0  0  0  0  0  0  0  0  0  0  0
   22.1908  -20.3603  -13.3676 C   0  0  1  0  0  0  0  0  0  0  0  0
   22.1158  -19.2102  -14.3106 C   0  0  0  0  0  0  0  0  0  0  0  0
   20.7329  -18.7414  -14.4720 C   0  0  0  0  0  0  0  0  0  0  0  0
   20.0124  -18.2799  -13.5272 O   0  0  0  0  0  0  0  0  0  0  0  0
   21.3368  -21.4719  -13.9116 C   0  0  0  0  0  0  0  0  0  0  0  0
   21.9147  -22.3567  -14.6316 O   0  0  0  0  0  0  0  0  0  0  0  0
   20.0722  -18.7681  -15.7118 O   0  0  0  0  0  0  0  0  0  0  0  0
   19.9980  -21.6145  -13.7013 O   0  0  0  0  0  0  0  0  0  0  0  0
  2  1  1  6
  3  4  1  0
  3  2  1  0
  4  5  2  0
  6  5  1  0
  7  6  1  0
  8  7  2  0
  8  4  1  0
  9 11  1  0
  9  2  1  0
 10  9  2  0
 12 11  1  0
 12 13  1  1
 13 14  1  0
 14 15  1  0
 15 16  1  0
 17 16  1  0
 18 12  1  0
 19 18  2  0
 20 18  1  0
 21 25  1  0
 21 20  1  0
 21 22  1  6
 23 27  1  0
 23 22  1  0
 24 23  2  0
 25 28  1  0
 26 25  2  0
M  END
$$$$
