HKD.pdb
     RDKit          3D

 28 28  0  0  1  0  0  0  0  0999 V2000
   24.7847  -17.3085  -19.4992 N   0  0  0  0  0  0  0  0  0  0  0  0
   24.2118  -16.9338  -18.2188 C   0  0  1  0  0  0  0  0  0  0  0  0
   22.9821  -16.0562  -18.4213 C   0  0  0  0  0  0  0  0  0  0  0  0
   23.2932  -14.7585  -19.0164 C   0  0  0  0  0  0  0  0  0  0  0  0
   22.9219  -14.2371  -20.2462 C   0  0  0  0  0  0  0  0  0  0  0  0
   23.4625  -12.9962  -20.3338 N   0  0  0  0  0  0  0  0  0  0  0  0
   24.1401  -12.7685  -19.1968 C   0  0  0  0  0  0  0  0  0  0  0  0
   24.0431  -13.8237  -18.3996 N   0  0  0  0  0  0  0  0  0  0  0  0
   23.8178  -18.1765  -17.5180 C   0  0  0  0  0  0  0  0  0  0  0  0
   23.0966  -19.0476  -18.0550 O   0  0  0  0  0  0  0  0  0  0  0  0
   24.2665  -18.3979  -16.1984 N   0  0  0  0  0  0  0  0  0  0  0  0
   23.9043  -19.5364  -15.3700 C   0  0  1  0  0  0  0  0  0  0  0  0
   24.9009  -19.7355  -14.2616 C   0  0  0  0  0  0  0  0  0  0  0  0
   24.6133  -20.9800  -13.5133 C   0  0  0  0  0  0  0  0  0  0  0  0
   24.8577  -22.2535  -14.2706 C   0  0  0  0  0  0  0  0  0  0  0  0
   24.5938  -23.4877  -13.4401 C   0  0  0  0  0  0  0  0  0  0  0  0
   24.9608  -24.6323  -14.2641 N   0  0  0  0  0  0  0  0  0  0  0  0
   22.5214  -19.3681  -14.8745 C   0  0  0  0  0  0  0  0  0  0  0  0
   21.9846  -18.2574  -14.6188 O   0  0  0  0  0  0  0  0  0  0  0  0
   21.6640  -20.4969  -14.6449 N   0  0  0  0  0  0  0  0  0  0  0  0
   20.2137  -20.3589  -14.4970 C   0  0  1  0  0  0  0  0  0  0  0  0
   19.6174  -19.6407  -15.6573 C   0  0  0  0  0  0  0  0  0  0  0  0
   18.1540  -19.5720  -15.5480 C   0  0  0  0  0  0  0  0  0  0  0  0
   17.5208  -18.6916  -14.8783 O   0  0  0  0  0  0  0  0  0  0  0  0
   19.6042  -21.7317  -14.4291 C   0  0  0  0  0  0  0  0  0  0  0  0
   20.0441  -22.6098  -15.2479 O   0  0  0  0  0  0  0  0  0  0  0  0
   17.3104  -20.4976  -16.1854 O   0  0  0  0  0  0  0  0  0  0  0  0
   18.6216  -22.1178  -13.5674 O   0  0  0  0  0  0  0  0  0  0  0  0
  2  1  1  6
  3  4  1  0
  3  2  1  0
  4  5  2  0
  6  5  1  0
  7  6  1  0
  8  7  2  0
  8  4  1  0
  9 11  1  0
  9  2  1  0
 10  9  2  0
 12 11  1  0
 12 13  1  1
 13 14  1  0
 14 15  1  0
 15 16  1  0
 17 16  1  0
 18 12  1  0
 19 18  2  0
 20 18  1  0
 21 25  1  0
 21 20  1  0
 21 22  1  6
 23 27  1  0
 23 22  1  0
 24 23  2  0
 25 28  1  0
 26 25  2  0
M  END
$$$$
