HKD.pdb
     RDKit          3D

 28 28  0  0  1  0  0  0  0  0999 V2000
   21.1812  -21.3342  -14.4294 N   0  0  0  0  0  0  0  0  0  0  0  0
   20.3007  -20.1833  -14.5199 C   0  0  1  0  0  0  0  0  0  0  0  0
   19.4734  -20.0437  -13.2472 C   0  0  0  0  0  0  0  0  0  0  0  0
   18.4586  -21.0850  -13.1037 C   0  0  0  0  0  0  0  0  0  0  0  0
   18.1385  -22.1319  -13.9544 C   0  0  0  0  0  0  0  0  0  0  0  0
   17.1240  -22.8213  -13.3756 N   0  0  0  0  0  0  0  0  0  0  0  0
   16.8350  -22.2159  -12.2122 C   0  0  0  0  0  0  0  0  0  0  0  0
   17.6332  -21.1708  -12.0415 N   0  0  0  0  0  0  0  0  0  0  0  0
   21.1448  -18.9796  -14.6909 C   0  0  0  0  0  0  0  0  0  0  0  0
   20.9264  -17.9153  -14.0690 O   0  0  0  0  0  0  0  0  0  0  0  0
   22.2378  -19.0229  -15.5825 N   0  0  0  0  0  0  0  0  0  0  0  0
   23.1444  -17.9186  -15.8512 C   0  0  1  0  0  0  0  0  0  0  0  0
   24.3751  -18.3946  -16.5725 C   0  0  0  0  0  0  0  0  0  0  0  0
   25.2137  -19.2318  -15.6851 C   0  0  0  0  0  0  0  0  0  0  0  0
   26.4425  -19.8112  -16.3248 C   0  0  0  0  0  0  0  0  0  0  0  0
   27.2494  -20.6648  -15.3747 C   0  0  0  0  0  0  0  0  0  0  0  0
   28.3600  -21.2112  -16.1441 N   0  0  0  0  0  0  0  0  0  0  0  0
   22.4253  -16.8549  -16.5845 C   0  0  0  0  0  0  0  0  0  0  0  0
   21.5318  -17.0617  -17.4483 O   0  0  0  0  0  0  0  0  0  0  0  0
   22.7028  -15.4650  -16.3534 N   0  0  0  0  0  0  0  0  0  0  0  0
   21.9751  -14.3980  -17.0437 C   0  0  1  0  0  0  0  0  0  0  0  0
   21.7579  -13.2261  -16.1510 C   0  0  0  0  0  0  0  0  0  0  0  0
   21.0550  -12.1436  -16.8526 C   0  0  0  0  0  0  0  0  0  0  0  0
   21.6315  -11.2122  -17.5044 O   0  0  0  0  0  0  0  0  0  0  0  0
   22.7893  -13.9463  -18.2243 C   0  0  0  0  0  0  0  0  0  0  0  0
   22.1589  -13.4204  -19.2047 O   0  0  0  0  0  0  0  0  0  0  0  0
   19.6536  -12.0404  -16.8591 O   0  0  0  0  0  0  0  0  0  0  0  0
   24.1434  -14.0510  -18.3364 O   0  0  0  0  0  0  0  0  0  0  0  0
  2  1  1  1
  3  4  1  0
  3  2  1  0
  4  5  2  0
  6  5  1  0
  7  6  1  0
  8  7  2  0
  8  4  1  0
  9 11  1  0
  9  2  1  0
 10  9  2  0
 12 11  1  0
 12 13  1  6
 13 14  1  0
 14 15  1  0
 15 16  1  0
 17 16  1  0
 18 12  1  0
 19 18  2  0
 20 18  1  0
 21 25  1  0
 21 20  1  0
 21 22  1  1
 23 27  1  0
 23 22  1  0
 24 23  2  0
 25 28  1  0
 26 25  2  0
M  END
$$$$
