GMV.pdb
     RDKit          3D

 20 19  0  0  1  0  0  0  0  0999 V2000
   10.5505  -16.2503   20.1503 N   0  0  0  0  0  0  0  0  0  0  0  0
    9.3017  -16.4014   20.8377 C   0  0  0  0  0  0  0  0  0  0  0  0
    9.3579  -15.8067   22.2108 C   0  0  0  0  0  0  0  0  0  0  0  0
   10.4261  -15.5006   22.7730 O   0  0  0  0  0  0  0  0  0  0  0  0
    7.1268  -11.7941   27.8091 C   0  0  0  0  0  0  0  0  0  0  0  0
    7.4486  -12.4018   26.1319 S   0  0  0  0  0  0  0  0  0  0  0  0
    6.6200  -14.0206   25.9810 C   0  0  0  0  0  0  0  0  0  0  0  0
    6.7834  -14.5742   24.6090 C   0  0  0  0  0  0  0  0  0  0  0  0
    8.1892  -14.9566   24.2364 C   0  0  2  0  0  0  0  0  0  0  0  0
    8.1370  -15.5826   22.9013 N   0  0  0  0  0  0  0  0  0  0  0  0
    8.7621  -15.9620   25.1795 C   0  0  0  0  0  0  0  0  0  0  0  0
    8.3344  -17.1424   25.2495 O   0  0  0  0  0  0  0  0  0  0  0  0
   12.6460  -16.5232   25.6796 C   0  0  0  0  0  0  0  0  0  0  0  0
   11.9844  -16.3921   26.9864 C   0  0  1  0  0  0  0  0  0  0  0  0
   12.3935  -15.0812   27.6148 C   0  0  0  0  0  0  0  0  0  0  0  0
   10.5072  -16.5760   26.9137 C   0  0  2  0  0  0  0  0  0  0  0  0
    9.8485  -15.6193   26.0665 N   0  0  0  0  0  0  0  0  0  0  0  0
    9.8895  -16.5863   28.2724 C   0  0  0  0  0  0  0  0  0  0  0  0
    9.1188  -15.6801   28.6825 O   0  0  0  0  0  0  0  0  0  0  0  0
   10.1584  -17.6297   29.1463 O   0  0  0  0  0  0  0  0  0  0  0  0
  2  1  1  0
  3 10  1  0
  3  2  1  0
  4  3  2  0
  5  6  1  0
  6  7  1  0
  8  7  1  0
  9  8  1  1
  9 10  1  0
  9 11  1  0
 11 12  2  0
 14 13  1  6
 14 15  1  0
 16 14  1  0
 17 11  1  0
 16 17  1  6
 18 16  1  0
 18 20  1  0
 19 18  2  0
M  END
$$$$
