GMV.pdb
     RDKit          3D

 20 19  0  0  1  0  0  0  0  0999 V2000
    7.2912  -16.2149   18.9611 N   0  0  0  0  0  0  0  0  0  0  0  0
    6.5425  -15.8346   20.1228 C   0  0  0  0  0  0  0  0  0  0  0  0
    7.4347  -15.2849   21.1925 C   0  0  0  0  0  0  0  0  0  0  0  0
    8.6770  -15.2871   21.1055 O   0  0  0  0  0  0  0  0  0  0  0  0
    6.9245  -12.8875   28.1386 C   0  0  0  0  0  0  0  0  0  0  0  0
    6.5481  -11.9572   26.6289 S   0  0  0  0  0  0  0  0  0  0  0  0
    7.6724  -12.5699   25.3287 C   0  0  0  0  0  0  0  0  0  0  0  0
    6.9126  -13.2706   24.2576 C   0  0  0  0  0  0  0  0  0  0  0  0
    7.7144  -14.2393   23.4331 C   0  0  2  0  0  0  0  0  0  0  0  0
    6.8351  -14.7368   22.3577 N   0  0  0  0  0  0  0  0  0  0  0  0
    8.1551  -15.4204   24.2325 C   0  0  0  0  0  0  0  0  0  0  0  0
    7.3479  -16.2829   24.6638 O   0  0  0  0  0  0  0  0  0  0  0  0
   10.6755  -17.9388   23.0372 C   0  0  0  0  0  0  0  0  0  0  0  0
   11.1247  -17.4953   24.3655 C   0  0  1  0  0  0  0  0  0  0  0  0
   12.3598  -16.6411   24.2064 C   0  0  0  0  0  0  0  0  0  0  0  0
   10.0474  -16.8339   25.1550 C   0  0  2  0  0  0  0  0  0  0  0  0
    9.5478  -15.6287   24.5511 N   0  0  0  0  0  0  0  0  0  0  0  0
   10.4784  -16.5767   26.5606 C   0  0  0  0  0  0  0  0  0  0  0  0
   10.6921  -15.4218   27.0121 O   0  0  0  0  0  0  0  0  0  0  0  0
   10.6604  -17.6395   27.4335 O   0  0  0  0  0  0  0  0  0  0  0  0
  2  1  1  0
  3 10  1  0
  3  2  1  0
  4  3  2  0
  5  6  1  0
  6  7  1  0
  8  7  1  0
  9  8  1  1
  9 10  1  0
  9 11  1  0
 11 12  2  0
 14 13  1  6
 14 15  1  0
 16 14  1  0
 17 11  1  0
 16 17  1  6
 18 16  1  0
 18 20  1  0
 19 18  2  0
M  END
$$$$
