GMV.pdb
     RDKit          3D

 20 19  0  0  1  0  0  0  0  0999 V2000
    7.2794  -15.2375   19.4715 N   0  0  0  0  0  0  0  0  0  0  0  0
    6.6162  -15.1731   20.7407 C   0  0  0  0  0  0  0  0  0  0  0  0
    7.5915  -14.9609   21.8570 C   0  0  0  0  0  0  0  0  0  0  0  0
    8.8248  -15.0399   21.7031 O   0  0  0  0  0  0  0  0  0  0  0  0
    5.8671  -12.1864   27.6732 C   0  0  0  0  0  0  0  0  0  0  0  0
    6.8680  -11.2434   26.4922 S   0  0  0  0  0  0  0  0  0  0  0  0
    7.0143  -12.2596   24.9835 C   0  0  0  0  0  0  0  0  0  0  0  0
    7.3349  -13.6725   25.3249 C   0  0  0  0  0  0  0  0  0  0  0  0
    8.0458  -14.4455   24.2486 C   0  0  2  0  0  0  0  0  0  0  0  0
    7.0852  -14.6559   23.1486 N   0  0  0  0  0  0  0  0  0  0  0  0
    8.4822  -15.7914   24.7246 C   0  0  0  0  0  0  0  0  0  0  0  0
    7.6705  -16.7277   24.9382 O   0  0  0  0  0  0  0  0  0  0  0  0
   11.2504  -17.8868   23.0563 C   0  0  0  0  0  0  0  0  0  0  0  0
   11.5354  -17.8243   24.4976 C   0  0  1  0  0  0  0  0  0  0  0  0
   12.7609  -16.9701   24.7194 C   0  0  0  0  0  0  0  0  0  0  0  0
   10.3606  -17.3922   25.3066 C   0  0  2  0  0  0  0  0  0  0  0  0
    9.8758  -16.0827   24.9645 N   0  0  0  0  0  0  0  0  0  0  0  0
   10.6409  -17.4820   26.7698 C   0  0  0  0  0  0  0  0  0  0  0  0
   10.6817  -16.4753   27.5235 O   0  0  0  0  0  0  0  0  0  0  0  0
   10.8712  -18.7186   27.3551 O   0  0  0  0  0  0  0  0  0  0  0  0
  2  1  1  0
  3 10  1  0
  3  2  1  0
  4  3  2  0
  5  6  1  0
  6  7  1  0
  8  7  1  0
  9  8  1  1
  9 10  1  0
  9 11  1  0
 11 12  2  0
 14 13  1  6
 14 15  1  0
 16 14  1  0
 17 11  1  0
 16 17  1  6
 18 16  1  0
 18 20  1  0
 19 18  2  0
M  END
$$$$
