GMV.pdb
     RDKit          3D

 20 19  0  0  1  0  0  0  0  0999 V2000
    7.9906  -15.9468   19.0941 N   0  0  0  0  0  0  0  0  0  0  0  0
    7.1299  -15.7848   20.2288 C   0  0  0  0  0  0  0  0  0  0  0  0
    7.8673  -15.2053   21.3961 C   0  0  0  0  0  0  0  0  0  0  0  0
    9.1080  -15.1033   21.4304 O   0  0  0  0  0  0  0  0  0  0  0  0
    7.0588  -11.3611   28.2171 C   0  0  0  0  0  0  0  0  0  0  0  0
    6.2104  -12.0989   26.7952 S   0  0  0  0  0  0  0  0  0  0  0  0
    7.4553  -13.0582   25.8680 C   0  0  0  0  0  0  0  0  0  0  0  0
    6.8943  -13.5503   24.5801 C   0  0  0  0  0  0  0  0  0  0  0  0
    7.8429  -14.3538   23.7341 C   0  0  2  0  0  0  0  0  0  0  0  0
    7.1162  -14.7522   22.5133 N   0  0  0  0  0  0  0  0  0  0  0  0
    8.2808  -15.6043   24.4218 C   0  0  0  0  0  0  0  0  0  0  0  0
    7.5037  -16.5725   24.6216 O   0  0  0  0  0  0  0  0  0  0  0  0
   12.1224  -18.5702   24.9807 C   0  0  0  0  0  0  0  0  0  0  0  0
   11.4582  -17.3500   24.4983 C   0  0  1  0  0  0  0  0  0  0  0  0
   11.2524  -17.4600   23.0063 C   0  0  0  0  0  0  0  0  0  0  0  0
   10.2078  -17.0323   25.2446 C   0  0  2  0  0  0  0  0  0  0  0  0
    9.6358  -15.7605   24.8953 N   0  0  0  0  0  0  0  0  0  0  0  0
   10.4119  -17.1283   26.7200 C   0  0  0  0  0  0  0  0  0  0  0  0
   10.4978  -18.2250   27.3308 O   0  0  0  0  0  0  0  0  0  0  0  0
   10.5155  -15.9724   27.4803 O   0  0  0  0  0  0  0  0  0  0  0  0
  2  1  1  0
  3 10  1  0
  3  2  1  0
  4  3  2  0
  5  6  1  0
  6  7  1  0
  8  7  1  0
  9  8  1  1
  9 10  1  0
  9 11  1  0
 11 12  2  0
 14 13  1  1
 14 15  1  0
 16 14  1  0
 17 11  1  0
 16 17  1  1
 18 16  1  0
 18 20  1  0
 19 18  2  0
M  END
$$$$
