GMV.pdb
     RDKit          3D

 20 19  0  0  1  0  0  0  0  0999 V2000
    5.4283  -17.6280   20.9089 N   0  0  0  0  0  0  0  0  0  0  0  0
    5.2909  -17.2235   22.2772 C   0  0  0  0  0  0  0  0  0  0  0  0
    6.5012  -16.4803   22.7517 C   0  0  0  0  0  0  0  0  0  0  0  0
    7.5384  -16.3704   22.0713 O   0  0  0  0  0  0  0  0  0  0  0  0
    7.7307  -11.7072   27.4852 C   0  0  0  0  0  0  0  0  0  0  0  0
    6.0994  -12.1511   26.8312 S   0  0  0  0  0  0  0  0  0  0  0  0
    6.3783  -13.2065   25.3688 C   0  0  0  0  0  0  0  0  0  0  0  0
    7.2747  -14.3474   25.7014 C   0  0  0  0  0  0  0  0  0  0  0  0
    7.6792  -15.2049   24.5343 C   0  0  2  0  0  0  0  0  0  0  0  0
    6.4624  -15.8743   24.0358 N   0  0  0  0  0  0  0  0  0  0  0  0
    8.6443  -16.2713   24.9340 C   0  0  0  0  0  0  0  0  0  0  0  0
    8.2882  -17.3067   25.5524 O   0  0  0  0  0  0  0  0  0  0  0  0
   13.1074  -18.2697   24.0634 C   0  0  0  0  0  0  0  0  0  0  0  0
   12.1759  -17.1432   23.9029 C   0  0  1  0  0  0  0  0  0  0  0  0
   11.8241  -17.0011   22.4412 C   0  0  0  0  0  0  0  0  0  0  0  0
   10.9824  -17.2419   24.7902 C   0  0  2  0  0  0  0  0  0  0  0  0
   10.0500  -16.1603   24.6241 N   0  0  0  0  0  0  0  0  0  0  0  0
   11.3760  -17.3797   26.2233 C   0  0  0  0  0  0  0  0  0  0  0  0
   11.5445  -16.3935   26.9863 O   0  0  0  0  0  0  0  0  0  0  0  0
   11.5724  -18.6404   26.7682 O   0  0  0  0  0  0  0  0  0  0  0  0
  2  1  1  0
  3 10  1  0
  3  2  1  0
  4  3  2  0
  5  6  1  0
  6  7  1  0
  8  7  1  0
  9  8  1  1
  9 10  1  0
  9 11  1  0
 11 12  2  0
 14 13  1  6
 14 15  1  0
 16 14  1  0
 17 11  1  0
 16 17  1  1
 18 16  1  0
 18 20  1  0
 19 18  2  0
M  END
$$$$
