GMV.pdb
     RDKit          3D

 20 19  0  0  1  0  0  0  0  0999 V2000
    5.4125  -20.2987   23.8537 N   0  0  0  0  0  0  0  0  0  0  0  0
    6.2881  -19.5457   24.7028 C   0  0  0  0  0  0  0  0  0  0  0  0
    6.2566  -18.0872   24.3647 C   0  0  0  0  0  0  0  0  0  0  0  0
    5.6519  -17.6344   23.3747 O   0  0  0  0  0  0  0  0  0  0  0  0
    5.8454  -11.4334   27.1064 C   0  0  0  0  0  0  0  0  0  0  0  0
    7.1214  -12.6739   27.4510 S   0  0  0  0  0  0  0  0  0  0  0  0
    7.4974  -13.5078   25.8720 C   0  0  0  0  0  0  0  0  0  0  0  0
    7.4728  -14.9872   26.0346 C   0  0  0  0  0  0  0  0  0  0  0  0
    6.9819  -15.7545   24.8382 C   0  0  2  0  0  0  0  0  0  0  0  0
    6.9482  -17.1814   25.2124 N   0  0  0  0  0  0  0  0  0  0  0  0
    7.9045  -15.6197   23.6724 C   0  0  0  0  0  0  0  0  0  0  0  0
    8.9051  -16.3646   23.5138 O   0  0  0  0  0  0  0  0  0  0  0  0
    8.8192  -13.3518   19.3106 C   0  0  0  0  0  0  0  0  0  0  0  0
    8.1592  -13.3336   20.6246 C   0  0  1  0  0  0  0  0  0  0  0  0
    6.6876  -13.0548   20.4314 C   0  0  0  0  0  0  0  0  0  0  0  0
    8.4269  -14.5593   21.4292 C   0  0  2  0  0  0  0  0  0  0  0  0
    7.6863  -14.6136   22.6601 N   0  0  0  0  0  0  0  0  0  0  0  0
    9.8863  -14.7367   21.6869 C   0  0  0  0  0  0  0  0  0  0  0  0
   10.4791  -14.2117   22.6648 O   0  0  0  0  0  0  0  0  0  0  0  0
   10.6514  -15.5104   20.8262 O   0  0  0  0  0  0  0  0  0  0  0  0
  2  1  1  0
  3 10  1  0
  3  2  1  0
  4  3  2  0
  5  6  1  0
  6  7  1  0
  8  7  1  0
  9  8  1  1
  9 10  1  0
  9 11  1  0
 11 12  2  0
 14 13  1  6
 14 15  1  0
 16 14  1  0
 17 11  1  0
 16 17  1  1
 18 16  1  0
 18 20  1  0
 19 18  2  0
M  END
$$$$
