GMV.pdb
     RDKit          3D

 20 19  0  0  1  0  0  0  0  0999 V2000
    8.2190  -14.7881   18.9926 N   0  0  0  0  0  0  0  0  0  0  0  0
    7.3133  -15.0615   20.0695 C   0  0  0  0  0  0  0  0  0  0  0  0
    7.9443  -14.7830   21.3986 C   0  0  0  0  0  0  0  0  0  0  0  0
    9.1773  -14.7267   21.5645 O   0  0  0  0  0  0  0  0  0  0  0  0
    7.9241  -11.0895   27.3008 C   0  0  0  0  0  0  0  0  0  0  0  0
    6.4741  -12.0943   26.8839 S   0  0  0  0  0  0  0  0  0  0  0  0
    7.0926  -13.6593   26.1781 C   0  0  0  0  0  0  0  0  0  0  0  0
    6.6848  -13.7961   24.7531 C   0  0  0  0  0  0  0  0  0  0  0  0
    7.7160  -14.4120   23.8485 C   0  0  2  0  0  0  0  0  0  0  0  0
    7.0967  -14.5739   22.5191 N   0  0  0  0  0  0  0  0  0  0  0  0
    8.1302  -15.7676   24.3168 C   0  0  0  0  0  0  0  0  0  0  0  0
    7.3548  -16.7571   24.2901 O   0  0  0  0  0  0  0  0  0  0  0  0
   11.2012  -17.6954   23.1017 C   0  0  0  0  0  0  0  0  0  0  0  0
   11.2520  -17.6571   24.5709 C   0  0  1  0  0  0  0  0  0  0  0  0
   12.3759  -16.7443   25.0000 C   0  0  0  0  0  0  0  0  0  0  0  0
    9.9416  -17.3116   25.1913 C   0  0  2  0  0  0  0  0  0  0  0  0
    9.4588  -16.0068   24.8289 N   0  0  0  0  0  0  0  0  0  0  0  0
    9.9823  -17.4622   26.6757 C   0  0  0  0  0  0  0  0  0  0  0  0
    9.9344  -16.4842   27.4660 O   0  0  0  0  0  0  0  0  0  0  0  0
   10.0770  -18.7260   27.2401 O   0  0  0  0  0  0  0  0  0  0  0  0
  2  1  1  0
  3 10  1  0
  3  2  1  0
  4  3  2  0
  5  6  1  0
  6  7  1  0
  8  7  1  0
  9  8  1  1
  9 10  1  0
  9 11  1  0
 11 12  2  0
 14 13  1  6
 14 15  1  0
 16 14  1  0
 17 11  1  0
 16 17  1  1
 18 16  1  0
 18 20  1  0
 19 18  2  0
M  END
$$$$
