GMV.pdb
     RDKit          3D

 20 19  0  0  1  0  0  0  0  0999 V2000
    5.3043  -18.1433   20.7241 N   0  0  0  0  0  0  0  0  0  0  0  0
    5.2099  -17.8785   22.1297 C   0  0  0  0  0  0  0  0  0  0  0  0
    6.2946  -16.9522   22.5856 C   0  0  0  0  0  0  0  0  0  0  0  0
    7.3026  -16.7000   21.8993 O   0  0  0  0  0  0  0  0  0  0  0  0
    6.2976  -11.1394   26.4475 C   0  0  0  0  0  0  0  0  0  0  0  0
    6.8949  -12.6218   27.3029 S   0  0  0  0  0  0  0  0  0  0  0  0
    7.7018  -13.6742   26.0494 C   0  0  0  0  0  0  0  0  0  0  0  0
    6.7272  -14.6253   25.4485 C   0  0  0  0  0  0  0  0  0  0  0  0
    7.2722  -15.4874   24.3435 C   0  0  2  0  0  0  0  0  0  0  0  0
    6.1659  -16.3345   23.8582 N   0  0  0  0  0  0  0  0  0  0  0  0
    8.3527  -16.3968   24.8272 C   0  0  0  0  0  0  0  0  0  0  0  0
    8.1238  -17.3735   25.5855 O   0  0  0  0  0  0  0  0  0  0  0  0
   13.0686  -17.8992   24.2295 C   0  0  0  0  0  0  0  0  0  0  0  0
   12.0167  -16.9134   23.9392 C   0  0  1  0  0  0  0  0  0  0  0  0
   11.7655  -16.8871   22.4503 C   0  0  0  0  0  0  0  0  0  0  0  0
   10.7797  -17.1262   24.7427 C   0  0  2  0  0  0  0  0  0  0  0  0
    9.7287  -16.1930   24.4406 N   0  0  0  0  0  0  0  0  0  0  0  0
   11.0720  -17.1311   26.2064 C   0  0  0  0  0  0  0  0  0  0  0  0
   11.0861  -16.0858   26.9066 O   0  0  0  0  0  0  0  0  0  0  0  0
   11.3446  -18.3279   26.8530 O   0  0  0  0  0  0  0  0  0  0  0  0
  2  1  1  0
  3 10  1  0
  3  2  1  0
  4  3  2  0
  5  6  1  0
  6  7  1  0
  8  7  1  0
  9  8  1  1
  9 10  1  0
  9 11  1  0
 11 12  2  0
 14 13  1  6
 14 15  1  0
 16 14  1  0
 17 11  1  0
 16 17  1  1
 18 16  1  0
 18 20  1  0
 19 18  2  0
M  END
$$$$
