GMV.pdb
     RDKit          3D

 20 19  0  0  1  0  0  0  0  0999 V2000
    6.2000  -16.7586   20.2553 N   0  0  0  0  0  0  0  0  0  0  0  0
    6.0341  -15.4124   20.7187 C   0  0  0  0  0  0  0  0  0  0  0  0
    7.0873  -15.0443   21.7176 C   0  0  0  0  0  0  0  0  0  0  0  0
    8.2997  -14.9968   21.4370 O   0  0  0  0  0  0  0  0  0  0  0  0
    5.8310  -11.0740   26.2849 C   0  0  0  0  0  0  0  0  0  0  0  0
    7.1351  -11.8716   27.2592 S   0  0  0  0  0  0  0  0  0  0  0  0
    7.9920  -13.0407   26.1506 C   0  0  0  0  0  0  0  0  0  0  0  0
    7.0834  -13.5082   25.0683 C   0  0  0  0  0  0  0  0  0  0  0  0
    7.7223  -14.3926   24.0335 C   0  0  2  0  0  0  0  0  0  0  0  0
    6.6832  -14.7359   23.0439 N   0  0  0  0  0  0  0  0  0  0  0  0
    8.2185  -15.6714   24.6227 C   0  0  0  0  0  0  0  0  0  0  0  0
    7.4423  -16.5622   25.0533 O   0  0  0  0  0  0  0  0  0  0  0  0
   11.5879  -19.1463   24.5064 C   0  0  0  0  0  0  0  0  0  0  0  0
   11.0210  -17.8587   24.0780 C   0  0  1  0  0  0  0  0  0  0  0  0
   10.3199  -18.0470   22.7538 C   0  0  0  0  0  0  0  0  0  0  0  0
   10.1601  -17.2256   25.1168 C   0  0  2  0  0  0  0  0  0  0  0  0
    9.6320  -15.9468   24.7263 N   0  0  0  0  0  0  0  0  0  0  0  0
   10.8688  -17.1226   26.4264 C   0  0  0  0  0  0  0  0  0  0  0  0
   11.7356  -16.2437   26.6701 O   0  0  0  0  0  0  0  0  0  0  0  0
   10.5799  -18.0231   27.4415 O   0  0  0  0  0  0  0  0  0  0  0  0
  2  1  1  0
  3 10  1  0
  3  2  1  0
  4  3  2  0
  5  6  1  0
  6  7  1  0
  8  7  1  0
  9  8  1  1
  9 10  1  0
  9 11  1  0
 11 12  2  0
 14 13  1  1
 14 15  1  0
 16 14  1  0
 17 11  1  0
 16 17  1  6
 18 16  1  0
 18 20  1  0
 19 18  2  0
M  END
$$$$
