GMV.pdb
     RDKit          3D

 20 19  0  0  1  0  0  0  0  0999 V2000
    5.9688  -19.6797   23.1519 N   0  0  0  0  0  0  0  0  0  0  0  0
    5.6665  -18.2881   23.3153 C   0  0  0  0  0  0  0  0  0  0  0  0
    6.8355  -17.4277   22.9469 C   0  0  0  0  0  0  0  0  0  0  0  0
    7.9767  -17.8847   22.7482 O   0  0  0  0  0  0  0  0  0  0  0  0
    8.2320  -11.8343   19.8982 C   0  0  0  0  0  0  0  0  0  0  0  0
    7.7223  -13.3378   19.0230 S   0  0  0  0  0  0  0  0  0  0  0  0
    6.8604  -14.3958   20.2344 C   0  0  0  0  0  0  0  0  0  0  0  0
    7.2553  -14.0403   21.6248 C   0  0  0  0  0  0  0  0  0  0  0  0
    7.7819  -15.1803   22.4520 C   0  0  2  0  0  0  0  0  0  0  0  0
    6.6312  -16.0279   22.8187 N   0  0  0  0  0  0  0  0  0  0  0  0
    8.4095  -14.7053   23.7204 C   0  0  0  0  0  0  0  0  0  0  0  0
    9.5829  -14.2555   23.7659 O   0  0  0  0  0  0  0  0  0  0  0  0
    7.6151  -11.9280   26.0550 C   0  0  0  0  0  0  0  0  0  0  0  0
    7.5207  -13.1675   26.8408 C   0  0  1  0  0  0  0  0  0  0  0  0
    6.0658  -13.4659   27.1144 C   0  0  0  0  0  0  0  0  0  0  0  0
    8.2506  -14.3090   26.2199 C   0  0  2  0  0  0  0  0  0  0  0  0
    7.6872  -14.7417   24.9701 N   0  0  0  0  0  0  0  0  0  0  0  0
    8.3750  -15.4577   27.1648 C   0  0  0  0  0  0  0  0  0  0  0  0
    7.8542  -16.5827   26.9493 O   0  0  0  0  0  0  0  0  0  0  0  0
    9.0918  -15.3090   28.3433 O   0  0  0  0  0  0  0  0  0  0  0  0
  2  1  1  0
  3 10  1  0
  3  2  1  0
  4  3  2  0
  5  6  1  0
  6  7  1  0
  8  7  1  0
  9  8  1  6
  9 10  1  0
  9 11  1  0
 11 12  2  0
 14 13  1  6
 14 15  1  0
 16 14  1  0
 17 11  1  0
 16 17  1  6
 18 16  1  0
 18 20  1  0
 19 18  2  0
M  END
$$$$
