GMV.pdb
     RDKit          3D

 20 19  0  0  1  0  0  0  0  0999 V2000
    4.5253  -19.0474   21.8619 N   0  0  0  0  0  0  0  0  0  0  0  0
    4.9394  -18.7892   23.2096 C   0  0  0  0  0  0  0  0  0  0  0  0
    5.9338  -17.6713   23.2713 C   0  0  0  0  0  0  0  0  0  0  0  0
    6.7156  -17.4081   22.3385 O   0  0  0  0  0  0  0  0  0  0  0  0
    5.8868  -11.4703   26.2718 C   0  0  0  0  0  0  0  0  0  0  0  0
    6.9565  -12.6404   27.1507 S   0  0  0  0  0  0  0  0  0  0  0  0
    7.6150  -13.8018   25.9068 C   0  0  0  0  0  0  0  0  0  0  0  0
    6.6364  -14.8872   25.6243 C   0  0  0  0  0  0  0  0  0  0  0  0
    7.0604  -15.8731   24.5709 C   0  0  2  0  0  0  0  0  0  0  0  0
    5.9858  -16.8766   24.4475 N   0  0  0  0  0  0  0  0  0  0  0  0
    8.3072  -16.5983   24.9557 C   0  0  0  0  0  0  0  0  0  0  0  0
    8.3130  -17.5298   25.8004 O   0  0  0  0  0  0  0  0  0  0  0  0
   13.0500  -17.5654   23.7614 C   0  0  0  0  0  0  0  0  0  0  0  0
   11.8463  -16.7429   23.5684 C   0  0  1  0  0  0  0  0  0  0  0  0
   11.3888  -16.8704   22.1349 C   0  0  0  0  0  0  0  0  0  0  0  0
   10.7727  -17.0384   24.5591 C   0  0  2  0  0  0  0  0  0  0  0  0
    9.5808  -16.2579   24.3668 N   0  0  0  0  0  0  0  0  0  0  0  0
   11.2685  -16.9022   25.9603 C   0  0  0  0  0  0  0  0  0  0  0  0
   11.2660  -15.8104   26.5858 O   0  0  0  0  0  0  0  0  0  0  0  0
   11.7609  -18.0127   26.6304 O   0  0  0  0  0  0  0  0  0  0  0  0
  2  1  1  0
  3 10  1  0
  3  2  1  0
  4  3  2  0
  5  6  1  0
  6  7  1  0
  8  7  1  0
  9  8  1  1
  9 10  1  0
  9 11  1  0
 11 12  2  0
 14 13  1  1
 14 15  1  0
 16 14  1  0
 17 11  1  0
 16 17  1  1
 18 16  1  0
 18 20  1  0
 19 18  2  0
M  END
$$$$
