GMV.pdb
     RDKit          3D

 20 19  0  0  1  0  0  0  0  0999 V2000
    7.6929  -15.7328   19.2054 N   0  0  0  0  0  0  0  0  0  0  0  0
    6.9251  -15.6546   20.4134 C   0  0  0  0  0  0  0  0  0  0  0  0
    7.7682  -15.2128   21.5694 C   0  0  0  0  0  0  0  0  0  0  0  0
    9.0094  -15.1312   21.5103 O   0  0  0  0  0  0  0  0  0  0  0  0
    6.4078  -10.8310   26.2914 C   0  0  0  0  0  0  0  0  0  0  0  0
    6.6831  -12.3600   27.2253 S   0  0  0  0  0  0  0  0  0  0  0  0
    7.7660  -13.4202   26.2089 C   0  0  0  0  0  0  0  0  0  0  0  0
    7.1124  -13.7609   24.9157 C   0  0  0  0  0  0  0  0  0  0  0  0
    7.9555  -14.5643   23.9644 C   0  0  2  0  0  0  0  0  0  0  0  0
    7.1211  -14.8719   22.7871 N   0  0  0  0  0  0  0  0  0  0  0  0
    8.3841  -15.8640   24.5606 C   0  0  0  0  0  0  0  0  0  0  0  0
    7.5763  -16.7996   24.7920 O   0  0  0  0  0  0  0  0  0  0  0  0
   11.4041  -17.9268   23.2296 C   0  0  0  0  0  0  0  0  0  0  0  0
   11.5251  -17.8007   24.6898 C   0  0  1  0  0  0  0  0  0  0  0  0
   12.6876  -16.8913   25.0096 C   0  0  0  0  0  0  0  0  0  0  0  0
   10.2534  -17.3861   25.3471 C   0  0  2  0  0  0  0  0  0  0  0  0
    9.7651  -16.1089   24.9032 N   0  0  0  0  0  0  0  0  0  0  0  0
   10.3718  -17.4143   26.8347 C   0  0  0  0  0  0  0  0  0  0  0  0
   10.3526  -16.3753   27.5441 O   0  0  0  0  0  0  0  0  0  0  0  0
   10.5107  -18.6268   27.4944 O   0  0  0  0  0  0  0  0  0  0  0  0
  2  1  1  0
  3 10  1  0
  3  2  1  0
  4  3  2  0
  5  6  1  0
  6  7  1  0
  8  7  1  0
  9  8  1  1
  9 10  1  0
  9 11  1  0
 11 12  2  0
 14 13  1  6
 14 15  1  0
 16 14  1  0
 17 11  1  0
 16 17  1  6
 18 16  1  0
 18 20  1  0
 19 18  2  0
M  END
$$$$
