GMV.pdb
     RDKit          3D

 20 19  0  0  1  0  0  0  0  0999 V2000
    7.7334  -15.2911   19.0789 N   0  0  0  0  0  0  0  0  0  0  0  0
    6.8725  -15.2265   20.2232 C   0  0  0  0  0  0  0  0  0  0  0  0
    7.6478  -14.9604   21.4764 C   0  0  0  0  0  0  0  0  0  0  0  0
    8.8907  -15.0188   21.5291 O   0  0  0  0  0  0  0  0  0  0  0  0
    7.1468  -10.6835   26.8926 C   0  0  0  0  0  0  0  0  0  0  0  0
    6.3347  -12.2831   27.1533 S   0  0  0  0  0  0  0  0  0  0  0  0
    7.3082  -13.5316   26.2460 C   0  0  0  0  0  0  0  0  0  0  0  0
    6.7422  -13.7617   24.8887 C   0  0  0  0  0  0  0  0  0  0  0  0
    7.6955  -14.3578   23.8901 C   0  0  2  0  0  0  0  0  0  0  0  0
    6.9316  -14.6267   22.6568 N   0  0  0  0  0  0  0  0  0  0  0  0
    8.2555  -15.6587   24.3618 C   0  0  0  0  0  0  0  0  0  0  0  0
    7.5629  -16.7059   24.4323 O   0  0  0  0  0  0  0  0  0  0  0  0
   12.2549  -18.4680   24.7222 C   0  0  0  0  0  0  0  0  0  0  0  0
   11.5840  -17.2089   24.3656 C   0  0  1  0  0  0  0  0  0  0  0  0
   11.4904  -17.1110   22.8616 C   0  0  0  0  0  0  0  0  0  0  0  0
   10.2725  -17.0320   25.0512 C   0  0  2  0  0  0  0  0  0  0  0  0
    9.6373  -15.7747   24.7641 N   0  0  0  0  0  0  0  0  0  0  0  0
   10.3940  -17.2338   26.5251 C   0  0  0  0  0  0  0  0  0  0  0  0
   10.5025  -16.2822   27.3412 O   0  0  0  0  0  0  0  0  0  0  0  0
   10.3901  -18.5181   27.0497 O   0  0  0  0  0  0  0  0  0  0  0  0
  2  1  1  0
  3 10  1  0
  3  2  1  0
  4  3  2  0
  5  6  1  0
  6  7  1  0
  8  7  1  0
  9  8  1  1
  9 10  1  0
  9 11  1  0
 11 12  2  0
 14 13  1  6
 14 15  1  0
 16 14  1  0
 17 11  1  0
 16 17  1  1
 18 16  1  0
 18 20  1  0
 19 18  2  0
M  END
$$$$
