SRS.pdb
     RDKit          3D

 24 23  0  0  1  0  0  0  0  0999 V2000
    7.1283  -15.0291   18.7616 O   0  0  0  0  0  0  0  0  0  0  0  0
    6.4456  -13.9249   19.2366 C   0  0  0  0  0  0  0  0  0  0  0  0
    7.4161  -12.9397   19.9073 C   0  0  2  0  0  0  0  0  0  0  0  0
    8.2740  -12.4333   18.8428 N   0  0  0  0  0  0  0  0  0  0  0  0
    8.1660  -13.6452   20.9546 C   0  0  0  0  0  0  0  0  0  0  0  0
    9.3532  -13.9623   20.7086 O   0  0  0  0  0  0  0  0  0  0  0  0
   10.1771  -13.1579   29.3141 N   0  0  0  0  0  0  0  0  0  0  0  0
   10.1045  -14.5689   29.0803 C   0  0  0  0  0  0  0  0  0  0  0  0
   10.2742  -15.3655   30.0715 N   0  0  0  0  0  0  0  0  0  0  0  0
    9.8529  -15.1147   27.8031 N   0  0  0  0  0  0  0  0  0  0  0  0
    8.8887  -14.5003   26.9035 C   0  0  0  0  0  0  0  0  0  0  0  0
    8.7653  -15.2835   25.6420 C   0  0  0  0  0  0  0  0  0  0  0  0
    7.9146  -14.6790   24.6033 C   0  0  0  0  0  0  0  0  0  0  0  0
    8.4558  -14.5369   23.2275 C   0  0  2  0  0  0  0  0  0  0  0  0
    7.5946  -13.9824   22.2387 N   0  0  0  0  0  0  0  0  0  0  0  0
    8.8121  -15.9140   22.7641 C   0  0  0  0  0  0  0  0  0  0  0  0
    7.9166  -16.6245   22.2872 O   0  0  0  0  0  0  0  0  0  0  0  0
   10.3051  -16.3882   30.0465 O   0  0  0  0  0  0  0  0  0  0  0  0
   12.6147  -16.7508   21.9623 C   0  0  0  0  0  0  0  0  0  0  0  0
   11.6586  -17.6638   21.4744 C   0  0  1  0  0  0  0  0  0  0  0  0
   10.5236  -17.7128   22.4783 N   0  0  0  0  0  0  0  0  0  0  0  0
   10.1233  -16.3725   22.8718 C   0  0  0  0  0  0  0  0  0  0  0  0
   10.9118  -18.4753   23.6743 O   0  0  0  0  0  0  0  0  0  0  0  0
   11.3452  -19.7920   23.6706 O   0  0  0  0  0  0  0  0  0  0  0  0
  1  2  1  0
  3  2  1  0
  3  5  1  0
  3  4  1  6
  5  6  2  0
  7  8  1  0
  8  9  2  0
  8 10  1  0
 10 11  1  0
 11 12  1  0
 12 13  1  0
 14 13  1  1
 15 14  1  0
 15  5  1  0
 16 17  2  0
 16 14  1  0
 18 19  1  0
 20 19  1  6
 20 22  1  0
 20 21  1  0
 21 16  1  0
 22 23  1  0
 24 22  2  0
M  END
$$$$
