SRS.pdb
     RDKit          3D

 24 23  0  0  1  0  0  0  0  0999 V2000
    5.8439  -16.1727   21.3073 O   0  0  0  0  0  0  0  0  0  0  0  0
    6.5719  -15.6658   20.2471 C   0  0  0  0  0  0  0  0  0  0  0  0
    7.5546  -16.7214   19.7155 C   0  0  2  0  0  0  0  0  0  0  0  0
    6.7544  -17.9048   19.4245 N   0  0  0  0  0  0  0  0  0  0  0  0
    8.5864  -16.9686   20.7309 C   0  0  0  0  0  0  0  0  0  0  0  0
    8.4525  -17.9751   21.4654 O   0  0  0  0  0  0  0  0  0  0  0  0
   17.7714  -16.8679   22.1080 N   0  0  0  0  0  0  0  0  0  0  0  0
   16.8827  -16.2696   23.0582 C   0  0  0  0  0  0  0  0  0  0  0  0
   17.3481  -15.3852   23.8627 N   0  0  0  0  0  0  0  0  0  0  0  0
   15.5166  -16.6149   23.1420 N   0  0  0  0  0  0  0  0  0  0  0  0
   14.5466  -16.0624   22.2091 C   0  0  0  0  0  0  0  0  0  0  0  0
   13.1705  -16.5329   22.5330 C   0  0  0  0  0  0  0  0  0  0  0  0
   12.1062  -16.0311   21.6479 C   0  0  0  0  0  0  0  0  0  0  0  0
   10.7123  -16.4927   21.8711 C   0  0  2  0  0  0  0  0  0  0  0  0
    9.7330  -16.1074   20.9122 N   0  0  0  0  0  0  0  0  0  0  0  0
   10.2775  -15.9208   23.1833 C   0  0  0  0  0  0  0  0  0  0  0  0
   10.2160  -14.6890   23.2970 O   0  0  0  0  0  0  0  0  0  0  0  0
   16.8358  -14.8756   24.5875 O   0  0  0  0  0  0  0  0  0  0  0  0
    7.5105  -17.3366   25.3853 C   0  0  0  0  0  0  0  0  0  0  0  0
    8.1078  -16.1007   25.7035 C   0  0  1  0  0  0  0  0  0  0  0  0
    9.6078  -16.2721   25.5655 N   0  0  0  0  0  0  0  0  0  0  0  0
    9.9521  -16.7652   24.2427 C   0  0  0  0  0  0  0  0  0  0  0  0
   10.1267  -17.2006   26.5809 O   0  0  0  0  0  0  0  0  0  0  0  0
   10.0149  -17.0223   27.9511 O   0  0  0  0  0  0  0  0  0  0  0  0
  1  2  1  0
  3  2  1  0
  3  5  1  0
  3  4  1  1
  5  6  2  0
  7  8  1  0
  8  9  2  0
  8 10  1  0
 10 11  1  0
 11 12  1  0
 12 13  1  0
 14 13  1  6
 15 14  1  0
 15  5  1  0
 16 17  2  0
 16 14  1  0
 18 19  1  0
 20 19  1  6
 20 22  1  0
 20 21  1  0
 21 16  1  0
 22 23  1  0
 24 22  2  0
M  END
$$$$
