SRS.pdb
     RDKit          3D

 24 23  0  0  1  0  0  0  0  0999 V2000
    7.3300  -13.8003   19.6460 O   0  0  0  0  0  0  0  0  0  0  0  0
    8.1032  -12.8654   18.9834 C   0  0  0  0  0  0  0  0  0  0  0  0
    8.9535  -13.5430   17.8969 C   0  0  2  0  0  0  0  0  0  0  0  0
    8.0104  -14.2017   17.0012 N   0  0  0  0  0  0  0  0  0  0  0  0
    9.8834  -14.4838   18.5349 C   0  0  0  0  0  0  0  0  0  0  0  0
    9.5706  -15.6972   18.5438 O   0  0  0  0  0  0  0  0  0  0  0  0
   16.0909  -15.8147   16.6816 N   0  0  0  0  0  0  0  0  0  0  0  0
   16.4168  -14.4235   16.5867 C   0  0  0  0  0  0  0  0  0  0  0  0
   16.8064  -13.9593   15.4558 N   0  0  0  0  0  0  0  0  0  0  0  0
   16.3248  -13.5454   17.6880 N   0  0  0  0  0  0  0  0  0  0  0  0
   15.6445  -13.9465   18.9099 C   0  0  0  0  0  0  0  0  0  0  0  0
   14.2383  -14.3493   18.6271 C   0  0  0  0  0  0  0  0  0  0  0  0
   13.4349  -14.7108   19.8069 C   0  0  0  0  0  0  0  0  0  0  0  0
   12.0092  -15.0811   19.6165 C   0  0  2  0  0  0  0  0  0  0  0  0
   11.1268  -14.0687   19.1438 N   0  0  0  0  0  0  0  0  0  0  0  0
   11.4959  -15.5080   20.9553 C   0  0  0  0  0  0  0  0  0  0  0  0
   11.2599  -14.6344   21.8010 O   0  0  0  0  0  0  0  0  0  0  0  0
   17.0393  -12.9884   15.2313 O   0  0  0  0  0  0  0  0  0  0  0  0
    9.8527  -19.1318   21.3267 C   0  0  0  0  0  0  0  0  0  0  0  0
    9.5809  -18.1996   22.3478 C   0  0  1  0  0  0  0  0  0  0  0  0
   10.8167  -17.3376   22.5166 N   0  0  0  0  0  0  0  0  0  0  0  0
   11.2925  -16.8587   21.2298 C   0  0  0  0  0  0  0  0  0  0  0  0
   11.8921  -18.0852   23.1852 O   0  0  0  0  0  0  0  0  0  0  0  0
   11.8108  -18.6242   24.4598 O   0  0  0  0  0  0  0  0  0  0  0  0
  1  2  1  0
  3  2  1  0
  3  5  1  0
  3  4  1  6
  5  6  2  0
  7  8  1  0
  8  9  2  0
  8 10  1  0
 10 11  1  0
 11 12  1  0
 12 13  1  0
 14 13  1  1
 15 14  1  0
 15  5  1  0
 16 17  2  0
 16 14  1  0
 18 19  1  0
 20 19  1  1
 20 22  1  0
 20 21  1  0
 21 16  1  0
 22 23  1  0
 24 22  2  0
M  END
$$$$
