SRS.pdb
     RDKit          3D

 24 23  0  0  1  0  0  0  0  0999 V2000
   13.3606  -20.2615   18.5971 O   0  0  0  0  0  0  0  0  0  0  0  0
   12.1562  -19.5893   18.5058 C   0  0  0  0  0  0  0  0  0  0  0  0
   12.3936  -18.0891   18.2700 C   0  0  2  0  0  0  0  0  0  0  0  0
   13.7671  -17.9694   17.7960 N   0  0  0  0  0  0  0  0  0  0  0  0
   12.1607  -17.3649   19.5262 C   0  0  0  0  0  0  0  0  0  0  0  0
   13.1634  -16.9943   20.1802 O   0  0  0  0  0  0  0  0  0  0  0  0
    7.6731  -14.6352   17.6316 N   0  0  0  0  0  0  0  0  0  0  0  0
    7.5601  -13.3288   18.2072 C   0  0  0  0  0  0  0  0  0  0  0  0
    7.6681  -12.3072   17.4387 N   0  0  0  0  0  0  0  0  0  0  0  0
    7.3337  -13.1235   19.5853 N   0  0  0  0  0  0  0  0  0  0  0  0
    7.6216  -14.1693   20.5548 C   0  0  0  0  0  0  0  0  0  0  0  0
    9.0652  -14.5367   20.5268 C   0  0  0  0  0  0  0  0  0  0  0  0
    9.4695  -15.5844   21.4791 C   0  0  0  0  0  0  0  0  0  0  0  0
   10.7354  -16.3224   21.2372 C   0  0  2  0  0  0  0  0  0  0  0  0
   10.8384  -17.0682   20.0287 N   0  0  0  0  0  0  0  0  0  0  0  0
   10.8812  -17.3005   22.3598 C   0  0  0  0  0  0  0  0  0  0  0  0
   10.2160  -18.3446   22.3208 O   0  0  0  0  0  0  0  0  0  0  0  0
    7.6233  -11.3210   17.7086 O   0  0  0  0  0  0  0  0  0  0  0  0
   14.0046  -16.8696   24.9076 C   0  0  0  0  0  0  0  0  0  0  0  0
   13.4123  -18.1451   24.8187 C   0  0  1  0  0  0  0  0  0  0  0  0
   11.9374  -17.9421   24.5322 N   0  0  0  0  0  0  0  0  0  0  0  0
   11.7484  -17.0307   23.4163 C   0  0  0  0  0  0  0  0  0  0  0  0
   11.2396  -17.4149   25.7144 O   0  0  0  0  0  0  0  0  0  0  0  0
   11.2465  -18.0043   26.9691 O   0  0  0  0  0  0  0  0  0  0  0  0
  1  2  1  0
  3  2  1  0
  3  5  1  0
  3  4  1  1
  5  6  2  0
  7  8  1  0
  8  9  2  0
  8 10  1  0
 10 11  1  0
 11 12  1  0
 12 13  1  0
 14 13  1  1
 15 14  1  0
 15  5  1  0
 16 17  2  0
 16 14  1  0
 18 19  1  0
 20 19  1  6
 20 22  1  0
 20 21  1  0
 21 16  1  0
 22 23  1  0
 24 22  2  0
M  END
$$$$
