SRS.pdb
     RDKit          3D

 24 23  0  0  1  0  0  0  0  0999 V2000
    7.6817  -20.0921   24.5481 O   0  0  0  0  0  0  0  0  0  0  0  0
    6.6791  -19.2206   24.1658 C   0  0  0  0  0  0  0  0  0  0  0  0
    6.6634  -19.0554   22.6378 C   0  0  2  0  0  0  0  0  0  0  0  0
    6.1682  -20.3178   22.1023 N   0  0  0  0  0  0  0  0  0  0  0  0
    8.0209  -18.7361   22.1772 C   0  0  0  0  0  0  0  0  0  0  0  0
    8.7478  -19.6855   21.8021 O   0  0  0  0  0  0  0  0  0  0  0  0
    7.5126  -14.2518   16.4969 N   0  0  0  0  0  0  0  0  0  0  0  0
    7.2274  -13.4518   17.6498 C   0  0  0  0  0  0  0  0  0  0  0  0
    6.2099  -12.6709   17.6195 N   0  0  0  0  0  0  0  0  0  0  0  0
    8.0214  -13.4908   18.8162 N   0  0  0  0  0  0  0  0  0  0  0  0
    9.1042  -14.4529   18.9525 C   0  0  0  0  0  0  0  0  0  0  0  0
    8.9487  -15.2544   20.1988 C   0  0  0  0  0  0  0  0  0  0  0  0
    9.9514  -16.3141   20.3981 C   0  0  0  0  0  0  0  0  0  0  0  0
    9.8406  -17.1893   21.5929 C   0  0  2  0  0  0  0  0  0  0  0  0
    8.5419  -17.3884   22.1411 N   0  0  0  0  0  0  0  0  0  0  0  0
   10.6676  -16.5545   22.6658 C   0  0  0  0  0  0  0  0  0  0  0  0
   10.1801  -15.6118   23.3044 O   0  0  0  0  0  0  0  0  0  0  0  0
    5.8750  -12.0597   18.3690 O   0  0  0  0  0  0  0  0  0  0  0  0
   13.0641  -18.6485   24.6882 C   0  0  0  0  0  0  0  0  0  0  0  0
   12.9290  -17.3244   25.1509 C   0  0  1  0  0  0  0  0  0  0  0  0
   12.8175  -16.4270   23.9341 N   0  0  0  0  0  0  0  0  0  0  0  0
   11.9529  -17.0232   22.9298 C   0  0  0  0  0  0  0  0  0  0  0  0
   14.1409  -16.1710   23.3464 O   0  0  0  0  0  0  0  0  0  0  0  0
   15.1794  -15.5113   23.9853 O   0  0  0  0  0  0  0  0  0  0  0  0
  1  2  1  0
  3  2  1  0
  3  5  1  0
  3  4  1  6
  5  6  2  0
  7  8  1  0
  8  9  2  0
  8 10  1  0
 10 11  1  0
 11 12  1  0
 12 13  1  0
 14 13  1  6
 15 14  1  0
 15  5  1  0
 16 17  2  0
 16 14  1  0
 18 19  1  0
 20 19  1  1
 20 22  1  0
 20 21  1  0
 21 16  1  0
 22 23  1  0
 24 22  2  0
M  END
$$$$
