SRS.pdb
     RDKit          3D

 24 23  0  0  1  0  0  0  0  0999 V2000
    9.2045  -11.2382   18.7061 O   0  0  0  0  0  0  0  0  0  0  0  0
    8.8860  -12.2670   19.5727 C   0  0  0  0  0  0  0  0  0  0  0  0
    8.6376  -13.5689   18.7943 C   0  0  2  0  0  0  0  0  0  0  0  0
    7.2568  -13.5029   18.3310 N   0  0  0  0  0  0  0  0  0  0  0  0
    8.8850  -14.7119   19.6828 C   0  0  0  0  0  0  0  0  0  0  0  0
    7.9001  -15.2187   20.2689 O   0  0  0  0  0  0  0  0  0  0  0  0
   11.9636  -19.5753   17.9200 N   0  0  0  0  0  0  0  0  0  0  0  0
   11.7578  -20.7194   18.7562 C   0  0  0  0  0  0  0  0  0  0  0  0
   11.2731  -21.7850   18.2313 N   0  0  0  0  0  0  0  0  0  0  0  0
   12.0686  -20.7191   20.1331 N   0  0  0  0  0  0  0  0  0  0  0  0
   12.6267  -19.5382   20.7739 C   0  0  0  0  0  0  0  0  0  0  0  0
   11.5465  -18.6052   21.2011 C   0  0  0  0  0  0  0  0  0  0  0  0
   11.3866  -17.4003   20.3699 C   0  0  0  0  0  0  0  0  0  0  0  0
   10.3079  -16.4363   20.7061 C   0  0  2  0  0  0  0  0  0  0  0  0
   10.2019  -15.2654   19.9031 N   0  0  0  0  0  0  0  0  0  0  0  0
   10.5672  -15.9758   22.1057 C   0  0  0  0  0  0  0  0  0  0  0  0
   11.6700  -15.4755   22.3658 O   0  0  0  0  0  0  0  0  0  0  0  0
   11.1614  -22.6998   18.6764 O   0  0  0  0  0  0  0  0  0  0  0  0
    7.5146  -16.2730   24.8022 C   0  0  0  0  0  0  0  0  0  0  0  0
    8.4500  -15.2542   25.0717 C   0  0  1  0  0  0  0  0  0  0  0  0
    9.7698  -15.6745   24.4552 N   0  0  0  0  0  0  0  0  0  0  0  0
    9.5827  -16.1119   23.0821 C   0  0  0  0  0  0  0  0  0  0  0  0
   10.3910  -16.7585   25.2306 O   0  0  0  0  0  0  0  0  0  0  0  0
   10.8680  -16.6355   26.5264 O   0  0  0  0  0  0  0  0  0  0  0  0
  1  2  1  0
  3  2  1  0
  3  5  1  0
  3  4  1  1
  5  6  2  0
  7  8  1  0
  8  9  2  0
  8 10  1  0
 10 11  1  0
 11 12  1  0
 12 13  1  0
 14 13  1  6
 15 14  1  0
 15  5  1  0
 16 17  2  0
 16 14  1  0
 18 19  1  0
 20 19  1  6
 20 22  1  0
 20 21  1  0
 21 16  1  0
 22 23  1  0
 24 22  2  0
M  END
$$$$
