SRS.pdb
     RDKit          3D

 24 23  0  0  1  0  0  0  0  0999 V2000
    8.2503  -12.8343   18.5513 O   0  0  0  0  0  0  0  0  0  0  0  0
    7.8871  -13.2391   19.8222 C   0  0  0  0  0  0  0  0  0  0  0  0
    7.9915  -14.7672   19.9507 C   0  0  2  0  0  0  0  0  0  0  0  0
    6.8811  -15.3121   19.1790 N   0  0  0  0  0  0  0  0  0  0  0  0
    7.9298  -15.1329   21.3717 C   0  0  0  0  0  0  0  0  0  0  0  0
    6.8010  -15.1751   21.9145 O   0  0  0  0  0  0  0  0  0  0  0  0
   11.6624  -16.4455   28.7258 N   0  0  0  0  0  0  0  0  0  0  0  0
   10.7907  -17.5812   28.6939 C   0  0  0  0  0  0  0  0  0  0  0  0
   10.2754  -17.9914   29.7949 N   0  0  0  0  0  0  0  0  0  0  0  0
   10.4771  -18.2641   27.4991 N   0  0  0  0  0  0  0  0  0  0  0  0
   10.8681  -17.7263   26.2051 C   0  0  0  0  0  0  0  0  0  0  0  0
    9.7110  -17.0754   25.5289 C   0  0  0  0  0  0  0  0  0  0  0  0
   10.0208  -16.3961   24.2598 C   0  0  0  0  0  0  0  0  0  0  0  0
    8.9340  -15.6746   23.5497 C   0  0  2  0  0  0  0  0  0  0  0  0
    9.1044  -15.4411   22.1557 N   0  0  0  0  0  0  0  0  0  0  0  0
    8.8167  -14.3321   24.1994 C   0  0  0  0  0  0  0  0  0  0  0  0
    9.5897  -13.4342   23.8387 O   0  0  0  0  0  0  0  0  0  0  0  0
    9.6287  -18.7743   29.9229 O   0  0  0  0  0  0  0  0  0  0  0  0
    5.4581  -13.2326   26.2720 C   0  0  0  0  0  0  0  0  0  0  0  0
    6.3753  -12.2688   25.8078 C   0  0  1  0  0  0  0  0  0  0  0  0
    7.7631  -12.8671   25.9287 N   0  0  0  0  0  0  0  0  0  0  0  0
    7.8561  -14.1116   25.1842 C   0  0  0  0  0  0  0  0  0  0  0  0
    8.1079  -13.1157   27.3365 O   0  0  0  0  0  0  0  0  0  0  0  0
    8.4582  -14.3496   27.8624 O   0  0  0  0  0  0  0  0  0  0  0  0
  1  2  1  0
  3  2  1  0
  3  5  1  0
  3  4  1  6
  5  6  2  0
  7  8  1  0
  8  9  2  0
  8 10  1  0
 10 11  1  0
 11 12  1  0
 12 13  1  0
 14 13  1  1
 15 14  1  0
 15  5  1  0
 16 17  2  0
 16 14  1  0
 18 19  1  0
 20 19  1  6
 20 22  1  0
 20 21  1  0
 21 16  1  0
 22 23  1  0
 24 22  2  0
M  END
$$$$
