SRS.pdb
     RDKit          3D

 24 23  0  0  1  0  0  0  0  0999 V2000
    9.8914  -12.9609   19.3796 O   0  0  0  0  0  0  0  0  0  0  0  0
    9.3529  -13.9824   18.6197 C   0  0  0  0  0  0  0  0  0  0  0  0
    7.8238  -14.0174   18.7712 C   0  0  2  0  0  0  0  0  0  0  0  0
    7.3773  -12.6340   18.6596 N   0  0  0  0  0  0  0  0  0  0  0  0
    7.4853  -14.6211   20.0665 C   0  0  0  0  0  0  0  0  0  0  0  0
    7.0973  -13.8583   20.9819 O   0  0  0  0  0  0  0  0  0  0  0  0
    4.5534  -22.3585   22.7207 N   0  0  0  0  0  0  0  0  0  0  0  0
    5.9621  -22.1745   22.5411 C   0  0  0  0  0  0  0  0  0  0  0  0
    6.6882  -23.2008   22.2852 N   0  0  0  0  0  0  0  0  0  0  0  0
    6.5804  -20.9090   22.6339 N   0  0  0  0  0  0  0  0  0  0  0  0
    5.8247  -19.7354   23.0441 C   0  0  0  0  0  0  0  0  0  0  0  0
    6.6994  -18.5301   23.0904 C   0  0  0  0  0  0  0  0  0  0  0  0
    7.1104  -17.9966   21.7810 C   0  0  0  0  0  0  0  0  0  0  0  0
    7.1289  -16.5251   21.5810 C   0  0  2  0  0  0  0  0  0  0  0  0
    7.5816  -16.0407   20.3211 N   0  0  0  0  0  0  0  0  0  0  0  0
    8.0540  -15.9648   22.6147 C   0  0  0  0  0  0  0  0  0  0  0  0
    9.2640  -15.9131   22.3554 O   0  0  0  0  0  0  0  0  0  0  0  0
    7.6989  -23.2210   22.1257 O   0  0  0  0  0  0  0  0  0  0  0  0
    6.3705  -14.3223   25.9172 C   0  0  0  0  0  0  0  0  0  0  0  0
    7.6490  -13.8239   25.5970 C   0  0  1  0  0  0  0  0  0  0  0  0
    8.3926  -14.9205   24.8600 N   0  0  0  0  0  0  0  0  0  0  0  0
    7.5524  -15.5153   23.8344 C   0  0  0  0  0  0  0  0  0  0  0  0
    8.8411  -15.9681   25.7893 O   0  0  0  0  0  0  0  0  0  0  0  0
    9.7253  -15.7730   26.8391 O   0  0  0  0  0  0  0  0  0  0  0  0
  1  2  1  0
  3  2  1  0
  3  5  1  0
  3  4  1  1
  5  6  2  0
  7  8  1  0
  8  9  2  0
  8 10  1  0
 10 11  1  0
 11 12  1  0
 12 13  1  0
 14 13  1  6
 15 14  1  0
 15  5  1  0
 16 17  2  0
 16 14  1  0
 18 19  1  0
 20 19  1  6
 20 22  1  0
 20 21  1  0
 21 16  1  0
 22 23  1  0
 24 22  2  0
M  END
$$$$
