SRS.pdb
     RDKit          3D

 24 23  0  0  1  0  0  0  0  0999 V2000
    4.0708  -19.0952   23.4169 O   0  0  0  0  0  0  0  0  0  0  0  0
    4.6187  -20.0446   22.5746 C   0  0  0  0  0  0  0  0  0  0  0  0
    5.4267  -19.3688   21.4553 C   0  0  2  0  0  0  0  0  0  0  0  0
    6.0012  -20.4509   20.6650 N   0  0  0  0  0  0  0  0  0  0  0  0
    6.4472  -18.5019   22.0586 C   0  0  0  0  0  0  0  0  0  0  0  0
    7.4510  -19.0512   22.5694 O   0  0  0  0  0  0  0  0  0  0  0  0
    9.5922  -14.3038   18.9983 N   0  0  0  0  0  0  0  0  0  0  0  0
    8.6328  -13.3956   18.4459 C   0  0  0  0  0  0  0  0  0  0  0  0
    8.6118  -13.2220   17.1749 N   0  0  0  0  0  0  0  0  0  0  0  0
    7.7107  -12.6865   19.2455 N   0  0  0  0  0  0  0  0  0  0  0  0
    7.5664  -12.9825   20.6625 C   0  0  0  0  0  0  0  0  0  0  0  0
    7.7013  -14.4445   20.9161 C   0  0  0  0  0  0  0  0  0  0  0  0
    7.4852  -14.8669   22.3100 C   0  0  0  0  0  0  0  0  0  0  0  0
    7.4303  -16.3188   22.6180 C   0  0  2  0  0  0  0  0  0  0  0  0
    6.3385  -17.0609   22.0850 N   0  0  0  0  0  0  0  0  0  0  0  0
    7.3444  -16.4369   24.1069 C   0  0  0  0  0  0  0  0  0  0  0  0
    6.2495  -16.2383   24.6508 O   0  0  0  0  0  0  0  0  0  0  0  0
    8.0422  -12.5531   16.6500 O   0  0  0  0  0  0  0  0  0  0  0  0
    7.5201  -18.7067   27.7900 C   0  0  0  0  0  0  0  0  0  0  0  0
    7.5033  -18.3622   26.4237 C   0  0  1  0  0  0  0  0  0  0  0  0
    8.4132  -17.1625   26.2465 N   0  0  0  0  0  0  0  0  0  0  0  0
    8.4764  -16.7636   24.8506 C   0  0  0  0  0  0  0  0  0  0  0  0
    9.7705  -17.4557   26.7305 O   0  0  0  0  0  0  0  0  0  0  0  0
   10.1153  -17.6489   28.0592 O   0  0  0  0  0  0  0  0  0  0  0  0
  1  2  1  0
  3  2  1  0
  3  5  1  0
  3  4  1  1
  5  6  2  0
  7  8  1  0
  8  9  2  0
  8 10  1  0
 10 11  1  0
 11 12  1  0
 12 13  1  0
 14 13  1  1
 15 14  1  0
 15  5  1  0
 16 17  2  0
 16 14  1  0
 18 19  1  0
 20 19  1  1
 20 22  1  0
 20 21  1  0
 21 16  1  0
 22 23  1  0
 24 22  2  0
M  END
$$$$
