SRS.pdb
     RDKit          3D

 24 23  0  0  1  0  0  0  0  0999 V2000
   10.1763  -13.1293   18.8846 O   0  0  0  0  0  0  0  0  0  0  0  0
    9.4689  -13.2035   20.0699 C   0  0  0  0  0  0  0  0  0  0  0  0
    8.1697  -14.0006   19.8722 C   0  0  2  0  0  0  0  0  0  0  0  0
    7.2192  -13.0759   19.2663 N   0  0  0  0  0  0  0  0  0  0  0  0
    7.7175  -14.5086   21.1739 C   0  0  0  0  0  0  0  0  0  0  0  0
    7.0808  -13.7253   21.9164 O   0  0  0  0  0  0  0  0  0  0  0  0
    8.5962  -19.7971   26.7563 N   0  0  0  0  0  0  0  0  0  0  0  0
    7.2053  -20.0753   26.9530 C   0  0  0  0  0  0  0  0  0  0  0  0
    6.7987  -20.3706   28.1335 N   0  0  0  0  0  0  0  0  0  0  0  0
    6.2669  -20.0360   25.8994 N   0  0  0  0  0  0  0  0  0  0  0  0
    6.6728  -19.6790   24.5487 C   0  0  0  0  0  0  0  0  0  0  0  0
    6.8602  -18.2063   24.4222 C   0  0  0  0  0  0  0  0  0  0  0  0
    7.2242  -17.7286   23.0779 C   0  0  0  0  0  0  0  0  0  0  0  0
    7.4027  -16.2703   22.8600 C   0  0  2  0  0  0  0  0  0  0  0  0
    7.9757  -15.8578   21.6237 N   0  0  0  0  0  0  0  0  0  0  0  0
    8.3167  -15.7854   23.9406 C   0  0  0  0  0  0  0  0  0  0  0  0
    9.5294  -16.0120   23.8313 O   0  0  0  0  0  0  0  0  0  0  0  0
    5.8447  -20.6057   28.4197 O   0  0  0  0  0  0  0  0  0  0  0  0
    8.7541  -13.1803   27.9953 C   0  0  0  0  0  0  0  0  0  0  0  0
    7.8703  -13.6376   26.9976 C   0  0  2  0  0  0  0  0  0  0  0  0
    8.6359  -14.6120   26.1242 N   0  0  0  0  0  0  0  0  0  0  0  0
    7.8023  -15.0965   25.0370 C   0  0  0  0  0  0  0  0  0  0  0  0
    9.1208  -15.7553   26.9118 O   0  0  0  0  0  0  0  0  0  0  0  0
   10.2949  -15.7710   27.6487 O   0  0  0  0  0  0  0  0  0  0  0  0
  1  2  1  0
  3  2  1  0
  3  5  1  0
  3  4  1  1
  5  6  2  0
  7  8  1  0
  8  9  2  0
  8 10  1  0
 10 11  1  0
 11 12  1  0
 12 13  1  0
 14 13  1  6
 15 14  1  0
 15  5  1  0
 16 17  2  0
 16 14  1  0
 18 19  1  0
 20 19  1  6
 20 22  1  0
 20 21  1  0
 21 16  1  0
 22 23  1  0
 24 22  2  0
M  END
$$$$
