SRS.pdb
     RDKit          3D

 24 23  0  0  1  0  0  0  0  0999 V2000
    9.2180  -23.0230   26.9734 O   0  0  0  0  0  0  0  0  0  0  0  0
    8.6534  -24.2489   26.6743 C   0  0  0  0  0  0  0  0  0  0  0  0
    7.2741  -24.3827   27.3390 C   0  0  2  0  0  0  0  0  0  0  0  0
    6.4186  -23.3956   26.6915 N   0  0  0  0  0  0  0  0  0  0  0  0
    7.4146  -24.1534   28.7828 C   0  0  0  0  0  0  0  0  0  0  0  0
    6.6885  -23.2771   29.3075 O   0  0  0  0  0  0  0  0  0  0  0  0
    6.9360  -29.3492   35.4980 N   0  0  0  0  0  0  0  0  0  0  0  0
    6.0234  -28.3654   34.9981 C   0  0  0  0  0  0  0  0  0  0  0  0
    4.7639  -28.5869   35.1012 N   0  0  0  0  0  0  0  0  0  0  0  0
    6.4567  -27.1633   34.3984 N   0  0  0  0  0  0  0  0  0  0  0  0
    7.8680  -26.9223   34.1398 C   0  0  0  0  0  0  0  0  0  0  0  0
    8.0569  -25.6780   33.3425 C   0  0  0  0  0  0  0  0  0  0  0  0
    8.1032  -25.8637   31.8825 C   0  0  0  0  0  0  0  0  0  0  0  0
    8.3033  -24.6746   31.0153 C   0  0  2  0  0  0  0  0  0  0  0  0
    8.3452  -24.8893   29.6085 N   0  0  0  0  0  0  0  0  0  0  0  0
    9.6225  -24.0827   31.3994 C   0  0  0  0  0  0  0  0  0  0  0  0
    9.8100  -23.7834   32.5866 O   0  0  0  0  0  0  0  0  0  0  0  0
    4.0006  -27.9904   34.7710 O   0  0  0  0  0  0  0  0  0  0  0  0
   11.5910  -21.0572   29.9955 C   0  0  0  0  0  0  0  0  0  0  0  0
   11.7240  -21.8311   31.1655 C   0  0  2  0  0  0  0  0  0  0  0  0
   11.8936  -23.2757   30.7379 N   0  0  0  0  0  0  0  0  0  0  0  0
   10.6070  -23.8794   30.4347 C   0  0  0  0  0  0  0  0  0  0  0  0
   12.5636  -24.0594   31.7864 O   0  0  0  0  0  0  0  0  0  0  0  0
   13.7456  -23.6988   32.4144 O   0  0  0  0  0  0  0  0  0  0  0  0
  1  2  1  0
  3  2  1  0
  3  5  1  0
  3  4  1  6
  5  6  2  0
  7  8  1  0
  8  9  2  0
  8 10  1  0
 10 11  1  0
 11 12  1  0
 12 13  1  0
 14 13  1  1
 15 14  1  0
 15  5  1  0
 16 17  2  0
 16 14  1  0
 18 19  1  0
 20 19  1  6
 20 22  1  0
 20 21  1  0
 21 16  1  0
 22 23  1  0
 24 22  2  0
M  END
$$$$
