CPD.pdb
     RDKit          3D

 22 22  0  0  1  0  0  0  0  0999 V2000
   28.4393  -21.3689  -16.0850 N   0  0  0  0  0  0  0  0  0  0  0  0
   27.9369  -20.3928  -15.0699 C   0  0  1  0  0  0  0  0  0  0  0  0
   27.6273  -19.1610  -15.9347 C   0  0  0  0  0  0  0  0  0  0  0  0
   26.9395  -17.7875  -15.0153 S   0  0  0  0  0  0  0  0  0  0  0  0
   26.7790  -21.0156  -14.4660 C   0  0  0  0  0  0  0  0  0  0  0  0
   25.9090  -21.5320  -15.2863 O   0  0  0  0  0  0  0  0  0  0  0  0
   26.4147  -21.1640  -13.0948 N   0  0  0  0  0  0  0  0  0  0  0  0
   27.3815  -20.8959  -12.0587 C   0  0  0  0  0  0  0  0  0  0  0  0
   26.6093  -20.7294  -10.8107 C   0  0  0  0  0  0  0  0  0  0  0  0
   25.1971  -21.0974  -11.0901 C   0  0  0  0  0  0  0  0  0  0  0  0
   25.1965  -21.5568  -12.5449 C   0  0  1  0  0  0  0  0  0  0  0  0
   23.9625  -20.9848  -13.1785 C   0  0  0  0  0  0  0  0  0  0  0  0
   24.0020  -19.7782  -13.5084 O   0  0  0  0  0  0  0  0  0  0  0  0
   22.7809  -21.7173  -13.4283 N   0  0  0  0  0  0  0  0  0  0  0  0
   21.5729  -21.1247  -13.9782 C   0  0  1  0  0  0  0  0  0  0  0  0
   20.8042  -22.2721  -14.6203 C   0  0  0  0  0  0  0  0  0  0  0  0
   19.6212  -21.7008  -15.2991 C   0  0  0  0  0  0  0  0  0  0  0  0
   19.6863  -20.6825  -16.0108 O   0  0  0  0  0  0  0  0  0  0  0  0
   20.7215  -20.5210  -12.9651 C   0  0  0  0  0  0  0  0  0  0  0  0
   20.7913  -20.7782  -11.5938 O   0  0  0  0  0  0  0  0  0  0  0  0
   18.4003  -22.3366  -15.1277 O   0  0  0  0  0  0  0  0  0  0  0  0
   19.8367  -19.6979  -13.3112 O   0  0  0  0  0  0  0  0  0  0  0  0
  2  1  1  6
  2  3  1  0
  3  4  1  0
  5  6  2  0
  5  2  1  0
  7  5  1  0
  8  7  1  0
  9  8  1  0
 10  9  1  0
 10 11  1  0
 11  7  1  0
 11 12  1  6
 12 14  1  0
 13 12  2  0
 14 15  1  0
 15 16  1  1
 15 19  1  0
 16 17  1  0
 17 21  1  0
 18 17  2  0
 19 20  1  0
 22 19  2  0
M  END
$$$$
