CPD.pdb
     RDKit          3D

 22 22  0  0  1  0  0  0  0  0999 V2000
   18.7920  -12.6158  -16.8306 N   0  0  0  0  0  0  0  0  0  0  0  0
   20.0625  -11.9329  -17.2242 C   0  0  1  0  0  0  0  0  0  0  0  0
   19.6667  -11.2552  -18.5453 C   0  0  0  0  0  0  0  0  0  0  0  0
   19.7214  -12.3480  -19.9622 S   0  0  0  0  0  0  0  0  0  0  0  0
   20.3689  -11.0209  -16.1435 C   0  0  0  0  0  0  0  0  0  0  0  0
   19.4232  -10.1928  -15.8028 O   0  0  0  0  0  0  0  0  0  0  0  0
   21.5568  -10.8660  -15.3690 N   0  0  0  0  0  0  0  0  0  0  0  0
   22.5846  -11.8767  -15.4150 C   0  0  0  0  0  0  0  0  0  0  0  0
   23.8043  -11.2459  -14.8711 C   0  0  0  0  0  0  0  0  0  0  0  0
   23.4305   -9.9162  -14.3236 C   0  0  0  0  0  0  0  0  0  0  0  0
   21.9185   -9.8315  -14.5089 C   0  0  1  0  0  0  0  0  0  0  0  0
   21.6176   -8.4380  -14.9771 C   0  0  0  0  0  0  0  0  0  0  0  0
   21.6559   -8.2340  -16.2112 O   0  0  0  0  0  0  0  0  0  0  0  0
   21.2909   -7.3621  -14.1222 N   0  0  0  0  0  0  0  0  0  0  0  0
   21.0818   -6.0022  -14.5909 C   0  0  1  0  0  0  0  0  0  0  0  0
   19.8107   -5.5188  -13.9050 C   0  0  0  0  0  0  0  0  0  0  0  0
   19.4906   -4.1772  -14.4382 C   0  0  0  0  0  0  0  0  0  0  0  0
   19.8231   -3.1298  -13.8551 O   0  0  0  0  0  0  0  0  0  0  0  0
   22.1632   -5.1005  -14.2264 C   0  0  0  0  0  0  0  0  0  0  0  0
   22.7105   -4.1189  -15.0562 O   0  0  0  0  0  0  0  0  0  0  0  0
   18.7944   -4.1001  -15.6356 O   0  0  0  0  0  0  0  0  0  0  0  0
   22.6760   -5.1806  -13.0815 O   0  0  0  0  0  0  0  0  0  0  0  0
  2  1  1  1
  2  3  1  0
  3  4  1  0
  5  6  2  0
  5  2  1  0
  7  5  1  0
  8  7  1  0
  9  8  1  0
 10  9  1  0
 10 11  1  0
 11  7  1  0
 11 12  1  6
 12 14  1  0
 13 12  2  0
 14 15  1  0
 15 16  1  1
 15 19  1  0
 16 17  1  0
 17 21  1  0
 18 17  2  0
 19 20  1  0
 22 19  2  0
M  END
$$$$
