CPD.pdb
     RDKit          3D

 22 22  0  0  1  0  0  0  0  0999 V2000
   25.8762  -15.3443  -17.2343 N   0  0  0  0  0  0  0  0  0  0  0  0
   25.9695  -14.0099  -17.9022 C   0  0  1  0  0  0  0  0  0  0  0  0
   25.0057  -14.1760  -19.0874 C   0  0  0  0  0  0  0  0  0  0  0  0
   24.6847  -12.6553  -19.9757 S   0  0  0  0  0  0  0  0  0  0  0  0
   25.5491  -13.0443  -16.9101 C   0  0  0  0  0  0  0  0  0  0  0  0
   24.3748  -13.2363  -16.3805 O   0  0  0  0  0  0  0  0  0  0  0  0
   26.2126  -11.8888  -16.4005 N   0  0  0  0  0  0  0  0  0  0  0  0
   27.6109  -11.6768  -16.6834 C   0  0  0  0  0  0  0  0  0  0  0  0
   27.8756  -10.2524  -16.3960 C   0  0  0  0  0  0  0  0  0  0  0  0
   26.6645   -9.6789  -15.7543 C   0  0  0  0  0  0  0  0  0  0  0  0
   25.7048  -10.8567  -15.6147 C   0  0  1  0  0  0  0  0  0  0  0  0
   24.3409  -10.3488  -15.9797 C   0  0  0  0  0  0  0  0  0  0  0  0
   24.0387  -10.3584  -17.1941 O   0  0  0  0  0  0  0  0  0  0  0  0
   23.3900   -9.8758  -15.0484 N   0  0  0  0  0  0  0  0  0  0  0  0
   22.0887   -9.3519  -15.4291 C   0  0  1  0  0  0  0  0  0  0  0  0
   21.0653  -10.2432  -14.7379 C   0  0  0  0  0  0  0  0  0  0  0  0
   19.7216   -9.8304  -15.1972 C   0  0  0  0  0  0  0  0  0  0  0  0
   19.4272   -9.7364  -16.4023 O   0  0  0  0  0  0  0  0  0  0  0  0
   21.8717   -7.9844  -14.9836 C   0  0  0  0  0  0  0  0  0  0  0  0
   22.6668   -7.2999  -14.0613 O   0  0  0  0  0  0  0  0  0  0  0  0
   18.7636   -9.5422  -14.2363 O   0  0  0  0  0  0  0  0  0  0  0  0
   20.8988   -7.3323  -15.4400 O   0  0  0  0  0  0  0  0  0  0  0  0
  2  1  1  1
  2  3  1  0
  3  4  1  0
  5  6  2  0
  5  2  1  0
  7  5  1  0
  8  7  1  0
  9  8  1  0
 10  9  1  0
 10 11  1  0
 11  7  1  0
 11 12  1  6
 12 14  1  0
 13 12  2  0
 14 15  1  0
 15 16  1  1
 15 19  1  0
 16 17  1  0
 17 21  1  0
 18 17  2  0
 19 20  1  0
 22 19  2  0
M  END
$$$$
