CPD.pdb
     RDKit          3D

 22 22  0  0  1  0  0  0  0  0999 V2000
   20.0888  -15.2123  -17.2264 N   0  0  0  0  0  0  0  0  0  0  0  0
   20.9441  -14.3083  -18.0550 C   0  0  1  0  0  0  0  0  0  0  0  0
   20.0202  -13.9901  -19.2409 C   0  0  0  0  0  0  0  0  0  0  0  0
   20.6526  -14.5497  -20.8195 S   0  0  0  0  0  0  0  0  0  0  0  0
   21.2546  -13.1770  -17.2083 C   0  0  0  0  0  0  0  0  0  0  0  0
   20.2825  -12.3390  -16.9869 O   0  0  0  0  0  0  0  0  0  0  0  0
   22.4711  -12.8096  -16.5598 N   0  0  0  0  0  0  0  0  0  0  0  0
   23.5692  -13.7430  -16.5048 C   0  0  0  0  0  0  0  0  0  0  0  0
   24.7668  -12.9472  -16.1673 C   0  0  0  0  0  0  0  0  0  0  0  0
   24.3248  -11.5689  -15.8318 C   0  0  0  0  0  0  0  0  0  0  0  0
   22.8024  -11.6177  -15.9195 C   0  0  1  0  0  0  0  0  0  0  0  0
   22.3675  -10.3520  -16.5980 C   0  0  0  0  0  0  0  0  0  0  0  0
   22.1533  -10.4138  -17.8295 O   0  0  0  0  0  0  0  0  0  0  0  0
   22.1806   -9.1168  -15.9389 N   0  0  0  0  0  0  0  0  0  0  0  0
   21.7273   -7.9108  -16.6119 C   0  0  1  0  0  0  0  0  0  0  0  0
   21.4114   -6.9131  -15.5054 C   0  0  0  0  0  0  0  0  0  0  0  0
   20.2496   -7.4283  -14.7492 C   0  0  0  0  0  0  0  0  0  0  0  0
   19.3054   -8.0233  -15.2989 O   0  0  0  0  0  0  0  0  0  0  0  0
   22.7406   -7.3236  -17.4744 C   0  0  0  0  0  0  0  0  0  0  0  0
   22.4957   -6.4075  -18.5001 O   0  0  0  0  0  0  0  0  0  0  0  0
   20.2272   -7.2348  -13.3758 O   0  0  0  0  0  0  0  0  0  0  0  0
   23.9464   -7.6426  -17.3180 O   0  0  0  0  0  0  0  0  0  0  0  0
  2  1  1  1
  2  3  1  0
  3  4  1  0
  5  6  2  0
  5  2  1  0
  7  5  1  0
  8  7  1  0
  9  8  1  0
 10  9  1  0
 10 11  1  0
 11  7  1  0
 11 12  1  6
 12 14  1  0
 13 12  2  0
 14 15  1  0
 15 16  1  1
 15 19  1  0
 16 17  1  0
 17 21  1  0
 18 17  2  0
 19 20  1  0
 22 19  2  0
M  END
$$$$
