CPD.pdb
     RDKit          3D

 22 22  0  0  1  0  0  0  0  0999 V2000
   24.7618  -10.8908  -17.8092 N   0  0  0  0  0  0  0  0  0  0  0  0
   24.5081  -10.7330  -16.3443 C   0  0  1  0  0  0  0  0  0  0  0  0
   25.8065  -10.0667  -15.8634 C   0  0  0  0  0  0  0  0  0  0  0  0
   27.1992  -11.1871  -15.7638 S   0  0  0  0  0  0  0  0  0  0  0  0
   23.3265   -9.9048  -16.2376 C   0  0  0  0  0  0  0  0  0  0  0  0
   23.3261   -8.8084  -16.9406 O   0  0  0  0  0  0  0  0  0  0  0  0
   22.1338  -10.0837  -15.4757 N   0  0  0  0  0  0  0  0  0  0  0  0
   21.7756  -11.3952  -14.9943 C   0  0  0  0  0  0  0  0  0  0  0  0
   20.7726  -11.1815  -13.9314 C   0  0  0  0  0  0  0  0  0  0  0  0
   20.4016   -9.7428  -13.9302 C   0  0  0  0  0  0  0  0  0  0  0  0
   21.1835   -9.1396  -15.0931 C   0  0  1  0  0  0  0  0  0  0  0  0
   21.7098   -7.8164  -14.6202 C   0  0  0  0  0  0  0  0  0  0  0  0
   22.9263   -7.7606  -14.3315 O   0  0  0  0  0  0  0  0  0  0  0  0
   20.9284   -6.6468  -14.4914 N   0  0  0  0  0  0  0  0  0  0  0  0
   21.4950   -5.3244  -14.2841 C   0  0  1  0  0  0  0  0  0  0  0  0
   22.3631   -5.0499  -15.5050 C   0  0  0  0  0  0  0  0  0  0  0  0
   22.9114   -3.6829  -15.3728 C   0  0  0  0  0  0  0  0  0  0  0  0
   23.5110   -3.2995  -14.3524 O   0  0  0  0  0  0  0  0  0  0  0  0
   20.4875   -4.2786  -14.2013 C   0  0  0  0  0  0  0  0  0  0  0  0
   19.3200   -4.2198  -14.9660 O   0  0  0  0  0  0  0  0  0  0  0  0
   22.7446   -2.8075  -16.4357 O   0  0  0  0  0  0  0  0  0  0  0  0
   20.6444   -3.3315  -13.3898 O   0  0  0  0  0  0  0  0  0  0  0  0
  2  1  1  6
  2  3  1  0
  3  4  1  0
  5  6  2  0
  5  2  1  0
  7  5  1  0
  8  7  1  0
  9  8  1  0
 10  9  1  0
 10 11  1  0
 11  7  1  0
 11 12  1  1
 12 14  1  0
 13 12  2  0
 14 15  1  0
 15 16  1  6
 15 19  1  0
 16 17  1  0
 17 21  1  0
 18 17  2  0
 19 20  1  0
 22 19  2  0
M  END
$$$$
