CPD.pdb
     RDKit          3D

 22 22  0  0  1  0  0  0  0  0999 V2000
   24.9874  -20.4712   -9.5296 N   0  0  0  0  0  0  0  0  0  0  0  0
   25.4426  -21.2413  -10.7276 C   0  0  1  0  0  0  0  0  0  0  0  0
   24.1802  -22.0354  -11.0976 C   0  0  0  0  0  0  0  0  0  0  0  0
   24.3814  -23.0828  -12.5354 S   0  0  0  0  0  0  0  0  0  0  0  0
   25.8424  -20.2500  -11.7027 C   0  0  0  0  0  0  0  0  0  0  0  0
   25.0205  -19.2560  -11.8840 O   0  0  0  0  0  0  0  0  0  0  0  0
   27.0077  -20.1715  -12.5218 N   0  0  0  0  0  0  0  0  0  0  0  0
   28.2468  -20.7556  -12.0707 C   0  0  0  0  0  0  0  0  0  0  0  0
   29.1017  -20.8789  -13.2688 C   0  0  0  0  0  0  0  0  0  0  0  0
   28.4250  -20.1800  -14.3918 C   0  0  0  0  0  0  0  0  0  0  0  0
   27.1664  -19.5796  -13.7728 C   0  0  1  0  0  0  0  0  0  0  0  0
   26.0554  -19.7936  -14.7585 C   0  0  0  0  0  0  0  0  0  0  0  0
   25.4917  -20.9109  -14.7434 O   0  0  0  0  0  0  0  0  0  0  0  0
   25.6096  -18.8221  -15.6818 N   0  0  0  0  0  0  0  0  0  0  0  0
   24.4258  -18.9874  -16.5088 C   0  0  1  0  0  0  0  0  0  0  0  0
   23.2526  -18.5409  -15.6462 C   0  0  0  0  0  0  0  0  0  0  0  0
   22.0167  -18.7085  -16.4407 C   0  0  0  0  0  0  0  0  0  0  0  0
   21.9241  -19.5353  -17.3656 O   0  0  0  0  0  0  0  0  0  0  0  0
   24.4465  -18.1620  -17.7062 C   0  0  0  0  0  0  0  0  0  0  0  0
   23.7552  -18.4369  -18.8885 O   0  0  0  0  0  0  0  0  0  0  0  0
   20.9276  -17.9077  -16.1297 O   0  0  0  0  0  0  0  0  0  0  0  0
   25.1323  -17.1086  -17.7194 O   0  0  0  0  0  0  0  0  0  0  0  0
  2  1  1  1
  2  3  1  0
  3  4  1  0
  5  6  2  0
  5  2  1  0
  7  5  1  0
  8  7  1  0
  9  8  1  0
 10  9  1  0
 10 11  1  0
 11  7  1  0
 11 12  1  6
 12 14  1  0
 13 12  2  0
 14 15  1  0
 15 16  1  1
 15 19  1  0
 16 17  1  0
 17 21  1  0
 18 17  2  0
 19 20  1  0
 22 19  2  0
M  END
$$$$
