CPD.pdb
     RDKit          3D

 22 22  0  0  1  0  0  0  0  0999 V2000
   24.4347  -15.1334  -16.7534 N   0  0  0  0  0  0  0  0  0  0  0  0
   24.8832  -13.9059  -17.4796 C   0  0  1  0  0  0  0  0  0  0  0  0
   24.0635  -13.9829  -18.7770 C   0  0  0  0  0  0  0  0  0  0  0  0
   24.0281  -12.4499  -19.7010 S   0  0  0  0  0  0  0  0  0  0  0  0
   24.5479  -12.7945  -16.6161 C   0  0  0  0  0  0  0  0  0  0  0  0
   23.3062  -12.7187  -16.2305 O   0  0  0  0  0  0  0  0  0  0  0  0
   25.3604  -11.7401  -16.1032 N   0  0  0  0  0  0  0  0  0  0  0  0
   26.7942  -11.7993  -16.2473 C   0  0  0  0  0  0  0  0  0  0  0  0
   27.2867  -10.4268  -16.0120 C   0  0  0  0  0  0  0  0  0  0  0  0
   26.1458   -9.6033  -15.5348 C   0  0  0  0  0  0  0  0  0  0  0  0
   24.9780  -10.5799  -15.4335 C   0  0  1  0  0  0  0  0  0  0  0  0
   23.7707   -9.8674  -15.9684 C   0  0  0  0  0  0  0  0  0  0  0  0
   23.5601   -9.9544  -17.1990 O   0  0  0  0  0  0  0  0  0  0  0  0
   22.8678   -9.1231  -15.1773 N   0  0  0  0  0  0  0  0  0  0  0  0
   21.7237   -8.4117  -15.7231 C   0  0  1  0  0  0  0  0  0  0  0  0
   20.6658   -8.4267  -14.6275 C   0  0  0  0  0  0  0  0  0  0  0  0
   19.4729   -7.7189  -15.1402 C   0  0  0  0  0  0  0  0  0  0  0  0
   19.2242   -6.5343  -14.8529 O   0  0  0  0  0  0  0  0  0  0  0  0
   22.0169   -7.0250  -16.0496 C   0  0  0  0  0  0  0  0  0  0  0  0
   23.1428   -6.3159  -15.6241 O   0  0  0  0  0  0  0  0  0  0  0  0
   18.6091   -8.4149  -15.9731 O   0  0  0  0  0  0  0  0  0  0  0  0
   21.2155   -6.3761  -16.7685 O   0  0  0  0  0  0  0  0  0  0  0  0
  2  1  1  1
  2  3  1  0
  3  4  1  0
  5  6  2  0
  5  2  1  0
  7  5  1  0
  8  7  1  0
  9  8  1  0
 10  9  1  0
 10 11  1  0
 11  7  1  0
 11 12  1  6
 12 14  1  0
 13 12  2  0
 14 15  1  0
 15 16  1  1
 15 19  1  0
 16 17  1  0
 17 21  1  0
 18 17  2  0
 19 20  1  0
 22 19  2  0
M  END
$$$$
