CPD.pdb
     RDKit          3D

 22 22  0  0  1  0  0  0  0  0999 V2000
   16.8275  -12.3805  -15.0143 N   0  0  0  0  0  0  0  0  0  0  0  0
   16.0892  -11.1084  -15.2828 C   0  0  1  0  0  0  0  0  0  0  0  0
   15.4332  -10.8247  -13.9225 C   0  0  0  0  0  0  0  0  0  0  0  0
   13.9017  -11.7137  -13.6599 S   0  0  0  0  0  0  0  0  0  0  0  0
   17.0947  -10.1480  -15.6826 C   0  0  0  0  0  0  0  0  0  0  0  0
   18.1961  -10.1437  -14.9875 O   0  0  0  0  0  0  0  0  0  0  0  0
   17.0881   -9.1795  -16.7300 N   0  0  0  0  0  0  0  0  0  0  0  0
   16.0354   -9.1907  -17.7158 C   0  0  0  0  0  0  0  0  0  0  0  0
   16.0744   -7.8680  -18.3720 C   0  0  0  0  0  0  0  0  0  0  0  0
   17.2870   -7.1532  -17.8963 C   0  0  0  0  0  0  0  0  0  0  0  0
   17.9936   -8.1521  -16.9850 C   0  0  1  0  0  0  0  0  0  0  0  0
   18.4811   -7.3809  -15.7937 C   0  0  0  0  0  0  0  0  0  0  0  0
   17.6945   -7.2755  -14.8260 O   0  0  0  0  0  0  0  0  0  0  0  0
   19.7574   -6.7834  -15.6976 N   0  0  0  0  0  0  0  0  0  0  0  0
   20.2123   -6.0508  -14.5276 C   0  0  1  0  0  0  0  0  0  0  0  0
   21.7304   -6.1737  -14.5265 C   0  0  0  0  0  0  0  0  0  0  0  0
   22.2448   -5.4231  -13.3609 C   0  0  0  0  0  0  0  0  0  0  0  0
   22.7220   -4.2786  -13.4610 O   0  0  0  0  0  0  0  0  0  0  0  0
   19.8732   -4.6371  -14.5722 C   0  0  0  0  0  0  0  0  0  0  0  0
   19.6081   -3.8348  -13.4598 O   0  0  0  0  0  0  0  0  0  0  0  0
   22.1842   -6.0306  -12.1153 O   0  0  0  0  0  0  0  0  0  0  0  0
   19.8000   -4.0534  -15.6831 O   0  0  0  0  0  0  0  0  0  0  0  0
  2  1  1  1
  2  3  1  0
  3  4  1  0
  5  6  2  0
  5  2  1  0
  7  5  1  0
  8  7  1  0
  9  8  1  0
 10  9  1  0
 10 11  1  0
 11  7  1  0
 11 12  1  1
 12 14  1  0
 13 12  2  0
 14 15  1  0
 15 16  1  6
 15 19  1  0
 16 17  1  0
 17 21  1  0
 18 17  2  0
 19 20  1  0
 22 19  2  0
M  END
$$$$
