CPD.pdb
     RDKit          3D

 22 22  0  0  1  0  0  0  0  0999 V2000
   19.3437  -12.9432  -17.0229 N   0  0  0  0  0  0  0  0  0  0  0  0
   20.4258  -12.0288  -17.5007 C   0  0  1  0  0  0  0  0  0  0  0  0
   19.7775  -11.3811  -18.7342 C   0  0  0  0  0  0  0  0  0  0  0  0
   19.7713  -12.4329  -20.1828 S   0  0  0  0  0  0  0  0  0  0  0  0
   20.6842  -11.1203  -16.4047 C   0  0  0  0  0  0  0  0  0  0  0  0
   19.6985  -10.3440  -16.0552 O   0  0  0  0  0  0  0  0  0  0  0  0
   21.8606  -10.9205  -15.6228 N   0  0  0  0  0  0  0  0  0  0  0  0
   22.9271  -11.8905  -15.6641 C   0  0  0  0  0  0  0  0  0  0  0  0
   24.1181  -11.2136  -15.1120 C   0  0  0  0  0  0  0  0  0  0  0  0
   23.6896   -9.9004  -14.5648 C   0  0  0  0  0  0  0  0  0  0  0  0
   22.1766   -9.8742  -14.7592 C   0  0  1  0  0  0  0  0  0  0  0  0
   21.8246   -8.4927  -15.2271 C   0  0  0  0  0  0  0  0  0  0  0  0
   21.9418   -8.2619  -16.4516 O   0  0  0  0  0  0  0  0  0  0  0  0
   21.3682   -7.4563  -14.3829 N   0  0  0  0  0  0  0  0  0  0  0  0
   21.2692   -6.0679  -14.8015 C   0  0  1  0  0  0  0  0  0  0  0  0
   19.9273   -5.5725  -14.2784 C   0  0  0  0  0  0  0  0  0  0  0  0
   18.8625   -6.2728  -15.0284 C   0  0  0  0  0  0  0  0  0  0  0  0
   18.7806   -6.2302  -16.2691 O   0  0  0  0  0  0  0  0  0  0  0  0
   22.3129   -5.2262  -14.2377 C   0  0  0  0  0  0  0  0  0  0  0  0
   23.1760   -5.5942  -13.2028 O   0  0  0  0  0  0  0  0  0  0  0  0
   17.9282   -7.0019  -14.3075 O   0  0  0  0  0  0  0  0  0  0  0  0
   22.4825   -4.0653  -14.6891 O   0  0  0  0  0  0  0  0  0  0  0  0
  2  1  1  1
  2  3  1  0
  3  4  1  0
  5  6  2  0
  5  2  1  0
  7  5  1  0
  8  7  1  0
  9  8  1  0
 10  9  1  0
 10 11  1  0
 11  7  1  0
 11 12  1  6
 12 14  1  0
 13 12  2  0
 14 15  1  0
 15 16  1  1
 15 19  1  0
 16 17  1  0
 17 21  1  0
 18 17  2  0
 19 20  1  0
 22 19  2  0
M  END
$$$$
