CPD.pdb
     RDKit          3D

 22 22  0  0  1  0  0  0  0  0999 V2000
   23.2374  -10.4794  -17.1884 N   0  0  0  0  0  0  0  0  0  0  0  0
   22.2408  -10.2523  -16.0972 C   0  0  1  0  0  0  0  0  0  0  0  0
   23.1455  -10.0750  -14.8679 C   0  0  0  0  0  0  0  0  0  0  0  0
   23.9058  -11.5951  -14.3055 S   0  0  0  0  0  0  0  0  0  0  0  0
   21.5014   -9.0693  -16.4810 C   0  0  0  0  0  0  0  0  0  0  0  0
   22.2062   -7.9980  -16.7085 O   0  0  0  0  0  0  0  0  0  0  0  0
   20.1001   -8.8671  -16.6554 N   0  0  0  0  0  0  0  0  0  0  0  0
   19.2183  -10.0012  -16.7836 C   0  0  0  0  0  0  0  0  0  0  0  0
   17.8557   -9.4916  -16.5281 C   0  0  0  0  0  0  0  0  0  0  0  0
   17.9262   -8.0099  -16.4428 C   0  0  0  0  0  0  0  0  0  0  0  0
   19.3857   -7.6737  -16.7334 C   0  0  1  0  0  0  0  0  0  0  0  0
   19.7812   -6.5945  -15.7688 C   0  0  0  0  0  0  0  0  0  0  0  0
   20.5411   -6.9237  -14.8304 O   0  0  0  0  0  0  0  0  0  0  0  0
   19.3603   -5.2493  -15.8599 N   0  0  0  0  0  0  0  0  0  0  0  0
   19.8112   -4.2063  -14.9534 C   0  0  1  0  0  0  0  0  0  0  0  0
   21.3158   -4.0978  -15.1629 C   0  0  0  0  0  0  0  0  0  0  0  0
   21.8210   -3.0298  -14.2736 C   0  0  0  0  0  0  0  0  0  0  0  0
   22.0614   -1.8792  -14.6811 O   0  0  0  0  0  0  0  0  0  0  0  0
   19.2202   -2.9082  -15.2384 C   0  0  0  0  0  0  0  0  0  0  0  0
   19.2055   -2.2844  -16.4882 O   0  0  0  0  0  0  0  0  0  0  0  0
   22.0279   -3.3374  -12.9369 O   0  0  0  0  0  0  0  0  0  0  0  0
   18.6706   -2.2618  -14.3108 O   0  0  0  0  0  0  0  0  0  0  0  0
  2  1  1  6
  2  3  1  0
  3  4  1  0
  5  6  2  0
  5  2  1  0
  7  5  1  0
  8  7  1  0
  9  8  1  0
 10  9  1  0
 10 11  1  0
 11  7  1  0
 11 12  1  1
 12 14  1  0
 13 12  2  0
 14 15  1  0
 15 16  1  6
 15 19  1  0
 16 17  1  0
 17 21  1  0
 18 17  2  0
 19 20  1  0
 22 19  2  0
M  END
$$$$
