CPD.pdb
     RDKit          3D

 22 22  0  0  1  0  0  0  0  0999 V2000
   16.0635  -14.2111  -15.7490 N   0  0  0  0  0  0  0  0  0  0  0  0
   15.2891  -13.0131  -15.3011 C   0  0  1  0  0  0  0  0  0  0  0  0
   15.4059  -13.1087  -13.7719 C   0  0  0  0  0  0  0  0  0  0  0  0
   14.4010  -14.4026  -13.0503 S   0  0  0  0  0  0  0  0  0  0  0  0
   15.9563  -11.8720  -15.8895 C   0  0  0  0  0  0  0  0  0  0  0  0
   17.2572  -11.9215  -15.9270 O   0  0  0  0  0  0  0  0  0  0  0  0
   15.4237  -10.6719  -16.4472 N   0  0  0  0  0  0  0  0  0  0  0  0
   14.0158  -10.5784  -16.7460 C   0  0  0  0  0  0  0  0  0  0  0  0
   13.7238   -9.1384  -16.8971 C   0  0  0  0  0  0  0  0  0  0  0  0
   15.0142   -8.4021  -16.8783 C   0  0  0  0  0  0  0  0  0  0  0  0
   16.0799   -9.4895  -16.7816 C   0  0  1  0  0  0  0  0  0  0  0  0
   17.1106   -8.9994  -15.8073 C   0  0  0  0  0  0  0  0  0  0  0  0
   16.8920   -9.2159  -14.5942 O   0  0  0  0  0  0  0  0  0  0  0  0
   18.2976   -8.3265  -16.1725 N   0  0  0  0  0  0  0  0  0  0  0  0
   19.2949   -7.8841  -15.2120 C   0  0  1  0  0  0  0  0  0  0  0  0
   20.5779   -8.6176  -15.5801 C   0  0  0  0  0  0  0  0  0  0  0  0
   21.6259   -8.2060  -14.6213 C   0  0  0  0  0  0  0  0  0  0  0  0
   21.4043   -7.4118  -13.6897 O   0  0  0  0  0  0  0  0  0  0  0  0
   19.5562   -6.4549  -15.2782 C   0  0  0  0  0  0  0  0  0  0  0  0
   19.1306   -5.6026  -16.3000 O   0  0  0  0  0  0  0  0  0  0  0  0
   22.8984   -8.7353  -14.7787 O   0  0  0  0  0  0  0  0  0  0  0  0
   20.2177   -5.9040  -14.3622 O   0  0  0  0  0  0  0  0  0  0  0  0
  2  1  1  6
  2  3  1  0
  3  4  1  0
  5  6  2  0
  5  2  1  0
  7  5  1  0
  8  7  1  0
  9  8  1  0
 10  9  1  0
 10 11  1  0
 11  7  1  0
 11 12  1  1
 12 14  1  0
 13 12  2  0
 14 15  1  0
 15 16  1  6
 15 19  1  0
 16 17  1  0
 17 21  1  0
 18 17  2  0
 19 20  1  0
 22 19  2  0
M  END
$$$$
