CPD.pdb
     RDKit          3D

 22 22  0  0  1  0  0  0  0  0999 V2000
   12.7202  -13.3232  -10.6176 N   0  0  0  0  0  0  0  0  0  0  0  0
   13.0499  -12.2226  -11.5743 C   0  0  1  0  0  0  0  0  0  0  0  0
   11.6713  -11.5922  -11.8260 C   0  0  0  0  0  0  0  0  0  0  0  0
   11.5723  -10.6564  -13.3489 S   0  0  0  0  0  0  0  0  0  0  0  0
   13.9894  -11.3682  -10.8810 C   0  0  0  0  0  0  0  0  0  0  0  0
   13.5757  -10.8458   -9.7619 O   0  0  0  0  0  0  0  0  0  0  0  0
   15.3218  -10.9872  -11.2197 N   0  0  0  0  0  0  0  0  0  0  0  0
   16.0298  -11.6898  -12.2613 C   0  0  0  0  0  0  0  0  0  0  0  0
   17.1607  -10.8210  -12.6459 C   0  0  0  0  0  0  0  0  0  0  0  0
   17.2222   -9.6913  -11.6828 C   0  0  0  0  0  0  0  0  0  0  0  0
   16.1160   -9.9818  -10.6731 C   0  0  1  0  0  0  0  0  0  0  0  0
   15.4363   -8.6747  -10.3883 C   0  0  0  0  0  0  0  0  0  0  0  0
   14.6031   -8.2735  -11.2316 O   0  0  0  0  0  0  0  0  0  0  0  0
   15.6710   -7.8868   -9.2398 N   0  0  0  0  0  0  0  0  0  0  0  0
   15.0102   -6.6160   -8.9920 C   0  0  1  0  0  0  0  0  0  0  0  0
   15.0575   -6.4121   -7.4834 C   0  0  0  0  0  0  0  0  0  0  0  0
   14.2417   -5.2214   -7.1616 C   0  0  0  0  0  0  0  0  0  0  0  0
   13.6230   -4.5808   -8.0302 O   0  0  0  0  0  0  0  0  0  0  0  0
   15.6831   -5.4907   -9.6217 C   0  0  0  0  0  0  0  0  0  0  0  0
   15.0491   -4.3639  -10.1505 O   0  0  0  0  0  0  0  0  0  0  0  0
   14.1721   -4.8170   -5.8365 O   0  0  0  0  0  0  0  0  0  0  0  0
   16.9363   -5.4956   -9.7199 O   0  0  0  0  0  0  0  0  0  0  0  0
  2  1  1  1
  2  3  1  0
  3  4  1  0
  5  6  2  0
  5  2  1  0
  7  5  1  0
  8  7  1  0
  9  8  1  0
 10  9  1  0
 10 11  1  0
 11  7  1  0
 11 12  1  6
 12 14  1  0
 13 12  2  0
 14 15  1  0
 15 16  1  1
 15 19  1  0
 16 17  1  0
 17 21  1  0
 18 17  2  0
 19 20  1  0
 22 19  2  0
M  END
$$$$
