CPD.pdb
     RDKit          3D

 22 22  0  0  1  0  0  0  0  0999 V2000
   16.6830   -9.1037  -11.2228 N   0  0  0  0  0  0  0  0  0  0  0  0
   17.0582   -8.8827  -12.6531 C   0  0  1  0  0  0  0  0  0  0  0  0
   15.8784   -8.0440  -13.1687 C   0  0  0  0  0  0  0  0  0  0  0  0
   15.5520   -8.2543  -14.9163 S   0  0  0  0  0  0  0  0  0  0  0  0
   18.3275   -8.1889  -12.6232 C   0  0  0  0  0  0  0  0  0  0  0  0
   18.3418   -7.0400  -12.0099 O   0  0  0  0  0  0  0  0  0  0  0  0
   19.5965   -8.5524  -13.1641 N   0  0  0  0  0  0  0  0  0  0  0  0
   19.8417   -9.9126  -13.5764 C   0  0  0  0  0  0  0  0  0  0  0  0
   21.0343   -9.8682  -14.4466 C   0  0  0  0  0  0  0  0  0  0  0  0
   21.6016   -8.4965  -14.3814 C   0  0  0  0  0  0  0  0  0  0  0  0
   20.7238   -7.7612  -13.3732 C   0  0  1  0  0  0  0  0  0  0  0  0
   20.4824   -6.3889  -13.9299 C   0  0  0  0  0  0  0  0  0  0  0  0
   19.5294   -6.2618  -14.7312 O   0  0  0  0  0  0  0  0  0  0  0  0
   21.2491   -5.2487  -13.6025 N   0  0  0  0  0  0  0  0  0  0  0  0
   21.0865   -3.9602  -14.2553 C   0  0  1  0  0  0  0  0  0  0  0  0
   20.7729   -2.9689  -13.1423 C   0  0  0  0  0  0  0  0  0  0  0  0
   20.5186   -1.6527  -13.7666 C   0  0  0  0  0  0  0  0  0  0  0  0
   21.3492   -0.7270  -13.7356 O   0  0  0  0  0  0  0  0  0  0  0  0
   22.2902   -3.5097  -14.9362 C   0  0  0  0  0  0  0  0  0  0  0  0
   23.5980   -3.8072  -14.5459 O   0  0  0  0  0  0  0  0  0  0  0  0
   19.3044   -1.4589  -14.4087 O   0  0  0  0  0  0  0  0  0  0  0  0
   22.1880   -2.7901  -15.9618 O   0  0  0  0  0  0  0  0  0  0  0  0
  2  1  1  1
  2  3  1  0
  3  4  1  0
  5  6  2  0
  5  2  1  0
  7  5  1  0
  8  7  1  0
  9  8  1  0
 10  9  1  0
 10 11  1  0
 11  7  1  0
 11 12  1  6
 12 14  1  0
 13 12  2  0
 14 15  1  0
 15 16  1  1
 15 19  1  0
 16 17  1  0
 17 21  1  0
 18 17  2  0
 19 20  1  0
 22 19  2  0
M  END
$$$$
