CPD.pdb
     RDKit          3D

 22 22  0  0  1  0  0  0  0  0999 V2000
   18.5192  -12.6312  -16.0373 N   0  0  0  0  0  0  0  0  0  0  0  0
   18.6036  -11.6605  -17.1712 C   0  0  1  0  0  0  0  0  0  0  0  0
   17.1855  -11.0692  -17.1941 C   0  0  0  0  0  0  0  0  0  0  0  0
   15.9545  -12.1716  -17.8828 S   0  0  0  0  0  0  0  0  0  0  0  0
   19.6449  -10.7235  -16.8091 C   0  0  0  0  0  0  0  0  0  0  0  0
   19.5548  -10.1920  -15.6235 O   0  0  0  0  0  0  0  0  0  0  0  0
   20.7796  -10.2678  -17.5439 N   0  0  0  0  0  0  0  0  0  0  0  0
   21.1886  -10.9599  -18.7413 C   0  0  0  0  0  0  0  0  0  0  0  0
   22.0816  -10.0328  -19.4656 C   0  0  0  0  0  0  0  0  0  0  0  0
   22.3480   -8.8667  -18.5842 C   0  0  0  0  0  0  0  0  0  0  0  0
   21.6250   -9.1923  -17.2809 C   0  0  1  0  0  0  0  0  0  0  0  0
   20.9684   -7.9236  -16.8219 C   0  0  0  0  0  0  0  0  0  0  0  0
   19.8447   -7.6597  -17.3058 O   0  0  0  0  0  0  0  0  0  0  0  0
   21.5301   -7.0279  -15.8853 N   0  0  0  0  0  0  0  0  0  0  0  0
   20.9757   -5.7146  -15.6014 C   0  0  1  0  0  0  0  0  0  0  0  0
   20.4383   -5.7909  -14.1783 C   0  0  0  0  0  0  0  0  0  0  0  0
   21.5383   -6.2496  -13.3029 C   0  0  0  0  0  0  0  0  0  0  0  0
   22.6413   -6.6116  -13.7501 O   0  0  0  0  0  0  0  0  0  0  0  0
   21.9683   -4.6528  -15.6535 C   0  0  0  0  0  0  0  0  0  0  0  0
   21.6933   -3.2856  -15.5729 O   0  0  0  0  0  0  0  0  0  0  0  0
   21.3173   -6.2695  -11.9336 O   0  0  0  0  0  0  0  0  0  0  0  0
   23.1833   -4.9479  -15.7838 O   0  0  0  0  0  0  0  0  0  0  0  0
  2  1  1  1
  2  3  1  0
  3  4  1  0
  5  6  2  0
  5  2  1  0
  7  5  1  0
  8  7  1  0
  9  8  1  0
 10  9  1  0
 10 11  1  0
 11  7  1  0
 11 12  1  6
 12 14  1  0
 13 12  2  0
 14 15  1  0
 15 16  1  1
 15 19  1  0
 16 17  1  0
 17 21  1  0
 18 17  2  0
 19 20  1  0
 22 19  2  0
M  END
$$$$
