YNV.pdb
     RDKit          3D

 28 28  0  0  1  0  0  0  0  0999 V2000
   33.5137  -23.4248  -10.9312 O   0  0  0  0  0  0  0  0  0  0  0  0
   32.4744  -22.6196  -11.3414 C   0  0  0  0  0  0  0  0  0  0  0  0
   31.8060  -21.8274  -10.4451 C   0  0  0  0  0  0  0  0  0  0  0  0
   30.7499  -21.0068  -10.8513 C   0  0  0  0  0  0  0  0  0  0  0  0
   30.3895  -21.0081  -12.1805 C   0  0  0  0  0  0  0  0  0  0  0  0
   29.2716  -20.1398  -12.6094 C   0  0  0  0  0  0  0  0  0  0  0  0
   27.9843  -20.8354  -12.1632 C   0  0  2  0  0  0  0  0  0  0  0  0
   27.9628  -22.1329  -12.7694 N   0  0  0  0  0  0  0  0  0  0  0  0
   26.8550  -19.9879  -12.6351 C   0  0  0  0  0  0  0  0  0  0  0  0
   26.8623  -18.7477  -12.4451 O   0  0  0  0  0  0  0  0  0  0  0  0
   31.0393  -21.7885  -13.0957 C   0  0  0  0  0  0  0  0  0  0  0  0
   32.0936  -22.5993  -12.6537 C   0  0  0  0  0  0  0  0  0  0  0  0
   26.2786  -17.9114  -15.3278 N   0  0  0  0  0  0  0  0  0  0  0  0
   25.9000  -19.0787  -16.0702 C   0  0  0  0  0  0  0  0  0  0  0  0
   26.3323  -19.1927  -17.2198 O   0  0  0  0  0  0  0  0  0  0  0  0
   25.0434  -20.0257  -15.4113 C   0  0  0  0  0  0  0  0  0  0  0  0
   24.6935  -19.8313  -13.9636 C   0  0  2  0  0  0  0  0  0  0  0  0
   25.7869  -20.6165  -13.2959 N   0  0  0  0  0  0  0  0  0  0  0  0
   23.4683  -20.4991  -13.5139 C   0  0  0  0  0  0  0  0  0  0  0  0
   23.4323  -21.7825  -13.4923 O   0  0  0  0  0  0  0  0  0  0  0  0
   22.1068  -20.5474  -10.2394 C   0  0  0  0  0  0  0  0  0  0  0  0
   20.8980  -20.2924  -11.1138 C   0  0  1  0  0  0  0  0  0  0  0  0
   20.5995  -18.8107  -11.0659 C   0  0  0  0  0  0  0  0  0  0  0  0
   21.1710  -20.6740  -12.5397 C   0  0  2  0  0  0  0  0  0  0  0  0
   22.2820  -19.8755  -13.0821 N   0  0  0  0  0  0  0  0  0  0  0  0
   19.9830  -20.3935  -13.3662 C   0  0  0  0  0  0  0  0  0  0  0  0
   18.8485  -21.2240  -13.3177 O   0  0  0  0  0  0  0  0  0  0  0  0
   19.9762  -19.4010  -14.1274 O   0  0  0  0  0  0  0  0  0  0  0  0
  2  1  1  0
  2 12  2  0
  3  2  1  0
  4  3  2  0
  4  5  1  0
  5 11  2  0
  6  5  1  0
  7  9  1  0
  7  6  1  0
  7  8  1  6
  9 18  1  0
 10  9  2  0
 11 12  1  0
 14 13  1  0
 15 14  2  0
 16 14  1  0
 17 16  1  6
 18 17  1  0
 19 17  1  0
 20 19  2  0
 22 21  1  1
 22 23  1  0
 22 24  1  0
 24 26  1  0
 24 25  1  6
 25 19  1  0
 26 27  1  0
 28 26  2  0
M  END
$$$$
