YNV.pdb
     RDKit          3D

 28 28  0  0  1  0  0  0  0  0999 V2000
   29.0594  -20.3870   -5.3633 O   0  0  0  0  0  0  0  0  0  0  0  0
   28.5362  -20.3024   -6.6345 C   0  0  0  0  0  0  0  0  0  0  0  0
   27.3697  -19.6227   -6.8681 C   0  0  0  0  0  0  0  0  0  0  0  0
   26.8305  -19.5311   -8.1545 C   0  0  0  0  0  0  0  0  0  0  0  0
   27.4983  -20.1416   -9.1927 C   0  0  0  0  0  0  0  0  0  0  0  0
   26.9269  -20.0447  -10.5534 C   0  0  0  0  0  0  0  0  0  0  0  0
   25.7631  -21.0361  -10.6084 C   0  0  2  0  0  0  0  0  0  0  0  0
   26.3217  -22.3528  -10.6819 N   0  0  0  0  0  0  0  0  0  0  0  0
   24.9752  -20.7028  -11.8267 C   0  0  0  0  0  0  0  0  0  0  0  0
   24.6351  -19.5189  -12.0653 O   0  0  0  0  0  0  0  0  0  0  0  0
   28.6638  -20.8260   -8.9877 C   0  0  0  0  0  0  0  0  0  0  0  0
   29.1761  -20.8978   -7.6850 C   0  0  0  0  0  0  0  0  0  0  0  0
   26.0145  -24.0894  -15.5154 N   0  0  0  0  0  0  0  0  0  0  0  0
   25.2974  -22.8474  -15.5259 C   0  0  0  0  0  0  0  0  0  0  0  0
   25.7416  -21.9344  -16.2263 O   0  0  0  0  0  0  0  0  0  0  0  0
   24.1136  -22.7668  -14.7155 C   0  0  0  0  0  0  0  0  0  0  0  0
   23.8238  -21.5112  -13.9439 C   0  0  2  0  0  0  0  0  0  0  0  0
   24.6260  -21.7494  -12.6959 N   0  0  0  0  0  0  0  0  0  0  0  0
   22.4507  -21.3762  -13.4482 C   0  0  0  0  0  0  0  0  0  0  0  0
   22.0687  -22.1126  -12.4681 O   0  0  0  0  0  0  0  0  0  0  0  0
   18.5091  -18.6402  -12.4647 C   0  0  0  0  0  0  0  0  0  0  0  0
   19.8133  -18.8546  -13.2021 C   0  0  1  0  0  0  0  0  0  0  0  0
   20.8855  -18.0710  -12.4786 C   0  0  0  0  0  0  0  0  0  0  0  0
   20.2044  -20.3039  -13.2004 C   0  0  2  0  0  0  0  0  0  0  0  0
   21.4644  -20.4975  -13.9359 N   0  0  0  0  0  0  0  0  0  0  0  0
   19.1689  -21.0997  -13.8842 C   0  0  0  0  0  0  0  0  0  0  0  0
   18.1929  -21.8051  -13.1570 O   0  0  0  0  0  0  0  0  0  0  0  0
   19.1515  -21.1538  -15.1338 O   0  0  0  0  0  0  0  0  0  0  0  0
  2  1  1  0
  2 12  2  0
  3  2  1  0
  4  3  2  0
  4  5  1  0
  5 11  2  0
  6  5  1  0
  7  9  1  0
  7  6  1  0
  7  8  1  6
  9 18  1  0
 10  9  2  0
 11 12  1  0
 14 13  1  0
 15 14  2  0
 16 14  1  0
 17 16  1  6
 18 17  1  0
 19 17  1  0
 20 19  2  0
 22 21  1  1
 22 23  1  0
 22 24  1  0
 24 26  1  0
 24 25  1  6
 25 19  1  0
 26 27  1  0
 28 26  2  0
M  END
$$$$
