YNV.pdb
     RDKit          3D

 28 28  0  0  1  0  0  0  0  0999 V2000
   28.3827  -32.8933   -2.7705 O   0  0  0  0  0  0  0  0  0  0  0  0
   29.4856  -33.3894   -3.4295 C   0  0  0  0  0  0  0  0  0  0  0  0
   29.5935  -33.2852   -4.7914 C   0  0  0  0  0  0  0  0  0  0  0  0
   30.7087  -33.7855   -5.4696 C   0  0  0  0  0  0  0  0  0  0  0  0
   31.7065  -34.3907   -4.7382 C   0  0  0  0  0  0  0  0  0  0  0  0
   32.8860  -34.9202   -5.4566 C   0  0  0  0  0  0  0  0  0  0  0  0
   32.7121  -36.4389   -5.5186 C   0  0  2  0  0  0  0  0  0  0  0  0
   33.8374  -36.9731   -6.2252 N   0  0  0  0  0  0  0  0  0  0  0  0
   31.4358  -36.6936   -6.2415 C   0  0  0  0  0  0  0  0  0  0  0  0
   31.3839  -36.6229   -7.4931 O   0  0  0  0  0  0  0  0  0  0  0  0
   31.6244  -34.5079   -3.3787 C   0  0  0  0  0  0  0  0  0  0  0  0
   30.4921  -33.9951   -2.7311 C   0  0  0  0  0  0  0  0  0  0  0  0
   28.6005  -41.0377   -5.4669 N   0  0  0  0  0  0  0  0  0  0  0  0
   28.8988  -39.8191   -6.1620 C   0  0  0  0  0  0  0  0  0  0  0  0
   29.3938  -39.9076   -7.2883 O   0  0  0  0  0  0  0  0  0  0  0  0
   28.5954  -38.5877   -5.4866 C   0  0  0  0  0  0  0  0  0  0  0  0
   28.9649  -37.2787   -6.1237 C   0  0  2  0  0  0  0  0  0  0  0  0
   30.2979  -37.0135   -5.4829 N   0  0  0  0  0  0  0  0  0  0  0  0
   28.1543  -36.1266   -5.7177 C   0  0  0  0  0  0  0  0  0  0  0  0
   28.1773  -35.7526   -4.4895 O   0  0  0  0  0  0  0  0  0  0  0  0
   25.4374  -32.0674   -6.6310 C   0  0  0  0  0  0  0  0  0  0  0  0
   26.0425  -33.3572   -7.1421 C   0  0  1  0  0  0  0  0  0  0  0  0
   27.1386  -32.9960   -8.1193 C   0  0  0  0  0  0  0  0  0  0  0  0
   26.6501  -34.1513   -6.0224 C   0  0  2  0  0  0  0  0  0  0  0  0
   27.3247  -35.3490   -6.5482 N   0  0  0  0  0  0  0  0  0  0  0  0
   25.5908  -34.6098   -5.1054 C   0  0  0  0  0  0  0  0  0  0  0  0
   25.3909  -33.9940   -3.8564 O   0  0  0  0  0  0  0  0  0  0  0  0
   24.8524  -35.5635   -5.4367 O   0  0  0  0  0  0  0  0  0  0  0  0
  2  1  1  0
  2 12  2  0
  3  2  1  0
  4  3  2  0
  4  5  1  0
  5 11  2  0
  6  5  1  0
  7  9  1  0
  7  6  1  0
  7  8  1  6
  9 18  1  0
 10  9  2  0
 11 12  1  0
 14 13  1  0
 15 14  2  0
 16 14  1  0
 17 16  1  1
 18 17  1  0
 19 17  1  0
 20 19  2  0
 22 21  1  1
 22 23  1  0
 22 24  1  0
 24 26  1  0
 24 25  1  6
 25 19  1  0
 26 27  1  0
 28 26  2  0
M  END
$$$$
