YNV.pdb
     RDKit          3D

 28 28  0  0  1  0  0  0  0  0999 V2000
   22.1635  -24.5342  -16.7878 O   0  0  0  0  0  0  0  0  0  0  0  0
   23.3391  -23.9898  -17.2549 C   0  0  0  0  0  0  0  0  0  0  0  0
   23.5535  -23.8342  -18.5993 C   0  0  0  0  0  0  0  0  0  0  0  0
   24.7432  -23.2828  -19.0834 C   0  0  0  0  0  0  0  0  0  0  0  0
   25.7051  -22.8949  -18.1774 C   0  0  0  0  0  0  0  0  0  0  0  0
   26.9639  -22.3121  -18.6905 C   0  0  0  0  0  0  0  0  0  0  0  0
   26.6533  -20.8597  -19.0571 C   0  0  2  0  0  0  0  0  0  0  0  0
   27.8054  -20.3265  -19.7201 N   0  0  0  0  0  0  0  0  0  0  0  0
   26.3733  -20.1473  -17.7802 C   0  0  0  0  0  0  0  0  0  0  0  0
   27.3100  -19.6752  -17.0917 O   0  0  0  0  0  0  0  0  0  0  0  0
   25.5172  -23.0388  -16.8310 C   0  0  0  0  0  0  0  0  0  0  0  0
   24.3124  -23.5955  -16.3804 C   0  0  0  0  0  0  0  0  0  0  0  0
   23.3167  -17.3171  -14.5303 N   0  0  0  0  0  0  0  0  0  0  0  0
   23.0018  -17.2920  -15.9294 C   0  0  0  0  0  0  0  0  0  0  0  0
   22.1711  -16.4661  -16.3157 O   0  0  0  0  0  0  0  0  0  0  0  0
   23.6831  -18.2357  -16.7718 C   0  0  0  0  0  0  0  0  0  0  0  0
   24.6456  -19.2161  -16.1648 C   0  0  2  0  0  0  0  0  0  0  0  0
   25.0353  -20.0211  -17.3723 N   0  0  0  0  0  0  0  0  0  0  0  0
   24.0524  -20.2112  -15.2664 C   0  0  0  0  0  0  0  0  0  0  0  0
   23.2294  -21.0711  -15.7482 O   0  0  0  0  0  0  0  0  0  0  0  0
   25.8057  -22.3692  -12.4627 C   0  0  0  0  0  0  0  0  0  0  0  0
   24.4783  -21.8397  -11.9642 C   0  0  1  0  0  0  0  0  0  0  0  0
   24.7613  -20.6448  -11.0816 C   0  0  0  0  0  0  0  0  0  0  0  0
   23.6119  -21.3904  -13.1048 C   0  0  2  0  0  0  0  0  0  0  0  0
   24.2908  -20.3432  -13.8850 N   0  0  0  0  0  0  0  0  0  0  0  0
   22.3623  -20.8089  -12.5816 C   0  0  0  0  0  0  0  0  0  0  0  0
   21.2865  -21.6259  -12.1889 O   0  0  0  0  0  0  0  0  0  0  0  0
   22.2489  -19.5672  -12.4824 O   0  0  0  0  0  0  0  0  0  0  0  0
  2  1  1  0
  2 12  2  0
  3  2  1  0
  4  3  2  0
  4  5  1  0
  5 11  2  0
  6  5  1  0
  7  9  1  0
  7  6  1  0
  7  8  1  1
  9 18  1  0
 10  9  2  0
 11 12  1  0
 14 13  1  0
 15 14  2  0
 16 14  1  0
 17 16  1  6
 18 17  1  0
 19 17  1  0
 20 19  2  0
 22 21  1  6
 22 23  1  0
 22 24  1  0
 24 26  1  0
 24 25  1  1
 25 19  1  0
 26 27  1  0
 28 26  2  0
M  END
$$$$
