YNV.pdb
     RDKit          3D

 28 28  0  0  1  0  0  0  0  0999 V2000
   24.5457  -14.4715  -19.4068 O   0  0  0  0  0  0  0  0  0  0  0  0
   24.2267  -15.6345  -18.7415 C   0  0  0  0  0  0  0  0  0  0  0  0
   23.7645  -16.7284  -19.4251 C   0  0  0  0  0  0  0  0  0  0  0  0
   23.4380  -17.9132  -18.7592 C   0  0  0  0  0  0  0  0  0  0  0  0
   23.5902  -17.9625  -17.3914 C   0  0  0  0  0  0  0  0  0  0  0  0
   23.2440  -19.2164  -16.6875 C   0  0  0  0  0  0  0  0  0  0  0  0
   24.4819  -19.6210  -15.8849 C   0  0  2  0  0  0  0  0  0  0  0  0
   25.4644  -20.0906  -16.8152 N   0  0  0  0  0  0  0  0  0  0  0  0
   24.0516  -20.6954  -14.9485 C   0  0  0  0  0  0  0  0  0  0  0  0
   24.1353  -21.9032  -15.2779 O   0  0  0  0  0  0  0  0  0  0  0  0
   24.0493  -16.8861  -16.6848 C   0  0  0  0  0  0  0  0  0  0  0  0
   24.3672  -15.7140  -17.3845 C   0  0  0  0  0  0  0  0  0  0  0  0
   25.8212  -21.9516  -12.0904 N   0  0  0  0  0  0  0  0  0  0  0  0
   25.1368  -21.1171  -11.1458 C   0  0  0  0  0  0  0  0  0  0  0  0
   25.7653  -20.7375  -10.1547 O   0  0  0  0  0  0  0  0  0  0  0  0
   23.7674  -20.7893  -11.4320 C   0  0  0  0  0  0  0  0  0  0  0  0
   23.1158  -21.3310  -12.6722 C   0  0  2  0  0  0  0  0  0  0  0  0
   23.5515  -20.3169  -13.6918 N   0  0  0  0  0  0  0  0  0  0  0  0
   21.6527  -21.2451  -12.7069 C   0  0  0  0  0  0  0  0  0  0  0  0
   21.0987  -20.0870  -12.7326 O   0  0  0  0  0  0  0  0  0  0  0  0
   19.2854  -23.8769  -14.6365 C   0  0  0  0  0  0  0  0  0  0  0  0
   18.8930  -22.4536  -14.3030 C   0  0  1  0  0  0  0  0  0  0  0  0
   17.3864  -22.3583  -14.3930 C   0  0  0  0  0  0  0  0  0  0  0  0
   19.3071  -22.0909  -12.9065 C   0  0  2  0  0  0  0  0  0  0  0  0
   20.7483  -22.3242  -12.7203 N   0  0  0  0  0  0  0  0  0  0  0  0
   18.5945  -22.9443  -11.9385 C   0  0  0  0  0  0  0  0  0  0  0  0
   17.3433  -22.5677  -11.4172 O   0  0  0  0  0  0  0  0  0  0  0  0
   19.1055  -24.0245  -11.5687 O   0  0  0  0  0  0  0  0  0  0  0  0
  2  1  1  0
  2 12  2  0
  3  2  1  0
  4  3  2  0
  4  5  1  0
  5 11  2  0
  6  5  1  0
  7  9  1  0
  7  6  1  0
  7  8  1  6
  9 18  1  0
 10  9  2  0
 11 12  1  0
 14 13  1  0
 15 14  2  0
 16 14  1  0
 17 16  1  1
 18 17  1  0
 19 17  1  0
 20 19  2  0
 22 21  1  1
 22 23  1  0
 22 24  1  0
 24 26  1  0
 24 25  1  6
 25 19  1  0
 26 27  1  0
 28 26  2  0
M  END
$$$$
