YNV.pdb
     RDKit          3D

 28 28  0  0  1  0  0  0  0  0999 V2000
   30.2472  -35.1507  -22.5957 O   0  0  0  0  0  0  0  0  0  0  0  0
   29.9438  -34.2880  -21.5659 C   0  0  0  0  0  0  0  0  0  0  0  0
   29.1503  -33.1919  -21.7811 C   0  0  0  0  0  0  0  0  0  0  0  0
   28.8366  -32.3103  -20.7427 C   0  0  0  0  0  0  0  0  0  0  0  0
   29.3437  -32.5650  -19.4878 C   0  0  0  0  0  0  0  0  0  0  0  0
   29.0117  -31.6314  -18.3897 C   0  0  0  0  0  0  0  0  0  0  0  0
   30.0435  -30.5037  -18.4503 C   0  0  2  0  0  0  0  0  0  0  0  0
   31.2684  -31.0105  -17.9080 N   0  0  0  0  0  0  0  0  0  0  0  0
   29.5008  -29.3836  -17.6334 C   0  0  0  0  0  0  0  0  0  0  0  0
   30.1736  -28.8900  -16.6965 O   0  0  0  0  0  0  0  0  0  0  0  0
   30.1376  -33.6511  -19.2454 C   0  0  0  0  0  0  0  0  0  0  0  0
   30.4321  -34.5142  -20.3097 C   0  0  0  0  0  0  0  0  0  0  0  0
   27.3687  -25.0748  -16.2171 N   0  0  0  0  0  0  0  0  0  0  0  0
   28.4325  -25.2979  -17.1529 C   0  0  0  0  0  0  0  0  0  0  0  0
   29.1772  -24.3493  -17.4118 O   0  0  0  0  0  0  0  0  0  0  0  0
   28.5450  -26.6150  -17.7160 C   0  0  0  0  0  0  0  0  0  0  0  0
   27.6300  -27.7078  -17.2421 C   0  0  2  0  0  0  0  0  0  0  0  0
   28.2191  -28.8996  -17.9425 N   0  0  0  0  0  0  0  0  0  0  0  0
   26.2583  -27.6516  -17.7564 C   0  0  0  0  0  0  0  0  0  0  0  0
   26.0622  -27.7812  -19.0188 O   0  0  0  0  0  0  0  0  0  0  0  0
   22.7383  -28.3703  -15.5746 C   0  0  0  0  0  0  0  0  0  0  0  0
   22.8929  -28.5443  -17.0702 C   0  0  1  0  0  0  0  0  0  0  0  0
   21.5188  -28.4305  -17.6914 C   0  0  0  0  0  0  0  0  0  0  0  0
   23.7655  -27.4708  -17.6528 C   0  0  2  0  0  0  0  0  0  0  0  0
   25.0846  -27.4695  -17.0001 N   0  0  0  0  0  0  0  0  0  0  0  0
   23.1557  -26.1499  -17.4150 C   0  0  0  0  0  0  0  0  0  0  0  0
   22.3066  -25.5569  -18.3671 O   0  0  0  0  0  0  0  0  0  0  0  0
   23.3931  -25.5389  -16.3497 O   0  0  0  0  0  0  0  0  0  0  0  0
  2  1  1  0
  2 12  2  0
  3  2  1  0
  4  3  2  0
  4  5  1  0
  5 11  2  0
  6  5  1  0
  7  9  1  0
  7  6  1  0
  7  8  1  1
  9 18  1  0
 10  9  2  0
 11 12  1  0
 14 13  1  0
 15 14  2  0
 16 14  1  0
 17 16  1  6
 18 17  1  0
 19 17  1  0
 20 19  2  0
 22 21  1  1
 22 23  1  0
 22 24  1  0
 24 26  1  0
 24 25  1  1
 25 19  1  0
 26 27  1  0
 28 26  2  0
M  END
$$$$
