YNV.pdb
     RDKit          3D

 28 28  0  0  1  0  0  0  0  0999 V2000
   14.2050  -14.4715  -16.7327 O   0  0  0  0  0  0  0  0  0  0  0  0
   15.3483  -13.7409  -16.4962 C   0  0  0  0  0  0  0  0  0  0  0  0
   16.2942  -14.1872  -15.6111 C   0  0  0  0  0  0  0  0  0  0  0  0
   17.4579  -13.4531  -15.3641 C   0  0  0  0  0  0  0  0  0  0  0  0
   17.6388  -12.2624  -16.0321 C   0  0  0  0  0  0  0  0  0  0  0  0
   18.8700  -11.4861  -15.7698 C   0  0  0  0  0  0  0  0  0  0  0  0
   19.7176  -11.5718  -17.0404 C   0  0  2  0  0  0  0  0  0  0  0  0
   20.2633  -12.8944  -17.1062 N   0  0  0  0  0  0  0  0  0  0  0  0
   20.7842  -10.5412  -16.9129 C   0  0  0  0  0  0  0  0  0  0  0  0
   21.8359  -10.7840  -16.2732 O   0  0  0  0  0  0  0  0  0  0  0  0
   16.7112  -11.7940  -16.9203 C   0  0  0  0  0  0  0  0  0  0  0  0
   15.5560  -12.5556  -17.1439 C   0  0  0  0  0  0  0  0  0  0  0  0
   23.7224   -9.0763  -19.1747 N   0  0  0  0  0  0  0  0  0  0  0  0
   22.7265   -8.2352  -19.7729 C   0  0  0  0  0  0  0  0  0  0  0  0
   22.8588   -7.9482  -20.9652 O   0  0  0  0  0  0  0  0  0  0  0  0
   21.6498   -7.7926  -18.9306 C   0  0  0  0  0  0  0  0  0  0  0  0
   21.6144   -8.2084  -17.4877 C   0  0  2  0  0  0  0  0  0  0  0  0
   20.5776   -9.2953  -17.5274 N   0  0  0  0  0  0  0  0  0  0  0  0
   21.0456   -7.2259  -16.5602 C   0  0  0  0  0  0  0  0  0  0  0  0
   19.8573   -6.7874  -16.7713 O   0  0  0  0  0  0  0  0  0  0  0  0
   20.0934   -7.6960  -13.1769 C   0  0  0  0  0  0  0  0  0  0  0  0
   20.8333   -6.3760  -13.1461 C   0  0  1  0  0  0  0  0  0  0  0  0
   22.2313   -6.6436  -12.6353 C   0  0  0  0  0  0  0  0  0  0  0  0
   20.9378   -5.7816  -14.5206 C   0  0  2  0  0  0  0  0  0  0  0  0
   21.6708   -6.6884  -15.4187 N   0  0  0  0  0  0  0  0  0  0  0  0
   21.6931   -4.5171  -14.4600 C   0  0  0  0  0  0  0  0  0  0  0  0
   21.0873   -3.3266  -14.0183 O   0  0  0  0  0  0  0  0  0  0  0  0
   22.8948   -4.4940  -14.8063 O   0  0  0  0  0  0  0  0  0  0  0  0
  2  1  1  0
  2 12  2  0
  3  2  1  0
  4  3  2  0
  4  5  1  0
  5 11  2  0
  6  5  1  0
  7  9  1  0
  7  6  1  0
  7  8  1  1
  9 18  1  0
 10  9  2  0
 11 12  1  0
 14 13  1  0
 15 14  2  0
 16 14  1  0
 17 16  1  6
 18 17  1  0
 19 17  1  0
 20 19  2  0
 22 21  1  6
 22 23  1  0
 22 24  1  0
 24 26  1  0
 24 25  1  6
 25 19  1  0
 26 27  1  0
 28 26  2  0
M  END
$$$$
