YNV.pdb
     RDKit          3D

 28 28  0  0  1  0  0  0  0  0999 V2000
   21.3333  -20.6557  -14.8393 O   0  0  0  0  0  0  0  0  0  0  0  0
   21.8537  -19.5593  -15.4904 C   0  0  0  0  0  0  0  0  0  0  0  0
   21.6749  -18.2967  -14.9891 C   0  0  0  0  0  0  0  0  0  0  0  0
   22.1989  -17.1776  -15.6423 C   0  0  0  0  0  0  0  0  0  0  0  0
   22.9047  -17.3677  -16.8095 C   0  0  0  0  0  0  0  0  0  0  0  0
   23.4585  -16.1830  -17.5004 C   0  0  0  0  0  0  0  0  0  0  0  0
   22.2748  -15.4680  -18.1546 C   0  0  2  0  0  0  0  0  0  0  0  0
   21.7609  -16.3308  -19.1757 N   0  0  0  0  0  0  0  0  0  0  0  0
   22.8038  -14.1971  -18.7216 C   0  0  0  0  0  0  0  0  0  0  0  0
   23.4182  -14.1910  -19.8155 O   0  0  0  0  0  0  0  0  0  0  0  0
   23.0981  -18.6162  -17.3316 C   0  0  0  0  0  0  0  0  0  0  0  0
   22.5587  -19.7161  -16.6506 C   0  0  0  0  0  0  0  0  0  0  0  0
   22.9282  -11.1114  -21.3310 N   0  0  0  0  0  0  0  0  0  0  0  0
   21.6825  -10.9854  -20.6313 C   0  0  0  0  0  0  0  0  0  0  0  0
   20.6901  -10.6499  -21.2825 O   0  0  0  0  0  0  0  0  0  0  0  0
   21.6916  -11.2616  -19.2213 C   0  0  0  0  0  0  0  0  0  0  0  0
   22.9729  -11.6666  -18.5503 C   0  0  2  0  0  0  0  0  0  0  0  0
   22.5949  -13.0119  -17.9977 N   0  0  0  0  0  0  0  0  0  0  0  0
   23.3333  -10.8950  -17.3570 C   0  0  0  0  0  0  0  0  0  0  0  0
   22.4884  -10.8092  -16.3938 O   0  0  0  0  0  0  0  0  0  0  0  0
   26.7548  -11.0906  -15.4267 C   0  0  0  0  0  0  0  0  0  0  0  0
   26.2835   -9.6548  -15.5104 C   0  0  1  0  0  0  0  0  0  0  0  0
   27.0485   -8.9837  -16.6291 C   0  0  0  0  0  0  0  0  0  0  0  0
   24.8186   -9.5835  -15.8302 C   0  0  2  0  0  0  0  0  0  0  0  0
   24.5449  -10.2139  -17.1317 N   0  0  0  0  0  0  0  0  0  0  0  0
   24.3983   -8.1738  -15.9271 C   0  0  0  0  0  0  0  0  0  0  0  0
   23.9912   -7.4545  -14.7886 O   0  0  0  0  0  0  0  0  0  0  0  0
   24.4006   -7.5999  -17.0385 O   0  0  0  0  0  0  0  0  0  0  0  0
  2  1  1  0
  2 12  2  0
  3  2  1  0
  4  3  2  0
  4  5  1  0
  5 11  2  0
  6  5  1  0
  7  9  1  0
  7  6  1  0
  7  8  1  6
  9 18  1  0
 10  9  2  0
 11 12  1  0
 14 13  1  0
 15 14  2  0
 16 14  1  0
 17 16  1  1
 18 17  1  0
 19 17  1  0
 20 19  2  0
 22 21  1  6
 22 23  1  0
 22 24  1  0
 24 26  1  0
 24 25  1  6
 25 19  1  0
 26 27  1  0
 28 26  2  0
M  END
$$$$
