YNV.pdb
     RDKit          3D

 28 28  0  0  1  0  0  0  0  0999 V2000
   28.7832  -18.4418   -3.0751 O   0  0  0  0  0  0  0  0  0  0  0  0
   28.4598  -18.9670   -4.3065 C   0  0  0  0  0  0  0  0  0  0  0  0
   28.4441  -20.3222   -4.5079 C   0  0  0  0  0  0  0  0  0  0  0  0
   28.1173  -20.8651   -5.7538 C   0  0  0  0  0  0  0  0  0  0  0  0
   27.8084  -20.0062   -6.7851 C   0  0  0  0  0  0  0  0  0  0  0  0
   27.4631  -20.5815   -8.1032 C   0  0  0  0  0  0  0  0  0  0  0  0
   25.9452  -20.4582   -8.2477 C   0  0  2  0  0  0  0  0  0  0  0  0
   25.3482  -21.2270   -7.1971 N   0  0  0  0  0  0  0  0  0  0  0  0
   25.5987  -20.9983   -9.5911 C   0  0  0  0  0  0  0  0  0  0  0  0
   25.2205  -22.1871   -9.7252 O   0  0  0  0  0  0  0  0  0  0  0  0
   27.8162  -18.6503   -6.6116 C   0  0  0  0  0  0  0  0  0  0  0  0
   28.1486  -18.1402   -5.3492 C   0  0  0  0  0  0  0  0  0  0  0  0
   23.2018  -21.0791  -14.0486 N   0  0  0  0  0  0  0  0  0  0  0  0
   22.6991  -20.8300  -12.7286 C   0  0  0  0  0  0  0  0  0  0  0  0
   21.4881  -20.9694  -12.5401 O   0  0  0  0  0  0  0  0  0  0  0  0
   23.6517  -20.4361  -11.7276 C   0  0  0  0  0  0  0  0  0  0  0  0
   25.1207  -20.4909  -12.0356 C   0  0  2  0  0  0  0  0  0  0  0  0
   25.7080  -20.1403  -10.6977 N   0  0  0  0  0  0  0  0  0  0  0  0
   25.6219  -19.4327  -12.9178 C   0  0  0  0  0  0  0  0  0  0  0  0
   25.4710  -18.2070  -12.5658 O   0  0  0  0  0  0  0  0  0  0  0  0
   28.6465  -19.8990  -15.8082 C   0  0  0  0  0  0  0  0  0  0  0  0
   28.3358  -18.6349  -15.0361 C   0  0  1  0  0  0  0  0  0  0  0  0
   28.8662  -17.4654  -15.8348 C   0  0  0  0  0  0  0  0  0  0  0  0
   26.8554  -18.4564  -14.8627 C   0  0  2  0  0  0  0  0  0  0  0  0
   26.2783  -19.6082  -14.1511 N   0  0  0  0  0  0  0  0  0  0  0  0
   26.2047  -18.3841  -16.1835 C   0  0  0  0  0  0  0  0  0  0  0  0
   26.1315  -17.1726  -16.8948 O   0  0  0  0  0  0  0  0  0  0  0  0
   25.7058  -19.4145  -16.6874 O   0  0  0  0  0  0  0  0  0  0  0  0
  2  1  1  0
  2 12  2  0
  3  2  1  0
  4  3  2  0
  4  5  1  0
  5 11  2  0
  6  5  1  0
  7  9  1  0
  7  6  1  0
  7  8  1  1
  9 18  1  0
 10  9  2  0
 11 12  1  0
 14 13  1  0
 15 14  2  0
 16 14  1  0
 17 16  1  1
 18 17  1  0
 19 17  1  0
 20 19  2  0
 22 21  1  6
 22 23  1  0
 22 24  1  0
 24 26  1  0
 24 25  1  1
 25 19  1  0
 26 27  1  0
 28 26  2  0
M  END
$$$$
