YNV.pdb
     RDKit          3D

 28 28  0  0  1  0  0  0  0  0999 V2000
   25.3642  -20.2254   -7.5832 O   0  0  0  0  0  0  0  0  0  0  0  0
   26.0453  -20.1807   -8.7794 C   0  0  0  0  0  0  0  0  0  0  0  0
   25.3862  -19.9172   -9.9514 C   0  0  0  0  0  0  0  0  0  0  0  0
   26.0683  -19.8697  -11.1706 C   0  0  0  0  0  0  0  0  0  0  0  0
   27.4270  -20.0944  -11.1734 C   0  0  0  0  0  0  0  0  0  0  0  0
   28.1480  -20.0444  -12.4638 C   0  0  0  0  0  0  0  0  0  0  0  0
   27.9528  -21.4103  -13.1245 C   0  0  2  0  0  0  0  0  0  0  0  0
   29.1263  -21.6868  -13.8976 N   0  0  0  0  0  0  0  0  0  0  0  0
   26.7409  -21.3008  -13.9822 C   0  0  0  0  0  0  0  0  0  0  0  0
   26.8154  -20.8154  -15.1368 O   0  0  0  0  0  0  0  0  0  0  0  0
   28.1093  -20.3593  -10.0188 C   0  0  0  0  0  0  0  0  0  0  0  0
   27.3938  -20.3994   -8.8142 C   0  0  0  0  0  0  0  0  0  0  0  0
   22.5505  -23.7897  -15.7782 N   0  0  0  0  0  0  0  0  0  0  0  0
   23.2881  -24.4194  -14.7216 C   0  0  0  0  0  0  0  0  0  0  0  0
   23.0621  -25.6106  -14.4950 O   0  0  0  0  0  0  0  0  0  0  0  0
   24.2354  -23.6075  -14.0088 C   0  0  0  0  0  0  0  0  0  0  0  0
   24.3741  -22.1516  -14.3511 C   0  0  2  0  0  0  0  0  0  0  0  0
   25.5182  -21.7551  -13.4613 N   0  0  0  0  0  0  0  0  0  0  0  0
   23.2766  -21.2892  -13.9029 C   0  0  0  0  0  0  0  0  0  0  0  0
   23.0632  -21.1591  -12.6434 O   0  0  0  0  0  0  0  0  0  0  0  0
   22.6234  -17.6480  -14.8742 C   0  0  0  0  0  0  0  0  0  0  0  0
   21.2989  -18.3804  -14.8909 C   0  0  1  0  0  0  0  0  0  0  0  0
   20.9685  -18.7013  -16.3314 C   0  0  0  0  0  0  0  0  0  0  0  0
   21.3834  -19.6696  -14.1267 C   0  0  2  0  0  0  0  0  0  0  0  0
   22.3974  -20.5549  -14.7218 N   0  0  0  0  0  0  0  0  0  0  0  0
   20.0902  -20.3740  -14.1943 C   0  0  0  0  0  0  0  0  0  0  0  0
   19.0176  -20.0106  -13.3596 O   0  0  0  0  0  0  0  0  0  0  0  0
   19.9361  -21.3132  -15.0058 O   0  0  0  0  0  0  0  0  0  0  0  0
  2  1  1  0
  2 12  2  0
  3  2  1  0
  4  3  2  0
  4  5  1  0
  5 11  2  0
  6  5  1  0
  7  9  1  0
  7  6  1  0
  7  8  1  6
  9 18  1  0
 10  9  2  0
 11 12  1  0
 14 13  1  0
 15 14  2  0
 16 14  1  0
 17 16  1  1
 18 17  1  0
 19 17  1  0
 20 19  2  0
 22 21  1  6
 22 23  1  0
 22 24  1  0
 24 26  1  0
 24 25  1  6
 25 19  1  0
 26 27  1  0
 28 26  2  0
M  END
$$$$
