YNV.pdb
     RDKit          3D

 28 28  0  0  1  0  0  0  0  0999 V2000
   28.3967  -18.4554   -4.1543 O   0  0  0  0  0  0  0  0  0  0  0  0
   28.1601  -18.8940   -5.4382 C   0  0  0  0  0  0  0  0  0  0  0  0
   27.7677  -18.0185   -6.4165 C   0  0  0  0  0  0  0  0  0  0  0  0
   27.5250  -18.4537   -7.7224 C   0  0  0  0  0  0  0  0  0  0  0  0
   27.6887  -19.7902   -8.0116 C   0  0  0  0  0  0  0  0  0  0  0  0
   27.4312  -20.2499   -9.3936 C   0  0  0  0  0  0  0  0  0  0  0  0
   25.9497  -20.6259   -9.4583 C   0  0  2  0  0  0  0  0  0  0  0  0
   25.7064  -21.5974   -8.4345 N   0  0  0  0  0  0  0  0  0  0  0  0
   25.7098  -21.1851  -10.8170 C   0  0  0  0  0  0  0  0  0  0  0  0
   26.1864  -22.2986  -11.1443 O   0  0  0  0  0  0  0  0  0  0  0  0
   28.0793  -20.6851   -7.0549 C   0  0  0  0  0  0  0  0  0  0  0  0
   28.3140  -20.2143   -5.7557 C   0  0  0  0  0  0  0  0  0  0  0  0
   24.5790  -23.5271  -14.3014 N   0  0  0  0  0  0  0  0  0  0  0  0
   23.6652  -23.3797  -13.2058 C   0  0  0  0  0  0  0  0  0  0  0  0
   23.0254  -24.3740  -12.8547 O   0  0  0  0  0  0  0  0  0  0  0  0
   23.5684  -22.0789  -12.6031 C   0  0  0  0  0  0  0  0  0  0  0  0
   24.4979  -20.9840  -13.0424 C   0  0  2  0  0  0  0  0  0  0  0  0
   24.9378  -20.4313  -11.7161 N   0  0  0  0  0  0  0  0  0  0  0  0
   23.8601  -19.8376  -13.6968 C   0  0  0  0  0  0  0  0  0  0  0  0
   23.0822  -19.0828  -13.0083 O   0  0  0  0  0  0  0  0  0  0  0  0
   25.4928  -17.3504  -16.4835 C   0  0  0  0  0  0  0  0  0  0  0  0
   24.0587  -17.7335  -16.7795 C   0  0  1  0  0  0  0  0  0  0  0  0
   24.0819  -18.8571  -17.7914 C   0  0  0  0  0  0  0  0  0  0  0  0
   23.3633  -18.2248  -15.5432 C   0  0  2  0  0  0  0  0  0  0  0  0
   24.0088  -19.4487  -15.0419 N   0  0  0  0  0  0  0  0  0  0  0  0
   21.9641  -18.5636  -15.8605 C   0  0  0  0  0  0  0  0  0  0  0  0
   21.5536  -19.9009  -16.0094 O   0  0  0  0  0  0  0  0  0  0  0  0
   21.1207  -17.6508  -16.0017 O   0  0  0  0  0  0  0  0  0  0  0  0
  2  1  1  0
  2 12  2  0
  3  2  1  0
  4  3  2  0
  4  5  1  0
  5 11  2  0
  6  5  1  0
  7  9  1  0
  7  6  1  0
  7  8  1  1
  9 18  1  0
 10  9  2  0
 11 12  1  0
 14 13  1  0
 15 14  2  0
 16 14  1  0
 17 16  1  1
 18 17  1  0
 19 17  1  0
 20 19  2  0
 22 21  1  1
 22 23  1  0
 22 24  1  0
 24 26  1  0
 24 25  1  6
 25 19  1  0
 26 27  1  0
 28 26  2  0
M  END
$$$$
