LHC.pdb
     RDKit          3D

 25 25  0  0  1  0  0  0  0  0999 V2000
   26.7671  -21.8281  -15.8400 C   0  0  0  0  0  0  0  0  0  0  0  0
   25.3957  -21.6307  -15.2489 C   0  0  2  0  0  0  0  0  0  0  0  0
   24.5361  -20.8716  -16.2620 C   0  0  0  0  0  0  0  0  0  0  0  0
   25.4210  -20.8042  -13.9937 C   0  0  0  0  0  0  0  0  0  0  0  0
   26.4266  -21.2938  -12.9905 C   0  0  2  0  0  0  0  0  0  0  0  0
   26.3364  -22.7138  -12.8493 N   0  0  0  0  0  0  0  0  0  0  0  0
   26.2263  -20.5669  -11.7207 C   0  0  0  0  0  0  0  0  0  0  0  0
   26.1308  -19.3060  -11.7948 O   0  0  0  0  0  0  0  0  0  0  0  0
   26.1357  -21.1681  -10.4532 N   0  0  0  0  0  0  0  0  0  0  0  0
   25.7670  -20.4136   -9.2934 C   0  0  1  0  0  0  0  0  0  0  0  0
   24.5826  -20.9763   -8.5582 C   0  0  0  0  0  0  0  0  0  0  0  0
   23.2940  -20.6752   -9.2179 C   0  0  0  0  0  0  0  0  0  0  0  0
   23.0627  -20.0070  -10.4025 C   0  0  0  0  0  0  0  0  0  0  0  0
   21.7187  -19.9547  -10.6359 N   0  0  0  0  0  0  0  0  0  0  0  0
   21.1201  -20.5722   -9.6275 C   0  0  0  0  0  0  0  0  0  0  0  0
   22.0747  -21.0130   -8.7609 N   0  0  0  0  0  0  0  0  0  0  0  0
   26.9244  -20.4520   -8.3434 C   0  0  0  0  0  0  0  0  0  0  0  0
   27.6700  -21.4572   -8.2391 O   0  0  0  0  0  0  0  0  0  0  0  0
   27.2201  -19.3264   -7.5127 N   0  0  0  0  0  0  0  0  0  0  0  0
   28.1333  -19.3747   -6.4027 C   0  0  1  0  0  0  0  0  0  0  0  0
   28.2183  -17.9451   -5.8504 C   0  0  0  0  0  0  0  0  0  0  0  0
   29.2924  -17.9962   -4.4083 S   0  0  0  0  0  0  0  0  0  0  0  0
   27.6887  -20.3067   -5.3490 C   0  0  0  0  0  0  0  0  0  0  0  0
   26.4695  -20.5744   -5.2547 O   0  0  0  0  0  0  0  0  0  0  0  0
   28.5414  -20.9176   -4.4401 O   0  0  0  0  0  0  0  0  0  0  0  0
  2  1  1  6
  3  2  1  0
  4  2  1  0
  4  5  1  0
  5  6  1  1
  7  5  1  0
  7  8  2  0
  9  7  1  0
 10  9  1  0
 10 11  1  1
 12 16  1  0
 12 11  1  0
 13 12  2  0
 14 13  1  0
 14 15  1  0
 15 16  2  0
 17 10  1  0
 18 17  2  0
 19 17  1  0
 20 21  1  1
 20 19  1  0
 21 22  1  0
 23 20  1  0
 24 23  2  0
 25 23  1  0
M  END
$$$$
