LHC.pdb
     RDKit          3D

 25 25  0  0  1  0  0  0  0  0999 V2000
   29.9505  -22.3541  -12.6379 C   0  0  0  0  0  0  0  0  0  0  0  0
   30.1504  -20.8877  -12.3576 C   0  0  2  0  0  0  0  0  0  0  0  0
   30.6625  -20.7339  -10.9237 C   0  0  0  0  0  0  0  0  0  0  0  0
   28.8721  -20.1023  -12.4497 C   0  0  0  0  0  0  0  0  0  0  0  0
   28.2700  -20.1233  -13.8261 C   0  0  2  0  0  0  0  0  0  0  0  0
   29.0315  -19.3011  -14.7139 N   0  0  0  0  0  0  0  0  0  0  0  0
   26.8514  -19.7234  -13.7322 C   0  0  0  0  0  0  0  0  0  0  0  0
   26.5542  -18.8848  -12.8306 O   0  0  0  0  0  0  0  0  0  0  0  0
   25.8224  -20.2018  -14.5620 N   0  0  0  0  0  0  0  0  0  0  0  0
   24.4608  -19.8036  -14.3681 C   0  0  1  0  0  0  0  0  0  0  0  0
   23.5864  -20.0375  -15.5685 C   0  0  0  0  0  0  0  0  0  0  0  0
   22.1977  -19.5681  -15.3747 C   0  0  0  0  0  0  0  0  0  0  0  0
   21.6504  -18.9040  -14.2964 C   0  0  0  0  0  0  0  0  0  0  0  0
   20.3291  -18.6617  -14.5392 N   0  0  0  0  0  0  0  0  0  0  0  0
   20.0516  -19.1588  -15.7361 C   0  0  0  0  0  0  0  0  0  0  0  0
   21.1860  -19.7120  -16.2495 N   0  0  0  0  0  0  0  0  0  0  0  0
   23.9010  -20.6362  -13.2560 C   0  0  0  0  0  0  0  0  0  0  0  0
   24.0283  -21.8853  -13.2274 O   0  0  0  0  0  0  0  0  0  0  0  0
   23.1929  -20.0237  -12.1753 N   0  0  0  0  0  0  0  0  0  0  0  0
   22.5698  -20.7638  -11.1112 C   0  0  1  0  0  0  0  0  0  0  0  0
   23.2172  -20.2754   -9.8081 C   0  0  0  0  0  0  0  0  0  0  0  0
   22.4525  -21.1891   -8.4604 S   0  0  0  0  0  0  0  0  0  0  0  0
   21.1091  -20.5619  -11.0661 C   0  0  0  0  0  0  0  0  0  0  0  0
   20.6327  -19.4956  -11.5170 O   0  0  0  0  0  0  0  0  0  0  0  0
   20.2113  -21.4863  -10.5505 O   0  0  0  0  0  0  0  0  0  0  0  0
  2  1  1  1
  3  2  1  0
  4  2  1  0
  4  5  1  0
  5  6  1  6
  7  5  1  0
  7  8  2  0
  9  7  1  0
 10  9  1  0
 10 11  1  6
 12 16  1  0
 12 11  1  0
 13 12  2  0
 14 13  1  0
 14 15  1  0
 15 16  2  0
 17 10  1  0
 18 17  2  0
 19 17  1  0
 20 21  1  1
 20 19  1  0
 21 22  1  0
 23 20  1  0
 24 23  2  0
 25 23  1  0
M  END
$$$$
