LHC.pdb
     RDKit          3D

 25 25  0  0  1  0  0  0  0  0999 V2000
   17.9444  -10.8509  -19.4713 C   0  0  0  0  0  0  0  0  0  0  0  0
   17.3207  -11.2766  -18.1678 C   0  0  2  0  0  0  0  0  0  0  0  0
   15.8186  -10.9918  -18.2338 C   0  0  0  0  0  0  0  0  0  0  0  0
   17.8580  -10.5091  -16.9924 C   0  0  0  0  0  0  0  0  0  0  0  0
   19.3594  -10.4918  -16.9414 C   0  0  2  0  0  0  0  0  0  0  0  0
   19.8508  -11.7040  -16.3641 N   0  0  0  0  0  0  0  0  0  0  0  0
   19.7982   -9.2809  -16.2185 C   0  0  0  0  0  0  0  0  0  0  0  0
   19.4108   -9.1621  -15.0183 O   0  0  0  0  0  0  0  0  0  0  0  0
   20.6042   -8.2653  -16.7617 N   0  0  0  0  0  0  0  0  0  0  0  0
   21.1113   -7.2002  -15.9503 C   0  0  1  0  0  0  0  0  0  0  0  0
   22.5846   -6.9568  -16.1248 C   0  0  0  0  0  0  0  0  0  0  0  0
   23.4159   -8.1038  -15.7010 C   0  0  0  0  0  0  0  0  0  0  0  0
   23.0194   -9.3020  -15.1438 C   0  0  0  0  0  0  0  0  0  0  0  0
   24.1193  -10.0752  -14.9069 N   0  0  0  0  0  0  0  0  0  0  0  0
   25.1785   -9.3842  -15.3035 C   0  0  0  0  0  0  0  0  0  0  0  0
   24.7560   -8.1829  -15.7880 N   0  0  0  0  0  0  0  0  0  0  0  0
   20.4125   -5.9428  -16.3678 C   0  0  0  0  0  0  0  0  0  0  0  0
   20.2129   -5.6587  -17.5748 O   0  0  0  0  0  0  0  0  0  0  0  0
   19.9437   -5.0126  -15.3883 N   0  0  0  0  0  0  0  0  0  0  0  0
   19.2896   -3.7743  -15.7157 C   0  0  1  0  0  0  0  0  0  0  0  0
   18.2400   -3.5374  -14.6212 C   0  0  0  0  0  0  0  0  0  0  0  0
   17.4250   -1.9781  -14.9960 S   0  0  0  0  0  0  0  0  0  0  0  0
   20.2313   -2.6404  -15.7785 C   0  0  0  0  0  0  0  0  0  0  0  0
   21.2413   -2.6526  -15.0390 O   0  0  0  0  0  0  0  0  0  0  0  0
   20.0733   -1.5431  -16.6134 O   0  0  0  0  0  0  0  0  0  0  0  0
  2  1  1  6
  3  2  1  0
  4  2  1  0
  4  5  1  0
  5  6  1  1
  7  5  1  0
  7  8  2  0
  9  7  1  0
 10  9  1  0
 10 11  1  6
 12 16  1  0
 12 11  1  0
 13 12  2  0
 14 13  1  0
 14 15  1  0
 15 16  2  0
 17 10  1  0
 18 17  2  0
 19 17  1  0
 20 21  1  1
 20 19  1  0
 21 22  1  0
 23 20  1  0
 24 23  2  0
 25 23  1  0
M  END
$$$$
