LHC.pdb
     RDKit          3D

 25 25  0  0  1  0  0  0  0  0999 V2000
   27.0352  -12.7678  -15.3820 C   0  0  0  0  0  0  0  0  0  0  0  0
   26.9523  -11.9248  -16.6276 C   0  0  2  0  0  0  0  0  0  0  0  0
   28.2111  -11.0586  -16.7111 C   0  0  0  0  0  0  0  0  0  0  0  0
   25.7784  -10.9862  -16.6129 C   0  0  0  0  0  0  0  0  0  0  0  0
   24.4606  -11.6987  -16.4983 C   0  0  2  0  0  0  0  0  0  0  0  0
   24.3012  -12.6246  -17.5761 N   0  0  0  0  0  0  0  0  0  0  0  0
   23.3801  -10.6944  -16.4267 C   0  0  0  0  0  0  0  0  0  0  0  0
   22.9503  -10.2403  -17.5284 O   0  0  0  0  0  0  0  0  0  0  0  0
   22.8034  -10.2141  -15.2381 N   0  0  0  0  0  0  0  0  0  0  0  0
   21.7485   -9.2462  -15.2579 C   0  0  1  0  0  0  0  0  0  0  0  0
   20.5621   -9.6287  -14.4174 C   0  0  0  0  0  0  0  0  0  0  0  0
   19.6615  -10.5901  -15.0890 C   0  0  0  0  0  0  0  0  0  0  0  0
   19.7553  -11.1239  -16.3576 C   0  0  0  0  0  0  0  0  0  0  0  0
   18.7070  -11.9726  -16.5685 N   0  0  0  0  0  0  0  0  0  0  0  0
   17.9737  -11.9737  -15.4645 C   0  0  0  0  0  0  0  0  0  0  0  0
   18.5504  -11.1334  -14.5602 N   0  0  0  0  0  0  0  0  0  0  0  0
   22.2926   -7.9737  -14.6849 C   0  0  0  0  0  0  0  0  0  0  0  0
   22.9848   -7.9552  -13.6371 O   0  0  0  0  0  0  0  0  0  0  0  0
   22.0362   -6.7208  -15.3244 N   0  0  0  0  0  0  0  0  0  0  0  0
   22.4661   -5.4546  -14.7952 C   0  0  1  0  0  0  0  0  0  0  0  0
   23.0086   -4.6506  -15.9848 C   0  0  0  0  0  0  0  0  0  0  0  0
   23.4431   -3.0176  -15.3679 S   0  0  0  0  0  0  0  0  0  0  0  0
   21.3701   -4.7195  -14.1355 C   0  0  0  0  0  0  0  0  0  0  0  0
   20.2117   -4.8180  -14.5999 O   0  0  0  0  0  0  0  0  0  0  0  0
   21.5359   -3.9134  -13.0181 O   0  0  0  0  0  0  0  0  0  0  0  0
  2  1  1  1
  3  2  1  0
  4  2  1  0
  4  5  1  0
  5  6  1  6
  7  5  1  0
  7  8  2  0
  9  7  1  0
 10  9  1  0
 10 11  1  1
 12 16  1  0
 12 11  1  0
 13 12  2  0
 14 13  1  0
 14 15  1  0
 15 16  2  0
 17 10  1  0
 18 17  2  0
 19 17  1  0
 20 21  1  6
 20 19  1  0
 21 22  1  0
 23 20  1  0
 24 23  2  0
 25 23  1  0
M  END
$$$$
