LHC.pdb
     RDKit          3D

 25 25  0  0  1  0  0  0  0  0999 V2000
   25.7284  -16.5713  -15.0603 C   0  0  0  0  0  0  0  0  0  0  0  0
   26.2413  -15.6469  -16.1333 C   0  0  2  0  0  0  0  0  0  0  0  0
   27.7687  -15.7366  -16.1605 C   0  0  0  0  0  0  0  0  0  0  0  0
   25.8944  -14.2081  -15.8708 C   0  0  0  0  0  0  0  0  0  0  0  0
   24.4196  -13.9359  -15.9601 C   0  0  2  0  0  0  0  0  0  0  0  0
   23.7750  -14.9435  -16.7434 N   0  0  0  0  0  0  0  0  0  0  0  0
   24.2176  -12.5703  -16.4849 C   0  0  0  0  0  0  0  0  0  0  0  0
   24.9044  -11.6481  -15.9533 O   0  0  0  0  0  0  0  0  0  0  0  0
   23.3289  -12.2271  -17.5187 N   0  0  0  0  0  0  0  0  0  0  0  0
   23.1778  -10.8715  -17.9542 C   0  0  1  0  0  0  0  0  0  0  0  0
   22.8883  -10.7379  -19.4234 C   0  0  0  0  0  0  0  0  0  0  0  0
   24.0257  -11.1417  -20.2776 C   0  0  0  0  0  0  0  0  0  0  0  0
   25.2190  -10.4856  -20.4983 C   0  0  0  0  0  0  0  0  0  0  0  0
   25.9835  -11.2175  -21.3605 N   0  0  0  0  0  0  0  0  0  0  0  0
   25.2920  -12.3037  -21.6742 C   0  0  0  0  0  0  0  0  0  0  0  0
   24.0988  -12.2628  -21.0175 N   0  0  0  0  0  0  0  0  0  0  0  0
   22.0033  -10.2921  -17.2272 C   0  0  0  0  0  0  0  0  0  0  0  0
   20.8859  -10.8648  -17.1996 O   0  0  0  0  0  0  0  0  0  0  0  0
   22.1210   -9.0487  -16.5311 N   0  0  0  0  0  0  0  0  0  0  0  0
   21.0842   -8.5022  -15.6976 C   0  0  1  0  0  0  0  0  0  0  0  0
   21.1208   -9.2971  -14.3851 C   0  0  0  0  0  0  0  0  0  0  0  0
   19.9915   -8.4876  -13.2426 S   0  0  0  0  0  0  0  0  0  0  0  0
   21.2757   -7.0636  -15.4323 C   0  0  0  0  0  0  0  0  0  0  0  0
   22.4350   -6.5924  -15.4668 O   0  0  0  0  0  0  0  0  0  0  0  0
   20.2440   -6.1817  -15.1426 O   0  0  0  0  0  0  0  0  0  0  0  0
  2  1  1  1
  3  2  1  0
  4  2  1  0
  4  5  1  0
  5  6  1  6
  7  5  1  0
  7  8  2  0
  9  7  1  0
 10  9  1  0
 10 11  1  6
 12 16  1  0
 12 11  1  0
 13 12  2  0
 14 13  1  0
 14 15  1  0
 15 16  2  0
 17 10  1  0
 18 17  2  0
 19 17  1  0
 20 21  1  1
 20 19  1  0
 21 22  1  0
 23 20  1  0
 24 23  2  0
 25 23  1  0
M  END
$$$$
