LHC.pdb
     RDKit          3D

 25 25  0  0  1  0  0  0  0  0999 V2000
   20.3904   -9.8024  -20.2074 C   0  0  0  0  0  0  0  0  0  0  0  0
   20.3793  -10.8282  -19.1043 C   0  0  2  0  0  0  0  0  0  0  0  0
   19.8466  -12.1452  -19.6729 C   0  0  0  0  0  0  0  0  0  0  0  0
   19.4719  -10.4457  -17.9687 C   0  0  0  0  0  0  0  0  0  0  0  0
   19.8775  -11.0647  -16.6612 C   0  0  2  0  0  0  0  0  0  0  0  0
   19.3350  -12.3825  -16.5461 N   0  0  0  0  0  0  0  0  0  0  0  0
   19.4695  -10.1671  -15.5617 C   0  0  0  0  0  0  0  0  0  0  0  0
   18.2662  -10.2505  -15.1748 O   0  0  0  0  0  0  0  0  0  0  0  0
   20.3115   -9.2398  -14.9235 N   0  0  0  0  0  0  0  0  0  0  0  0
   19.8091   -8.3286  -13.9399 C   0  0  1  0  0  0  0  0  0  0  0  0
   20.7313   -8.1357  -12.7684 C   0  0  0  0  0  0  0  0  0  0  0  0
   20.2115   -7.1733  -11.7734 C   0  0  0  0  0  0  0  0  0  0  0  0
   19.1765   -7.3305  -10.8749 C   0  0  0  0  0  0  0  0  0  0  0  0
   19.0358   -6.1861  -10.1442 N   0  0  0  0  0  0  0  0  0  0  0  0
   19.9556   -5.3321  -10.5699 C   0  0  0  0  0  0  0  0  0  0  0  0
   20.6745   -5.9282  -11.5621 N   0  0  0  0  0  0  0  0  0  0  0  0
   19.6597   -6.9914  -14.5979 C   0  0  0  0  0  0  0  0  0  0  0  0
   20.5445   -6.5150  -15.3513 O   0  0  0  0  0  0  0  0  0  0  0  0
   18.4856   -6.2037  -14.3847 N   0  0  0  0  0  0  0  0  0  0  0  0
   18.3375   -4.8527  -14.8547 C   0  0  1  0  0  0  0  0  0  0  0  0
   17.0351   -4.8176  -15.6662 C   0  0  0  0  0  0  0  0  0  0  0  0
   16.8166   -3.1290  -16.2467 S   0  0  0  0  0  0  0  0  0  0  0  0
   18.2810   -3.8760  -13.7504 C   0  0  0  0  0  0  0  0  0  0  0  0
   17.5521   -4.1227  -12.7629 O   0  0  0  0  0  0  0  0  0  0  0  0
   18.9909   -2.6837  -13.7290 O   0  0  0  0  0  0  0  0  0  0  0  0
  2  1  1  6
  3  2  1  0
  4  2  1  0
  4  5  1  0
  5  6  1  1
  7  5  1  0
  7  8  2  0
  9  7  1  0
 10  9  1  0
 10 11  1  1
 12 16  1  0
 12 11  1  0
 13 12  2  0
 14 13  1  0
 14 15  1  0
 15 16  2  0
 17 10  1  0
 18 17  2  0
 19 17  1  0
 20 21  1  1
 20 19  1  0
 21 22  1  0
 23 20  1  0
 24 23  2  0
 25 23  1  0
M  END
$$$$
