LHC.pdb
     RDKit          3D

 25 25  0  0  1  0  0  0  0  0999 V2000
   28.0941  -18.3055   -4.2280 C   0  0  0  0  0  0  0  0  0  0  0  0
   28.4454  -19.7554   -4.4365 C   0  0  2  0  0  0  0  0  0  0  0  0
   29.9250  -19.8455   -4.8164 C   0  0  0  0  0  0  0  0  0  0  0  0
   27.6686  -20.3823   -5.5603 C   0  0  0  0  0  0  0  0  0  0  0  0
   27.6184  -19.5200   -6.7896 C   0  0  2  0  0  0  0  0  0  0  0  0
   26.8671  -18.3311   -6.5320 N   0  0  0  0  0  0  0  0  0  0  0  0
   27.0820  -20.3182   -7.9105 C   0  0  0  0  0  0  0  0  0  0  0  0
   27.6567  -21.4213   -8.1508 O   0  0  0  0  0  0  0  0  0  0  0  0
   25.9937  -19.9447   -8.7180 N   0  0  0  0  0  0  0  0  0  0  0  0
   25.5713  -20.7523   -9.8223 C   0  0  1  0  0  0  0  0  0  0  0  0
   24.0960  -20.6715  -10.1002 C   0  0  0  0  0  0  0  0  0  0  0  0
   23.2653  -21.0407   -8.9340 C   0  0  0  0  0  0  0  0  0  0  0  0
   23.3982  -22.1175   -8.0819 C   0  0  0  0  0  0  0  0  0  0  0  0
   22.4115  -22.0718   -7.1397 N   0  0  0  0  0  0  0  0  0  0  0  0
   21.6777  -20.9970   -7.3908 C   0  0  0  0  0  0  0  0  0  0  0  0
   22.1932  -20.3653   -8.4825 N   0  0  0  0  0  0  0  0  0  0  0  0
   26.2706  -20.2450  -11.0459 C   0  0  0  0  0  0  0  0  0  0  0  0
   26.1439  -19.0610  -11.4453 O   0  0  0  0  0  0  0  0  0  0  0  0
   27.1177  -21.1079  -11.8090 N   0  0  0  0  0  0  0  0  0  0  0  0
   27.8455  -20.6819  -12.9739 C   0  0  1  0  0  0  0  0  0  0  0  0
   29.2964  -21.1385  -12.7682 C   0  0  0  0  0  0  0  0  0  0  0  0
   29.3210  -22.1853  -11.3055 S   0  0  0  0  0  0  0  0  0  0  0  0
   27.2986  -21.2541  -14.2190 C   0  0  0  0  0  0  0  0  0  0  0  0
   26.3595  -22.0785  -14.1432 O   0  0  0  0  0  0  0  0  0  0  0  0
   27.7598  -20.9374  -15.4891 O   0  0  0  0  0  0  0  0  0  0  0  0
  2  1  1  6
  3  2  1  0
  4  2  1  0
  4  5  1  0
  5  6  1  1
  7  5  1  0
  7  8  2  0
  9  7  1  0
 10  9  1  0
 10 11  1  6
 12 16  1  0
 12 11  1  0
 13 12  2  0
 14 13  1  0
 14 15  1  0
 15 16  2  0
 17 10  1  0
 18 17  2  0
 19 17  1  0
 20 21  1  1
 20 19  1  0
 21 22  1  0
 23 20  1  0
 24 23  2  0
 25 23  1  0
M  END
$$$$
