LHC.pdb
     RDKit          3D

 25 25  0  0  1  0  0  0  0  0999 V2000
   28.8275  -22.2873  -11.6455 C   0  0  0  0  0  0  0  0  0  0  0  0
   28.7733  -20.8222  -11.2995 C   0  0  2  0  0  0  0  0  0  0  0  0
   28.8409  -20.6811   -9.7773 C   0  0  0  0  0  0  0  0  0  0  0  0
   27.4921  -20.1715  -11.7405 C   0  0  0  0  0  0  0  0  0  0  0  0
   27.2641  -20.2721  -13.2221 C   0  0  2  0  0  0  0  0  0  0  0  0
   28.2892  -19.5715  -13.9310 N   0  0  0  0  0  0  0  0  0  0  0  0
   25.9042  -19.7850  -13.5295 C   0  0  0  0  0  0  0  0  0  0  0  0
   25.7382  -18.5293  -13.5430 O   0  0  0  0  0  0  0  0  0  0  0  0
   24.7967  -20.6060  -13.8044 N   0  0  0  0  0  0  0  0  0  0  0  0
   23.5369  -20.0527  -14.2004 C   0  0  1  0  0  0  0  0  0  0  0  0
   23.1253  -20.4266  -15.5971 C   0  0  0  0  0  0  0  0  0  0  0  0
   23.9574  -19.7859  -16.6380 C   0  0  0  0  0  0  0  0  0  0  0  0
   25.0209  -20.3118  -17.3419 C   0  0  0  0  0  0  0  0  0  0  0  0
   25.4990  -19.3702  -18.2070 N   0  0  0  0  0  0  0  0  0  0  0  0
   24.7581  -18.2822  -18.0528 C   0  0  0  0  0  0  0  0  0  0  0  0
   23.8176  -18.5297  -17.0985 N   0  0  0  0  0  0  0  0  0  0  0  0
   22.4924  -20.6038  -13.2791 C   0  0  0  0  0  0  0  0  0  0  0  0
   22.5188  -21.7923  -12.8740 O   0  0  0  0  0  0  0  0  0  0  0  0
   21.4156  -19.7796  -12.8255 N   0  0  0  0  0  0  0  0  0  0  0  0
   20.3762  -20.2414  -11.9454 C   0  0  1  0  0  0  0  0  0  0  0  0
   20.5472  -19.4676  -10.6310 C   0  0  0  0  0  0  0  0  0  0  0  0
   19.2646  -20.0402   -9.5071 S   0  0  0  0  0  0  0  0  0  0  0  0
   19.0280  -20.0178  -12.5014 C   0  0  0  0  0  0  0  0  0  0  0  0
   18.8187  -18.9880  -13.1818 O   0  0  0  0  0  0  0  0  0  0  0  0
   17.9582  -20.8830  -12.3201 O   0  0  0  0  0  0  0  0  0  0  0  0
  2  1  1  1
  3  2  1  0
  4  2  1  0
  4  5  1  0
  5  6  1  6
  7  5  1  0
  7  8  2  0
  9  7  1  0
 10  9  1  0
 10 11  1  6
 12 16  1  0
 12 11  1  0
 13 12  2  0
 14 13  1  0
 14 15  1  0
 15 16  2  0
 17 10  1  0
 18 17  2  0
 19 17  1  0
 20 21  1  1
 20 19  1  0
 21 22  1  0
 23 20  1  0
 24 23  2  0
 25 23  1  0
M  END
$$$$
