LHC.pdb
     RDKit          3D

 25 25  0  0  1  0  0  0  0  0999 V2000
   26.7353  -13.6115  -15.0666 C   0  0  0  0  0  0  0  0  0  0  0  0
   26.8056  -12.7147  -16.2749 C   0  0  2  0  0  0  0  0  0  0  0  0
   28.1498  -11.9835  -16.2579 C   0  0  0  0  0  0  0  0  0  0  0  0
   25.7358  -11.6589  -16.2739 C   0  0  0  0  0  0  0  0  0  0  0  0
   24.3499  -12.2297  -16.3774 C   0  0  2  0  0  0  0  0  0  0  0  0
   24.2315  -13.0366  -17.5517 N   0  0  0  0  0  0  0  0  0  0  0  0
   23.3734  -11.1229  -16.3286 C   0  0  0  0  0  0  0  0  0  0  0  0
   23.1228  -10.5353  -17.4225 O   0  0  0  0  0  0  0  0  0  0  0  0
   22.7118  -10.6819  -15.1692 N   0  0  0  0  0  0  0  0  0  0  0  0
   21.7313   -9.6396  -15.2196 C   0  0  1  0  0  0  0  0  0  0  0  0
   20.5062   -9.9226  -14.3956 C   0  0  0  0  0  0  0  0  0  0  0  0
   19.6255  -10.9460  -14.9983 C   0  0  0  0  0  0  0  0  0  0  0  0
   19.7056  -11.5324  -16.2445 C   0  0  0  0  0  0  0  0  0  0  0  0
   18.6855  -12.4282  -16.3880 N   0  0  0  0  0  0  0  0  0  0  0  0
   17.9826  -12.4069  -15.2645 C   0  0  0  0  0  0  0  0  0  0  0  0
   18.5507  -11.5060  -14.4147 N   0  0  0  0  0  0  0  0  0  0  0  0
   22.3580   -8.4028  -14.6530 C   0  0  0  0  0  0  0  0  0  0  0  0
   23.4632   -8.4268  -14.0571 O   0  0  0  0  0  0  0  0  0  0  0  0
   21.7058   -7.1363  -14.7756 N   0  0  0  0  0  0  0  0  0  0  0  0
   22.3701   -5.8765  -14.5759 C   0  0  1  0  0  0  0  0  0  0  0  0
   23.4433   -5.7757  -15.6686 C   0  0  0  0  0  0  0  0  0  0  0  0
   24.2777   -4.1972  -15.4491 S   0  0  0  0  0  0  0  0  0  0  0  0
   21.4426   -4.7322  -14.6598 C   0  0  0  0  0  0  0  0  0  0  0  0
   20.5132   -4.7684  -15.4977 O   0  0  0  0  0  0  0  0  0  0  0  0
   21.5296   -3.6000  -13.8619 O   0  0  0  0  0  0  0  0  0  0  0  0
  2  1  1  1
  3  2  1  0
  4  2  1  0
  4  5  1  0
  5  6  1  6
  7  5  1  0
  7  8  2  0
  9  7  1  0
 10  9  1  0
 10 11  1  1
 12 16  1  0
 12 11  1  0
 13 12  2  0
 14 13  1  0
 14 15  1  0
 15 16  2  0
 17 10  1  0
 18 17  2  0
 19 17  1  0
 20 21  1  6
 20 19  1  0
 21 22  1  0
 23 20  1  0
 24 23  2  0
 25 23  1  0
M  END
$$$$
