LHC.pdb
     RDKit          3D

 25 25  0  0  1  0  0  0  0  0999 V2000
   22.2406  -21.2275  -10.1302 C   0  0  0  0  0  0  0  0  0  0  0  0
   20.9017  -20.5373  -10.1410 C   0  0  2  0  0  0  0  0  0  0  0  0
   20.9912  -19.2925   -9.2554 C   0  0  0  0  0  0  0  0  0  0  0  0
   19.8047  -21.3955   -9.5758 C   0  0  0  0  0  0  0  0  0  0  0  0
   19.6529  -22.7033  -10.2996 C   0  0  2  0  0  0  0  0  0  0  0  0
   19.1843  -22.4820  -11.6321 N   0  0  0  0  0  0  0  0  0  0  0  0
   18.7709  -23.5860   -9.5096 C   0  0  0  0  0  0  0  0  0  0  0  0
   17.5235  -23.4440   -9.6781 O   0  0  0  0  0  0  0  0  0  0  0  0
   19.2129  -24.5592   -8.5964 N   0  0  0  0  0  0  0  0  0  0  0  0
   18.2965  -25.4557   -7.9587 C   0  0  1  0  0  0  0  0  0  0  0  0
   18.6313  -26.9072   -8.1624 C   0  0  0  0  0  0  0  0  0  0  0  0
   18.3869  -27.3701   -9.5452 C   0  0  0  0  0  0  0  0  0  0  0  0
   17.7963  -26.6947  -10.5932 C   0  0  0  0  0  0  0  0  0  0  0  0
   17.7744  -27.5011  -11.6944 N   0  0  0  0  0  0  0  0  0  0  0  0
   18.3352  -28.6517  -11.3505 C   0  0  0  0  0  0  0  0  0  0  0  0
   18.7100  -28.5775  -10.0426 N   0  0  0  0  0  0  0  0  0  0  0  0
   18.3651  -25.1984   -6.4848 C   0  0  0  0  0  0  0  0  0  0  0  0
   19.4465  -24.9372   -5.9019 O   0  0  0  0  0  0  0  0  0  0  0  0
   17.1817  -25.2430   -5.6836 N   0  0  0  0  0  0  0  0  0  0  0  0
   17.1855  -25.1180   -4.2508 C   0  0  1  0  0  0  0  0  0  0  0  0
   15.7445  -24.7828   -3.8423 C   0  0  0  0  0  0  0  0  0  0  0  0
   15.7111  -24.6845   -2.0464 S   0  0  0  0  0  0  0  0  0  0  0  0
   17.6357  -26.3524   -3.5798 C   0  0  0  0  0  0  0  0  0  0  0  0
   17.2448  -27.4566   -4.0214 O   0  0  0  0  0  0  0  0  0  0  0  0
   18.4758  -26.3756   -2.4754 O   0  0  0  0  0  0  0  0  0  0  0  0
  2  1  1  1
  3  2  1  0
  4  2  1  0
  4  5  1  0
  5  6  1  6
  7  5  1  0
  7  8  2  0
  9  7  1  0
 10  9  1  0
 10 11  1  1
 12 16  1  0
 12 11  1  0
 13 12  2  0
 14 13  1  0
 14 15  1  0
 15 16  2  0
 17 10  1  0
 18 17  2  0
 19 17  1  0
 20 21  1  1
 20 19  1  0
 21 22  1  0
 23 20  1  0
 24 23  2  0
 25 23  1  0
M  END
$$$$
