LHC.pdb
     RDKit          3D

 25 25  0  0  1  0  0  0  0  0999 V2000
   25.1073  -15.6770  -19.6285 C   0  0  0  0  0  0  0  0  0  0  0  0
   26.2961  -14.8004  -19.3327 C   0  0  2  0  0  0  0  0  0  0  0  0
   27.3200  -14.9774  -20.4562 C   0  0  0  0  0  0  0  0  0  0  0  0
   26.9865  -15.1762  -18.0515 C   0  0  0  0  0  0  0  0  0  0  0  0
   26.0595  -15.1899  -16.8693 C   0  0  2  0  0  0  0  0  0  0  0  0
   26.1432  -13.9524  -16.1581 N   0  0  0  0  0  0  0  0  0  0  0  0
   26.3712  -16.3664  -16.0326 C   0  0  0  0  0  0  0  0  0  0  0  0
   27.5384  -16.4252  -15.5440 O   0  0  0  0  0  0  0  0  0  0  0  0
   25.4754  -17.4109  -15.7445 N   0  0  0  0  0  0  0  0  0  0  0  0
   25.8809  -18.5536  -14.9831 C   0  0  1  0  0  0  0  0  0  0  0  0
   24.8049  -19.0910  -14.0810 C   0  0  0  0  0  0  0  0  0  0  0  0
   25.2157  -20.3089  -13.3501 C   0  0  0  0  0  0  0  0  0  0  0  0
   26.0942  -20.4301  -12.2934 C   0  0  0  0  0  0  0  0  0  0  0  0
   26.1795  -21.7420  -11.9258 N   0  0  0  0  0  0  0  0  0  0  0  0
   25.3778  -22.4280  -12.7278 C   0  0  0  0  0  0  0  0  0  0  0  0
   24.7882  -21.5602  -13.5972 N   0  0  0  0  0  0  0  0  0  0  0  0
   26.2184  -19.6449  -15.9519 C   0  0  0  0  0  0  0  0  0  0  0  0
   25.4788  -19.9241  -16.9278 O   0  0  0  0  0  0  0  0  0  0  0  0
   27.4127  -20.4146  -15.7922 N   0  0  0  0  0  0  0  0  0  0  0  0
   27.7692  -21.5167  -16.6447 C   0  0  1  0  0  0  0  0  0  0  0  0
   29.1249  -22.0314  -16.1416 C   0  0  0  0  0  0  0  0  0  0  0  0
   28.8630  -22.6871  -14.4871 S   0  0  0  0  0  0  0  0  0  0  0  0
   26.7660  -22.5980  -16.6149 C   0  0  0  0  0  0  0  0  0  0  0  0
   26.8604  -23.5322  -17.4430 O   0  0  0  0  0  0  0  0  0  0  0  0
   25.7078  -22.6533  -15.7187 O   0  0  0  0  0  0  0  0  0  0  0  0
  2  1  1  6
  3  2  1  0
  4  2  1  0
  4  5  1  0
  5  6  1  1
  7  5  1  0
  7  8  2  0
  9  7  1  0
 10  9  1  0
 10 11  1  1
 12 16  1  0
 12 11  1  0
 13 12  2  0
 14 13  1  0
 14 15  1  0
 15 16  2  0
 17 10  1  0
 18 17  2  0
 19 17  1  0
 20 21  1  1
 20 19  1  0
 21 22  1  0
 23 20  1  0
 24 23  2  0
 25 23  1  0
M  END
$$$$
