LHC.pdb
     RDKit          3D

 25 25  0  0  1  0  0  0  0  0999 V2000
   27.5946  -17.8181  -14.3747 C   0  0  0  0  0  0  0  0  0  0  0  0
   27.5277  -18.8613  -15.4593 C   0  0  2  0  0  0  0  0  0  0  0  0
   27.9383  -18.2113  -16.7825 C   0  0  0  0  0  0  0  0  0  0  0  0
   26.1398  -19.4046  -15.6536 C   0  0  0  0  0  0  0  0  0  0  0  0
   25.5620  -19.9965  -14.3994 C   0  0  2  0  0  0  0  0  0  0  0  0
   26.3446  -21.1139  -13.9712 N   0  0  0  0  0  0  0  0  0  0  0  0
   24.1447  -20.3345  -14.6405 C   0  0  0  0  0  0  0  0  0  0  0  0
   23.8391  -20.7073  -15.8120 O   0  0  0  0  0  0  0  0  0  0  0  0
   23.1254  -20.2724  -13.6744 N   0  0  0  0  0  0  0  0  0  0  0  0
   21.7760  -20.6343  -13.9881 C   0  0  1  0  0  0  0  0  0  0  0  0
   20.9374  -20.9443  -12.7796 C   0  0  0  0  0  0  0  0  0  0  0  0
   19.5371  -21.2794  -13.1159 C   0  0  0  0  0  0  0  0  0  0  0  0
   18.3929  -20.5403  -12.8970 C   0  0  0  0  0  0  0  0  0  0  0  0
   17.3131  -21.2308  -13.3669 N   0  0  0  0  0  0  0  0  0  0  0  0
   17.7637  -22.3722  -13.8676 C   0  0  0  0  0  0  0  0  0  0  0  0
   19.1175  -22.4071  -13.7174 N   0  0  0  0  0  0  0  0  0  0  0  0
   21.1400  -19.4602  -14.6668 C   0  0  0  0  0  0  0  0  0  0  0  0
   21.2595  -18.2895  -14.2279 O   0  0  0  0  0  0  0  0  0  0  0  0
   20.3647  -19.6399  -15.8546 N   0  0  0  0  0  0  0  0  0  0  0  0
   19.6930  -18.5665  -16.5364 C   0  0  1  0  0  0  0  0  0  0  0  0
   20.1360  -18.6422  -18.0041 C   0  0  0  0  0  0  0  0  0  0  0  0
   21.8455  -18.0864  -18.0719 S   0  0  0  0  0  0  0  0  0  0  0  0
   18.2245  -18.6690  -16.4372 C   0  0  0  0  0  0  0  0  0  0  0  0
   17.7077  -19.7974  -16.2738 O   0  0  0  0  0  0  0  0  0  0  0  0
   17.3619  -17.5845  -16.5136 O   0  0  0  0  0  0  0  0  0  0  0  0
  2  1  1  1
  3  2  1  0
  4  2  1  0
  4  5  1  0
  5  6  1  6
  7  5  1  0
  7  8  2  0
  9  7  1  0
 10  9  1  0
 10 11  1  1
 12 16  1  0
 12 11  1  0
 13 12  2  0
 14 13  1  0
 14 15  1  0
 15 16  2  0
 17 10  1  0
 18 17  2  0
 19 17  1  0
 20 21  1  6
 20 19  1  0
 21 22  1  0
 23 20  1  0
 24 23  2  0
 25 23  1  0
M  END
$$$$
