LHC.pdb
     RDKit          3D

 25 25  0  0  1  0  0  0  0  0999 V2000
   27.2961  -22.0393  -12.9944 C   0  0  0  0  0  0  0  0  0  0  0  0
   27.2335  -20.7737  -12.1798 C   0  0  2  0  0  0  0  0  0  0  0  0
   26.7544  -21.1280  -10.7703 C   0  0  0  0  0  0  0  0  0  0  0  0
   26.2543  -19.7774  -12.7347 C   0  0  0  0  0  0  0  0  0  0  0  0
   26.5606  -19.3824  -14.1515 C   0  0  2  0  0  0  0  0  0  0  0  0
   27.7463  -18.5850  -14.1996 N   0  0  0  0  0  0  0  0  0  0  0  0
   25.3789  -18.7065  -14.7242 C   0  0  0  0  0  0  0  0  0  0  0  0
   25.1134  -17.5499  -14.2812 O   0  0  0  0  0  0  0  0  0  0  0  0
   24.5398  -19.2496  -15.7128 N   0  0  0  0  0  0  0  0  0  0  0  0
   23.3957  -18.5366  -16.1953 C   0  0  1  0  0  0  0  0  0  0  0  0
   23.3825  -18.3551  -17.6877 C   0  0  0  0  0  0  0  0  0  0  0  0
   22.2632  -17.5118  -18.1593 C   0  0  0  0  0  0  0  0  0  0  0  0
   22.2462  -16.1551  -18.4087 C   0  0  0  0  0  0  0  0  0  0  0  0
   21.0003  -15.7895  -18.8303 N   0  0  0  0  0  0  0  0  0  0  0  0
   20.2536  -16.8844  -18.8462 C   0  0  0  0  0  0  0  0  0  0  0  0
   21.0177  -17.9363  -18.4385 N   0  0  0  0  0  0  0  0  0  0  0  0
   22.1819  -19.3419  -15.8465 C   0  0  0  0  0  0  0  0  0  0  0  0
   22.2142  -20.5942  -15.7566 O   0  0  0  0  0  0  0  0  0  0  0  0
   20.9289  -18.6984  -15.6011 N   0  0  0  0  0  0  0  0  0  0  0  0
   19.7154  -19.4085  -15.2985 C   0  0  1  0  0  0  0  0  0  0  0  0
   19.6438  -19.5096  -13.7686 C   0  0  0  0  0  0  0  0  0  0  0  0
   18.0491  -20.2340  -13.3586 S   0  0  0  0  0  0  0  0  0  0  0  0
   18.5181  -18.7256  -15.8247 C   0  0  0  0  0  0  0  0  0  0  0  0
   18.5112  -17.4749  -15.8787 O   0  0  0  0  0  0  0  0  0  0  0  0
   17.3805  -19.3832  -16.2712 O   0  0  0  0  0  0  0  0  0  0  0  0
  2  1  1  6
  3  2  1  0
  4  2  1  0
  4  5  1  0
  5  6  1  1
  7  5  1  0
  7  8  2  0
  9  7  1  0
 10  9  1  0
 10 11  1  6
 12 16  1  0
 12 11  1  0
 13 12  2  0
 14 13  1  0
 14 15  1  0
 15 16  2  0
 17 10  1  0
 18 17  2  0
 19 17  1  0
 20 21  1  1
 20 19  1  0
 21 22  1  0
 23 20  1  0
 24 23  2  0
 25 23  1  0
M  END
$$$$
