MFD.pdb
     RDKit          3D

 28 28  0  0  1  0  0  0  0  0999 V2000
   18.5095  -16.5270  -15.6001 C   0  0  0  0  0  0  0  0  0  0  0  0
   17.9703  -16.4062  -17.2879 S   0  0  0  0  0  0  0  0  0  0  0  0
   18.0208  -14.7800  -17.9723 C   0  0  0  0  0  0  0  0  0  0  0  0
   18.5726  -13.7545  -17.0448 C   0  0  0  0  0  0  0  0  0  0  0  0
   18.6098  -12.3946  -17.6550 C   0  0  2  0  0  0  0  0  0  0  0  0
   19.6532  -12.3511  -18.6622 N   0  0  0  0  0  0  0  0  0  0  0  0
   18.8545  -11.3368  -16.6134 C   0  0  0  0  0  0  0  0  0  0  0  0
   18.0711  -11.1455  -15.6481 O   0  0  0  0  0  0  0  0  0  0  0  0
   19.9971  -10.4934  -16.6730 N   0  0  0  0  0  0  0  0  0  0  0  0
   20.2107   -9.3846  -15.7552 C   0  0  1  0  0  0  0  0  0  0  0  0
   21.6467   -9.1214  -15.4937 C   0  0  0  0  0  0  0  0  0  0  0  0
   21.8417   -7.9409  -14.6220 C   0  0  0  0  0  0  0  0  0  0  0  0
   22.0527   -6.6759  -15.0847 C   0  0  0  0  0  0  0  0  0  0  0  0
   22.2143   -5.6509  -14.1801 C   0  0  0  0  0  0  0  0  0  0  0  0
   22.1634   -5.9004  -12.8099 C   0  0  0  0  0  0  0  0  0  0  0  0
   21.9501   -7.1800  -12.3425 C   0  0  0  0  0  0  0  0  0  0  0  0
   21.7919   -8.1849  -13.2495 C   0  0  0  0  0  0  0  0  0  0  0  0
   19.4860   -8.1711  -16.2019 C   0  0  0  0  0  0  0  0  0  0  0  0
   19.4999   -7.7384  -17.3769 O   0  0  0  0  0  0  0  0  0  0  0  0
   18.6966   -7.3911  -15.2838 N   0  0  0  0  0  0  0  0  0  0  0  0
   18.0189   -6.1530  -15.7134 C   0  0  1  0  0  0  0  0  0  0  0  0
   16.5569   -6.3844  -15.5395 C   0  0  0  0  0  0  0  0  0  0  0  0
   15.6802   -5.2406  -15.7740 C   0  0  0  0  0  0  0  0  0  0  0  0
   15.8779   -4.2625  -16.5166 O   0  0  0  0  0  0  0  0  0  0  0  0
   18.5366   -5.0559  -14.8774 C   0  0  0  0  0  0  0  0  0  0  0  0
   18.7048   -5.2418  -13.6519 O   0  0  0  0  0  0  0  0  0  0  0  0
   14.4599   -5.2497  -15.0697 O   0  0  0  0  0  0  0  0  0  0  0  0
   18.8500   -3.8159  -15.3861 O   0  0  0  0  0  0  0  0  0  0  0  0
  2  1  1  0
  3  4  1  0
  3  2  1  0
  5  4  1  0
  5  6  1  6
  7  8  2  0
  7  5  1  0
  9  7  1  0
 10  9  1  0
 11 12  1  0
 10 11  1  6
 12 13  2  0
 13 14  1  0
 15 14  2  0
 16 15  1  0
 17 12  1  0
 17 16  2  0
 18 20  1  0
 18 10  1  0
 19 18  2  0
 21 20  1  0
 21 25  1  0
 21 22  1  1
 23 22  1  0
 24 23  2  0
 25 28  1  0
 26 25  2  0
 27 23  1  0
M  END
$$$$
