MFD.pdb
     RDKit          3D

 28 28  0  0  1  0  0  0  0  0999 V2000
   14.8767   -9.1720   10.1106 C   0  0  0  0  0  0  0  0  0  0  0  0
   14.9829  -10.8340    9.4937 S   0  0  0  0  0  0  0  0  0  0  0  0
   14.4035  -11.0545    7.8410 C   0  0  0  0  0  0  0  0  0  0  0  0
   14.4554  -12.4656    7.3692 C   0  0  0  0  0  0  0  0  0  0  0  0
   13.9669  -12.6171    5.9688 C   0  0  2  0  0  0  0  0  0  0  0  0
   12.5429  -12.8946    5.9868 N   0  0  0  0  0  0  0  0  0  0  0  0
   14.6979  -13.7205    5.2533 C   0  0  0  0  0  0  0  0  0  0  0  0
   14.1943  -14.8594    5.0753 O   0  0  0  0  0  0  0  0  0  0  0  0
   16.0083  -13.5247    4.7389 N   0  0  0  0  0  0  0  0  0  0  0  0
   16.7527  -14.5690    4.0513 C   0  0  1  0  0  0  0  0  0  0  0  0
   17.7498  -14.0311    3.0942 C   0  0  0  0  0  0  0  0  0  0  0  0
   18.4151  -15.1080    2.3267 C   0  0  0  0  0  0  0  0  0  0  0  0
   17.7823  -16.2287    1.8768 C   0  0  0  0  0  0  0  0  0  0  0  0
   18.5007  -17.1627    1.1651 C   0  0  0  0  0  0  0  0  0  0  0  0
   19.8563  -16.9676    0.9069 C   0  0  0  0  0  0  0  0  0  0  0  0
   20.4959  -15.8340    1.3623 C   0  0  0  0  0  0  0  0  0  0  0  0
   19.7721  -14.9180    2.0655 C   0  0  0  0  0  0  0  0  0  0  0  0
   17.3514  -15.5238    5.0141 C   0  0  0  0  0  0  0  0  0  0  0  0
   18.1071  -15.1901    5.9552 O   0  0  0  0  0  0  0  0  0  0  0  0
   17.0926  -16.9378    4.9242 N   0  0  0  0  0  0  0  0  0  0  0  0
   17.6097  -17.8792    5.9356 C   0  0  1  0  0  0  0  0  0  0  0  0
   16.8655  -17.6017    7.1968 C   0  0  0  0  0  0  0  0  0  0  0  0
   17.0757  -18.5347    8.3002 C   0  0  0  0  0  0  0  0  0  0  0  0
   17.8270  -19.5254    8.3340 O   0  0  0  0  0  0  0  0  0  0  0  0
   17.3908  -19.2419    5.4201 C   0  0  0  0  0  0  0  0  0  0  0  0
   16.6503  -19.4133    4.4267 O   0  0  0  0  0  0  0  0  0  0  0  0
   16.3334  -18.2771    9.4697 O   0  0  0  0  0  0  0  0  0  0  0  0
   17.9706  -20.3545    5.9863 O   0  0  0  0  0  0  0  0  0  0  0  0
  2  1  1  0
  3  4  1  0
  3  2  1  0
  5  4  1  0
  5  6  1  1
  7  8  2  0
  7  5  1  0
  9  7  1  0
 10  9  1  0
 11 12  1  0
 10 11  1  1
 12 13  2  0
 13 14  1  0
 15 14  2  0
 16 15  1  0
 17 12  1  0
 17 16  2  0
 18 20  1  0
 18 10  1  0
 19 18  2  0
 21 20  1  0
 21 25  1  0
 21 22  1  1
 23 22  1  0
 24 23  2  0
 25 28  1  0
 26 25  2  0
 27 23  1  0
M  END
$$$$
