MFD.pdb
     RDKit          3D

 28 28  0  0  1  0  0  0  0  0999 V2000
   26.8777  -18.0446  -19.4595 C   0  0  0  0  0  0  0  0  0  0  0  0
   28.1412  -19.2173  -19.8870 S   0  0  0  0  0  0  0  0  0  0  0  0
   27.9703  -20.8050  -19.1350 C   0  0  0  0  0  0  0  0  0  0  0  0
   27.1327  -20.8000  -17.9042 C   0  0  0  0  0  0  0  0  0  0  0  0
   27.7593  -21.5596  -16.7848 C   0  0  2  0  0  0  0  0  0  0  0  0
   28.1813  -22.8611  -17.2676 N   0  0  0  0  0  0  0  0  0  0  0  0
   26.8032  -21.7220  -15.6344 C   0  0  0  0  0  0  0  0  0  0  0  0
   25.9257  -22.6229  -15.6077 O   0  0  0  0  0  0  0  0  0  0  0  0
   26.8476  -20.8536  -14.5101 N   0  0  0  0  0  0  0  0  0  0  0  0
   25.8994  -20.9352  -13.4093 C   0  0  1  0  0  0  0  0  0  0  0  0
   26.3820  -20.2576  -12.1815 C   0  0  0  0  0  0  0  0  0  0  0  0
   25.4813  -20.4932  -11.0306 C   0  0  0  0  0  0  0  0  0  0  0  0
   25.8102  -21.2501   -9.9453 C   0  0  0  0  0  0  0  0  0  0  0  0
   24.8942  -21.3948   -8.9280 C   0  0  0  0  0  0  0  0  0  0  0  0
   23.6472  -20.7771   -9.0041 C   0  0  0  0  0  0  0  0  0  0  0  0
   23.3149  -20.0119  -10.1021 C   0  0  0  0  0  0  0  0  0  0  0  0
   24.2316  -19.8775  -11.1016 C   0  0  0  0  0  0  0  0  0  0  0  0
   24.5555  -20.4658  -13.8228 C   0  0  0  0  0  0  0  0  0  0  0  0
   24.3560  -19.4871  -14.5781 O   0  0  0  0  0  0  0  0  0  0  0  0
   23.3596  -21.1269  -13.3677 N   0  0  0  0  0  0  0  0  0  0  0  0
   22.0271  -20.7292  -13.8605 C   0  0  1  0  0  0  0  0  0  0  0  0
   22.0112  -21.0127  -15.3237 C   0  0  0  0  0  0  0  0  0  0  0  0
   20.7379  -20.8254  -16.0134 C   0  0  0  0  0  0  0  0  0  0  0  0
   19.6757  -21.4502  -15.8451 O   0  0  0  0  0  0  0  0  0  0  0  0
   21.0293  -21.5086  -13.1072 C   0  0  0  0  0  0  0  0  0  0  0  0
   21.2129  -22.7325  -12.9255 O   0  0  0  0  0  0  0  0  0  0  0  0
   20.7140  -19.8099  -16.9898 O   0  0  0  0  0  0  0  0  0  0  0  0
   19.8862  -20.9478  -12.5844 O   0  0  0  0  0  0  0  0  0  0  0  0
  2  1  1  0
  3  4  1  0
  3  2  1  0
  5  4  1  0
  5  6  1  6
  7  8  2  0
  7  5  1  0
  9  7  1  0
 10  9  1  0
 11 12  1  0
 10 11  1  1
 12 13  2  0
 13 14  1  0
 15 14  2  0
 16 15  1  0
 17 12  1  0
 17 16  2  0
 18 20  1  0
 18 10  1  0
 19 18  2  0
 21 20  1  0
 21 25  1  0
 21 22  1  6
 23 22  1  0
 24 23  2  0
 25 28  1  0
 26 25  2  0
 27 23  1  0
M  END
$$$$
