MFD.pdb
     RDKit          3D

 28 28  0  0  1  0  0  0  0  0999 V2000
   10.5906  -18.9674    5.8252 C   0  0  0  0  0  0  0  0  0  0  0  0
   12.2449  -18.5202    6.2917 S   0  0  0  0  0  0  0  0  0  0  0  0
   13.4807  -18.8655    5.0797 C   0  0  0  0  0  0  0  0  0  0  0  0
   14.8273  -18.3334    5.4259 C   0  0  0  0  0  0  0  0  0  0  0  0
   15.4204  -17.5222    4.3245 C   0  0  2  0  0  0  0  0  0  0  0  0
   15.7414  -18.3929    3.2092 N   0  0  0  0  0  0  0  0  0  0  0  0
   16.6564  -16.7987    4.7857 C   0  0  0  0  0  0  0  0  0  0  0  0
   17.7914  -17.3410    4.7975 O   0  0  0  0  0  0  0  0  0  0  0  0
   16.5981  -15.4517    5.2354 N   0  0  0  0  0  0  0  0  0  0  0  0
   17.7643  -14.7274    5.7179 C   0  0  1  0  0  0  0  0  0  0  0  0
   17.5922  -13.2554    5.6621 C   0  0  0  0  0  0  0  0  0  0  0  0
   18.8210  -12.5399    6.0741 C   0  0  0  0  0  0  0  0  0  0  0  0
   19.0843  -12.1476    7.3529 C   0  0  0  0  0  0  0  0  0  0  0  0
   20.2654  -11.4938    7.6225 C   0  0  0  0  0  0  0  0  0  0  0  0
   21.1807  -11.2354    6.6038 C   0  0  0  0  0  0  0  0  0  0  0  0
   20.9138  -11.6323    5.3105 C   0  0  0  0  0  0  0  0  0  0  0  0
   19.7407  -12.2785    5.0584 C   0  0  0  0  0  0  0  0  0  0  0  0
   18.1695  -15.1984    7.0637 C   0  0  0  0  0  0  0  0  0  0  0  0
   17.3710  -15.3951    8.0080 O   0  0  0  0  0  0  0  0  0  0  0  0
   19.5491  -15.4675    7.3778 N   0  0  0  0  0  0  0  0  0  0  0  0
   19.9471  -16.0022    8.6940 C   0  0  1  0  0  0  0  0  0  0  0  0
   20.9968  -17.0288    8.4379 C   0  0  0  0  0  0  0  0  0  0  0  0
   21.4614  -17.7927    9.5922 C   0  0  0  0  0  0  0  0  0  0  0  0
   21.0884  -17.6977   10.7751 O   0  0  0  0  0  0  0  0  0  0  0  0
   20.4289  -14.8682    9.5017 C   0  0  0  0  0  0  0  0  0  0  0  0
   20.4644  -14.9705   10.7479 O   0  0  0  0  0  0  0  0  0  0  0  0
   22.4555  -18.7559    9.3293 O   0  0  0  0  0  0  0  0  0  0  0  0
   20.8492  -13.6821    8.9442 O   0  0  0  0  0  0  0  0  0  0  0  0
  2  1  1  0
  3  4  1  0
  3  2  1  0
  5  4  1  0
  5  6  1  6
  7  8  2  0
  7  5  1  0
  9  7  1  0
 10  9  1  0
 11 12  1  0
 10 11  1  1
 12 13  2  0
 13 14  1  0
 15 14  2  0
 16 15  1  0
 17 12  1  0
 17 16  2  0
 18 20  1  0
 18 10  1  0
 19 18  2  0
 21 20  1  0
 21 25  1  0
 21 22  1  6
 23 22  1  0
 24 23  2  0
 25 28  1  0
 26 25  2  0
 27 23  1  0
M  END
$$$$
