MFD.pdb
     RDKit          3D

 28 28  0  0  1  0  0  0  0  0999 V2000
   29.4391  -17.6129  -15.2722 C   0  0  0  0  0  0  0  0  0  0  0  0
   27.6866  -17.8259  -15.4665 S   0  0  0  0  0  0  0  0  0  0  0  0
   27.1499  -19.5017  -15.6049 C   0  0  0  0  0  0  0  0  0  0  0  0
   28.1542  -20.4952  -15.1351 C   0  0  0  0  0  0  0  0  0  0  0  0
   28.3266  -20.4755  -13.6544 C   0  0  2  0  0  0  0  0  0  0  0  0
   29.4108  -21.3672  -13.2876 N   0  0  0  0  0  0  0  0  0  0  0  0
   27.0609  -20.8876  -12.9531 C   0  0  0  0  0  0  0  0  0  0  0  0
   26.5408  -22.0222  -13.1097 O   0  0  0  0  0  0  0  0  0  0  0  0
   26.3853  -20.0025  -12.0698 N   0  0  0  0  0  0  0  0  0  0  0  0
   25.2139  -20.3939  -11.3002 C   0  0  1  0  0  0  0  0  0  0  0  0
   25.0281  -19.5757  -10.0773 C   0  0  0  0  0  0  0  0  0  0  0  0
   25.9676  -19.9680   -9.0026 C   0  0  0  0  0  0  0  0  0  0  0  0
   26.2973  -21.2580   -8.7092 C   0  0  0  0  0  0  0  0  0  0  0  0
   27.1898  -21.5054   -7.6907 C   0  0  0  0  0  0  0  0  0  0  0  0
   27.7499  -20.4534   -6.9682 C   0  0  0  0  0  0  0  0  0  0  0  0
   27.4159  -19.1490   -7.2653 C   0  0  0  0  0  0  0  0  0  0  0  0
   26.5311  -18.9190   -8.2760 C   0  0  0  0  0  0  0  0  0  0  0  0
   23.9995  -20.4246  -12.1496 C   0  0  0  0  0  0  0  0  0  0  0  0
   23.7950  -19.6467  -13.1094 O   0  0  0  0  0  0  0  0  0  0  0  0
   22.9477  -21.3804  -11.9165 N   0  0  0  0  0  0  0  0  0  0  0  0
   21.7368  -21.4110  -12.7587 C   0  0  1  0  0  0  0  0  0  0  0  0
   21.2443  -22.8176  -12.7472 C   0  0  0  0  0  0  0  0  0  0  0  0
   19.9651  -23.0692  -13.4047 C   0  0  0  0  0  0  0  0  0  0  0  0
   19.4975  -22.5088  -14.4119 O   0  0  0  0  0  0  0  0  0  0  0  0
   20.7760  -20.4546  -12.1819 C   0  0  0  0  0  0  0  0  0  0  0  0
   19.6943  -20.2370  -12.7711 O   0  0  0  0  0  0  0  0  0  0  0  0
   19.1642  -24.0717  -12.8229 O   0  0  0  0  0  0  0  0  0  0  0  0
   21.0130  -19.7776  -11.0073 O   0  0  0  0  0  0  0  0  0  0  0  0
  2  1  1  0
  3  4  1  0
  3  2  1  0
  5  4  1  0
  5  6  1  6
  7  8  2  0
  7  5  1  0
  9  7  1  0
 10  9  1  0
 11 12  1  0
 10 11  1  1
 12 13  2  0
 13 14  1  0
 15 14  2  0
 16 15  1  0
 17 12  1  0
 17 16  2  0
 18 20  1  0
 18 10  1  0
 19 18  2  0
 21 20  1  0
 21 25  1  0
 21 22  1  1
 23 22  1  0
 24 23  2  0
 25 28  1  0
 26 25  2  0
 27 23  1  0
M  END
$$$$
