MFD.pdb
     RDKit          3D

 28 28  0  0  1  0  0  0  0  0999 V2000
   29.1025  -20.2551  -20.2193 C   0  0  0  0  0  0  0  0  0  0  0  0
   27.3342  -20.1218  -20.1216 S   0  0  0  0  0  0  0  0  0  0  0  0
   26.6128  -20.8196  -18.6697 C   0  0  0  0  0  0  0  0  0  0  0  0
   27.2086  -20.3168  -17.4014 C   0  0  0  0  0  0  0  0  0  0  0  0
   27.6310  -21.4207  -16.4927 C   0  0  2  0  0  0  0  0  0  0  0  0
   27.7594  -22.6468  -17.2578 N   0  0  0  0  0  0  0  0  0  0  0  0
   26.6439  -21.6128  -15.3735 C   0  0  0  0  0  0  0  0  0  0  0  0
   25.6631  -22.3951  -15.4650 O   0  0  0  0  0  0  0  0  0  0  0  0
   26.7755  -20.9099  -14.1452 N   0  0  0  0  0  0  0  0  0  0  0  0
   25.7782  -20.9719  -13.0873 C   0  0  1  0  0  0  0  0  0  0  0  0
   26.2119  -20.2866  -11.8456 C   0  0  0  0  0  0  0  0  0  0  0  0
   25.2466  -20.4831  -10.7406 C   0  0  0  0  0  0  0  0  0  0  0  0
   24.0175  -19.8957  -10.6862 C   0  0  0  0  0  0  0  0  0  0  0  0
   23.1980  -20.1568   -9.6114 C   0  0  0  0  0  0  0  0  0  0  0  0
   23.6169  -21.0096   -8.5917 C   0  0  0  0  0  0  0  0  0  0  0  0
   24.8602  -21.6034   -8.6472 C   0  0  0  0  0  0  0  0  0  0  0  0
   25.6607  -21.3357   -9.7171 C   0  0  0  0  0  0  0  0  0  0  0  0
   24.4588  -20.4943  -13.5651 C   0  0  0  0  0  0  0  0  0  0  0  0
   24.2811  -19.4116  -14.1686 O   0  0  0  0  0  0  0  0  0  0  0  0
   23.2630  -21.2701  -13.3585 N   0  0  0  0  0  0  0  0  0  0  0  0
   21.9462  -20.7889  -13.8180 C   0  0  1  0  0  0  0  0  0  0  0  0
   21.8804  -21.0590  -15.2823 C   0  0  0  0  0  0  0  0  0  0  0  0
   20.8862  -22.0325  -15.7248 C   0  0  0  0  0  0  0  0  0  0  0  0
   19.7463  -22.2267  -15.2664 O   0  0  0  0  0  0  0  0  0  0  0  0
   20.9203  -21.5129  -13.0474 C   0  0  0  0  0  0  0  0  0  0  0  0
   21.1912  -22.6332  -12.5615 O   0  0  0  0  0  0  0  0  0  0  0  0
   21.2697  -22.8515  -16.8052 O   0  0  0  0  0  0  0  0  0  0  0  0
   19.6576  -21.0094  -12.8315 O   0  0  0  0  0  0  0  0  0  0  0  0
  2  1  1  0
  3  4  1  0
  3  2  1  0
  5  4  1  0
  5  6  1  6
  7  8  2  0
  7  5  1  0
  9  7  1  0
 10  9  1  0
 11 12  1  0
 10 11  1  1
 12 13  2  0
 13 14  1  0
 15 14  2  0
 16 15  1  0
 17 12  1  0
 17 16  2  0
 18 20  1  0
 18 10  1  0
 19 18  2  0
 21 20  1  0
 21 25  1  0
 21 22  1  6
 23 22  1  0
 24 23  2  0
 25 28  1  0
 26 25  2  0
 27 23  1  0
M  END
$$$$
