MFD.pdb
     RDKit          3D

 28 28  0  0  1  0  0  0  0  0999 V2000
   21.8330  -14.6780  -16.8085 C   0  0  0  0  0  0  0  0  0  0  0  0
   22.3279  -13.8861  -18.3192 S   0  0  0  0  0  0  0  0  0  0  0  0
   22.8433  -12.2068  -18.1468 C   0  0  0  0  0  0  0  0  0  0  0  0
   21.9433  -11.3868  -17.2901 C   0  0  0  0  0  0  0  0  0  0  0  0
   22.4542  -10.0008  -17.0888 C   0  0  2  0  0  0  0  0  0  0  0  0
   23.7048  -10.0543  -16.3551 N   0  0  0  0  0  0  0  0  0  0  0  0
   21.4564   -9.1550  -16.3453 C   0  0  0  0  0  0  0  0  0  0  0  0
   21.3507   -9.1802  -15.0921 O   0  0  0  0  0  0  0  0  0  0  0  0
   20.5755   -8.2771  -17.0334 N   0  0  0  0  0  0  0  0  0  0  0  0
   19.5549   -7.4903  -16.3575 C   0  0  1  0  0  0  0  0  0  0  0  0
   19.7275   -6.0307  -16.5553 C   0  0  0  0  0  0  0  0  0  0  0  0
   20.8343   -5.4894  -15.7344 C   0  0  0  0  0  0  0  0  0  0  0  0
   20.7955   -5.3803  -14.3760 C   0  0  0  0  0  0  0  0  0  0  0  0
   21.8884   -4.8677  -13.7144 C   0  0  0  0  0  0  0  0  0  0  0  0
   23.0200   -4.4651  -14.4213 C   0  0  0  0  0  0  0  0  0  0  0  0
   23.0587   -4.5755  -15.7953 C   0  0  0  0  0  0  0  0  0  0  0  0
   21.9694   -5.0848  -16.4369 C   0  0  0  0  0  0  0  0  0  0  0  0
   18.1939   -7.9526  -16.7193 C   0  0  0  0  0  0  0  0  0  0  0  0
   17.7544   -7.9908  -17.8913 O   0  0  0  0  0  0  0  0  0  0  0  0
   17.2643   -8.4006  -15.7144 N   0  0  0  0  0  0  0  0  0  0  0  0
   15.9105   -8.8646  -16.0725 C   0  0  1  0  0  0  0  0  0  0  0  0
   15.4794   -9.7971  -14.9927 C   0  0  0  0  0  0  0  0  0  0  0  0
   14.7540  -10.9932  -15.4112 C   0  0  0  0  0  0  0  0  0  0  0  0
   14.4191  -11.3232  -16.5627 O   0  0  0  0  0  0  0  0  0  0  0  0
   15.0529   -7.6720  -16.1864 C   0  0  0  0  0  0  0  0  0  0  0  0
   14.3030   -7.5449  -17.1795 O   0  0  0  0  0  0  0  0  0  0  0  0
   14.3901  -11.8810  -14.3794 O   0  0  0  0  0  0  0  0  0  0  0  0
   15.0351   -6.6742  -15.2386 O   0  0  0  0  0  0  0  0  0  0  0  0
  2  1  1  0
  3  4  1  0
  3  2  1  0
  5  4  1  0
  5  6  1  1
  7  8  2  0
  7  5  1  0
  9  7  1  0
 10  9  1  0
 11 12  1  0
 10 11  1  6
 12 13  2  0
 13 14  1  0
 15 14  2  0
 16 15  1  0
 17 12  1  0
 17 16  2  0
 18 20  1  0
 18 10  1  0
 19 18  2  0
 21 20  1  0
 21 25  1  0
 21 22  1  1
 23 22  1  0
 24 23  2  0
 25 28  1  0
 26 25  2  0
 27 23  1  0
M  END
$$$$
