MFD.pdb
     RDKit          3D

 28 28  0  0  1  0  0  0  0  0999 V2000
   33.1221  -18.1732  -18.8147 C   0  0  0  0  0  0  0  0  0  0  0  0
   33.4084  -17.6316  -20.4817 S   0  0  0  0  0  0  0  0  0  0  0  0
   31.9909  -16.9816  -21.3085 C   0  0  0  0  0  0  0  0  0  0  0  0
   31.8388  -15.5069  -21.1714 C   0  0  0  0  0  0  0  0  0  0  0  0
   30.9621  -15.1280  -20.0265 C   0  0  2  0  0  0  0  0  0  0  0  0
   29.5923  -15.4971  -20.3309 N   0  0  0  0  0  0  0  0  0  0  0  0
   31.0470  -13.6534  -19.7402 C   0  0  0  0  0  0  0  0  0  0  0  0
   30.3791  -12.8016  -20.3811 O   0  0  0  0  0  0  0  0  0  0  0  0
   31.8969  -13.1479  -18.7193 N   0  0  0  0  0  0  0  0  0  0  0  0
   32.0622  -11.7257  -18.4595 C   0  0  1  0  0  0  0  0  0  0  0  0
   31.8931  -11.3780  -17.0277 C   0  0  0  0  0  0  0  0  0  0  0  0
   32.1041   -9.9335  -16.7817 C   0  0  0  0  0  0  0  0  0  0  0  0
   31.2354   -8.9573  -17.1706 C   0  0  0  0  0  0  0  0  0  0  0  0
   31.5312   -7.6444  -16.8814 C   0  0  0  0  0  0  0  0  0  0  0  0
   32.7019   -7.3151  -16.2006 C   0  0  0  0  0  0  0  0  0  0  0  0
   33.5802   -8.3028  -15.8077 C   0  0  0  0  0  0  0  0  0  0  0  0
   33.2745   -9.5982  -16.1008 C   0  0  0  0  0  0  0  0  0  0  0  0
   33.3412  -11.2237  -19.0157 C   0  0  0  0  0  0  0  0  0  0  0  0
   34.4475  -11.7861  -18.8490 O   0  0  0  0  0  0  0  0  0  0  0  0
   33.3919  -10.0212  -19.8069 N   0  0  0  0  0  0  0  0  0  0  0  0
   34.6672   -9.5056  -20.3399 C   0  0  1  0  0  0  0  0  0  0  0  0
   34.6738   -9.8093  -21.7991 C   0  0  0  0  0  0  0  0  0  0  0  0
   35.8636   -9.4105  -22.5458 C   0  0  0  0  0  0  0  0  0  0  0  0
   36.0772   -9.5248  -23.7658 O   0  0  0  0  0  0  0  0  0  0  0  0
   34.7146   -8.0625  -20.0470 C   0  0  0  0  0  0  0  0  0  0  0  0
   33.7698   -7.3285  -20.4119 O   0  0  0  0  0  0  0  0  0  0  0  0
   36.8951   -8.8238  -21.7863 O   0  0  0  0  0  0  0  0  0  0  0  0
   35.7640   -7.4719  -19.3804 O   0  0  0  0  0  0  0  0  0  0  0  0
  2  1  1  0
  3  4  1  0
  3  2  1  0
  5  4  1  0
  5  6  1  6
  7  8  2  0
  7  5  1  0
  9  7  1  0
 10  9  1  0
 11 12  1  0
 10 11  1  1
 12 13  2  0
 13 14  1  0
 15 14  2  0
 16 15  1  0
 17 12  1  0
 17 16  2  0
 18 20  1  0
 18 10  1  0
 19 18  2  0
 21 20  1  0
 21 25  1  0
 21 22  1  6
 23 22  1  0
 24 23  2  0
 25 28  1  0
 26 25  2  0
 27 23  1  0
M  END
$$$$
