MFD.pdb
     RDKit          3D

 28 28  0  0  1  0  0  0  0  0999 V2000
   27.4677  -16.0721  -14.2216 C   0  0  0  0  0  0  0  0  0  0  0  0
   28.8053  -16.8558  -15.0880 S   0  0  0  0  0  0  0  0  0  0  0  0
   28.3214  -18.1222  -16.2183 C   0  0  0  0  0  0  0  0  0  0  0  0
   27.2769  -19.0383  -15.6832 C   0  0  0  0  0  0  0  0  0  0  0  0
   27.8438  -20.0924  -14.7942 C   0  0  2  0  0  0  0  0  0  0  0  0
   28.7473  -20.9293  -15.5613 N   0  0  0  0  0  0  0  0  0  0  0  0
   26.7557  -20.9333  -14.1838 C   0  0  0  0  0  0  0  0  0  0  0  0
   26.1141  -21.7905  -14.8440 O   0  0  0  0  0  0  0  0  0  0  0  0
   26.3974  -20.7961  -12.8153 N   0  0  0  0  0  0  0  0  0  0  0  0
   25.3021  -21.5354  -12.2061 C   0  0  1  0  0  0  0  0  0  0  0  0
   25.6868  -22.1901  -10.9322 C   0  0  0  0  0  0  0  0  0  0  0  0
   26.4279  -21.2698  -10.0403 C   0  0  0  0  0  0  0  0  0  0  0  0
   27.7868  -21.1647  -10.0096 C   0  0  0  0  0  0  0  0  0  0  0  0
   28.3692  -20.2676   -9.1430 C   0  0  0  0  0  0  0  0  0  0  0  0
   27.5825  -19.4767   -8.3076 C   0  0  0  0  0  0  0  0  0  0  0  0
   26.2081  -19.5835   -8.3389 C   0  0  0  0  0  0  0  0  0  0  0  0
   25.6454  -20.4758   -9.2018 C   0  0  0  0  0  0  0  0  0  0  0  0
   24.0955  -20.6862  -12.0632 C   0  0  0  0  0  0  0  0  0  0  0  0
   24.1258  -19.4421  -11.9244 O   0  0  0  0  0  0  0  0  0  0  0  0
   22.7733  -21.2572  -12.0759 N   0  0  0  0  0  0  0  0  0  0  0  0
   21.5982  -20.4646  -12.4851 C   0  0  1  0  0  0  0  0  0  0  0  0
   21.8639  -19.9934  -13.8739 C   0  0  0  0  0  0  0  0  0  0  0  0
   20.7873  -19.2607  -14.5342 C   0  0  0  0  0  0  0  0  0  0  0  0
   19.5605  -19.4013  -14.3854 O   0  0  0  0  0  0  0  0  0  0  0  0
   20.4194  -21.3427  -12.3854 C   0  0  0  0  0  0  0  0  0  0  0  0
   19.3240  -20.8641  -12.0171 O   0  0  0  0  0  0  0  0  0  0  0  0
   21.1929  -18.2728  -15.4533 O   0  0  0  0  0  0  0  0  0  0  0  0
   20.4640  -22.6859  -12.6827 O   0  0  0  0  0  0  0  0  0  0  0  0
  2  1  1  0
  3  4  1  0
  3  2  1  0
  5  4  1  0
  5  6  1  6
  7  8  2  0
  7  5  1  0
  9  7  1  0
 10  9  1  0
 11 12  1  0
 10 11  1  1
 12 13  2  0
 13 14  1  0
 15 14  2  0
 16 15  1  0
 17 12  1  0
 17 16  2  0
 18 20  1  0
 18 10  1  0
 19 18  2  0
 21 20  1  0
 21 25  1  0
 21 22  1  6
 23 22  1  0
 24 23  2  0
 25 28  1  0
 26 25  2  0
 27 23  1  0
M  END
$$$$
