MFD.pdb
     RDKit          3D

 28 28  0  0  1  0  0  0  0  0999 V2000
   21.3714   -5.4353  -22.9890 C   0  0  0  0  0  0  0  0  0  0  0  0
   19.8662   -6.3758  -22.9257 S   0  0  0  0  0  0  0  0  0  0  0  0
   19.9064   -7.7762  -21.8520 C   0  0  0  0  0  0  0  0  0  0  0  0
   21.2802   -8.1880  -21.4525 C   0  0  0  0  0  0  0  0  0  0  0  0
   21.2801   -9.3745  -20.5497 C   0  0  2  0  0  0  0  0  0  0  0  0
   20.3019  -10.3355  -21.0237 N   0  0  0  0  0  0  0  0  0  0  0  0
   20.9693   -8.9798  -19.1315 C   0  0  0  0  0  0  0  0  0  0  0  0
   19.8231   -9.1103  -18.6300 O   0  0  0  0  0  0  0  0  0  0  0  0
   21.9693   -8.4339  -18.2817 N   0  0  0  0  0  0  0  0  0  0  0  0
   21.6966   -7.9882  -16.9236 C   0  0  1  0  0  0  0  0  0  0  0  0
   22.8391   -8.2091  -16.0042 C   0  0  0  0  0  0  0  0  0  0  0  0
   22.5037   -7.8442  -14.6092 C   0  0  0  0  0  0  0  0  0  0  0  0
   22.5663   -6.5749  -14.1154 C   0  0  0  0  0  0  0  0  0  0  0  0
   22.2234   -6.3506  -12.8012 C   0  0  0  0  0  0  0  0  0  0  0  0
   21.8178   -7.4049  -11.9848 C   0  0  0  0  0  0  0  0  0  0  0  0
   21.7549   -8.6884  -12.4848 C   0  0  0  0  0  0  0  0  0  0  0  0
   22.0972   -8.8956  -13.7876 C   0  0  0  0  0  0  0  0  0  0  0  0
   21.2194   -6.5850  -16.9050 C   0  0  0  0  0  0  0  0  0  0  0  0
   21.7322   -5.6607  -17.5765 O   0  0  0  0  0  0  0  0  0  0  0  0
   20.1019   -6.1858  -16.0888 N   0  0  0  0  0  0  0  0  0  0  0  0
   19.5220   -4.8329  -16.1888 C   0  0  1  0  0  0  0  0  0  0  0  0
   18.7757   -4.7828  -17.4780 C   0  0  0  0  0  0  0  0  0  0  0  0
   18.0508   -3.5488  -17.7677 C   0  0  0  0  0  0  0  0  0  0  0  0
   18.4790   -2.5196  -18.3196 O   0  0  0  0  0  0  0  0  0  0  0  0
   18.6596   -4.6361  -15.0107 C   0  0  0  0  0  0  0  0  0  0  0  0
   18.2667   -5.6307  -14.3618 O   0  0  0  0  0  0  0  0  0  0  0  0
   16.6990   -3.5253  -17.3714 O   0  0  0  0  0  0  0  0  0  0  0  0
   18.2582   -3.3917  -14.5809 O   0  0  0  0  0  0  0  0  0  0  0  0
  2  1  1  0
  3  4  1  0
  3  2  1  0
  5  4  1  0
  5  6  1  6
  7  8  2  0
  7  5  1  0
  9  7  1  0
 10  9  1  0
 11 12  1  0
 10 11  1  1
 12 13  2  0
 13 14  1  0
 15 14  2  0
 16 15  1  0
 17 12  1  0
 17 16  2  0
 18 20  1  0
 18 10  1  0
 19 18  2  0
 21 20  1  0
 21 25  1  0
 21 22  1  6
 23 22  1  0
 24 23  2  0
 25 28  1  0
 26 25  2  0
 27 23  1  0
M  END
$$$$
