MFD.pdb
     RDKit          3D

 28 28  0  0  1  0  0  0  0  0999 V2000
   18.8016  -15.9533  -12.7111 C   0  0  0  0  0  0  0  0  0  0  0  0
   19.7134  -16.8147  -13.9684 S   0  0  0  0  0  0  0  0  0  0  0  0
   19.3501  -16.3210  -15.6236 C   0  0  0  0  0  0  0  0  0  0  0  0
   19.3660  -14.8464  -15.8282 C   0  0  0  0  0  0  0  0  0  0  0  0
   18.9843  -14.4590  -17.2163 C   0  0  2  0  0  0  0  0  0  0  0  0
   19.9400  -15.0244  -18.1502 N   0  0  0  0  0  0  0  0  0  0  0  0
   18.9361  -12.9632  -17.3706 C   0  0  0  0  0  0  0  0  0  0  0  0
   19.9375  -12.2880  -17.7224 O   0  0  0  0  0  0  0  0  0  0  0  0
   17.7415  -12.2341  -17.1226 N   0  0  0  0  0  0  0  0  0  0  0  0
   17.6483  -10.7905  -17.2805 C   0  0  1  0  0  0  0  0  0  0  0  0
   16.2711  -10.3319  -17.5849 C   0  0  0  0  0  0  0  0  0  0  0  0
   16.2192   -8.8755  -17.8453 C   0  0  0  0  0  0  0  0  0  0  0  0
   16.7292   -8.2802  -18.9608 C   0  0  0  0  0  0  0  0  0  0  0  0
   16.6175   -6.9153  -19.1013 C   0  0  0  0  0  0  0  0  0  0  0  0
   15.9922   -6.1506  -18.1181 C   0  0  0  0  0  0  0  0  0  0  0  0
   15.4768   -6.7532  -16.9900 C   0  0  0  0  0  0  0  0  0  0  0  0
   15.5946   -8.1052  -16.8644 C   0  0  0  0  0  0  0  0  0  0  0  0
   18.2349  -10.0844  -16.1167 C   0  0  0  0  0  0  0  0  0  0  0  0
   18.0896  -10.4503  -14.9280 O   0  0  0  0  0  0  0  0  0  0  0  0
   19.0330   -8.8976  -16.2866 N   0  0  0  0  0  0  0  0  0  0  0  0
   19.6492   -8.2146  -15.1331 C   0  0  1  0  0  0  0  0  0  0  0  0
   20.9675   -8.8708  -14.9030 C   0  0  0  0  0  0  0  0  0  0  0  0
   21.7889   -8.3301  -13.8237 C   0  0  0  0  0  0  0  0  0  0  0  0
   21.5444   -7.3577  -13.0876 O   0  0  0  0  0  0  0  0  0  0  0  0
   19.7636   -6.7867  -15.4774 C   0  0  0  0  0  0  0  0  0  0  0  0
   19.0939   -5.9439  -14.8405 O   0  0  0  0  0  0  0  0  0  0  0  0
   23.0088   -8.9953  -13.5904 O   0  0  0  0  0  0  0  0  0  0  0  0
   20.5846   -6.3262  -16.4816 O   0  0  0  0  0  0  0  0  0  0  0  0
  2  1  1  0
  3  4  1  0
  3  2  1  0
  5  4  1  0
  5  6  1  6
  7  8  2  0
  7  5  1  0
  9  7  1  0
 10  9  1  0
 11 12  1  0
 10 11  1  1
 12 13  2  0
 13 14  1  0
 15 14  2  0
 16 15  1  0
 17 12  1  0
 17 16  2  0
 18 20  1  0
 18 10  1  0
 19 18  2  0
 21 20  1  0
 21 25  1  0
 21 22  1  6
 23 22  1  0
 24 23  2  0
 25 28  1  0
 26 25  2  0
 27 23  1  0
M  END
$$$$
