MFD.pdb
     RDKit          3D

 28 28  0  0  1  0  0  0  0  0999 V2000
   30.2556   12.2200    0.0499 C   0  0  0  0  0  0  0  0  0  0  0  0
   30.9192   10.8861   -0.9169 S   0  0  0  0  0  0  0  0  0  0  0  0
   31.5999    9.5534    0.0191 C   0  0  0  0  0  0  0  0  0  0  0  0
   32.1604    8.4565   -0.8171 C   0  0  0  0  0  0  0  0  0  0  0  0
   32.7274    7.3475    0.0023 C   0  0  2  0  0  0  0  0  0  0  0  0
   34.0975    7.6673    0.3567 N   0  0  0  0  0  0  0  0  0  0  0  0
   32.6793    6.0408   -0.7419 C   0  0  0  0  0  0  0  0  0  0  0  0
   33.5945    5.6747   -1.5235 O   0  0  0  0  0  0  0  0  0  0  0  0
   31.5833    5.1479   -0.5947 N   0  0  0  0  0  0  0  0  0  0  0  0
   31.4873    3.8873   -1.3152 C   0  0  1  0  0  0  0  0  0  0  0  0
   31.2357    2.7306   -0.4217 C   0  0  0  0  0  0  0  0  0  0  0  0
   31.2696    1.4467   -1.1580 C   0  0  0  0  0  0  0  0  0  0  0  0
   32.4060    0.7320   -1.3958 C   0  0  0  0  0  0  0  0  0  0  0  0
   32.3175   -0.4554   -2.0865 C   0  0  0  0  0  0  0  0  0  0  0  0
   31.0843   -0.9226   -2.5376 C   0  0  0  0  0  0  0  0  0  0  0  0
   29.9353   -0.1992   -2.2970 C   0  0  0  0  0  0  0  0  0  0  0  0
   30.0380    0.9745   -1.6120 C   0  0  0  0  0  0  0  0  0  0  0  0
   30.5016    3.9738   -2.4189 C   0  0  0  0  0  0  0  0  0  0  0  0
   29.3058    4.3129   -2.2666 O   0  0  0  0  0  0  0  0  0  0  0  0
   30.8698    3.6639   -3.7764 N   0  0  0  0  0  0  0  0  0  0  0  0
   29.8871    3.7363   -4.8745 C   0  0  1  0  0  0  0  0  0  0  0  0
   30.4208    4.7181   -5.8607 C   0  0  0  0  0  0  0  0  0  0  0  0
   29.6577    4.8884   -7.0939 C   0  0  0  0  0  0  0  0  0  0  0  0
   28.6893    4.2187   -7.4950 O   0  0  0  0  0  0  0  0  0  0  0  0
   29.7442    2.3778   -5.4266 C   0  0  0  0  0  0  0  0  0  0  0  0
   28.6449    1.7881   -5.3351 O   0  0  0  0  0  0  0  0  0  0  0  0
   30.0732    5.9433   -7.9304 O   0  0  0  0  0  0  0  0  0  0  0  0
   30.7772    1.7143   -6.0489 O   0  0  0  0  0  0  0  0  0  0  0  0
  2  1  1  0
  3  4  1  0
  3  2  1  0
  5  4  1  0
  5  6  1  6
  7  8  2  0
  7  5  1  0
  9  7  1  0
 10  9  1  0
 11 12  1  0
 10 11  1  1
 12 13  2  0
 13 14  1  0
 15 14  2  0
 16 15  1  0
 17 12  1  0
 17 16  2  0
 18 20  1  0
 18 10  1  0
 19 18  2  0
 21 20  1  0
 21 25  1  0
 21 22  1  6
 23 22  1  0
 24 23  2  0
 25 28  1  0
 26 25  2  0
 27 23  1  0
M  END
$$$$
