MFD.pdb
     RDKit          3D

 28 28  0  0  1  0  0  0  0  0999 V2000
   20.5363  -11.0223  -22.6568 C   0  0  0  0  0  0  0  0  0  0  0  0
   21.9432  -12.0562  -22.9820 S   0  0  0  0  0  0  0  0  0  0  0  0
   23.2792  -11.8778  -21.8424 C   0  0  0  0  0  0  0  0  0  0  0  0
   22.9293  -11.0978  -20.6235 C   0  0  0  0  0  0  0  0  0  0  0  0
   24.1142  -10.8266  -19.7602 C   0  0  2  0  0  0  0  0  0  0  0  0
   24.7933  -12.0765  -19.4744 N   0  0  0  0  0  0  0  0  0  0  0  0
   23.7102  -10.1544  -18.4762 C   0  0  0  0  0  0  0  0  0  0  0  0
   22.9368  -10.6957  -17.6449 O   0  0  0  0  0  0  0  0  0  0  0  0
   24.1898   -8.8597  -18.1387 N   0  0  0  0  0  0  0  0  0  0  0  0
   23.8410   -8.1853  -16.8973 C   0  0  1  0  0  0  0  0  0  0  0  0
   25.0295   -7.7653  -16.1160 C   0  0  0  0  0  0  0  0  0  0  0  0
   25.8847   -8.9169  -15.7499 C   0  0  0  0  0  0  0  0  0  0  0  0
   25.6070   -9.7823  -14.7336 C   0  0  0  0  0  0  0  0  0  0  0  0
   26.4718  -10.8246  -14.4872 C   0  0  0  0  0  0  0  0  0  0  0  0
   27.6160  -10.9949  -15.2645 C   0  0  0  0  0  0  0  0  0  0  0  0
   27.8964  -10.1193  -16.2921 C   0  0  0  0  0  0  0  0  0  0  0  0
   27.0314   -9.0920  -16.5246 C   0  0  0  0  0  0  0  0  0  0  0  0
   22.9002   -7.0660  -17.1407 C   0  0  0  0  0  0  0  0  0  0  0  0
   23.1209   -6.1245  -17.9363 O   0  0  0  0  0  0  0  0  0  0  0  0
   21.6351   -6.9900  -16.4563 N   0  0  0  0  0  0  0  0  0  0  0  0
   20.6787   -5.9002  -16.7286 C   0  0  1  0  0  0  0  0  0  0  0  0
   19.7698   -6.3889  -17.8040 C   0  0  0  0  0  0  0  0  0  0  0  0
   18.8715   -7.4856  -17.4543 C   0  0  0  0  0  0  0  0  0  0  0  0
   19.1593   -8.5723  -16.9219 O   0  0  0  0  0  0  0  0  0  0  0  0
   19.9785   -5.6044  -15.4665 C   0  0  0  0  0  0  0  0  0  0  0  0
   19.1971   -4.6294  -15.4094 O   0  0  0  0  0  0  0  0  0  0  0  0
   17.5109   -7.2837  -17.7594 O   0  0  0  0  0  0  0  0  0  0  0  0
   20.1438   -6.3602  -14.3282 O   0  0  0  0  0  0  0  0  0  0  0  0
  2  1  1  0
  3  4  1  0
  3  2  1  0
  5  4  1  0
  5  6  1  1
  7  8  2  0
  7  5  1  0
  9  7  1  0
 10  9  1  0
 11 12  1  0
 10 11  1  6
 12 13  2  0
 13 14  1  0
 15 14  2  0
 16 15  1  0
 17 12  1  0
 17 16  2  0
 18 20  1  0
 18 10  1  0
 19 18  2  0
 21 20  1  0
 21 25  1  0
 21 22  1  6
 23 22  1  0
 24 23  2  0
 25 28  1  0
 26 25  2  0
 27 23  1  0
M  END
$$$$
