MFD.pdb
     RDKit          3D

 28 28  0  0  1  0  0  0  0  0999 V2000
   30.6396  -29.4671  -23.1976 C   0  0  0  0  0  0  0  0  0  0  0  0
   29.9796  -30.5138  -21.9236 S   0  0  0  0  0  0  0  0  0  0  0  0
   30.6841  -32.1304  -21.8472 C   0  0  0  0  0  0  0  0  0  0  0  0
   30.1181  -32.9821  -20.7652 C   0  0  0  0  0  0  0  0  0  0  0  0
   30.7475  -32.7144  -19.4404 C   0  0  2  0  0  0  0  0  0  0  0  0
   32.0557  -33.3403  -19.3976 N   0  0  0  0  0  0  0  0  0  0  0  0
   29.8917  -33.2318  -18.3162 C   0  0  0  0  0  0  0  0  0  0  0  0
   29.8289  -34.4533  -18.0225 O   0  0  0  0  0  0  0  0  0  0  0  0
   29.1043  -32.3530  -17.5240 N   0  0  0  0  0  0  0  0  0  0  0  0
   28.1872  -32.8217  -16.4960 C   0  0  1  0  0  0  0  0  0  0  0  0
   27.8355  -31.7679  -15.5134 C   0  0  0  0  0  0  0  0  0  0  0  0
   26.9092  -32.2698  -14.4734 C   0  0  0  0  0  0  0  0  0  0  0  0
   25.5934  -31.9227  -14.3902 C   0  0  0  0  0  0  0  0  0  0  0  0
   24.8226  -32.4579  -13.3830 C   0  0  0  0  0  0  0  0  0  0  0  0
   25.3774  -33.3424  -12.4599 C   0  0  0  0  0  0  0  0  0  0  0  0
   26.7084  -33.6930  -12.5444 C   0  0  0  0  0  0  0  0  0  0  0  0
   27.4594  -33.1555  -13.5467 C   0  0  0  0  0  0  0  0  0  0  0  0
   26.9900  -33.4584  -17.0947 C   0  0  0  0  0  0  0  0  0  0  0  0
   26.4093  -33.0352  -18.1203 O   0  0  0  0  0  0  0  0  0  0  0  0
   26.4028  -34.6395  -16.5163 N   0  0  0  0  0  0  0  0  0  0  0  0
   25.2488  -35.3103  -17.1447 C   0  0  1  0  0  0  0  0  0  0  0  0
   25.6952  -35.7499  -18.4971 C   0  0  0  0  0  0  0  0  0  0  0  0
   24.7234  -36.4863  -19.3004 C   0  0  0  0  0  0  0  0  0  0  0  0
   24.7163  -36.6526  -20.5330 O   0  0  0  0  0  0  0  0  0  0  0  0
   24.8608  -36.4298  -16.2690 C   0  0  0  0  0  0  0  0  0  0  0  0
   25.5775  -37.4540  -16.2243 O   0  0  0  0  0  0  0  0  0  0  0  0
   23.6639  -37.0807  -18.5868 O   0  0  0  0  0  0  0  0  0  0  0  0
   23.7304  -36.4044  -15.4842 O   0  0  0  0  0  0  0  0  0  0  0  0
  2  1  1  0
  3  4  1  0
  3  2  1  0
  5  4  1  0
  5  6  1  6
  7  8  2  0
  7  5  1  0
  9  7  1  0
 10  9  1  0
 11 12  1  0
 10 11  1  6
 12 13  2  0
 13 14  1  0
 15 14  2  0
 16 15  1  0
 17 12  1  0
 17 16  2  0
 18 20  1  0
 18 10  1  0
 19 18  2  0
 21 20  1  0
 21 25  1  0
 21 22  1  6
 23 22  1  0
 24 23  2  0
 25 28  1  0
 26 25  2  0
 27 23  1  0
M  END
$$$$
