MFD.pdb
     RDKit          3D

 28 28  0  0  1  0  0  0  0  0999 V2000
   26.4266  -23.3507  -20.9637 C   0  0  0  0  0  0  0  0  0  0  0  0
   25.9923  -21.6326  -20.8470 S   0  0  0  0  0  0  0  0  0  0  0  0
   26.4820  -20.8397  -19.3481 C   0  0  0  0  0  0  0  0  0  0  0  0
   25.8366  -21.4041  -18.1309 C   0  0  0  0  0  0  0  0  0  0  0  0
   26.8282  -21.7913  -17.0870 C   0  0  2  0  0  0  0  0  0  0  0  0
   27.4852  -23.0222  -17.4850 N   0  0  0  0  0  0  0  0  0  0  0  0
   26.1670  -21.9700  -15.7474 C   0  0  0  0  0  0  0  0  0  0  0  0
   25.4012  -22.9357  -15.4958 O   0  0  0  0  0  0  0  0  0  0  0  0
   26.3797  -21.0439  -14.6904 N   0  0  0  0  0  0  0  0  0  0  0  0
   25.6256  -21.0762  -13.4463 C   0  0  1  0  0  0  0  0  0  0  0  0
   26.3150  -20.3749  -12.3361 C   0  0  0  0  0  0  0  0  0  0  0  0
   25.5670  -20.4867  -11.0635 C   0  0  0  0  0  0  0  0  0  0  0  0
   25.6708  -21.5419  -10.2064 C   0  0  0  0  0  0  0  0  0  0  0  0
   24.9315  -21.5360   -9.0452 C   0  0  0  0  0  0  0  0  0  0  0  0
   24.0878  -20.4673   -8.7478 C   0  0  0  0  0  0  0  0  0  0  0  0
   23.9830  -19.4004   -9.6152 C   0  0  0  0  0  0  0  0  0  0  0  0
   24.7209  -19.4198  -10.7609 C   0  0  0  0  0  0  0  0  0  0  0  0
   24.2392  -20.5915  -13.6465 C   0  0  0  0  0  0  0  0  0  0  0  0
   23.9480  -19.5109  -14.2082 O   0  0  0  0  0  0  0  0  0  0  0  0
   23.1065  -21.3573  -13.1936 N   0  0  0  0  0  0  0  0  0  0  0  0
   21.7285  -20.8515  -13.3418 C   0  0  1  0  0  0  0  0  0  0  0  0
   21.0204  -21.8010  -14.2465 C   0  0  0  0  0  0  0  0  0  0  0  0
   19.5964  -21.5612  -14.4627 C   0  0  0  0  0  0  0  0  0  0  0  0
   18.8870  -20.6642  -13.9736 O   0  0  0  0  0  0  0  0  0  0  0  0
   21.1378  -20.7840  -11.9938 C   0  0  0  0  0  0  0  0  0  0  0  0
   20.3338  -19.8661  -11.7188 O   0  0  0  0  0  0  0  0  0  0  0  0
   18.9495  -22.4598  -15.3341 O   0  0  0  0  0  0  0  0  0  0  0  0
   21.4311  -21.6960  -11.0056 O   0  0  0  0  0  0  0  0  0  0  0  0
  2  1  1  0
  3  4  1  0
  3  2  1  0
  5  4  1  0
  5  6  1  6
  7  8  2  0
  7  5  1  0
  9  7  1  0
 10  9  1  0
 11 12  1  0
 10 11  1  1
 12 13  2  0
 13 14  1  0
 15 14  2  0
 16 15  1  0
 17 12  1  0
 17 16  2  0
 18 20  1  0
 18 10  1  0
 19 18  2  0
 21 20  1  0
 21 25  1  0
 21 22  1  6
 23 22  1  0
 24 23  2  0
 25 28  1  0
 26 25  2  0
 27 23  1  0
M  END
$$$$
