IDM.pdb
     RDKit          3D

 25 24  0  0  1  0  0  0  0  0999 V2000
    7.2825  -11.7327   18.7975 C   0  0  0  0  0  0  0  0  0  0  0  0
    7.4668  -13.2249   18.6494 C   0  0  0  0  0  0  0  0  0  0  0  0
    7.9405  -13.9029   19.8978 C   0  0  2  0  0  0  0  0  0  0  0  0
    9.2761  -13.3417   20.3420 C   0  0  0  0  0  0  0  0  0  0  0  0
    8.0296  -15.3863   19.8133 C   0  0  2  0  0  0  0  0  0  0  0  0
    6.8264  -15.9743   19.2648 N   0  0  0  0  0  0  0  0  0  0  0  0
    8.4816  -16.0500   21.0417 C   0  0  0  0  0  0  0  0  0  0  0  0
    7.6481  -16.3042   21.9480 O   0  0  0  0  0  0  0  0  0  0  0  0
    9.8465  -16.4325   21.2779 N   0  0  0  0  0  0  0  0  0  0  0  0
   10.2241  -17.1557   22.4739 C   0  0  1  0  0  0  0  0  0  0  0  0
   11.6590  -17.6025   22.3302 C   0  0  0  0  0  0  0  0  0  0  0  0
   12.1845  -18.3204   23.4923 C   0  0  0  0  0  0  0  0  0  0  0  0
   11.4401  -19.0935   24.1452 O   0  0  0  0  0  0  0  0  0  0  0  0
   10.1675  -16.2023   23.6320 C   0  0  0  0  0  0  0  0  0  0  0  0
   10.7964  -15.1179   23.6441 O   0  0  0  0  0  0  0  0  0  0  0  0
   13.5109  -18.1698   23.9044 O   0  0  0  0  0  0  0  0  0  0  0  0
    6.2067  -11.8760   25.9987 C   0  0  0  0  0  0  0  0  0  0  0  0
    7.5117  -12.5549   27.0088 S   0  0  0  0  0  0  0  0  0  0  0  0
    7.5342  -14.3218   27.1937 C   0  0  0  0  0  0  0  0  0  0  0  0
    7.8353  -15.1199   25.9660 C   0  0  0  0  0  0  0  0  0  0  0  0
    9.2215  -15.6553   25.9223 C   0  0  2  0  0  0  0  0  0  0  0  0
    9.3822  -16.5400   24.7385 N   0  0  0  0  0  0  0  0  0  0  0  0
    9.4374  -16.5516   27.0710 C   0  0  0  0  0  0  0  0  0  0  0  0
    9.2864  -17.9137   26.9465 O   0  0  0  0  0  0  0  0  0  0  0  0
    9.7604  -16.1083   28.1804 O   0  0  0  0  0  0  0  0  0  0  0  0
  1  2  1  0
  3  4  1  6
  3  2  1  0
  5  7  1  0
  5  3  1  0
  5  6  1  1
  7  8  2  0
  9 10  1  0
  9  7  1  0
 10 11  1  6
 12 16  1  0
 12 11  1  0
 13 12  2  0
 14 22  1  0
 14 10  1  0
 15 14  2  0
 18 17  1  0
 19 18  1  0
 21 20  1  1
 20 19  1  0
 21 22  1  0
 23 21  1  0
 23 24  1  0
 25 23  2  0
M  END
$$$$
