IDM.pdb
     RDKit          3D

 25 24  0  0  1  0  0  0  0  0999 V2000
    7.1002  -11.7724   19.8446 C   0  0  0  0  0  0  0  0  0  0  0  0
    7.4673  -13.1998   19.5128 C   0  0  0  0  0  0  0  0  0  0  0  0
    7.8604  -14.0163   20.7051 C   0  0  2  0  0  0  0  0  0  0  0  0
    8.9984  -13.3572   21.4577 C   0  0  0  0  0  0  0  0  0  0  0  0
    8.2153  -15.4312   20.4096 C   0  0  2  0  0  0  0  0  0  0  0  0
    7.1698  -16.1142   19.6785 N   0  0  0  0  0  0  0  0  0  0  0  0
    8.7039  -16.1999   21.5603 C   0  0  0  0  0  0  0  0  0  0  0  0
    7.8780  -16.7780   22.3116 O   0  0  0  0  0  0  0  0  0  0  0  0
   10.0965  -16.3326   21.8892 N   0  0  0  0  0  0  0  0  0  0  0  0
   10.5216  -17.0782   23.0551 C   0  0  1  0  0  0  0  0  0  0  0  0
   11.9174  -17.5980   22.8081 C   0  0  0  0  0  0  0  0  0  0  0  0
   12.3866  -18.5593   23.8072 C   0  0  0  0  0  0  0  0  0  0  0  0
   13.6073  -18.8465   23.8809 O   0  0  0  0  0  0  0  0  0  0  0  0
   10.5984  -16.1269   24.2138 C   0  0  0  0  0  0  0  0  0  0  0  0
   11.3634  -15.1338   24.2214 O   0  0  0  0  0  0  0  0  0  0  0  0
   11.5037  -19.1772   24.6962 O   0  0  0  0  0  0  0  0  0  0  0  0
    6.2735  -11.8279   24.7862 C   0  0  0  0  0  0  0  0  0  0  0  0
    6.6970  -13.0425   26.0230 S   0  0  0  0  0  0  0  0  0  0  0  0
    8.2467  -13.8849   25.8099 C   0  0  0  0  0  0  0  0  0  0  0  0
    8.6196  -14.8780   26.8632 C   0  0  0  0  0  0  0  0  0  0  0  0
    9.8961  -15.5903   26.5925 C   0  0  2  0  0  0  0  0  0  0  0  0
    9.7839  -16.3605   25.3260 N   0  0  0  0  0  0  0  0  0  0  0  0
   10.1093  -16.6224   27.6215 C   0  0  0  0  0  0  0  0  0  0  0  0
   10.4697  -16.2812   28.9050 O   0  0  0  0  0  0  0  0  0  0  0  0
    9.9713  -17.8250   27.3640 O   0  0  0  0  0  0  0  0  0  0  0  0
  1  2  1  0
  3  4  1  6
  3  2  1  0
  5  7  1  0
  5  3  1  0
  5  6  1  1
  7  8  2  0
  9 10  1  0
  9  7  1  0
 10 11  1  6
 12 16  1  0
 12 11  1  0
 13 12  2  0
 14 22  1  0
 14 10  1  0
 15 14  2  0
 18 17  1  0
 19 18  1  0
 21 20  1  1
 20 19  1  0
 21 22  1  0
 23 21  1  0
 23 24  1  0
 25 23  2  0
M  END
$$$$
