IDM.pdb
     RDKit          3D

 25 24  0  0  1  0  0  0  0  0999 V2000
    6.4877  -12.8111   18.7881 C   0  0  0  0  0  0  0  0  0  0  0  0
    7.6338  -13.7469   19.0938 C   0  0  0  0  0  0  0  0  0  0  0  0
    8.7197  -13.1251   19.9165 C   0  0  2  0  0  0  0  0  0  0  0  0
    9.4038  -12.0103   19.1513 C   0  0  0  0  0  0  0  0  0  0  0  0
    9.7439  -14.0759   20.4286 C   0  0  2  0  0  0  0  0  0  0  0  0
   10.4171  -14.7803   19.3587 N   0  0  0  0  0  0  0  0  0  0  0  0
    9.2802  -14.9683   21.4974 C   0  0  0  0  0  0  0  0  0  0  0  0
    8.5697  -14.5032   22.4246 O   0  0  0  0  0  0  0  0  0  0  0  0
    9.5971  -16.3689   21.5517 N   0  0  0  0  0  0  0  0  0  0  0  0
    9.2940  -17.1591   22.7263 C   0  0  1  0  0  0  0  0  0  0  0  0
    9.9006  -18.5304   22.5503 C   0  0  0  0  0  0  0  0  0  0  0  0
    9.6418  -19.4493   23.6598 C   0  0  0  0  0  0  0  0  0  0  0  0
   10.5927  -19.8696   24.3650 O   0  0  0  0  0  0  0  0  0  0  0  0
    9.9699  -16.5202   23.9045 C   0  0  0  0  0  0  0  0  0  0  0  0
   11.1634  -16.1379   23.8717 O   0  0  0  0  0  0  0  0  0  0  0  0
    8.3481  -19.8802   23.9636 O   0  0  0  0  0  0  0  0  0  0  0  0
    5.8194  -12.9352   26.8169 C   0  0  0  0  0  0  0  0  0  0  0  0
    7.5040  -12.3706   26.9827 S   0  0  0  0  0  0  0  0  0  0  0  0
    8.7691  -13.4585   26.3724 C   0  0  0  0  0  0  0  0  0  0  0  0
    8.7956  -14.8407   26.9413 C   0  0  0  0  0  0  0  0  0  0  0  0
    9.8056  -15.7309   26.3107 C   0  0  2  0  0  0  0  0  0  0  0  0
    9.2372  -16.3463   25.0826 N   0  0  0  0  0  0  0  0  0  0  0  0
   10.0696  -16.8777   27.1966 C   0  0  0  0  0  0  0  0  0  0  0  0
   10.9592  -16.7772   28.2416 O   0  0  0  0  0  0  0  0  0  0  0  0
    9.5009  -17.9640   27.0285 O   0  0  0  0  0  0  0  0  0  0  0  0
  1  2  1  0
  3  4  1  6
  3  2  1  0
  5  7  1  0
  5  3  1  0
  5  6  1  6
  7  8  2  0
  9 10  1  0
  9  7  1  0
 10 11  1  6
 12 16  1  0
 12 11  1  0
 13 12  2  0
 14 22  1  0
 14 10  1  0
 15 14  2  0
 18 17  1  0
 19 18  1  0
 21 20  1  1
 20 19  1  0
 21 22  1  0
 23 21  1  0
 23 24  1  0
 25 23  2  0
M  END
$$$$
