IDM.pdb
     RDKit          3D

 25 24  0  0  1  0  0  0  0  0999 V2000
    7.9909  -11.8425   20.8788 C   0  0  0  0  0  0  0  0  0  0  0  0
    7.6833  -13.3207   20.8252 C   0  0  0  0  0  0  0  0  0  0  0  0
    8.3717  -14.0419   19.7077 C   0  0  2  0  0  0  0  0  0  0  0  0
    7.9734  -13.4614   18.3659 C   0  0  0  0  0  0  0  0  0  0  0  0
    8.1678  -15.5162   19.6903 C   0  0  2  0  0  0  0  0  0  0  0  0
    6.8026  -15.8739   19.3701 N   0  0  0  0  0  0  0  0  0  0  0  0
    8.6840  -16.2262   20.8664 C   0  0  0  0  0  0  0  0  0  0  0  0
    7.8773  -16.6680   21.7236 O   0  0  0  0  0  0  0  0  0  0  0  0
   10.0835  -16.4495   21.1044 N   0  0  0  0  0  0  0  0  0  0  0  0
   10.5392  -17.1358   22.2949 C   0  0  1  0  0  0  0  0  0  0  0  0
   11.9875  -17.5167   22.1030 C   0  0  0  0  0  0  0  0  0  0  0  0
   12.5608  -18.2795   23.2129 C   0  0  0  0  0  0  0  0  0  0  0  0
   13.7665  -18.1228   23.5290 O   0  0  0  0  0  0  0  0  0  0  0  0
   10.4805  -16.1687   23.4414 C   0  0  0  0  0  0  0  0  0  0  0  0
   11.1063  -15.0824   23.4401 O   0  0  0  0  0  0  0  0  0  0  0  0
   11.7953  -19.1915   23.9437 O   0  0  0  0  0  0  0  0  0  0  0  0
    6.6529  -11.5034   25.9742 C   0  0  0  0  0  0  0  0  0  0  0  0
    6.5335  -13.0478   26.8602 S   0  0  0  0  0  0  0  0  0  0  0  0
    7.9978  -14.0530   26.9035 C   0  0  0  0  0  0  0  0  0  0  0  0
    8.2520  -14.9179   25.7109 C   0  0  0  0  0  0  0  0  0  0  0  0
    9.5652  -15.6140   25.7424 C   0  0  2  0  0  0  0  0  0  0  0  0
    9.6964  -16.4950   24.5522 N   0  0  0  0  0  0  0  0  0  0  0  0
    9.5991  -16.5456   26.8829 C   0  0  0  0  0  0  0  0  0  0  0  0
    9.7091  -16.0828   28.1741 O   0  0  0  0  0  0  0  0  0  0  0  0
    9.5300  -17.7698   26.7151 O   0  0  0  0  0  0  0  0  0  0  0  0
  1  2  1  0
  3  4  1  6
  3  2  1  0
  5  7  1  0
  5  3  1  0
  5  6  1  1
  7  8  2  0
  9 10  1  0
  9  7  1  0
 10 11  1  6
 12 16  1  0
 12 11  1  0
 13 12  2  0
 14 22  1  0
 14 10  1  0
 15 14  2  0
 18 17  1  0
 19 18  1  0
 21 20  1  6
 20 19  1  0
 21 22  1  0
 23 21  1  0
 23 24  1  0
 25 23  2  0
M  END
$$$$
