IDM.pdb
     RDKit          3D

 25 24  0  0  1  0  0  0  0  0999 V2000
    7.1474  -12.5112   27.1042 C   0  0  0  0  0  0  0  0  0  0  0  0
    6.6904  -13.7737   26.4114 C   0  0  0  0  0  0  0  0  0  0  0  0
    7.6119  -14.2351   25.3248 C   0  0  2  0  0  0  0  0  0  0  0  0
    7.7371  -13.1827   24.2418 C   0  0  0  0  0  0  0  0  0  0  0  0
    7.2529  -15.5411   24.7077 C   0  0  2  0  0  0  0  0  0  0  0  0
    6.1597  -16.1889   25.4000 N   0  0  0  0  0  0  0  0  0  0  0  0
    8.3858  -16.4406   24.4601 C   0  0  0  0  0  0  0  0  0  0  0  0
    8.5727  -17.4219   25.2235 O   0  0  0  0  0  0  0  0  0  0  0  0
    9.3150  -16.2632   23.3783 N   0  0  0  0  0  0  0  0  0  0  0  0
   10.4932  -17.0962   23.2604 C   0  0  1  0  0  0  0  0  0  0  0  0
   11.1518  -16.8087   21.9326 C   0  0  0  0  0  0  0  0  0  0  0  0
   12.3179  -17.6455   21.6462 C   0  0  0  0  0  0  0  0  0  0  0  0
   12.6828  -18.5214   22.4695 O   0  0  0  0  0  0  0  0  0  0  0  0
   11.4597  -16.6905   24.3349 C   0  0  0  0  0  0  0  0  0  0  0  0
   12.3293  -15.8046   24.1603 O   0  0  0  0  0  0  0  0  0  0  0  0
   13.0497  -17.4976   20.4653 O   0  0  0  0  0  0  0  0  0  0  0  0
   10.5433  -13.1167   29.0576 C   0  0  0  0  0  0  0  0  0  0  0  0
    9.4830  -14.4966   28.6627 S   0  0  0  0  0  0  0  0  0  0  0  0
   10.2670  -15.9190   27.9427 C   0  0  0  0  0  0  0  0  0  0  0  0
   11.6378  -15.7162   27.3818 C   0  0  0  0  0  0  0  0  0  0  0  0
   12.2129  -16.9308   26.7463 C   0  0  2  0  0  0  0  0  0  0  0  0
   11.3844  -17.3274   25.5774 N   0  0  0  0  0  0  0  0  0  0  0  0
   12.0952  -18.0708   27.6717 C   0  0  0  0  0  0  0  0  0  0  0  0
   11.3072  -19.1561   27.3642 O   0  0  0  0  0  0  0  0  0  0  0  0
   12.7000  -18.0872   28.7514 O   0  0  0  0  0  0  0  0  0  0  0  0
  1  2  1  0
  3  4  1  6
  3  2  1  0
  5  7  1  0
  5  3  1  0
  5  6  1  1
  7  8  2  0
  9 10  1  0
  9  7  1  0
 10 11  1  6
 12 16  1  0
 12 11  1  0
 13 12  2  0
 14 22  1  0
 14 10  1  0
 15 14  2  0
 18 17  1  0
 19 18  1  0
 21 20  1  1
 20 19  1  0
 21 22  1  0
 23 21  1  0
 23 24  1  0
 25 23  2  0
M  END
$$$$
