IDM.pdb
     RDKit          3D

 25 24  0  0  1  0  0  0  0  0999 V2000
    7.4604  -11.6267   18.9660 C   0  0  0  0  0  0  0  0  0  0  0  0
    7.6213  -13.1082   18.7178 C   0  0  0  0  0  0  0  0  0  0  0  0
    7.9932  -13.8896   19.9400 C   0  0  2  0  0  0  0  0  0  0  0  0
    9.2289  -13.3076   20.5960 C   0  0  0  0  0  0  0  0  0  0  0  0
    8.1900  -15.3483   19.7186 C   0  0  2  0  0  0  0  0  0  0  0  0
    7.0996  -15.9383   18.9724 N   0  0  0  0  0  0  0  0  0  0  0  0
    8.5411  -16.1146   20.9200 C   0  0  0  0  0  0  0  0  0  0  0  0
    7.6549  -16.3563   21.7785 O   0  0  0  0  0  0  0  0  0  0  0  0
    9.8632  -16.6134   21.1818 N   0  0  0  0  0  0  0  0  0  0  0  0
   10.1662  -17.3209   22.4080 C   0  0  1  0  0  0  0  0  0  0  0  0
   11.5540  -17.9042   22.2937 C   0  0  0  0  0  0  0  0  0  0  0  0
   11.7079  -18.8836   21.2170 C   0  0  0  0  0  0  0  0  0  0  0  0
   10.8280  -19.7610   21.0326 O   0  0  0  0  0  0  0  0  0  0  0  0
   10.1931  -16.3215   23.5278 C   0  0  0  0  0  0  0  0  0  0  0  0
   10.8668  -15.2657   23.4734 O   0  0  0  0  0  0  0  0  0  0  0  0
   12.8219  -18.8721   20.3740 O   0  0  0  0  0  0  0  0  0  0  0  0
    6.4536  -11.4566   26.3888 C   0  0  0  0  0  0  0  0  0  0  0  0
    6.3802  -13.1014   27.0769 S   0  0  0  0  0  0  0  0  0  0  0  0
    7.8825  -14.0488   27.0299 C   0  0  0  0  0  0  0  0  0  0  0  0
    8.0659  -14.9559   25.8558 C   0  0  0  0  0  0  0  0  0  0  0  0
    9.3769  -15.6565   25.8368 C   0  0  2  0  0  0  0  0  0  0  0  0
    9.4364  -16.5815   24.6745 N   0  0  0  0  0  0  0  0  0  0  0  0
    9.4747  -16.5456   27.0071 C   0  0  0  0  0  0  0  0  0  0  0  0
    9.7281  -16.0413   28.2621 O   0  0  0  0  0  0  0  0  0  0  0  0
    9.3324  -17.7701   26.8978 O   0  0  0  0  0  0  0  0  0  0  0  0
  1  2  1  0
  3  4  1  6
  3  2  1  0
  5  7  1  0
  5  3  1  0
  5  6  1  1
  7  8  2  0
  9 10  1  0
  9  7  1  0
 10 11  1  6
 12 16  1  0
 12 11  1  0
 13 12  2  0
 14 22  1  0
 14 10  1  0
 15 14  2  0
 18 17  1  0
 19 18  1  0
 21 20  1  1
 20 19  1  0
 21 22  1  0
 23 21  1  0
 23 24  1  0
 25 23  2  0
M  END
$$$$
