IDM.pdb
     RDKit          3D

 25 24  0  0  1  0  0  0  0  0999 V2000
    6.6258  -13.7113   17.7956 C   0  0  0  0  0  0  0  0  0  0  0  0
    7.9069  -14.1189   18.4849 C   0  0  0  0  0  0  0  0  0  0  0  0
    8.3553  -13.1603   19.5446 C   0  0  2  0  0  0  0  0  0  0  0  0
    8.5388  -11.7700   18.9705 C   0  0  0  0  0  0  0  0  0  0  0  0
    9.5883  -13.5617   20.2752 C   0  0  2  0  0  0  0  0  0  0  0  0
   10.6979  -13.8058   19.3789 N   0  0  0  0  0  0  0  0  0  0  0  0
    9.4026  -14.6337   21.2602 C   0  0  0  0  0  0  0  0  0  0  0  0
    8.4025  -14.6054   22.0216 O   0  0  0  0  0  0  0  0  0  0  0  0
   10.3138  -15.7345   21.4125 N   0  0  0  0  0  0  0  0  0  0  0  0
   10.0545  -16.7933   22.3653 C   0  0  1  0  0  0  0  0  0  0  0  0
   11.0565  -17.8992   22.1363 C   0  0  0  0  0  0  0  0  0  0  0  0
   10.9041  -19.0442   23.0351 C   0  0  0  0  0  0  0  0  0  0  0  0
   11.9091  -19.5340   23.6079 O   0  0  0  0  0  0  0  0  0  0  0  0
   10.2974  -16.2495   23.7432 C   0  0  0  0  0  0  0  0  0  0  0  0
   11.3296  -15.6035   24.0410 O   0  0  0  0  0  0  0  0  0  0  0  0
    9.6542  -19.6185   23.2797 O   0  0  0  0  0  0  0  0  0  0  0  0
    6.9872  -11.3045   26.7612 C   0  0  0  0  0  0  0  0  0  0  0  0
    6.9249  -13.0769   26.9581 S   0  0  0  0  0  0  0  0  0  0  0  0
    8.3474  -13.9870   26.4062 C   0  0  0  0  0  0  0  0  0  0  0  0
    8.3675  -15.4498   26.7140 C   0  0  0  0  0  0  0  0  0  0  0  0
    9.5519  -16.1627   26.1674 C   0  0  2  0  0  0  0  0  0  0  0  0
    9.3330  -16.4742   24.7304 N   0  0  0  0  0  0  0  0  0  0  0  0
    9.6667  -17.4847   26.8069 C   0  0  0  0  0  0  0  0  0  0  0  0
   10.1485  -17.6132   28.0894 O   0  0  0  0  0  0  0  0  0  0  0  0
    9.3343  -18.5176   26.2117 O   0  0  0  0  0  0  0  0  0  0  0  0
  1  2  1  0
  3  4  1  6
  3  2  1  0
  5  7  1  0
  5  3  1  0
  5  6  1  6
  7  8  2  0
  9 10  1  0
  9  7  1  0
 10 11  1  6
 12 16  1  0
 12 11  1  0
 13 12  2  0
 14 22  1  0
 14 10  1  0
 15 14  2  0
 18 17  1  0
 19 18  1  0
 21 20  1  1
 20 19  1  0
 21 22  1  0
 23 21  1  0
 23 24  1  0
 25 23  2  0
M  END
$$$$
