IDM.pdb
     RDKit          3D

 25 24  0  0  1  0  0  0  0  0999 V2000
    6.0721  -11.7764   26.5990 C   0  0  0  0  0  0  0  0  0  0  0  0
    5.7703  -13.0690   25.8776 C   0  0  0  0  0  0  0  0  0  0  0  0
    6.9913  -13.8416   25.4839 C   0  0  2  0  0  0  0  0  0  0  0  0
    7.8453  -13.0443   24.5189 C   0  0  0  0  0  0  0  0  0  0  0  0
    6.7256  -15.1902   24.9128 C   0  0  2  0  0  0  0  0  0  0  0  0
    5.7597  -15.9324   25.6941 N   0  0  0  0  0  0  0  0  0  0  0  0
    7.9245  -15.9735   24.5923 C   0  0  0  0  0  0  0  0  0  0  0  0
    8.3631  -16.8013   25.4308 O   0  0  0  0  0  0  0  0  0  0  0  0
    8.6440  -15.8479   23.3546 N   0  0  0  0  0  0  0  0  0  0  0  0
    9.7791  -16.6968   23.0601 C   0  0  1  0  0  0  0  0  0  0  0  0
   10.3979  -16.2357   21.7625 C   0  0  0  0  0  0  0  0  0  0  0  0
   11.3896  -17.1583   21.2079 C   0  0  0  0  0  0  0  0  0  0  0  0
   11.6968  -18.2037   21.8330 O   0  0  0  0  0  0  0  0  0  0  0  0
   10.8033  -16.4958   24.1390 C   0  0  0  0  0  0  0  0  0  0  0  0
   11.4033  -15.4076   24.3049 O   0  0  0  0  0  0  0  0  0  0  0  0
   12.0152  -16.9076   19.9841 O   0  0  0  0  0  0  0  0  0  0  0  0
   10.6990  -12.6395   28.9293 C   0  0  0  0  0  0  0  0  0  0  0  0
   10.4131  -14.3963   28.8029 S   0  0  0  0  0  0  0  0  0  0  0  0
   11.1313  -15.2183   27.4012 C   0  0  0  0  0  0  0  0  0  0  0  0
   10.7972  -16.6653   27.2295 C   0  0  0  0  0  0  0  0  0  0  0  0
   11.7263  -17.3935   26.3258 C   0  0  2  0  0  0  0  0  0  0  0  0
   11.0972  -17.5657   24.9899 N   0  0  0  0  0  0  0  0  0  0  0  0
   11.9083  -18.7705   26.8160 C   0  0  0  0  0  0  0  0  0  0  0  0
   12.9199  -19.0830   27.6950 O   0  0  0  0  0  0  0  0  0  0  0  0
   11.1590  -19.6862   26.4532 O   0  0  0  0  0  0  0  0  0  0  0  0
  1  2  1  0
  3  4  1  6
  3  2  1  0
  5  7  1  0
  5  3  1  0
  5  6  1  1
  7  8  2  0
  9 10  1  0
  9  7  1  0
 10 11  1  6
 12 16  1  0
 12 11  1  0
 13 12  2  0
 14 22  1  0
 14 10  1  0
 15 14  2  0
 18 17  1  0
 19 18  1  0
 21 20  1  1
 20 19  1  0
 21 22  1  0
 23 21  1  0
 23 24  1  0
 25 23  2  0
M  END
$$$$
