IDM.pdb
     RDKit          3D

 25 24  0  0  1  0  0  0  0  0999 V2000
    7.2655  -11.6450   19.6756 C   0  0  0  0  0  0  0  0  0  0  0  0
    7.8307  -12.9693   19.2182 C   0  0  0  0  0  0  0  0  0  0  0  0
    8.0885  -13.9348   20.3336 C   0  0  2  0  0  0  0  0  0  0  0  0
    9.0057  -13.3239   21.3736 C   0  0  0  0  0  0  0  0  0  0  0  0
    8.6290  -15.2554   19.9104 C   0  0  2  0  0  0  0  0  0  0  0  0
    7.8674  -15.8334   18.8241 N   0  0  0  0  0  0  0  0  0  0  0  0
    8.8743  -16.2028   21.0041 C   0  0  0  0  0  0  0  0  0  0  0  0
    7.9216  -16.8929   21.4478 O   0  0  0  0  0  0  0  0  0  0  0  0
   10.1622  -16.3920   21.6129 N   0  0  0  0  0  0  0  0  0  0  0  0
   10.3257  -17.2553   22.7635 C   0  0  1  0  0  0  0  0  0  0  0  0
   11.6268  -18.0070   22.6169 C   0  0  0  0  0  0  0  0  0  0  0  0
   11.6927  -18.8706   21.4370 C   0  0  0  0  0  0  0  0  0  0  0  0
   10.8028  -19.7346   21.2379 O   0  0  0  0  0  0  0  0  0  0  0  0
   10.4465  -16.3882   23.9829 C   0  0  0  0  0  0  0  0  0  0  0  0
   11.4037  -15.5975   24.1560 O   0  0  0  0  0  0  0  0  0  0  0  0
   12.7322  -18.7613   20.5101 O   0  0  0  0  0  0  0  0  0  0  0  0
    6.1089  -11.4401   26.0385 C   0  0  0  0  0  0  0  0  0  0  0  0
    6.3625  -13.2064   26.0234 S   0  0  0  0  0  0  0  0  0  0  0  0
    7.9569  -13.7836   26.5538 C   0  0  0  0  0  0  0  0  0  0  0  0
    8.1439  -15.2652   26.6231 C   0  0  0  0  0  0  0  0  0  0  0  0
    9.5082  -15.7171   26.2433 C   0  0  2  0  0  0  0  0  0  0  0  0
    9.4510  -16.4681   24.9616 N   0  0  0  0  0  0  0  0  0  0  0  0
    9.9850  -16.7114   27.2199 C   0  0  0  0  0  0  0  0  0  0  0  0
   10.5170  -16.3215   28.4275 O   0  0  0  0  0  0  0  0  0  0  0  0
    9.9219  -17.9248   26.9847 O   0  0  0  0  0  0  0  0  0  0  0  0
  1  2  1  0
  3  4  1  1
  3  2  1  0
  5  7  1  0
  5  3  1  0
  5  6  1  6
  7  8  2  0
  9 10  1  0
  9  7  1  0
 10 11  1  6
 12 16  1  0
 12 11  1  0
 13 12  2  0
 14 22  1  0
 14 10  1  0
 15 14  2  0
 18 17  1  0
 19 18  1  0
 21 20  1  1
 20 19  1  0
 21 22  1  0
 23 21  1  0
 23 24  1  0
 25 23  2  0
M  END
$$$$
