IDM.pdb
     RDKit          3D

 25 24  0  0  1  0  0  0  0  0999 V2000
    7.6288  -11.9262   21.8363 C   0  0  0  0  0  0  0  0  0  0  0  0
    7.5421  -13.4248   21.6660 C   0  0  0  0  0  0  0  0  0  0  0  0
    8.2750  -13.9409   20.4664 C   0  0  2  0  0  0  0  0  0  0  0  0
    7.8226  -13.2251   19.2097 C   0  0  0  0  0  0  0  0  0  0  0  0
    8.1849  -15.4120   20.2586 C   0  0  2  0  0  0  0  0  0  0  0  0
    6.8385  -15.8360   19.9398 N   0  0  0  0  0  0  0  0  0  0  0  0
    8.8060  -16.2247   21.3109 C   0  0  0  0  0  0  0  0  0  0  0  0
    8.0750  -16.8759   22.0998 O   0  0  0  0  0  0  0  0  0  0  0  0
   10.2272  -16.3216   21.5004 N   0  0  0  0  0  0  0  0  0  0  0  0
   10.7860  -17.1165   22.5737 C   0  0  1  0  0  0  0  0  0  0  0  0
   12.2494  -17.3497   22.2848 C   0  0  0  0  0  0  0  0  0  0  0  0
   12.9244  -18.2109   23.2569 C   0  0  0  0  0  0  0  0  0  0  0  0
   12.6367  -19.4319   23.3241 O   0  0  0  0  0  0  0  0  0  0  0  0
   10.7035  -16.3138   23.8394 C   0  0  0  0  0  0  0  0  0  0  0  0
   11.3597  -15.2599   24.0135 O   0  0  0  0  0  0  0  0  0  0  0  0
   13.8952  -17.7081   24.1267 O   0  0  0  0  0  0  0  0  0  0  0  0
    6.7604  -11.4020   25.9717 C   0  0  0  0  0  0  0  0  0  0  0  0
    6.7674  -13.1820   26.0974 S   0  0  0  0  0  0  0  0  0  0  0  0
    8.3599  -13.9693   26.1238 C   0  0  0  0  0  0  0  0  0  0  0  0
    8.3693  -15.4569   26.2716 C   0  0  0  0  0  0  0  0  0  0  0  0
    9.7228  -16.0627   26.1664 C   0  0  2  0  0  0  0  0  0  0  0  0
    9.8614  -16.7617   24.8618 N   0  0  0  0  0  0  0  0  0  0  0  0
    9.8578  -17.1375   27.1646 C   0  0  0  0  0  0  0  0  0  0  0  0
    9.9711  -18.4536   26.7793 O   0  0  0  0  0  0  0  0  0  0  0  0
    9.8734  -16.8903   28.3771 O   0  0  0  0  0  0  0  0  0  0  0  0
  1  2  1  0
  3  4  1  6
  3  2  1  0
  5  7  1  0
  5  3  1  0
  5  6  1  1
  7  8  2  0
  9 10  1  0
  9  7  1  0
 10 11  1  6
 12 16  1  0
 12 11  1  0
 13 12  2  0
 14 22  1  0
 14 10  1  0
 15 14  2  0
 18 17  1  0
 19 18  1  0
 21 20  1  6
 20 19  1  0
 21 22  1  0
 23 21  1  0
 23 24  1  0
 25 23  2  0
M  END
$$$$
