IDM.pdb
     RDKit          3D

 25 24  0  0  1  0  0  0  0  0999 V2000
    7.0493  -11.8180   19.3345 C   0  0  0  0  0  0  0  0  0  0  0  0
    7.5157  -13.2006   18.9429 C   0  0  0  0  0  0  0  0  0  0  0  0
    7.9288  -14.0513   20.1040 C   0  0  2  0  0  0  0  0  0  0  0  0
    9.0310  -13.3801   20.8983 C   0  0  0  0  0  0  0  0  0  0  0  0
    8.3442  -15.4368   19.7528 C   0  0  2  0  0  0  0  0  0  0  0  0
    7.3493  -16.1178   18.9525 N   0  0  0  0  0  0  0  0  0  0  0  0
    8.8209  -16.2447   20.8814 C   0  0  0  0  0  0  0  0  0  0  0  0
    7.9855  -16.7669   21.6626 O   0  0  0  0  0  0  0  0  0  0  0  0
   10.2121  -16.4781   21.1554 N   0  0  0  0  0  0  0  0  0  0  0  0
   10.6310  -17.1858   22.3470 C   0  0  1  0  0  0  0  0  0  0  0  0
   12.0992  -17.5131   22.2180 C   0  0  0  0  0  0  0  0  0  0  0  0
   12.6849  -18.1291   23.4095 C   0  0  0  0  0  0  0  0  0  0  0  0
   11.9651  -18.7994   24.1910 O   0  0  0  0  0  0  0  0  0  0  0  0
   10.4821  -16.2570   23.5168 C   0  0  0  0  0  0  0  0  0  0  0  0
   10.9531  -15.0952   23.5197 O   0  0  0  0  0  0  0  0  0  0  0  0
   14.0426  -17.9922   23.7092 O   0  0  0  0  0  0  0  0  0  0  0  0
    7.3090  -11.2328   27.5468 C   0  0  0  0  0  0  0  0  0  0  0  0
    7.5578  -12.3594   26.1856 S   0  0  0  0  0  0  0  0  0  0  0  0
    7.9421  -14.0417   26.6081 C   0  0  0  0  0  0  0  0  0  0  0  0
    8.3470  -14.9391   25.4831 C   0  0  0  0  0  0  0  0  0  0  0  0
    9.4830  -15.8399   25.8120 C   0  0  2  0  0  0  0  0  0  0  0  0
    9.7908  -16.7083   24.6453 N   0  0  0  0  0  0  0  0  0  0  0  0
    9.0705  -16.7856   26.8632 C   0  0  0  0  0  0  0  0  0  0  0  0
    8.8535  -16.3612   28.1541 O   0  0  0  0  0  0  0  0  0  0  0  0
    8.9069  -17.9876   26.6183 O   0  0  0  0  0  0  0  0  0  0  0  0
  1  2  1  0
  3  4  1  6
  3  2  1  0
  5  7  1  0
  5  3  1  0
  5  6  1  1
  7  8  2  0
  9 10  1  0
  9  7  1  0
 10 11  1  6
 12 16  1  0
 12 11  1  0
 13 12  2  0
 14 22  1  0
 14 10  1  0
 15 14  2  0
 18 17  1  0
 19 18  1  0
 21 20  1  6
 20 19  1  0
 21 22  1  0
 23 21  1  0
 23 24  1  0
 25 23  2  0
M  END
$$$$
