IDM.pdb
     RDKit          3D

 25 24  0  0  1  0  0  0  0  0999 V2000
    6.9109  -12.0680   27.1519 C   0  0  0  0  0  0  0  0  0  0  0  0
    6.4613  -13.1363   26.1828 C   0  0  0  0  0  0  0  0  0  0  0  0
    7.5565  -14.0625   25.7523 C   0  0  2  0  0  0  0  0  0  0  0  0
    8.6551  -13.3020   25.0376 C   0  0  0  0  0  0  0  0  0  0  0  0
    7.1170  -15.2076   24.9091 C   0  0  2  0  0  0  0  0  0  0  0  0
    5.8751  -15.7843   25.3773 N   0  0  0  0  0  0  0  0  0  0  0  0
    8.1514  -16.2148   24.6456 C   0  0  0  0  0  0  0  0  0  0  0  0
    8.1662  -17.2753   25.3208 O   0  0  0  0  0  0  0  0  0  0  0  0
    9.1707  -16.0587   23.6447 N   0  0  0  0  0  0  0  0  0  0  0  0
   10.2576  -17.0082   23.5300 C   0  0  1  0  0  0  0  0  0  0  0  0
   11.0102  -16.7223   22.2528 C   0  0  0  0  0  0  0  0  0  0  0  0
   10.1966  -16.8217   21.0402 C   0  0  0  0  0  0  0  0  0  0  0  0
    9.5556  -17.8741   20.7958 O   0  0  0  0  0  0  0  0  0  0  0  0
   11.2057  -16.7707   24.6692 C   0  0  0  0  0  0  0  0  0  0  0  0
   12.2470  -16.0833   24.5479 O   0  0  0  0  0  0  0  0  0  0  0  0
   10.1097  -15.7644   20.1312 O   0  0  0  0  0  0  0  0  0  0  0  0
    9.1833  -12.7077   28.4224 C   0  0  0  0  0  0  0  0  0  0  0  0
   10.3413  -14.0282   28.7375 S   0  0  0  0  0  0  0  0  0  0  0  0
   10.0123  -15.5799   27.9371 C   0  0  0  0  0  0  0  0  0  0  0  0
   10.9354  -16.7101   28.2619 C   0  0  0  0  0  0  0  0  0  0  0  0
   11.7690  -17.1540   27.1138 C   0  0  2  0  0  0  0  0  0  0  0  0
   10.9131  -17.3397   25.9125 N   0  0  0  0  0  0  0  0  0  0  0  0
   12.3012  -18.5002   27.3858 C   0  0  0  0  0  0  0  0  0  0  0  0
   11.8665  -19.5929   26.6713 O   0  0  0  0  0  0  0  0  0  0  0  0
   13.1533  -18.6893   28.2631 O   0  0  0  0  0  0  0  0  0  0  0  0
  1  2  1  0
  3  4  1  6
  3  2  1  0
  5  7  1  0
  5  3  1  0
  5  6  1  1
  7  8  2  0
  9 10  1  0
  9  7  1  0
 10 11  1  6
 12 16  1  0
 12 11  1  0
 13 12  2  0
 14 22  1  0
 14 10  1  0
 15 14  2  0
 18 17  1  0
 19 18  1  0
 21 20  1  1
 20 19  1  0
 21 22  1  0
 23 21  1  0
 23 24  1  0
 25 23  2  0
M  END
$$$$
