IDM.pdb
     RDKit          3D

 25 24  0  0  1  0  0  0  0  0999 V2000
    7.3120  -11.5857   19.8695 C   0  0  0  0  0  0  0  0  0  0  0  0
    7.3249  -13.0804   19.6500 C   0  0  0  0  0  0  0  0  0  0  0  0
    7.8651  -13.8577   20.8105 C   0  0  2  0  0  0  0  0  0  0  0  0
    9.2752  -13.4156   21.1453 C   0  0  0  0  0  0  0  0  0  0  0  0
    7.8353  -15.3367   20.6457 C   0  0  2  0  0  0  0  0  0  0  0  0
    6.5498  -15.8071   20.1763 N   0  0  0  0  0  0  0  0  0  0  0  0
    8.3372  -16.0976   21.7959 C   0  0  0  0  0  0  0  0  0  0  0  0
    7.5876  -16.2816   22.7885 O   0  0  0  0  0  0  0  0  0  0  0  0
    9.6606  -16.6542   21.8596 N   0  0  0  0  0  0  0  0  0  0  0  0
   10.1124  -17.3763   23.0302 C   0  0  1  0  0  0  0  0  0  0  0  0
   11.4418  -18.0180   22.7133 C   0  0  0  0  0  0  0  0  0  0  0  0
   11.9891  -18.8346   23.7977 C   0  0  0  0  0  0  0  0  0  0  0  0
   13.1580  -18.6321   24.2110 O   0  0  0  0  0  0  0  0  0  0  0  0
   10.3482  -16.3812   24.1291 C   0  0  0  0  0  0  0  0  0  0  0  0
   11.1966  -15.4629   24.0367 O   0  0  0  0  0  0  0  0  0  0  0  0
   11.2387  -19.8492   24.3972 O   0  0  0  0  0  0  0  0  0  0  0  0
    6.0352  -12.4294   25.4465 C   0  0  0  0  0  0  0  0  0  0  0  0
    7.3159  -12.2863   26.6809 S   0  0  0  0  0  0  0  0  0  0  0  0
    8.7448  -13.3198   26.4652 C   0  0  0  0  0  0  0  0  0  0  0  0
    8.5528  -14.7845   26.6949 C   0  0  0  0  0  0  0  0  0  0  0  0
    9.7803  -15.5934   26.4736 C   0  0  2  0  0  0  0  0  0  0  0  0
    9.5904  -16.4854   25.2996 N   0  0  0  0  0  0  0  0  0  0  0  0
    9.9658  -16.5217   27.6022 C   0  0  0  0  0  0  0  0  0  0  0  0
   10.3500  -16.0640   28.8417 O   0  0  0  0  0  0  0  0  0  0  0  0
    9.7823  -17.7385   27.4704 O   0  0  0  0  0  0  0  0  0  0  0  0
  1  2  1  0
  3  4  1  6
  3  2  1  0
  5  7  1  0
  5  3  1  0
  5  6  1  1
  7  8  2  0
  9 10  1  0
  9  7  1  0
 10 11  1  6
 12 16  1  0
 12 11  1  0
 13 12  2  0
 14 22  1  0
 14 10  1  0
 15 14  2  0
 18 17  1  0
 19 18  1  0
 21 20  1  1
 20 19  1  0
 21 22  1  0
 23 21  1  0
 23 24  1  0
 25 23  2  0
M  END
$$$$
