IDM.pdb
     RDKit          3D

 25 24  0  0  1  0  0  0  0  0999 V2000
    7.2152  -11.7067   19.6513 C   0  0  0  0  0  0  0  0  0  0  0  0
    7.4367  -13.1626   19.3144 C   0  0  0  0  0  0  0  0  0  0  0  0
    7.7866  -14.0111   20.4978 C   0  0  2  0  0  0  0  0  0  0  0  0
    8.9818  -13.4412   21.2346 C   0  0  0  0  0  0  0  0  0  0  0  0
    8.0313  -15.4471   20.1922 C   0  0  2  0  0  0  0  0  0  0  0  0
    6.9294  -16.0462   19.4704 N   0  0  0  0  0  0  0  0  0  0  0  0
    8.4739  -16.2560   21.3339 C   0  0  0  0  0  0  0  0  0  0  0  0
    7.6284  -16.6447   22.1793 O   0  0  0  0  0  0  0  0  0  0  0  0
    9.8427  -16.6363   21.5506 N   0  0  0  0  0  0  0  0  0  0  0  0
   10.2598  -17.2528   22.7924 C   0  0  1  0  0  0  0  0  0  0  0  0
   11.6556  -17.7988   22.6107 C   0  0  0  0  0  0  0  0  0  0  0  0
   12.1384  -18.6016   23.7352 C   0  0  0  0  0  0  0  0  0  0  0  0
   11.3955  -18.8083   24.7270 O   0  0  0  0  0  0  0  0  0  0  0  0
   10.3326  -16.1824   23.8423 C   0  0  0  0  0  0  0  0  0  0  0  0
   10.8468  -15.0597   23.6261 O   0  0  0  0  0  0  0  0  0  0  0  0
   13.4215  -19.1543   23.7394 O   0  0  0  0  0  0  0  0  0  0  0  0
    6.7410  -11.0823   26.0772 C   0  0  0  0  0  0  0  0  0  0  0  0
    6.5779  -12.7147   26.7794 S   0  0  0  0  0  0  0  0  0  0  0  0
    8.0782  -13.6442   26.9832 C   0  0  0  0  0  0  0  0  0  0  0  0
    8.3104  -14.7614   26.0173 C   0  0  0  0  0  0  0  0  0  0  0  0
    9.6398  -15.4115   26.1587 C   0  0  2  0  0  0  0  0  0  0  0  0
    9.8058  -16.4513   25.1093 N   0  0  0  0  0  0  0  0  0  0  0  0
    9.6840  -16.1676   27.4220 C   0  0  0  0  0  0  0  0  0  0  0  0
    9.7777  -15.5211   28.6331 O   0  0  0  0  0  0  0  0  0  0  0  0
    9.6384  -17.4043   27.4328 O   0  0  0  0  0  0  0  0  0  0  0  0
  1  2  1  0
  3  4  1  6
  3  2  1  0
  5  7  1  0
  5  3  1  0
  5  6  1  1
  7  8  2  0
  9 10  1  0
  9  7  1  0
 10 11  1  6
 12 16  1  0
 12 11  1  0
 13 12  2  0
 14 22  1  0
 14 10  1  0
 15 14  2  0
 18 17  1  0
 19 18  1  0
 21 20  1  6
 20 19  1  0
 21 22  1  0
 23 21  1  0
 23 24  1  0
 25 23  2  0
M  END
$$$$
