EYP.pdb
     RDKit          3D

 29 30  0  0  1  0  0  0  0  0999 V2000
    8.5446  -17.7099   20.5299 N   0  0  0  0  0  0  0  0  0  0  0  0
    7.4119  -16.7793   20.6923 C   0  0  1  0  0  0  0  0  0  0  0  0
    6.2013  -17.5610   20.2339 C   0  0  0  0  0  0  0  0  0  0  0  0
    6.5006  -18.9236   19.7198 C   0  0  0  0  0  0  0  0  0  0  0  0
    5.7709  -19.2513   18.4750 C   0  0  0  0  0  0  0  0  0  0  0  0
    5.9775  -18.7180   17.3558 O   0  0  0  0  0  0  0  0  0  0  0  0
    7.3266  -16.4073   22.1172 C   0  0  0  0  0  0  0  0  0  0  0  0
    6.3776  -15.7238   22.5769 O   0  0  0  0  0  0  0  0  0  0  0  0
    4.7527  -20.2275   18.4706 O   0  0  0  0  0  0  0  0  0  0  0  0
    9.7632  -14.8998   30.3546 O   0  0  0  0  0  0  0  0  0  0  0  0
    9.6564  -15.4585   29.0932 C   0  0  0  0  0  0  0  0  0  0  0  0
    8.7952  -16.4940   28.8133 C   0  0  0  0  0  0  0  0  0  0  0  0
    8.7000  -17.0397   27.5534 C   0  0  0  0  0  0  0  0  0  0  0  0
    9.4928  -16.5302   26.5456 C   0  0  0  0  0  0  0  0  0  0  0  0
    9.4406  -17.0735   25.1631 C   0  0  0  0  0  0  0  0  0  0  0  0
    8.4106  -16.2964   24.3555 C   0  0  2  0  0  0  0  0  0  0  0  0
    8.3370  -16.8209   23.0278 N   0  0  0  0  0  0  0  0  0  0  0  0
    8.6440  -14.8476   24.4828 C   0  0  0  0  0  0  0  0  0  0  0  0
    9.6238  -14.4490   23.7110 O   0  0  0  0  0  0  0  0  0  0  0  0
   10.3656  -15.4938   26.7916 C   0  0  0  0  0  0  0  0  0  0  0  0
   10.4310  -14.9697   28.0829 C   0  0  0  0  0  0  0  0  0  0  0  0
    7.9819  -13.9091   25.2810 N   0  0  0  0  0  0  0  0  0  0  0  0
    6.9785  -14.2787   26.2614 C   0  0  0  0  0  0  0  0  0  0  0  0
    6.1122  -13.0569   26.3995 C   0  0  0  0  0  0  0  0  0  0  0  0
    6.6490  -12.0462   25.4141 C   0  0  0  0  0  0  0  0  0  0  0  0
    8.1232  -12.5025   25.3495 C   0  0  1  0  0  0  0  0  0  0  0  0
    8.7157  -12.0491   26.6489 C   0  0  0  0  0  0  0  0  0  0  0  0
    8.7704  -12.8041   27.6572 O   0  0  0  0  0  0  0  0  0  0  0  0
    9.2283  -10.7682   26.7825 O   0  0  0  0  0  0  0  0  0  0  0  0
  2  1  1  1
  3  2  1  0
  4  3  1  0
  4  5  1  0
  5  9  1  0
  5  6  2  0
  7  2  1  0
  7  8  2  0
 10 11  1  0
 11 12  2  0
 12 13  1  0
 14 15  1  0
 14 13  2  0
 16 17  1  0
 16 15  1  1
 17  7  1  0
 18 16  1  0
 19 18  2  0
 20 14  1  0
 21 11  1  0
 21 20  2  0
 22 18  1  0
 22 26  1  0
 23 22  1  0
 24 23  1  0
 24 25  1  0
 25 26  1  0
 26 27  1  1
 27 29  1  0
 28 27  2  0
M  END
$$$$
