EYP.pdb
     RDKit          3D

 29 30  0  0  1  0  0  0  0  0999 V2000
    6.6011  -19.4251   20.4990 N   0  0  0  0  0  0  0  0  0  0  0  0
    7.7833  -18.7312   19.9546 C   0  0  1  0  0  0  0  0  0  0  0  0
    7.3763  -18.3116   18.5600 C   0  0  0  0  0  0  0  0  0  0  0  0
    8.4313  -17.5965   17.7943 C   0  0  0  0  0  0  0  0  0  0  0  0
    8.5663  -18.0741   16.4004 C   0  0  0  0  0  0  0  0  0  0  0  0
    7.6076  -18.3559   15.6381 O   0  0  0  0  0  0  0  0  0  0  0  0
    8.0730  -17.5731   20.8213 C   0  0  0  0  0  0  0  0  0  0  0  0
    9.1463  -16.9250   20.7389 O   0  0  0  0  0  0  0  0  0  0  0  0
    9.8387  -18.2496   15.8174 O   0  0  0  0  0  0  0  0  0  0  0  0
    7.8668  -11.9542   27.4168 O   0  0  0  0  0  0  0  0  0  0  0  0
    7.4729  -12.9145   26.5018 C   0  0  0  0  0  0  0  0  0  0  0  0
    7.2156  -14.2171   26.8610 C   0  0  0  0  0  0  0  0  0  0  0  0
    6.8245  -15.1615   25.9393 C   0  0  0  0  0  0  0  0  0  0  0  0
    6.6881  -14.7862   24.6185 C   0  0  0  0  0  0  0  0  0  0  0  0
    6.2704  -15.7556   23.5722 C   0  0  0  0  0  0  0  0  0  0  0  0
    7.5076  -16.3510   22.9151 C   0  0  2  0  0  0  0  0  0  0  0  0
    7.1256  -17.1505   21.7935 N   0  0  0  0  0  0  0  0  0  0  0  0
    8.3668  -16.9938   23.9241 C   0  0  0  0  0  0  0  0  0  0  0  0
    7.9140  -18.1763   24.2579 O   0  0  0  0  0  0  0  0  0  0  0  0
    6.9378  -13.4903   24.2250 C   0  0  0  0  0  0  0  0  0  0  0  0
    7.3321  -12.5645   25.1913 C   0  0  0  0  0  0  0  0  0  0  0  0
    9.5355  -16.5178   24.5273 N   0  0  0  0  0  0  0  0  0  0  0  0
    9.9315  -15.1229   24.4829 C   0  0  0  0  0  0  0  0  0  0  0  0
   11.4275  -15.1462   24.6374 C   0  0  0  0  0  0  0  0  0  0  0  0
   11.8218  -16.6025   24.7022 C   0  0  0  0  0  0  0  0  0  0  0  0
   10.5203  -17.1995   25.2813 C   0  0  1  0  0  0  0  0  0  0  0  0
   10.5251  -16.7881   26.7220 C   0  0  0  0  0  0  0  0  0  0  0  0
    9.8848  -15.7820   27.1311 O   0  0  0  0  0  0  0  0  0  0  0  0
   11.2438  -17.5117   27.6607 O   0  0  0  0  0  0  0  0  0  0  0  0
  2  1  1  1
  3  2  1  0
  4  3  1  0
  4  5  1  0
  5  9  1  0
  5  6  2  0
  7  2  1  0
  7  8  2  0
 10 11  1  0
 11 12  2  0
 12 13  1  0
 14 15  1  0
 14 13  2  0
 16 17  1  0
 16 15  1  1
 17  7  1  0
 18 16  1  0
 19 18  2  0
 20 14  1  0
 21 11  1  0
 21 20  2  0
 22 18  1  0
 22 26  1  0
 23 22  1  0
 24 23  1  0
 24 25  1  0
 25 26  1  0
 26 27  1  1
 27 29  1  0
 28 27  2  0
M  END
$$$$
