EYP.pdb
     RDKit          3D

 29 30  0  0  1  0  0  0  0  0999 V2000
    4.8676  -18.7580   22.4308 N   0  0  0  0  0  0  0  0  0  0  0  0
    6.2783  -18.9542   22.8143 C   0  0  1  0  0  0  0  0  0  0  0  0
    7.0458  -18.8793   21.5136 C   0  0  0  0  0  0  0  0  0  0  0  0
    7.4405  -17.5055   21.1041 C   0  0  0  0  0  0  0  0  0  0  0  0
    8.0793  -17.4547   19.7704 C   0  0  0  0  0  0  0  0  0  0  0  0
    7.5139  -17.7510   18.6877 O   0  0  0  0  0  0  0  0  0  0  0  0
    6.6537  -17.8726   23.7445 C   0  0  0  0  0  0  0  0  0  0  0  0
    5.9065  -16.8866   23.9641 O   0  0  0  0  0  0  0  0  0  0  0  0
    9.4236  -17.0518   19.6287 O   0  0  0  0  0  0  0  0  0  0  0  0
   10.3511  -13.9758   30.5659 O   0  0  0  0  0  0  0  0  0  0  0  0
   10.1621  -14.7682   29.4474 C   0  0  0  0  0  0  0  0  0  0  0  0
   10.3682  -14.3044   28.1689 C   0  0  0  0  0  0  0  0  0  0  0  0
   10.1760  -15.1046   27.0657 C   0  0  0  0  0  0  0  0  0  0  0  0
    9.7649  -16.4084   27.2525 C   0  0  0  0  0  0  0  0  0  0  0  0
    9.5377  -17.3257   26.1053 C   0  0  0  0  0  0  0  0  0  0  0  0
    8.2752  -16.9045   25.3665 C   0  0  2  0  0  0  0  0  0  0  0  0
    7.8974  -17.9180   24.4321 N   0  0  0  0  0  0  0  0  0  0  0  0
    8.4208  -15.5375   24.8375 C   0  0  0  0  0  0  0  0  0  0  0  0
    9.0653  -15.5295   23.6977 O   0  0  0  0  0  0  0  0  0  0  0  0
    9.5494  -16.9046   28.5190 C   0  0  0  0  0  0  0  0  0  0  0  0
    9.7559  -16.0598   29.6098 C   0  0  0  0  0  0  0  0  0  0  0  0
    7.9780  -14.3255   25.3772 N   0  0  0  0  0  0  0  0  0  0  0  0
    7.4574  -14.2088   26.7262 C   0  0  0  0  0  0  0  0  0  0  0  0
    6.5491  -13.0106   26.6819 C   0  0  0  0  0  0  0  0  0  0  0  0
    6.5541  -12.5308   25.2500 C   0  0  0  0  0  0  0  0  0  0  0  0
    7.9498  -13.0277   24.8133 C   0  0  1  0  0  0  0  0  0  0  0  0
    8.9097  -12.0916   25.4822 C   0  0  0  0  0  0  0  0  0  0  0  0
    9.0443  -10.8947   25.1093 O   0  0  0  0  0  0  0  0  0  0  0  0
    9.6888  -12.5200   26.5455 O   0  0  0  0  0  0  0  0  0  0  0  0
  2  1  1  6
  3  2  1  0
  4  3  1  0
  4  5  1  0
  5  9  1  0
  5  6  2  0
  7  2  1  0
  7  8  2  0
 10 11  1  0
 11 12  2  0
 12 13  1  0
 14 15  1  0
 14 13  2  0
 16 17  1  0
 16 15  1  6
 17  7  1  0
 18 16  1  0
 19 18  2  0
 20 14  1  0
 21 11  1  0
 21 20  2  0
 22 18  1  0
 22 26  1  0
 23 22  1  0
 24 23  1  0
 24 25  1  0
 25 26  1  0
 26 27  1  1
 27 29  1  0
 28 27  2  0
M  END
$$$$
