EYP.pdb
     RDKit          3D

 29 30  0  0  1  0  0  0  0  0999 V2000
    6.7669  -18.2767   19.0453 N   0  0  0  0  0  0  0  0  0  0  0  0
    6.5725  -18.7549   20.4271 C   0  0  1  0  0  0  0  0  0  0  0  0
    7.2520  -20.1051   20.4675 C   0  0  0  0  0  0  0  0  0  0  0  0
    8.7374  -20.0514   20.5053 C   0  0  0  0  0  0  0  0  0  0  0  0
    9.3691  -21.3888   20.5462 C   0  0  0  0  0  0  0  0  0  0  0  0
    8.7522  -22.4810   20.4673 O   0  0  0  0  0  0  0  0  0  0  0  0
    7.2073  -17.7854   21.3399 C   0  0  0  0  0  0  0  0  0  0  0  0
    8.2928  -17.2156   21.0646 O   0  0  0  0  0  0  0  0  0  0  0  0
   10.7666  -21.5234   20.6824 O   0  0  0  0  0  0  0  0  0  0  0  0
    8.4089  -11.9621   27.6575 O   0  0  0  0  0  0  0  0  0  0  0  0
    7.8366  -12.9234   26.8433 C   0  0  0  0  0  0  0  0  0  0  0  0
    7.1589  -12.6071   25.6889 C   0  0  0  0  0  0  0  0  0  0  0  0
    6.5947  -13.5746   24.8890 C   0  0  0  0  0  0  0  0  0  0  0  0
    6.7149  -14.8982   25.2597 C   0  0  0  0  0  0  0  0  0  0  0  0
    6.1287  -15.9926   24.4424 C   0  0  0  0  0  0  0  0  0  0  0  0
    7.1871  -16.5323   23.4909 C   0  0  2  0  0  0  0  0  0  0  0  0
    6.5948  -17.4628   22.5817 N   0  0  0  0  0  0  0  0  0  0  0  0
    8.3644  -16.9996   24.2428 C   0  0  0  0  0  0  0  0  0  0  0  0
    8.1411  -18.1559   24.8152 O   0  0  0  0  0  0  0  0  0  0  0  0
    7.3869  -15.2496   26.4093 C   0  0  0  0  0  0  0  0  0  0  0  0
    7.9439  -14.2376   27.1915 C   0  0  0  0  0  0  0  0  0  0  0  0
    9.6129  -16.3903   24.4046 N   0  0  0  0  0  0  0  0  0  0  0  0
    9.8351  -14.9768   24.1656 C   0  0  0  0  0  0  0  0  0  0  0  0
   11.2955  -14.8734   23.8206 C   0  0  0  0  0  0  0  0  0  0  0  0
   11.8298  -16.2859   23.8221 C   0  0  0  0  0  0  0  0  0  0  0  0
   10.8501  -16.9342   24.8249 C   0  0  1  0  0  0  0  0  0  0  0  0
   11.2799  -16.4135   26.1624 C   0  0  0  0  0  0  0  0  0  0  0  0
   10.6249  -15.5279   26.7759 O   0  0  0  0  0  0  0  0  0  0  0  0
   12.4263  -16.8968   26.7733 O   0  0  0  0  0  0  0  0  0  0  0  0
  2  1  1  6
  3  2  1  0
  4  3  1  0
  4  5  1  0
  5  9  1  0
  5  6  2  0
  7  2  1  0
  7  8  2  0
 10 11  1  0
 11 12  2  0
 12 13  1  0
 14 15  1  0
 14 13  2  0
 16 17  1  0
 16 15  1  1
 17  7  1  0
 18 16  1  0
 19 18  2  0
 20 14  1  0
 21 11  1  0
 21 20  2  0
 22 18  1  0
 22 26  1  0
 23 22  1  0
 24 23  1  0
 24 25  1  0
 25 26  1  0
 26 27  1  1
 27 29  1  0
 28 27  2  0
M  END
$$$$
