EYP.pdb
     RDKit          3D

 29 30  0  0  1  0  0  0  0  0999 V2000
   12.8315  -16.6139   20.9546 N   0  0  0  0  0  0  0  0  0  0  0  0
   11.4768  -17.0778   21.3085 C   0  0  1  0  0  0  0  0  0  0  0  0
   11.6415  -18.5482   21.6203 C   0  0  0  0  0  0  0  0  0  0  0  0
   12.9465  -18.9102   22.2339 C   0  0  0  0  0  0  0  0  0  0  0  0
   13.0905  -20.3609   22.4867 C   0  0  0  0  0  0  0  0  0  0  0  0
   14.0755  -20.9009   23.0504 O   0  0  0  0  0  0  0  0  0  0  0  0
   11.0221  -16.3081   22.4820 C   0  0  0  0  0  0  0  0  0  0  0  0
   11.8244  -15.8241   23.3192 O   0  0  0  0  0  0  0  0  0  0  0  0
   12.0833  -21.2661   22.0917 O   0  0  0  0  0  0  0  0  0  0  0  0
    6.0817  -11.6255   27.8798 O   0  0  0  0  0  0  0  0  0  0  0  0
    6.5008  -12.3937   26.8080 C   0  0  0  0  0  0  0  0  0  0  0  0
    7.1032  -11.8488   25.6979 C   0  0  0  0  0  0  0  0  0  0  0  0
    7.5148  -12.6260   24.6392 C   0  0  0  0  0  0  0  0  0  0  0  0
    7.3155  -13.9901   24.6976 C   0  0  0  0  0  0  0  0  0  0  0  0
    7.7349  -14.8870   23.5891 C   0  0  0  0  0  0  0  0  0  0  0  0
    9.1610  -15.3586   23.8355 C   0  0  2  0  0  0  0  0  0  0  0  0
    9.6347  -16.0887   22.7016 N   0  0  0  0  0  0  0  0  0  0  0  0
    9.2624  -16.0284   25.1435 C   0  0  0  0  0  0  0  0  0  0  0  0
    9.0827  -17.3210   25.0366 O   0  0  0  0  0  0  0  0  0  0  0  0
    6.7155  -14.5681   25.7942 C   0  0  0  0  0  0  0  0  0  0  0  0
    6.3133  -13.7440   26.8456 C   0  0  0  0  0  0  0  0  0  0  0  0
    9.5130  -15.4784   26.4048 N   0  0  0  0  0  0  0  0  0  0  0  0
    8.9057  -14.2415   26.8582 C   0  0  0  0  0  0  0  0  0  0  0  0
    9.8645  -13.6991   27.8825 C   0  0  0  0  0  0  0  0  0  0  0  0
   11.0328  -14.6554   27.9140 C   0  0  0  0  0  0  0  0  0  0  0  0
   10.3214  -15.9511   27.4660 C   0  0  1  0  0  0  0  0  0  0  0  0
    9.5151  -16.3699   28.6575 C   0  0  0  0  0  0  0  0  0  0  0  0
   10.0566  -16.7045   29.7458 O   0  0  0  0  0  0  0  0  0  0  0  0
    8.1307  -16.4020   28.5975 O   0  0  0  0  0  0  0  0  0  0  0  0
  2  1  1  1
  3  2  1  0
  4  3  1  0
  4  5  1  0
  5  9  1  0
  5  6  2  0
  7  2  1  0
  7  8  2  0
 10 11  1  0
 11 12  2  0
 12 13  1  0
 14 15  1  0
 14 13  2  0
 16 17  1  0
 16 15  1  6
 17  7  1  0
 18 16  1  0
 19 18  2  0
 20 14  1  0
 21 11  1  0
 21 20  2  0
 22 18  1  0
 22 26  1  0
 23 22  1  0
 24 23  1  0
 24 25  1  0
 25 26  1  0
 26 27  1  1
 27 29  1  0
 28 27  2  0
M  END
$$$$
