EYP.pdb
     RDKit          3D

 29 30  0  0  1  0  0  0  0  0999 V2000
    7.4939  -18.1752   19.4324 N   0  0  0  0  0  0  0  0  0  0  0  0
    8.5376  -17.4818   20.2104 C   0  0  1  0  0  0  0  0  0  0  0  0
    9.1614  -16.5073   19.2369 C   0  0  0  0  0  0  0  0  0  0  0  0
    9.7125  -17.1289   18.0038 C   0  0  0  0  0  0  0  0  0  0  0  0
   10.3979  -16.1615   17.1185 C   0  0  0  0  0  0  0  0  0  0  0  0
    9.9516  -15.7482   16.0187 O   0  0  0  0  0  0  0  0  0  0  0  0
    7.8848  -16.7963   21.3419 C   0  0  0  0  0  0  0  0  0  0  0  0
    7.0588  -15.8641   21.1757 O   0  0  0  0  0  0  0  0  0  0  0  0
   11.6514  -15.6206   17.4733 O   0  0  0  0  0  0  0  0  0  0  0  0
    3.2089  -20.2424   21.0811 O   0  0  0  0  0  0  0  0  0  0  0  0
    4.0478  -19.5611   21.9453 C   0  0  0  0  0  0  0  0  0  0  0  0
    3.6802  -18.3876   22.5615 C   0  0  0  0  0  0  0  0  0  0  0  0
    4.5257  -17.7210   23.4189 C   0  0  0  0  0  0  0  0  0  0  0  0
    5.7766  -18.2489   23.6643 C   0  0  0  0  0  0  0  0  0  0  0  0
    6.7391  -17.5800   24.5783 C   0  0  0  0  0  0  0  0  0  0  0  0
    7.5452  -16.5528   23.7960 C   0  0  2  0  0  0  0  0  0  0  0  0
    8.1789  -17.1802   22.6788 N   0  0  0  0  0  0  0  0  0  0  0  0
    8.4134  -15.7818   24.7023 C   0  0  0  0  0  0  0  0  0  0  0  0
    9.6805  -15.9827   24.4403 O   0  0  0  0  0  0  0  0  0  0  0  0
    6.1764  -19.4221   23.0640 C   0  0  0  0  0  0  0  0  0  0  0  0
    5.2885  -20.0657   22.2016 C   0  0  0  0  0  0  0  0  0  0  0  0
    8.0630  -14.9153   25.7428 N   0  0  0  0  0  0  0  0  0  0  0  0
    6.6914  -14.7144   26.1707 C   0  0  0  0  0  0  0  0  0  0  0  0
    6.6801  -13.3399   26.7814 C   0  0  0  0  0  0  0  0  0  0  0  0
    8.0759  -12.7902   26.6079 C   0  0  0  0  0  0  0  0  0  0  0  0
    8.8748  -14.1117   26.5784 C   0  0  1  0  0  0  0  0  0  0  0  0
    8.8763  -14.5834   28.0005 C   0  0  0  0  0  0  0  0  0  0  0  0
    8.0923  -15.4836   28.4061 O   0  0  0  0  0  0  0  0  0  0  0  0
    9.7521  -14.0362   28.9251 O   0  0  0  0  0  0  0  0  0  0  0  0
  2  1  1  6
  3  2  1  0
  4  3  1  0
  4  5  1  0
  5  9  1  0
  5  6  2  0
  7  2  1  0
  7  8  2  0
 10 11  1  0
 11 12  2  0
 12 13  1  0
 14 15  1  0
 14 13  2  0
 16 17  1  0
 16 15  1  1
 17  7  1  0
 18 16  1  0
 19 18  2  0
 20 14  1  0
 21 11  1  0
 21 20  2  0
 22 18  1  0
 22 26  1  0
 23 22  1  0
 24 23  1  0
 24 25  1  0
 25 26  1  0
 26 27  1  1
 27 29  1  0
 28 27  2  0
M  END
$$$$
