EYP.pdb
     RDKit          3D

 29 30  0  0  1  0  0  0  0  0999 V2000
    6.4190  -18.5515   21.2768 N   0  0  0  0  0  0  0  0  0  0  0  0
    7.1940  -17.2968   21.3065 C   0  0  1  0  0  0  0  0  0  0  0  0
    6.3867  -16.3247   20.4760 C   0  0  0  0  0  0  0  0  0  0  0  0
    7.1608  -15.6167   19.4224 C   0  0  0  0  0  0  0  0  0  0  0  0
    7.8476  -16.5341   18.4866 C   0  0  0  0  0  0  0  0  0  0  0  0
    9.0900  -16.5794   18.3020 O   0  0  0  0  0  0  0  0  0  0  0  0
    7.3100  -16.8645   22.7122 C   0  0  0  0  0  0  0  0  0  0  0  0
    6.3040  -16.6543   23.4351 O   0  0  0  0  0  0  0  0  0  0  0  0
    7.1143  -17.4554   17.7100 O   0  0  0  0  0  0  0  0  0  0  0  0
   10.4247  -14.5201   30.4645 O   0  0  0  0  0  0  0  0  0  0  0  0
   10.2945  -15.0887   29.2098 C   0  0  0  0  0  0  0  0  0  0  0  0
    9.7465  -16.3353   29.0157 C   0  0  0  0  0  0  0  0  0  0  0  0
    9.6236  -16.8879   27.7612 C   0  0  0  0  0  0  0  0  0  0  0  0
   10.0641  -16.1672   26.6702 C   0  0  0  0  0  0  0  0  0  0  0  0
    9.9622  -16.7051   25.2883 C   0  0  0  0  0  0  0  0  0  0  0  0
    8.7394  -16.1092   24.6052 C   0  0  2  0  0  0  0  0  0  0  0  0
    8.5904  -16.6699   23.2989 N   0  0  0  0  0  0  0  0  0  0  0  0
    8.7651  -14.6392   24.6956 C   0  0  0  0  0  0  0  0  0  0  0  0
    9.6609  -14.1239   23.8915 O   0  0  0  0  0  0  0  0  0  0  0  0
   10.6177  -14.9163   26.8291 C   0  0  0  0  0  0  0  0  0  0  0  0
   10.7237  -14.3931   28.1180 C   0  0  0  0  0  0  0  0  0  0  0  0
    7.9924  -13.7855   25.4895 N   0  0  0  0  0  0  0  0  0  0  0  0
    7.0795  -14.2700   26.5076 C   0  0  0  0  0  0  0  0  0  0  0  0
    6.0464  -13.1849   26.6408 C   0  0  0  0  0  0  0  0  0  0  0  0
    6.4034  -12.1350   25.6157 C   0  0  0  0  0  0  0  0  0  0  0  0
    7.9266  -12.3720   25.5193 C   0  0  1  0  0  0  0  0  0  0  0  0
    8.4784  -11.7996   26.7892 C   0  0  0  0  0  0  0  0  0  0  0  0
    8.6051  -10.5571   26.9618 O   0  0  0  0  0  0  0  0  0  0  0  0
    8.8714  -12.6309   27.8264 O   0  0  0  0  0  0  0  0  0  0  0  0
  2  1  1  1
  3  2  1  0
  4  3  1  0
  4  5  1  0
  5  9  1  0
  5  6  2  0
  7  2  1  0
  7  8  2  0
 10 11  1  0
 11 12  2  0
 12 13  1  0
 14 15  1  0
 14 13  2  0
 16 17  1  0
 16 15  1  6
 17  7  1  0
 18 16  1  0
 19 18  2  0
 20 14  1  0
 21 11  1  0
 21 20  2  0
 22 18  1  0
 22 26  1  0
 23 22  1  0
 24 23  1  0
 24 25  1  0
 25 26  1  0
 26 27  1  1
 27 29  1  0
 28 27  2  0
M  END
$$$$
