EYP.pdb
     RDKit          3D

 29 30  0  0  1  0  0  0  0  0999 V2000
   12.1502  -16.6253   20.3338 N   0  0  0  0  0  0  0  0  0  0  0  0
   11.0704  -17.2480   21.1223 C   0  0  1  0  0  0  0  0  0  0  0  0
   11.6659  -18.5373   21.6416 C   0  0  0  0  0  0  0  0  0  0  0  0
   11.8720  -19.5862   20.6082 C   0  0  0  0  0  0  0  0  0  0  0  0
   12.3127  -20.8817   21.1710 C   0  0  0  0  0  0  0  0  0  0  0  0
   11.5647  -21.7079   21.7521 O   0  0  0  0  0  0  0  0  0  0  0  0
   10.7095  -16.3232   22.2135 C   0  0  0  0  0  0  0  0  0  0  0  0
   11.5738  -15.6932   22.8730 O   0  0  0  0  0  0  0  0  0  0  0  0
   13.6615  -21.2851   21.0845 O   0  0  0  0  0  0  0  0  0  0  0  0
    6.0790  -11.9145   28.1318 O   0  0  0  0  0  0  0  0  0  0  0  0
    6.4275  -12.6583   27.0183 C   0  0  0  0  0  0  0  0  0  0  0  0
    6.1933  -14.0108   26.9292 C   0  0  0  0  0  0  0  0  0  0  0  0
    6.5456  -14.7376   25.8147 C   0  0  0  0  0  0  0  0  0  0  0  0
    7.1507  -14.0866   24.7593 C   0  0  0  0  0  0  0  0  0  0  0  0
    7.5576  -14.8112   23.5270 C   0  0  0  0  0  0  0  0  0  0  0  0
    8.9674  -15.3565   23.7061 C   0  0  2  0  0  0  0  0  0  0  0  0
    9.3452  -16.1155   22.5553 N   0  0  0  0  0  0  0  0  0  0  0  0
    9.0982  -16.0250   25.0121 C   0  0  0  0  0  0  0  0  0  0  0  0
    8.7822  -17.2935   24.9364 O   0  0  0  0  0  0  0  0  0  0  0  0
    7.3997  -12.7333   24.8158 C   0  0  0  0  0  0  0  0  0  0  0  0
    7.0266  -12.0343   25.9640 C   0  0  0  0  0  0  0  0  0  0  0  0
    9.4959  -15.4954   26.2440 N   0  0  0  0  0  0  0  0  0  0  0  0
    9.0813  -14.1846   26.7073 C   0  0  0  0  0  0  0  0  0  0  0  0
   10.1641  -13.7569   27.6597 C   0  0  0  0  0  0  0  0  0  0  0  0
   11.2004  -14.8553   27.6403 C   0  0  0  0  0  0  0  0  0  0  0  0
   10.3025  -16.0543   27.2638 C   0  0  1  0  0  0  0  0  0  0  0  0
    9.5260  -16.3501   28.5107 C   0  0  0  0  0  0  0  0  0  0  0  0
    8.3069  -16.0494   28.6250 O   0  0  0  0  0  0  0  0  0  0  0  0
   10.1336  -16.9718   29.5902 O   0  0  0  0  0  0  0  0  0  0  0  0
  2  1  1  6
  3  2  1  0
  4  3  1  0
  4  5  1  0
  5  9  1  0
  5  6  2  0
  7  2  1  0
  7  8  2  0
 10 11  1  0
 11 12  2  0
 12 13  1  0
 14 15  1  0
 14 13  2  0
 16 17  1  0
 16 15  1  6
 17  7  1  0
 18 16  1  0
 19 18  2  0
 20 14  1  0
 21 11  1  0
 21 20  2  0
 22 18  1  0
 22 26  1  0
 23 22  1  0
 24 23  1  0
 24 25  1  0
 25 26  1  0
 26 27  1  1
 27 29  1  0
 28 27  2  0
M  END
$$$$
