EYP.pdb
     RDKit          3D

 29 30  0  0  1  0  0  0  0  0999 V2000
    8.5212  -14.9960   17.8386 N   0  0  0  0  0  0  0  0  0  0  0  0
    7.9775  -16.0049   18.7671 C   0  0  1  0  0  0  0  0  0  0  0  0
    8.6444  -17.3004   18.3631 C   0  0  0  0  0  0  0  0  0  0  0  0
   10.0347  -17.1515   17.8574 C   0  0  0  0  0  0  0  0  0  0  0  0
   10.6306  -18.4275   17.4034 C   0  0  0  0  0  0  0  0  0  0  0  0
   10.7928  -18.7612   16.2025 O   0  0  0  0  0  0  0  0  0  0  0  0
    8.3336  -15.6010   20.1405 C   0  0  0  0  0  0  0  0  0  0  0  0
    9.5202  -15.3771   20.4881 O   0  0  0  0  0  0  0  0  0  0  0  0
   11.0729  -19.3897   18.3351 O   0  0  0  0  0  0  0  0  0  0  0  0
    7.7099  -12.5807   28.2759 O   0  0  0  0  0  0  0  0  0  0  0  0
    7.4224  -12.9573   26.9759 C   0  0  0  0  0  0  0  0  0  0  0  0
    7.8292  -12.2234   25.8860 C   0  0  0  0  0  0  0  0  0  0  0  0
    7.5356  -12.6107   24.5983 C   0  0  0  0  0  0  0  0  0  0  0  0
    6.8122  -13.7688   24.4000 C   0  0  0  0  0  0  0  0  0  0  0  0
    6.4600  -14.2437   23.0364 C   0  0  0  0  0  0  0  0  0  0  0  0
    7.6300  -15.0274   22.4586 C   0  0  2  0  0  0  0  0  0  0  0  0
    7.3223  -15.4511   21.1286 N   0  0  0  0  0  0  0  0  0  0  0  0
    8.0654  -16.0717   23.4018 C   0  0  0  0  0  0  0  0  0  0  0  0
    7.2844  -17.1214   23.3506 O   0  0  0  0  0  0  0  0  0  0  0  0
    6.3895  -14.5271   25.4691 C   0  0  0  0  0  0  0  0  0  0  0  0
    6.7086  -14.0986   26.7578 C   0  0  0  0  0  0  0  0  0  0  0  0
    9.1474  -16.0715   24.2881 N   0  0  0  0  0  0  0  0  0  0  0  0
    9.8738  -14.8666   24.6421 C   0  0  0  0  0  0  0  0  0  0  0  0
   11.2431  -15.3489   25.0360 C   0  0  0  0  0  0  0  0  0  0  0  0
   11.2416  -16.8435   24.8199 C   0  0  0  0  0  0  0  0  0  0  0  0
    9.7371  -17.1337   25.0141 C   0  0  1  0  0  0  0  0  0  0  0  0
    9.5166  -17.0099   26.4909 C   0  0  0  0  0  0  0  0  0  0  0  0
    8.9897  -15.9856   27.0036 O   0  0  0  0  0  0  0  0  0  0  0  0
    9.8907  -18.0321   27.3490 O   0  0  0  0  0  0  0  0  0  0  0  0
  2  1  1  6
  3  2  1  0
  4  3  1  0
  4  5  1  0
  5  9  1  0
  5  6  2  0
  7  2  1  0
  7  8  2  0
 10 11  1  0
 11 12  2  0
 12 13  1  0
 14 15  1  0
 14 13  2  0
 16 17  1  0
 16 15  1  1
 17  7  1  0
 18 16  1  0
 19 18  2  0
 20 14  1  0
 21 11  1  0
 21 20  2  0
 22 18  1  0
 22 26  1  0
 23 22  1  0
 24 23  1  0
 24 25  1  0
 25 26  1  0
 26 27  1  1
 27 29  1  0
 28 27  2  0
M  END
$$$$
