EYP.pdb
     RDKit          3D

 29 30  0  0  1  0  0  0  0  0999 V2000
    5.5394  -19.4086   23.8163 N   0  0  0  0  0  0  0  0  0  0  0  0
    6.9382  -18.9461   23.8858 C   0  0  1  0  0  0  0  0  0  0  0  0
    7.3216  -18.6589   22.4515 C   0  0  0  0  0  0  0  0  0  0  0  0
    6.1796  -18.6170   21.5003 C   0  0  0  0  0  0  0  0  0  0  0  0
    6.5096  -19.1678   20.1673 C   0  0  0  0  0  0  0  0  0  0  0  0
    5.7207  -19.2133   19.1899 O   0  0  0  0  0  0  0  0  0  0  0  0
    6.9776  -17.7337   24.7253 C   0  0  0  0  0  0  0  0  0  0  0  0
    5.9387  -17.1001   25.0386 O   0  0  0  0  0  0  0  0  0  0  0  0
    7.7890  -19.6992   19.9022 O   0  0  0  0  0  0  0  0  0  0  0  0
   10.6312  -16.0878   31.5351 O   0  0  0  0  0  0  0  0  0  0  0  0
   10.4367  -16.0088   30.1675 C   0  0  0  0  0  0  0  0  0  0  0  0
   10.4272  -17.1195   29.3562 C   0  0  0  0  0  0  0  0  0  0  0  0
   10.2327  -17.0252   27.9969 C   0  0  0  0  0  0  0  0  0  0  0  0
   10.0421  -15.7788   27.4367 C   0  0  0  0  0  0  0  0  0  0  0  0
    9.8275  -15.6056   25.9761 C   0  0  0  0  0  0  0  0  0  0  0  0
    8.3682  -15.8851   25.6453 C   0  0  2  0  0  0  0  0  0  0  0  0
    8.2184  -17.2392   25.2126 N   0  0  0  0  0  0  0  0  0  0  0  0
    7.8343  -14.8421   24.7527 C   0  0  0  0  0  0  0  0  0  0  0  0
    7.7092  -15.2785   23.5245 O   0  0  0  0  0  0  0  0  0  0  0  0
   10.0457  -14.6462   28.2201 C   0  0  0  0  0  0  0  0  0  0  0  0
   10.2465  -14.7864   29.5935 C   0  0  0  0  0  0  0  0  0  0  0  0
    7.4686  -13.5246   25.0471 N   0  0  0  0  0  0  0  0  0  0  0  0
    7.5447  -12.9673   26.3843 C   0  0  0  0  0  0  0  0  0  0  0  0
    6.5216  -11.8647   26.3965 C   0  0  0  0  0  0  0  0  0  0  0  0
    5.8540  -11.8942   25.0423 C   0  0  0  0  0  0  0  0  0  0  0  0
    7.0015  -12.4923   24.1989 C   0  0  1  0  0  0  0  0  0  0  0  0
    7.9894  -11.3745   24.0596 C   0  0  0  0  0  0  0  0  0  0  0  0
    9.0248  -11.3055   24.7757 O   0  0  0  0  0  0  0  0  0  0  0  0
    7.7913  -10.3692   23.1262 O   0  0  0  0  0  0  0  0  0  0  0  0
  2  1  1  6
  3  2  1  0
  4  3  1  0
  4  5  1  0
  5  9  1  0
  5  6  2  0
  7  2  1  0
  7  8  2  0
 10 11  1  0
 11 12  2  0
 12 13  1  0
 14 15  1  0
 14 13  2  0
 16 17  1  0
 16 15  1  6
 17  7  1  0
 18 16  1  0
 19 18  2  0
 20 14  1  0
 21 11  1  0
 21 20  2  0
 22 18  1  0
 22 26  1  0
 23 22  1  0
 24 23  1  0
 24 25  1  0
 25 26  1  0
 26 27  1  1
 27 29  1  0
 28 27  2  0
M  END
$$$$
