EYP.pdb
     RDKit          3D

 29 30  0  0  1  0  0  0  0  0999 V2000
    9.7172  -16.7137   18.5075 N   0  0  0  0  0  0  0  0  0  0  0  0
    8.5391  -16.9862   19.3523 C   0  0  1  0  0  0  0  0  0  0  0  0
    8.4588  -18.4943   19.4279 C   0  0  0  0  0  0  0  0  0  0  0  0
    9.7701  -19.1905   19.3478 C   0  0  0  0  0  0  0  0  0  0  0  0
    9.6501  -20.6652   19.3631 C   0  0  0  0  0  0  0  0  0  0  0  0
    9.8308  -21.3934   20.3713 O   0  0  0  0  0  0  0  0  0  0  0  0
    8.7734  -16.3749   20.6743 C   0  0  0  0  0  0  0  0  0  0  0  0
    9.9141  -16.3273   21.1992 O   0  0  0  0  0  0  0  0  0  0  0  0
    9.3096  -21.3740   18.1921 O   0  0  0  0  0  0  0  0  0  0  0  0
    7.4775  -11.9561   28.0793 O   0  0  0  0  0  0  0  0  0  0  0  0
    7.3087  -12.5014   26.8189 C   0  0  0  0  0  0  0  0  0  0  0  0
    7.8255  -11.9185   25.6853 C   0  0  0  0  0  0  0  0  0  0  0  0
    7.6492  -12.4728   24.4379 C   0  0  0  0  0  0  0  0  0  0  0  0
    6.9329  -13.6467   24.3263 C   0  0  0  0  0  0  0  0  0  0  0  0
    6.7043  -14.2979   23.0099 C   0  0  0  0  0  0  0  0  0  0  0  0
    7.8885  -15.1957   22.6802 C   0  0  2  0  0  0  0  0  0  0  0  0
    7.6920  -15.8114   21.4053 N   0  0  0  0  0  0  0  0  0  0  0  0
    8.1838  -16.0932   23.8102 C   0  0  0  0  0  0  0  0  0  0  0  0
    7.3080  -17.0629   23.8952 O   0  0  0  0  0  0  0  0  0  0  0  0
    6.4018  -14.2567   25.4410 C   0  0  0  0  0  0  0  0  0  0  0  0
    6.6039  -13.6614   26.6864 C   0  0  0  0  0  0  0  0  0  0  0  0
    9.2250  -16.0332   24.7422 N   0  0  0  0  0  0  0  0  0  0  0  0
    9.9731  -14.8192   25.0086 C   0  0  0  0  0  0  0  0  0  0  0  0
   11.3075  -15.2966   25.5127 C   0  0  0  0  0  0  0  0  0  0  0  0
   11.2679  -16.8047   25.4464 C   0  0  0  0  0  0  0  0  0  0  0  0
    9.7477  -17.0326   25.5972 C   0  0  1  0  0  0  0  0  0  0  0  0
    9.4662  -16.7547   27.0423 C   0  0  0  0  0  0  0  0  0  0  0  0
    9.0180  -15.6430   27.4333 O   0  0  0  0  0  0  0  0  0  0  0  0
    9.6933  -17.7252   28.0054 O   0  0  0  0  0  0  0  0  0  0  0  0
  2  1  1  6
  3  2  1  0
  4  3  1  0
  4  5  1  0
  5  9  1  0
  5  6  2  0
  7  2  1  0
  7  8  2  0
 10 11  1  0
 11 12  2  0
 12 13  1  0
 14 15  1  0
 14 13  2  0
 16 17  1  0
 16 15  1  1
 17  7  1  0
 18 16  1  0
 19 18  2  0
 20 14  1  0
 21 11  1  0
 21 20  2  0
 22 18  1  0
 22 26  1  0
 23 22  1  0
 24 23  1  0
 24 25  1  0
 25 26  1  0
 26 27  1  1
 27 29  1  0
 28 27  2  0
M  END
$$$$
