EYP.pdb
     RDKit          3D

 29 30  0  0  1  0  0  0  0  0999 V2000
   11.0923  -16.7055   19.4286 N   0  0  0  0  0  0  0  0  0  0  0  0
    9.8654  -17.1300   20.1287 C   0  0  1  0  0  0  0  0  0  0  0  0
   10.0352  -18.6181   20.3371 C   0  0  0  0  0  0  0  0  0  0  0  0
    8.7631  -19.3725   20.4897 C   0  0  0  0  0  0  0  0  0  0  0  0
    8.8913  -20.8075   20.1524 C   0  0  0  0  0  0  0  0  0  0  0  0
    8.9781  -21.2698   18.9869 O   0  0  0  0  0  0  0  0  0  0  0  0
    9.7900  -16.3948   21.4053 C   0  0  0  0  0  0  0  0  0  0  0  0
   10.7885  -16.2439   22.1531 O   0  0  0  0  0  0  0  0  0  0  0  0
    8.9253  -21.7873   21.1665 O   0  0  0  0  0  0  0  0  0  0  0  0
    6.9004  -11.5013   27.9892 O   0  0  0  0  0  0  0  0  0  0  0  0
    6.9402  -12.2349   26.8167 C   0  0  0  0  0  0  0  0  0  0  0  0
    6.3930  -13.4926   26.7121 C   0  0  0  0  0  0  0  0  0  0  0  0
    6.4404  -14.2105   25.5387 C   0  0  0  0  0  0  0  0  0  0  0  0
    7.0553  -13.6485   24.4388 C   0  0  0  0  0  0  0  0  0  0  0  0
    7.1425  -14.3692   23.1418 C   0  0  0  0  0  0  0  0  0  0  0  0
    8.4347  -15.1726   23.0985 C   0  0  2  0  0  0  0  0  0  0  0  0
    8.5595  -15.8252   21.8329 N   0  0  0  0  0  0  0  0  0  0  0  0
    8.5523  -16.0225   24.2958 C   0  0  0  0  0  0  0  0  0  0  0  0
    7.7949  -17.0868   24.2059 O   0  0  0  0  0  0  0  0  0  0  0  0
    7.6132  -12.3914   24.5093 C   0  0  0  0  0  0  0  0  0  0  0  0
    7.5432  -11.6979   25.7178 C   0  0  0  0  0  0  0  0  0  0  0  0
    9.3300  -15.8360   25.4433 N   0  0  0  0  0  0  0  0  0  0  0  0
    9.7653  -14.5277   25.8942 C   0  0  0  0  0  0  0  0  0  0  0  0
   11.0174  -14.7939   26.6841 C   0  0  0  0  0  0  0  0  0  0  0  0
   11.2695  -16.2796   26.5862 C   0  0  0  0  0  0  0  0  0  0  0  0
    9.8218  -16.7767   26.3793 C   0  0  1  0  0  0  0  0  0  0  0  0
    9.1787  -16.6354   27.7252 C   0  0  0  0  0  0  0  0  0  0  0  0
    9.5339  -17.3357   28.7116 O   0  0  0  0  0  0  0  0  0  0  0  0
    8.1600  -15.7177   27.9282 O   0  0  0  0  0  0  0  0  0  0  0  0
  2  1  1  6
  3  2  1  0
  4  3  1  0
  4  5  1  0
  5  9  1  0
  5  6  2  0
  7  2  1  0
  7  8  2  0
 10 11  1  0
 11 12  2  0
 12 13  1  0
 14 15  1  0
 14 13  2  0
 16 17  1  0
 16 15  1  6
 17  7  1  0
 18 16  1  0
 19 18  2  0
 20 14  1  0
 21 11  1  0
 21 20  2  0
 22 18  1  0
 22 26  1  0
 23 22  1  0
 24 23  1  0
 24 25  1  0
 25 26  1  0
 26 27  1  1
 27 29  1  0
 28 27  2  0
M  END
$$$$
