EYP.pdb
     RDKit          3D

 29 30  0  0  1  0  0  0  0  0999 V2000
    8.0684  -17.5828   20.0042 N   0  0  0  0  0  0  0  0  0  0  0  0
    8.3360  -18.0317   21.3835 C   0  0  1  0  0  0  0  0  0  0  0  0
    9.8365  -18.2069   21.4481 C   0  0  0  0  0  0  0  0  0  0  0  0
   10.6186  -17.0692   20.8962 C   0  0  0  0  0  0  0  0  0  0  0  0
   12.0802  -17.2976   20.9237 C   0  0  0  0  0  0  0  0  0  0  0  0
   12.6399  -18.3390   21.3501 O   0  0  0  0  0  0  0  0  0  0  0  0
    7.8583  -16.9842   22.3058 C   0  0  0  0  0  0  0  0  0  0  0  0
    7.7747  -15.7774   21.9657 O   0  0  0  0  0  0  0  0  0  0  0  0
   12.9737  -16.3140   20.4507 O   0  0  0  0  0  0  0  0  0  0  0  0
    9.5243  -20.5141   28.5131 O   0  0  0  0  0  0  0  0  0  0  0  0
    8.6945  -19.6827   27.7819 C   0  0  0  0  0  0  0  0  0  0  0  0
    8.0963  -20.0803   26.6088 C   0  0  0  0  0  0  0  0  0  0  0  0
    7.2730  -19.2418   25.8922 C   0  0  0  0  0  0  0  0  0  0  0  0
    7.0442  -17.9670   26.3680 C   0  0  0  0  0  0  0  0  0  0  0  0
    6.1671  -17.0106   25.6434 C   0  0  0  0  0  0  0  0  0  0  0  0
    6.9650  -16.3351   24.5370 C   0  0  2  0  0  0  0  0  0  0  0  0
    7.4715  -17.3191   23.6324 N   0  0  0  0  0  0  0  0  0  0  0  0
    7.9445  -15.3956   25.1094 C   0  0  0  0  0  0  0  0  0  0  0  0
    9.1701  -15.7215   24.7836 O   0  0  0  0  0  0  0  0  0  0  0  0
    7.6273  -17.5370   27.5392 C   0  0  0  0  0  0  0  0  0  0  0  0
    8.4551  -18.4188   28.2346 C   0  0  0  0  0  0  0  0  0  0  0  0
    7.7300  -14.2680   25.9086 N   0  0  0  0  0  0  0  0  0  0  0  0
    6.4269  -13.9178   26.4413 C   0  0  0  0  0  0  0  0  0  0  0  0
    6.4866  -12.4290   26.6471 C   0  0  0  0  0  0  0  0  0  0  0  0
    7.8420  -11.9887   26.1475 C   0  0  0  0  0  0  0  0  0  0  0  0
    8.6403  -13.2908   26.3772 C   0  0  1  0  0  0  0  0  0  0  0  0
    8.8367  -13.3559   27.8612 C   0  0  0  0  0  0  0  0  0  0  0  0
    9.6933  -12.6449   28.4530 O   0  0  0  0  0  0  0  0  0  0  0  0
    8.0715  -14.2117   28.6380 O   0  0  0  0  0  0  0  0  0  0  0  0
  2  1  1  6
  3  2  1  0
  4  3  1  0
  4  5  1  0
  5  9  1  0
  5  6  2  0
  7  2  1  0
  7  8  2  0
 10 11  1  0
 11 12  2  0
 12 13  1  0
 14 15  1  0
 14 13  2  0
 16 17  1  0
 16 15  1  1
 17  7  1  0
 18 16  1  0
 19 18  2  0
 20 14  1  0
 21 11  1  0
 21 20  2  0
 22 18  1  0
 22 26  1  0
 23 22  1  0
 24 23  1  0
 24 25  1  0
 25 26  1  0
 26 27  1  1
 27 29  1  0
 28 27  2  0
M  END
$$$$
