EYP.pdb
     RDKit          3D

 29 30  0  0  1  0  0  0  0  0999 V2000
   12.7813  -16.5455   20.6023 N   0  0  0  0  0  0  0  0  0  0  0  0
   11.4718  -17.0512   21.0550 C   0  0  1  0  0  0  0  0  0  0  0  0
   11.7193  -18.5001   21.4101 C   0  0  0  0  0  0  0  0  0  0  0  0
   13.0426  -18.7694   22.0321 C   0  0  0  0  0  0  0  0  0  0  0  0
   13.2621  -20.1995   22.3416 C   0  0  0  0  0  0  0  0  0  0  0  0
   13.6758  -21.0595   21.5237 O   0  0  0  0  0  0  0  0  0  0  0  0
   11.0541  -16.2556   22.2249 C   0  0  0  0  0  0  0  0  0  0  0  0
   11.8826  -15.7438   23.0190 O   0  0  0  0  0  0  0  0  0  0  0  0
   13.0082  -20.7060   23.6334 O   0  0  0  0  0  0  0  0  0  0  0  0
    6.3661  -11.4238   27.6789 O   0  0  0  0  0  0  0  0  0  0  0  0
    6.6986  -12.3087   26.6686 C   0  0  0  0  0  0  0  0  0  0  0  0
    6.4355  -13.6564   26.7493 C   0  0  0  0  0  0  0  0  0  0  0  0
    6.7723  -14.5247   25.7359 C   0  0  0  0  0  0  0  0  0  0  0  0
    7.3914  -14.0244   24.6089 C   0  0  0  0  0  0  0  0  0  0  0  0
    7.7828  -14.9064   23.4784 C   0  0  0  0  0  0  0  0  0  0  0  0
    9.2348  -15.3300   23.6499 C   0  0  2  0  0  0  0  0  0  0  0  0
    9.6739  -16.0420   22.4909 N   0  0  0  0  0  0  0  0  0  0  0  0
    9.4257  -15.9978   24.9488 C   0  0  0  0  0  0  0  0  0  0  0  0
    9.3944  -17.3013   24.8281 O   0  0  0  0  0  0  0  0  0  0  0  0
    7.6694  -12.6803   24.4957 C   0  0  0  0  0  0  0  0  0  0  0  0
    7.3112  -11.8349   25.5461 C   0  0  0  0  0  0  0  0  0  0  0  0
    9.6244  -15.4364   26.2143 N   0  0  0  0  0  0  0  0  0  0  0  0
    9.0424  -14.1686   26.6125 C   0  0  0  0  0  0  0  0  0  0  0  0
    9.9610  -13.6469   27.6833 C   0  0  0  0  0  0  0  0  0  0  0  0
   11.0857  -14.6482   27.7981 C   0  0  0  0  0  0  0  0  0  0  0  0
   10.3496  -15.9222   27.3284 C   0  0  1  0  0  0  0  0  0  0  0  0
    9.4588  -16.2879   28.4763 C   0  0  0  0  0  0  0  0  0  0  0  0
    9.9216  -16.6125   29.6033 O   0  0  0  0  0  0  0  0  0  0  0  0
    8.0804  -16.2799   28.3310 O   0  0  0  0  0  0  0  0  0  0  0  0
  2  1  1  1
  3  2  1  0
  4  3  1  0
  4  5  1  0
  5  9  1  0
  5  6  2  0
  7  2  1  0
  7  8  2  0
 10 11  1  0
 11 12  2  0
 12 13  1  0
 14 15  1  0
 14 13  2  0
 16 17  1  0
 16 15  1  6
 17  7  1  0
 18 16  1  0
 19 18  2  0
 20 14  1  0
 21 11  1  0
 21 20  2  0
 22 18  1  0
 22 26  1  0
 23 22  1  0
 24 23  1  0
 24 25  1  0
 25 26  1  0
 26 27  1  1
 27 29  1  0
 28 27  2  0
M  END
$$$$
