EYP.pdb
     RDKit          3D

 29 30  0  0  1  0  0  0  0  0999 V2000
    8.2466  -17.2993   19.5262 N   0  0  0  0  0  0  0  0  0  0  0  0
    7.6511  -17.7352   20.8033 C   0  0  1  0  0  0  0  0  0  0  0  0
    7.8308  -19.2365   20.8204 C   0  0  0  0  0  0  0  0  0  0  0  0
    8.2815  -19.8224   19.5304 C   0  0  0  0  0  0  0  0  0  0  0  0
    8.6018  -21.2639   19.6241 C   0  0  0  0  0  0  0  0  0  0  0  0
    9.7284  -21.7349   19.9221 O   0  0  0  0  0  0  0  0  0  0  0  0
    8.3855  -17.0748   21.8991 C   0  0  0  0  0  0  0  0  0  0  0  0
    9.6361  -16.9529   21.8912 O   0  0  0  0  0  0  0  0  0  0  0  0
    7.6156  -22.2405   19.3729 O   0  0  0  0  0  0  0  0  0  0  0  0
   10.1321  -13.3942   29.6042 O   0  0  0  0  0  0  0  0  0  0  0  0
    9.4691  -13.8079   28.4624 C   0  0  0  0  0  0  0  0  0  0  0  0
    9.2800  -12.9842   27.3771 C   0  0  0  0  0  0  0  0  0  0  0  0
    8.6182  -13.4100   26.2480 C   0  0  0  0  0  0  0  0  0  0  0  0
    8.1323  -14.7008   26.2081 C   0  0  0  0  0  0  0  0  0  0  0  0
    7.4077  -15.2242   25.0206 C   0  0  0  0  0  0  0  0  0  0  0  0
    8.3702  -16.0279   24.1576 C   0  0  2  0  0  0  0  0  0  0  0  0
    7.6830  -16.5474   23.0170 N   0  0  0  0  0  0  0  0  0  0  0  0
    9.1126  -16.9973   24.9814 C   0  0  0  0  0  0  0  0  0  0  0  0
    8.3427  -17.9787   25.3796 O   0  0  0  0  0  0  0  0  0  0  0  0
    8.3043  -15.5516   27.2772 C   0  0  0  0  0  0  0  0  0  0  0  0
    8.9809  -15.0799   28.4024 C   0  0  0  0  0  0  0  0  0  0  0  0
   10.4585  -16.9912   25.3621 N   0  0  0  0  0  0  0  0  0  0  0  0
   11.2456  -15.7757   25.4494 C   0  0  0  0  0  0  0  0  0  0  0  0
   12.6660  -16.2257   25.2434 C   0  0  0  0  0  0  0  0  0  0  0  0
   12.6034  -17.7115   24.9808 C   0  0  0  0  0  0  0  0  0  0  0  0
   11.3068  -18.0571   25.7457 C   0  0  1  0  0  0  0  0  0  0  0  0
   11.6928  -17.9898   27.1919 C   0  0  0  0  0  0  0  0  0  0  0  0
   12.3690  -18.8988   27.7453 O   0  0  0  0  0  0  0  0  0  0  0  0
   11.3127  -16.9111   27.9749 O   0  0  0  0  0  0  0  0  0  0  0  0
  2  1  1  6
  3  2  1  0
  4  3  1  0
  4  5  1  0
  5  9  1  0
  5  6  2  0
  7  2  1  0
  7  8  2  0
 10 11  1  0
 11 12  2  0
 12 13  1  0
 14 15  1  0
 14 13  2  0
 16 17  1  0
 16 15  1  1
 17  7  1  0
 18 16  1  0
 19 18  2  0
 20 14  1  0
 21 11  1  0
 21 20  2  0
 22 18  1  0
 22 26  1  0
 23 22  1  0
 24 23  1  0
 24 25  1  0
 25 26  1  0
 26 27  1  1
 27 29  1  0
 28 27  2  0
M  END
$$$$
