IVP.pdb
     RDKit          3D

 23 23  0  0  1  0  0  0  0  0999 V2000
   11.0010  -15.1978   30.8703 C   0  0  0  0  0  0  0  0  0  0  0  0
   10.1930  -16.3364   30.3224 C   0  0  0  0  0  0  0  0  0  0  0  0
    9.8339  -16.1003   28.8946 C   0  0  2  0  0  0  0  0  0  0  0  0
   10.1478  -14.6774   28.4975 C   0  0  0  0  0  0  0  0  0  0  0  0
    8.4719  -16.5339   28.4852 C   0  0  2  0  0  0  0  0  0  0  0  0
    8.4302  -18.0052   28.5821 N   0  0  0  0  0  0  0  0  0  0  0  0
    8.0571  -16.1881   27.1276 C   0  0  0  0  0  0  0  0  0  0  0  0
    7.8288  -17.0837   26.2304 O   0  0  0  0  0  0  0  0  0  0  0  0
    6.7774  -12.6333   23.7978 C   0  0  0  0  0  0  0  0  0  0  0  0
    7.1887  -13.0229   25.1977 C   0  0  1  0  0  0  0  0  0  0  0  0
    6.0994  -12.5434   26.1503 C   0  0  0  0  0  0  0  0  0  0  0  0
    7.4763  -14.4848   25.3382 C   0  0  2  0  0  0  0  0  0  0  0  0
    7.8766  -14.8501   26.6881 N   0  0  0  0  0  0  0  0  0  0  0  0
    8.5213  -14.9167   24.3572 C   0  0  0  0  0  0  0  0  0  0  0  0
    9.7193  -14.5617   24.5751 O   0  0  0  0  0  0  0  0  0  0  0  0
    8.2366  -15.6897   23.2190 N   0  0  0  0  0  0  0  0  0  0  0  0
    6.9536  -16.0942   22.6812 C   0  0  0  0  0  0  0  0  0  0  0  0
    7.2708  -17.4264   21.9717 C   0  0  0  0  0  0  0  0  0  0  0  0
    8.5590  -17.0220   21.2669 C   0  0  0  0  0  0  0  0  0  0  0  0
    9.2740  -16.2404   22.3383 C   0  0  1  0  0  0  0  0  0  0  0  0
   10.1009  -15.1583   21.7890 C   0  0  0  0  0  0  0  0  0  0  0  0
    9.6630  -13.9862   21.7326 O   0  0  0  0  0  0  0  0  0  0  0  0
   11.3745  -15.4399   21.3309 O   0  0  0  0  0  0  0  0  0  0  0  0
  2  1  1  0
  3  2  1  0
  3  4  1  1
  5  3  1  0
  5  7  1  0
  5  6  1  6
  7  8  2  0
 10 12  1  0
 10  9  1  6
 11 10  1  0
 12 14  1  0
 13  7  1  0
 12 13  1  1
 14 15  2  0
 16 14  1  0
 16 17  1  0
 17 18  1  0
 19 18  1  0
 20 19  1  0
 20 16  1  0
 20 21  1  6
 22 21  2  0
 23 21  1  0
M  END
$$$$
