IVP.pdb
     RDKit          3D

 23 23  0  0  1  0  0  0  0  0999 V2000
    8.0760  -22.0943   26.1635 C   0  0  0  0  0  0  0  0  0  0  0  0
    7.9782  -20.9007   27.0663 C   0  0  0  0  0  0  0  0  0  0  0  0
    7.4902  -19.7044   26.3218 C   0  0  2  0  0  0  0  0  0  0  0  0
    8.2782  -19.5156   25.0472 C   0  0  0  0  0  0  0  0  0  0  0  0
    7.3545  -18.4542   27.1151 C   0  0  2  0  0  0  0  0  0  0  0  0
    6.3099  -18.6876   28.1301 N   0  0  0  0  0  0  0  0  0  0  0  0
    6.9676  -17.2527   26.3792 C   0  0  0  0  0  0  0  0  0  0  0  0
    5.8536  -17.1695   25.7378 O   0  0  0  0  0  0  0  0  0  0  0  0
    7.6290  -12.4812   25.1217 C   0  0  0  0  0  0  0  0  0  0  0  0
    7.7660  -13.6457   26.0735 C   0  0  1  0  0  0  0  0  0  0  0  0
    6.8364  -13.3900   27.2543 C   0  0  0  0  0  0  0  0  0  0  0  0
    7.5184  -14.9689   25.4195 C   0  0  2  0  0  0  0  0  0  0  0  0
    7.7803  -16.0907   26.3076 N   0  0  0  0  0  0  0  0  0  0  0  0
    8.3301  -15.1027   24.1687 C   0  0  0  0  0  0  0  0  0  0  0  0
    9.5128  -15.5478   24.2764 O   0  0  0  0  0  0  0  0  0  0  0  0
    7.8444  -14.7613   22.8953 N   0  0  0  0  0  0  0  0  0  0  0  0
    6.5828  -14.1515   22.5269 C   0  0  0  0  0  0  0  0  0  0  0  0
    6.3277  -14.6956   21.1064 C   0  0  0  0  0  0  0  0  0  0  0  0
    7.7241  -14.5147   20.5259 C   0  0  0  0  0  0  0  0  0  0  0  0
    8.6006  -14.9854   21.6572 C   0  0  1  0  0  0  0  0  0  0  0  0
    9.8836  -14.2729   21.7097 C   0  0  0  0  0  0  0  0  0  0  0  0
   10.1219  -13.4542   22.6272 O   0  0  0  0  0  0  0  0  0  0  0  0
   10.8351  -14.5109   20.7355 O   0  0  0  0  0  0  0  0  0  0  0  0
  2  1  1  0
  3  2  1  0
  3  4  1  6
  5  3  1  0
  5  7  1  0
  5  6  1  1
  7  8  2  0
 10 12  1  0
 10  9  1  6
 11 10  1  0
 12 14  1  0
 13  7  1  0
 12 13  1  1
 14 15  2  0
 16 14  1  0
 16 17  1  0
 17 18  1  0
 19 18  1  0
 20 19  1  0
 20 16  1  0
 20 21  1  1
 22 21  2  0
 23 21  1  0
M  END
$$$$
