IVP.pdb
     RDKit          3D

 23 23  0  0  1  0  0  0  0  0999 V2000
    8.1685  -21.8767   25.0908 C   0  0  0  0  0  0  0  0  0  0  0  0
    7.1607  -20.9638   25.7234 C   0  0  0  0  0  0  0  0  0  0  0  0
    7.1846  -19.6157   25.0865 C   0  0  2  0  0  0  0  0  0  0  0  0
    8.5886  -19.0592   25.0768 C   0  0  0  0  0  0  0  0  0  0  0  0
    6.1744  -18.6435   25.5815 C   0  0  2  0  0  0  0  0  0  0  0  0
    4.8435  -19.1735   25.2297 N   0  0  0  0  0  0  0  0  0  0  0  0
    6.2481  -17.2903   25.0353 C   0  0  0  0  0  0  0  0  0  0  0  0
    5.7563  -16.9870   23.8841 O   0  0  0  0  0  0  0  0  0  0  0  0
    7.9406  -12.5721   25.5027 C   0  0  0  0  0  0  0  0  0  0  0  0
    7.4452  -13.8572   26.1222 C   0  0  1  0  0  0  0  0  0  0  0  0
    6.2360  -13.5183   26.9864 C   0  0  0  0  0  0  0  0  0  0  0  0
    7.1521  -14.9202   25.1103 C   0  0  2  0  0  0  0  0  0  0  0  0
    6.8648  -16.2096   25.7192 N   0  0  0  0  0  0  0  0  0  0  0  0
    8.2815  -15.0516   24.1364 C   0  0  0  0  0  0  0  0  0  0  0  0
    9.3484  -15.6061   24.5399 O   0  0  0  0  0  0  0  0  0  0  0  0
    8.2118  -14.5934   22.8100 N   0  0  0  0  0  0  0  0  0  0  0  0
    7.1577  -13.8510   22.1492 C   0  0  0  0  0  0  0  0  0  0  0  0
    7.2888  -14.2854   20.6751 C   0  0  0  0  0  0  0  0  0  0  0  0
    8.8027  -14.1982   20.5332 C   0  0  0  0  0  0  0  0  0  0  0  0
    9.2776  -14.8121   21.8245 C   0  0  1  0  0  0  0  0  0  0  0  0
   10.5365  -14.2233   22.2986 C   0  0  0  0  0  0  0  0  0  0  0  0
   10.5629  -13.5246   23.3377 O   0  0  0  0  0  0  0  0  0  0  0  0
   11.7019  -14.4448   21.5886 O   0  0  0  0  0  0  0  0  0  0  0  0
  2  1  1  0
  3  2  1  0
  3  4  1  1
  5  3  1  0
  5  7  1  0
  5  6  1  6
  7  8  2  0
 10 12  1  0
 10  9  1  6
 11 10  1  0
 12 14  1  0
 13  7  1  0
 12 13  1  1
 14 15  2  0
 16 14  1  0
 16 17  1  0
 17 18  1  0
 19 18  1  0
 20 19  1  0
 20 16  1  0
 20 21  1  1
 22 21  2  0
 23 21  1  0
M  END
$$$$
