IVP.pdb
     RDKit          3D

 23 23  0  0  1  0  0  0  0  0999 V2000
    6.8718  -11.1599   28.1065 C   0  0  0  0  0  0  0  0  0  0  0  0
    6.0232  -11.9262   27.1360 C   0  0  0  0  0  0  0  0  0  0  0  0
    6.8099  -13.0047   26.4716 C   0  0  2  0  0  0  0  0  0  0  0  0
    8.1220  -12.4626   25.9562 C   0  0  0  0  0  0  0  0  0  0  0  0
    6.0785  -13.8186   25.4649 C   0  0  2  0  0  0  0  0  0  0  0  0
    5.0147  -14.5501   26.1785 N   0  0  0  0  0  0  0  0  0  0  0  0
    6.8613  -14.8149   24.7374 C   0  0  0  0  0  0  0  0  0  0  0  0
    7.0911  -15.9892   25.2142 O   0  0  0  0  0  0  0  0  0  0  0  0
    6.7852  -15.1246   20.5980 C   0  0  0  0  0  0  0  0  0  0  0  0
    8.1588  -15.2492   21.2132 C   0  0  1  0  0  0  0  0  0  0  0  0
    8.9136  -13.9563   20.9260 C   0  0  0  0  0  0  0  0  0  0  0  0
    8.1193  -15.5831   22.6716 C   0  0  2  0  0  0  0  0  0  0  0  0
    7.4308  -14.5728   23.4595 N   0  0  0  0  0  0  0  0  0  0  0  0
    9.5018  -15.7971   23.2046 C   0  0  0  0  0  0  0  0  0  0  0  0
   10.1880  -14.7713   23.4965 O   0  0  0  0  0  0  0  0  0  0  0  0
   10.0657  -17.0700   23.3940 N   0  0  0  0  0  0  0  0  0  0  0  0
    9.4520  -18.3755   23.2592 C   0  0  0  0  0  0  0  0  0  0  0  0
   10.2508  -19.2466   24.2500 C   0  0  0  0  0  0  0  0  0  0  0  0
   11.6567  -18.7711   23.9078 C   0  0  0  0  0  0  0  0  0  0  0  0
   11.4654  -17.2821   23.7822 C   0  0  1  0  0  0  0  0  0  0  0  0
   12.3646  -16.6805   22.7893 C   0  0  0  0  0  0  0  0  0  0  0  0
   11.9684  -16.4559   21.6225 O   0  0  0  0  0  0  0  0  0  0  0  0
   13.6603  -16.3600   23.1495 O   0  0  0  0  0  0  0  0  0  0  0  0
  2  1  1  0
  3  2  1  0
  3  4  1  6
  5  3  1  0
  5  7  1  0
  5  6  1  1
  7  8  2  0
 10 12  1  0
 10  9  1  1
 11 10  1  0
 12 14  1  0
 13  7  1  0
 12 13  1  1
 14 15  2  0
 16 14  1  0
 16 17  1  0
 17 18  1  0
 19 18  1  0
 20 19  1  0
 20 16  1  0
 20 21  1  6
 22 21  2  0
 23 21  1  0
M  END
$$$$
