IVP.pdb
     RDKit          3D

 23 23  0  0  1  0  0  0  0  0999 V2000
    6.5431  -11.0050   27.5977 C   0  0  0  0  0  0  0  0  0  0  0  0
    5.8098  -12.0864   26.8614 C   0  0  0  0  0  0  0  0  0  0  0  0
    6.7615  -13.0481   26.2346 C   0  0  2  0  0  0  0  0  0  0  0  0
    7.8766  -12.3091   25.5333 C   0  0  0  0  0  0  0  0  0  0  0  0
    6.1523  -14.1159   25.3984 C   0  0  2  0  0  0  0  0  0  0  0  0
    5.3586  -14.9781   26.2943 N   0  0  0  0  0  0  0  0  0  0  0  0
    7.0768  -14.9903   24.6804 C   0  0  0  0  0  0  0  0  0  0  0  0
    7.5630  -16.0587   25.2107 O   0  0  0  0  0  0  0  0  0  0  0  0
    9.0306  -16.3751   20.2816 C   0  0  0  0  0  0  0  0  0  0  0  0
    8.3662  -15.3116   21.1232 C   0  0  1  0  0  0  0  0  0  0  0  0
    6.9738  -15.0715   20.5511 C   0  0  0  0  0  0  0  0  0  0  0  0
    8.3412  -15.6492   22.5810 C   0  0  2  0  0  0  0  0  0  0  0  0
    7.5144  -14.7356   23.3539 N   0  0  0  0  0  0  0  0  0  0  0  0
    9.7291  -15.6857   23.1411 C   0  0  0  0  0  0  0  0  0  0  0  0
   10.3795  -14.5975   23.1803 O   0  0  0  0  0  0  0  0  0  0  0  0
   10.3356  -16.8590   23.6202 N   0  0  0  0  0  0  0  0  0  0  0  0
    9.7992  -18.2024   23.7023 C   0  0  0  0  0  0  0  0  0  0  0  0
   10.5522  -18.8120   24.9023 C   0  0  0  0  0  0  0  0  0  0  0  0
   11.9575  -18.3230   24.5771 C   0  0  0  0  0  0  0  0  0  0  0  0
   11.7060  -16.9018   24.1448 C   0  0  1  0  0  0  0  0  0  0  0  0
   12.6561  -16.4480   23.1212 C   0  0  0  0  0  0  0  0  0  0  0  0
   12.3536  -16.4891   21.9065 O   0  0  0  0  0  0  0  0  0  0  0  0
   13.8954  -15.9711   23.5059 O   0  0  0  0  0  0  0  0  0  0  0  0
  2  1  1  0
  3  2  1  0
  3  4  1  6
  5  3  1  0
  5  7  1  0
  5  6  1  1
  7  8  2  0
 10 12  1  0
 10  9  1  6
 11 10  1  0
 12 14  1  0
 13  7  1  0
 12 13  1  1
 14 15  2  0
 16 14  1  0
 16 17  1  0
 17 18  1  0
 19 18  1  0
 20 19  1  0
 20 16  1  0
 20 21  1  6
 22 21  2  0
 23 21  1  0
M  END
$$$$
