IVP.pdb
     RDKit          3D

 23 23  0  0  1  0  0  0  0  0999 V2000
    9.1544  -12.6905   29.1332 C   0  0  0  0  0  0  0  0  0  0  0  0
    8.0304  -12.5174   28.1554 C   0  0  0  0  0  0  0  0  0  0  0  0
    8.0751  -13.5665   27.0966 C   0  0  2  0  0  0  0  0  0  0  0  0
    9.4886  -13.7589   26.6006 C   0  0  0  0  0  0  0  0  0  0  0  0
    7.0845  -13.4245   25.9969 C   0  0  2  0  0  0  0  0  0  0  0  0
    5.7448  -13.6181   26.5829 N   0  0  0  0  0  0  0  0  0  0  0  0
    7.2008  -14.3683   24.8876 C   0  0  0  0  0  0  0  0  0  0  0  0
    6.6572  -15.5356   24.9196 O   0  0  0  0  0  0  0  0  0  0  0  0
    8.1618  -15.2460   20.0843 C   0  0  0  0  0  0  0  0  0  0  0  0
    8.1587  -14.3002   21.2616 C   0  0  1  0  0  0  0  0  0  0  0  0
    7.0476  -13.2817   21.0341 C   0  0  0  0  0  0  0  0  0  0  0  0
    8.0373  -15.0032   22.5773 C   0  0  2  0  0  0  0  0  0  0  0  0
    7.9181  -14.0816   23.6963 N   0  0  0  0  0  0  0  0  0  0  0  0
    9.1945  -15.9280   22.7936 C   0  0  0  0  0  0  0  0  0  0  0  0
   10.3285  -15.4108   23.0286 O   0  0  0  0  0  0  0  0  0  0  0  0
    9.0807  -17.3276   22.7488 N   0  0  0  0  0  0  0  0  0  0  0  0
    7.9113  -18.1463   22.5009 C   0  0  0  0  0  0  0  0  0  0  0  0
    8.2164  -19.4440   23.2764 C   0  0  0  0  0  0  0  0  0  0  0  0
    9.6687  -19.6366   22.8599 C   0  0  0  0  0  0  0  0  0  0  0  0
   10.2146  -18.2359   22.9588 C   0  0  1  0  0  0  0  0  0  0  0  0
   11.2676  -17.9707   21.9703 C   0  0  0  0  0  0  0  0  0  0  0  0
   10.9923  -17.4328   20.8732 O   0  0  0  0  0  0  0  0  0  0  0  0
   12.5743  -18.3195   22.2569 O   0  0  0  0  0  0  0  0  0  0  0  0
  2  1  1  0
  3  2  1  0
  3  4  1  6
  5  3  1  0
  5  7  1  0
  5  6  1  1
  7  8  2  0
 10 12  1  0
 10  9  1  6
 11 10  1  0
 12 14  1  0
 13  7  1  0
 12 13  1  1
 14 15  2  0
 16 14  1  0
 16 17  1  0
 17 18  1  0
 19 18  1  0
 20 19  1  0
 20 16  1  0
 20 21  1  6
 22 21  2  0
 23 21  1  0
M  END
$$$$
