IVP.pdb
     RDKit          3D

 23 23  0  0  1  0  0  0  0  0999 V2000
    9.2287  -13.2131   28.9010 C   0  0  0  0  0  0  0  0  0  0  0  0
    8.1840  -12.7893   27.9118 C   0  0  0  0  0  0  0  0  0  0  0  0
    8.0980  -13.7532   26.7773 C   0  0  2  0  0  0  0  0  0  0  0  0
    9.4758  -14.0717   26.2470 C   0  0  0  0  0  0  0  0  0  0  0  0
    7.1241  -13.4134   25.7064 C   0  0  2  0  0  0  0  0  0  0  0  0
    5.7722  -13.5558   26.2790 N   0  0  0  0  0  0  0  0  0  0  0  0
    7.1624  -14.2406   24.5027 C   0  0  0  0  0  0  0  0  0  0  0  0
    6.5732  -15.3841   24.4366 O   0  0  0  0  0  0  0  0  0  0  0  0
    8.0988  -14.7798   19.6396 C   0  0  0  0  0  0  0  0  0  0  0  0
    8.1200  -13.9172   20.8791 C   0  0  1  0  0  0  0  0  0  0  0  0
    7.0403  -12.8528   20.7207 C   0  0  0  0  0  0  0  0  0  0  0  0
    7.9736  -14.7048   22.1433 C   0  0  2  0  0  0  0  0  0  0  0  0
    7.8480  -13.8584   23.3195 N   0  0  0  0  0  0  0  0  0  0  0  0
    9.1187  -15.6541   22.3126 C   0  0  0  0  0  0  0  0  0  0  0  0
   10.2176  -15.1848   22.7378 O   0  0  0  0  0  0  0  0  0  0  0  0
    9.0302  -17.0266   22.0251 N   0  0  0  0  0  0  0  0  0  0  0  0
    7.9311  -17.7753   21.4503 C   0  0  0  0  0  0  0  0  0  0  0  0
    8.1114  -19.1852   22.0489 C   0  0  0  0  0  0  0  0  0  0  0  0
    9.6161  -19.3332   21.8651 C   0  0  0  0  0  0  0  0  0  0  0  0
   10.1206  -17.9757   22.2803 C   0  0  1  0  0  0  0  0  0  0  0  0
   11.3264  -17.5738   21.5447 C   0  0  0  0  0  0  0  0  0  0  0  0
   12.4603  -17.9435   21.9272 O   0  0  0  0  0  0  0  0  0  0  0  0
   11.2048  -16.7798   20.4196 O   0  0  0  0  0  0  0  0  0  0  0  0
  2  1  1  0
  3  2  1  0
  3  4  1  6
  5  3  1  0
  5  7  1  0
  5  6  1  1
  7  8  2  0
 10 12  1  0
 10  9  1  6
 11 10  1  0
 12 14  1  0
 13  7  1  0
 12 13  1  1
 14 15  2  0
 16 14  1  0
 16 17  1  0
 17 18  1  0
 19 18  1  0
 20 19  1  0
 20 16  1  0
 20 21  1  6
 22 21  2  0
 23 21  1  0
M  END
$$$$
