IVP.pdb
     RDKit          3D

 23 23  0  0  1  0  0  0  0  0999 V2000
    6.3342  -20.9910   23.0263 C   0  0  0  0  0  0  0  0  0  0  0  0
    5.9118  -19.5848   22.7202 C   0  0  0  0  0  0  0  0  0  0  0  0
    6.7819  -18.5989   23.4234 C   0  0  2  0  0  0  0  0  0  0  0  0
    6.9959  -19.0113   24.8605 C   0  0  0  0  0  0  0  0  0  0  0  0
    6.3976  -17.1701   23.2769 C   0  0  2  0  0  0  0  0  0  0  0  0
    6.4483  -16.8454   21.8389 N   0  0  0  0  0  0  0  0  0  0  0  0
    7.2422  -16.1934   23.9605 C   0  0  0  0  0  0  0  0  0  0  0  0
    8.4097  -15.8700   23.5231 O   0  0  0  0  0  0  0  0  0  0  0  0
    7.8310  -12.6116   27.3899 C   0  0  0  0  0  0  0  0  0  0  0  0
    6.9496  -13.5320   26.5796 C   0  0  1  0  0  0  0  0  0  0  0  0
    6.1568  -12.6718   25.6022 C   0  0  0  0  0  0  0  0  0  0  0  0
    7.7128  -14.6250   25.8993 C   0  0  2  0  0  0  0  0  0  0  0  0
    6.8518  -15.5294   25.1533 N   0  0  0  0  0  0  0  0  0  0  0  0
    8.5331  -15.3940   26.8878 C   0  0  0  0  0  0  0  0  0  0  0  0
    7.9195  -16.0265   27.8000 O   0  0  0  0  0  0  0  0  0  0  0  0
    9.9366  -15.4458   26.8492 N   0  0  0  0  0  0  0  0  0  0  0  0
   10.8585  -14.7314   25.9896 C   0  0  0  0  0  0  0  0  0  0  0  0
   12.0653  -15.6869   25.8927 C   0  0  0  0  0  0  0  0  0  0  0  0
   12.1786  -16.0798   27.3598 C   0  0  0  0  0  0  0  0  0  0  0  0
   10.7370  -16.2917   27.7430 C   0  0  1  0  0  0  0  0  0  0  0  0
   10.4700  -15.9448   29.1446 C   0  0  0  0  0  0  0  0  0  0  0  0
    9.8715  -14.8840   29.4368 O   0  0  0  0  0  0  0  0  0  0  0  0
   10.8844  -16.8000   30.1487 O   0  0  0  0  0  0  0  0  0  0  0  0
  2  1  1  0
  3  2  1  0
  3  4  1  1
  5  3  1  0
  5  7  1  0
  5  6  1  6
  7  8  2  0
 10 12  1  0
 10  9  1  6
 11 10  1  0
 12 14  1  0
 13  7  1  0
 12 13  1  1
 14 15  2  0
 16 14  1  0
 16 17  1  0
 17 18  1  0
 19 18  1  0
 20 19  1  0
 20 16  1  0
 20 21  1  1
 22 21  2  0
 23 21  1  0
M  END
$$$$
