IVP.pdb
     RDKit          3D

 23 23  0  0  1  0  0  0  0  0999 V2000
    9.9700  -18.0631   19.3531 C   0  0  0  0  0  0  0  0  0  0  0  0
    8.8457  -17.1421   19.7233 C   0  0  0  0  0  0  0  0  0  0  0  0
    9.2041  -16.3072   20.9056 C   0  0  2  0  0  0  0  0  0  0  0  0
    9.9115  -17.1405   21.9479 C   0  0  0  0  0  0  0  0  0  0  0  0
    8.1104  -15.4724   21.4691 C   0  0  2  0  0  0  0  0  0  0  0  0
    7.7004  -14.5179   20.4219 N   0  0  0  0  0  0  0  0  0  0  0  0
    8.4358  -14.6839   22.6554 C   0  0  0  0  0  0  0  0  0  0  0  0
    9.2261  -13.6679   22.6088 O   0  0  0  0  0  0  0  0  0  0  0  0
    6.5472  -12.5151   25.1450 C   0  0  0  0  0  0  0  0  0  0  0  0
    7.1743  -13.6688   25.8909 C   0  0  1  0  0  0  0  0  0  0  0  0
    6.0711  -14.6742   26.2004 C   0  0  0  0  0  0  0  0  0  0  0  0
    8.3264  -14.2826   25.1588 C   0  0  2  0  0  0  0  0  0  0  0  0
    7.9163  -14.9714   23.9451 N   0  0  0  0  0  0  0  0  0  0  0  0
    9.0839  -15.2173   26.0498 C   0  0  0  0  0  0  0  0  0  0  0  0
    9.0881  -16.4489   25.7471 O   0  0  0  0  0  0  0  0  0  0  0  0
    9.7828  -14.7947   27.1930 N   0  0  0  0  0  0  0  0  0  0  0  0
    9.7951  -13.4952   27.8336 C   0  0  0  0  0  0  0  0  0  0  0  0
   11.1914  -13.4348   28.4857 C   0  0  0  0  0  0  0  0  0  0  0  0
   11.2384  -14.8354   29.0821 C   0  0  0  0  0  0  0  0  0  0  0  0
   10.6675  -15.6733   27.9677 C   0  0  1  0  0  0  0  0  0  0  0  0
    9.9209  -16.8366   28.4634 C   0  0  0  0  0  0  0  0  0  0  0  0
    8.6810  -16.9145   28.3041 O   0  0  0  0  0  0  0  0  0  0  0  0
   10.5966  -17.8538   29.1115 O   0  0  0  0  0  0  0  0  0  0  0  0
  2  1  1  0
  3  2  1  0
  3  4  1  1
  5  3  1  0
  5  7  1  0
  5  6  1  6
  7  8  2  0
 10 12  1  0
 10  9  1  6
 11 10  1  0
 12 14  1  0
 13  7  1  0
 12 13  1  6
 14 15  2  0
 16 14  1  0
 16 17  1  0
 17 18  1  0
 19 18  1  0
 20 19  1  0
 20 16  1  0
 20 21  1  1
 22 21  2  0
 23 21  1  0
M  END
$$$$
