IVP.pdb
     RDKit          3D

 23 23  0  0  1  0  0  0  0  0999 V2000
    6.5498  -10.3342   26.9964 C   0  0  0  0  0  0  0  0  0  0  0  0
    5.8540  -11.6261   26.6864 C   0  0  0  0  0  0  0  0  0  0  0  0
    6.5609  -12.3691   25.6039 C   0  0  2  0  0  0  0  0  0  0  0  0
    6.7745  -11.4791   24.4026 C   0  0  0  0  0  0  0  0  0  0  0  0
    5.9979  -13.6996   25.2523 C   0  0  2  0  0  0  0  0  0  0  0  0
    4.8239  -13.9237   26.1167 N   0  0  0  0  0  0  0  0  0  0  0  0
    6.8805  -14.8501   25.4318 C   0  0  0  0  0  0  0  0  0  0  0  0
    6.7885  -15.6335   26.4502 O   0  0  0  0  0  0  0  0  0  0  0  0
    9.8968  -18.2901   23.5563 C   0  0  0  0  0  0  0  0  0  0  0  0
    9.0674  -17.0402   23.3818 C   0  0  1  0  0  0  0  0  0  0  0  0
    7.7919  -17.4305   22.6437 C   0  0  0  0  0  0  0  0  0  0  0  0
    8.7945  -16.3334   24.6724 C   0  0  2  0  0  0  0  0  0  0  0  0
    7.9043  -15.1945   24.5104 N   0  0  0  0  0  0  0  0  0  0  0  0
   10.0724  -15.8992   25.3201 C   0  0  0  0  0  0  0  0  0  0  0  0
   11.0688  -15.6729   24.5687 O   0  0  0  0  0  0  0  0  0  0  0  0
   10.2147  -15.7329   26.7080 N   0  0  0  0  0  0  0  0  0  0  0  0
    9.2187  -15.8500   27.7536 C   0  0  0  0  0  0  0  0  0  0  0  0
    9.7354  -14.8897   28.8443 C   0  0  0  0  0  0  0  0  0  0  0  0
   11.2078  -15.2788   28.8286 C   0  0  0  0  0  0  0  0  0  0  0  0
   11.4890  -15.3937   27.3529 C   0  0  1  0  0  0  0  0  0  0  0  0
   12.4993  -16.4154   27.0500 C   0  0  0  0  0  0  0  0  0  0  0  0
   12.1699  -17.5014   26.5199 O   0  0  0  0  0  0  0  0  0  0  0  0
   13.8259  -16.1727   27.3541 O   0  0  0  0  0  0  0  0  0  0  0  0
  2  1  1  0
  3  2  1  0
  3  4  1  6
  5  3  1  0
  5  7  1  0
  5  6  1  1
  7  8  2  0
 10 12  1  0
 10  9  1  1
 11 10  1  0
 12 14  1  0
 13  7  1  0
 12 13  1  6
 14 15  2  0
 16 14  1  0
 16 17  1  0
 17 18  1  0
 19 18  1  0
 20 19  1  0
 20 16  1  0
 20 21  1  1
 22 21  2  0
 23 21  1  0
M  END
$$$$
