IVP.pdb
     RDKit          3D

 23 23  0  0  1  0  0  0  0  0999 V2000
    8.0536  -21.7358   26.4222 C   0  0  0  0  0  0  0  0  0  0  0  0
    6.8986  -20.7997   26.6195 C   0  0  0  0  0  0  0  0  0  0  0  0
    7.1066  -19.5269   25.8711 C   0  0  2  0  0  0  0  0  0  0  0  0
    8.4664  -18.9468   26.1798 C   0  0  0  0  0  0  0  0  0  0  0  0
    6.0098  -18.5277   25.9678 C   0  0  2  0  0  0  0  0  0  0  0  0
    4.8104  -19.1293   25.3550 N   0  0  0  0  0  0  0  0  0  0  0  0
    6.2306  -17.2487   25.2969 C   0  0  0  0  0  0  0  0  0  0  0  0
    6.1536  -17.1225   24.0173 O   0  0  0  0  0  0  0  0  0  0  0  0
    7.8869  -12.5079   25.6917 C   0  0  0  0  0  0  0  0  0  0  0  0
    7.1866  -13.7001   26.2990 C   0  0  1  0  0  0  0  0  0  0  0  0
    5.8390  -13.2244   26.8298 C   0  0  0  0  0  0  0  0  0  0  0  0
    7.0600  -14.8509   25.3506 C   0  0  2  0  0  0  0  0  0  0  0  0
    6.5487  -16.0522   25.9919 N   0  0  0  0  0  0  0  0  0  0  0  0
    8.3713  -15.1396   24.6886 C   0  0  0  0  0  0  0  0  0  0  0  0
    9.2665  -15.7171   25.3770 O   0  0  0  0  0  0  0  0  0  0  0  0
    8.6505  -14.8034   23.3533 N   0  0  0  0  0  0  0  0  0  0  0  0
    7.8946  -13.9722   22.4385 C   0  0  0  0  0  0  0  0  0  0  0  0
    8.2443  -14.5588   21.0556 C   0  0  0  0  0  0  0  0  0  0  0  0
    9.7477  -14.7211   21.2370 C   0  0  0  0  0  0  0  0  0  0  0  0
    9.8397  -15.2767   22.6344 C   0  0  1  0  0  0  0  0  0  0  0  0
   11.0588  -14.8481   23.3318 C   0  0  0  0  0  0  0  0  0  0  0  0
   11.0440  -13.8502   24.0885 O   0  0  0  0  0  0  0  0  0  0  0  0
   12.2324  -15.5556   23.1490 O   0  0  0  0  0  0  0  0  0  0  0  0
  2  1  1  0
  3  2  1  0
  3  4  1  1
  5  3  1  0
  5  7  1  0
  5  6  1  6
  7  8  2  0
 10 12  1  0
 10  9  1  6
 11 10  1  0
 12 14  1  0
 13  7  1  0
 12 13  1  1
 14 15  2  0
 16 14  1  0
 16 17  1  0
 17 18  1  0
 19 18  1  0
 20 19  1  0
 20 16  1  0
 20 21  1  1
 22 21  2  0
 23 21  1  0
M  END
$$$$
