IVP.pdb
     RDKit          3D

 23 23  0  0  1  0  0  0  0  0999 V2000
    6.8546  -10.8532   27.5484 C   0  0  0  0  0  0  0  0  0  0  0  0
    6.0581  -11.9367   26.8843 C   0  0  0  0  0  0  0  0  0  0  0  0
    6.9523  -12.9353   26.2311 C   0  0  2  0  0  0  0  0  0  0  0  0
    8.0391  -12.2400   25.4460 C   0  0  0  0  0  0  0  0  0  0  0  0
    6.2742  -14.0121   25.4620 C   0  0  2  0  0  0  0  0  0  0  0  0
    5.5011  -14.8205   26.4237 N   0  0  0  0  0  0  0  0  0  0  0  0
    7.1385  -14.9365   24.7318 C   0  0  0  0  0  0  0  0  0  0  0  0
    7.5784  -16.0264   25.2588 O   0  0  0  0  0  0  0  0  0  0  0  0
    9.0237  -16.4463   20.3453 C   0  0  0  0  0  0  0  0  0  0  0  0
    8.3195  -15.3865   21.1588 C   0  0  1  0  0  0  0  0  0  0  0  0
    6.8930  -15.2719   20.6337 C   0  0  0  0  0  0  0  0  0  0  0  0
    8.3737  -15.6465   22.6317 C   0  0  2  0  0  0  0  0  0  0  0  0
    7.5638  -14.7108   23.3961 N   0  0  0  0  0  0  0  0  0  0  0  0
    9.7876  -15.6236   23.1229 C   0  0  0  0  0  0  0  0  0  0  0  0
   10.4354  -14.5391   23.0091 O   0  0  0  0  0  0  0  0  0  0  0  0
   10.4211  -16.7378   23.6985 N   0  0  0  0  0  0  0  0  0  0  0  0
    9.9105  -18.0772   23.9089 C   0  0  0  0  0  0  0  0  0  0  0  0
   10.6883  -18.5621   25.1493 C   0  0  0  0  0  0  0  0  0  0  0  0
   12.0805  -18.0804   24.7629 C   0  0  0  0  0  0  0  0  0  0  0  0
   11.7979  -16.7090   24.2070 C   0  0  1  0  0  0  0  0  0  0  0  0
   12.7278  -16.3335   23.1343 C   0  0  0  0  0  0  0  0  0  0  0  0
   12.3992  -16.4581   21.9321 O   0  0  0  0  0  0  0  0  0  0  0  0
   13.9770  -15.8380   23.4583 O   0  0  0  0  0  0  0  0  0  0  0  0
  2  1  1  0
  3  2  1  0
  3  4  1  6
  5  3  1  0
  5  7  1  0
  5  6  1  1
  7  8  2  0
 10 12  1  0
 10  9  1  6
 11 10  1  0
 12 14  1  0
 13  7  1  0
 12 13  1  1
 14 15  2  0
 16 14  1  0
 16 17  1  0
 17 18  1  0
 19 18  1  0
 20 19  1  0
 20 16  1  0
 20 21  1  6
 22 21  2  0
 23 21  1  0
M  END
$$$$
