ICA.pdb
     RDKit          3D

 20 19  0  0  1  0  0  0  0  0999 V2000
    7.9284  -10.8998   26.1001 C   0  0  0  0  0  0  0  0  0  0  0  0
    7.8457  -12.3856   26.1676 C   0  0  0  0  0  0  0  0  0  0  0  0
    6.4735  -12.9680   26.0036 C   0  0  2  0  0  0  0  0  0  0  0  0
    5.5544  -12.3537   27.0262 C   0  0  0  0  0  0  0  0  0  0  0  0
    6.3722  -14.4209   25.8020 C   0  0  2  0  0  0  0  0  0  0  0  0
    6.8367  -15.1004   27.0358 N   0  0  0  0  0  0  0  0  0  0  0  0
    7.0339  -15.0339   24.6682 C   0  0  0  0  0  0  0  0  0  0  0  0
    6.6016  -14.9816   23.4879 O   0  0  0  0  0  0  0  0  0  0  0  0
    8.2489  -15.7469   24.8616 N   0  0  0  0  0  0  0  0  0  0  0  0
    8.9235  -16.3352   23.6854 C   0  0  1  0  0  0  0  0  0  0  0  0
    9.0608  -15.1720   22.7211 C   0  0  0  0  0  0  0  0  0  0  0  0
    9.9072  -15.5715   21.2001 S   0  0  0  0  0  0  0  0  0  0  0  0
   10.2132  -16.9177   24.0963 C   0  0  0  0  0  0  0  0  0  0  0  0
   11.1535  -16.2271   24.5841 O   0  0  0  0  0  0  0  0  0  0  0  0
   11.5301  -20.4344   24.3419 C   0  0  0  0  0  0  0  0  0  0  0  0
   11.6739  -18.9357   24.4258 C   0  0  2  0  0  0  0  0  0  0  0  0
   10.4427  -18.3080   23.9535 N   0  0  0  0  0  0  0  0  0  0  0  0
   12.8431  -18.4346   23.6509 C   0  0  0  0  0  0  0  0  0  0  0  0
   12.6246  -17.9593   22.5071 O   0  0  0  0  0  0  0  0  0  0  0  0
   14.1376  -18.4670   24.1230 O   0  0  0  0  0  0  0  0  0  0  0  0
  1  2  1  0
  2  3  1  0
  3  4  1  1
  5  7  1  0
  5  3  1  0
  5  6  1  1
  7  8  2  0
  7  9  1  0
  9 10  1  0
 10 13  1  0
 11 12  1  0
 10 11  1  6
 13 14  2  0
 13 17  1  0
 16 15  1  6
 16 18  1  0
 17 16  1  0
 18 20  1  0
 19 18  2  0
M  END
$$$$
