ICA.pdb
     RDKit          3D

 20 19  0  0  1  0  0  0  0  0999 V2000
    6.6609  -11.1577   27.5177 C   0  0  0  0  0  0  0  0  0  0  0  0
    5.9838  -12.1802   26.6722 C   0  0  0  0  0  0  0  0  0  0  0  0
    6.8881  -13.1707   26.0013 C   0  0  2  0  0  0  0  0  0  0  0  0
    8.0459  -12.4353   25.3794 C   0  0  0  0  0  0  0  0  0  0  0  0
    6.2588  -14.2281   25.1965 C   0  0  2  0  0  0  0  0  0  0  0  0
    5.3245  -14.9861   26.0639 N   0  0  0  0  0  0  0  0  0  0  0  0
    7.0910  -15.1773   24.4854 C   0  0  0  0  0  0  0  0  0  0  0  0
    7.6027  -16.1985   25.0128 O   0  0  0  0  0  0  0  0  0  0  0  0
    7.3689  -14.9763   23.1055 N   0  0  0  0  0  0  0  0  0  0  0  0
    8.2302  -15.9514   22.4038 C   0  0  1  0  0  0  0  0  0  0  0  0
    8.1572  -15.5256   20.9495 C   0  0  0  0  0  0  0  0  0  0  0  0
    9.2127  -16.4611   19.8538 S   0  0  0  0  0  0  0  0  0  0  0  0
    9.5911  -15.9022   22.9666 C   0  0  0  0  0  0  0  0  0  0  0  0
   10.1938  -14.8176   23.2106 O   0  0  0  0  0  0  0  0  0  0  0  0
   11.8477  -18.2460   24.7086 C   0  0  0  0  0  0  0  0  0  0  0  0
   11.6581  -17.0968   23.7508 C   0  0  2  0  0  0  0  0  0  0  0  0
   10.2827  -17.1029   23.2598 N   0  0  0  0  0  0  0  0  0  0  0  0
   12.6168  -17.1447   22.6118 C   0  0  0  0  0  0  0  0  0  0  0  0
   12.1789  -17.5264   21.4963 O   0  0  0  0  0  0  0  0  0  0  0  0
   13.9453  -16.7944   22.7218 O   0  0  0  0  0  0  0  0  0  0  0  0
  1  2  1  0
  2  3  1  0
  3  4  1  6
  5  7  1  0
  5  3  1  0
  5  6  1  1
  7  8  2  0
  7  9  1  0
  9 10  1  0
 10 13  1  0
 11 12  1  0
 10 11  1  6
 13 14  2  0
 13 17  1  0
 16 15  1  1
 16 18  1  0
 17 16  1  0
 18 20  1  0
 19 18  2  0
M  END
$$$$
