ICA.pdb
     RDKit          3D

 20 19  0  0  1  0  0  0  0  0999 V2000
    7.8788  -11.7960   19.7354 C   0  0  0  0  0  0  0  0  0  0  0  0
    7.9526  -13.0869   20.4749 C   0  0  0  0  0  0  0  0  0  0  0  0
    8.5824  -14.2267   19.7311 C   0  0  2  0  0  0  0  0  0  0  0  0
    7.9969  -14.2912   18.3451 C   0  0  0  0  0  0  0  0  0  0  0  0
    8.7420  -15.5001   20.4485 C   0  0  2  0  0  0  0  0  0  0  0  0
    7.4267  -16.1842   20.4906 N   0  0  0  0  0  0  0  0  0  0  0  0
    9.2995  -15.5031   21.7858 C   0  0  0  0  0  0  0  0  0  0  0  0
   10.5048  -15.2544   22.0467 O   0  0  0  0  0  0  0  0  0  0  0  0
    8.4642  -15.8007   22.8974 N   0  0  0  0  0  0  0  0  0  0  0  0
    9.0412  -15.7411   24.2570 C   0  0  1  0  0  0  0  0  0  0  0  0
    7.8697  -15.3447   25.1357 C   0  0  0  0  0  0  0  0  0  0  0  0
    7.3267  -13.6567   24.9230 S   0  0  0  0  0  0  0  0  0  0  0  0
    9.6239  -17.0493   24.6034 C   0  0  0  0  0  0  0  0  0  0  0  0
    8.9934  -18.1376   24.4723 O   0  0  0  0  0  0  0  0  0  0  0  0
   12.9920  -18.4176   25.1599 C   0  0  0  0  0  0  0  0  0  0  0  0
   11.5311  -18.3959   25.5329 C   0  0  2  0  0  0  0  0  0  0  0  0
   10.9455  -17.1278   25.1067 N   0  0  0  0  0  0  0  0  0  0  0  0
   11.3159  -18.6036   26.9921 C   0  0  0  0  0  0  0  0  0  0  0  0
   10.7583  -17.6788   27.6369 O   0  0  0  0  0  0  0  0  0  0  0  0
   11.6946  -19.7479   27.6606 O   0  0  0  0  0  0  0  0  0  0  0  0
  1  2  1  0
  2  3  1  0
  3  4  1  6
  5  7  1  0
  5  3  1  0
  5  6  1  1
  7  8  2  0
  7  9  1  0
  9 10  1  0
 10 13  1  0
 11 12  1  0
 10 11  1  1
 13 14  2  0
 13 17  1  0
 16 15  1  1
 16 18  1  0
 17 16  1  0
 18 20  1  0
 19 18  2  0
M  END
$$$$
