ICA.pdb
     RDKit          3D

 20 19  0  0  1  0  0  0  0  0999 V2000
    8.4218  -12.2149   19.8567 C   0  0  0  0  0  0  0  0  0  0  0  0
    7.1875  -13.0161   20.0873 C   0  0  0  0  0  0  0  0  0  0  0  0
    7.3344  -14.1818   21.0195 C   0  0  2  0  0  0  0  0  0  0  0  0
    7.6628  -13.6699   22.3971 C   0  0  0  0  0  0  0  0  0  0  0  0
    8.0973  -15.3433   20.5392 C   0  0  2  0  0  0  0  0  0  0  0  0
    7.5266  -15.7763   19.2405 N   0  0  0  0  0  0  0  0  0  0  0  0
    8.2346  -16.5097   21.3875 C   0  0  0  0  0  0  0  0  0  0  0  0
    7.3215  -17.3543   21.5765 O   0  0  0  0  0  0  0  0  0  0  0  0
    9.4620  -16.7488   22.0646 N   0  0  0  0  0  0  0  0  0  0  0  0
    9.5837  -17.9532   22.9128 C   0  0  1  0  0  0  0  0  0  0  0  0
   10.9955  -18.4440   22.6529 C   0  0  0  0  0  0  0  0  0  0  0  0
   12.2725  -17.4468   23.4042 S   0  0  0  0  0  0  0  0  0  0  0  0
    9.3326  -17.5934   24.3195 C   0  0  0  0  0  0  0  0  0  0  0  0
    9.6245  -16.4609   24.8006 O   0  0  0  0  0  0  0  0  0  0  0  0
    7.1699  -18.8467   27.0131 C   0  0  0  0  0  0  0  0  0  0  0  0
    8.4738  -18.2131   26.5983 C   0  0  2  0  0  0  0  0  0  0  0  0
    8.7389  -18.5323   25.1981 N   0  0  0  0  0  0  0  0  0  0  0  0
    9.6124  -18.6474   27.4550 C   0  0  0  0  0  0  0  0  0  0  0  0
   10.4775  -19.3999   26.9380 O   0  0  0  0  0  0  0  0  0  0  0  0
    9.7604  -18.2679   28.7717 O   0  0  0  0  0  0  0  0  0  0  0  0
  1  2  1  0
  2  3  1  0
  3  4  1  1
  5  7  1  0
  5  3  1  0
  5  6  1  6
  7  8  2  0
  7  9  1  0
  9 10  1  0
 10 13  1  0
 11 12  1  0
 10 11  1  1
 13 14  2  0
 13 17  1  0
 16 15  1  1
 16 18  1  0
 17 16  1  0
 18 20  1  0
 19 18  2  0
M  END
$$$$
