ICA.pdb
     RDKit          3D

 20 19  0  0  1  0  0  0  0  0999 V2000
    7.9864  -19.1550   15.5937 C   0  0  0  0  0  0  0  0  0  0  0  0
    7.2054  -19.4328   16.8313 C   0  0  0  0  0  0  0  0  0  0  0  0
    7.4376  -18.4874   17.9721 C   0  0  2  0  0  0  0  0  0  0  0  0
    8.9053  -18.1580   18.0452 C   0  0  0  0  0  0  0  0  0  0  0  0
    6.7535  -18.7741   19.2415 C   0  0  2  0  0  0  0  0  0  0  0  0
    5.2933  -18.8290   18.9869 N   0  0  0  0  0  0  0  0  0  0  0  0
    6.9836  -17.9183   20.3877 C   0  0  0  0  0  0  0  0  0  0  0  0
    6.2790  -16.9150   20.6700 O   0  0  0  0  0  0  0  0  0  0  0  0
    8.0624  -18.1974   21.2710 N   0  0  0  0  0  0  0  0  0  0  0  0
    8.2808  -17.3075   22.4308 C   0  0  1  0  0  0  0  0  0  0  0  0
    6.9736  -17.3764   23.1975 C   0  0  0  0  0  0  0  0  0  0  0  0
    7.0534  -16.7083   24.8519 S   0  0  0  0  0  0  0  0  0  0  0  0
    9.4442  -17.7791   23.2024 C   0  0  0  0  0  0  0  0  0  0  0  0
    9.5369  -18.9570   23.6530 O   0  0  0  0  0  0  0  0  0  0  0  0
   12.8925  -16.4472   23.6608 C   0  0  0  0  0  0  0  0  0  0  0  0
   11.7732  -17.3769   24.0562 C   0  0  2  0  0  0  0  0  0  0  0  0
   10.5238  -16.9015   23.4681 N   0  0  0  0  0  0  0  0  0  0  0  0
   11.6370  -17.5032   25.5341 C   0  0  0  0  0  0  0  0  0  0  0  0
   10.6398  -16.9616   26.0765 O   0  0  0  0  0  0  0  0  0  0  0  0
   12.5418  -18.1776   26.3255 O   0  0  0  0  0  0  0  0  0  0  0  0
  1  2  1  0
  2  3  1  0
  3  4  1  1
  5  7  1  0
  5  3  1  0
  5  6  1  6
  7  8  2  0
  7  9  1  0
  9 10  1  0
 10 13  1  0
 11 12  1  0
 10 11  1  1
 13 14  2  0
 13 17  1  0
 16 15  1  1
 16 18  1  0
 17 16  1  0
 18 20  1  0
 19 18  2  0
M  END
$$$$
