ICA.pdb
     RDKit          3D

 20 19  0  0  1  0  0  0  0  0999 V2000
    7.8727  -12.2919   18.6463 C   0  0  0  0  0  0  0  0  0  0  0  0
    8.0860  -13.7092   19.0520 C   0  0  0  0  0  0  0  0  0  0  0  0
    7.5917  -14.0747   20.4200 C   0  0  2  0  0  0  0  0  0  0  0  0
    8.0585  -13.0350   21.4043 C   0  0  0  0  0  0  0  0  0  0  0  0
    7.7073  -15.4820   20.8300 C   0  0  2  0  0  0  0  0  0  0  0  0
    6.9287  -16.3139   19.8805 N   0  0  0  0  0  0  0  0  0  0  0  0
    7.3416  -15.8669   22.1780 C   0  0  0  0  0  0  0  0  0  0  0  0
    6.1551  -15.9904   22.5775 O   0  0  0  0  0  0  0  0  0  0  0  0
    8.3583  -16.1298   23.1368 N   0  0  0  0  0  0  0  0  0  0  0  0
    7.9771  -16.2678   24.5582 C   0  0  1  0  0  0  0  0  0  0  0  0
    8.2388  -17.7297   24.8681 C   0  0  0  0  0  0  0  0  0  0  0  0
    8.3368  -18.1076   26.6108 S   0  0  0  0  0  0  0  0  0  0  0  0
    8.7762  -15.3381   25.3758 C   0  0  0  0  0  0  0  0  0  0  0  0
   10.0332  -15.2429   25.2755 O   0  0  0  0  0  0  0  0  0  0  0  0
    8.0167  -12.5444   27.7442 C   0  0  0  0  0  0  0  0  0  0  0  0
    8.9059  -13.6493   27.2320 C   0  0  2  0  0  0  0  0  0  0  0  0
    8.1408  -14.4994   26.3240 N   0  0  0  0  0  0  0  0  0  0  0  0
    9.4922  -14.4615   28.3345 C   0  0  0  0  0  0  0  0  0  0  0  0
    9.0187  -15.6106   28.5278 O   0  0  0  0  0  0  0  0  0  0  0  0
   10.5168  -14.0181   29.1427 O   0  0  0  0  0  0  0  0  0  0  0  0
  1  2  1  0
  2  3  1  0
  3  4  1  1
  5  7  1  0
  5  3  1  0
  5  6  1  6
  7  8  2  0
  7  9  1  0
  9 10  1  0
 10 13  1  0
 11 12  1  0
 10 11  1  1
 13 14  2  0
 13 17  1  0
 16 15  1  1
 16 18  1  0
 17 16  1  0
 18 20  1  0
 19 18  2  0
M  END
$$$$
