ICA.pdb
     RDKit          3D

 20 19  0  0  1  0  0  0  0  0999 V2000
    8.0956  -11.6092   20.2243 C   0  0  0  0  0  0  0  0  0  0  0  0
    7.7427  -12.7410   21.1262 C   0  0  0  0  0  0  0  0  0  0  0  0
    8.1787  -14.0997   20.6647 C   0  0  2  0  0  0  0  0  0  0  0  0
    7.7627  -14.2873   19.2296 C   0  0  0  0  0  0  0  0  0  0  0  0
    7.9565  -15.2305   21.5778 C   0  0  2  0  0  0  0  0  0  0  0  0
    6.5073  -15.5459   21.5916 N   0  0  0  0  0  0  0  0  0  0  0  0
    8.4166  -15.1444   22.9489 C   0  0  0  0  0  0  0  0  0  0  0  0
    9.6276  -15.0712   23.2819 O   0  0  0  0  0  0  0  0  0  0  0  0
    7.4712  -15.1394   24.0110 N   0  0  0  0  0  0  0  0  0  0  0  0
    7.9614  -15.0068   25.3992 C   0  0  1  0  0  0  0  0  0  0  0  0
    6.7693  -14.4552   26.1582 C   0  0  0  0  0  0  0  0  0  0  0  0
    6.5483  -12.6899   26.0015 S   0  0  0  0  0  0  0  0  0  0  0  0
    8.4179  -16.3195   25.8887 C   0  0  0  0  0  0  0  0  0  0  0  0
    7.6298  -17.2867   26.0952 O   0  0  0  0  0  0  0  0  0  0  0  0
   11.5534  -18.1769   25.8626 C   0  0  0  0  0  0  0  0  0  0  0  0
   10.2870  -17.8375   26.6075 C   0  0  2  0  0  0  0  0  0  0  0  0
    9.7923  -16.5424   26.1485 N   0  0  0  0  0  0  0  0  0  0  0  0
   10.4844  -17.8250   28.0839 C   0  0  0  0  0  0  0  0  0  0  0  0
   10.8548  -18.8946   28.6320 O   0  0  0  0  0  0  0  0  0  0  0  0
   10.2826  -16.7094   28.8678 O   0  0  0  0  0  0  0  0  0  0  0  0
  1  2  1  0
  2  3  1  0
  3  4  1  6
  5  7  1  0
  5  3  1  0
  5  6  1  1
  7  8  2  0
  7  9  1  0
  9 10  1  0
 10 13  1  0
 11 12  1  0
 10 11  1  1
 13 14  2  0
 13 17  1  0
 16 15  1  6
 16 18  1  0
 17 16  1  0
 18 20  1  0
 19 18  2  0
M  END
$$$$
