ICA.pdb
     RDKit          3D

 20 19  0  0  1  0  0  0  0  0999 V2000
    8.3753  -11.7915   19.8315 C   0  0  0  0  0  0  0  0  0  0  0  0
    8.1435  -13.0212   20.6395 C   0  0  0  0  0  0  0  0  0  0  0  0
    8.5788  -14.3079   20.0037 C   0  0  2  0  0  0  0  0  0  0  0  0
    8.0762  -14.3486   18.5847 C   0  0  0  0  0  0  0  0  0  0  0  0
    8.4400  -15.5381   20.7969 C   0  0  2  0  0  0  0  0  0  0  0  0
    7.0069  -15.9189   20.8271 N   0  0  0  0  0  0  0  0  0  0  0  0
    8.9499  -15.5770   22.1525 C   0  0  0  0  0  0  0  0  0  0  0  0
   10.1629  -15.4320   22.4528 O   0  0  0  0  0  0  0  0  0  0  0  0
    8.0549  -15.7898   23.2368 N   0  0  0  0  0  0  0  0  0  0  0  0
    8.5750  -15.6970   24.6172 C   0  0  1  0  0  0  0  0  0  0  0  0
    7.3564  -15.3343   25.4449 C   0  0  0  0  0  0  0  0  0  0  0  0
    6.7343  -13.6851   25.1572 S   0  0  0  0  0  0  0  0  0  0  0  0
    9.1891  -16.9805   25.0005 C   0  0  0  0  0  0  0  0  0  0  0  0
    8.6733  -18.0996   24.7168 O   0  0  0  0  0  0  0  0  0  0  0  0
   12.4333  -18.3151   25.5488 C   0  0  0  0  0  0  0  0  0  0  0  0
   11.0425  -18.2489   26.1277 C   0  0  2  0  0  0  0  0  0  0  0  0
   10.4106  -16.9979   25.7172 N   0  0  0  0  0  0  0  0  0  0  0  0
   11.0406  -18.3695   27.6123 C   0  0  0  0  0  0  0  0  0  0  0  0
   10.6090  -17.3925   28.2764 O   0  0  0  0  0  0  0  0  0  0  0  0
   11.4843  -19.4882   28.2842 O   0  0  0  0  0  0  0  0  0  0  0  0
  1  2  1  0
  2  3  1  0
  3  4  1  6
  5  7  1  0
  5  3  1  0
  5  6  1  1
  7  8  2  0
  7  9  1  0
  9 10  1  0
 10 13  1  0
 11 12  1  0
 10 11  1  1
 13 14  2  0
 13 17  1  0
 16 15  1  1
 16 18  1  0
 17 16  1  0
 18 20  1  0
 19 18  2  0
M  END
$$$$
