ICA.pdb
     RDKit          3D

 20 19  0  0  1  0  0  0  0  0999 V2000
    7.6582  -12.0035   20.1406 C   0  0  0  0  0  0  0  0  0  0  0  0
    7.5728  -13.4220   19.6939 C   0  0  0  0  0  0  0  0  0  0  0  0
    8.7030  -13.9009   18.8322 C   0  0  2  0  0  0  0  0  0  0  0  0
    8.8632  -12.9613   17.6663 C   0  0  0  0  0  0  0  0  0  0  0  0
    8.7741  -15.3409   18.5441 C   0  0  2  0  0  0  0  0  0  0  0  0
    7.7174  -15.6760   17.5588 N   0  0  0  0  0  0  0  0  0  0  0  0
    8.6992  -16.2933   19.6333 C   0  0  0  0  0  0  0  0  0  0  0  0
    7.6526  -16.9118   19.9570 O   0  0  0  0  0  0  0  0  0  0  0  0
    9.8592  -16.5726   20.4069 N   0  0  0  0  0  0  0  0  0  0  0  0
    9.7302  -17.4455   21.5927 C   0  0  1  0  0  0  0  0  0  0  0  0
   10.5128  -18.6903   21.2190 C   0  0  0  0  0  0  0  0  0  0  0  0
   10.6582  -19.8916   22.5325 S   0  0  0  0  0  0  0  0  0  0  0  0
   10.2592  -16.7485   22.7783 C   0  0  0  0  0  0  0  0  0  0  0  0
   11.3693  -16.1430   22.7797 O   0  0  0  0  0  0  0  0  0  0  0  0
    8.8439  -15.4362   25.9117 C   0  0  0  0  0  0  0  0  0  0  0  0
   10.0081  -16.0560   25.1808 C   0  0  2  0  0  0  0  0  0  0  0  0
    9.5175  -16.7355   23.9849 N   0  0  0  0  0  0  0  0  0  0  0  0
   10.7763  -17.0018   26.0378 C   0  0  0  0  0  0  0  0  0  0  0  0
   10.6157  -18.2330   25.8369 O   0  0  0  0  0  0  0  0  0  0  0  0
   11.6442  -16.5957   27.0284 O   0  0  0  0  0  0  0  0  0  0  0  0
  1  2  1  0
  2  3  1  0
  3  4  1  6
  5  7  1  0
  5  3  1  0
  5  6  1  6
  7  8  2  0
  7  9  1  0
  9 10  1  0
 10 13  1  0
 11 12  1  0
 10 11  1  6
 13 14  2  0
 13 17  1  0
 16 15  1  1
 16 18  1  0
 17 16  1  0
 18 20  1  0
 19 18  2  0
M  END
$$$$
