ICA.pdb
     RDKit          3D

 20 19  0  0  1  0  0  0  0  0999 V2000
    7.6596  -11.7445   20.5172 C   0  0  0  0  0  0  0  0  0  0  0  0
    7.6971  -12.8905   21.4680 C   0  0  0  0  0  0  0  0  0  0  0  0
    8.1585  -14.1966   20.8932 C   0  0  2  0  0  0  0  0  0  0  0  0
    7.3589  -14.4966   19.6529 C   0  0  0  0  0  0  0  0  0  0  0  0
    8.3825  -15.3087   21.8286 C   0  0  2  0  0  0  0  0  0  0  0  0
    7.0671  -15.8893   22.1925 N   0  0  0  0  0  0  0  0  0  0  0  0
    9.1313  -15.0790   23.0474 C   0  0  0  0  0  0  0  0  0  0  0  0
   10.3281  -14.6921   23.0761 O   0  0  0  0  0  0  0  0  0  0  0  0
    8.5094  -15.2927   24.3082 N   0  0  0  0  0  0  0  0  0  0  0  0
    9.3181  -15.1379   25.5357 C   0  0  1  0  0  0  0  0  0  0  0  0
    8.5554  -14.1100   26.3504 C   0  0  0  0  0  0  0  0  0  0  0  0
    9.2775  -13.7488   27.9433 S   0  0  0  0  0  0  0  0  0  0  0  0
    9.4515  -16.4430   26.2066 C   0  0  0  0  0  0  0  0  0  0  0  0
    8.4578  -17.1666   26.5034 O   0  0  0  0  0  0  0  0  0  0  0  0
   12.1546  -18.8862   26.7592 C   0  0  0  0  0  0  0  0  0  0  0  0
   10.9041  -18.2050   27.2553 C   0  0  2  0  0  0  0  0  0  0  0  0
   10.7336  -16.9393   26.5470 N   0  0  0  0  0  0  0  0  0  0  0  0
   10.9288  -17.9777   28.7272 C   0  0  0  0  0  0  0  0  0  0  0  0
   11.0088  -16.7899   29.1328 O   0  0  0  0  0  0  0  0  0  0  0  0
   10.8689  -18.9960   29.6542 O   0  0  0  0  0  0  0  0  0  0  0  0
  1  2  1  0
  2  3  1  0
  3  4  1  6
  5  7  1  0
  5  3  1  0
  5  6  1  1
  7  8  2  0
  7  9  1  0
  9 10  1  0
 10 13  1  0
 11 12  1  0
 10 11  1  1
 13 14  2  0
 13 17  1  0
 16 15  1  6
 16 18  1  0
 17 16  1  0
 18 20  1  0
 19 18  2  0
M  END
$$$$
