ICA.pdb
     RDKit          3D

 20 19  0  0  1  0  0  0  0  0999 V2000
    5.6973  -10.7595   26.4766 C   0  0  0  0  0  0  0  0  0  0  0  0
    5.4882  -12.0536   25.7692 C   0  0  0  0  0  0  0  0  0  0  0  0
    6.6281  -13.0255   25.8423 C   0  0  2  0  0  0  0  0  0  0  0  0
    7.9069  -12.3087   25.4977 C   0  0  0  0  0  0  0  0  0  0  0  0
    6.4263  -14.3547   25.2470 C   0  0  2  0  0  0  0  0  0  0  0  0
    5.1786  -14.9338   25.8016 N   0  0  0  0  0  0  0  0  0  0  0  0
    7.4740  -15.3503   25.3474 C   0  0  0  0  0  0  0  0  0  0  0  0
    7.6451  -16.0938   26.3478 O   0  0  0  0  0  0  0  0  0  0  0  0
    8.3840  -15.5277   24.2693 N   0  0  0  0  0  0  0  0  0  0  0  0
    9.4966  -16.4878   24.4281 C   0  0  1  0  0  0  0  0  0  0  0  0
   10.1594  -16.5104   23.0636 C   0  0  0  0  0  0  0  0  0  0  0  0
   11.5649  -17.6058   22.9450 S   0  0  0  0  0  0  0  0  0  0  0  0
   10.3880  -16.0354   25.5107 C   0  0  0  0  0  0  0  0  0  0  0  0
   10.9851  -14.9209   25.4872 O   0  0  0  0  0  0  0  0  0  0  0  0
   10.7927  -15.2143   28.4068 C   0  0  0  0  0  0  0  0  0  0  0  0
   11.4317  -16.4195   27.7642 C   0  0  2  0  0  0  0  0  0  0  0  0
   10.6070  -16.8591   26.6419 N   0  0  0  0  0  0  0  0  0  0  0  0
   11.6336  -17.5358   28.7295 C   0  0  0  0  0  0  0  0  0  0  0  0
   10.9435  -18.5753   28.5719 O   0  0  0  0  0  0  0  0  0  0  0  0
   12.5307  -17.4834   29.7746 O   0  0  0  0  0  0  0  0  0  0  0  0
  1  2  1  0
  2  3  1  0
  3  4  1  6
  5  7  1  0
  5  3  1  0
  5  6  1  1
  7  8  2  0
  7  9  1  0
  9 10  1  0
 10 13  1  0
 11 12  1  0
 10 11  1  6
 13 14  2  0
 13 17  1  0
 16 15  1  1
 16 18  1  0
 17 16  1  0
 18 20  1  0
 19 18  2  0
M  END
$$$$
