ICA.pdb
     RDKit          3D

 20 19  0  0  1  0  0  0  0  0999 V2000
    7.5163  -12.1154   20.5834 C   0  0  0  0  0  0  0  0  0  0  0  0
    7.2173  -13.5429   20.8865 C   0  0  0  0  0  0  0  0  0  0  0  0
    8.4111  -14.4343   21.0585 C   0  0  2  0  0  0  0  0  0  0  0  0
    9.3338  -14.2507   19.8826 C   0  0  0  0  0  0  0  0  0  0  0  0
    8.1697  -15.8129   21.5091 C   0  0  2  0  0  0  0  0  0  0  0  0
    7.4600  -16.5427   20.4304 N   0  0  0  0  0  0  0  0  0  0  0  0
    7.4674  -16.0460   22.7547 C   0  0  0  0  0  0  0  0  0  0  0  0
    6.2871  -16.4752   22.8277 O   0  0  0  0  0  0  0  0  0  0  0  0
    8.1193  -15.7856   23.9913 N   0  0  0  0  0  0  0  0  0  0  0  0
    7.5045  -16.2861   25.2388 C   0  0  1  0  0  0  0  0  0  0  0  0
    7.5935  -17.7953   25.1121 C   0  0  0  0  0  0  0  0  0  0  0  0
    7.0543  -18.6896   26.5609 S   0  0  0  0  0  0  0  0  0  0  0  0
    8.2342  -15.7463   26.3996 C   0  0  0  0  0  0  0  0  0  0  0  0
    7.9183  -16.0152   27.5941 O   0  0  0  0  0  0  0  0  0  0  0  0
    9.2256  -13.2003   27.9358 C   0  0  0  0  0  0  0  0  0  0  0  0
   10.0643  -14.2969   27.3295 C   0  0  2  0  0  0  0  0  0  0  0  0
    9.3431  -14.8869   26.2049 N   0  0  0  0  0  0  0  0  0  0  0  0
   10.4278  -15.3465   28.3220 C   0  0  0  0  0  0  0  0  0  0  0  0
    9.8356  -16.4534   28.2439 O   0  0  0  0  0  0  0  0  0  0  0  0
   11.3714  -15.1636   29.3099 O   0  0  0  0  0  0  0  0  0  0  0  0
  1  2  1  0
  2  3  1  0
  3  4  1  6
  5  7  1  0
  5  3  1  0
  5  6  1  6
  7  8  2  0
  7  9  1  0
  9 10  1  0
 10 13  1  0
 11 12  1  0
 10 11  1  6
 13 14  2  0
 13 17  1  0
 16 15  1  1
 16 18  1  0
 17 16  1  0
 18 20  1  0
 19 18  2  0
M  END
$$$$
