KPM.pdb
     RDKit          3D

 25 25  0  0  1  0  0  0  0  0999 V2000
   24.1695  -20.2896  -16.4700 N   0  0  0  0  0  0  0  0  0  0  0  0
   24.8794  -19.4987  -15.5417 C   0  0  1  0  0  0  0  0  0  0  0  0
   24.1560  -18.3223  -14.9624 C   0  0  0  0  0  0  0  0  0  0  0  0
   23.9601  -17.1842  -15.8861 C   0  0  0  0  0  0  0  0  0  0  0  0
   22.5644  -17.0576  -16.3760 C   0  0  0  0  0  0  0  0  0  0  0  0
   22.4405  -15.8774  -17.3641 C   0  0  0  0  0  0  0  0  0  0  0  0
   21.1144  -15.8418  -17.9277 N   0  0  0  0  0  0  0  0  0  0  0  0
   25.4732  -20.3048  -14.4379 C   0  0  0  0  0  0  0  0  0  0  0  0
   24.6777  -21.1611  -13.9386 O   0  0  0  0  0  0  0  0  0  0  0  0
   26.7675  -20.2123  -13.9212 N   0  0  0  0  0  0  0  0  0  0  0  0
   27.7478  -19.2372  -14.2988 C   0  0  0  0  0  0  0  0  0  0  0  0
   28.9915  -19.4324  -13.4805 C   0  0  0  0  0  0  0  0  0  0  0  0
   28.8414  -20.8529  -12.9800 C   0  0  0  0  0  0  0  0  0  0  0  0
   27.3451  -21.0640  -12.9341 C   0  0  1  0  0  0  0  0  0  0  0  0
   26.8544  -20.8309  -11.5714 C   0  0  0  0  0  0  0  0  0  0  0  0
   27.2941  -19.8427  -10.9296 O   0  0  0  0  0  0  0  0  0  0  0  0
   27.5808  -18.0848   -7.0942 C   0  0  0  0  0  0  0  0  0  0  0  0
   27.1721  -19.6771   -6.3807 S   0  0  0  0  0  0  0  0  0  0  0  0
   26.0735  -20.6576   -7.4001 C   0  0  0  0  0  0  0  0  0  0  0  0
   26.5502  -20.7758   -8.8334 C   0  0  0  0  0  0  0  0  0  0  0  0
   25.5411  -21.6447   -9.5793 C   0  0  2  0  0  0  0  0  0  0  0  0
   25.9012  -21.6991  -10.9806 N   0  0  0  0  0  0  0  0  0  0  0  0
   24.2218  -20.9712   -9.4827 C   0  0  0  0  0  0  0  0  0  0  0  0
   23.5417  -20.9894   -8.4107 O   0  0  0  0  0  0  0  0  0  0  0  0
   23.6788  -20.2920  -10.5674 O   0  0  0  0  0  0  0  0  0  0  0  0
  2  1  1  1
  2  3  1  0
  3  4  1  0
  4  5  1  0
  6  7  1  0
  6  5  1  0
  8  2  1  0
  8 10  1  0
  9  8  2  0
 10 14  1  0
 11 10  1  0
 12 13  1  0
 12 11  1  0
 13 14  1  0
 14 15  1  1
 15 16  2  0
 15 22  1  0
 17 18  1  0
 18 19  1  0
 19 20  1  0
 21 20  1  1
 21 23  1  0
 22 21  1  0
 23 24  2  0
 23 25  1  0
M  END
$$$$
