KPM.pdb
     RDKit          3D

 25 25  0  0  1  0  0  0  0  0999 V2000
   23.3519  -22.2809  -15.0765 N   0  0  0  0  0  0  0  0  0  0  0  0
   24.2192  -21.2393  -14.6837 C   0  0  1  0  0  0  0  0  0  0  0  0
   23.5928  -19.9100  -14.3952 C   0  0  0  0  0  0  0  0  0  0  0  0
   22.1141  -19.8931  -14.4067 C   0  0  0  0  0  0  0  0  0  0  0  0
   21.5148  -19.9364  -13.0491 C   0  0  0  0  0  0  0  0  0  0  0  0
   19.9856  -19.7353  -13.1238 C   0  0  0  0  0  0  0  0  0  0  0  0
   19.3982  -19.9226  -11.8209 N   0  0  0  0  0  0  0  0  0  0  0  0
   25.1009  -21.6262  -13.5464 C   0  0  0  0  0  0  0  0  0  0  0  0
   24.6364  -22.5677  -12.8303 O   0  0  0  0  0  0  0  0  0  0  0  0
   26.3385  -21.0748  -13.2066 N   0  0  0  0  0  0  0  0  0  0  0  0
   27.0234  -20.0504  -13.9386 C   0  0  0  0  0  0  0  0  0  0  0  0
   28.2936  -19.6871  -13.2248 C   0  0  0  0  0  0  0  0  0  0  0  0
   28.5284  -20.8861  -12.3315 C   0  0  0  0  0  0  0  0  0  0  0  0
   27.1394  -21.4280  -12.0811 C   0  0  1  0  0  0  0  0  0  0  0  0
   26.6362  -20.9249  -10.7982 C   0  0  0  0  0  0  0  0  0  0  0  0
   25.7969  -19.9882  -10.8017 O   0  0  0  0  0  0  0  0  0  0  0  0
   29.5233  -19.3398   -4.9543 C   0  0  0  0  0  0  0  0  0  0  0  0
   28.2203  -20.5202   -4.6071 S   0  0  0  0  0  0  0  0  0  0  0  0
   27.0185  -20.6686   -5.9267 C   0  0  0  0  0  0  0  0  0  0  0  0
   27.6386  -21.0948   -7.2417 C   0  0  0  0  0  0  0  0  0  0  0  0
   26.5260  -21.1108   -8.2864 C   0  0  2  0  0  0  0  0  0  0  0  0
   27.0824  -21.4791   -9.5714 N   0  0  0  0  0  0  0  0  0  0  0  0
   26.0104  -19.7238   -8.4036 C   0  0  0  0  0  0  0  0  0  0  0  0
   26.6602  -18.8213   -9.0161 O   0  0  0  0  0  0  0  0  0  0  0  0
   24.7909  -19.3590   -7.8445 O   0  0  0  0  0  0  0  0  0  0  0  0
  2  1  1  1
  2  3  1  0
  3  4  1  0
  4  5  1  0
  6  7  1  0
  6  5  1  0
  8  2  1  0
  8 10  1  0
  9  8  2  0
 10 14  1  0
 11 10  1  0
 12 13  1  0
 12 11  1  0
 13 14  1  0
 14 15  1  1
 15 16  2  0
 15 22  1  0
 17 18  1  0
 18 19  1  0
 19 20  1  0
 21 20  1  1
 21 23  1  0
 22 21  1  0
 23 24  2  0
 23 25  1  0
M  END
$$$$
