KPM.pdb
     RDKit          3D

 25 25  0  0  1  0  0  0  0  0999 V2000
   21.7539  -21.7897  -13.6205 N   0  0  0  0  0  0  0  0  0  0  0  0
   22.7321  -20.8041  -13.3697 C   0  0  1  0  0  0  0  0  0  0  0  0
   22.2399  -19.4156  -13.1004 C   0  0  0  0  0  0  0  0  0  0  0  0
   22.3018  -18.4895  -14.2517 C   0  0  0  0  0  0  0  0  0  0  0  0
   21.5169  -18.9540  -15.4230 C   0  0  0  0  0  0  0  0  0  0  0  0
   21.5893  -17.9217  -16.5693 C   0  0  0  0  0  0  0  0  0  0  0  0
   20.7978  -18.3688  -17.6878 N   0  0  0  0  0  0  0  0  0  0  0  0
   23.6879  -21.2048  -12.2989 C   0  0  0  0  0  0  0  0  0  0  0  0
   23.1331  -21.7207  -11.2785 O   0  0  0  0  0  0  0  0  0  0  0  0
   25.0784  -21.0725  -12.3097 N   0  0  0  0  0  0  0  0  0  0  0  0
   25.8523  -20.4956  -13.3693 C   0  0  0  0  0  0  0  0  0  0  0  0
   27.3031  -20.4835  -12.9823 C   0  0  0  0  0  0  0  0  0  0  0  0
   27.3617  -21.5158  -11.8770 C   0  0  0  0  0  0  0  0  0  0  0  0
   25.9735  -21.4847  -11.2791 C   0  0  1  0  0  0  0  0  0  0  0  0
   25.9660  -20.6243  -10.0909 C   0  0  0  0  0  0  0  0  0  0  0  0
   25.6319  -19.4185  -10.2179 O   0  0  0  0  0  0  0  0  0  0  0  0
   29.9598  -21.5717   -4.6614 C   0  0  0  0  0  0  0  0  0  0  0  0
   28.4263  -20.8416   -4.0897 S   0  0  0  0  0  0  0  0  0  0  0  0
   27.4431  -20.1218   -5.4023 C   0  0  0  0  0  0  0  0  0  0  0  0
   27.2581  -21.0576   -6.5793 C   0  0  0  0  0  0  0  0  0  0  0  0
   26.4590  -20.3043   -7.6394 C   0  0  2  0  0  0  0  0  0  0  0  0
   26.3273  -21.1348   -8.8181 N   0  0  0  0  0  0  0  0  0  0  0  0
   27.2502  -19.1080   -8.0216 C   0  0  0  0  0  0  0  0  0  0  0  0
   26.9958  -17.9603   -7.5421 O   0  0  0  0  0  0  0  0  0  0  0  0
   28.3044  -19.1997   -8.9232 O   0  0  0  0  0  0  0  0  0  0  0  0
  2  1  1  1
  2  3  1  0
  3  4  1  0
  4  5  1  0
  6  7  1  0
  6  5  1  0
  8  2  1  0
  8 10  1  0
  9  8  2  0
 10 14  1  0
 11 10  1  0
 12 13  1  0
 12 11  1  0
 13 14  1  0
 14 15  1  1
 15 16  2  0
 15 22  1  0
 17 18  1  0
 18 19  1  0
 19 20  1  0
 21 20  1  1
 21 23  1  0
 22 21  1  0
 23 24  2  0
 23 25  1  0
M  END
$$$$
