KPM.pdb
     RDKit          3D

 25 25  0  0  1  0  0  0  0  0999 V2000
   26.8442  -24.1338  -17.9864 N   0  0  0  0  0  0  0  0  0  0  0  0
   26.5415  -22.7685  -17.7983 C   0  0  1  0  0  0  0  0  0  0  0  0
   25.1312  -22.3444  -18.0702 C   0  0  0  0  0  0  0  0  0  0  0  0
   24.1010  -23.3719  -17.8056 C   0  0  0  0  0  0  0  0  0  0  0  0
   23.7416  -23.4883  -16.3699 C   0  0  0  0  0  0  0  0  0  0  0  0
   22.2087  -23.4454  -16.1885 C   0  0  0  0  0  0  0  0  0  0  0  0
   21.8724  -23.5699  -14.7924 N   0  0  0  0  0  0  0  0  0  0  0  0
   26.9566  -22.2690  -16.4570 C   0  0  0  0  0  0  0  0  0  0  0  0
   27.2087  -23.1903  -15.6186 O   0  0  0  0  0  0  0  0  0  0  0  0
   27.0894  -20.9393  -16.0506 N   0  0  0  0  0  0  0  0  0  0  0  0
   26.7641  -19.7896  -16.8422 C   0  0  0  0  0  0  0  0  0  0  0  0
   26.9906  -18.5438  -16.0352 C   0  0  0  0  0  0  0  0  0  0  0  0
   27.9137  -19.0225  -14.9355 C   0  0  0  0  0  0  0  0  0  0  0  0
   27.5697  -20.4871  -14.7864 C   0  0  1  0  0  0  0  0  0  0  0  0
   26.6216  -20.6624  -13.6808 C   0  0  0  0  0  0  0  0  0  0  0  0
   25.4168  -20.9049  -13.9481 O   0  0  0  0  0  0  0  0  0  0  0  0
   25.4477  -20.4725   -5.8233 C   0  0  0  0  0  0  0  0  0  0  0  0
   26.4738  -20.0073   -7.2170 S   0  0  0  0  0  0  0  0  0  0  0  0
   25.9067  -20.6767   -8.7784 C   0  0  0  0  0  0  0  0  0  0  0  0
   26.8695  -20.4097   -9.9173 C   0  0  0  0  0  0  0  0  0  0  0  0
   26.1899  -20.8665  -11.2054 C   0  0  2  0  0  0  0  0  0  0  0  0
   27.0472  -20.5619  -12.3317 N   0  0  0  0  0  0  0  0  0  0  0  0
   24.9496  -20.0653  -11.3583 C   0  0  0  0  0  0  0  0  0  0  0  0
   23.8392  -20.4605  -10.8863 O   0  0  0  0  0  0  0  0  0  0  0  0
   24.9573  -18.8467  -12.0273 O   0  0  0  0  0  0  0  0  0  0  0  0
  2  1  1  1
  2  3  1  0
  3  4  1  0
  4  5  1  0
  6  7  1  0
  6  5  1  0
  8  2  1  0
  8 10  1  0
  9  8  2  0
 10 14  1  0
 11 10  1  0
 12 13  1  0
 12 11  1  0
 13 14  1  0
 14 15  1  1
 15 16  2  0
 15 22  1  0
 17 18  1  0
 18 19  1  0
 19 20  1  0
 21 20  1  1
 21 23  1  0
 22 21  1  0
 23 24  2  0
 23 25  1  0
M  END
$$$$
