KPM.pdb
     RDKit          3D

 25 25  0  0  1  0  0  0  0  0999 V2000
   23.3214  -21.5036  -12.5301 N   0  0  0  0  0  0  0  0  0  0  0  0
   24.5884  -20.8824  -12.5162 C   0  0  1  0  0  0  0  0  0  0  0  0
   24.6270  -19.4175  -12.8249 C   0  0  0  0  0  0  0  0  0  0  0  0
   24.2120  -19.0501  -14.1960 C   0  0  0  0  0  0  0  0  0  0  0  0
   22.7760  -18.6877  -14.2986 C   0  0  0  0  0  0  0  0  0  0  0  0
   22.4139  -18.3090  -15.7513 C   0  0  0  0  0  0  0  0  0  0  0  0
   21.0062  -18.0151  -15.8492 N   0  0  0  0  0  0  0  0  0  0  0  0
   25.3395  -21.1405  -11.2553 C   0  0  0  0  0  0  0  0  0  0  0  0
   24.5966  -21.3270  -10.2411 O   0  0  0  0  0  0  0  0  0  0  0  0
   26.7252  -21.1946  -11.0891 N   0  0  0  0  0  0  0  0  0  0  0  0
   27.6977  -20.9254  -12.1070 C   0  0  0  0  0  0  0  0  0  0  0  0
   29.0774  -21.0323  -11.5243 C   0  0  0  0  0  0  0  0  0  0  0  0
   28.8467  -21.8454  -10.2688 C   0  0  0  0  0  0  0  0  0  0  0  0
   27.4189  -21.5258   -9.8881 C   0  0  1  0  0  0  0  0  0  0  0  0
   27.4032  -20.4704   -8.8692 C   0  0  0  0  0  0  0  0  0  0  0  0
   27.3041  -19.2724   -9.2391 O   0  0  0  0  0  0  0  0  0  0  0  0
   24.8487  -20.7044   -2.5539 C   0  0  0  0  0  0  0  0  0  0  0  0
   26.4669  -19.9376   -2.4813 S   0  0  0  0  0  0  0  0  0  0  0  0
   27.0552  -19.3559   -4.0697 C   0  0  0  0  0  0  0  0  0  0  0  0
   26.9760  -20.4150   -5.1502 C   0  0  0  0  0  0  0  0  0  0  0  0
   27.4826  -19.7846   -6.4446 C   0  0  2  0  0  0  0  0  0  0  0  0
   27.4974  -20.7864   -7.4899 N   0  0  0  0  0  0  0  0  0  0  0  0
   28.8862  -19.3623   -6.2103 C   0  0  0  0  0  0  0  0  0  0  0  0
   29.8618  -20.1467   -6.4221 O   0  0  0  0  0  0  0  0  0  0  0  0
   29.1867  -18.0861   -5.7479 O   0  0  0  0  0  0  0  0  0  0  0  0
  2  1  1  1
  2  3  1  0
  3  4  1  0
  4  5  1  0
  6  7  1  0
  6  5  1  0
  8  2  1  0
  8 10  1  0
  9  8  2  0
 10 14  1  0
 11 10  1  0
 12 13  1  0
 12 11  1  0
 13 14  1  0
 14 15  1  1
 15 16  2  0
 15 22  1  0
 17 18  1  0
 18 19  1  0
 19 20  1  0
 21 20  1  1
 21 23  1  0
 22 21  1  0
 23 24  2  0
 23 25  1  0
M  END
$$$$
