KPM.pdb
     RDKit          3D

 25 25  0  0  1  0  0  0  0  0999 V2000
   23.6445  -22.0292  -13.1920 N   0  0  0  0  0  0  0  0  0  0  0  0
   24.7050  -21.1132  -13.0256 C   0  0  1  0  0  0  0  0  0  0  0  0
   24.3669  -19.6588  -13.1401 C   0  0  0  0  0  0  0  0  0  0  0  0
   23.8659  -19.2295  -14.4636 C   0  0  0  0  0  0  0  0  0  0  0  0
   22.4732  -19.6660  -14.7353 C   0  0  0  0  0  0  0  0  0  0  0  0
   21.9850  -19.1117  -16.0914 C   0  0  0  0  0  0  0  0  0  0  0  0
   22.9159  -18.1297  -16.5880 N   0  0  0  0  0  0  0  0  0  0  0  0
   25.4695  -21.3442  -11.7675 C   0  0  0  0  0  0  0  0  0  0  0  0
   24.7530  -21.7314  -10.7918 O   0  0  0  0  0  0  0  0  0  0  0  0
   26.8422  -21.1820  -11.5669 N   0  0  0  0  0  0  0  0  0  0  0  0
   27.7628  -20.6257  -12.5143 C   0  0  0  0  0  0  0  0  0  0  0  0
   29.1349  -20.5685  -11.9072 C   0  0  0  0  0  0  0  0  0  0  0  0
   29.0367  -21.5600  -10.7679 C   0  0  0  0  0  0  0  0  0  0  0  0
   27.5719  -21.5384  -10.3948 C   0  0  1  0  0  0  0  0  0  0  0  0
   27.3649  -20.6373   -9.2557 C   0  0  0  0  0  0  0  0  0  0  0  0
   26.9567  -19.4680   -9.4743 O   0  0  0  0  0  0  0  0  0  0  0  0
   27.5149  -20.3086   -1.4400 C   0  0  0  0  0  0  0  0  0  0  0  0
   28.5681  -20.6227   -2.8556 S   0  0  0  0  0  0  0  0  0  0  0  0
   27.9328  -19.9422   -4.3856 C   0  0  0  0  0  0  0  0  0  0  0  0
   27.9912  -20.9262   -5.5360 C   0  0  0  0  0  0  0  0  0  0  0  0
   27.4434  -20.2165   -6.7713 C   0  0  2  0  0  0  0  0  0  0  0  0
   27.6181  -21.0688   -7.9286 N   0  0  0  0  0  0  0  0  0  0  0  0
   28.2673  -19.0002   -6.9834 C   0  0  0  0  0  0  0  0  0  0  0  0
   29.4370  -19.0652   -7.4728 O   0  0  0  0  0  0  0  0  0  0  0  0
   27.7869  -17.7382   -6.6527 O   0  0  0  0  0  0  0  0  0  0  0  0
  2  1  1  1
  2  3  1  0
  3  4  1  0
  4  5  1  0
  6  7  1  0
  6  5  1  0
  8  2  1  0
  8 10  1  0
  9  8  2  0
 10 14  1  0
 11 10  1  0
 12 13  1  0
 12 11  1  0
 13 14  1  0
 14 15  1  1
 15 16  2  0
 15 22  1  0
 17 18  1  0
 18 19  1  0
 19 20  1  0
 21 20  1  1
 21 23  1  0
 22 21  1  0
 23 24  2  0
 23 25  1  0
M  END
$$$$
