KPM.pdb
     RDKit          3D

 25 25  0  0  1  0  0  0  0  0999 V2000
   24.8776  -20.6224  -16.5822 N   0  0  0  0  0  0  0  0  0  0  0  0
   25.6413  -19.8531  -15.6788 C   0  0  1  0  0  0  0  0  0  0  0  0
   25.0986  -18.5071  -15.3094 C   0  0  0  0  0  0  0  0  0  0  0  0
   23.7773  -18.1791  -15.8869 C   0  0  0  0  0  0  0  0  0  0  0  0
   22.6581  -18.3423  -14.9253 C   0  0  0  0  0  0  0  0  0  0  0  0
   21.3169  -17.9468  -15.5806 C   0  0  0  0  0  0  0  0  0  0  0  0
   20.2222  -18.2721  -14.7013 N   0  0  0  0  0  0  0  0  0  0  0  0
   25.9875  -20.6026  -14.4381 C   0  0  0  0  0  0  0  0  0  0  0  0
   25.0719  -21.3874  -14.0369 O   0  0  0  0  0  0  0  0  0  0  0  0
   27.1737  -20.5275  -13.7046 N   0  0  0  0  0  0  0  0  0  0  0  0
   28.2717  -19.6495  -13.9836 C   0  0  0  0  0  0  0  0  0  0  0  0
   29.3347  -19.8269  -12.9380 C   0  0  0  0  0  0  0  0  0  0  0  0
   28.9985  -21.1791  -12.3471 C   0  0  0  0  0  0  0  0  0  0  0  0
   27.5064  -21.3042  -12.5559 C   0  0  1  0  0  0  0  0  0  0  0  0
   26.8008  -20.9080  -11.3322 C   0  0  0  0  0  0  0  0  0  0  0  0
   26.5710  -19.6876  -11.1332 O   0  0  0  0  0  0  0  0  0  0  0  0
   27.6186  -18.1557   -6.4658 C   0  0  0  0  0  0  0  0  0  0  0  0
   27.8776  -19.8805   -6.0538 S   0  0  0  0  0  0  0  0  0  0  0  0
   26.8781  -21.0061   -7.0242 C   0  0  0  0  0  0  0  0  0  0  0  0
   26.5789  -20.4792   -8.4128 C   0  0  0  0  0  0  0  0  0  0  0  0
   25.7439  -21.5356   -9.1312 C   0  0  2  0  0  0  0  0  0  0  0  0
   26.3817  -21.8771  -10.3854 N   0  0  0  0  0  0  0  0  0  0  0  0
   24.4317  -20.9194   -9.4504 C   0  0  0  0  0  0  0  0  0  0  0  0
   24.2681  -20.1981  -10.4823 O   0  0  0  0  0  0  0  0  0  0  0  0
   23.3275  -21.1097   -8.6275 O   0  0  0  0  0  0  0  0  0  0  0  0
  2  1  1  1
  2  3  1  0
  3  4  1  0
  4  5  1  0
  6  7  1  0
  6  5  1  0
  8  2  1  0
  8 10  1  0
  9  8  2  0
 10 14  1  0
 11 10  1  0
 12 13  1  0
 12 11  1  0
 13 14  1  0
 14 15  1  1
 15 16  2  0
 15 22  1  0
 17 18  1  0
 18 19  1  0
 19 20  1  0
 21 20  1  6
 21 23  1  0
 22 21  1  0
 23 24  2  0
 23 25  1  0
M  END
$$$$
