KPM.pdb
     RDKit          3D

 25 25  0  0  1  0  0  0  0  0999 V2000
   23.6426  -23.3189  -17.5636 N   0  0  0  0  0  0  0  0  0  0  0  0
   22.4879  -22.5649  -17.2645 C   0  0  1  0  0  0  0  0  0  0  0  0
   21.2140  -22.9859  -17.9297 C   0  0  0  0  0  0  0  0  0  0  0  0
   20.7887  -22.1442  -19.0690 C   0  0  0  0  0  0  0  0  0  0  0  0
   20.6054  -20.7157  -18.7087 C   0  0  0  0  0  0  0  0  0  0  0  0
   19.9858  -19.9335  -19.8873 C   0  0  0  0  0  0  0  0  0  0  0  0
   21.0203  -19.2612  -20.6325 N   0  0  0  0  0  0  0  0  0  0  0  0
   22.2568  -22.4278  -15.7987 C   0  0  0  0  0  0  0  0  0  0  0  0
   22.3451  -23.5216  -15.1578 O   0  0  0  0  0  0  0  0  0  0  0  0
   21.9643  -21.2593  -15.0916 N   0  0  0  0  0  0  0  0  0  0  0  0
   21.8511  -19.9481  -15.6593 C   0  0  0  0  0  0  0  0  0  0  0  0
   21.4709  -18.9679  -14.5872 C   0  0  0  0  0  0  0  0  0  0  0  0
   21.8526  -19.6981  -13.3176 C   0  0  0  0  0  0  0  0  0  0  0  0
   21.7286  -21.1583  -13.6889 C   0  0  1  0  0  0  0  0  0  0  0  0
   20.4235  -21.6695  -13.2560 C   0  0  0  0  0  0  0  0  0  0  0  0
   19.5052  -21.7853  -14.1076 O   0  0  0  0  0  0  0  0  0  0  0  0
   16.8526  -25.9364   -7.6007 C   0  0  0  0  0  0  0  0  0  0  0  0
   18.2273  -24.8754   -8.0436 S   0  0  0  0  0  0  0  0  0  0  0  0
   18.0947  -24.1815   -9.6893 C   0  0  0  0  0  0  0  0  0  0  0  0
   19.2839  -23.3198  -10.0619 C   0  0  0  0  0  0  0  0  0  0  0  0
   19.0384  -22.7890  -11.4717 C   0  0  2  0  0  0  0  0  0  0  0  0
   20.1927  -22.0292  -11.9038 N   0  0  0  0  0  0  0  0  0  0  0  0
   17.8892  -21.8524  -11.3970 C   0  0  0  0  0  0  0  0  0  0  0  0
   16.6904  -22.2611  -11.4844 O   0  0  0  0  0  0  0  0  0  0  0  0
   18.0834  -20.4863  -11.2280 O   0  0  0  0  0  0  0  0  0  0  0  0
  2  1  1  1
  2  3  1  0
  3  4  1  0
  4  5  1  0
  6  7  1  0
  6  5  1  0
  8  2  1  0
  8 10  1  0
  9  8  2  0
 10 14  1  0
 11 10  1  0
 12 13  1  0
 12 11  1  0
 13 14  1  0
 14 15  1  6
 15 16  2  0
 15 22  1  0
 17 18  1  0
 18 19  1  0
 19 20  1  0
 21 20  1  1
 21 23  1  0
 22 21  1  0
 23 24  2  0
 23 25  1  0
M  END
$$$$
