KPM.pdb
     RDKit          3D

 25 25  0  0  1  0  0  0  0  0999 V2000
   23.7979  -22.0646  -13.1639 N   0  0  0  0  0  0  0  0  0  0  0  0
   24.8032  -21.1053  -12.9180 C   0  0  1  0  0  0  0  0  0  0  0  0
   24.3816  -19.6683  -12.9187 C   0  0  0  0  0  0  0  0  0  0  0  0
   24.7990  -18.8886  -14.1040 C   0  0  0  0  0  0  0  0  0  0  0  0
   24.6646  -19.6383  -15.3783 C   0  0  0  0  0  0  0  0  0  0  0  0
   25.0858  -18.7567  -16.5741 C   0  0  0  0  0  0  0  0  0  0  0  0
   24.9112  -19.4810  -17.8080 N   0  0  0  0  0  0  0  0  0  0  0  0
   25.5771  -21.3914  -11.6771 C   0  0  0  0  0  0  0  0  0  0  0  0
   24.8751  -21.8621  -10.7280 O   0  0  0  0  0  0  0  0  0  0  0  0
   26.9445  -21.1994  -11.4668 N   0  0  0  0  0  0  0  0  0  0  0  0
   27.8633  -20.6424  -12.4154 C   0  0  0  0  0  0  0  0  0  0  0  0
   29.2282  -20.5479  -11.7967 C   0  0  0  0  0  0  0  0  0  0  0  0
   29.1380  -21.5207  -10.6407 C   0  0  0  0  0  0  0  0  0  0  0  0
   27.6695  -21.5206  -10.2817 C   0  0  1  0  0  0  0  0  0  0  0  0
   27.4344  -20.6036   -9.1609 C   0  0  0  0  0  0  0  0  0  0  0  0
   27.1023  -19.4162   -9.4089 O   0  0  0  0  0  0  0  0  0  0  0  0
   30.0975  -21.5481   -3.0613 C   0  0  0  0  0  0  0  0  0  0  0  0
   28.7140  -20.4395   -2.7990 S   0  0  0  0  0  0  0  0  0  0  0  0
   27.9984  -19.8160   -4.3178 C   0  0  0  0  0  0  0  0  0  0  0  0
   28.0642  -20.8169   -5.4533 C   0  0  0  0  0  0  0  0  0  0  0  0
   27.4407  -20.1565   -6.6799 C   0  0  2  0  0  0  0  0  0  0  0  0
   27.5767  -21.0398   -7.8190 N   0  0  0  0  0  0  0  0  0  0  0  0
   28.2263  -18.9305   -6.9686 C   0  0  0  0  0  0  0  0  0  0  0  0
   29.3218  -18.9770   -7.6087 O   0  0  0  0  0  0  0  0  0  0  0  0
   27.7901  -17.6797   -6.5471 O   0  0  0  0  0  0  0  0  0  0  0  0
  2  1  1  1
  2  3  1  0
  3  4  1  0
  4  5  1  0
  6  7  1  0
  6  5  1  0
  8  2  1  0
  8 10  1  0
  9  8  2  0
 10 14  1  0
 11 10  1  0
 12 13  1  0
 12 11  1  0
 13 14  1  0
 14 15  1  1
 15 16  2  0
 15 22  1  0
 17 18  1  0
 18 19  1  0
 19 20  1  0
 21 20  1  1
 21 23  1  0
 22 21  1  0
 23 24  2  0
 23 25  1  0
M  END
$$$$
