KPM.pdb
     RDKit          3D

 25 25  0  0  1  0  0  0  0  0999 V2000
   25.3098  -20.3631  -19.3742 N   0  0  0  0  0  0  0  0  0  0  0  0
   25.2837  -19.2828  -18.4667 C   0  0  1  0  0  0  0  0  0  0  0  0
   23.9618  -18.6134  -18.2497 C   0  0  0  0  0  0  0  0  0  0  0  0
   23.3579  -18.0033  -19.4539 C   0  0  0  0  0  0  0  0  0  0  0  0
   22.1391  -18.7095  -19.9227 C   0  0  0  0  0  0  0  0  0  0  0  0
   21.5306  -17.9893  -21.1457 C   0  0  0  0  0  0  0  0  0  0  0  0
   20.3913  -18.7239  -21.6356 N   0  0  0  0  0  0  0  0  0  0  0  0
   25.8840  -19.6282  -17.1472 C   0  0  0  0  0  0  0  0  0  0  0  0
   25.9849  -20.8776  -16.9373 O   0  0  0  0  0  0  0  0  0  0  0  0
   26.3279  -18.7455  -16.1599 N   0  0  0  0  0  0  0  0  0  0  0  0
   26.2252  -17.3168  -16.2122 C   0  0  0  0  0  0  0  0  0  0  0  0
   26.7622  -16.7279  -14.9395 C   0  0  0  0  0  0  0  0  0  0  0  0
   27.6110  -17.8514  -14.3847 C   0  0  0  0  0  0  0  0  0  0  0  0
   26.9596  -19.1011  -14.9320 C   0  0  1  0  0  0  0  0  0  0  0  0
   26.0534  -19.6673  -13.9268 C   0  0  0  0  0  0  0  0  0  0  0  0
   24.8124  -19.5729  -14.1079 O   0  0  0  0  0  0  0  0  0  0  0  0
   26.6783  -19.2900   -7.3653 C   0  0  0  0  0  0  0  0  0  0  0  0
   26.0041  -20.9250   -7.6549 S   0  0  0  0  0  0  0  0  0  0  0  0
   25.4015  -21.1654   -9.3243 C   0  0  0  0  0  0  0  0  0  0  0  0
   26.3713  -20.6685  -10.3769 C   0  0  0  0  0  0  0  0  0  0  0  0
   25.7095  -20.8691  -11.7375 C   0  0  2  0  0  0  0  0  0  0  0  0
   26.5590  -20.3113  -12.7688 N   0  0  0  0  0  0  0  0  0  0  0  0
   24.4444  -20.0926  -11.7320 C   0  0  0  0  0  0  0  0  0  0  0  0
   23.3381  -20.6243  -11.4078 O   0  0  0  0  0  0  0  0  0  0  0  0
   24.4234  -18.7476  -12.0834 O   0  0  0  0  0  0  0  0  0  0  0  0
  2  1  1  6
  2  3  1  0
  3  4  1  0
  4  5  1  0
  6  7  1  0
  6  5  1  0
  8  2  1  0
  8 10  1  0
  9  8  2  0
 10 14  1  0
 11 10  1  0
 12 13  1  0
 12 11  1  0
 13 14  1  0
 14 15  1  1
 15 16  2  0
 15 22  1  0
 17 18  1  0
 18 19  1  0
 19 20  1  0
 21 20  1  1
 21 23  1  0
 22 21  1  0
 23 24  2  0
 23 25  1  0
M  END
$$$$
