KPM.pdb
     RDKit          3D

 25 25  0  0  1  0  0  0  0  0999 V2000
   23.7215  -22.6766  -15.0205 N   0  0  0  0  0  0  0  0  0  0  0  0
   24.3568  -21.4889  -14.5997 C   0  0  1  0  0  0  0  0  0  0  0  0
   23.4685  -20.3582  -14.1814 C   0  0  0  0  0  0  0  0  0  0  0  0
   22.3991  -20.0073  -15.1409 C   0  0  0  0  0  0  0  0  0  0  0  0
   21.1060  -20.6763  -14.8509 C   0  0  0  0  0  0  0  0  0  0  0  0
   20.0257  -20.2310  -15.8605 C   0  0  0  0  0  0  0  0  0  0  0  0
   18.8000  -20.9511  -15.6227 N   0  0  0  0  0  0  0  0  0  0  0  0
   25.3794  -21.7295  -13.5428 C   0  0  0  0  0  0  0  0  0  0  0  0
   25.1625  -22.7669  -12.8415 O   0  0  0  0  0  0  0  0  0  0  0  0
   26.5071  -20.9549  -13.2614 N   0  0  0  0  0  0  0  0  0  0  0  0
   26.9232  -19.7932  -13.9905 C   0  0  0  0  0  0  0  0  0  0  0  0
   28.1471  -19.2080  -13.3468 C   0  0  0  0  0  0  0  0  0  0  0  0
   28.6764  -20.3637  -12.5254 C   0  0  0  0  0  0  0  0  0  0  0  0
   27.4423  -21.1772  -12.2081 C   0  0  1  0  0  0  0  0  0  0  0  0
   26.9463  -20.8233  -10.8736 C   0  0  0  0  0  0  0  0  0  0  0  0
   25.9015  -20.1295  -10.7796 O   0  0  0  0  0  0  0  0  0  0  0  0
   29.9463  -20.5238   -4.4577 C   0  0  0  0  0  0  0  0  0  0  0  0
   28.5221  -19.5302   -4.9005 S   0  0  0  0  0  0  0  0  0  0  0  0
   27.4444  -20.3163   -6.0954 C   0  0  0  0  0  0  0  0  0  0  0  0
   28.1024  -20.5038   -7.4472 C   0  0  0  0  0  0  0  0  0  0  0  0
   27.0672  -21.1343   -8.3747 C   0  0  2  0  0  0  0  0  0  0  0  0
   27.6264  -21.2516   -9.7051 N   0  0  0  0  0  0  0  0  0  0  0  0
   25.9175  -20.1987   -8.4541 C   0  0  0  0  0  0  0  0  0  0  0  0
   26.0019  -19.0904   -9.0677 O   0  0  0  0  0  0  0  0  0  0  0  0
   24.6994  -20.5022   -7.8566 O   0  0  0  0  0  0  0  0  0  0  0  0
  2  1  1  1
  2  3  1  0
  3  4  1  0
  4  5  1  0
  6  7  1  0
  6  5  1  0
  8  2  1  0
  8 10  1  0
  9  8  2  0
 10 14  1  0
 11 10  1  0
 12 13  1  0
 12 11  1  0
 13 14  1  0
 14 15  1  1
 15 16  2  0
 15 22  1  0
 17 18  1  0
 18 19  1  0
 19 20  1  0
 21 20  1  1
 21 23  1  0
 22 21  1  0
 23 24  2  0
 23 25  1  0
M  END
$$$$
