KPM.pdb
     RDKit          3D

 25 25  0  0  1  0  0  0  0  0999 V2000
   24.0935  -23.2135  -14.0499 N   0  0  0  0  0  0  0  0  0  0  0  0
   24.4790  -21.9229  -13.6291 C   0  0  1  0  0  0  0  0  0  0  0  0
   23.3823  -20.9895  -13.2184 C   0  0  0  0  0  0  0  0  0  0  0  0
   22.3183  -20.7841  -14.2248 C   0  0  0  0  0  0  0  0  0  0  0  0
   22.6460  -19.7336  -15.2213 C   0  0  0  0  0  0  0  0  0  0  0  0
   21.4876  -19.5592  -16.2274 C   0  0  0  0  0  0  0  0  0  0  0  0
   21.8927  -18.6871  -17.3012 N   0  0  0  0  0  0  0  0  0  0  0  0
   25.5232  -21.9547  -12.5664 C   0  0  0  0  0  0  0  0  0  0  0  0
   25.3217  -22.8340  -11.6711 O   0  0  0  0  0  0  0  0  0  0  0  0
   26.6556  -21.1434  -12.4649 N   0  0  0  0  0  0  0  0  0  0  0  0
   27.0287  -20.1141  -13.3900 C   0  0  0  0  0  0  0  0  0  0  0  0
   28.2749  -19.4309  -12.9052 C   0  0  0  0  0  0  0  0  0  0  0  0
   28.8503  -20.4382  -11.9331 C   0  0  0  0  0  0  0  0  0  0  0  0
   27.6387  -21.1915  -11.4332 C   0  0  1  0  0  0  0  0  0  0  0  0
   27.1997  -20.6274  -10.1520 C   0  0  0  0  0  0  0  0  0  0  0  0
   26.0925  -20.0331  -10.0991 O   0  0  0  0  0  0  0  0  0  0  0  0
   30.4910  -21.0053   -3.9035 C   0  0  0  0  0  0  0  0  0  0  0  0
   29.4065  -19.5972   -4.1333 S   0  0  0  0  0  0  0  0  0  0  0  0
   28.1327  -19.8680   -5.3628 C   0  0  0  0  0  0  0  0  0  0  0  0
   28.6946  -20.2351   -6.7210 C   0  0  0  0  0  0  0  0  0  0  0  0
   27.5111  -20.4720   -7.6552 C   0  0  2  0  0  0  0  0  0  0  0  0
   28.0028  -20.7458   -8.9892 N   0  0  0  0  0  0  0  0  0  0  0  0
   26.7359  -19.2076   -7.7153 C   0  0  0  0  0  0  0  0  0  0  0  0
   27.0802  -18.2509   -8.4756 O   0  0  0  0  0  0  0  0  0  0  0  0
   25.5985  -19.0224   -6.9376 O   0  0  0  0  0  0  0  0  0  0  0  0
  2  1  1  1
  2  3  1  0
  3  4  1  0
  4  5  1  0
  6  7  1  0
  6  5  1  0
  8  2  1  0
  8 10  1  0
  9  8  2  0
 10 14  1  0
 11 10  1  0
 12 13  1  0
 12 11  1  0
 13 14  1  0
 14 15  1  1
 15 16  2  0
 15 22  1  0
 17 18  1  0
 18 19  1  0
 19 20  1  0
 21 20  1  1
 21 23  1  0
 22 21  1  0
 23 24  2  0
 23 25  1  0
M  END
$$$$
