KPM.pdb
     RDKit          3D

 25 25  0  0  1  0  0  0  0  0999 V2000
   22.4119  -18.6502  -16.9297 N   0  0  0  0  0  0  0  0  0  0  0  0
   23.5492  -18.6534  -16.0943 C   0  0  1  0  0  0  0  0  0  0  0  0
   23.3099  -18.8304  -14.6266 C   0  0  0  0  0  0  0  0  0  0  0  0
   22.0053  -19.4268  -14.2671 C   0  0  0  0  0  0  0  0  0  0  0  0
   22.0798  -20.8843  -13.9949 C   0  0  0  0  0  0  0  0  0  0  0  0
   20.6678  -21.4681  -13.7716 C   0  0  0  0  0  0  0  0  0  0  0  0
   20.7473  -22.8942  -13.5786 N   0  0  0  0  0  0  0  0  0  0  0  0
   24.5885  -19.6218  -16.5448 C   0  0  0  0  0  0  0  0  0  0  0  0
   24.1215  -20.6305  -17.1609 O   0  0  0  0  0  0  0  0  0  0  0  0
   25.9701  -19.5299  -16.3616 N   0  0  0  0  0  0  0  0  0  0  0  0
   26.6503  -18.4766  -15.6671 C   0  0  0  0  0  0  0  0  0  0  0  0
   28.1235  -18.7652  -15.6359 C   0  0  0  0  0  0  0  0  0  0  0  0
   28.2904  -19.7678  -16.7574 C   0  0  0  0  0  0  0  0  0  0  0  0
   26.9470  -20.4575  -16.8288 C   0  0  1  0  0  0  0  0  0  0  0  0
   26.9963  -21.7155  -16.0756 C   0  0  0  0  0  0  0  0  0  0  0  0
   26.4778  -21.7569  -14.9305 O   0  0  0  0  0  0  0  0  0  0  0  0
   22.4076  -25.2455  -14.0082 C   0  0  0  0  0  0  0  0  0  0  0  0
   23.3432  -25.1126  -15.5309 S   0  0  0  0  0  0  0  0  0  0  0  0
   25.0772  -24.7443  -15.2759 C   0  0  0  0  0  0  0  0  0  0  0  0
   25.8243  -24.5042  -16.5719 C   0  0  0  0  0  0  0  0  0  0  0  0
   27.2796  -24.2168  -16.2126 C   0  0  2  0  0  0  0  0  0  0  0  0
   27.6152  -22.8689  -16.6213 N   0  0  0  0  0  0  0  0  0  0  0  0
   28.1221  -25.1470  -17.0052 C   0  0  0  0  0  0  0  0  0  0  0  0
   28.3715  -24.9381  -18.2325 O   0  0  0  0  0  0  0  0  0  0  0  0
   28.6723  -26.2873  -16.4309 O   0  0  0  0  0  0  0  0  0  0  0  0
  2  1  1  6
  2  3  1  0
  3  4  1  0
  4  5  1  0
  6  7  1  0
  6  5  1  0
  8  2  1  0
  8 10  1  0
  9  8  2  0
 10 14  1  0
 11 10  1  0
 12 13  1  0
 12 11  1  0
 13 14  1  0
 14 15  1  1
 15 16  2  0
 15 22  1  0
 17 18  1  0
 18 19  1  0
 19 20  1  0
 21 20  1  6
 21 23  1  0
 22 21  1  0
 23 24  2  0
 23 25  1  0
M  END
$$$$
