NFW.pdb
     RDKit          3D

 34 36  0  0  1  0  0  0  0  0999 V2000
   24.7734  -26.1759  -16.5797 N   0  0  0  0  0  0  0  0  0  0  0  0
   25.1969  -24.8415  -16.7668 C   0  0  0  0  0  0  0  0  0  0  0  0
   24.7448  -24.1651  -17.7155 O   0  0  0  0  0  0  0  0  0  0  0  0
   26.1762  -24.2557  -15.8328 C   0  0  0  0  0  0  0  0  0  0  0  0
   26.5565  -22.8654  -16.3192 C   0  0  2  0  0  0  0  0  0  0  0  0
   27.4400  -22.8690  -17.4303 N   0  0  0  0  0  0  0  0  0  0  0  0
   27.0198  -22.0931  -15.1534 C   0  0  0  0  0  0  0  0  0  0  0  0
   28.2178  -22.2726  -14.7915 O   0  0  0  0  0  0  0  0  0  0  0  0
   26.2246  -21.1750  -14.4189 N   0  0  0  0  0  0  0  0  0  0  0  0
   26.6887  -20.5092  -13.2089 C   0  0  1  0  0  0  0  0  0  0  0  0
   26.6499  -19.0318  -13.4260 C   0  0  0  0  0  0  0  0  0  0  0  0
   27.5339  -18.5579  -14.4931 C   0  0  0  0  0  0  0  0  0  0  0  0
   28.9044  -18.6681  -14.4289 C   0  0  0  0  0  0  0  0  0  0  0  0
   29.7195  -18.2066  -15.4652 C   0  0  0  0  0  0  0  0  0  0  0  0
   29.1735  -17.6258  -16.5851 C   0  0  0  0  0  0  0  0  0  0  0  0
   27.8046  -17.5121  -16.6565 C   0  0  0  0  0  0  0  0  0  0  0  0
   27.0102  -17.9737  -15.6223 C   0  0  0  0  0  0  0  0  0  0  0  0
   25.9395  -20.9502  -12.0192 C   0  0  0  0  0  0  0  0  0  0  0  0
   24.7014  -21.1434  -12.1081 O   0  0  0  0  0  0  0  0  0  0  0  0
   26.5515  -21.1721  -10.7564 N   0  0  0  0  0  0  0  0  0  0  0  0
   25.8194  -21.4857   -9.5574 C   0  0  1  0  0  0  0  0  0  0  0  0
   26.7320  -21.8484   -8.4063 C   0  0  0  0  0  0  0  0  0  0  0  0
   27.3174  -20.6392   -7.7833 C   0  0  0  0  0  0  0  0  0  0  0  0
   27.0084  -19.3446   -8.1308 C   0  0  0  0  0  0  0  0  0  0  0  0
   27.6988  -18.4671   -7.3912 N   0  0  0  0  0  0  0  0  0  0  0  0
   28.4612  -19.2021   -6.5579 C   0  0  0  0  0  0  0  0  0  0  0  0
   29.3772  -18.8381   -5.5695 C   0  0  0  0  0  0  0  0  0  0  0  0
   30.0331  -19.8033   -4.8498 C   0  0  0  0  0  0  0  0  0  0  0  0
   29.8116  -21.1421   -5.0768 C   0  0  0  0  0  0  0  0  0  0  0  0
   28.9114  -21.5202   -6.0478 C   0  0  0  0  0  0  0  0  0  0  0  0
   28.2493  -20.5484   -6.7743 C   0  0  0  0  0  0  0  0  0  0  0  0
   25.0432  -20.2858   -9.1545 C   0  0  0  0  0  0  0  0  0  0  0  0
   25.2629  -19.1375   -9.6156 O   0  0  0  0  0  0  0  0  0  0  0  0
   24.0123  -20.3844   -8.2248 O   0  0  0  0  0  0  0  0  0  0  0  0
  2  1  1  0
  2  3  2  0
  4  2  1  0
  5  7  1  0
  5  4  1  0
  5  6  1  6
  7  8  2  0
  9 10  1  0
  9  7  1  0
 10 11  1  6
 11 12  1  0
 12 17  2  0
 13 14  2  0
 13 12  1  0
 14 15  1  0
 15 16  2  0
 17 16  1  0
 18 10  1  0
 19 18  2  0
 20 18  1  0
 21 20  1  0
 21 22  1  1
 22 23  1  0
 23 31  1  0
 24 25  1  0
 24 23  2  0
 25 26  1  0
 26 31  2  0
 26 27  1  0
 27 28  2  0
 28 29  1  0
 30 29  2  0
 31 30  1  0
 32 21  1  0
 32 34  1  0
 33 32  2  0
M  END
$$$$
