NFW.pdb
     RDKit          3D

 34 36  0  0  1  0  0  0  0  0999 V2000
   35.9790  -27.3370  -21.4106 N   0  0  0  0  0  0  0  0  0  0  0  0
   35.8876  -28.6014  -20.7878 C   0  0  0  0  0  0  0  0  0  0  0  0
   36.5984  -29.5502  -21.1830 O   0  0  0  0  0  0  0  0  0  0  0  0
   34.9465  -28.7899  -19.6683 C   0  0  0  0  0  0  0  0  0  0  0  0
   35.5674  -28.2299  -18.3974 C   0  0  2  0  0  0  0  0  0  0  0  0
   36.5186  -29.0948  -17.7954 N   0  0  0  0  0  0  0  0  0  0  0  0
   34.4704  -27.7949  -17.5158 C   0  0  0  0  0  0  0  0  0  0  0  0
   34.1180  -28.5994  -16.6064 O   0  0  0  0  0  0  0  0  0  0  0  0
   33.7914  -26.5525  -17.6162 N   0  0  0  0  0  0  0  0  0  0  0  0
   32.7560  -26.1325  -16.6811 C   0  0  1  0  0  0  0  0  0  0  0  0
   33.1156  -24.7897  -16.1343 C   0  0  0  0  0  0  0  0  0  0  0  0
   33.7699  -24.8297  -14.8248 C   0  0  0  0  0  0  0  0  0  0  0  0
   35.0736  -25.2377  -14.6557 C   0  0  0  0  0  0  0  0  0  0  0  0
   35.6686  -25.2631  -13.3922 C   0  0  0  0  0  0  0  0  0  0  0  0
   34.9656  -24.8795  -12.2749 C   0  0  0  0  0  0  0  0  0  0  0  0
   33.6622  -24.4706  -12.4359 C   0  0  0  0  0  0  0  0  0  0  0  0
   33.0864  -24.4507  -13.6935 C   0  0  0  0  0  0  0  0  0  0  0  0
   31.4152  -26.1813  -17.2902 C   0  0  0  0  0  0  0  0  0  0  0  0
   31.2908  -25.9705  -18.5223 O   0  0  0  0  0  0  0  0  0  0  0  0
   30.2362  -26.4580  -16.5472 N   0  0  0  0  0  0  0  0  0  0  0  0
   28.9143  -26.4593  -17.1167 C   0  0  1  0  0  0  0  0  0  0  0  0
   27.8427  -26.7116  -16.0788 C   0  0  0  0  0  0  0  0  0  0  0  0
   26.5067  -26.8363  -16.7054 C   0  0  0  0  0  0  0  0  0  0  0  0
   26.0650  -27.9324  -17.4095 C   0  0  0  0  0  0  0  0  0  0  0  0
   24.8153  -27.7497  -17.8551 N   0  0  0  0  0  0  0  0  0  0  0  0
   24.4463  -26.5238  -17.4349 C   0  0  0  0  0  0  0  0  0  0  0  0
   23.2635  -25.8006  -17.5981 C   0  0  0  0  0  0  0  0  0  0  0  0
   23.1440  -24.5458  -17.0586 C   0  0  0  0  0  0  0  0  0  0  0  0
   24.1721  -23.9688  -16.3495 C   0  0  0  0  0  0  0  0  0  0  0  0
   25.3465  -24.6672  -16.1781 C   0  0  0  0  0  0  0  0  0  0  0  0
   25.4687  -25.9323  -16.7214 C   0  0  0  0  0  0  0  0  0  0  0  0
   28.6584  -25.1230  -17.7111 C   0  0  0  0  0  0  0  0  0  0  0  0
   28.0009  -24.9550  -18.7689 O   0  0  0  0  0  0  0  0  0  0  0  0
   29.1487  -23.9694  -17.1062 O   0  0  0  0  0  0  0  0  0  0  0  0
  2  1  1  0
  2  3  2  0
  4  2  1  0
  5  7  1  0
  5  4  1  0
  5  6  1  1
  7  8  2  0
  9 10  1  0
  9  7  1  0
 10 11  1  6
 11 12  1  0
 12 17  2  0
 13 14  2  0
 13 12  1  0
 14 15  1  0
 15 16  2  0
 17 16  1  0
 18 10  1  0
 19 18  2  0
 20 18  1  0
 21 20  1  0
 21 22  1  1
 22 23  1  0
 23 31  1  0
 24 25  1  0
 24 23  2  0
 25 26  1  0
 26 31  2  0
 26 27  1  0
 27 28  2  0
 28 29  1  0
 30 29  2  0
 31 30  1  0
 32 21  1  0
 32 34  1  0
 33 32  2  0
M  END
$$$$
