NFW.pdb
     RDKit          3D

 34 36  0  0  1  0  0  0  0  0999 V2000
   11.8765  -11.7453  -15.2592 N   0  0  0  0  0  0  0  0  0  0  0  0
   13.0187  -10.9261  -15.3979 C   0  0  0  0  0  0  0  0  0  0  0  0
   13.2452  -10.3400  -16.4782 O   0  0  0  0  0  0  0  0  0  0  0  0
   13.9396  -10.7698  -14.2568 C   0  0  0  0  0  0  0  0  0  0  0  0
   15.3708  -10.9264  -14.7483 C   0  0  2  0  0  0  0  0  0  0  0  0
   15.7392  -12.2700  -15.0204 N   0  0  0  0  0  0  0  0  0  0  0  0
   16.2499  -10.2149  -13.8044 C   0  0  0  0  0  0  0  0  0  0  0  0
   16.2199  -10.5977  -12.5998 O   0  0  0  0  0  0  0  0  0  0  0  0
   17.1155   -9.1442  -14.1495 N   0  0  0  0  0  0  0  0  0  0  0  0
   17.9168   -8.4204  -13.1714 C   0  0  1  0  0  0  0  0  0  0  0  0
   19.2246   -8.0554  -13.7943 C   0  0  0  0  0  0  0  0  0  0  0  0
   20.1479   -7.3643  -12.8918 C   0  0  0  0  0  0  0  0  0  0  0  0
   20.3922   -6.0119  -12.9688 C   0  0  0  0  0  0  0  0  0  0  0  0
   21.2786   -5.3828  -12.0914 C   0  0  0  0  0  0  0  0  0  0  0  0
   21.9361   -6.1001  -11.1205 C   0  0  0  0  0  0  0  0  0  0  0  0
   21.6972   -7.4522  -11.0373 C   0  0  0  0  0  0  0  0  0  0  0  0
   20.8166   -8.0612  -11.9133 C   0  0  0  0  0  0  0  0  0  0  0  0
   17.1887   -7.2684  -12.6111 C   0  0  0  0  0  0  0  0  0  0  0  0
   16.5116   -6.5371  -13.3759 O   0  0  0  0  0  0  0  0  0  0  0  0
   17.2115   -6.9345  -11.2304 N   0  0  0  0  0  0  0  0  0  0  0  0
   16.4458   -5.8599  -10.6552 C   0  0  1  0  0  0  0  0  0  0  0  0
   16.2127   -6.0512   -9.1725 C   0  0  0  0  0  0  0  0  0  0  0  0
   15.1994   -7.1011   -8.9192 C   0  0  0  0  0  0  0  0  0  0  0  0
   15.4269   -8.4548   -9.0083 C   0  0  0  0  0  0  0  0  0  0  0  0
   14.3193   -9.1515   -8.7226 N   0  0  0  0  0  0  0  0  0  0  0  0
   13.3672   -8.2389   -8.4463 C   0  0  0  0  0  0  0  0  0  0  0  0
   12.0252   -8.3734   -8.0862 C   0  0  0  0  0  0  0  0  0  0  0  0
   11.2592   -7.2597   -7.8566 C   0  0  0  0  0  0  0  0  0  0  0  0
   11.7825   -5.9926   -7.9726 C   0  0  0  0  0  0  0  0  0  0  0  0
   13.1044   -5.8403   -8.3268 C   0  0  0  0  0  0  0  0  0  0  0  0
   13.8781   -6.9620   -8.5587 C   0  0  0  0  0  0  0  0  0  0  0  0
   17.2053   -4.5963  -10.8312 C   0  0  0  0  0  0  0  0  0  0  0  0
   16.7271   -3.4640  -10.5691 O   0  0  0  0  0  0  0  0  0  0  0  0
   18.5133   -4.6125  -11.3065 O   0  0  0  0  0  0  0  0  0  0  0  0
  2  1  1  0
  2  3  2  0
  4  2  1  0
  5  7  1  0
  5  4  1  0
  5  6  1  1
  7  8  2  0
  9 10  1  0
  9  7  1  0
 10 11  1  6
 11 12  1  0
 12 17  2  0
 13 14  2  0
 13 12  1  0
 14 15  1  0
 15 16  2  0
 17 16  1  0
 18 10  1  0
 19 18  2  0
 20 18  1  0
 21 20  1  0
 21 22  1  1
 22 23  1  0
 23 31  1  0
 24 25  1  0
 24 23  2  0
 25 26  1  0
 26 31  2  0
 26 27  1  0
 27 28  2  0
 28 29  1  0
 30 29  2  0
 31 30  1  0
 32 21  1  0
 32 34  1  0
 33 32  2  0
M  END
$$$$
