NFW.pdb
     RDKit          3D

 34 36  0  0  1  0  0  0  0  0999 V2000
   27.9490  -24.1095  -21.0575 N   0  0  0  0  0  0  0  0  0  0  0  0
   27.4173  -22.9575  -20.4369 C   0  0  0  0  0  0  0  0  0  0  0  0
   26.4027  -22.4005  -20.9082 O   0  0  0  0  0  0  0  0  0  0  0  0
   28.0706  -22.4198  -19.2292 C   0  0  0  0  0  0  0  0  0  0  0  0
   27.3463  -21.1548  -18.7939 C   0  0  2  0  0  0  0  0  0  0  0  0
   27.5900  -20.0372  -19.6346 N   0  0  0  0  0  0  0  0  0  0  0  0
   27.6375  -20.9396  -17.3660 C   0  0  0  0  0  0  0  0  0  0  0  0
   28.7056  -21.4482  -16.9201 O   0  0  0  0  0  0  0  0  0  0  0  0
   26.8128  -20.2113  -16.4693 N   0  0  0  0  0  0  0  0  0  0  0  0
   27.2025  -19.9032  -15.0998 C   0  0  1  0  0  0  0  0  0  0  0  0
   27.2093  -18.4200  -14.9221 C   0  0  0  0  0  0  0  0  0  0  0  0
   28.2129  -17.7227  -15.7291 C   0  0  0  0  0  0  0  0  0  0  0  0
   27.8805  -16.8286  -16.7214 C   0  0  0  0  0  0  0  0  0  0  0  0
   28.8629  -16.1791  -17.4727 C   0  0  0  0  0  0  0  0  0  0  0  0
   30.1971  -16.4154  -17.2415 C   0  0  0  0  0  0  0  0  0  0  0  0
   30.5371  -17.3077  -16.2515 C   0  0  0  0  0  0  0  0  0  0  0  0
   29.5532  -17.9434  -15.5157 C   0  0  0  0  0  0  0  0  0  0  0  0
   26.3615  -20.6107  -14.1183 C   0  0  0  0  0  0  0  0  0  0  0  0
   25.1411  -20.7808  -14.3627 O   0  0  0  0  0  0  0  0  0  0  0  0
   26.8642  -21.1190  -12.8906 N   0  0  0  0  0  0  0  0  0  0  0  0
   26.0367  -21.7078  -11.8706 C   0  0  1  0  0  0  0  0  0  0  0  0
   26.8345  -22.1249  -10.6545 C   0  0  0  0  0  0  0  0  0  0  0  0
   26.7898  -21.0856   -9.6004 C   0  0  0  0  0  0  0  0  0  0  0  0
   25.7572  -20.1963   -9.4129 C   0  0  0  0  0  0  0  0  0  0  0  0
   26.0042  -19.3786   -8.3814 N   0  0  0  0  0  0  0  0  0  0  0  0
   27.2080  -19.7433   -7.8980 C   0  0  0  0  0  0  0  0  0  0  0  0
   27.9728  -19.2535   -6.8379 C   0  0  0  0  0  0  0  0  0  0  0  0
   29.1903  -19.8148   -6.5506 C   0  0  0  0  0  0  0  0  0  0  0  0
   29.6888  -20.8637   -7.2883 C   0  0  0  0  0  0  0  0  0  0  0  0
   28.9484  -21.3602   -8.3378 C   0  0  0  0  0  0  0  0  0  0  0  0
   27.7208  -20.7955   -8.6289 C   0  0  0  0  0  0  0  0  0  0  0  0
   25.0430  -20.6960  -11.4307 C   0  0  0  0  0  0  0  0  0  0  0  0
   25.2313  -19.4576  -11.5319 O   0  0  0  0  0  0  0  0  0  0  0  0
   23.8291  -21.0864  -10.8731 O   0  0  0  0  0  0  0  0  0  0  0  0
  2  1  1  0
  2  3  2  0
  4  2  1  0
  5  7  1  0
  5  4  1  0
  5  6  1  6
  7  8  2  0
  9 10  1  0
  9  7  1  0
 10 11  1  1
 11 12  1  0
 12 17  2  0
 13 14  2  0
 13 12  1  0
 14 15  1  0
 15 16  2  0
 17 16  1  0
 18 10  1  0
 19 18  2  0
 20 18  1  0
 21 20  1  0
 21 22  1  1
 22 23  1  0
 23 31  1  0
 24 25  1  0
 24 23  2  0
 25 26  1  0
 26 31  2  0
 26 27  1  0
 27 28  2  0
 28 29  1  0
 30 29  2  0
 31 30  1  0
 32 21  1  0
 32 34  1  0
 33 32  2  0
M  END
$$$$
