NFW.pdb
     RDKit          3D

 34 36  0  0  1  0  0  0  0  0999 V2000
   28.2431  -22.7014  -18.3273 N   0  0  0  0  0  0  0  0  0  0  0  0
   29.1422  -22.6716  -17.2384 C   0  0  0  0  0  0  0  0  0  0  0  0
   30.1690  -23.3837  -17.2507 O   0  0  0  0  0  0  0  0  0  0  0  0
   28.8571  -21.7929  -16.0889 C   0  0  0  0  0  0  0  0  0  0  0  0
   27.4647  -21.2014  -16.2489 C   0  0  2  0  0  0  0  0  0  0  0  0
   27.3588  -20.2647  -17.3102 N   0  0  0  0  0  0  0  0  0  0  0  0
   27.0336  -20.7053  -14.9305 C   0  0  0  0  0  0  0  0  0  0  0  0
   27.5491  -19.6211  -14.5341 O   0  0  0  0  0  0  0  0  0  0  0  0
   26.0931  -21.3520  -14.0868 N   0  0  0  0  0  0  0  0  0  0  0  0
   25.5607  -20.7447  -12.8742 C   0  0  1  0  0  0  0  0  0  0  0  0
   24.0796  -20.6090  -13.0127 C   0  0  0  0  0  0  0  0  0  0  0  0
   23.6570  -19.6481  -14.0339 C   0  0  0  0  0  0  0  0  0  0  0  0
   23.2772  -20.0270  -15.3015 C   0  0  0  0  0  0  0  0  0  0  0  0
   22.8782  -19.0847  -16.2523 C   0  0  0  0  0  0  0  0  0  0  0  0
   22.8532  -17.7444  -15.9479 C   0  0  0  0  0  0  0  0  0  0  0  0
   23.2315  -17.3580  -14.6832 C   0  0  0  0  0  0  0  0  0  0  0  0
   23.6243  -18.3027  -13.7521 C   0  0  0  0  0  0  0  0  0  0  0  0
   25.9751  -21.4793  -11.6660 C   0  0  0  0  0  0  0  0  0  0  0  0
   26.3061  -22.6871  -11.7633 O   0  0  0  0  0  0  0  0  0  0  0  0
   26.0210  -20.8858  -10.3759 N   0  0  0  0  0  0  0  0  0  0  0  0
   26.4579  -21.5788   -9.1924 C   0  0  1  0  0  0  0  0  0  0  0  0
   27.8254  -21.1228   -8.7326 C   0  0  0  0  0  0  0  0  0  0  0  0
   27.7202  -20.0701   -7.6963 C   0  0  0  0  0  0  0  0  0  0  0  0
   26.9356  -18.9443   -7.7924 C   0  0  0  0  0  0  0  0  0  0  0  0
   27.0502  -18.1798   -6.6987 N   0  0  0  0  0  0  0  0  0  0  0  0
   27.9172  -18.8180   -5.8883 C   0  0  0  0  0  0  0  0  0  0  0  0
   28.4171  -18.4997   -4.6244 C   0  0  0  0  0  0  0  0  0  0  0  0
   29.3078  -19.3383   -4.0054 C   0  0  0  0  0  0  0  0  0  0  0  0
   29.7306  -20.5033   -4.6027 C   0  0  0  0  0  0  0  0  0  0  0  0
   29.2482  -20.8339   -5.8494 C   0  0  0  0  0  0  0  0  0  0  0  0
   28.3502  -19.9896   -6.4750 C   0  0  0  0  0  0  0  0  0  0  0  0
   25.4966  -21.2903   -8.0982 C   0  0  0  0  0  0  0  0  0  0  0  0
   25.5472  -21.8481   -6.9731 O   0  0  0  0  0  0  0  0  0  0  0  0
   24.4719  -20.3656   -8.2767 O   0  0  0  0  0  0  0  0  0  0  0  0
  2  1  1  0
  2  3  2  0
  4  2  1  0
  5  7  1  0
  5  4  1  0
  5  6  1  6
  7  8  2  0
  9 10  1  0
  9  7  1  0
 10 11  1  6
 11 12  1  0
 12 17  2  0
 13 14  2  0
 13 12  1  0
 14 15  1  0
 15 16  2  0
 17 16  1  0
 18 10  1  0
 19 18  2  0
 20 18  1  0
 21 20  1  0
 21 22  1  1
 22 23  1  0
 23 31  1  0
 24 25  1  0
 24 23  2  0
 25 26  1  0
 26 31  2  0
 26 27  1  0
 27 28  2  0
 28 29  1  0
 30 29  2  0
 31 30  1  0
 32 21  1  0
 32 34  1  0
 33 32  2  0
M  END
$$$$
