NFW.pdb
     RDKit          3D

 34 36  0  0  1  0  0  0  0  0999 V2000
   27.9042  -21.1952  -19.6882 N   0  0  0  0  0  0  0  0  0  0  0  0
   28.1379  -20.8368  -18.3422 C   0  0  0  0  0  0  0  0  0  0  0  0
   29.2476  -20.3770  -17.9971 O   0  0  0  0  0  0  0  0  0  0  0  0
   27.0609  -21.0102  -17.3500 C   0  0  0  0  0  0  0  0  0  0  0  0
   27.3932  -22.1972  -16.4584 C   0  0  2  0  0  0  0  0  0  0  0  0
   27.2688  -23.4536  -17.1072 N   0  0  0  0  0  0  0  0  0  0  0  0
   26.6171  -22.0552  -15.2143 C   0  0  0  0  0  0  0  0  0  0  0  0
   25.4152  -22.4463  -15.2457 O   0  0  0  0  0  0  0  0  0  0  0  0
   27.1188  -21.5169  -14.0006 N   0  0  0  0  0  0  0  0  0  0  0  0
   26.2923  -21.3108  -12.8186 C   0  0  1  0  0  0  0  0  0  0  0  0
   27.1717  -20.9138  -11.6782 C   0  0  0  0  0  0  0  0  0  0  0  0
   26.4573  -20.6814  -10.4211 C   0  0  0  0  0  0  0  0  0  0  0  0
   26.6805  -19.5767   -9.6309 C   0  0  0  0  0  0  0  0  0  0  0  0
   25.9808  -19.3842   -8.4373 C   0  0  0  0  0  0  0  0  0  0  0  0
   25.0442  -20.2975   -8.0150 C   0  0  0  0  0  0  0  0  0  0  0  0
   24.8158  -21.4041   -8.7994 C   0  0  0  0  0  0  0  0  0  0  0  0
   25.5164  -21.5812   -9.9789 C   0  0  0  0  0  0  0  0  0  0  0  0
   25.1956  -20.3609  -13.0757 C   0  0  0  0  0  0  0  0  0  0  0  0
   25.4475  -19.1318  -13.1370 O   0  0  0  0  0  0  0  0  0  0  0  0
   23.8466  -20.7666  -13.2610 N   0  0  0  0  0  0  0  0  0  0  0  0
   22.7775  -19.8607  -13.5897 C   0  0  1  0  0  0  0  0  0  0  0  0
   22.7926  -19.4607  -15.0488 C   0  0  0  0  0  0  0  0  0  0  0  0
   21.7019  -18.5070  -15.3556 C   0  0  0  0  0  0  0  0  0  0  0  0
   21.3428  -17.4389  -14.5665 C   0  0  0  0  0  0  0  0  0  0  0  0
   20.3219  -16.7605  -15.1060 N   0  0  0  0  0  0  0  0  0  0  0  0
   20.0186  -17.3964  -16.2547 C   0  0  0  0  0  0  0  0  0  0  0  0
   19.0511  -17.1470  -17.2295 C   0  0  0  0  0  0  0  0  0  0  0  0
   18.9512  -17.9649  -18.3252 C   0  0  0  0  0  0  0  0  0  0  0  0
   19.7900  -19.0421  -18.4953 C   0  0  0  0  0  0  0  0  0  0  0  0
   20.7507  -19.3038  -17.5441 C   0  0  0  0  0  0  0  0  0  0  0  0
   20.8528  -18.4802  -16.4387 C   0  0  0  0  0  0  0  0  0  0  0  0
   21.4860  -20.5434  -13.3243 C   0  0  0  0  0  0  0  0  0  0  0  0
   21.2388  -21.7174  -13.6984 O   0  0  0  0  0  0  0  0  0  0  0  0
   20.4676  -19.8952  -12.6317 O   0  0  0  0  0  0  0  0  0  0  0  0
  2  1  1  0
  2  3  2  0
  4  2  1  0
  5  7  1  0
  5  4  1  0
  5  6  1  6
  7  8  2  0
  9 10  1  0
  9  7  1  0
 10 11  1  1
 11 12  1  0
 12 17  2  0
 13 14  2  0
 13 12  1  0
 14 15  1  0
 15 16  2  0
 17 16  1  0
 18 10  1  0
 19 18  2  0
 20 18  1  0
 21 20  1  0
 21 22  1  6
 22 23  1  0
 23 31  1  0
 24 25  1  0
 24 23  2  0
 25 26  1  0
 26 31  2  0
 26 27  1  0
 27 28  2  0
 28 29  1  0
 30 29  2  0
 31 30  1  0
 32 21  1  0
 32 34  1  0
 33 32  2  0
M  END
$$$$
