NFW.pdb
     RDKit          3D

 34 36  0  0  1  0  0  0  0  0999 V2000
   24.3173  -17.5188  -15.8119 N   0  0  0  0  0  0  0  0  0  0  0  0
   23.6727  -17.9322  -14.6251 C   0  0  0  0  0  0  0  0  0  0  0  0
   22.6290  -17.3603  -14.2439 O   0  0  0  0  0  0  0  0  0  0  0  0
   24.2431  -19.0437  -13.8416 C   0  0  0  0  0  0  0  0  0  0  0  0
   25.5240  -19.5179  -14.5116 C   0  0  2  0  0  0  0  0  0  0  0  0
   25.3108  -20.1933  -15.7418 N   0  0  0  0  0  0  0  0  0  0  0  0
   26.3022  -20.2690  -13.5115 C   0  0  0  0  0  0  0  0  0  0  0  0
   25.8661  -21.4119  -13.1924 O   0  0  0  0  0  0  0  0  0  0  0  0
   27.4907  -19.8039  -12.8902 N   0  0  0  0  0  0  0  0  0  0  0  0
   28.1250  -20.4881  -11.7712 C   0  0  1  0  0  0  0  0  0  0  0  0
   29.6076  -20.3732  -11.9133 C   0  0  0  0  0  0  0  0  0  0  0  0
   30.3647  -20.9620  -10.8066 C   0  0  0  0  0  0  0  0  0  0  0  0
   31.1043  -20.2066   -9.9251 C   0  0  0  0  0  0  0  0  0  0  0  0
   31.8147  -20.7998   -8.8788 C   0  0  0  0  0  0  0  0  0  0  0  0
   31.7957  -22.1624   -8.6983 C   0  0  0  0  0  0  0  0  0  0  0  0
   31.0588  -22.9239   -9.5753 C   0  0  0  0  0  0  0  0  0  0  0  0
   30.3605  -22.3223  -10.6068 C   0  0  0  0  0  0  0  0  0  0  0  0
   27.6178  -20.0050  -10.4749 C   0  0  0  0  0  0  0  0  0  0  0  0
   28.3855  -19.3661   -9.7130 O   0  0  0  0  0  0  0  0  0  0  0  0
   26.2859  -20.2265  -10.0328 N   0  0  0  0  0  0  0  0  0  0  0  0
   25.9509  -20.9623   -8.8419 C   0  0  1  0  0  0  0  0  0  0  0  0
   25.7006  -20.0542   -7.6578 C   0  0  0  0  0  0  0  0  0  0  0  0
   26.9710  -19.5361   -7.1002 C   0  0  0  0  0  0  0  0  0  0  0  0
   27.6645  -18.4541   -7.5906 C   0  0  0  0  0  0  0  0  0  0  0  0
   28.7755  -18.2280   -6.8777 N   0  0  0  0  0  0  0  0  0  0  0  0
   28.7999  -19.1731   -5.9176 C   0  0  0  0  0  0  0  0  0  0  0  0
   29.7092  -19.4343   -4.8912 C   0  0  0  0  0  0  0  0  0  0  0  0
   29.4952  -20.4810   -4.0319 C   0  0  0  0  0  0  0  0  0  0  0  0
   28.3926  -21.2950   -4.1532 C   0  0  0  0  0  0  0  0  0  0  0  0
   27.4846  -21.0526   -5.1596 C   0  0  0  0  0  0  0  0  0  0  0  0
   27.6989  -19.9978   -6.0269 C   0  0  0  0  0  0  0  0  0  0  0  0
   24.7017  -21.7233   -9.0965 C   0  0  0  0  0  0  0  0  0  0  0  0
   24.1094  -21.7224  -10.2050 O   0  0  0  0  0  0  0  0  0  0  0  0
   24.1183  -22.4900   -8.0921 O   0  0  0  0  0  0  0  0  0  0  0  0
  2  1  1  0
  2  3  2  0
  4  2  1  0
  5  7  1  0
  5  4  1  0
  5  6  1  6
  7  8  2  0
  9 10  1  0
  9  7  1  0
 10 11  1  1
 11 12  1  0
 12 17  2  0
 13 14  2  0
 13 12  1  0
 14 15  1  0
 15 16  2  0
 17 16  1  0
 18 10  1  0
 19 18  2  0
 20 18  1  0
 21 20  1  0
 21 22  1  1
 22 23  1  0
 23 31  1  0
 24 25  1  0
 24 23  2  0
 25 26  1  0
 26 31  2  0
 26 27  1  0
 27 28  2  0
 28 29  1  0
 30 29  2  0
 31 30  1  0
 32 21  1  0
 32 34  1  0
 33 32  2  0
M  END
$$$$
