NFW.pdb
     RDKit          3D

 34 36  0  0  1  0  0  0  0  0999 V2000
   29.6458  -20.9856  -19.8480 N   0  0  0  0  0  0  0  0  0  0  0  0
   28.2352  -21.0286  -19.9069 C   0  0  0  0  0  0  0  0  0  0  0  0
   27.6328  -20.5699  -20.9011 O   0  0  0  0  0  0  0  0  0  0  0  0
   27.4821  -21.6192  -18.7851 C   0  0  0  0  0  0  0  0  0  0  0  0
   28.4577  -22.0259  -17.6911 C   0  0  2  0  0  0  0  0  0  0  0  0
   29.1838  -23.2104  -17.9825 N   0  0  0  0  0  0  0  0  0  0  0  0
   27.7210  -22.0408  -16.4155 C   0  0  0  0  0  0  0  0  0  0  0  0
   26.9994  -23.0535  -16.1869 O   0  0  0  0  0  0  0  0  0  0  0  0
   27.7648  -21.0109  -15.4398 N   0  0  0  0  0  0  0  0  0  0  0  0
   27.0544  -21.0855  -14.1700 C   0  0  1  0  0  0  0  0  0  0  0  0
   27.8141  -20.3076  -13.1457 C   0  0  0  0  0  0  0  0  0  0  0  0
   27.1967  -20.2993  -11.8177 C   0  0  0  0  0  0  0  0  0  0  0  0
   26.3756  -19.2831  -11.3845 C   0  0  0  0  0  0  0  0  0  0  0  0
   25.8013  -19.3062  -10.1113 C   0  0  0  0  0  0  0  0  0  0  0  0
   26.0408  -20.3501   -9.2497 C   0  0  0  0  0  0  0  0  0  0  0  0
   26.8604  -21.3694   -9.6756 C   0  0  0  0  0  0  0  0  0  0  0  0
   27.4220  -21.3327  -10.9392 C   0  0  0  0  0  0  0  0  0  0  0  0
   25.6477  -20.6678  -14.3037 C   0  0  0  0  0  0  0  0  0  0  0  0
   25.3772  -19.6025  -14.9121 O   0  0  0  0  0  0  0  0  0  0  0  0
   24.5632  -21.4166  -13.7731 N   0  0  0  0  0  0  0  0  0  0  0  0
   23.1956  -20.9686  -13.7960 C   0  0  1  0  0  0  0  0  0  0  0  0
   22.2705  -21.9117  -13.0584 C   0  0  0  0  0  0  0  0  0  0  0  0
   20.8584  -21.4816  -13.1775 C   0  0  0  0  0  0  0  0  0  0  0  0
   20.0706  -21.6605  -14.2909 C   0  0  0  0  0  0  0  0  0  0  0  0
   18.8408  -21.1667  -14.0979 N   0  0  0  0  0  0  0  0  0  0  0  0
   18.8341  -20.6640  -12.8477 C   0  0  0  0  0  0  0  0  0  0  0  0
   17.8374  -20.0286  -12.1051 C   0  0  0  0  0  0  0  0  0  0  0  0
   18.0960  -19.6043  -10.8272 C   0  0  0  0  0  0  0  0  0  0  0  0
   19.3291  -19.7890  -10.2456 C   0  0  0  0  0  0  0  0  0  0  0  0
   20.3246  -20.4139  -10.9629 C   0  0  0  0  0  0  0  0  0  0  0  0
   20.0657  -20.8423  -12.2513 C   0  0  0  0  0  0  0  0  0  0  0  0
   23.1232  -19.6484  -13.1204 C   0  0  0  0  0  0  0  0  0  0  0  0
   23.7912  -19.3628  -12.0949 O   0  0  0  0  0  0  0  0  0  0  0  0
   22.2906  -18.6449  -13.6069 O   0  0  0  0  0  0  0  0  0  0  0  0
  2  1  1  0
  2  3  2  0
  4  2  1  0
  5  7  1  0
  5  4  1  0
  5  6  1  6
  7  8  2  0
  9 10  1  0
  9  7  1  0
 10 11  1  1
 11 12  1  0
 12 17  2  0
 13 14  2  0
 13 12  1  0
 14 15  1  0
 15 16  2  0
 17 16  1  0
 18 10  1  0
 19 18  2  0
 20 18  1  0
 21 20  1  0
 21 22  1  1
 22 23  1  0
 23 31  1  0
 24 25  1  0
 24 23  2  0
 25 26  1  0
 26 31  2  0
 26 27  1  0
 27 28  2  0
 28 29  1  0
 30 29  2  0
 31 30  1  0
 32 21  1  0
 32 34  1  0
 33 32  2  0
M  END
$$$$
