NFW.pdb
     RDKit          3D

 34 36  0  0  1  0  0  0  0  0999 V2000
   24.5247  -15.7815  -19.2405 N   0  0  0  0  0  0  0  0  0  0  0  0
   23.5353  -16.7117  -19.6290 C   0  0  0  0  0  0  0  0  0  0  0  0
   22.6073  -16.3624  -20.3897 O   0  0  0  0  0  0  0  0  0  0  0  0
   23.6086  -18.0969  -19.1287 C   0  0  0  0  0  0  0  0  0  0  0  0
   24.7504  -18.2045  -18.1291 C   0  0  2  0  0  0  0  0  0  0  0  0
   26.0272  -18.3517  -18.7316 N   0  0  0  0  0  0  0  0  0  0  0  0
   24.3948  -19.2481  -17.1521 C   0  0  0  0  0  0  0  0  0  0  0  0
   24.2975  -20.4295  -17.5916 O   0  0  0  0  0  0  0  0  0  0  0  0
   24.1570  -19.0213  -15.7713 N   0  0  0  0  0  0  0  0  0  0  0  0
   23.7771  -20.0788  -14.8440 C   0  0  1  0  0  0  0  0  0  0  0  0
   24.7969  -20.1552  -13.7552 C   0  0  0  0  0  0  0  0  0  0  0  0
   26.1733  -20.3103  -14.2310 C   0  0  0  0  0  0  0  0  0  0  0  0
   27.0620  -19.2611  -14.2946 C   0  0  0  0  0  0  0  0  0  0  0  0
   28.3690  -19.4432  -14.7525 C   0  0  0  0  0  0  0  0  0  0  0  0
   28.8079  -20.6821  -15.1551 C   0  0  0  0  0  0  0  0  0  0  0  0
   27.9255  -21.7355  -15.0944 C   0  0  0  0  0  0  0  0  0  0  0  0
   26.6342  -21.5399  -14.6387 C   0  0  0  0  0  0  0  0  0  0  0  0
   22.3995  -19.9060  -14.3504 C   0  0  0  0  0  0  0  0  0  0  0  0
   22.1153  -18.8959  -13.6598 O   0  0  0  0  0  0  0  0  0  0  0  0
   21.3585  -20.8352  -14.6174 N   0  0  0  0  0  0  0  0  0  0  0  0
   19.9879  -20.6343  -14.2260 C   0  0  1  0  0  0  0  0  0  0  0  0
   19.1347  -20.1237  -15.3664 C   0  0  0  0  0  0  0  0  0  0  0  0
   19.4354  -20.8424  -16.6259 C   0  0  0  0  0  0  0  0  0  0  0  0
   19.4196  -22.2096  -16.7770 C   0  0  0  0  0  0  0  0  0  0  0  0
   19.7340  -22.5616  -18.0303 N   0  0  0  0  0  0  0  0  0  0  0  0
   19.9550  -21.4106  -18.6953 C   0  0  0  0  0  0  0  0  0  0  0  0
   20.3131  -21.1548  -20.0200 C   0  0  0  0  0  0  0  0  0  0  0  0
   20.4789  -19.8639  -20.4511 C   0  0  0  0  0  0  0  0  0  0  0  0
   20.2998  -18.7956  -19.6029 C   0  0  0  0  0  0  0  0  0  0  0  0
   19.9462  -19.0285  -18.2926 C   0  0  0  0  0  0  0  0  0  0  0  0
   19.7788  -20.3293  -17.8562 C   0  0  0  0  0  0  0  0  0  0  0  0
   19.4271  -21.9397  -13.7947 C   0  0  0  0  0  0  0  0  0  0  0  0
   20.0024  -23.0377  -14.0015 O   0  0  0  0  0  0  0  0  0  0  0  0
   18.2086  -22.0043  -13.1255 O   0  0  0  0  0  0  0  0  0  0  0  0
  2  1  1  0
  2  3  2  0
  4  2  1  0
  5  7  1  0
  5  4  1  0
  5  6  1  6
  7  8  2  0
  9 10  1  0
  9  7  1  0
 10 11  1  1
 11 12  1  0
 12 17  2  0
 13 14  2  0
 13 12  1  0
 14 15  1  0
 15 16  2  0
 17 16  1  0
 18 10  1  0
 19 18  2  0
 20 18  1  0
 21 20  1  0
 21 22  1  6
 22 23  1  0
 23 31  1  0
 24 25  1  0
 24 23  2  0
 25 26  1  0
 26 31  2  0
 26 27  1  0
 27 28  2  0
 28 29  1  0
 30 29  2  0
 31 30  1  0
 32 21  1  0
 32 34  1  0
 33 32  2  0
M  END
$$$$
