NFW.pdb
     RDKit          3D

 34 36  0  0  1  0  0  0  0  0999 V2000
   28.9321  -18.4040  -16.6949 N   0  0  0  0  0  0  0  0  0  0  0  0
   28.3340  -18.1475  -15.4414 C   0  0  0  0  0  0  0  0  0  0  0  0
   28.5321  -17.0587  -14.8608 O   0  0  0  0  0  0  0  0  0  0  0  0
   27.4750  -19.1759  -14.8257 C   0  0  0  0  0  0  0  0  0  0  0  0
   28.2265  -19.8270  -13.6744 C   0  0  2  0  0  0  0  0  0  0  0  0
   29.3437  -20.6009  -14.0844 N   0  0  0  0  0  0  0  0  0  0  0  0
   27.2422  -20.5400  -12.8420 C   0  0  0  0  0  0  0  0  0  0  0  0
   26.8759  -21.6808  -13.2455 O   0  0  0  0  0  0  0  0  0  0  0  0
   26.6847  -20.0411  -11.6358 N   0  0  0  0  0  0  0  0  0  0  0  0
   25.5558  -20.6676  -10.9609 C   0  0  1  0  0  0  0  0  0  0  0  0
   25.5655  -20.2593   -9.5240 C   0  0  0  0  0  0  0  0  0  0  0  0
   26.8713  -20.3838   -8.8728 C   0  0  0  0  0  0  0  0  0  0  0  0
   27.8237  -21.2900   -9.2809 C   0  0  0  0  0  0  0  0  0  0  0  0
   29.0605  -21.3826   -8.6383 C   0  0  0  0  0  0  0  0  0  0  0  0
   29.3640  -20.5670   -7.5741 C   0  0  0  0  0  0  0  0  0  0  0  0
   28.4172  -19.6589   -7.1605 C   0  0  0  0  0  0  0  0  0  0  0  0
   27.1967  -19.5788   -7.8067 C   0  0  0  0  0  0  0  0  0  0  0  0
   24.2821  -20.3845  -11.6456 C   0  0  0  0  0  0  0  0  0  0  0  0
   23.9531  -19.1922  -11.8651 O   0  0  0  0  0  0  0  0  0  0  0  0
   23.3915  -21.4036  -12.0779 N   0  0  0  0  0  0  0  0  0  0  0  0
   22.1974  -21.1508  -12.8408 C   0  0  1  0  0  0  0  0  0  0  0  0
   21.9978  -22.1641  -13.9465 C   0  0  0  0  0  0  0  0  0  0  0  0
   20.7763  -21.8701  -14.7305 C   0  0  0  0  0  0  0  0  0  0  0  0
   20.6594  -20.8637  -15.6609 C   0  0  0  0  0  0  0  0  0  0  0  0
   19.4351  -20.8464  -16.2036 N   0  0  0  0  0  0  0  0  0  0  0  0
   18.7546  -21.8513  -15.6180 C   0  0  0  0  0  0  0  0  0  0  0  0
   17.4459  -22.3086  -15.7813 C   0  0  0  0  0  0  0  0  0  0  0  0
   16.9919  -23.3728  -15.0457 C   0  0  0  0  0  0  0  0  0  0  0  0
   17.8012  -24.0139  -14.1363 C   0  0  0  0  0  0  0  0  0  0  0  0
   19.0953  -23.5768  -13.9618 C   0  0  0  0  0  0  0  0  0  0  0  0
   19.5546  -22.5040  -14.7025 C   0  0  0  0  0  0  0  0  0  0  0  0
   21.0295  -21.2449  -11.9289 C   0  0  0  0  0  0  0  0  0  0  0  0
   20.0338  -20.4819  -12.0053 O   0  0  0  0  0  0  0  0  0  0  0  0
   20.9866  -22.2074  -10.9245 O   0  0  0  0  0  0  0  0  0  0  0  0
  2  1  1  0
  2  3  2  0
  4  2  1  0
  5  7  1  0
  5  4  1  0
  5  6  1  6
  7  8  2  0
  9 10  1  0
  9  7  1  0
 10 11  1  1
 11 12  1  0
 12 17  2  0
 13 14  2  0
 13 12  1  0
 14 15  1  0
 15 16  2  0
 17 16  1  0
 18 10  1  0
 19 18  2  0
 20 18  1  0
 21 20  1  0
 21 22  1  6
 22 23  1  0
 23 31  1  0
 24 25  1  0
 24 23  2  0
 25 26  1  0
 26 31  2  0
 26 27  1  0
 27 28  2  0
 28 29  1  0
 30 29  2  0
 31 30  1  0
 32 21  1  0
 32 34  1  0
 33 32  2  0
M  END
$$$$
