NFW.pdb
     RDKit          3D

 34 36  0  0  1  0  0  0  0  0999 V2000
   28.9403  -19.1741  -19.3976 N   0  0  0  0  0  0  0  0  0  0  0  0
   28.0998  -20.2988  -19.5511 C   0  0  0  0  0  0  0  0  0  0  0  0
   28.1397  -20.9755  -20.6010 O   0  0  0  0  0  0  0  0  0  0  0  0
   27.1761  -20.6656  -18.4616 C   0  0  0  0  0  0  0  0  0  0  0  0
   27.9220  -21.5135  -17.4423 C   0  0  2  0  0  0  0  0  0  0  0  0
   28.3442  -22.7726  -17.9438 N   0  0  0  0  0  0  0  0  0  0  0  0
   27.1026  -21.5694  -16.2193 C   0  0  0  0  0  0  0  0  0  0  0  0
   25.8855  -21.8794  -16.3636 O   0  0  0  0  0  0  0  0  0  0  0  0
   27.5790  -21.3025  -14.9092 N   0  0  0  0  0  0  0  0  0  0  0  0
   26.7022  -21.1793  -13.7522 C   0  0  1  0  0  0  0  0  0  0  0  0
   27.5385  -20.9579  -12.5345 C   0  0  0  0  0  0  0  0  0  0  0  0
   26.7686  -20.7631  -11.3040 C   0  0  0  0  0  0  0  0  0  0  0  0
   26.6846  -19.5482  -10.6625 C   0  0  0  0  0  0  0  0  0  0  0  0
   25.9403  -19.3958   -9.4903 C   0  0  0  0  0  0  0  0  0  0  0  0
   25.2666  -20.4604   -8.9405 C   0  0  0  0  0  0  0  0  0  0  0  0
   25.3459  -21.6778   -9.5759 C   0  0  0  0  0  0  0  0  0  0  0  0
   26.0870  -21.8135  -10.7361 C   0  0  0  0  0  0  0  0  0  0  0  0
   25.6702  -20.1471  -13.9543 C   0  0  0  0  0  0  0  0  0  0  0  0
   25.9513  -19.1169  -14.6158 O   0  0  0  0  0  0  0  0  0  0  0  0
   24.3531  -20.2558  -13.4328 N   0  0  0  0  0  0  0  0  0  0  0  0
   23.2158  -19.5667  -13.9838 C   0  0  1  0  0  0  0  0  0  0  0  0
   23.5396  -18.8811  -15.2932 C   0  0  0  0  0  0  0  0  0  0  0  0
   22.3071  -18.4586  -15.9974 C   0  0  0  0  0  0  0  0  0  0  0  0
   21.2591  -17.7828  -15.4166 C   0  0  0  0  0  0  0  0  0  0  0  0
   20.2878  -17.5400  -16.3061 N   0  0  0  0  0  0  0  0  0  0  0  0
   20.7124  -18.0640  -17.4726 C   0  0  0  0  0  0  0  0  0  0  0  0
   20.1267  -18.1141  -18.7387 C   0  0  0  0  0  0  0  0  0  0  0  0
   20.7845  -18.7200  -19.7779 C   0  0  0  0  0  0  0  0  0  0  0  0
   22.0253  -19.2895  -19.6070 C   0  0  0  0  0  0  0  0  0  0  0  0
   22.6188  -19.2496  -18.3652 C   0  0  0  0  0  0  0  0  0  0  0  0
   21.9570  -18.6393  -17.3163 C   0  0  0  0  0  0  0  0  0  0  0  0
   22.1477  -20.5629  -14.2504 C   0  0  0  0  0  0  0  0  0  0  0  0
   22.3832  -21.7556  -14.5688 O   0  0  0  0  0  0  0  0  0  0  0  0
   20.8050  -20.2089  -14.1564 O   0  0  0  0  0  0  0  0  0  0  0  0
  2  1  1  0
  2  3  2  0
  4  2  1  0
  5  7  1  0
  5  4  1  0
  5  6  1  6
  7  8  2  0
  9 10  1  0
  9  7  1  0
 10 11  1  1
 11 12  1  0
 12 17  2  0
 13 14  2  0
 13 12  1  0
 14 15  1  0
 15 16  2  0
 17 16  1  0
 18 10  1  0
 19 18  2  0
 20 18  1  0
 21 20  1  0
 21 22  1  6
 22 23  1  0
 23 31  1  0
 24 25  1  0
 24 23  2  0
 25 26  1  0
 26 31  2  0
 26 27  1  0
 27 28  2  0
 28 29  1  0
 30 29  2  0
 31 30  1  0
 32 21  1  0
 32 34  1  0
 33 32  2  0
M  END
$$$$
