NFW.pdb
     RDKit          3D

 34 36  0  0  1  0  0  0  0  0999 V2000
   26.9154  -33.8822  -13.4140 N   0  0  0  0  0  0  0  0  0  0  0  0
   25.7486  -33.6047  -12.6680 C   0  0  0  0  0  0  0  0  0  0  0  0
   24.7661  -33.0606  -13.2160 O   0  0  0  0  0  0  0  0  0  0  0  0
   25.7019  -33.9630  -11.2383 C   0  0  0  0  0  0  0  0  0  0  0  0
   25.4223  -35.4527  -11.1083 C   0  0  2  0  0  0  0  0  0  0  0  0
   24.0936  -35.8180  -11.4489 N   0  0  0  0  0  0  0  0  0  0  0  0
   25.8647  -35.8771   -9.7688 C   0  0  0  0  0  0  0  0  0  0  0  0
   24.9952  -35.8622   -8.8511 O   0  0  0  0  0  0  0  0  0  0  0  0
   27.1813  -36.2953   -9.4425 N   0  0  0  0  0  0  0  0  0  0  0  0
   27.5960  -36.6374   -8.0884 C   0  0  1  0  0  0  0  0  0  0  0  0
   28.6769  -37.6660   -8.1602 C   0  0  0  0  0  0  0  0  0  0  0  0
   29.1788  -38.1024   -6.8555 C   0  0  0  0  0  0  0  0  0  0  0  0
   30.3289  -37.5969   -6.2930 C   0  0  0  0  0  0  0  0  0  0  0  0
   30.7800  -38.0342   -5.0453 C   0  0  0  0  0  0  0  0  0  0  0  0
   30.0846  -38.9869   -4.3394 C   0  0  0  0  0  0  0  0  0  0  0  0
   28.9343  -39.4967   -4.8951 C   0  0  0  0  0  0  0  0  0  0  0  0
   28.5000  -39.0540   -6.1317 C   0  0  0  0  0  0  0  0  0  0  0  0
   27.9700  -35.4425   -7.3115 C   0  0  0  0  0  0  0  0  0  0  0  0
   28.8800  -34.6898   -7.7398 O   0  0  0  0  0  0  0  0  0  0  0  0
   27.3471  -35.0900   -6.0842 N   0  0  0  0  0  0  0  0  0  0  0  0
   27.6687  -33.9027   -5.3367 C   0  0  1  0  0  0  0  0  0  0  0  0
   26.9042  -32.6921   -5.8258 C   0  0  0  0  0  0  0  0  0  0  0  0
   25.4419  -32.9146   -5.7524 C   0  0  0  0  0  0  0  0  0  0  0  0
   24.7896  -33.5343   -4.7119 C   0  0  0  0  0  0  0  0  0  0  0  0
   23.4696  -33.5878   -4.9316 N   0  0  0  0  0  0  0  0  0  0  0  0
   23.2673  -32.9969   -6.1257 C   0  0  0  0  0  0  0  0  0  0  0  0
   22.1058  -32.7632   -6.8638 C   0  0  0  0  0  0  0  0  0  0  0  0
   22.1774  -32.1282   -8.0769 C   0  0  0  0  0  0  0  0  0  0  0  0
   23.3798  -31.7078   -8.5968 C   0  0  0  0  0  0  0  0  0  0  0  0
   24.5361  -31.9296   -7.8828 C   0  0  0  0  0  0  0  0  0  0  0  0
   24.4658  -32.5696   -6.6597 C   0  0  0  0  0  0  0  0  0  0  0  0
   27.2952  -34.1266   -3.9172 C   0  0  0  0  0  0  0  0  0  0  0  0
   28.1398  -34.2555   -2.9956 O   0  0  0  0  0  0  0  0  0  0  0  0
   25.9587  -34.2054   -3.5371 O   0  0  0  0  0  0  0  0  0  0  0  0
  2  1  1  0
  2  3  2  0
  4  2  1  0
  5  7  1  0
  5  4  1  0
  5  6  1  1
  7  8  2  0
  9 10  1  0
  9  7  1  0
 10 11  1  6
 11 12  1  0
 12 17  2  0
 13 14  2  0
 13 12  1  0
 14 15  1  0
 15 16  2  0
 17 16  1  0
 18 10  1  0
 19 18  2  0
 20 18  1  0
 21 20  1  0
 21 22  1  6
 22 23  1  0
 23 31  1  0
 24 25  1  0
 24 23  2  0
 25 26  1  0
 26 31  2  0
 26 27  1  0
 27 28  2  0
 28 29  1  0
 30 29  2  0
 31 30  1  0
 32 21  1  0
 32 34  1  0
 33 32  2  0
M  END
$$$$
