CDL.pdb
     RDKit          3D

 23 22  0  0  1  0  0  0  0  0999 V2000
   44.3013  -11.9997   -7.6230 N   0  0  0  0  0  0  0  0  0  0  0  0
   43.4029  -11.1946   -8.4107 C   0  0  1  0  0  0  0  0  0  0  0  0
   42.0671  -11.9186   -8.6172 C   0  0  0  0  0  0  0  0  0  0  0  0
   42.2539  -13.2316   -9.8244 S   0  0  0  0  0  0  0  0  0  0  0  0
   43.0490   -9.9375   -7.6436 C   0  0  0  0  0  0  0  0  0  0  0  0
   42.7823  -10.0951   -6.4549 O   0  0  0  0  0  0  0  0  0  0  0  0
   43.0528   -8.7223   -8.3329 N   0  0  0  0  0  0  0  0  0  0  0  0
   42.7020   -7.4254   -7.8896 C   0  0  1  0  0  0  0  0  0  0  0  0
   43.7751   -6.3608   -7.9362 C   0  0  0  0  0  0  0  0  0  0  0  0
   43.3525   -5.0660   -7.3438 C   0  0  0  0  0  0  0  0  0  0  0  0
   42.9684   -5.0839   -6.1238 O   0  0  0  0  0  0  0  0  0  0  0  0
   41.4044   -6.9823   -8.4203 C   0  0  0  0  0  0  0  0  0  0  0  0
   41.1371   -7.1033   -9.6674 O   0  0  0  0  0  0  0  0  0  0  0  0
   43.3492   -3.8806   -8.0119 O   0  0  0  0  0  0  0  0  0  0  0  0
   37.2177   -8.3921   -8.6674 C   0  0  0  0  0  0  0  0  0  0  0  0
   37.5905   -7.7447   -7.3878 C   0  0  2  0  0  0  0  0  0  0  0  0
   36.4512   -7.9865   -6.3851 C   0  0  0  0  0  0  0  0  0  0  0  0
   37.9951   -6.3285   -7.3788 C   0  0  0  0  0  0  0  0  0  0  0  0
   39.1306   -5.8539   -8.1683 C   0  0  2  0  0  0  0  0  0  0  0  0
   40.3925   -6.4085   -7.6126 N   0  0  0  0  0  0  0  0  0  0  0  0
   39.2714   -4.4280   -8.4048 C   0  0  0  0  0  0  0  0  0  0  0  0
   40.0271   -3.6195   -7.8303 O   0  0  0  0  0  0  0  0  0  0  0  0
   38.4568   -3.8487   -9.4129 O   0  0  0  0  0  0  0  0  0  0  0  0
  2  1  1  1
  2  5  1  0
  3  2  1  0
  4  3  1  0
  5  6  2  0
  7  8  1  0
  7  5  1  0
  8 12  1  0
  8  9  1  6
 10  9  1  0
 11 10  2  0
 12 13  2  0
 12 20  1  0
 14 10  1  0
 16 17  1  1
 16 15  1  0
 18 16  1  0
 19 18  1  1
 20 19  1  0
 21 19  1  0
 21 23  1  0
 22 21  2  0
M  END
$$$$
