CDL.pdb
     RDKit          3D

 23 22  0  0  1  0  0  0  0  0999 V2000
   27.6579  -20.7945  -16.3551 N   0  0  0  0  0  0  0  0  0  0  0  0
   27.8098  -21.3346  -15.0281 C   0  0  1  0  0  0  0  0  0  0  0  0
   29.2612  -21.2007  -14.5521 C   0  0  0  0  0  0  0  0  0  0  0  0
   29.4451  -21.9122  -12.9162 S   0  0  0  0  0  0  0  0  0  0  0  0
   27.0024  -20.5051  -14.0512 C   0  0  0  0  0  0  0  0  0  0  0  0
   27.2319  -19.2985  -14.0589 O   0  0  0  0  0  0  0  0  0  0  0  0
   26.0795  -21.1631  -13.2343 N   0  0  0  0  0  0  0  0  0  0  0  0
   25.1927  -20.6419  -12.2630 C   0  0  1  0  0  0  0  0  0  0  0  0
   23.7212  -20.6101  -12.6109 C   0  0  0  0  0  0  0  0  0  0  0  0
   23.4222  -19.8601  -13.8575 C   0  0  0  0  0  0  0  0  0  0  0  0
   23.5776  -18.5909  -13.8225 O   0  0  0  0  0  0  0  0  0  0  0  0
   25.4715  -21.1564  -10.9142 C   0  0  0  0  0  0  0  0  0  0  0  0
   25.6010  -22.4150  -10.7130 O   0  0  0  0  0  0  0  0  0  0  0  0
   22.9985  -20.4342  -15.0162 O   0  0  0  0  0  0  0  0  0  0  0  0
   28.6656  -20.5788   -7.7755 C   0  0  0  0  0  0  0  0  0  0  0  0
   27.6180  -19.5324   -7.7204 C   0  0  2  0  0  0  0  0  0  0  0  0
   28.0649  -18.4675   -6.7064 C   0  0  0  0  0  0  0  0  0  0  0  0
   26.2163  -19.9169   -7.4821 C   0  0  0  0  0  0  0  0  0  0  0  0
   25.5092  -20.8237   -8.3854 C   0  0  2  0  0  0  0  0  0  0  0  0
   25.6113  -20.3200   -9.7799 N   0  0  0  0  0  0  0  0  0  0  0  0
   24.1354  -21.1834   -8.0819 C   0  0  0  0  0  0  0  0  0  0  0  0
   23.1017  -20.8932   -8.7161 O   0  0  0  0  0  0  0  0  0  0  0  0
   23.9055  -21.9647   -6.9192 O   0  0  0  0  0  0  0  0  0  0  0  0
  2  1  1  6
  2  5  1  0
  3  2  1  0
  4  3  1  0
  5  6  2  0
  7  8  1  0
  7  5  1  0
  8 12  1  0
  8  9  1  6
 10  9  1  0
 11 10  2  0
 12 13  2  0
 12 20  1  0
 14 10  1  0
 16 17  1  1
 16 15  1  0
 18 16  1  0
 19 18  1  1
 20 19  1  0
 21 19  1  0
 21 23  1  0
 22 21  2  0
M  END
$$$$
