CDL.pdb
     RDKit          3D

 23 22  0  0  1  0  0  0  0  0999 V2000
   19.6277  -14.9171  -17.8105 N   0  0  0  0  0  0  0  0  0  0  0  0
   20.9770  -14.7392  -18.2833 C   0  0  1  0  0  0  0  0  0  0  0  0
   21.1511  -15.3669  -19.6715 C   0  0  0  0  0  0  0  0  0  0  0  0
   19.7362  -14.9864  -20.7057 S   0  0  0  0  0  0  0  0  0  0  0  0
   21.2488  -13.2632  -18.4874 C   0  0  0  0  0  0  0  0  0  0  0  0
   22.3981  -12.9718  -18.8084 O   0  0  0  0  0  0  0  0  0  0  0  0
   20.1939  -12.3670  -18.2983 N   0  0  0  0  0  0  0  0  0  0  0  0
   20.1842  -10.9530  -18.3433 C   0  0  1  0  0  0  0  0  0  0  0  0
   19.1164  -10.2914  -19.1854 C   0  0  0  0  0  0  0  0  0  0  0  0
   19.3461   -8.8402  -19.4023 C   0  0  0  0  0  0  0  0  0  0  0  0
   18.3826   -8.0504  -19.1122 O   0  0  0  0  0  0  0  0  0  0  0  0
   20.3496  -10.3477  -17.0137 C   0  0  0  0  0  0  0  0  0  0  0  0
   20.0990  -11.0253  -15.9556 O   0  0  0  0  0  0  0  0  0  0  0  0
   20.5025   -8.3095  -19.8847 O   0  0  0  0  0  0  0  0  0  0  0  0
   22.4735  -10.2554  -13.0704 C   0  0  0  0  0  0  0  0  0  0  0  0
   22.8742  -10.3579  -14.4933 C   0  0  2  0  0  0  0  0  0  0  0  0
   24.3207  -10.8746  -14.5421 C   0  0  0  0  0  0  0  0  0  0  0  0
   22.7106   -9.1945  -15.3816 C   0  0  0  0  0  0  0  0  0  0  0  0
   21.4129   -8.5439  -15.5566 C   0  0  2  0  0  0  0  0  0  0  0  0
   20.7842   -9.0139  -16.8186 N   0  0  0  0  0  0  0  0  0  0  0  0
   21.3381   -7.0963  -15.4686 C   0  0  0  0  0  0  0  0  0  0  0  0
   21.2822   -6.2666  -16.3978 O   0  0  0  0  0  0  0  0  0  0  0  0
   21.3267   -6.5197  -14.1714 O   0  0  0  0  0  0  0  0  0  0  0  0
  2  1  1  6
  2  5  1  0
  3  2  1  0
  4  3  1  0
  5  6  2  0
  7  8  1  0
  7  5  1  0
  8 12  1  0
  8  9  1  1
 10  9  1  0
 11 10  2  0
 12 13  2  0
 12 20  1  0
 14 10  1  0
 16 17  1  1
 16 15  1  0
 18 16  1  0
 19 18  1  6
 20 19  1  0
 21 19  1  0
 21 23  1  0
 22 21  2  0
M  END
$$$$
