CDL.pdb
     RDKit          3D

 23 22  0  0  1  0  0  0  0  0999 V2000
   22.3413  -20.0632  -14.8906 N   0  0  0  0  0  0  0  0  0  0  0  0
   23.0331  -19.6828  -13.6854 C   0  0  1  0  0  0  0  0  0  0  0  0
   22.0787  -19.6994  -12.4853 C   0  0  0  0  0  0  0  0  0  0  0  0
   20.7122  -18.5721  -12.7645 S   0  0  0  0  0  0  0  0  0  0  0  0
   24.0856  -20.7220  -13.3592 C   0  0  0  0  0  0  0  0  0  0  0  0
   23.7295  -21.8930  -13.4636 O   0  0  0  0  0  0  0  0  0  0  0  0
   25.3524  -20.2775  -12.9727 N   0  0  0  0  0  0  0  0  0  0  0  0
   26.4852  -21.0147  -12.5545 C   0  0  1  0  0  0  0  0  0  0  0  0
   27.8273  -20.6080  -13.1207 C   0  0  0  0  0  0  0  0  0  0  0  0
   27.7990  -20.3418  -14.5816 C   0  0  0  0  0  0  0  0  0  0  0  0
   26.7555  -20.7162  -15.2196 O   0  0  0  0  0  0  0  0  0  0  0  0
   26.5003  -21.2456  -11.1025 C   0  0  0  0  0  0  0  0  0  0  0  0
   27.2665  -22.1380  -10.5946 O   0  0  0  0  0  0  0  0  0  0  0  0
   28.8022  -19.7333  -15.2707 O   0  0  0  0  0  0  0  0  0  0  0  0
   28.5742  -20.9780   -7.6075 C   0  0  0  0  0  0  0  0  0  0  0  0
   27.7412  -19.8097   -7.9777 C   0  0  2  0  0  0  0  0  0  0  0  0
   28.2179  -18.6065   -7.1489 C   0  0  0  0  0  0  0  0  0  0  0  0
   26.2731  -19.9188   -7.9334 C   0  0  0  0  0  0  0  0  0  0  0  0
   25.5541  -20.8865   -8.7609 C   0  0  2  0  0  0  0  0  0  0  0  0
   25.6925  -20.5188  -10.1943 N   0  0  0  0  0  0  0  0  0  0  0  0
   24.1658  -21.1781   -8.4504 C   0  0  0  0  0  0  0  0  0  0  0  0
   23.1646  -21.0424   -9.1813 O   0  0  0  0  0  0  0  0  0  0  0  0
   23.8775  -21.6831   -7.1554 O   0  0  0  0  0  0  0  0  0  0  0  0
  2  1  1  6
  2  5  1  0
  3  2  1  0
  4  3  1  0
  5  6  2  0
  7  8  1  0
  7  5  1  0
  8 12  1  0
  8  9  1  1
 10  9  1  0
 11 10  2  0
 12 13  2  0
 12 20  1  0
 14 10  1  0
 16 17  1  1
 16 15  1  0
 18 16  1  0
 19 18  1  1
 20 19  1  0
 21 19  1  0
 21 23  1  0
 22 21  2  0
M  END
$$$$
