CDL.pdb
     RDKit          3D

 23 22  0  0  1  0  0  0  0  0999 V2000
   13.6919   -8.1543  -17.5970 N   0  0  0  0  0  0  0  0  0  0  0  0
   14.9560   -7.5243  -17.3126 C   0  0  1  0  0  0  0  0  0  0  0  0
   14.7447   -6.1900  -16.5872 C   0  0  0  0  0  0  0  0  0  0  0  0
   14.4833   -4.8729  -17.7760 S   0  0  0  0  0  0  0  0  0  0  0  0
   15.7361   -8.3787  -16.3350 C   0  0  0  0  0  0  0  0  0  0  0  0
   15.4300   -8.2507  -15.1523 O   0  0  0  0  0  0  0  0  0  0  0  0
   16.7223   -9.2275  -16.8435 N   0  0  0  0  0  0  0  0  0  0  0  0
   17.5036  -10.2078  -16.1875 C   0  0  1  0  0  0  0  0  0  0  0  0
   17.9200  -11.4183  -16.9927 C   0  0  0  0  0  0  0  0  0  0  0  0
   18.5618  -12.4811  -16.1776 C   0  0  0  0  0  0  0  0  0  0  0  0
   18.4004  -12.4176  -14.9102 O   0  0  0  0  0  0  0  0  0  0  0  0
   18.5938   -9.6195  -15.3956 C   0  0  0  0  0  0  0  0  0  0  0  0
   18.8335  -10.0379  -14.2086 O   0  0  0  0  0  0  0  0  0  0  0  0
   19.3005  -13.5020  -16.6912 O   0  0  0  0  0  0  0  0  0  0  0  0
   23.8393  -10.4994  -14.6665 C   0  0  0  0  0  0  0  0  0  0  0  0
   22.7718   -9.5183  -14.3607 C   0  0  2  0  0  0  0  0  0  0  0  0
   22.3608   -9.7077  -12.8920 C   0  0  0  0  0  0  0  0  0  0  0  0
   21.5815   -9.4441  -15.2251 C   0  0  0  0  0  0  0  0  0  0  0  0
   20.7410   -8.2483  -15.2659 C   0  0  2  0  0  0  0  0  0  0  0  0
   19.4278   -8.5811  -15.8772 N   0  0  0  0  0  0  0  0  0  0  0  0
   21.2768   -7.0360  -15.8592 C   0  0  0  0  0  0  0  0  0  0  0  0
   20.9468   -6.4871  -16.9291 O   0  0  0  0  0  0  0  0  0  0  0  0
   22.3121   -6.3661  -15.1559 O   0  0  0  0  0  0  0  0  0  0  0  0
  2  1  1  1
  2  5  1  0
  3  2  1  0
  4  3  1  0
  5  6  2  0
  7  8  1  0
  7  5  1  0
  8 12  1  0
  8  9  1  6
 10  9  1  0
 11 10  2  0
 12 13  2  0
 12 20  1  0
 14 10  1  0
 16 17  1  1
 16 15  1  0
 18 16  1  0
 19 18  1  6
 20 19  1  0
 21 19  1  0
 21 23  1  0
 22 21  2  0
M  END
$$$$
