CDL.pdb
     RDKit          3D

 23 22  0  0  1  0  0  0  0  0999 V2000
   19.8401  -14.5804  -19.2448 N   0  0  0  0  0  0  0  0  0  0  0  0
   18.9316  -13.5171  -19.5908 C   0  0  1  0  0  0  0  0  0  0  0  0
   18.1199  -13.0788  -18.3659 C   0  0  0  0  0  0  0  0  0  0  0  0
   16.8436  -14.2855  -18.0039 S   0  0  0  0  0  0  0  0  0  0  0  0
   19.7224  -12.2894  -19.9925 C   0  0  0  0  0  0  0  0  0  0  0  0
   20.0378  -12.2221  -21.1777 O   0  0  0  0  0  0  0  0  0  0  0  0
   20.0257  -11.3491  -19.0046 N   0  0  0  0  0  0  0  0  0  0  0  0
   20.7235  -10.1223  -19.1020 C   0  0  1  0  0  0  0  0  0  0  0  0
   20.4093   -9.2357  -20.2862 C   0  0  0  0  0  0  0  0  0  0  0  0
   21.3028   -8.0545  -20.3968 C   0  0  0  0  0  0  0  0  0  0  0  0
   20.7491   -6.9021  -20.3550 O   0  0  0  0  0  0  0  0  0  0  0  0
   20.7760   -9.4028  -17.8208 C   0  0  0  0  0  0  0  0  0  0  0  0
   19.7113   -9.2275  -17.1301 O   0  0  0  0  0  0  0  0  0  0  0  0
   22.6543   -8.1246  -20.5385 O   0  0  0  0  0  0  0  0  0  0  0  0
   22.5139  -10.9239  -13.9033 C   0  0  0  0  0  0  0  0  0  0  0  0
   23.4554  -10.3509  -14.8937 C   0  0  2  0  0  0  0  0  0  0  0  0
   24.8852  -10.6496  -14.4160 C   0  0  0  0  0  0  0  0  0  0  0  0
   23.3268   -8.9376  -15.2879 C   0  0  0  0  0  0  0  0  0  0  0  0
   22.0905   -8.4167  -15.8697 C   0  0  2  0  0  0  0  0  0  0  0  0
   21.9718   -8.8706  -17.2799 N   0  0  0  0  0  0  0  0  0  0  0  0
   21.8189   -6.9932  -15.7771 C   0  0  0  0  0  0  0  0  0  0  0  0
   21.8331   -6.1420  -16.6882 O   0  0  0  0  0  0  0  0  0  0  0  0
   21.4932   -6.4715  -14.4976 O   0  0  0  0  0  0  0  0  0  0  0  0
  2  1  1  1
  2  5  1  0
  3  2  1  0
  4  3  1  0
  5  6  2  0
  7  8  1  0
  7  5  1  0
  8 12  1  0
  8  9  1  6
 10  9  1  0
 11 10  2  0
 12 13  2  0
 12 20  1  0
 14 10  1  0
 16 17  1  1
 16 15  1  0
 18 16  1  0
 19 18  1  6
 20 19  1  0
 21 19  1  0
 21 23  1  0
 22 21  2  0
M  END
$$$$
