CDL.pdb
     RDKit          3D

 23 22  0  0  1  0  0  0  0  0999 V2000
   25.6841   -9.8672  -22.8672 N   0  0  0  0  0  0  0  0  0  0  0  0
   27.0765   -9.5274  -22.7199 C   0  0  1  0  0  0  0  0  0  0  0  0
   27.5472   -8.6543  -23.8892 C   0  0  0  0  0  0  0  0  0  0  0  0
   27.7831   -9.6580  -25.3565 S   0  0  0  0  0  0  0  0  0  0  0  0
   27.2562   -8.6607  -21.4908 C   0  0  0  0  0  0  0  0  0  0  0  0
   26.2606   -8.0418  -21.1242 O   0  0  0  0  0  0  0  0  0  0  0  0
   28.5138   -8.6328  -20.8829 N   0  0  0  0  0  0  0  0  0  0  0  0
   28.8709   -8.8133  -19.5259 C   0  0  1  0  0  0  0  0  0  0  0  0
   28.0958   -9.8424  -18.7339 C   0  0  0  0  0  0  0  0  0  0  0  0
   26.9487   -9.2722  -17.9824 C   0  0  0  0  0  0  0  0  0  0  0  0
   26.6829   -8.0365  -18.1788 O   0  0  0  0  0  0  0  0  0  0  0  0
   30.3265   -8.8911  -19.3337 C   0  0  0  0  0  0  0  0  0  0  0  0
   30.8706   -9.9767  -18.9251 O   0  0  0  0  0  0  0  0  0  0  0  0
   26.1762   -9.9755  -17.1104 O   0  0  0  0  0  0  0  0  0  0  0  0
   32.7546   -5.6583  -17.0618 C   0  0  0  0  0  0  0  0  0  0  0  0
   32.4353   -7.1000  -16.9387 C   0  0  2  0  0  0  0  0  0  0  0  0
   32.8216   -7.5514  -15.5214 C   0  0  0  0  0  0  0  0  0  0  0  0
   32.9499   -8.0482  -17.9415 C   0  0  0  0  0  0  0  0  0  0  0  0
   32.6683   -7.8801  -19.3664 C   0  0  2  0  0  0  0  0  0  0  0  0
   31.1995   -7.8035  -19.5799 N   0  0  0  0  0  0  0  0  0  0  0  0
   33.2642   -8.8074  -20.3118 C   0  0  0  0  0  0  0  0  0  0  0  0
   32.9043   -9.9690  -20.5876 O   0  0  0  0  0  0  0  0  0  0  0  0
   34.4062   -8.3654  -21.0301 O   0  0  0  0  0  0  0  0  0  0  0  0
  2  1  1  6
  2  5  1  0
  3  2  1  0
  4  3  1  0
  5  6  2  0
  7  8  1  0
  7  5  1  0
  8 12  1  0
  8  9  1  6
 10  9  1  0
 11 10  2  0
 12 13  2  0
 12 20  1  0
 14 10  1  0
 16 17  1  1
 16 15  1  0
 18 16  1  0
 19 18  1  1
 20 19  1  0
 21 19  1  0
 21 23  1  0
 22 21  2  0
M  END
$$$$
