CDL.pdb
     RDKit          3D

 23 22  0  0  1  0  0  0  0  0999 V2000
   20.2853   -0.5457  -17.4829 N   0  0  0  0  0  0  0  0  0  0  0  0
   20.3274   -1.9790  -17.6229 C   0  0  1  0  0  0  0  0  0  0  0  0
   21.7772   -2.4742  -17.6863 C   0  0  0  0  0  0  0  0  0  0  0  0
   22.5679   -1.8870  -19.1850 S   0  0  0  0  0  0  0  0  0  0  0  0
   19.7506   -2.6237  -16.3797 C   0  0  0  0  0  0  0  0  0  0  0  0
   19.3232   -1.8500  -15.5267 O   0  0  0  0  0  0  0  0  0  0  0  0
   19.7498   -4.0186  -16.3012 N   0  0  0  0  0  0  0  0  0  0  0  0
   18.9103   -4.8864  -15.5639 C   0  0  1  0  0  0  0  0  0  0  0  0
   17.4441   -4.5264  -15.4756 C   0  0  0  0  0  0  0  0  0  0  0  0
   16.6695   -5.4106  -14.5678 C   0  0  0  0  0  0  0  0  0  0  0  0
   15.9933   -6.3508  -15.1110 O   0  0  0  0  0  0  0  0  0  0  0  0
   19.1548   -6.3026  -15.8744 C   0  0  0  0  0  0  0  0  0  0  0  0
   18.9827   -6.7459  -17.0641 O   0  0  0  0  0  0  0  0  0  0  0  0
   16.6366   -5.2812  -13.2136 O   0  0  0  0  0  0  0  0  0  0  0  0
   23.0512   -8.9612  -15.7547 C   0  0  0  0  0  0  0  0  0  0  0  0
   22.3400   -8.7358  -14.4745 C   0  0  2  0  0  0  0  0  0  0  0  0
   23.1947   -9.3341  -13.3461 C   0  0  0  0  0  0  0  0  0  0  0  0
   20.9353   -9.1571  -14.3378 C   0  0  0  0  0  0  0  0  0  0  0  0
   19.8975   -8.6589  -15.2394 C   0  0  2  0  0  0  0  0  0  0  0  0
   19.5843   -7.2444  -14.9079 N   0  0  0  0  0  0  0  0  0  0  0  0
   18.6710   -9.4227  -15.3849 C   0  0  0  0  0  0  0  0  0  0  0  0
   18.5133  -10.5385  -15.9188 O   0  0  0  0  0  0  0  0  0  0  0  0
   17.4799   -8.8527  -14.8637 O   0  0  0  0  0  0  0  0  0  0  0  0
  2  1  1  1
  2  5  1  0
  3  2  1  0
  4  3  1  0
  5  6  2  0
  7  8  1  0
  7  5  1  0
  8 12  1  0
  8  9  1  6
 10  9  1  0
 11 10  2  0
 12 13  2  0
 12 20  1  0
 14 10  1  0
 16 17  1  1
 16 15  1  0
 18 16  1  0
 19 18  1  1
 20 19  1  0
 21 19  1  0
 21 23  1  0
 22 21  2  0
M  END
$$$$
