CDL.pdb
     RDKit          3D

 23 22  0  0  1  0  0  0  0  0999 V2000
   29.2627  -20.7158  -14.5321 N   0  0  0  0  0  0  0  0  0  0  0  0
   29.0839  -21.2245  -13.1961 C   0  0  1  0  0  0  0  0  0  0  0  0
   30.3545  -21.0167  -12.3633 C   0  0  0  0  0  0  0  0  0  0  0  0
   31.4922  -22.3795  -12.6177 S   0  0  0  0  0  0  0  0  0  0  0  0
   28.0180  -20.4150  -12.4872 C   0  0  0  0  0  0  0  0  0  0  0  0
   28.1825  -19.1977  -12.4901 O   0  0  0  0  0  0  0  0  0  0  0  0
   26.9535  -21.1011  -11.8973 N   0  0  0  0  0  0  0  0  0  0  0  0
   25.8999  -20.6183  -11.0860 C   0  0  1  0  0  0  0  0  0  0  0  0
   24.4941  -20.7308  -11.6322 C   0  0  0  0  0  0  0  0  0  0  0  0
   24.2332  -19.8355  -12.7881 C   0  0  0  0  0  0  0  0  0  0  0  0
   25.2079  -19.1140  -13.1949 O   0  0  0  0  0  0  0  0  0  0  0  0
   26.0273  -21.0477   -9.6856 C   0  0  0  0  0  0  0  0  0  0  0  0
   26.1205  -22.2917   -9.3934 O   0  0  0  0  0  0  0  0  0  0  0  0
   23.0369  -19.7384  -13.4294 O   0  0  0  0  0  0  0  0  0  0  0  0
   28.9493  -20.7567   -6.0954 C   0  0  0  0  0  0  0  0  0  0  0  0
   28.1194  -19.5626   -6.3798 C   0  0  2  0  0  0  0  0  0  0  0  0
   28.6231  -18.4133   -5.4924 C   0  0  0  0  0  0  0  0  0  0  0  0
   26.6515  -19.6629   -6.3118 C   0  0  0  0  0  0  0  0  0  0  0  0
   25.9072  -20.5721   -7.1822 C   0  0  2  0  0  0  0  0  0  0  0  0
   26.0547  -20.1420   -8.5972 N   0  0  0  0  0  0  0  0  0  0  0  0
   24.5119  -20.8416   -6.8834 C   0  0  0  0  0  0  0  0  0  0  0  0
   23.5000  -20.4563   -7.5018 O   0  0  0  0  0  0  0  0  0  0  0  0
   24.2297  -21.6432   -5.7463 O   0  0  0  0  0  0  0  0  0  0  0  0
  2  1  1  6
  2  5  1  0
  3  2  1  0
  4  3  1  0
  5  6  2  0
  7  8  1  0
  7  5  1  0
  8 12  1  0
  8  9  1  6
 10  9  1  0
 11 10  2  0
 12 13  2  0
 12 20  1  0
 14 10  1  0
 16 17  1  1
 16 15  1  0
 18 16  1  0
 19 18  1  1
 20 19  1  0
 21 19  1  0
 21 23  1  0
 22 21  2  0
M  END
$$$$
