CDL.pdb
     RDKit          3D

 23 22  0  0  1  0  0  0  0  0999 V2000
   16.5082  -11.8871  -17.8353 N   0  0  0  0  0  0  0  0  0  0  0  0
   16.5882  -10.9078  -16.7815 C   0  0  1  0  0  0  0  0  0  0  0  0
   16.9381  -11.5765  -15.4467 C   0  0  0  0  0  0  0  0  0  0  0  0
   17.0300  -10.3480  -14.1434 S   0  0  0  0  0  0  0  0  0  0  0  0
   17.7405   -9.9642  -17.0571 C   0  0  0  0  0  0  0  0  0  0  0  0
   18.7944  -10.4946  -17.3989 O   0  0  0  0  0  0  0  0  0  0  0  0
   17.5199   -8.5932  -16.9041 N   0  0  0  0  0  0  0  0  0  0  0  0
   18.4136   -7.5069  -17.0555 C   0  0  1  0  0  0  0  0  0  0  0  0
   17.8909   -6.2677  -17.7471 C   0  0  0  0  0  0  0  0  0  0  0  0
   18.9596   -5.3209  -18.1561 C   0  0  0  0  0  0  0  0  0  0  0  0
   20.1492   -5.7852  -18.2297 O   0  0  0  0  0  0  0  0  0  0  0  0
   19.1685   -7.2251  -15.8257 C   0  0  0  0  0  0  0  0  0  0  0  0
   18.5560   -7.0342  -14.7168 O   0  0  0  0  0  0  0  0  0  0  0  0
   18.7514   -4.0091  -18.4517 O   0  0  0  0  0  0  0  0  0  0  0  0
   21.5530   -9.3265  -12.4484 C   0  0  0  0  0  0  0  0  0  0  0  0
   22.1250   -9.2260  -13.8116 C   0  0  2  0  0  0  0  0  0  0  0  0
   23.3834  -10.1068  -13.8634 C   0  0  0  0  0  0  0  0  0  0  0  0
   22.3982   -7.8997  -14.3909 C   0  0  0  0  0  0  0  0  0  0  0  0
   21.3436   -6.8970  -14.5339 C   0  0  2  0  0  0  0  0  0  0  0  0
   20.5821   -7.1476  -15.7853 N   0  0  0  0  0  0  0  0  0  0  0  0
   21.6958   -5.4917  -14.4346 C   0  0  0  0  0  0  0  0  0  0  0  0
   21.7545   -4.6427  -15.3460 O   0  0  0  0  0  0  0  0  0  0  0  0
   22.0218   -4.9885  -13.1478 O   0  0  0  0  0  0  0  0  0  0  0  0
  2  1  1  6
  2  5  1  0
  3  2  1  0
  4  3  1  0
  5  6  2  0
  7  8  1  0
  7  5  1  0
  8 12  1  0
  8  9  1  1
 10  9  1  0
 11 10  2  0
 12 13  2  0
 12 20  1  0
 14 10  1  0
 16 17  1  1
 16 15  1  0
 18 16  1  0
 19 18  1  6
 20 19  1  0
 21 19  1  0
 21 23  1  0
 22 21  2  0
M  END
$$$$
