CDL.pdb
     RDKit          3D

 23 22  0  0  1  0  0  0  0  0999 V2000
   28.9039  -20.7059  -18.4340 N   0  0  0  0  0  0  0  0  0  0  0  0
   27.9192  -21.2624  -17.5417 C   0  0  1  0  0  0  0  0  0  0  0  0
   28.5510  -21.6136  -16.1895 C   0  0  0  0  0  0  0  0  0  0  0  0
   29.5741  -23.0783  -16.3451 S   0  0  0  0  0  0  0  0  0  0  0  0
   26.8772  -20.2106  -17.2222 C   0  0  0  0  0  0  0  0  0  0  0  0
   26.9967  -19.1430  -17.8178 O   0  0  0  0  0  0  0  0  0  0  0  0
   25.8825  -20.5295  -16.2944 N   0  0  0  0  0  0  0  0  0  0  0  0
   24.6973  -19.8341  -15.9583 C   0  0  1  0  0  0  0  0  0  0  0  0
   23.8966  -19.2357  -17.0932 C   0  0  0  0  0  0  0  0  0  0  0  0
   22.7289  -18.4379  -16.6396 C   0  0  0  0  0  0  0  0  0  0  0  0
   22.9619  -17.4797  -15.8249 O   0  0  0  0  0  0  0  0  0  0  0  0
   23.8799  -20.5598  -14.9750 C   0  0  0  0  0  0  0  0  0  0  0  0
   23.3690  -21.6976  -15.2681 O   0  0  0  0  0  0  0  0  0  0  0  0
   21.4458  -18.6630  -17.0327 O   0  0  0  0  0  0  0  0  0  0  0  0
   25.4956  -22.3581  -11.2966 C   0  0  0  0  0  0  0  0  0  0  0  0
   25.0239  -20.9626  -11.1356 C   0  0  2  0  0  0  0  0  0  0  0  0
   25.4991  -20.4572   -9.7643 C   0  0  0  0  0  0  0  0  0  0  0  0
   23.5994  -20.6475  -11.3374 C   0  0  0  0  0  0  0  0  0  0  0  0
   22.9420  -20.8743  -12.6237 C   0  0  2  0  0  0  0  0  0  0  0  0
   23.6100  -20.0646  -13.6759 N   0  0  0  0  0  0  0  0  0  0  0  0
   21.5009  -20.7177  -12.7104 C   0  0  0  0  0  0  0  0  0  0  0  0
   20.8536  -19.8114  -13.2712 O   0  0  0  0  0  0  0  0  0  0  0  0
   20.6968  -21.7066  -12.0853 O   0  0  0  0  0  0  0  0  0  0  0  0
  2  1  1  6
  2  5  1  0
  3  2  1  0
  4  3  1  0
  5  6  2  0
  7  8  1  0
  7  5  1  0
  8 12  1  0
  8  9  1  6
 10  9  1  0
 11 10  2  0
 12 13  2  0
 12 20  1  0
 14 10  1  0
 16 17  1  1
 16 15  1  0
 18 16  1  0
 19 18  1  1
 20 19  1  0
 21 19  1  0
 21 23  1  0
 22 21  2  0
M  END
$$$$
