CDL.pdb
     RDKit          3D

 23 22  0  0  1  0  0  0  0  0999 V2000
   27.9490  -34.3299   -6.4605 N   0  0  0  0  0  0  0  0  0  0  0  0
   28.6452  -35.1954   -5.5429 C   0  0  1  0  0  0  0  0  0  0  0  0
   30.1509  -34.9059   -5.5625 C   0  0  0  0  0  0  0  0  0  0  0  0
   30.8359  -35.2952   -7.1735 S   0  0  0  0  0  0  0  0  0  0  0  0
   28.2081  -34.8839   -4.1265 C   0  0  0  0  0  0  0  0  0  0  0  0
   27.9589  -33.7042   -3.8923 O   0  0  0  0  0  0  0  0  0  0  0  0
   28.1247  -35.9401   -3.2158 N   0  0  0  0  0  0  0  0  0  0  0  0
   27.7062  -35.9433   -1.8644 C   0  0  1  0  0  0  0  0  0  0  0  0
   26.9320  -37.1483   -1.3790 C   0  0  0  0  0  0  0  0  0  0  0  0
   25.4901  -37.1094   -1.7331 C   0  0  0  0  0  0  0  0  0  0  0  0
   24.8064  -38.1648   -1.4990 O   0  0  0  0  0  0  0  0  0  0  0  0
   28.7708  -35.5139   -0.9457 C   0  0  0  0  0  0  0  0  0  0  0  0
   29.9774  -35.3954   -1.3598 O   0  0  0  0  0  0  0  0  0  0  0  0
   24.8635  -36.0344   -2.2839 O   0  0  0  0  0  0  0  0  0  0  0  0
   31.8475  -31.6260    1.0665 C   0  0  0  0  0  0  0  0  0  0  0  0
   31.5284  -33.0430    1.3598 C   0  0  2  0  0  0  0  0  0  0  0  0
   32.8101  -33.8678    1.1629 C   0  0  0  0  0  0  0  0  0  0  0  0
   30.3897  -33.6880    0.6841 C   0  0  0  0  0  0  0  0  0  0  0  0
   29.6127  -34.7418    1.3351 C   0  0  2  0  0  0  0  0  0  0  0  0
   28.5411  -35.2114    0.4186 N   0  0  0  0  0  0  0  0  0  0  0  0
   29.0673  -34.4935    2.6579 C   0  0  0  0  0  0  0  0  0  0  0  0
   29.6499  -34.5540    3.7587 O   0  0  0  0  0  0  0  0  0  0  0  0
   27.6964  -34.1348    2.7433 O   0  0  0  0  0  0  0  0  0  0  0  0
  2  1  1  6
  2  5  1  0
  3  2  1  0
  4  3  1  0
  5  6  2  0
  7  8  1  0
  7  5  1  0
  8 12  1  0
  8  9  1  1
 10  9  1  0
 11 10  2  0
 12 13  2  0
 12 20  1  0
 14 10  1  0
 16 17  1  6
 16 15  1  0
 18 16  1  0
 19 18  1  6
 20 19  1  0
 21 19  1  0
 21 23  1  0
 22 21  2  0
M  END
$$$$
