SKG.pdb
     RDKit          3D

 20 19  0  0  1  0  0  0  0  0999 V2000
    8.3587  -15.5964   18.4542 O   0  0  0  0  0  0  0  0  0  0  0  0
    7.1267  -14.9563   18.5709 C   0  0  0  0  0  0  0  0  0  0  0  0
    7.3769  -13.5085   18.9556 C   0  0  2  0  0  0  0  0  0  0  0  0
    8.0660  -12.8473   17.8942 N   0  0  0  0  0  0  0  0  0  0  0  0
    8.0452  -13.3903   20.2628 C   0  0  0  0  0  0  0  0  0  0  0  0
    9.2922  -13.1498   20.3657 O   0  0  0  0  0  0  0  0  0  0  0  0
    7.2863  -13.5474   21.4429 N   0  0  0  0  0  0  0  0  0  0  0  0
    7.8451  -13.5782   22.7763 C   0  0  1  0  0  0  0  0  0  0  0  0
    6.8017  -13.1083   23.7322 C   0  0  0  0  0  0  0  0  0  0  0  0
    7.2757  -12.9420   25.1399 C   0  0  0  0  0  0  0  0  0  0  0  0
    6.2298  -12.4574   26.0911 C   0  0  0  0  0  0  0  0  0  0  0  0
    6.8641  -12.3705   27.4696 C   0  0  0  0  0  0  0  0  0  0  0  0
    5.9447  -11.7595   28.4090 N   0  0  0  0  0  0  0  0  0  0  0  0
    8.1612  -14.9993   23.1161 C   0  0  0  0  0  0  0  0  0  0  0  0
    7.2825  -15.8994   23.1530 O   0  0  0  0  0  0  0  0  0  0  0  0
    9.4991  -15.3828   23.4148 N   0  0  0  0  0  0  0  0  0  0  0  0
    9.8485  -16.5412   24.1723 C   0  0  0  0  0  0  0  0  0  0  0  0
   11.2859  -16.6457   24.4594 C   0  0  0  0  0  0  0  0  0  0  0  0
   11.6993  -17.5895   25.1756 O   0  0  0  0  0  0  0  0  0  0  0  0
   12.2262  -15.7512   23.9797 O   0  0  0  0  0  0  0  0  0  0  0  0
  2  1  1  0
  3  2  1  0
  3  4  1  6
  5  3  1  0
  6  5  2  0
  7  5  1  0
  8  9  1  1
  8  7  1  0
 10  9  1  0
 11 12  1  0
 11 10  1  0
 13 12  1  0
 14 15  2  0
 14  8  1  0
 16 14  1  0
 17 16  1  0
 18 17  1  0
 18 20  1  0
 19 18  2  0
M  END
$$$$
