SKG.pdb
     RDKit          3D

 20 19  0  0  1  0  0  0  0  0999 V2000
    9.7236  -18.3663   17.2781 O   0  0  0  0  0  0  0  0  0  0  0  0
    8.9939  -18.7308   18.4077 C   0  0  0  0  0  0  0  0  0  0  0  0
    7.6324  -18.0621   18.3312 C   0  0  2  0  0  0  0  0  0  0  0  0
    7.7396  -16.8504   17.5835 N   0  0  0  0  0  0  0  0  0  0  0  0
    7.0254  -17.8877   19.6618 C   0  0  0  0  0  0  0  0  0  0  0  0
    7.0192  -16.7629   20.2604 O   0  0  0  0  0  0  0  0  0  0  0  0
    6.4299  -18.9974   20.2999 N   0  0  0  0  0  0  0  0  0  0  0  0
    5.8152  -18.9556   21.6081 C   0  0  1  0  0  0  0  0  0  0  0  0
    4.6101  -19.8333   21.5874 C   0  0  0  0  0  0  0  0  0  0  0  0
    3.4056  -19.2231   20.9462 C   0  0  0  0  0  0  0  0  0  0  0  0
    2.2758  -20.1753   20.7216 C   0  0  0  0  0  0  0  0  0  0  0  0
    1.1867  -19.4297   19.9680 C   0  0  0  0  0  0  0  0  0  0  0  0
    0.0955  -20.3267   19.6424 N   0  0  0  0  0  0  0  0  0  0  0  0
    6.7783  -19.5347   22.5940 C   0  0  0  0  0  0  0  0  0  0  0  0
    7.4960  -20.5351   22.3336 O   0  0  0  0  0  0  0  0  0  0  0  0
    6.9131  -18.9556   23.8873 N   0  0  0  0  0  0  0  0  0  0  0  0
    7.8091  -19.4363   24.8891 C   0  0  0  0  0  0  0  0  0  0  0  0
    7.8083  -18.6285   26.1167 C   0  0  0  0  0  0  0  0  0  0  0  0
    7.1835  -17.5404   26.1322 O   0  0  0  0  0  0  0  0  0  0  0  0
    8.4659  -19.0018   27.2754 O   0  0  0  0  0  0  0  0  0  0  0  0
  2  1  1  0
  3  2  1  0
  3  4  1  1
  5  3  1  0
  6  5  2  0
  7  5  1  0
  8  9  1  6
  8  7  1  0
 10  9  1  0
 11 12  1  0
 11 10  1  0
 13 12  1  0
 14 15  2  0
 14  8  1  0
 16 14  1  0
 17 16  1  0
 18 17  1  0
 18 20  1  0
 19 18  2  0
M  END
$$$$
