SKG.pdb
     RDKit          3D

 20 19  0  0  1  0  0  0  0  0999 V2000
    9.2635  -14.8648   16.2518 O   0  0  0  0  0  0  0  0  0  0  0  0
    9.3673  -14.2785   17.5115 C   0  0  0  0  0  0  0  0  0  0  0  0
    7.9717  -14.1632   18.0995 C   0  0  2  0  0  0  0  0  0  0  0  0
    7.3508  -12.9706   17.6188 N   0  0  0  0  0  0  0  0  0  0  0  0
    7.9779  -14.2798   19.5677 C   0  0  0  0  0  0  0  0  0  0  0  0
    8.1242  -13.2666   20.3263 O   0  0  0  0  0  0  0  0  0  0  0  0
    7.8172  -15.5513   20.1600 N   0  0  0  0  0  0  0  0  0  0  0  0
    7.7336  -15.7851   21.5846 C   0  0  1  0  0  0  0  0  0  0  0  0
    6.9592  -17.0394   21.8086 C   0  0  0  0  0  0  0  0  0  0  0  0
    5.5195  -16.9619   21.4143 C   0  0  0  0  0  0  0  0  0  0  0  0
    4.7805  -18.2570   21.5152 C   0  0  0  0  0  0  0  0  0  0  0  0
    3.3416  -18.0009   21.0981 C   0  0  0  0  0  0  0  0  0  0  0  0
    2.5734  -19.2286   21.1610 N   0  0  0  0  0  0  0  0  0  0  0  0
    9.1180  -16.0111   22.1015 C   0  0  0  0  0  0  0  0  0  0  0  0
    9.9994  -16.6162   21.4377 O   0  0  0  0  0  0  0  0  0  0  0  0
    9.4863  -15.5358   23.3917 N   0  0  0  0  0  0  0  0  0  0  0  0
   10.8336  -15.4387   23.8533 C   0  0  0  0  0  0  0  0  0  0  0  0
   11.4189  -16.7304   24.2383 C   0  0  0  0  0  0  0  0  0  0  0  0
   10.7456  -17.7777   24.0819 O   0  0  0  0  0  0  0  0  0  0  0  0
   12.6887  -16.8634   24.7716 O   0  0  0  0  0  0  0  0  0  0  0  0
  2  1  1  0
  3  2  1  0
  3  4  1  1
  5  3  1  0
  6  5  2  0
  7  5  1  0
  8  9  1  6
  8  7  1  0
 10  9  1  0
 11 12  1  0
 11 10  1  0
 13 12  1  0
 14 15  2  0
 14  8  1  0
 16 14  1  0
 17 16  1  0
 18 17  1  0
 18 20  1  0
 19 18  2  0
M  END
$$$$
