SKG.pdb
     RDKit          3D

 20 19  0  0  1  0  0  0  0  0999 V2000
   10.4114  -16.0933   16.0139 O   0  0  0  0  0  0  0  0  0  0  0  0
    9.6294  -14.9955   15.6605 C   0  0  0  0  0  0  0  0  0  0  0  0
    8.8773  -14.5294   16.8949 C   0  0  2  0  0  0  0  0  0  0  0  0
    7.9463  -13.5110   16.5276 N   0  0  0  0  0  0  0  0  0  0  0  0
    9.7886  -14.1370   17.9834 C   0  0  0  0  0  0  0  0  0  0  0  0
   10.3092  -12.9756   18.0444 O   0  0  0  0  0  0  0  0  0  0  0  0
   10.0996  -15.0722   18.9945 N   0  0  0  0  0  0  0  0  0  0  0  0
   11.0411  -14.8351   20.0660 C   0  0  1  0  0  0  0  0  0  0  0  0
   10.7037  -15.7472   21.1962 C   0  0  0  0  0  0  0  0  0  0  0  0
   11.5929  -15.6153   22.3904 C   0  0  0  0  0  0  0  0  0  0  0  0
   11.3536  -16.6364   23.4551 C   0  0  0  0  0  0  0  0  0  0  0  0
   12.3848  -16.4130   24.5490 C   0  0  0  0  0  0  0  0  0  0  0  0
   12.1418  -17.3111   25.6606 N   0  0  0  0  0  0  0  0  0  0  0  0
   12.4048  -15.2061   19.5784 C   0  0  0  0  0  0  0  0  0  0  0  0
   12.6591  -16.3252   19.0621 O   0  0  0  0  0  0  0  0  0  0  0  0
   13.4801  -14.2799   19.6877 N   0  0  0  0  0  0  0  0  0  0  0  0
   14.7862  -14.5050   19.1574 C   0  0  0  0  0  0  0  0  0  0  0  0
   15.7894  -14.8299   20.1807 C   0  0  0  0  0  0  0  0  0  0  0  0
   15.4187  -15.0047   21.3667 O   0  0  0  0  0  0  0  0  0  0  0  0
   17.1405  -14.9567   19.9107 O   0  0  0  0  0  0  0  0  0  0  0  0
  2  1  1  0
  3  2  1  0
  3  4  1  6
  5  3  1  0
  6  5  2  0
  7  5  1  0
  8  9  1  1
  8  7  1  0
 10  9  1  0
 11 12  1  0
 11 10  1  0
 13 12  1  0
 14 15  2  0
 14  8  1  0
 16 14  1  0
 17 16  1  0
 18 17  1  0
 18 20  1  0
 19 18  2  0
M  END
$$$$
