SKG.pdb
     RDKit          3D

 20 19  0  0  1  0  0  0  0  0999 V2000
    6.9997  -16.1417   16.7495 O   0  0  0  0  0  0  0  0  0  0  0  0
    8.1558  -15.4948   17.1811 C   0  0  0  0  0  0  0  0  0  0  0  0
    7.7534  -14.1793   17.8246 C   0  0  2  0  0  0  0  0  0  0  0  0
    7.9497  -13.1151   16.8929 N   0  0  0  0  0  0  0  0  0  0  0  0
    8.4240  -13.9676   19.1187 C   0  0  0  0  0  0  0  0  0  0  0  0
    9.5420  -13.3631   19.2104 O   0  0  0  0  0  0  0  0  0  0  0  0
    7.8147  -14.4469   20.2987 N   0  0  0  0  0  0  0  0  0  0  0  0
    8.3306  -14.2290   21.6318 C   0  0  1  0  0  0  0  0  0  0  0  0
    7.1824  -13.9319   22.5354 C   0  0  0  0  0  0  0  0  0  0  0  0
    7.5621  -13.6472   23.9528 C   0  0  0  0  0  0  0  0  0  0  0  0
    6.4161  -13.2755   24.8370 C   0  0  0  0  0  0  0  0  0  0  0  0
    6.9864  -12.8727   26.1870 C   0  0  0  0  0  0  0  0  0  0  0  0
    5.9175  -12.5137   27.0981 N   0  0  0  0  0  0  0  0  0  0  0  0
    8.9575  -15.5019   22.1024 C   0  0  0  0  0  0  0  0  0  0  0  0
    8.3237  -16.5872   22.1655 O   0  0  0  0  0  0  0  0  0  0  0  0
   10.3235  -15.5214   22.5023 N   0  0  0  0  0  0  0  0  0  0  0  0
   10.9692  -16.6522   23.0873 C   0  0  0  0  0  0  0  0  0  0  0  0
   12.3412  -16.3794   23.5376 C   0  0  0  0  0  0  0  0  0  0  0  0
   12.8490  -15.2557   23.3049 O   0  0  0  0  0  0  0  0  0  0  0  0
   13.1193  -17.3021   24.2138 O   0  0  0  0  0  0  0  0  0  0  0  0
  2  1  1  0
  3  2  1  0
  3  4  1  6
  5  3  1  0
  6  5  2  0
  7  5  1  0
  8  9  1  1
  8  7  1  0
 10  9  1  0
 11 12  1  0
 11 10  1  0
 13 12  1  0
 14 15  2  0
 14  8  1  0
 16 14  1  0
 17 16  1  0
 18 17  1  0
 18 20  1  0
 19 18  2  0
M  END
$$$$
