SKG.pdb
     RDKit          3D

 20 19  0  0  1  0  0  0  0  0999 V2000
   -2.9860  -22.1833   30.1659 O   0  0  0  0  0  0  0  0  0  0  0  0
   -4.3101  -22.3683   29.7736 C   0  0  0  0  0  0  0  0  0  0  0  0
   -4.3271  -22.6798   28.2871 C   0  0  2  0  0  0  0  0  0  0  0  0
   -3.8071  -21.5650   27.5622 N   0  0  0  0  0  0  0  0  0  0  0  0
   -5.6559  -23.1195   27.8286 C   0  0  0  0  0  0  0  0  0  0  0  0
   -6.5370  -22.2954   27.4185 O   0  0  0  0  0  0  0  0  0  0  0  0
   -5.9701  -24.4959   27.8410 N   0  0  0  0  0  0  0  0  0  0  0  0
   -7.2292  -25.0512   27.3970 C   0  0  1  0  0  0  0  0  0  0  0  0
   -6.9544  -26.3481   26.7147 C   0  0  0  0  0  0  0  0  0  0  0  0
   -8.1457  -26.9757   26.0658 C   0  0  0  0  0  0  0  0  0  0  0  0
   -7.8410  -28.2037   25.2704 C   0  0  0  0  0  0  0  0  0  0  0  0
   -9.1330  -28.6598   24.6124 C   0  0  0  0  0  0  0  0  0  0  0  0
   -8.8977  -29.8421   23.8075 N   0  0  0  0  0  0  0  0  0  0  0  0
   -8.0608  -25.3439   28.6044 C   0  0  0  0  0  0  0  0  0  0  0  0
   -7.6887  -26.1367   29.5081 O   0  0  0  0  0  0  0  0  0  0  0  0
   -9.3285  -24.7178   28.7689 N   0  0  0  0  0  0  0  0  0  0  0  0
  -10.1945  -24.9457   29.8806 C   0  0  0  0  0  0  0  0  0  0  0  0
  -11.4800  -24.2408   29.7800 C   0  0  0  0  0  0  0  0  0  0  0  0
  -11.7017  -23.5128   28.7822 O   0  0  0  0  0  0  0  0  0  0  0  0
  -12.4769  -24.3331   30.7349 O   0  0  0  0  0  0  0  0  0  0  0  0
  2  1  1  0
  3  2  1  0
  3  4  1  6
  5  3  1  0
  6  5  2  0
  7  5  1  0
  8  9  1  1
  8  7  1  0
 10  9  1  0
 11 12  1  0
 11 10  1  0
 13 12  1  0
 14 15  2  0
 14  8  1  0
 16 14  1  0
 17 16  1  0
 18 17  1  0
 18 20  1  0
 19 18  2  0
M  END
$$$$
