ASH.pdb
     RDKit          3D

 22 22  0  0  1  0  0  0  0  0999 V2000
   21.7821  -14.3485  -20.3936 C   0  0  0  0  0  0  0  0  0  0  0  0
   20.8706  -13.9175  -19.2525 C   0  0  2  0  0  0  0  0  0  0  0  0
   19.4981  -14.1115  -19.6032 N   0  0  0  0  0  0  0  0  0  0  0  0
   21.1698  -12.5328  -18.8178 C   0  0  0  0  0  0  0  0  0  0  0  0
   22.2405  -12.3215  -18.1944 O   0  0  0  0  0  0  0  0  0  0  0  0
   19.8815   -7.8341  -18.7221 O   0  0  0  0  0  0  0  0  0  0  0  0
   19.6297   -9.1255  -19.1751 C   0  0  0  0  0  0  0  0  0  0  0  0
   20.6539  -10.0796  -18.5458 C   0  0  2  0  0  0  0  0  0  0  0  0
   20.3231  -11.4177  -19.0589 N   0  0  0  0  0  0  0  0  0  0  0  0
   20.4518  -10.0162  -17.0829 C   0  0  0  0  0  0  0  0  0  0  0  0
   19.5349  -10.7293  -16.5838 O   0  0  0  0  0  0  0  0  0  0  0  0
   21.1991   -9.2262  -16.2071 N   0  0  0  0  0  0  0  0  0  0  0  0
   21.0240   -9.2444  -14.7294 C   0  0  1  0  0  0  0  0  0  0  0  0
   22.3140   -9.6084  -14.0761 C   0  0  0  0  0  0  0  0  0  0  0  0
   22.1927   -9.6151  -12.5996 C   0  0  0  0  0  0  0  0  0  0  0  0
   21.0838   -9.4976  -11.8000 C   0  0  0  0  0  0  0  0  0  0  0  0
   21.4777   -9.6364  -10.5174 N   0  0  0  0  0  0  0  0  0  0  0  0
   22.7961   -9.8376  -10.5035 C   0  0  0  0  0  0  0  0  0  0  0  0
   23.2612   -9.8304  -11.7570 N   0  0  0  0  0  0  0  0  0  0  0  0
   20.7459   -7.7966  -14.4428 C   0  0  0  0  0  0  0  0  0  0  0  0
   21.2063   -6.9192  -15.1925 O   0  0  0  0  0  0  0  0  0  0  0  0
   19.9993   -7.4231  -13.3728 O   0  0  0  0  0  0  0  0  0  0  0  0
  2  1  1  6
  2  4  1  0
  2  3  1  0
  4  9  1  0
  5  4  2  0
  7  6  1  0
  8  7  1  6
  8 10  1  0
  9  8  1  0
 10 12  1  0
 10 11  2  0
 12 13  1  0
 13 20  1  0
 13 14  1  1
 14 15  1  0
 15 16  2  0
 15 19  1  0
 16 17  1  0
 17 18  1  0
 19 18  2  0
 20 22  1  0
 21 20  2  0
M  END
$$$$
