ASH.pdb
     RDKit          3D

 22 22  0  0  1  0  0  0  0  0999 V2000
   17.9854  -14.6185  -17.5534 C   0  0  0  0  0  0  0  0  0  0  0  0
   18.4135  -13.7965  -16.3452 C   0  0  2  0  0  0  0  0  0  0  0  0
   17.9069  -14.3727  -15.1386 N   0  0  0  0  0  0  0  0  0  0  0  0
   18.0471  -12.3699  -16.5071 C   0  0  0  0  0  0  0  0  0  0  0  0
   18.8194  -11.6264  -17.1631 O   0  0  0  0  0  0  0  0  0  0  0  0
   15.2034  -10.6181  -14.2431 O   0  0  0  0  0  0  0  0  0  0  0  0
   15.1858  -10.1286  -15.5455 C   0  0  0  0  0  0  0  0  0  0  0  0
   16.5649  -10.3564  -16.1790 C   0  0  2  0  0  0  0  0  0  0  0  0
   16.8730  -11.7790  -15.9678 N   0  0  0  0  0  0  0  0  0  0  0  0
   17.5184   -9.5002  -15.4421 C   0  0  0  0  0  0  0  0  0  0  0  0
   18.3718  -10.0698  -14.7036 O   0  0  0  0  0  0  0  0  0  0  0  0
   17.5485   -8.1055  -15.5000 N   0  0  0  0  0  0  0  0  0  0  0  0
   18.6145   -7.2786  -14.8717 C   0  0  1  0  0  0  0  0  0  0  0  0
   19.8371   -7.3043  -15.7247 C   0  0  0  0  0  0  0  0  0  0  0  0
   20.8566   -6.3436  -15.2426 C   0  0  0  0  0  0  0  0  0  0  0  0
   21.2224   -6.0053  -13.9641 C   0  0  0  0  0  0  0  0  0  0  0  0
   22.2506   -5.1356  -14.0406 N   0  0  0  0  0  0  0  0  0  0  0  0
   22.5299   -4.9295  -15.3284 C   0  0  0  0  0  0  0  0  0  0  0  0
   21.6981   -5.6518  -16.0859 N   0  0  0  0  0  0  0  0  0  0  0  0
   18.0149   -5.9042  -14.9536 C   0  0  0  0  0  0  0  0  0  0  0  0
   18.0564   -5.1523  -13.9652 O   0  0  0  0  0  0  0  0  0  0  0  0
   17.4215   -5.4633  -16.0918 O   0  0  0  0  0  0  0  0  0  0  0  0
  2  1  1  6
  2  4  1  0
  2  3  1  0
  4  9  1  0
  5  4  2  0
  7  6  1  0
  8  7  1  1
  8 10  1  0
  9  8  1  0
 10 12  1  0
 10 11  2  0
 12 13  1  0
 13 20  1  0
 13 14  1  6
 14 15  1  0
 15 16  2  0
 15 19  1  0
 16 17  1  0
 17 18  1  0
 19 18  2  0
 20 22  1  0
 21 20  2  0
M  END
$$$$
