ASH.pdb
     RDKit          3D

 22 22  0  0  1  0  0  0  0  0999 V2000
   33.0236  -27.0090  -17.5589 C   0  0  0  0  0  0  0  0  0  0  0  0
   32.1139  -26.1801  -18.4557 C   0  0  2  0  0  0  0  0  0  0  0  0
   32.8540  -25.1411  -19.1017 N   0  0  0  0  0  0  0  0  0  0  0  0
   30.9355  -25.6780  -17.7106 C   0  0  0  0  0  0  0  0  0  0  0  0
   30.3932  -26.4384  -16.8695 O   0  0  0  0  0  0  0  0  0  0  0  0
   29.9710  -21.8818  -18.0106 O   0  0  0  0  0  0  0  0  0  0  0  0
   29.4133  -22.4380  -16.8636 C   0  0  0  0  0  0  0  0  0  0  0  0
   29.2145  -23.9430  -17.0890 C   0  0  2  0  0  0  0  0  0  0  0  0
   30.3711  -24.3856  -17.8826 N   0  0  0  0  0  0  0  0  0  0  0  0
   27.9625  -24.0961  -17.8598 C   0  0  0  0  0  0  0  0  0  0  0  0
   28.0487  -24.1383  -19.1204 O   0  0  0  0  0  0  0  0  0  0  0  0
   26.6876  -24.1982  -17.2998 N   0  0  0  0  0  0  0  0  0  0  0  0
   25.4461  -24.3612  -18.1042 C   0  0  1  0  0  0  0  0  0  0  0  0
   24.3685  -24.9397  -17.2514 C   0  0  0  0  0  0  0  0  0  0  0  0
   23.0852  -25.0328  -17.9857 C   0  0  0  0  0  0  0  0  0  0  0  0
   22.8337  -25.0437  -19.3346 C   0  0  0  0  0  0  0  0  0  0  0  0
   21.5077  -25.2182  -19.5103 N   0  0  0  0  0  0  0  0  0  0  0  0
   20.9354  -25.3166  -18.3097 C   0  0  0  0  0  0  0  0  0  0  0  0
   21.8703  -25.2080  -17.3601 N   0  0  0  0  0  0  0  0  0  0  0  0
   25.0920  -22.9323  -18.4013 C   0  0  0  0  0  0  0  0  0  0  0  0
   25.5602  -22.0209  -17.6984 O   0  0  0  0  0  0  0  0  0  0  0  0
   24.2629  -22.6127  -19.4272 O   0  0  0  0  0  0  0  0  0  0  0  0
  2  1  1  1
  2  4  1  0
  2  3  1  0
  4  9  1  0
  5  4  2  0
  7  6  1  0
  8  7  1  6
  8 10  1  0
  9  8  1  0
 10 12  1  0
 10 11  2  0
 12 13  1  0
 13 20  1  0
 13 14  1  1
 14 15  1  0
 15 16  2  0
 15 19  1  0
 16 17  1  0
 17 18  1  0
 19 18  2  0
 20 22  1  0
 21 20  2  0
M  END
$$$$
