ASH.pdb
     RDKit          3D

 22 22  0  0  1  0  0  0  0  0999 V2000
   17.3904  -13.4754  -16.8927 C   0  0  0  0  0  0  0  0  0  0  0  0
   18.8048  -13.6173  -17.4386 C   0  0  2  0  0  0  0  0  0  0  0  0
   19.2600  -14.9670  -17.3138 N   0  0  0  0  0  0  0  0  0  0  0  0
   19.7230  -12.6340  -16.8174 C   0  0  0  0  0  0  0  0  0  0  0  0
   19.9782  -12.7475  -15.5919 O   0  0  0  0  0  0  0  0  0  0  0  0
   22.9775   -9.0793  -17.3544 O   0  0  0  0  0  0  0  0  0  0  0  0
   22.0677   -9.9544  -17.9397 C   0  0  0  0  0  0  0  0  0  0  0  0
   21.2348  -10.6159  -16.8334 C   0  0  2  0  0  0  0  0  0  0  0  0
   20.3403  -11.5624  -17.5169 N   0  0  0  0  0  0  0  0  0  0  0  0
   20.4580   -9.5388  -16.1839 C   0  0  0  0  0  0  0  0  0  0  0  0
   19.3839   -9.1704  -16.7397 O   0  0  0  0  0  0  0  0  0  0  0  0
   20.8213   -8.8954  -14.9993 N   0  0  0  0  0  0  0  0  0  0  0  0
   20.0264   -7.8000  -14.3806 C   0  0  1  0  0  0  0  0  0  0  0  0
   20.0462   -7.9427  -12.8965 C   0  0  0  0  0  0  0  0  0  0  0  0
   18.8887   -8.7293  -12.4105 C   0  0  0  0  0  0  0  0  0  0  0  0
   17.8962   -9.3705  -13.1080 C   0  0  0  0  0  0  0  0  0  0  0  0
   17.1092  -10.0115  -12.2195 N   0  0  0  0  0  0  0  0  0  0  0  0
   17.5886   -9.7853  -10.9957 C   0  0  0  0  0  0  0  0  0  0  0  0
   18.6729   -9.0076  -11.0786 N   0  0  0  0  0  0  0  0  0  0  0  0
   20.8430   -6.5938  -14.7462 C   0  0  0  0  0  0  0  0  0  0  0  0
   21.9416   -6.7391  -15.3083 O   0  0  0  0  0  0  0  0  0  0  0  0
   20.4049   -5.3391  -14.4711 O   0  0  0  0  0  0  0  0  0  0  0  0
  2  1  1  1
  2  4  1  0
  2  3  1  0
  4  9  1  0
  5  4  2  0
  7  6  1  0
  8  7  1  6
  8 10  1  0
  9  8  1  0
 10 12  1  0
 10 11  2  0
 12 13  1  0
 13 20  1  0
 13 14  1  1
 14 15  1  0
 15 16  2  0
 15 19  1  0
 16 17  1  0
 17 18  1  0
 19 18  2  0
 20 22  1  0
 21 20  2  0
M  END
$$$$
