ASH.pdb
     RDKit          3D

 22 22  0  0  1  0  0  0  0  0999 V2000
   20.3347  -14.7365  -15.0368 C   0  0  0  0  0  0  0  0  0  0  0  0
   19.1060  -14.6278  -15.9298 C   0  0  2  0  0  0  0  0  0  0  0  0
   19.0919  -15.6803  -16.8976 N   0  0  0  0  0  0  0  0  0  0  0  0
   18.9977  -13.2796  -16.5350 C   0  0  0  0  0  0  0  0  0  0  0  0
   19.6990  -13.0212  -17.5455 O   0  0  0  0  0  0  0  0  0  0  0  0
   16.7769  -10.4030  -14.7804 O   0  0  0  0  0  0  0  0  0  0  0  0
   16.8385  -10.2449  -16.1615 C   0  0  0  0  0  0  0  0  0  0  0  0
   18.1135  -10.9226  -16.6813 C   0  0  2  0  0  0  0  0  0  0  0  0
   18.1486  -12.2497  -16.0482 N   0  0  0  0  0  0  0  0  0  0  0  0
   19.2510  -10.0959  -16.2255 C   0  0  0  0  0  0  0  0  0  0  0  0
   19.7743  -10.3784  -15.1099 O   0  0  0  0  0  0  0  0  0  0  0  0
   19.7935   -9.0232  -16.9358 N   0  0  0  0  0  0  0  0  0  0  0  0
   20.9461   -8.2152  -16.4527 C   0  0  1  0  0  0  0  0  0  0  0  0
   21.4182   -7.3137  -17.5424 C   0  0  0  0  0  0  0  0  0  0  0  0
   22.5339   -6.4508  -17.0891 C   0  0  0  0  0  0  0  0  0  0  0  0
   23.3503   -6.5598  -15.9916 C   0  0  0  0  0  0  0  0  0  0  0  0
   24.2648   -5.5701  -16.0520 N   0  0  0  0  0  0  0  0  0  0  0  0
   24.0368   -4.8558  -17.1550 C   0  0  0  0  0  0  0  0  0  0  0  0
   22.9888   -5.3676  -17.8086 N   0  0  0  0  0  0  0  0  0  0  0  0
   20.2970   -7.3704  -15.3941 C   0  0  0  0  0  0  0  0  0  0  0  0
   19.1837   -6.8614  -15.6068 O   0  0  0  0  0  0  0  0  0  0  0  0
   20.9064   -7.1470  -14.2021 O   0  0  0  0  0  0  0  0  0  0  0  0
  2  1  1  6
  2  4  1  0
  2  3  1  0
  4  9  1  0
  5  4  2  0
  7  6  1  0
  8  7  1  1
  8 10  1  0
  9  8  1  0
 10 12  1  0
 10 11  2  0
 12 13  1  0
 13 20  1  0
 13 14  1  6
 14 15  1  0
 15 16  2  0
 15 19  1  0
 16 17  1  0
 17 18  1  0
 19 18  2  0
 20 22  1  0
 21 20  2  0
M  END
$$$$
