ASH.pdb
     RDKit          3D

 22 22  0  0  1  0  0  0  0  0999 V2000
   19.1953  -11.5368  -18.4792 C   0  0  0  0  0  0  0  0  0  0  0  0
   20.2640  -12.1793  -17.6051 C   0  0  2  0  0  0  0  0  0  0  0  0
   19.8639  -13.4916  -17.2026 N   0  0  0  0  0  0  0  0  0  0  0  0
   20.6235  -11.3051  -16.4639 C   0  0  0  0  0  0  0  0  0  0  0  0
   19.7548  -11.0880  -15.5819 O   0  0  0  0  0  0  0  0  0  0  0  0
   24.3996  -10.2074  -15.9369 O   0  0  0  0  0  0  0  0  0  0  0  0
   23.6541  -10.1417  -14.7639 C   0  0  0  0  0  0  0  0  0  0  0  0
   22.1900   -9.8538  -15.1229 C   0  0  2  0  0  0  0  0  0  0  0  0
   21.8931  -10.6899  -16.2959 N   0  0  0  0  0  0  0  0  0  0  0  0
   22.1113   -8.4192  -15.4703 C   0  0  0  0  0  0  0  0  0  0  0  0
   22.4763   -8.0734  -16.6302 O   0  0  0  0  0  0  0  0  0  0  0  0
   21.6627   -7.4133  -14.6120 N   0  0  0  0  0  0  0  0  0  0  0  0
   21.6287   -5.9718  -14.9805 C   0  0  1  0  0  0  0  0  0  0  0  0
   20.2342   -5.4572  -14.8636 C   0  0  0  0  0  0  0  0  0  0  0  0
   19.4170   -5.8292  -16.0420 C   0  0  0  0  0  0  0  0  0  0  0  0
   19.8004   -6.2512  -17.2901 C   0  0  0  0  0  0  0  0  0  0  0  0
   18.6861   -6.5379  -17.9942 N   0  0  0  0  0  0  0  0  0  0  0  0
   17.6279   -6.3066  -17.2161 C   0  0  0  0  0  0  0  0  0  0  0  0
   18.0401   -5.8741  -16.0201 N   0  0  0  0  0  0  0  0  0  0  0  0
   22.4470   -5.3617  -13.8789 C   0  0  0  0  0  0  0  0  0  0  0  0
   22.8460   -6.0714  -12.9402 O   0  0  0  0  0  0  0  0  0  0  0  0
   22.7602   -4.0411  -13.8851 O   0  0  0  0  0  0  0  0  0  0  0  0
  2  1  1  1
  2  4  1  0
  2  3  1  0
  4  9  1  0
  5  4  2  0
  7  6  1  0
  8  7  1  6
  8 10  1  0
  9  8  1  0
 10 12  1  0
 10 11  2  0
 12 13  1  0
 13 20  1  0
 13 14  1  1
 14 15  1  0
 15 16  2  0
 15 19  1  0
 16 17  1  0
 17 18  1  0
 19 18  2  0
 20 22  1  0
 21 20  2  0
M  END
$$$$
