ASH.pdb
     RDKit          3D

 22 22  0  0  1  0  0  0  0  0999 V2000
   20.8028  -12.2458  -17.9963 C   0  0  0  0  0  0  0  0  0  0  0  0
   19.9787  -11.1270  -17.3735 C   0  0  2  0  0  0  0  0  0  0  0  0
   18.6938  -11.0417  -17.9949 N   0  0  0  0  0  0  0  0  0  0  0  0
   20.7176   -9.8426  -17.3864 C   0  0  0  0  0  0  0  0  0  0  0  0
   21.7262   -9.7271  -16.6455 O   0  0  0  0  0  0  0  0  0  0  0  0
   21.5304   -7.3066  -20.5251 O   0  0  0  0  0  0  0  0  0  0  0  0
   20.8067   -6.7509  -19.4746 C   0  0  0  0  0  0  0  0  0  0  0  0
   21.1660   -7.4912  -18.1793 C   0  0  2  0  0  0  0  0  0  0  0  0
   20.3619   -8.7227  -18.1852 N   0  0  0  0  0  0  0  0  0  0  0  0
   20.7657   -6.6111  -17.0611 C   0  0  0  0  0  0  0  0  0  0  0  0
   19.5298   -6.4750  -16.8324 O   0  0  0  0  0  0  0  0  0  0  0  0
   21.6516   -5.9165  -16.2351 N   0  0  0  0  0  0  0  0  0  0  0  0
   21.2163   -5.0445  -15.1105 C   0  0  1  0  0  0  0  0  0  0  0  0
   21.7511   -5.5792  -13.8255 C   0  0  0  0  0  0  0  0  0  0  0  0
   20.9090   -6.6801  -13.3023 C   0  0  0  0  0  0  0  0  0  0  0  0
   19.7905   -7.2711  -13.8340 C   0  0  0  0  0  0  0  0  0  0  0  0
   19.4239   -8.2804  -13.0176 N   0  0  0  0  0  0  0  0  0  0  0  0
   20.2844   -8.3295  -11.9998 C   0  0  0  0  0  0  0  0  0  0  0  0
   21.2014   -7.3674  -12.1447 N   0  0  0  0  0  0  0  0  0  0  0  0
   21.9409   -3.7670  -15.4241 C   0  0  0  0  0  0  0  0  0  0  0  0
   22.6973   -3.7117  -16.4083 O   0  0  0  0  0  0  0  0  0  0  0  0
   21.7885   -2.6641  -14.6479 O   0  0  0  0  0  0  0  0  0  0  0  0
  2  1  1  6
  2  4  1  0
  2  3  1  0
  4  9  1  0
  5  4  2  0
  7  6  1  0
  8  7  1  6
  8 10  1  0
  9  8  1  0
 10 12  1  0
 10 11  2  0
 12 13  1  0
 13 20  1  0
 13 14  1  1
 14 15  1  0
 15 16  2  0
 15 19  1  0
 16 17  1  0
 17 18  1  0
 19 18  2  0
 20 22  1  0
 21 20  2  0
M  END
$$$$
