ASH.pdb
     RDKit          3D

 22 22  0  0  1  0  0  0  0  0999 V2000
   18.9411  -14.6312  -14.7326 C   0  0  0  0  0  0  0  0  0  0  0  0
   18.2182  -14.0775  -15.9531 C   0  0  2  0  0  0  0  0  0  0  0  0
   18.2257  -15.0308  -17.0188 N   0  0  0  0  0  0  0  0  0  0  0  0
   18.7634  -12.7578  -16.3493 C   0  0  0  0  0  0  0  0  0  0  0  0
   20.0059  -12.6476  -16.5036 O   0  0  0  0  0  0  0  0  0  0  0  0
   17.8731   -8.3512  -18.1792 O   0  0  0  0  0  0  0  0  0  0  0  0
   17.3801   -9.5193  -17.6060 C   0  0  0  0  0  0  0  0  0  0  0  0
   18.5604  -10.3587  -17.0988 C   0  0  2  0  0  0  0  0  0  0  0  0
   17.9724  -11.5982  -16.5686 N   0  0  0  0  0  0  0  0  0  0  0  0
   19.2025   -9.5809  -16.0181 C   0  0  0  0  0  0  0  0  0  0  0  0
   18.7244   -9.6869  -14.8526 O   0  0  0  0  0  0  0  0  0  0  0  0
   20.3007   -8.7353  -16.1870 N   0  0  0  0  0  0  0  0  0  0  0  0
   20.9435   -7.9886  -15.0716 C   0  0  1  0  0  0  0  0  0  0  0  0
   22.4249   -8.0168  -15.2377 C   0  0  0  0  0  0  0  0  0  0  0  0
   22.9780   -9.3620  -14.9565 C   0  0  0  0  0  0  0  0  0  0  0  0
   22.7962  -10.1880  -13.8760 C   0  0  0  0  0  0  0  0  0  0  0  0
   23.4528  -11.3413  -14.1172 N   0  0  0  0  0  0  0  0  0  0  0  0
   24.0323  -11.2508  -15.3150 C   0  0  0  0  0  0  0  0  0  0  0  0
   23.7613  -10.0567  -15.8521 N   0  0  0  0  0  0  0  0  0  0  0  0
   20.4689   -6.5885  -15.3358 C   0  0  0  0  0  0  0  0  0  0  0  0
   20.8395   -5.6610  -14.5967 O   0  0  0  0  0  0  0  0  0  0  0  0
   19.6353   -6.3128  -16.3707 O   0  0  0  0  0  0  0  0  0  0  0  0
  2  1  1  1
  2  4  1  0
  2  3  1  0
  4  9  1  0
  5  4  2  0
  7  6  1  0
  8  7  1  1
  8 10  1  0
  9  8  1  0
 10 12  1  0
 10 11  2  0
 12 13  1  0
 13 20  1  0
 13 14  1  6
 14 15  1  0
 15 16  2  0
 15 19  1  0
 16 17  1  0
 17 18  1  0
 19 18  2  0
 20 22  1  0
 21 20  2  0
M  END
$$$$
