ASH.pdb
     RDKit          3D

 22 22  0  0  1  0  0  0  0  0999 V2000
   21.1603  -14.0579  -15.7514 C   0  0  0  0  0  0  0  0  0  0  0  0
   19.7717  -13.9100  -16.3588 C   0  0  2  0  0  0  0  0  0  0  0  0
   19.5935  -14.8303  -17.4386 N   0  0  0  0  0  0  0  0  0  0  0  0
   19.4979  -12.5047  -16.7410 C   0  0  0  0  0  0  0  0  0  0  0  0
   19.9966  -12.0690  -17.8092 O   0  0  0  0  0  0  0  0  0  0  0  0
   17.6105  -10.0119  -14.1875 O   0  0  0  0  0  0  0  0  0  0  0  0
   17.3968   -9.6517  -15.5144 C   0  0  0  0  0  0  0  0  0  0  0  0
   18.5493  -10.1984  -16.3678 C   0  0  2  0  0  0  0  0  0  0  0  0
   18.7037  -11.6079  -15.9771 N   0  0  0  0  0  0  0  0  0  0  0  0
   19.7531   -9.4207  -16.0055 C   0  0  0  0  0  0  0  0  0  0  0  0
   20.5150   -9.8958  -15.1155 O   0  0  0  0  0  0  0  0  0  0  0  0
   20.1142   -8.1974  -16.5734 N   0  0  0  0  0  0  0  0  0  0  0  0
   21.3540   -7.4570  -16.2135 C   0  0  1  0  0  0  0  0  0  0  0  0
   21.9108   -6.7921  -17.4264 C   0  0  0  0  0  0  0  0  0  0  0  0
   23.1090   -5.9837  -17.1014 C   0  0  0  0  0  0  0  0  0  0  0  0
   24.0759   -6.1748  -16.1468 C   0  0  0  0  0  0  0  0  0  0  0  0
   25.0028   -5.2056  -16.2919 N   0  0  0  0  0  0  0  0  0  0  0  0
   24.6361   -4.4242  -17.3086 C   0  0  0  0  0  0  0  0  0  0  0  0
   23.4863   -4.8724  -17.8230 N   0  0  0  0  0  0  0  0  0  0  0  0
   20.8134   -6.3927  -15.3022 C   0  0  0  0  0  0  0  0  0  0  0  0
   21.5916   -5.5888  -14.7617 O   0  0  0  0  0  0  0  0  0  0  0  0
   19.4833   -6.2911  -15.0522 O   0  0  0  0  0  0  0  0  0  0  0  0
  2  1  1  6
  2  4  1  0
  2  3  1  0
  4  9  1  0
  5  4  2  0
  7  6  1  0
  8  7  1  1
  8 10  1  0
  9  8  1  0
 10 12  1  0
 10 11  2  0
 12 13  1  0
 13 20  1  0
 13 14  1  6
 14 15  1  0
 15 16  2  0
 15 19  1  0
 16 17  1  0
 17 18  1  0
 19 18  2  0
 20 22  1  0
 21 20  2  0
M  END
$$$$
