ASH.pdb
     RDKit          3D

 22 22  0  0  1  0  0  0  0  0999 V2000
   18.4057  -10.3599  -18.8747 C   0  0  0  0  0  0  0  0  0  0  0  0
   19.5685  -11.2460  -18.4486 C   0  0  2  0  0  0  0  0  0  0  0  0
   19.0964  -12.5264  -18.0219 N   0  0  0  0  0  0  0  0  0  0  0  0
   20.4167  -10.5722  -17.4374 C   0  0  0  0  0  0  0  0  0  0  0  0
   19.8606  -10.0875  -16.4198 O   0  0  0  0  0  0  0  0  0  0  0  0
   24.3303  -11.3378  -16.2563 O   0  0  0  0  0  0  0  0  0  0  0  0
   24.0724  -10.0744  -16.7793 C   0  0  0  0  0  0  0  0  0  0  0  0
   22.6030   -9.7193  -16.5148 C   0  0  2  0  0  0  0  0  0  0  0  0
   21.8271  -10.4347  -17.5393 N   0  0  0  0  0  0  0  0  0  0  0  0
   22.4800   -8.2570  -16.6925 C   0  0  0  0  0  0  0  0  0  0  0  0
   22.2823   -7.8207  -17.8625 O   0  0  0  0  0  0  0  0  0  0  0  0
   22.5655   -7.3176  -15.6631 N   0  0  0  0  0  0  0  0  0  0  0  0
   22.2589   -5.8722  -15.8405 C   0  0  1  0  0  0  0  0  0  0  0  0
   20.8222   -5.7052  -16.2027 C   0  0  0  0  0  0  0  0  0  0  0  0
   20.4439   -4.2750  -16.2809 C   0  0  0  0  0  0  0  0  0  0  0  0
   21.1075   -3.2110  -16.8379 C   0  0  0  0  0  0  0  0  0  0  0  0
   20.3215   -2.1211  -16.7202 N   0  0  0  0  0  0  0  0  0  0  0  0
   19.1928   -2.4827  -16.1085 C   0  0  0  0  0  0  0  0  0  0  0  0
   19.2367   -3.7892  -15.8283 N   0  0  0  0  0  0  0  0  0  0  0  0
   22.4539   -5.3511  -14.4455 C   0  0  0  0  0  0  0  0  0  0  0  0
   22.6395   -6.1468  -13.5094 O   0  0  0  0  0  0  0  0  0  0  0  0
   22.4286   -4.0198  -14.1829 O   0  0  0  0  0  0  0  0  0  0  0  0
  2  1  1  1
  2  4  1  0
  2  3  1  0
  4  9  1  0
  5  4  2  0
  7  6  1  0
  8  7  1  6
  8 10  1  0
  9  8  1  0
 10 12  1  0
 10 11  2  0
 12 13  1  0
 13 20  1  0
 13 14  1  1
 14 15  1  0
 15 16  2  0
 15 19  1  0
 16 17  1  0
 17 18  1  0
 19 18  2  0
 20 22  1  0
 21 20  2  0
M  END
$$$$
