ASH.pdb
     RDKit          3D

 22 22  0  0  1  0  0  0  0  0999 V2000
   19.4026  -11.5659  -19.2931 C   0  0  0  0  0  0  0  0  0  0  0  0
   20.3237  -12.2525  -18.2937 C   0  0  2  0  0  0  0  0  0  0  0  0
   19.8489  -13.5668  -17.9912 N   0  0  0  0  0  0  0  0  0  0  0  0
   20.5287  -11.4162  -17.0877 C   0  0  0  0  0  0  0  0  0  0  0  0
   19.5507  -11.2235  -16.3221 O   0  0  0  0  0  0  0  0  0  0  0  0
   24.1730   -9.8212  -16.1993 O   0  0  0  0  0  0  0  0  0  0  0  0
   23.3770  -10.1221  -15.0984 C   0  0  0  0  0  0  0  0  0  0  0  0
   21.9023  -10.0103  -15.5080 C   0  0  2  0  0  0  0  0  0  0  0  0
   21.7648  -10.8118  -16.7335 N   0  0  0  0  0  0  0  0  0  0  0  0
   21.6452   -8.5815  -15.7865 C   0  0  0  0  0  0  0  0  0  0  0  0
   21.8848   -8.1566  -16.9529 O   0  0  0  0  0  0  0  0  0  0  0  0
   21.1559   -7.6622  -14.8564 N   0  0  0  0  0  0  0  0  0  0  0  0
   20.9000   -6.2303  -15.1710 C   0  0  1  0  0  0  0  0  0  0  0  0
   19.5390   -5.8483  -14.6967 C   0  0  0  0  0  0  0  0  0  0  0  0
   19.2863   -4.4000  -14.8793 C   0  0  0  0  0  0  0  0  0  0  0  0
   19.9090   -3.4863  -15.6918 C   0  0  0  0  0  0  0  0  0  0  0  0
   19.2710   -2.3054  -15.5574 N   0  0  0  0  0  0  0  0  0  0  0  0
   18.2729   -2.4652  -14.6874 C   0  0  0  0  0  0  0  0  0  0  0  0
   18.2556   -3.7307  -14.2565 N   0  0  0  0  0  0  0  0  0  0  0  0
   21.9104   -5.5460  -14.2956 C   0  0  0  0  0  0  0  0  0  0  0  0
   22.2346   -6.0574  -13.2106 O   0  0  0  0  0  0  0  0  0  0  0  0
   22.4791   -4.3706  -14.6656 O   0  0  0  0  0  0  0  0  0  0  0  0
  2  1  1  6
  2  4  1  0
  2  3  1  0
  4  9  1  0
  5  4  2  0
  7  6  1  0
  8  7  1  6
  8 10  1  0
  9  8  1  0
 10 12  1  0
 10 11  2  0
 12 13  1  0
 13 20  1  0
 13 14  1  1
 14 15  1  0
 15 16  2  0
 15 19  1  0
 16 17  1  0
 17 18  1  0
 19 18  2  0
 20 22  1  0
 21 20  2  0
M  END
$$$$
