ASH.pdb
     RDKit          3D

 22 22  0  0  1  0  0  0  0  0999 V2000
   27.5236  -19.0072  -15.4121 C   0  0  0  0  0  0  0  0  0  0  0  0
   27.7831  -20.4107  -14.8816 C   0  0  2  0  0  0  0  0  0  0  0  0
   28.2951  -21.2539  -15.9166 N   0  0  0  0  0  0  0  0  0  0  0  0
   26.5798  -20.9674  -14.2198 C   0  0  0  0  0  0  0  0  0  0  0  0
   25.7403  -21.5806  -14.9262 O   0  0  0  0  0  0  0  0  0  0  0  0
   25.7487  -20.0524  -10.4279 O   0  0  0  0  0  0  0  0  0  0  0  0
   25.2868  -21.3335  -10.7135 C   0  0  0  0  0  0  0  0  0  0  0  0
   25.1117  -21.4698  -12.2321 C   0  0  2  0  0  0  0  0  0  0  0  0
   26.3066  -20.8551  -12.8300 N   0  0  0  0  0  0  0  0  0  0  0  0
   23.8970  -20.7076  -12.5905 C   0  0  0  0  0  0  0  0  0  0  0  0
   23.9956  -19.4503  -12.6791 O   0  0  0  0  0  0  0  0  0  0  0  0
   22.6446  -21.2723  -12.8398 N   0  0  0  0  0  0  0  0  0  0  0  0
   21.4487  -20.4800  -13.2359 C   0  0  1  0  0  0  0  0  0  0  0  0
   21.1113  -20.7601  -14.6610 C   0  0  0  0  0  0  0  0  0  0  0  0
   21.9837  -19.9996  -15.5858 C   0  0  0  0  0  0  0  0  0  0  0  0
   22.6767  -18.8312  -15.3924 C   0  0  0  0  0  0  0  0  0  0  0  0
   23.3868  -18.5772  -16.5109 N   0  0  0  0  0  0  0  0  0  0  0  0
   23.1527  -19.5554  -17.3867 C   0  0  0  0  0  0  0  0  0  0  0  0
   22.3020  -20.4378  -16.8526 N   0  0  0  0  0  0  0  0  0  0  0  0
   20.3836  -21.0934  -12.3730 C   0  0  0  0  0  0  0  0  0  0  0  0
   19.4441  -20.3931  -11.9600 O   0  0  0  0  0  0  0  0  0  0  0  0
   20.4272  -22.4057  -12.0295 O   0  0  0  0  0  0  0  0  0  0  0  0
  2  1  1  6
  2  4  1  0
  2  3  1  0
  4  9  1  0
  5  4  2  0
  7  6  1  0
  8  7  1  1
  8 10  1  0
  9  8  1  0
 10 12  1  0
 10 11  2  0
 12 13  1  0
 13 20  1  0
 13 14  1  6
 14 15  1  0
 15 16  2  0
 15 19  1  0
 16 17  1  0
 17 18  1  0
 19 18  2  0
 20 22  1  0
 21 20  2  0
M  END
$$$$
