WVD.pdb
     RDKit          3D

 30 31  0  0  1  0  0  0  0  0999 V2000
    6.0134  -17.2767   23.8674 N   0  0  0  0  0  0  0  0  0  0  0  0
    6.6110  -16.1405   23.1840 C   0  0  1  0  0  0  0  0  0  0  0  0
    7.7610  -15.6271   24.0244 C   0  0  0  0  0  0  0  0  0  0  0  0
    7.3136  -15.1055   25.3252 C   0  0  0  0  0  0  0  0  0  0  0  0
    6.9041  -15.8288   26.4302 C   0  0  0  0  0  0  0  0  0  0  0  0
    6.5658  -15.0046   27.4360 N   0  0  0  0  0  0  0  0  0  0  0  0
    6.7591  -13.7561   26.9742 C   0  0  0  0  0  0  0  0  0  0  0  0
    6.5453  -12.5568   27.6587 C   0  0  0  0  0  0  0  0  0  0  0  0
    6.8084  -11.3610   27.0015 C   0  0  0  0  0  0  0  0  0  0  0  0
    7.2697  -11.3696   25.7026 C   0  0  0  0  0  0  0  0  0  0  0  0
    7.4678  -12.5713   25.0620 C   0  0  0  0  0  0  0  0  0  0  0  0
    7.2221  -13.7889   25.6691 C   0  0  0  0  0  0  0  0  0  0  0  0
    7.0698  -16.5312   21.8240 C   0  0  0  0  0  0  0  0  0  0  0  0
    6.3147  -17.0265   20.9519 O   0  0  0  0  0  0  0  0  0  0  0  0
    9.2558  -13.0344   20.2407 C   0  0  0  0  0  0  0  0  0  0  0  0
    8.3528  -14.0609   20.8556 C   0  0  1  0  0  0  0  0  0  0  0  0
    6.8991  -13.7789   20.7329 C   0  0  0  0  0  0  0  0  0  0  0  0
    8.7815  -15.4305   20.3699 C   0  0  2  0  0  0  0  0  0  0  0  0
    8.4323  -16.3406   21.4745 N   0  0  0  0  0  0  0  0  0  0  0  0
   10.2230  -15.5438   20.1196 C   0  0  0  0  0  0  0  0  0  0  0  0
   10.8130  -14.8291   19.2364 O   0  0  0  0  0  0  0  0  0  0  0  0
   11.0769  -16.4373   20.8194 N   0  0  0  0  0  0  0  0  0  0  0  0
   12.3642  -16.0033   21.3894 C   0  0  1  0  0  0  0  0  0  0  0  0
   12.6540  -14.6326   20.8807 C   0  0  0  0  0  0  0  0  0  0  0  0
   13.8935  -14.4886   20.1147 C   0  0  0  0  0  0  0  0  0  0  0  0
   14.9587  -14.9592   20.5908 O   0  0  0  0  0  0  0  0  0  0  0  0
   12.2860  -16.0740   22.8671 C   0  0  0  0  0  0  0  0  0  0  0  0
   13.3349  -16.2231   23.5294 O   0  0  0  0  0  0  0  0  0  0  0  0
   13.9631  -13.8582   18.8843 O   0  0  0  0  0  0  0  0  0  0  0  0
   11.0678  -15.9754   23.5003 O   0  0  0  0  0  0  0  0  0  0  0  0
  2  1  1  1
  2  3  1  0
  2 13  1  0
  3  4  1  0
  4  5  2  0
  4 12  1  0
  5  6  1  0
  6  7  1  0
  7  8  2  0
  8  9  1  0
 10  9  2  0
 11 10  1  0
 12 11  2  0
 12  7  1  0
 13 14  2  0
 16 15  1  6
 16 17  1  0
 18 16  1  0
 19 13  1  0
 18 19  1  1
 20 22  1  0
 20 18  1  0
 21 20  2  0
 23 22  1  0
 23 27  1  0
 23 24  1  1
 25 26  2  0
 25 24  1  0
 27 30  1  0
 28 27  2  0
 29 25  1  0
M  END
$$$$
