WVD.pdb
     RDKit          3D

 30 31  0  0  1  0  0  0  0  0999 V2000
    6.0732  -17.2253   25.0399 N   0  0  0  0  0  0  0  0  0  0  0  0
    6.9245  -16.1278   24.6088 C   0  0  1  0  0  0  0  0  0  0  0  0
    8.2033  -16.1675   25.4183 C   0  0  0  0  0  0  0  0  0  0  0  0
    8.2385  -15.1284   26.4592 C   0  0  0  0  0  0  0  0  0  0  0  0
    8.7885  -15.2181   27.7246 C   0  0  0  0  0  0  0  0  0  0  0  0
    8.6258  -14.0644   28.3937 N   0  0  0  0  0  0  0  0  0  0  0  0
    7.9726  -13.2384   27.5568 C   0  0  0  0  0  0  0  0  0  0  0  0
    7.5774  -11.9209   27.8033 C   0  0  0  0  0  0  0  0  0  0  0  0
    6.9090  -11.2293   26.8004 C   0  0  0  0  0  0  0  0  0  0  0  0
    6.6466  -11.8396   25.5925 C   0  0  0  0  0  0  0  0  0  0  0  0
    7.0519  -13.1386   25.3877 C   0  0  0  0  0  0  0  0  0  0  0  0
    7.7199  -13.8716   26.3510 C   0  0  0  0  0  0  0  0  0  0  0  0
    7.2058  -16.2264   23.1514 C   0  0  0  0  0  0  0  0  0  0  0  0
    7.0717  -17.2838   22.4881 O   0  0  0  0  0  0  0  0  0  0  0  0
    8.4744  -13.7015   19.1318 C   0  0  0  0  0  0  0  0  0  0  0  0
    7.8710  -13.7584   20.5029 C   0  0  1  0  0  0  0  0  0  0  0  0
    6.5094  -13.1749   20.6191 C   0  0  0  0  0  0  0  0  0  0  0  0
    8.0076  -15.1724   21.0295 C   0  0  2  0  0  0  0  0  0  0  0  0
    7.6507  -15.0720   22.4554 N   0  0  0  0  0  0  0  0  0  0  0  0
    9.3699  -15.7093   20.9338 C   0  0  0  0  0  0  0  0  0  0  0  0
   10.3878  -15.0423   21.3314 O   0  0  0  0  0  0  0  0  0  0  0  0
    9.6771  -16.9903   20.4029 N   0  0  0  0  0  0  0  0  0  0  0  0
   11.0652  -17.4435   20.2082 C   0  0  1  0  0  0  0  0  0  0  0  0
   11.8756  -16.2706   19.7732 C   0  0  0  0  0  0  0  0  0  0  0  0
   13.2874  -16.5421   19.4957 C   0  0  0  0  0  0  0  0  0  0  0  0
   13.7105  -17.7220   19.6028 O   0  0  0  0  0  0  0  0  0  0  0  0
   11.5533  -18.0573   21.4651 C   0  0  0  0  0  0  0  0  0  0  0  0
   12.6713  -18.6150   21.4805 O   0  0  0  0  0  0  0  0  0  0  0  0
   14.1938  -15.5662   19.1186 O   0  0  0  0  0  0  0  0  0  0  0  0
   10.7798  -18.0110   22.6028 O   0  0  0  0  0  0  0  0  0  0  0  0
  2  1  1  1
  2  3  1  0
  2 13  1  0
  3  4  1  0
  4  5  2  0
  4 12  1  0
  5  6  1  0
  6  7  1  0
  7  8  2  0
  8  9  1  0
 10  9  2  0
 11 10  1  0
 12 11  2  0
 12  7  1  0
 13 14  2  0
 16 15  1  6
 16 17  1  0
 18 16  1  0
 19 13  1  0
 18 19  1  1
 20 22  1  0
 20 18  1  0
 21 20  2  0
 23 22  1  0
 23 27  1  0
 23 24  1  1
 25 26  2  0
 25 24  1  0
 27 30  1  0
 28 27  2  0
 29 25  1  0
M  END
$$$$
