WVD.pdb
     RDKit          3D

 30 31  0  0  1  0  0  0  0  0999 V2000
    9.2814  -16.9153   23.0596 N   0  0  0  0  0  0  0  0  0  0  0  0
    8.7077  -15.6598   23.5175 C   0  0  1  0  0  0  0  0  0  0  0  0
    7.2436  -15.6340   23.1327 C   0  0  0  0  0  0  0  0  0  0  0  0
    7.0467  -15.3603   21.7007 C   0  0  0  0  0  0  0  0  0  0  0  0
    6.4505  -16.1776   20.7581 C   0  0  0  0  0  0  0  0  0  0  0  0
    6.4552  -15.5884   19.5506 N   0  0  0  0  0  0  0  0  0  0  0  0
    7.0537  -14.3959   19.7214 C   0  0  0  0  0  0  0  0  0  0  0  0
    7.2915  -13.4201   18.7499 C   0  0  0  0  0  0  0  0  0  0  0  0
    7.9275  -12.2447   19.1307 C   0  0  0  0  0  0  0  0  0  0  0  0
    8.3113  -12.0563   20.4412 C   0  0  0  0  0  0  0  0  0  0  0  0
    8.0596  -13.0408   21.3691 C   0  0  0  0  0  0  0  0  0  0  0  0
    7.4303  -14.2282   21.0438 C   0  0  0  0  0  0  0  0  0  0  0  0
    8.8813  -15.5115   24.9874 C   0  0  0  0  0  0  0  0  0  0  0  0
    8.2210  -16.1622   25.8339 O   0  0  0  0  0  0  0  0  0  0  0  0
    8.6700  -14.0724   28.9482 C   0  0  0  0  0  0  0  0  0  0  0  0
    8.6062  -14.2022   27.4561 C   0  0  1  0  0  0  0  0  0  0  0  0
    7.8340  -13.1396   26.7616 C   0  0  0  0  0  0  0  0  0  0  0  0
   10.0114  -14.4174   26.9322 C   0  0  2  0  0  0  0  0  0  0  0  0
    9.8419  -14.5891   25.4788 N   0  0  0  0  0  0  0  0  0  0  0  0
   10.6623  -15.6203   27.4639 C   0  0  0  0  0  0  0  0  0  0  0  0
   11.7798  -15.5641   28.0860 O   0  0  0  0  0  0  0  0  0  0  0  0
   10.1235  -16.9285   27.3399 N   0  0  0  0  0  0  0  0  0  0  0  0
   10.7559  -18.0979   27.9746 C   0  0  1  0  0  0  0  0  0  0  0  0
    9.7096  -19.1433   28.1591 C   0  0  0  0  0  0  0  0  0  0  0  0
   10.1765  -20.4195   28.7044 C   0  0  0  0  0  0  0  0  0  0  0  0
    9.3408  -21.3411   28.8913 O   0  0  0  0  0  0  0  0  0  0  0  0
   11.8904  -18.5482   27.1350 C   0  0  0  0  0  0  0  0  0  0  0  0
   11.7363  -18.6470   25.8991 O   0  0  0  0  0  0  0  0  0  0  0  0
   11.4975  -20.6743   29.0299 O   0  0  0  0  0  0  0  0  0  0  0  0
   13.1009  -18.8533   27.7149 O   0  0  0  0  0  0  0  0  0  0  0  0
  2  1  1  1
  2  3  1  0
  2 13  1  0
  3  4  1  0
  4  5  2  0
  4 12  1  0
  5  6  1  0
  6  7  1  0
  7  8  2  0
  8  9  1  0
 10  9  2  0
 11 10  1  0
 12 11  2  0
 12  7  1  0
 13 14  2  0
 16 15  1  1
 16 17  1  0
 18 16  1  0
 19 13  1  0
 18 19  1  6
 20 22  1  0
 20 18  1  0
 21 20  2  0
 23 22  1  0
 23 27  1  0
 23 24  1  6
 25 26  2  0
 25 24  1  0
 27 30  1  0
 28 27  2  0
 29 25  1  0
M  END
$$$$
