WVD.pdb
     RDKit          3D

 30 31  0  0  1  0  0  0  0  0999 V2000
    6.4649  -17.0666   24.2107 N   0  0  0  0  0  0  0  0  0  0  0  0
    7.1360  -15.8357   23.8238 C   0  0  1  0  0  0  0  0  0  0  0  0
    8.2877  -15.5983   24.7775 C   0  0  0  0  0  0  0  0  0  0  0  0
    7.8517  -14.9737   26.0361 C   0  0  0  0  0  0  0  0  0  0  0  0
    7.6777  -15.5821   27.2655 C   0  0  0  0  0  0  0  0  0  0  0  0
    7.2668  -14.6887   28.1812 N   0  0  0  0  0  0  0  0  0  0  0  0
    7.1785  -13.5109   27.5376 C   0  0  0  0  0  0  0  0  0  0  0  0
    6.7917  -12.2794   28.0729 C   0  0  0  0  0  0  0  0  0  0  0  0
    6.7664  -11.1700   27.2366 C   0  0  0  0  0  0  0  0  0  0  0  0
    7.1172  -11.2932   25.9092 C   0  0  0  0  0  0  0  0  0  0  0  0
    7.4926  -12.5231   25.4190 C   0  0  0  0  0  0  0  0  0  0  0  0
    7.5351  -13.6582   26.2072 C   0  0  0  0  0  0  0  0  0  0  0  0
    7.6102  -15.9194   22.4163 C   0  0  0  0  0  0  0  0  0  0  0  0
    7.4497  -16.9294   21.6883 O   0  0  0  0  0  0  0  0  0  0  0  0
    8.4469  -12.8551   18.7173 C   0  0  0  0  0  0  0  0  0  0  0  0
    8.2099  -13.1436   20.1692 C   0  0  1  0  0  0  0  0  0  0  0  0
    7.0006  -12.5059   20.7511 C   0  0  0  0  0  0  0  0  0  0  0  0
    8.3098  -14.6400   20.3841 C   0  0  2  0  0  0  0  0  0  0  0  0
    8.2824  -14.8059   21.8477 N   0  0  0  0  0  0  0  0  0  0  0  0
    9.5558  -15.2274   19.8785 C   0  0  0  0  0  0  0  0  0  0  0  0
    9.8614  -15.1957   18.6357 O   0  0  0  0  0  0  0  0  0  0  0  0
   10.5161  -15.8707   20.7039 N   0  0  0  0  0  0  0  0  0  0  0  0
   11.9071  -16.0810   20.2669 C   0  0  1  0  0  0  0  0  0  0  0  0
   12.4731  -14.7574   19.8802 C   0  0  0  0  0  0  0  0  0  0  0  0
   13.8517  -14.7759   19.3873 C   0  0  0  0  0  0  0  0  0  0  0  0
   14.7330  -15.3560   20.0725 O   0  0  0  0  0  0  0  0  0  0  0  0
   12.6607  -16.7429   21.3571 C   0  0  0  0  0  0  0  0  0  0  0  0
   13.8714  -17.0049   21.1935 O   0  0  0  0  0  0  0  0  0  0  0  0
   14.2467  -14.1861   18.1989 O   0  0  0  0  0  0  0  0  0  0  0  0
   12.0296  -17.0640   22.5376 O   0  0  0  0  0  0  0  0  0  0  0  0
  2  1  1  1
  2  3  1  0
  2 13  1  0
  3  4  1  0
  4  5  2  0
  4 12  1  0
  5  6  1  0
  6  7  1  0
  7  8  2  0
  8  9  1  0
 10  9  2  0
 11 10  1  0
 12 11  2  0
 12  7  1  0
 13 14  2  0
 16 15  1  6
 16 17  1  0
 18 16  1  0
 19 13  1  0
 18 19  1  1
 20 22  1  0
 20 18  1  0
 21 20  2  0
 23 22  1  0
 23 27  1  0
 23 24  1  1
 25 26  2  0
 25 24  1  0
 27 30  1  0
 28 27  2  0
 29 25  1  0
M  END
$$$$
