WVD.pdb
     RDKit          3D

 30 31  0  0  1  0  0  0  0  0999 V2000
    6.1145  -17.9084   24.5997 N   0  0  0  0  0  0  0  0  0  0  0  0
    6.7370  -16.6218   24.3310 C   0  0  1  0  0  0  0  0  0  0  0  0
    7.7027  -16.3131   25.4554 C   0  0  0  0  0  0  0  0  0  0  0  0
    7.1801  -15.2922   26.3769 C   0  0  0  0  0  0  0  0  0  0  0  0
    6.4407  -15.4919   27.5280 C   0  0  0  0  0  0  0  0  0  0  0  0
    6.1404  -14.3170   28.1068 N   0  0  0  0  0  0  0  0  0  0  0  0
    6.6874  -13.3678   27.3263 C   0  0  0  0  0  0  0  0  0  0  0  0
    6.6452  -11.9844   27.5185 C   0  0  0  0  0  0  0  0  0  0  0  0
    7.2790  -11.1654   26.5920 C   0  0  0  0  0  0  0  0  0  0  0  0
    7.9323  -11.7166   25.5105 C   0  0  0  0  0  0  0  0  0  0  0  0
    7.9518  -13.0838   25.3556 C   0  0  0  0  0  0  0  0  0  0  0  0
    7.3378  -13.9437   26.2473 C   0  0  0  0  0  0  0  0  0  0  0  0
    7.4305  -16.6417   23.0151 C   0  0  0  0  0  0  0  0  0  0  0  0
    7.8312  -17.6924   22.4570 O   0  0  0  0  0  0  0  0  0  0  0  0
    8.9945  -13.8438   19.2789 C   0  0  0  0  0  0  0  0  0  0  0  0
    8.1209  -14.0242   20.4837 C   0  0  1  0  0  0  0  0  0  0  0  0
    6.6980  -13.6398   20.2959 C   0  0  0  0  0  0  0  0  0  0  0  0
    8.3392  -15.4202   21.0306 C   0  0  2  0  0  0  0  0  0  0  0  0
    7.6601  -15.4154   22.3380 N   0  0  0  0  0  0  0  0  0  0  0  0
    9.7512  -15.7553   21.2477 C   0  0  0  0  0  0  0  0  0  0  0  0
   10.4933  -15.0731   22.0368 O   0  0  0  0  0  0  0  0  0  0  0  0
   10.4094  -16.8439   20.6160 N   0  0  0  0  0  0  0  0  0  0  0  0
   11.8362  -17.1324   20.8420 C   0  0  1  0  0  0  0  0  0  0  0  0
   12.0020  -18.6124   20.9056 C   0  0  0  0  0  0  0  0  0  0  0  0
   11.4935  -19.2567   22.1181 C   0  0  0  0  0  0  0  0  0  0  0  0
   11.5843  -18.6449   23.2137 O   0  0  0  0  0  0  0  0  0  0  0  0
   12.6329  -16.5008   19.7646 C   0  0  0  0  0  0  0  0  0  0  0  0
   12.1377  -16.3864   18.6233 O   0  0  0  0  0  0  0  0  0  0  0  0
   10.9125  -20.5130   22.1300 O   0  0  0  0  0  0  0  0  0  0  0  0
   13.9060  -16.0452   20.0228 O   0  0  0  0  0  0  0  0  0  0  0  0
  2  1  1  1
  2  3  1  0
  2 13  1  0
  3  4  1  0
  4  5  2  0
  4 12  1  0
  5  6  1  0
  6  7  1  0
  7  8  2  0
  8  9  1  0
 10  9  2  0
 11 10  1  0
 12 11  2  0
 12  7  1  0
 13 14  2  0
 16 15  1  6
 16 17  1  0
 18 16  1  0
 19 13  1  0
 18 19  1  1
 20 22  1  0
 20 18  1  0
 21 20  2  0
 23 22  1  0
 23 27  1  0
 23 24  1  6
 25 26  2  0
 25 24  1  0
 27 30  1  0
 28 27  2  0
 29 25  1  0
M  END
$$$$
