WVD.pdb
     RDKit          3D

 30 31  0  0  1  0  0  0  0  0999 V2000
    6.4275  -17.7640   25.3284 N   0  0  0  0  0  0  0  0  0  0  0  0
    7.0709  -16.5344   24.8933 C   0  0  1  0  0  0  0  0  0  0  0  0
    8.4775  -16.5063   25.4527 C   0  0  0  0  0  0  0  0  0  0  0  0
    8.6144  -15.5641   26.5744 C   0  0  0  0  0  0  0  0  0  0  0  0
    9.2658  -15.7702   27.7764 C   0  0  0  0  0  0  0  0  0  0  0  0
    9.1764  -14.6792   28.5557 N   0  0  0  0  0  0  0  0  0  0  0  0
    8.4687  -13.7772   27.8523 C   0  0  0  0  0  0  0  0  0  0  0  0
    8.1151  -12.4838   28.2459 C   0  0  0  0  0  0  0  0  0  0  0  0
    7.3764  -11.7007   27.3672 C   0  0  0  0  0  0  0  0  0  0  0  0
    7.0059  -12.1991   26.1366 C   0  0  0  0  0  0  0  0  0  0  0  0
    7.3732  -13.4779   25.7851 C   0  0  0  0  0  0  0  0  0  0  0  0
    8.1075  -14.2987   26.6209 C   0  0  0  0  0  0  0  0  0  0  0  0
    7.0796  -16.4466   23.4084 C   0  0  0  0  0  0  0  0  0  0  0  0
    6.6473  -17.3541   22.6564 O   0  0  0  0  0  0  0  0  0  0  0  0
    7.8887  -13.4983   19.5683 C   0  0  0  0  0  0  0  0  0  0  0  0
    7.6432  -13.6988   21.0335 C   0  0  1  0  0  0  0  0  0  0  0  0
    6.4900  -12.9450   21.5901 C   0  0  0  0  0  0  0  0  0  0  0  0
    7.6326  -15.1866   21.3196 C   0  0  2  0  0  0  0  0  0  0  0  0
    7.6006  -15.2801   22.7896 N   0  0  0  0  0  0  0  0  0  0  0  0
    8.8287  -15.8887   20.8406 C   0  0  0  0  0  0  0  0  0  0  0  0
    9.0182  -16.1285   19.5974 O   0  0  0  0  0  0  0  0  0  0  0  0
    9.8634  -16.3560   21.6940 N   0  0  0  0  0  0  0  0  0  0  0  0
   11.0467  -17.0625   21.1735 C   0  0  1  0  0  0  0  0  0  0  0  0
   12.2572  -16.2924   21.5777 C   0  0  0  0  0  0  0  0  0  0  0  0
   13.5129  -16.7078   20.9496 C   0  0  0  0  0  0  0  0  0  0  0  0
   13.4949  -17.6636   20.1317 O   0  0  0  0  0  0  0  0  0  0  0  0
   11.0415  -18.4534   21.6835 C   0  0  0  0  0  0  0  0  0  0  0  0
   10.2250  -18.7768   22.5721 O   0  0  0  0  0  0  0  0  0  0  0  0
   14.7321  -16.1042   21.2056 O   0  0  0  0  0  0  0  0  0  0  0  0
   11.9291  -19.3774   21.1802 O   0  0  0  0  0  0  0  0  0  0  0  0
  2  1  1  6
  2  3  1  0
  2 13  1  0
  3  4  1  0
  4  5  2  0
  4 12  1  0
  5  6  1  0
  6  7  1  0
  7  8  2  0
  8  9  1  0
 10  9  2  0
 11 10  1  0
 12 11  2  0
 12  7  1  0
 13 14  2  0
 16 15  1  6
 16 17  1  0
 18 16  1  0
 19 13  1  0
 18 19  1  1
 20 22  1  0
 20 18  1  0
 21 20  2  0
 23 22  1  0
 23 27  1  0
 23 24  1  1
 25 26  2  0
 25 24  1  0
 27 30  1  0
 28 27  2  0
 29 25  1  0
M  END
$$$$
