WVD.pdb
     RDKit          3D

 30 31  0  0  1  0  0  0  0  0999 V2000
    5.7957  -17.6487   24.2458 N   0  0  0  0  0  0  0  0  0  0  0  0
    6.4512  -16.3725   24.0076 C   0  0  1  0  0  0  0  0  0  0  0  0
    7.3479  -16.0672   25.1886 C   0  0  0  0  0  0  0  0  0  0  0  0
    6.8061  -14.9966   26.0399 C   0  0  0  0  0  0  0  0  0  0  0  0
    5.7856  -15.0898   26.9682 C   0  0  0  0  0  0  0  0  0  0  0  0
    5.5664  -13.8991   27.5510 N   0  0  0  0  0  0  0  0  0  0  0  0
    6.4459  -13.0461   26.9958 C   0  0  0  0  0  0  0  0  0  0  0  0
    6.6036  -11.6871   27.2802 C   0  0  0  0  0  0  0  0  0  0  0  0
    7.5784  -10.9736   26.5934 C   0  0  0  0  0  0  0  0  0  0  0  0
    8.3669  -11.6029   25.6540 C   0  0  0  0  0  0  0  0  0  0  0  0
    8.1813  -12.9429   25.4018 C   0  0  0  0  0  0  0  0  0  0  0  0
    7.2266  -13.6992   26.0562 C   0  0  0  0  0  0  0  0  0  0  0  0
    7.2263  -16.4124   22.7385 C   0  0  0  0  0  0  0  0  0  0  0  0
    7.6590  -17.4715   22.2219 O   0  0  0  0  0  0  0  0  0  0  0  0
    8.8985  -13.7434   18.9676 C   0  0  0  0  0  0  0  0  0  0  0  0
    7.9504  -13.9333   20.1132 C   0  0  1  0  0  0  0  0  0  0  0  0
    6.5107  -13.7989   19.7711 C   0  0  0  0  0  0  0  0  0  0  0  0
    8.3193  -15.2134   20.8347 C   0  0  2  0  0  0  0  0  0  0  0  0
    7.5010  -15.1963   22.0597 N   0  0  0  0  0  0  0  0  0  0  0  0
    9.7315  -15.2846   21.2267 C   0  0  0  0  0  0  0  0  0  0  0  0
   10.1397  -14.8541   22.3612 O   0  0  0  0  0  0  0  0  0  0  0  0
   10.7527  -15.8260   20.4013 N   0  0  0  0  0  0  0  0  0  0  0  0
   12.0743  -16.1982   20.9352 C   0  0  1  0  0  0  0  0  0  0  0  0
   11.8705  -17.2339   21.9875 C   0  0  0  0  0  0  0  0  0  0  0  0
   13.0907  -17.8070   22.5591 C   0  0  0  0  0  0  0  0  0  0  0  0
   14.2041  -17.4443   22.0993 O   0  0  0  0  0  0  0  0  0  0  0  0
   12.9330  -16.6595   19.8196 C   0  0  0  0  0  0  0  0  0  0  0  0
   14.1476  -16.3664   19.8200 O   0  0  0  0  0  0  0  0  0  0  0  0
   13.0912  -18.7345   23.5866 O   0  0  0  0  0  0  0  0  0  0  0  0
   12.3942  -17.4040   18.7949 O   0  0  0  0  0  0  0  0  0  0  0  0
  2  1  1  1
  2  3  1  0
  2 13  1  0
  3  4  1  0
  4  5  2  0
  4 12  1  0
  5  6  1  0
  6  7  1  0
  7  8  2  0
  8  9  1  0
 10  9  2  0
 11 10  1  0
 12 11  2  0
 12  7  1  0
 13 14  2  0
 16 15  1  6
 16 17  1  0
 18 16  1  0
 19 13  1  0
 18 19  1  1
 20 22  1  0
 20 18  1  0
 21 20  2  0
 23 22  1  0
 23 27  1  0
 23 24  1  1
 25 26  2  0
 25 24  1  0
 27 30  1  0
 28 27  2  0
 29 25  1  0
M  END
$$$$
