WVD.pdb
     RDKit          3D

 30 31  0  0  1  0  0  0  0  0999 V2000
    9.1800  -15.9293   24.9977 N   0  0  0  0  0  0  0  0  0  0  0  0
    7.9361  -16.6215   24.7001 C   0  0  1  0  0  0  0  0  0  0  0  0
    6.8872  -16.1698   25.6941 C   0  0  0  0  0  0  0  0  0  0  0  0
    7.3667  -15.0776   26.5552 C   0  0  0  0  0  0  0  0  0  0  0  0
    8.4102  -15.1120   27.4617 C   0  0  0  0  0  0  0  0  0  0  0  0
    8.5501  -13.9207   28.0671 N   0  0  0  0  0  0  0  0  0  0  0  0
    7.5971  -13.1259   27.5480 C   0  0  0  0  0  0  0  0  0  0  0  0
    7.3441  -11.7885   27.8639 C   0  0  0  0  0  0  0  0  0  0  0  0
    6.3059  -11.1363   27.2097 C   0  0  0  0  0  0  0  0  0  0  0  0
    5.5485  -11.8042   26.2715 C   0  0  0  0  0  0  0  0  0  0  0  0
    5.8284  -13.1213   25.9876 C   0  0  0  0  0  0  0  0  0  0  0  0
    6.8492  -13.8168   26.6087 C   0  0  0  0  0  0  0  0  0  0  0  0
    7.5074  -16.3474   23.3022 C   0  0  0  0  0  0  0  0  0  0  0  0
    6.4435  -16.7885   22.8028 O   0  0  0  0  0  0  0  0  0  0  0  0
    7.9799  -13.4234   19.4671 C   0  0  0  0  0  0  0  0  0  0  0  0
    8.2315  -13.7823   20.9007 C   0  0  1  0  0  0  0  0  0  0  0  0
    7.6110  -12.8726   21.8983 C   0  0  0  0  0  0  0  0  0  0  0  0
    7.9141  -15.2515   21.0909 C   0  0  2  0  0  0  0  0  0  0  0  0
    8.3332  -15.5444   22.4726 N   0  0  0  0  0  0  0  0  0  0  0  0
    8.6570  -16.1379   20.1879 C   0  0  0  0  0  0  0  0  0  0  0  0
    8.4227  -16.1701   18.9297 O   0  0  0  0  0  0  0  0  0  0  0  0
    9.6821  -17.0220   20.6178 N   0  0  0  0  0  0  0  0  0  0  0  0
   10.3855  -17.9171   19.6828 C   0  0  1  0  0  0  0  0  0  0  0  0
   11.7541  -17.3692   19.4628 C   0  0  0  0  0  0  0  0  0  0  0  0
   12.6504  -18.2034   18.6599 C   0  0  0  0  0  0  0  0  0  0  0  0
   12.2067  -19.2744   18.1712 O   0  0  0  0  0  0  0  0  0  0  0  0
   10.3880  -19.2903   20.2387 C   0  0  0  0  0  0  0  0  0  0  0  0
   10.4500  -20.2659   19.4607 O   0  0  0  0  0  0  0  0  0  0  0  0
   13.9718  -17.8796   18.4043 O   0  0  0  0  0  0  0  0  0  0  0  0
   10.3230  -19.4849   21.5998 O   0  0  0  0  0  0  0  0  0  0  0  0
  2  1  1  1
  2  3  1  0
  2 13  1  0
  3  4  1  0
  4  5  2  0
  4 12  1  0
  5  6  1  0
  6  7  1  0
  7  8  2  0
  8  9  1  0
 10  9  2  0
 11 10  1  0
 12 11  2  0
 12  7  1  0
 13 14  2  0
 16 15  1  6
 16 17  1  0
 18 16  1  0
 19 13  1  0
 18 19  1  1
 20 22  1  0
 20 18  1  0
 21 20  2  0
 23 22  1  0
 23 27  1  0
 23 24  1  1
 25 26  2  0
 25 24  1  0
 27 30  1  0
 28 27  2  0
 29 25  1  0
M  END
$$$$
