WVD.pdb
     RDKit          3D

 30 31  0  0  1  0  0  0  0  0999 V2000
    6.5316  -16.7199   25.0643 N   0  0  0  0  0  0  0  0  0  0  0  0
    7.1805  -15.6263   24.3586 C   0  0  1  0  0  0  0  0  0  0  0  0
    8.4438  -15.2566   25.1067 C   0  0  0  0  0  0  0  0  0  0  0  0
    8.1659  -14.4701   26.3186 C   0  0  0  0  0  0  0  0  0  0  0  0
    8.4791  -14.7933   27.6260 C   0  0  0  0  0  0  0  0  0  0  0  0
    8.0636  -13.8286   28.4639 N   0  0  0  0  0  0  0  0  0  0  0  0
    7.4858  -12.8901   27.6928 C   0  0  0  0  0  0  0  0  0  0  0  0
    6.9026  -11.6909   28.1107 C   0  0  0  0  0  0  0  0  0  0  0  0
    6.3560  -10.8481   27.1506 C   0  0  0  0  0  0  0  0  0  0  0  0
    6.3937  -11.1975   25.8177 C   0  0  0  0  0  0  0  0  0  0  0  0
    6.9768  -12.3871   25.4454 C   0  0  0  0  0  0  0  0  0  0  0  0
    7.5350  -13.2616   26.3592 C   0  0  0  0  0  0  0  0  0  0  0  0
    7.4800  -16.0156   22.9544 C   0  0  0  0  0  0  0  0  0  0  0  0
    7.3536  -17.1851   22.5159 O   0  0  0  0  0  0  0  0  0  0  0  0
    6.4736  -13.6363   20.1420 C   0  0  0  0  0  0  0  0  0  0  0  0
    7.8840  -14.0732   19.8826 C   0  0  1  0  0  0  0  0  0  0  0  0
    8.9179  -13.0261   20.0884 C   0  0  0  0  0  0  0  0  0  0  0  0
    8.1299  -15.3696   20.6271 C   0  0  2  0  0  0  0  0  0  0  0  0
    7.9341  -15.0240   22.0458 N   0  0  0  0  0  0  0  0  0  0  0  0
    9.4907  -15.8943   20.4658 C   0  0  0  0  0  0  0  0  0  0  0  0
    9.8293  -16.5905   19.4461 O   0  0  0  0  0  0  0  0  0  0  0  0
   10.5342  -15.6822   21.4056 N   0  0  0  0  0  0  0  0  0  0  0  0
   11.8612  -16.3036   21.2540 C   0  0  1  0  0  0  0  0  0  0  0  0
   12.8544  -15.2169   21.0211 C   0  0  0  0  0  0  0  0  0  0  0  0
   13.3261  -15.0726   19.6425 C   0  0  0  0  0  0  0  0  0  0  0  0
   12.8839  -15.8581   18.7649 O   0  0  0  0  0  0  0  0  0  0  0  0
   12.1545  -17.1153   22.4581 C   0  0  0  0  0  0  0  0  0  0  0  0
   11.4041  -17.0280   23.4532 O   0  0  0  0  0  0  0  0  0  0  0  0
   14.2398  -14.1124   19.2436 O   0  0  0  0  0  0  0  0  0  0  0  0
   13.2438  -17.9566   22.4759 O   0  0  0  0  0  0  0  0  0  0  0  0
  2  1  1  1
  2  3  1  0
  2 13  1  0
  3  4  1  0
  4  5  2  0
  4 12  1  0
  5  6  1  0
  6  7  1  0
  7  8  2  0
  8  9  1  0
 10  9  2  0
 11 10  1  0
 12 11  2  0
 12  7  1  0
 13 14  2  0
 16 15  1  1
 16 17  1  0
 18 16  1  0
 19 13  1  0
 18 19  1  1
 20 22  1  0
 20 18  1  0
 21 20  2  0
 23 22  1  0
 23 27  1  0
 23 24  1  1
 25 26  2  0
 25 24  1  0
 27 30  1  0
 28 27  2  0
 29 25  1  0
M  END
$$$$
