HVT.pdb
     RDKit          3D

 25 25  0  0  1  0  0  0  0  0999 V2000
   18.4438  -11.8566  -18.1672 N   0  0  0  0  0  0  0  0  0  0  0  0
   19.6024  -10.9823  -18.2810 C   0  0  1  0  0  0  0  0  0  0  0  0
   19.2672   -9.9412  -19.3619 C   0  0  0  0  0  0  0  0  0  0  0  0
   19.2204  -10.5632  -20.7057 C   0  0  0  0  0  0  0  0  0  0  0  0
   18.0552  -10.7781  -21.4464 C   0  0  0  0  0  0  0  0  0  0  0  0
   18.4156  -11.3558  -22.5864 N   0  0  0  0  0  0  0  0  0  0  0  0
   19.7530  -11.5113  -22.5899 C   0  0  0  0  0  0  0  0  0  0  0  0
   20.2378  -11.0259  -21.4377 N   0  0  0  0  0  0  0  0  0  0  0  0
   19.9055  -10.3198  -17.0063 C   0  0  0  0  0  0  0  0  0  0  0  0
   18.9332   -9.9893  -16.2273 O   0  0  0  0  0  0  0  0  0  0  0  0
   23.6860  -10.4014  -15.1007 C   0  0  0  0  0  0  0  0  0  0  0  0
   22.3640  -10.2567  -14.4146 C   0  0  1  0  0  0  0  0  0  0  0  0
   22.6236   -9.4507  -13.1327 C   0  0  0  0  0  0  0  0  0  0  0  0
   21.4187   -9.3911  -15.2292 C   0  0  2  0  0  0  0  0  0  0  0  0
   21.1941   -9.9949  -16.5262 N   0  0  0  0  0  0  0  0  0  0  0  0
   21.9315   -8.0092  -15.3403 C   0  0  0  0  0  0  0  0  0  0  0  0
   22.9767   -7.7187  -15.9854 O   0  0  0  0  0  0  0  0  0  0  0  0
   19.9766   -5.0330  -16.7803 C   0  0  0  0  0  0  0  0  0  0  0  0
   20.4605   -4.6977  -15.4163 C   0  0  1  0  0  0  0  0  0  0  0  0
   19.4408   -4.8378  -14.4842 O   0  0  0  0  0  0  0  0  0  0  0  0
   21.6377   -5.5207  -14.9379 C   0  0  2  0  0  0  0  0  0  0  0  0
   21.2809   -6.9046  -14.7273 N   0  0  0  0  0  0  0  0  0  0  0  0
   22.1897   -4.9685  -13.6941 C   0  0  0  0  0  0  0  0  0  0  0  0
   22.0535   -5.6427  -12.4846 O   0  0  0  0  0  0  0  0  0  0  0  0
   22.7966   -3.8786  -13.6953 O   0  0  0  0  0  0  0  0  0  0  0  0
  2  3  1  0
  2  1  1  1
  4  3  1  0
  4  8  1  0
  5  6  1  0
  5  4  2  0
  6  7  1  0
  7  8  2  0
  9  2  1  0
 10  9  2  0
 12 11  1  6
 12 14  1  0
 13 12  1  0
 14 16  1  0
 14 15  1  6
 15  9  1  0
 16 22  1  0
 17 16  2  0
 19 20  1  0
 19 18  1  6
 21 19  1  0
 21 23  1  0
 21 22  1  1
 23 25  2  0
 23 24  1  0
M  END
$$$$
