HVT.pdb
     RDKit          3D

 25 25  0  0  1  0  0  0  0  0999 V2000
   27.8882  -21.2468  -16.5703 N   0  0  0  0  0  0  0  0  0  0  0  0
   27.3755  -20.2727  -15.6174 C   0  0  1  0  0  0  0  0  0  0  0  0
   26.7289  -19.1461  -16.4401 C   0  0  0  0  0  0  0  0  0  0  0  0
   27.7478  -18.3951  -17.2100 C   0  0  0  0  0  0  0  0  0  0  0  0
   28.7306  -17.5761  -16.6478 C   0  0  0  0  0  0  0  0  0  0  0  0
   29.4454  -17.0767  -17.6491 N   0  0  0  0  0  0  0  0  0  0  0  0
   28.9525  -17.5468  -18.8106 C   0  0  0  0  0  0  0  0  0  0  0  0
   27.9152  -18.3506  -18.5347 N   0  0  0  0  0  0  0  0  0  0  0  0
   26.3921  -20.8739  -14.7078 C   0  0  0  0  0  0  0  0  0  0  0  0
   25.4460  -21.5975  -15.2006 O   0  0  0  0  0  0  0  0  0  0  0  0
   25.9990  -19.7168  -10.6525 C   0  0  0  0  0  0  0  0  0  0  0  0
   25.6632  -21.1301  -11.0123 C   0  0  1  0  0  0  0  0  0  0  0  0
   24.3724  -21.4780  -10.2552 C   0  0  0  0  0  0  0  0  0  0  0  0
   25.2920  -21.2455  -12.4803 C   0  0  2  0  0  0  0  0  0  0  0  0
   26.3719  -20.7388  -13.3015 N   0  0  0  0  0  0  0  0  0  0  0  0
   24.0129  -20.5582  -12.7572 C   0  0  0  0  0  0  0  0  0  0  0  0
   23.8666  -19.3111  -12.6297 O   0  0  0  0  0  0  0  0  0  0  0  0
   22.0763  -20.3427  -16.0258 C   0  0  0  0  0  0  0  0  0  0  0  0
   21.2073  -20.9463  -14.9830 C   0  0  1  0  0  0  0  0  0  0  0  0
   21.1727  -22.3287  -15.1109 O   0  0  0  0  0  0  0  0  0  0  0  0
   21.6057  -20.6259  -13.5580 C   0  0  2  0  0  0  0  0  0  0  0  0
   22.8527  -21.2553  -13.1899 N   0  0  0  0  0  0  0  0  0  0  0  0
   20.5577  -21.0410  -12.6169 C   0  0  0  0  0  0  0  0  0  0  0  0
   19.3224  -20.4014  -12.5872 O   0  0  0  0  0  0  0  0  0  0  0  0
   20.7526  -21.9815  -11.8208 O   0  0  0  0  0  0  0  0  0  0  0  0
  2  3  1  0
  2  1  1  6
  4  3  1  0
  4  8  1  0
  5  6  1  0
  5  4  2  0
  6  7  1  0
  7  8  2  0
  9  2  1  0
 10  9  2  0
 12 11  1  6
 12 14  1  0
 13 12  1  0
 14 16  1  0
 14 15  1  6
 15  9  1  0
 16 22  1  0
 17 16  2  0
 19 20  1  0
 19 18  1  6
 21 19  1  0
 21 23  1  0
 21 22  1  1
 23 25  2  0
 23 24  1  0
M  END
$$$$
