HVT.pdb
     RDKit          3D

 25 25  0  0  1  0  0  0  0  0999 V2000
   19.0106  -11.3164  -18.1750 N   0  0  0  0  0  0  0  0  0  0  0  0
   18.2695  -10.8690  -17.0043 C   0  0  1  0  0  0  0  0  0  0  0  0
   17.4575  -12.0761  -16.5063 C   0  0  0  0  0  0  0  0  0  0  0  0
   16.4666  -12.5075  -17.5197 C   0  0  0  0  0  0  0  0  0  0  0  0
   15.4004  -13.3770  -17.2750 C   0  0  0  0  0  0  0  0  0  0  0  0
   14.7440  -13.5251  -18.4197 N   0  0  0  0  0  0  0  0  0  0  0  0
   15.3529  -12.7875  -19.3674 C   0  0  0  0  0  0  0  0  0  0  0  0
   16.4048  -12.1695  -18.8108 N   0  0  0  0  0  0  0  0  0  0  0  0
   19.1684  -10.3843  -15.9495 C   0  0  0  0  0  0  0  0  0  0  0  0
   18.6817  -10.1241  -14.7846 O   0  0  0  0  0  0  0  0  0  0  0  0
   23.4604  -10.4990  -16.0332 C   0  0  0  0  0  0  0  0  0  0  0  0
   22.6007  -10.4915  -14.8083 C   0  0  1  0  0  0  0  0  0  0  0  0
   23.4070   -9.7757  -13.7137 C   0  0  0  0  0  0  0  0  0  0  0  0
   21.3708   -9.6240  -15.0106 C   0  0  2  0  0  0  0  0  0  0  0  0
   20.5582  -10.1654  -16.0801 N   0  0  0  0  0  0  0  0  0  0  0  0
   21.7518   -8.2174  -15.2587 C   0  0  0  0  0  0  0  0  0  0  0  0
   22.4722   -7.8672  -16.2341 O   0  0  0  0  0  0  0  0  0  0  0  0
   19.6501   -5.4052  -16.2815 C   0  0  0  0  0  0  0  0  0  0  0  0
   20.2926   -5.0112  -15.0013 C   0  0  1  0  0  0  0  0  0  0  0  0
   19.4181   -5.1877  -13.9371 O   0  0  0  0  0  0  0  0  0  0  0  0
   21.5706   -5.7543  -14.6748 C   0  0  2  0  0  0  0  0  0  0  0  0
   21.3310   -7.1548  -14.4143 N   0  0  0  0  0  0  0  0  0  0  0  0
   22.2418   -5.1541  -13.5148 C   0  0  0  0  0  0  0  0  0  0  0  0
   22.7731   -3.8696  -13.5758 O   0  0  0  0  0  0  0  0  0  0  0  0
   22.3495   -5.7852  -12.4442 O   0  0  0  0  0  0  0  0  0  0  0  0
  2  3  1  0
  2  1  1  6
  4  3  1  0
  4  8  1  0
  5  6  1  0
  5  4  2  0
  6  7  1  0
  7  8  2  0
  9  2  1  0
 10  9  2  0
 12 11  1  6
 12 14  1  0
 13 12  1  0
 14 16  1  0
 14 15  1  6
 15  9  1  0
 16 22  1  0
 17 16  2  0
 19 20  1  0
 19 18  1  6
 21 19  1  0
 21 23  1  0
 21 22  1  1
 23 25  2  0
 23 24  1  0
M  END
$$$$
