HVT.pdb
     RDKit          3D

 25 25  0  0  1  0  0  0  0  0999 V2000
   27.8797  -21.3550  -16.1896 N   0  0  0  0  0  0  0  0  0  0  0  0
   27.2826  -20.3756  -15.2929 C   0  0  1  0  0  0  0  0  0  0  0  0
   26.6561  -19.2871  -16.1800 C   0  0  0  0  0  0  0  0  0  0  0  0
   27.6975  -18.5365  -16.9195 C   0  0  0  0  0  0  0  0  0  0  0  0
   28.7659  -17.8582  -16.3271 C   0  0  0  0  0  0  0  0  0  0  0  0
   29.4744  -17.3096  -17.3070 N   0  0  0  0  0  0  0  0  0  0  0  0
   28.8958  -17.6147  -18.4839 C   0  0  0  0  0  0  0  0  0  0  0  0
   27.8105  -18.3634  -18.2395 N   0  0  0  0  0  0  0  0  0  0  0  0
   26.2627  -20.9853  -14.4305 C   0  0  0  0  0  0  0  0  0  0  0  0
   25.4145  -21.8055  -14.9497 O   0  0  0  0  0  0  0  0  0  0  0  0
   26.9485  -21.5312  -10.6729 C   0  0  0  0  0  0  0  0  0  0  0  0
   25.4603  -21.4464  -10.8064 C   0  0  1  0  0  0  0  0  0  0  0  0
   25.0453  -20.0925  -10.2105 C   0  0  0  0  0  0  0  0  0  0  0  0
   25.0473  -21.3680  -12.2656 C   0  0  2  0  0  0  0  0  0  0  0  0
   26.1067  -20.7608  -13.0442 N   0  0  0  0  0  0  0  0  0  0  0  0
   23.7651  -20.6474  -12.4136 C   0  0  0  0  0  0  0  0  0  0  0  0
   23.5979  -19.4625  -12.0125 O   0  0  0  0  0  0  0  0  0  0  0  0
   22.0225  -19.6988  -15.5664 C   0  0  0  0  0  0  0  0  0  0  0  0
   21.0597  -20.4857  -14.7534 C   0  0  1  0  0  0  0  0  0  0  0  0
   20.9672  -21.7886  -15.2249 O   0  0  0  0  0  0  0  0  0  0  0  0
   21.3799  -20.5529  -13.2752 C   0  0  2  0  0  0  0  0  0  0  0  0
   22.6254  -21.2394  -13.0217 N   0  0  0  0  0  0  0  0  0  0  0  0
   20.3003  -21.2205  -12.5370 C   0  0  0  0  0  0  0  0  0  0  0  0
   20.4860  -22.4778  -11.9707 O   0  0  0  0  0  0  0  0  0  0  0  0
   19.1884  -20.6718  -12.3996 O   0  0  0  0  0  0  0  0  0  0  0  0
  2  3  1  0
  2  1  1  6
  4  3  1  0
  4  8  1  0
  5  6  1  0
  5  4  2  0
  6  7  1  0
  7  8  2  0
  9  2  1  0
 10  9  2  0
 12 11  1  6
 12 14  1  0
 13 12  1  0
 14 16  1  0
 14 15  1  6
 15  9  1  0
 16 22  1  0
 17 16  2  0
 19 20  1  0
 19 18  1  6
 21 19  1  0
 21 23  1  0
 21 22  1  6
 23 25  2  0
 23 24  1  0
M  END
$$$$
