HVT.pdb
     RDKit          3D

 25 25  0  0  1  0  0  0  0  0999 V2000
   26.5448  -22.1101  -11.6906 N   0  0  0  0  0  0  0  0  0  0  0  0
   25.5933  -21.0095  -11.7455 C   0  0  1  0  0  0  0  0  0  0  0  0
   26.0235  -19.9980  -10.6702 C   0  0  0  0  0  0  0  0  0  0  0  0
   25.3825  -20.2977   -9.3687 C   0  0  0  0  0  0  0  0  0  0  0  0
   24.4786  -21.3395   -9.1443 C   0  0  0  0  0  0  0  0  0  0  0  0
   24.1240  -21.2831   -7.8659 N   0  0  0  0  0  0  0  0  0  0  0  0
   24.7655  -20.2528   -7.2830 C   0  0  0  0  0  0  0  0  0  0  0  0
   25.5316  -19.6549   -8.2069 N   0  0  0  0  0  0  0  0  0  0  0  0
   25.5775  -20.3757  -13.0698 C   0  0  0  0  0  0  0  0  0  0  0  0
   26.6980  -20.0776  -13.6331 O   0  0  0  0  0  0  0  0  0  0  0  0
   24.7335  -21.7897  -16.0411 C   0  0  0  0  0  0  0  0  0  0  0  0
   23.9905  -20.4965  -16.1643 C   0  0  1  0  0  0  0  0  0  0  0  0
   22.5405  -20.7849  -15.7460 C   0  0  0  0  0  0  0  0  0  0  0  0
   24.4896  -19.4822  -15.1502 C   0  0  2  0  0  0  0  0  0  0  0  0
   24.4251  -20.0465  -13.8181 N   0  0  0  0  0  0  0  0  0  0  0  0
   23.7348  -18.2155  -15.2550 C   0  0  0  0  0  0  0  0  0  0  0  0
   22.6661  -18.0031  -14.6181 O   0  0  0  0  0  0  0  0  0  0  0  0
   25.3141  -14.4041  -15.2561 C   0  0  0  0  0  0  0  0  0  0  0  0
   24.4497  -14.7292  -16.4198 C   0  0  1  0  0  0  0  0  0  0  0  0
   25.2195  -15.0404  -17.5328 O   0  0  0  0  0  0  0  0  0  0  0  0
   23.4823  -15.8718  -16.1952 C   0  0  2  0  0  0  0  0  0  0  0  0
   24.1613  -17.1418  -16.0823 N   0  0  0  0  0  0  0  0  0  0  0  0
   22.4981  -15.9441  -17.2826 C   0  0  0  0  0  0  0  0  0  0  0  0
   21.5564  -14.9369  -17.4692 O   0  0  0  0  0  0  0  0  0  0  0  0
   22.4857  -16.9139  -18.0672 O   0  0  0  0  0  0  0  0  0  0  0  0
  2  3  1  0
  2  1  1  6
  4  3  1  0
  4  8  1  0
  5  6  1  0
  5  4  2  0
  6  7  1  0
  7  8  2  0
  9  2  1  0
 10  9  2  0
 12 11  1  1
 12 14  1  0
 13 12  1  0
 14 16  1  0
 14 15  1  1
 15  9  1  0
 16 22  1  0
 17 16  2  0
 19 20  1  0
 19 18  1  1
 21 19  1  0
 21 23  1  0
 21 22  1  6
 23 25  2  0
 23 24  1  0
M  END
$$$$
