HVT.pdb
     RDKit          3D

 25 25  0  0  1  0  0  0  0  0999 V2000
   26.2572   -8.9174  -20.4359 N   0  0  0  0  0  0  0  0  0  0  0  0
   26.1392   -8.2994  -19.1229 C   0  0  1  0  0  0  0  0  0  0  0  0
   26.0727   -6.7805  -19.3527 C   0  0  0  0  0  0  0  0  0  0  0  0
   27.3693   -6.2576  -19.8430 C   0  0  0  0  0  0  0  0  0  0  0  0
   28.4155   -5.8219  -19.0255 C   0  0  0  0  0  0  0  0  0  0  0  0
   29.3989   -5.4251  -19.8247 N   0  0  0  0  0  0  0  0  0  0  0  0
   29.0130   -5.5932  -21.1036 C   0  0  0  0  0  0  0  0  0  0  0  0
   27.7720   -6.1011  -21.1072 N   0  0  0  0  0  0  0  0  0  0  0  0
   24.9407   -8.7645  -18.4137 C   0  0  0  0  0  0  0  0  0  0  0  0
   23.8859   -9.0568  -19.0945 O   0  0  0  0  0  0  0  0  0  0  0  0
   25.0429  -10.0407  -14.4410 C   0  0  0  0  0  0  0  0  0  0  0  0
   23.9902  -10.5296  -15.3855 C   0  0  1  0  0  0  0  0  0  0  0  0
   22.7175  -10.7379  -14.5504 C   0  0  0  0  0  0  0  0  0  0  0  0
   23.6190   -9.4549  -16.3921 C   0  0  2  0  0  0  0  0  0  0  0  0
   24.8165   -8.9314  -17.0161 N   0  0  0  0  0  0  0  0  0  0  0  0
   22.8129   -8.3915  -15.7561 C   0  0  0  0  0  0  0  0  0  0  0  0
   23.2862   -7.5981  -14.8962 O   0  0  0  0  0  0  0  0  0  0  0  0
   20.6014   -5.7176  -17.7176 C   0  0  0  0  0  0  0  0  0  0  0  0
   19.8196   -6.4531  -16.6905 C   0  0  1  0  0  0  0  0  0  0  0  0
   19.0636   -7.4604  -17.2754 O   0  0  0  0  0  0  0  0  0  0  0  0
   20.6469   -7.0796  -15.5882 C   0  0  2  0  0  0  0  0  0  0  0  0
   21.4425   -8.1850  -16.0699 N   0  0  0  0  0  0  0  0  0  0  0  0
   19.7886   -7.5432  -14.4905 C   0  0  0  0  0  0  0  0  0  0  0  0
   19.1181   -6.6408  -13.6708 O   0  0  0  0  0  0  0  0  0  0  0  0
   19.6404   -8.7619  -14.2689 O   0  0  0  0  0  0  0  0  0  0  0  0
  2  3  1  0
  2  1  1  6
  4  3  1  0
  4  8  1  0
  5  6  1  0
  5  4  2  0
  6  7  1  0
  7  8  2  0
  9  2  1  0
 10  9  2  0
 12 11  1  1
 12 14  1  0
 13 12  1  0
 14 16  1  0
 14 15  1  1
 15  9  1  0
 16 22  1  0
 17 16  2  0
 19 20  1  0
 19 18  1  6
 21 19  1  0
 21 23  1  0
 21 22  1  6
 23 25  2  0
 23 24  1  0
M  END
$$$$
