HVT.pdb
     RDKit          3D

 25 25  0  0  1  0  0  0  0  0999 V2000
   18.6971  -13.8535  -17.7919 N   0  0  0  0  0  0  0  0  0  0  0  0
   19.7215  -12.8453  -18.0241 C   0  0  1  0  0  0  0  0  0  0  0  0
   20.0261  -12.8623  -19.5312 C   0  0  0  0  0  0  0  0  0  0  0  0
   20.6826  -14.1294  -19.9288 C   0  0  0  0  0  0  0  0  0  0  0  0
   22.0181  -14.2479  -20.3228 C   0  0  0  0  0  0  0  0  0  0  0  0
   22.2324  -15.5279  -20.6036 N   0  0  0  0  0  0  0  0  0  0  0  0
   21.0908  -16.2130  -20.4030 C   0  0  0  0  0  0  0  0  0  0  0  0
   20.1483  -15.3523  -19.9918 N   0  0  0  0  0  0  0  0  0  0  0  0
   19.2706  -11.5120  -17.6063 C   0  0  0  0  0  0  0  0  0  0  0  0
   18.1470  -11.0643  -18.0522 O   0  0  0  0  0  0  0  0  0  0  0  0
   19.7114  -10.5113  -14.1646 C   0  0  0  0  0  0  0  0  0  0  0  0
   19.0437   -9.3767  -14.8761 C   0  0  1  0  0  0  0  0  0  0  0  0
   19.6340   -8.0855  -14.2888 C   0  0  0  0  0  0  0  0  0  0  0  0
   19.4352   -9.3470  -16.3430 C   0  0  2  0  0  0  0  0  0  0  0  0
   19.9611  -10.6374  -16.7375 N   0  0  0  0  0  0  0  0  0  0  0  0
   20.3901   -8.2512  -16.6126 C   0  0  0  0  0  0  0  0  0  0  0  0
   21.6132   -8.3215  -16.3091 O   0  0  0  0  0  0  0  0  0  0  0  0
   20.1947   -6.0506  -20.1128 C   0  0  0  0  0  0  0  0  0  0  0  0
   20.3640   -5.2472  -18.8746 C   0  0  1  0  0  0  0  0  0  0  0  0
   19.1579   -4.6772  -18.4891 O   0  0  0  0  0  0  0  0  0  0  0  0
   20.9112   -6.0126  -17.6886 C   0  0  2  0  0  0  0  0  0  0  0  0
   19.9978   -7.0364  -17.2367 N   0  0  0  0  0  0  0  0  0  0  0  0
   21.2101   -5.1044  -16.5740 C   0  0  0  0  0  0  0  0  0  0  0  0
   22.2390   -4.1718  -16.6614 O   0  0  0  0  0  0  0  0  0  0  0  0
   20.5440   -5.1486  -15.5201 O   0  0  0  0  0  0  0  0  0  0  0  0
  2  3  1  0
  2  1  1  6
  4  3  1  0
  4  8  1  0
  5  6  1  0
  5  4  2  0
  6  7  1  0
  7  8  2  0
  9  2  1  0
 10  9  2  0
 12 11  1  1
 12 14  1  0
 13 12  1  0
 14 16  1  0
 14 15  1  1
 15  9  1  0
 16 22  1  0
 17 16  2  0
 19 20  1  0
 19 18  1  6
 21 19  1  0
 21 23  1  0
 21 22  1  1
 23 25  2  0
 23 24  1  0
M  END
$$$$
