HVT.pdb
     RDKit          3D

 25 25  0  0  1  0  0  0  0  0999 V2000
   20.3128  -12.9240  -17.4661 N   0  0  0  0  0  0  0  0  0  0  0  0
   20.5307  -11.5186  -17.7775 C   0  0  1  0  0  0  0  0  0  0  0  0
   19.1742  -10.9482  -18.2236 C   0  0  0  0  0  0  0  0  0  0  0  0
   18.7669  -11.5039  -19.5352 C   0  0  0  0  0  0  0  0  0  0  0  0
   17.7525  -12.4463  -19.7234 C   0  0  0  0  0  0  0  0  0  0  0  0
   17.6874  -12.6981  -21.0255 N   0  0  0  0  0  0  0  0  0  0  0  0
   18.6157  -11.9557  -21.6579 C   0  0  0  0  0  0  0  0  0  0  0  0
   19.2719  -11.2295  -20.7413 N   0  0  0  0  0  0  0  0  0  0  0  0
   21.0404  -10.7812  -16.6147 C   0  0  0  0  0  0  0  0  0  0  0  0
   20.4287  -10.8947  -15.4857 O   0  0  0  0  0  0  0  0  0  0  0  0
   24.1459  -11.1738  -14.9660 C   0  0  0  0  0  0  0  0  0  0  0  0
   24.0483   -9.6851  -15.0833 C   0  0  1  0  0  0  0  0  0  0  0  0
   24.8653   -9.2907  -16.3232 C   0  0  0  0  0  0  0  0  0  0  0  0
   22.6278   -9.2555  -15.4052 C   0  0  2  0  0  0  0  0  0  0  0  0
   22.1691   -9.9312  -16.6011 N   0  0  0  0  0  0  0  0  0  0  0  0
   22.5355   -7.7852  -15.5270 C   0  0  0  0  0  0  0  0  0  0  0  0
   22.9723   -7.1545  -16.5293 O   0  0  0  0  0  0  0  0  0  0  0  0
   19.4109   -5.6161  -13.7976 C   0  0  0  0  0  0  0  0  0  0  0  0
   20.3696   -5.1166  -14.8167 C   0  0  1  0  0  0  0  0  0  0  0  0
   20.3413   -3.7297  -14.8809 O   0  0  0  0  0  0  0  0  0  0  0  0
   21.8074   -5.5380  -14.5993 C   0  0  2  0  0  0  0  0  0  0  0  0
   21.9448   -6.9739  -14.5210 N   0  0  0  0  0  0  0  0  0  0  0  0
   22.3496   -4.9325  -13.3763 C   0  0  0  0  0  0  0  0  0  0  0  0
   22.5732   -3.5620  -13.2897 O   0  0  0  0  0  0  0  0  0  0  0  0
   22.6216   -5.6370  -12.3832 O   0  0  0  0  0  0  0  0  0  0  0  0
  2  3  1  0
  2  1  1  1
  4  3  1  0
  4  8  1  0
  5  6  1  0
  5  4  2  0
  6  7  1  0
  7  8  2  0
  9  2  1  0
 10  9  2  0
 12 11  1  6
 12 14  1  0
 13 12  1  0
 14 16  1  0
 14 15  1  6
 15  9  1  0
 16 22  1  0
 17 16  2  0
 19 20  1  0
 19 18  1  1
 21 19  1  0
 21 23  1  0
 21 22  1  1
 23 25  2  0
 23 24  1  0
M  END
$$$$
