HVT.pdb
     RDKit          3D

 25 25  0  0  1  0  0  0  0  0999 V2000
   28.4133  -21.7542  -15.9978 N   0  0  0  0  0  0  0  0  0  0  0  0
   27.6819  -20.6925  -15.3215 C   0  0  1  0  0  0  0  0  0  0  0  0
   27.1177  -19.7749  -16.4188 C   0  0  0  0  0  0  0  0  0  0  0  0
   28.1927  -18.9742  -17.0499 C   0  0  0  0  0  0  0  0  0  0  0  0
   29.0024  -19.4118  -18.1013 C   0  0  0  0  0  0  0  0  0  0  0  0
   29.8426  -18.4240  -18.3871 N   0  0  0  0  0  0  0  0  0  0  0  0
   29.5937  -17.3904  -17.5610 C   0  0  0  0  0  0  0  0  0  0  0  0
   28.5854  -17.7338  -16.7464 N   0  0  0  0  0  0  0  0  0  0  0  0
   26.5956  -21.2293  -14.4923 C   0  0  0  0  0  0  0  0  0  0  0  0
   25.9642  -22.2793  -14.8931 O   0  0  0  0  0  0  0  0  0  0  0  0
   26.8491  -21.3321  -10.7287 C   0  0  0  0  0  0  0  0  0  0  0  0
   25.3880  -21.1583  -11.0013 C   0  0  1  0  0  0  0  0  0  0  0  0
   25.0544  -19.6944  -10.6753 C   0  0  0  0  0  0  0  0  0  0  0  0
   25.0892  -21.3008  -12.4834 C   0  0  2  0  0  0  0  0  0  0  0  0
   26.1537  -20.6992  -13.2594 N   0  0  0  0  0  0  0  0  0  0  0  0
   23.7676  -20.7266  -12.8132 C   0  0  0  0  0  0  0  0  0  0  0  0
   23.5169  -19.4931  -12.7207 O   0  0  0  0  0  0  0  0  0  0  0  0
   21.6708  -21.5006  -16.1301 C   0  0  0  0  0  0  0  0  0  0  0  0
   20.8646  -21.7087  -14.8998 C   0  0  1  0  0  0  0  0  0  0  0  0
   20.7568  -23.0614  -14.6051 O   0  0  0  0  0  0  0  0  0  0  0  0
   21.3939  -21.0096  -13.6656 C   0  0  2  0  0  0  0  0  0  0  0  0
   22.6812  -21.5255  -13.2613 N   0  0  0  0  0  0  0  0  0  0  0  0
   20.4492  -21.1358  -12.5485 C   0  0  0  0  0  0  0  0  0  0  0  0
   19.1617  -20.6150  -12.6323 O   0  0  0  0  0  0  0  0  0  0  0  0
   20.7817  -21.7166  -11.4957 O   0  0  0  0  0  0  0  0  0  0  0  0
  2  3  1  0
  2  1  1  6
  4  3  1  0
  4  8  1  0
  5  6  1  0
  5  4  2  0
  6  7  1  0
  7  8  2  0
  9  2  1  0
 10  9  2  0
 12 11  1  6
 12 14  1  0
 13 12  1  0
 14 16  1  0
 14 15  1  6
 15  9  1  0
 16 22  1  0
 17 16  2  0
 19 20  1  0
 19 18  1  6
 21 19  1  0
 21 23  1  0
 21 22  1  1
 23 25  2  0
 23 24  1  0
M  END
$$$$
