HVT.pdb
     RDKit          3D

 25 25  0  0  1  0  0  0  0  0999 V2000
   21.4198  -12.0805  -16.6379 N   0  0  0  0  0  0  0  0  0  0  0  0
   20.7378  -10.7972  -16.5505 C   0  0  1  0  0  0  0  0  0  0  0  0
   19.6230  -10.9584  -15.5038 C   0  0  0  0  0  0  0  0  0  0  0  0
   18.5543  -11.8584  -15.9966 C   0  0  0  0  0  0  0  0  0  0  0  0
   18.0202  -11.8325  -17.2877 C   0  0  0  0  0  0  0  0  0  0  0  0
   17.0895  -12.7777  -17.3465 N   0  0  0  0  0  0  0  0  0  0  0  0
   17.0187  -13.3917  -16.1503 C   0  0  0  0  0  0  0  0  0  0  0  0
   17.9154  -12.8244  -15.3305 N   0  0  0  0  0  0  0  0  0  0  0  0
   21.6584   -9.7226  -16.1589 C   0  0  0  0  0  0  0  0  0  0  0  0
   22.3582   -9.8600  -15.0851 O   0  0  0  0  0  0  0  0  0  0  0  0
   24.5901   -8.6885  -17.5762 C   0  0  0  0  0  0  0  0  0  0  0  0
   23.9465   -7.3579  -17.3419 C   0  0  1  0  0  0  0  0  0  0  0  0
   23.3232   -6.9329  -18.6803 C   0  0  0  0  0  0  0  0  0  0  0  0
   22.7693   -7.4815  -16.3906 C   0  0  2  0  0  0  0  0  0  0  0  0
   21.8659   -8.5124  -16.8580 N   0  0  0  0  0  0  0  0  0  0  0  0
   22.0885   -6.1804  -16.2209 C   0  0  0  0  0  0  0  0  0  0  0  0
   21.4488   -5.6182  -17.1523 O   0  0  0  0  0  0  0  0  0  0  0  0
   19.2323   -5.3069  -13.9680 C   0  0  0  0  0  0  0  0  0  0  0  0
   20.3579   -4.3923  -13.6462 C   0  0  1  0  0  0  0  0  0  0  0  0
   21.0221   -4.8131  -12.5016 O   0  0  0  0  0  0  0  0  0  0  0  0
   21.3875   -4.2382  -14.7454 C   0  0  2  0  0  0  0  0  0  0  0  0
   22.1047   -5.4677  -14.9917 N   0  0  0  0  0  0  0  0  0  0  0  0
   22.3467   -3.1758  -14.4171 C   0  0  0  0  0  0  0  0  0  0  0  0
   21.9474   -1.8454  -14.3366 O   0  0  0  0  0  0  0  0  0  0  0  0
   23.5456   -3.4445  -14.2011 O   0  0  0  0  0  0  0  0  0  0  0  0
  2  3  1  0
  2  1  1  1
  4  3  1  0
  4  8  1  0
  5  6  1  0
  5  4  2  0
  6  7  1  0
  7  8  2  0
  9  2  1  0
 10  9  2  0
 12 11  1  6
 12 14  1  0
 13 12  1  0
 14 16  1  0
 14 15  1  6
 15  9  1  0
 16 22  1  0
 17 16  2  0
 19 20  1  0
 19 18  1  6
 21 19  1  0
 21 23  1  0
 21 22  1  1
 23 25  2  0
 23 24  1  0
M  END
$$$$
