HVT.pdb
     RDKit          3D

 25 25  0  0  1  0  0  0  0  0999 V2000
   18.1704  -12.2893  -17.2869 N   0  0  0  0  0  0  0  0  0  0  0  0
   18.7318  -10.9691  -17.5354 C   0  0  1  0  0  0  0  0  0  0  0  0
   17.5517  -10.0416  -17.8691 C   0  0  0  0  0  0  0  0  0  0  0  0
   16.9640  -10.3786  -19.1867 C   0  0  0  0  0  0  0  0  0  0  0  0
   15.6333  -10.7499  -19.3966 C   0  0  0  0  0  0  0  0  0  0  0  0
   15.4892  -10.9755  -20.6971 N   0  0  0  0  0  0  0  0  0  0  0  0
   16.6701  -10.7622  -21.3078 C   0  0  0  0  0  0  0  0  0  0  0  0
   17.5664  -10.3989  -20.3791 N   0  0  0  0  0  0  0  0  0  0  0  0
   19.4656  -10.4665  -16.3673 C   0  0  0  0  0  0  0  0  0  0  0  0
   18.9923  -10.6888  -15.1890 O   0  0  0  0  0  0  0  0  0  0  0  0
   23.5018  -10.1920  -16.0752 C   0  0  0  0  0  0  0  0  0  0  0  0
   22.5501  -10.1905  -14.9203 C   0  0  1  0  0  0  0  0  0  0  0  0
   23.2823   -9.5117  -13.7525 C   0  0  0  0  0  0  0  0  0  0  0  0
   21.3558   -9.2948  -15.1991 C   0  0  2  0  0  0  0  0  0  0  0  0
   20.6771   -9.7400  -16.3984 N   0  0  0  0  0  0  0  0  0  0  0  0
   21.7674   -7.8778  -15.2862 C   0  0  0  0  0  0  0  0  0  0  0  0
   22.6193   -7.4645  -16.1208 O   0  0  0  0  0  0  0  0  0  0  0  0
   19.4248   -4.9530  -15.9934 C   0  0  0  0  0  0  0  0  0  0  0  0
   20.1705   -4.6838  -14.7370 C   0  0  1  0  0  0  0  0  0  0  0  0
   19.3812   -4.9580  -13.6279 O   0  0  0  0  0  0  0  0  0  0  0  0
   21.4627   -5.4578  -14.5850 C   0  0  2  0  0  0  0  0  0  0  0  0
   21.2300   -6.8755  -14.4342 N   0  0  0  0  0  0  0  0  0  0  0  0
   22.2321   -4.9685  -13.4340 C   0  0  0  0  0  0  0  0  0  0  0  0
   22.8135   -3.7044  -13.4418 O   0  0  0  0  0  0  0  0  0  0  0  0
   22.3808   -5.6783  -12.4189 O   0  0  0  0  0  0  0  0  0  0  0  0
  2  3  1  0
  2  1  1  1
  4  3  1  0
  4  8  1  0
  5  6  1  0
  5  4  2  0
  6  7  1  0
  7  8  2  0
  9  2  1  0
 10  9  2  0
 12 11  1  6
 12 14  1  0
 13 12  1  0
 14 16  1  0
 14 15  1  6
 15  9  1  0
 16 22  1  0
 17 16  2  0
 19 20  1  0
 19 18  1  6
 21 19  1  0
 21 23  1  0
 21 22  1  1
 23 25  2  0
 23 24  1  0
M  END
$$$$
