HVT.pdb
     RDKit          3D

 25 25  0  0  1  0  0  0  0  0999 V2000
   16.4398  -14.3430  -18.1516 N   0  0  0  0  0  0  0  0  0  0  0  0
   17.3063  -13.9495  -17.0498 C   0  0  1  0  0  0  0  0  0  0  0  0
   18.4094  -15.0162  -16.9510 C   0  0  0  0  0  0  0  0  0  0  0  0
   17.8460  -16.3329  -16.5720 C   0  0  0  0  0  0  0  0  0  0  0  0
   17.3938  -16.6705  -15.2936 C   0  0  0  0  0  0  0  0  0  0  0  0
   16.9691  -17.9275  -15.3466 N   0  0  0  0  0  0  0  0  0  0  0  0
   17.1365  -18.3893  -16.6002 C   0  0  0  0  0  0  0  0  0  0  0  0
   17.6734  -17.4104  -17.3429 N   0  0  0  0  0  0  0  0  0  0  0  0
   17.8937  -12.6225  -17.2730 C   0  0  0  0  0  0  0  0  0  0  0  0
   18.5494  -12.4045  -18.3612 O   0  0  0  0  0  0  0  0  0  0  0  0
   16.0626   -9.3483  -15.9149 C   0  0  0  0  0  0  0  0  0  0  0  0
   17.0334   -9.3192  -17.0535 C   0  0  1  0  0  0  0  0  0  0  0  0
   17.5877   -7.8878  -17.1178 C   0  0  0  0  0  0  0  0  0  0  0  0
   18.2437  -10.1884  -16.7604 C   0  0  2  0  0  0  0  0  0  0  0  0
   17.8138  -11.5212  -16.3914 N   0  0  0  0  0  0  0  0  0  0  0  0
   19.0976   -9.5721  -15.7229 C   0  0  0  0  0  0  0  0  0  0  0  0
   18.7414   -9.4727  -14.5162 O   0  0  0  0  0  0  0  0  0  0  0  0
   23.1493  -10.3126  -15.4251 C   0  0  0  0  0  0  0  0  0  0  0  0
   22.7633   -8.8780  -15.4294 C   0  0  1  0  0  0  0  0  0  0  0  0
   22.9538   -8.3209  -16.6871 O   0  0  0  0  0  0  0  0  0  0  0  0
   21.3334   -8.6019  -15.0156 C   0  0  2  0  0  0  0  0  0  0  0  0
   20.3861   -9.0470  -16.0112 N   0  0  0  0  0  0  0  0  0  0  0  0
   21.1309   -7.1700  -14.7606 C   0  0  0  0  0  0  0  0  0  0  0  0
   21.7208   -6.5430  -13.6675 O   0  0  0  0  0  0  0  0  0  0  0  0
   20.4233   -6.4811  -15.5229 O   0  0  0  0  0  0  0  0  0  0  0  0
  2  3  1  0
  2  1  1  6
  4  3  1  0
  4  8  1  0
  5  6  1  0
  5  4  2  0
  6  7  1  0
  7  8  2  0
  9  2  1  0
 10  9  2  0
 12 11  1  1
 12 14  1  0
 13 12  1  0
 14 16  1  0
 14 15  1  1
 15  9  1  0
 16 22  1  0
 17 16  2  0
 19 20  1  0
 19 18  1  6
 21 19  1  0
 21 23  1  0
 21 22  1  6
 23 25  2  0
 23 24  1  0
M  END
$$$$
