HVT.pdb
     RDKit          3D

 25 25  0  0  1  0  0  0  0  0999 V2000
   20.5773  -12.6235  -18.9496 N   0  0  0  0  0  0  0  0  0  0  0  0
   21.3287  -11.3796  -18.8610 C   0  0  1  0  0  0  0  0  0  0  0  0
   20.7873  -10.4555  -19.9643 C   0  0  0  0  0  0  0  0  0  0  0  0
   21.1842  -10.9385  -21.3074 C   0  0  0  0  0  0  0  0  0  0  0  0
   22.3452  -10.5545  -21.9837 C   0  0  0  0  0  0  0  0  0  0  0  0
   22.3489  -11.1901  -23.1495 N   0  0  0  0  0  0  0  0  0  0  0  0
   21.2423  -11.9529  -23.2311 C   0  0  0  0  0  0  0  0  0  0  0  0
   20.5353  -11.7935  -22.1029 N   0  0  0  0  0  0  0  0  0  0  0  0
   21.1763  -10.7501  -17.5433 C   0  0  0  0  0  0  0  0  0  0  0  0
   20.0138  -10.7399  -16.9865 O   0  0  0  0  0  0  0  0  0  0  0  0
   22.5520  -11.8104  -14.5260 C   0  0  0  0  0  0  0  0  0  0  0  0
   22.8248  -10.3406  -14.4567 C   0  0  1  0  0  0  0  0  0  0  0  0
   24.2761  -10.1439  -14.9211 C   0  0  0  0  0  0  0  0  0  0  0  0
   21.9889   -9.5824  -15.4729 C   0  0  2  0  0  0  0  0  0  0  0  0
   22.2039  -10.1332  -16.7950 N   0  0  0  0  0  0  0  0  0  0  0  0
   22.2790   -8.1339  -15.4199 C   0  0  0  0  0  0  0  0  0  0  0  0
   23.2372   -7.6062  -16.0493 O   0  0  0  0  0  0  0  0  0  0  0  0
   19.2369   -5.3467  -14.2696 C   0  0  0  0  0  0  0  0  0  0  0  0
   20.4674   -5.0351  -15.0415 C   0  0  1  0  0  0  0  0  0  0  0  0
   20.7635   -3.6803  -14.9695 O   0  0  0  0  0  0  0  0  0  0  0  0
   21.7008   -5.7994  -14.6097 C   0  0  2  0  0  0  0  0  0  0  0  0
   21.4955   -7.2286  -14.6546 N   0  0  0  0  0  0  0  0  0  0  0  0
   22.1073   -5.4112  -13.2530 C   0  0  0  0  0  0  0  0  0  0  0  0
   22.5793   -4.1307  -12.9818 O   0  0  0  0  0  0  0  0  0  0  0  0
   22.0365   -6.2244  -12.3096 O   0  0  0  0  0  0  0  0  0  0  0  0
  2  3  1  0
  2  1  1  1
  4  3  1  0
  4  8  1  0
  5  6  1  0
  5  4  2  0
  6  7  1  0
  7  8  2  0
  9  2  1  0
 10  9  2  0
 12 11  1  6
 12 14  1  0
 13 12  1  0
 14 16  1  0
 14 15  1  6
 15  9  1  0
 16 22  1  0
 17 16  2  0
 19 20  1  0
 19 18  1  1
 21 19  1  0
 21 23  1  0
 21 22  1  1
 23 25  2  0
 23 24  1  0
M  END
$$$$
