NLT.pdb
     RDKit          3D

 24 23  0  0  1  0  0  0  0  0999 V2000
    7.9789  -18.1501   18.4959 N   0  0  0  0  0  0  0  0  0  0  0  0
    7.3781  -17.7028   19.7021 C   0  0  0  0  0  0  0  0  0  0  0  0
    6.1508  -17.5115   19.7736 O   0  0  0  0  0  0  0  0  0  0  0  0
    8.2694  -17.4711   20.8782 C   0  0  0  0  0  0  0  0  0  0  0  0
    8.5554  -15.9994   20.9708 C   0  0  2  0  0  0  0  0  0  0  0  0
    9.6184  -15.6394   20.0549 N   0  0  0  0  0  0  0  0  0  0  0  0
    8.8476  -15.5306   22.3235 C   0  0  0  0  0  0  0  0  0  0  0  0
   10.0518  -15.5850   22.7238 O   0  0  0  0  0  0  0  0  0  0  0  0
    5.7536  -12.4075   26.6462 C   0  0  0  0  0  0  0  0  0  0  0  0
    7.0341  -13.0923   26.3187 C   0  0  2  0  0  0  0  0  0  0  0  0
    8.1632  -12.0651   26.5502 C   0  0  0  0  0  0  0  0  0  0  0  0
    7.1707  -13.6583   24.9751 C   0  0  0  0  0  0  0  0  0  0  0  0
    8.2805  -14.5777   24.6141 C   0  0  2  0  0  0  0  0  0  0  0  0
    7.9142  -15.0213   23.2300 N   0  0  0  0  0  0  0  0  0  0  0  0
    8.4028  -15.7656   25.4708 C   0  0  0  0  0  0  0  0  0  0  0  0
    7.4191  -16.5163   25.7216 O   0  0  0  0  0  0  0  0  0  0  0  0
   10.0920  -18.6691   24.5903 C   0  0  0  0  0  0  0  0  0  0  0  0
   10.6341  -18.3836   25.9529 C   0  0  1  0  0  0  0  0  0  0  0  0
   11.8868  -17.7575   25.7853 O   0  0  0  0  0  0  0  0  0  0  0  0
    9.7730  -17.4004   26.7164 C   0  0  2  0  0  0  0  0  0  0  0  0
    9.6662  -16.1340   26.0730 N   0  0  0  0  0  0  0  0  0  0  0  0
   10.3033  -17.2207   28.0885 C   0  0  0  0  0  0  0  0  0  0  0  0
   10.7332  -16.1110   28.4939 O   0  0  0  0  0  0  0  0  0  0  0  0
   10.3254  -18.3026   28.9440 O   0  0  0  0  0  0  0  0  0  0  0  0
  1  2  1  0
  2  3  2  0
  4  2  1  0
  4  5  1  0
  5  6  1  6
  7  5  1  0
  7  8  2  0
 10  9  1  6
 10 11  1  0
 10 12  1  0
 13 12  1  1
 13 14  1  0
 14  7  1  0
 15 13  1  0
 16 15  2  0
 18 17  1  6
 19 18  1  0
 20 18  1  0
 20 21  1  6
 21 15  1  0
 22 24  1  0
 22 20  1  0
 23 22  2  0
M  END
$$$$
