NLT.pdb
     RDKit          3D

 24 23  0  0  1  0  0  0  0  0999 V2000
    5.2975  -18.3416   19.8730 N   0  0  0  0  0  0  0  0  0  0  0  0
    6.6629  -17.9757   19.7406 C   0  0  0  0  0  0  0  0  0  0  0  0
    7.2129  -17.9474   18.6249 O   0  0  0  0  0  0  0  0  0  0  0  0
    7.4128  -17.6271   20.9846 C   0  0  0  0  0  0  0  0  0  0  0  0
    7.7183  -16.1567   20.9550 C   0  0  2  0  0  0  0  0  0  0  0  0
    8.6476  -15.8620   19.8836 N   0  0  0  0  0  0  0  0  0  0  0  0
    8.1967  -15.6193   22.2267 C   0  0  0  0  0  0  0  0  0  0  0  0
    9.4428  -15.6783   22.4653 O   0  0  0  0  0  0  0  0  0  0  0  0
    5.8122  -12.2579   26.8216 C   0  0  0  0  0  0  0  0  0  0  0  0
    6.9853  -13.0560   26.3715 C   0  0  2  0  0  0  0  0  0  0  0  0
    8.2159  -12.1272   26.4510 C   0  0  0  0  0  0  0  0  0  0  0  0
    6.9217  -13.6522   25.0356 C   0  0  0  0  0  0  0  0  0  0  0  0
    7.9387  -14.6222   24.5539 C   0  0  2  0  0  0  0  0  0  0  0  0
    7.4013  -15.0389   23.2182 N   0  0  0  0  0  0  0  0  0  0  0  0
    8.0961  -15.8198   25.3910 C   0  0  0  0  0  0  0  0  0  0  0  0
    7.1053  -16.4816   25.8089 O   0  0  0  0  0  0  0  0  0  0  0  0
    9.5609  -18.9107   24.3439 C   0  0  0  0  0  0  0  0  0  0  0  0
   10.2466  -18.5995   25.6342 C   0  0  1  0  0  0  0  0  0  0  0  0
   11.4968  -18.0270   25.3197 O   0  0  0  0  0  0  0  0  0  0  0  0
    9.5006  -17.5590   26.4418 C   0  0  2  0  0  0  0  0  0  0  0  0
    9.4043  -16.3014   25.7799 N   0  0  0  0  0  0  0  0  0  0  0  0
   10.1497  -17.3805   27.7620 C   0  0  0  0  0  0  0  0  0  0  0  0
   10.7180  -16.3057   28.0824 O   0  0  0  0  0  0  0  0  0  0  0  0
   10.1291  -18.4240   28.6640 O   0  0  0  0  0  0  0  0  0  0  0  0
  1  2  1  0
  2  3  2  0
  4  2  1  0
  4  5  1  0
  5  6  1  6
  7  5  1  0
  7  8  2  0
 10  9  1  6
 10 11  1  0
 10 12  1  0
 13 12  1  1
 13 14  1  0
 14  7  1  0
 15 13  1  0
 16 15  2  0
 18 17  1  6
 19 18  1  0
 20 18  1  0
 20 21  1  6
 21 15  1  0
 22 24  1  0
 22 20  1  0
 23 22  2  0
M  END
$$$$
