NLT.pdb
     RDKit          3D

 24 23  0  0  1  0  0  0  0  0999 V2000
    7.5184  -12.6172   18.1897 N   0  0  0  0  0  0  0  0  0  0  0  0
    8.0794  -13.6672   18.9634 C   0  0  0  0  0  0  0  0  0  0  0  0
    8.3318  -14.7737   18.4536 O   0  0  0  0  0  0  0  0  0  0  0  0
    8.3548  -13.3966   20.4064 C   0  0  0  0  0  0  0  0  0  0  0  0
    8.2257  -14.6885   21.1618 C   0  0  2  0  0  0  0  0  0  0  0  0
    6.8643  -15.1775   21.0843 N   0  0  0  0  0  0  0  0  0  0  0  0
    8.6794  -14.6184   22.5489 C   0  0  0  0  0  0  0  0  0  0  0  0
    9.9108  -14.3899   22.7602 O   0  0  0  0  0  0  0  0  0  0  0  0
    8.1260  -11.7669   26.2869 C   0  0  0  0  0  0  0  0  0  0  0  0
    7.0569  -12.6766   25.7917 C   0  0  2  0  0  0  0  0  0  0  0  0
    5.7864  -12.3619   26.6104 C   0  0  0  0  0  0  0  0  0  0  0  0
    7.3178  -14.1163   25.8485 C   0  0  0  0  0  0  0  0  0  0  0  0
    8.4173  -14.7512   25.0768 C   0  0  2  0  0  0  0  0  0  0  0  0
    7.8750  -14.7814   23.6798 N   0  0  0  0  0  0  0  0  0  0  0  0
    8.7447  -16.1251   25.4831 C   0  0  0  0  0  0  0  0  0  0  0  0
    7.8888  -17.0531   25.4622 O   0  0  0  0  0  0  0  0  0  0  0  0
   11.8398  -19.8110   25.8642 C   0  0  0  0  0  0  0  0  0  0  0  0
   11.6155  -18.3591   25.5933 C   0  0  1  0  0  0  0  0  0  0  0  0
   11.4311  -18.2135   24.2025 O   0  0  0  0  0  0  0  0  0  0  0  0
   10.3469  -17.8459   26.2402 C   0  0  2  0  0  0  0  0  0  0  0  0
   10.0737  -16.4826   25.9307 N   0  0  0  0  0  0  0  0  0  0  0  0
   10.4211  -18.0194   27.7101 C   0  0  0  0  0  0  0  0  0  0  0  0
   10.7482  -17.0761   28.4742 O   0  0  0  0  0  0  0  0  0  0  0  0
   10.1226  -19.2515   28.2541 O   0  0  0  0  0  0  0  0  0  0  0  0
  1  2  1  0
  2  3  2  0
  4  2  1  0
  4  5  1  0
  5  6  1  1
  7  5  1  0
  7  8  2  0
 10  9  1  1
 10 11  1  0
 10 12  1  0
 13 12  1  1
 13 14  1  0
 14  7  1  0
 15 13  1  0
 16 15  2  0
 18 17  1  6
 19 18  1  0
 20 18  1  0
 20 21  1  1
 21 15  1  0
 22 24  1  0
 22 20  1  0
 23 22  2  0
M  END
$$$$
