NLT.pdb
     RDKit          3D

 24 23  0  0  1  0  0  0  0  0999 V2000
   10.0765  -16.3196   17.5630 N   0  0  0  0  0  0  0  0  0  0  0  0
    8.9276  -16.1332   18.3763 C   0  0  0  0  0  0  0  0  0  0  0  0
    7.8260  -16.6086   18.0469 O   0  0  0  0  0  0  0  0  0  0  0  0
    9.0886  -15.3486   19.6371 C   0  0  0  0  0  0  0  0  0  0  0  0
    8.7765  -16.2504   20.7972 C   0  0  2  0  0  0  0  0  0  0  0  0
    7.3957  -16.6837   20.7345 N   0  0  0  0  0  0  0  0  0  0  0  0
    9.0864  -15.6738   22.1035 C   0  0  0  0  0  0  0  0  0  0  0  0
   10.3086  -15.4939   22.3985 O   0  0  0  0  0  0  0  0  0  0  0  0
    6.0197  -12.5984   26.4439 C   0  0  0  0  0  0  0  0  0  0  0  0
    7.2828  -13.3219   26.1326 C   0  0  2  0  0  0  0  0  0  0  0  0
    8.4385  -12.3242   26.3621 C   0  0  0  0  0  0  0  0  0  0  0  0
    7.4131  -13.9053   24.7959 C   0  0  0  0  0  0  0  0  0  0  0  0
    8.5416  -14.7999   24.4307 C   0  0  2  0  0  0  0  0  0  0  0  0
    8.1518  -15.2967   23.0714 N   0  0  0  0  0  0  0  0  0  0  0  0
    8.7259  -15.9566   25.3184 C   0  0  0  0  0  0  0  0  0  0  0  0
    7.7930  -16.7724   25.5600 O   0  0  0  0  0  0  0  0  0  0  0  0
   11.5960  -19.5443   26.7184 C   0  0  0  0  0  0  0  0  0  0  0  0
   11.3464  -18.2633   25.9914 C   0  0  1  0  0  0  0  0  0  0  0  0
   10.9529  -18.5941   24.6779 O   0  0  0  0  0  0  0  0  0  0  0  0
   10.1963  -17.4813   26.5890 C   0  0  2  0  0  0  0  0  0  0  0  0
    9.9949  -16.2176   25.9632 N   0  0  0  0  0  0  0  0  0  0  0  0
   10.4140  -17.2902   28.0423 C   0  0  0  0  0  0  0  0  0  0  0  0
   10.8726  -16.2169   28.5094 O   0  0  0  0  0  0  0  0  0  0  0  0
   10.1041  -18.3202   28.9061 O   0  0  0  0  0  0  0  0  0  0  0  0
  1  2  1  0
  2  3  2  0
  4  2  1  0
  4  5  1  0
  5  6  1  1
  7  5  1  0
  7  8  2  0
 10  9  1  6
 10 11  1  0
 10 12  1  0
 13 12  1  1
 13 14  1  0
 14  7  1  0
 15 13  1  0
 16 15  2  0
 18 17  1  1
 19 18  1  0
 20 18  1  0
 20 21  1  6
 21 15  1  0
 22 24  1  0
 22 20  1  0
 23 22  2  0
M  END
$$$$
