NLT.pdb
     RDKit          3D

 24 23  0  0  1  0  0  0  0  0999 V2000
   10.7555  -17.4954   12.6427 N   0  0  0  0  0  0  0  0  0  0  0  0
    9.6609  -17.2482   13.5124 C   0  0  0  0  0  0  0  0  0  0  0  0
    8.5505  -17.7712   13.3088 O   0  0  0  0  0  0  0  0  0  0  0  0
    9.8895  -16.3407   14.6767 C   0  0  0  0  0  0  0  0  0  0  0  0
   10.1679  -17.1863   15.8865 C   0  0  2  0  0  0  0  0  0  0  0  0
    9.1537  -18.2117   16.0223 N   0  0  0  0  0  0  0  0  0  0  0  0
   10.3150  -16.4270   17.1262 C   0  0  0  0  0  0  0  0  0  0  0  0
   11.4869  -16.0872   17.4790 O   0  0  0  0  0  0  0  0  0  0  0  0
    6.6651  -13.0052   20.6635 C   0  0  0  0  0  0  0  0  0  0  0  0
    8.0435  -13.5041   20.4052 C   0  0  2  0  0  0  0  0  0  0  0  0
    8.8493  -12.3177   19.8336 C   0  0  0  0  0  0  0  0  0  0  0  0
    8.1868  -14.6546   19.5109 C   0  0  0  0  0  0  0  0  0  0  0  0
    9.5009  -15.2998   19.2576 C   0  0  2  0  0  0  0  0  0  0  0  0
    9.2737  -16.0345   17.9711 N   0  0  0  0  0  0  0  0  0  0  0  0
    9.9230  -16.2658   20.2817 C   0  0  0  0  0  0  0  0  0  0  0  0
    9.5277  -17.4650   20.2766 O   0  0  0  0  0  0  0  0  0  0  0  0
   12.3880  -18.2670   20.5977 C   0  0  0  0  0  0  0  0  0  0  0  0
   12.4898  -17.5866   21.9238 C   0  0  1  0  0  0  0  0  0  0  0  0
   13.4741  -16.5830   21.8080 O   0  0  0  0  0  0  0  0  0  0  0  0
   11.2082  -16.8750   22.3013 C   0  0  2  0  0  0  0  0  0  0  0  0
   10.8183  -15.8858   21.3534 N   0  0  0  0  0  0  0  0  0  0  0  0
   11.3472  -16.2564   23.6407 C   0  0  0  0  0  0  0  0  0  0  0  0
   11.3767  -15.0091   23.7960 O   0  0  0  0  0  0  0  0  0  0  0  0
   11.4468  -17.0734   24.7477 O   0  0  0  0  0  0  0  0  0  0  0  0
  1  2  1  0
  2  3  2  0
  4  2  1  0
  4  5  1  0
  5  6  1  1
  7  5  1  0
  7  8  2  0
 10  9  1  6
 10 11  1  0
 10 12  1  0
 13 12  1  1
 13 14  1  0
 14  7  1  0
 15 13  1  0
 16 15  2  0
 18 17  1  6
 19 18  1  0
 20 18  1  0
 20 21  1  6
 21 15  1  0
 22 24  1  0
 22 20  1  0
 23 22  2  0
M  END
$$$$
