NLT.pdb
     RDKit          3D

 24 23  0  0  1  0  0  0  0  0999 V2000
    8.8713  -19.7337   16.0253 N   0  0  0  0  0  0  0  0  0  0  0  0
    9.3763  -18.5454   15.4346 C   0  0  0  0  0  0  0  0  0  0  0  0
    9.5372  -18.4605   14.2039 O   0  0  0  0  0  0  0  0  0  0  0  0
    9.7063  -17.4048   16.3410 C   0  0  0  0  0  0  0  0  0  0  0  0
    9.5716  -17.8761   17.7608 C   0  0  2  0  0  0  0  0  0  0  0  0
    8.2370  -18.3902   17.9912 N   0  0  0  0  0  0  0  0  0  0  0  0
    9.9264  -16.8716   18.7609 C   0  0  0  0  0  0  0  0  0  0  0  0
   11.1214  -16.4414   18.7726 O   0  0  0  0  0  0  0  0  0  0  0  0
    8.5244  -12.4858   19.4131 C   0  0  0  0  0  0  0  0  0  0  0  0
    7.7025  -13.6425   19.8629 C   0  0  2  0  0  0  0  0  0  0  0  0
    6.3492  -13.0720   20.3390 C   0  0  0  0  0  0  0  0  0  0  0  0
    8.2588  -14.4953   20.9153 C   0  0  0  0  0  0  0  0  0  0  0  0
    9.4930  -15.2971   20.7127 C   0  0  2  0  0  0  0  0  0  0  0  0
    9.0629  -16.3328   19.7182 N   0  0  0  0  0  0  0  0  0  0  0  0
    9.9914  -15.9794   21.9152 C   0  0  0  0  0  0  0  0  0  0  0  0
    9.2178  -16.3767   22.8306 O   0  0  0  0  0  0  0  0  0  0  0  0
   10.6958  -19.1105   22.4930 C   0  0  0  0  0  0  0  0  0  0  0  0
   11.9804  -18.4736   22.9126 C   0  0  1  0  0  0  0  0  0  0  0  0
   12.8602  -18.5347   21.8118 O   0  0  0  0  0  0  0  0  0  0  0  0
   11.8120  -17.0039   23.2333 C   0  0  2  0  0  0  0  0  0  0  0  0
   11.4035  -16.2299   22.1094 N   0  0  0  0  0  0  0  0  0  0  0  0
   13.0744  -16.4571   23.7843 C   0  0  0  0  0  0  0  0  0  0  0  0
   13.5254  -16.8227   24.8994 O   0  0  0  0  0  0  0  0  0  0  0  0
   13.7736  -15.5204   23.0516 O   0  0  0  0  0  0  0  0  0  0  0  0
  1  2  1  0
  2  3  2  0
  4  2  1  0
  4  5  1  0
  5  6  1  1
  7  5  1  0
  7  8  2  0
 10  9  1  1
 10 11  1  0
 10 12  1  0
 13 12  1  1
 13 14  1  0
 14  7  1  0
 15 13  1  0
 16 15  2  0
 18 17  1  6
 19 18  1  0
 20 18  1  0
 20 21  1  6
 21 15  1  0
 22 24  1  0
 22 20  1  0
 23 22  2  0
M  END
$$$$
