NLT.pdb
     RDKit          3D

 24 23  0  0  1  0  0  0  0  0999 V2000
    9.0498  -13.1509   18.2219 N   0  0  0  0  0  0  0  0  0  0  0  0
    8.1452  -13.6904   19.1740 C   0  0  0  0  0  0  0  0  0  0  0  0
    7.2027  -14.4211   18.8193 O   0  0  0  0  0  0  0  0  0  0  0  0
    8.3648  -13.3502   20.6118 C   0  0  0  0  0  0  0  0  0  0  0  0
    8.3573  -14.6258   21.4050 C   0  0  2  0  0  0  0  0  0  0  0  0
    7.0998  -15.3207   21.2199 N   0  0  0  0  0  0  0  0  0  0  0  0
    8.6549  -14.4494   22.8246 C   0  0  0  0  0  0  0  0  0  0  0  0
    9.8288  -14.0850   23.1446 O   0  0  0  0  0  0  0  0  0  0  0  0
    7.8095  -11.3700   26.0838 C   0  0  0  0  0  0  0  0  0  0  0  0
    6.7730  -12.3318   25.6186 C   0  0  2  0  0  0  0  0  0  0  0  0
    5.4384  -11.8976   26.2618 C   0  0  0  0  0  0  0  0  0  0  0  0
    6.9984  -13.7516   25.8968 C   0  0  0  0  0  0  0  0  0  0  0  0
    8.1447  -14.4982   25.3173 C   0  0  2  0  0  0  0  0  0  0  0  0
    7.7572  -14.6465   23.8771 N   0  0  0  0  0  0  0  0  0  0  0  0
    8.3618  -15.8361   25.8853 C   0  0  0  0  0  0  0  0  0  0  0  0
    8.2780  -16.0606   27.1250 O   0  0  0  0  0  0  0  0  0  0  0  0
    6.5764  -19.1190   25.0867 C   0  0  0  0  0  0  0  0  0  0  0  0
    8.0496  -19.3358   24.9657 C   0  0  1  0  0  0  0  0  0  0  0  0
    8.3764  -19.2539   23.5960 O   0  0  0  0  0  0  0  0  0  0  0  0
    8.8461  -18.2471   25.6524 C   0  0  2  0  0  0  0  0  0  0  0  0
    8.6850  -16.9689   25.0446 N   0  0  0  0  0  0  0  0  0  0  0  0
   10.2827  -18.6100   25.6793 C   0  0  0  0  0  0  0  0  0  0  0  0
   11.1559  -17.9063   25.1112 O   0  0  0  0  0  0  0  0  0  0  0  0
   10.6713  -19.7528   26.3472 O   0  0  0  0  0  0  0  0  0  0  0  0
  1  2  1  0
  2  3  2  0
  4  2  1  0
  4  5  1  0
  5  6  1  1
  7  5  1  0
  7  8  2  0
 10  9  1  1
 10 11  1  0
 10 12  1  0
 13 12  1  1
 13 14  1  0
 14  7  1  0
 15 13  1  0
 16 15  2  0
 18 17  1  6
 19 18  1  0
 20 18  1  0
 20 21  1  6
 21 15  1  0
 22 24  1  0
 22 20  1  0
 23 22  2  0
M  END
$$$$
