NLT.pdb
     RDKit          3D

 24 23  0  0  1  0  0  0  0  0999 V2000
    6.9005  -18.7533   20.5450 N   0  0  0  0  0  0  0  0  0  0  0  0
    8.2953  -18.8283   20.7999 C   0  0  0  0  0  0  0  0  0  0  0  0
    9.0571  -19.4291   20.0211 O   0  0  0  0  0  0  0  0  0  0  0  0
    8.8132  -18.1622   22.0325 C   0  0  0  0  0  0  0  0  0  0  0  0
    8.9589  -16.6942   21.7498 C   0  0  2  0  0  0  0  0  0  0  0  0
   10.0431  -16.4715   20.8152 N   0  0  0  0  0  0  0  0  0  0  0  0
    9.1182  -15.8678   22.9442 C   0  0  0  0  0  0  0  0  0  0  0  0
   10.2967  -15.6604   23.3701 O   0  0  0  0  0  0  0  0  0  0  0  0
    5.3937  -12.4170   26.4661 C   0  0  0  0  0  0  0  0  0  0  0  0
    6.7949  -12.8636   26.2363 C   0  0  2  0  0  0  0  0  0  0  0  0
    7.6548  -11.5885   26.1013 C   0  0  0  0  0  0  0  0  0  0  0  0
    7.0446  -13.7329   25.0847 C   0  0  0  0  0  0  0  0  0  0  0  0
    8.3124  -14.4911   24.9271 C   0  0  2  0  0  0  0  0  0  0  0  0
    8.0819  -15.2764   23.6715 N   0  0  0  0  0  0  0  0  0  0  0  0
    8.6121  -15.4284   26.0188 C   0  0  0  0  0  0  0  0  0  0  0  0
    8.9437  -15.0326   27.1710 O   0  0  0  0  0  0  0  0  0  0  0  0
    6.5722  -18.9519   26.6610 C   0  0  0  0  0  0  0  0  0  0  0  0
    8.0569  -19.0639   26.7844 C   0  0  1  0  0  0  0  0  0  0  0  0
    8.5421  -19.5905   25.5691 O   0  0  0  0  0  0  0  0  0  0  0  0
    8.7203  -17.7135   26.9504 C   0  0  2  0  0  0  0  0  0  0  0  0
    8.5413  -16.8606   25.8236 N   0  0  0  0  0  0  0  0  0  0  0  0
   10.1670  -17.8888   27.2196 C   0  0  0  0  0  0  0  0  0  0  0  0
   10.5921  -18.2750   28.3379 O   0  0  0  0  0  0  0  0  0  0  0  0
   11.0718  -17.6203   26.2135 O   0  0  0  0  0  0  0  0  0  0  0  0
  1  2  1  0
  2  3  2  0
  4  2  1  0
  4  5  1  0
  5  6  1  6
  7  5  1  0
  7  8  2  0
 10  9  1  6
 10 11  1  0
 10 12  1  0
 13 12  1  1
 13 14  1  0
 14  7  1  0
 15 13  1  0
 16 15  2  0
 18 17  1  6
 19 18  1  0
 20 18  1  0
 20 21  1  6
 21 15  1  0
 22 24  1  0
 22 20  1  0
 23 22  2  0
M  END
$$$$
