NLT.pdb
     RDKit          3D

 24 23  0  0  1  0  0  0  0  0999 V2000
    7.5601  -12.6416   18.1140 N   0  0  0  0  0  0  0  0  0  0  0  0
    8.2594  -13.6784   18.7862 C   0  0  0  0  0  0  0  0  0  0  0  0
    8.5541  -14.7360   18.2009 O   0  0  0  0  0  0  0  0  0  0  0  0
    8.6274  -13.4545   20.2166 C   0  0  0  0  0  0  0  0  0  0  0  0
    8.1989  -14.6572   21.0079 C   0  0  2  0  0  0  0  0  0  0  0  0
    6.7753  -14.8752   20.8520 N   0  0  0  0  0  0  0  0  0  0  0  0
    8.5702  -14.6075   22.4202 C   0  0  0  0  0  0  0  0  0  0  0  0
    9.8046  -14.5228   22.7072 O   0  0  0  0  0  0  0  0  0  0  0  0
    7.9092  -11.7370   26.2539 C   0  0  0  0  0  0  0  0  0  0  0  0
    6.8419  -12.5687   25.6336 C   0  0  2  0  0  0  0  0  0  0  0  0
    5.5235  -12.2170   26.3559 C   0  0  0  0  0  0  0  0  0  0  0  0
    7.0242  -14.0215   25.6515 C   0  0  0  0  0  0  0  0  0  0  0  0
    8.1371  -14.6873   24.9267 C   0  0  2  0  0  0  0  0  0  0  0  0
    7.6828  -14.6448   23.4989 N   0  0  0  0  0  0  0  0  0  0  0  0
    8.3698  -16.0886   25.3038 C   0  0  0  0  0  0  0  0  0  0  0  0
    7.4290  -16.9268   25.3849 O   0  0  0  0  0  0  0  0  0  0  0  0
    9.8626  -18.6943   23.5168 C   0  0  0  0  0  0  0  0  0  0  0  0
   10.5979  -18.7196   24.8170 C   0  0  1  0  0  0  0  0  0  0  0  0
   11.8198  -18.0420   24.6233 O   0  0  0  0  0  0  0  0  0  0  0  0
    9.8656  -17.9608   25.9029 C   0  0  2  0  0  0  0  0  0  0  0  0
    9.6983  -16.5783   25.6030 N   0  0  0  0  0  0  0  0  0  0  0  0
   10.5778  -18.1093   27.1940 C   0  0  0  0  0  0  0  0  0  0  0  0
   10.6738  -19.2200   27.7752 O   0  0  0  0  0  0  0  0  0  0  0  0
   11.1512  -16.9965   27.7734 O   0  0  0  0  0  0  0  0  0  0  0  0
  1  2  1  0
  2  3  2  0
  4  2  1  0
  4  5  1  0
  5  6  1  1
  7  5  1  0
  7  8  2  0
 10  9  1  1
 10 11  1  0
 10 12  1  0
 13 12  1  1
 13 14  1  0
 14  7  1  0
 15 13  1  0
 16 15  2  0
 18 17  1  6
 19 18  1  0
 20 18  1  0
 20 21  1  6
 21 15  1  0
 22 24  1  0
 22 20  1  0
 23 22  2  0
M  END
$$$$
