NLT.pdb
     RDKit          3D

 24 23  0  0  1  0  0  0  0  0999 V2000
    9.1619  -15.8937   18.3546 N   0  0  0  0  0  0  0  0  0  0  0  0
    8.1142  -15.9083   19.3128 C   0  0  0  0  0  0  0  0  0  0  0  0
    7.0897  -16.5904   19.1310 O   0  0  0  0  0  0  0  0  0  0  0  0
    8.2856  -15.0780   20.5427 C   0  0  0  0  0  0  0  0  0  0  0  0
    8.2880  -15.9935   21.7335 C   0  0  2  0  0  0  0  0  0  0  0  0
    7.0107  -16.6673   21.8470 N   0  0  0  0  0  0  0  0  0  0  0  0
    8.6498  -15.3405   22.9896 C   0  0  0  0  0  0  0  0  0  0  0  0
    9.8394  -14.9138   23.1160 O   0  0  0  0  0  0  0  0  0  0  0  0
    7.7323  -11.4525   25.6071 C   0  0  0  0  0  0  0  0  0  0  0  0
    6.7239  -12.5334   25.4320 C   0  0  2  0  0  0  0  0  0  0  0  0
    5.4404  -12.0696   26.1537 C   0  0  0  0  0  0  0  0  0  0  0  0
    7.0820  -13.8718   25.9059 C   0  0  0  0  0  0  0  0  0  0  0  0
    8.2724  -14.5990   25.3945 C   0  0  2  0  0  0  0  0  0  0  0  0
    7.7985  -15.1387   24.0790 N   0  0  0  0  0  0  0  0  0  0  0  0
    8.7166  -15.7230   26.2307 C   0  0  0  0  0  0  0  0  0  0  0  0
    9.0033  -15.5788   27.4518 O   0  0  0  0  0  0  0  0  0  0  0  0
    7.0726  -19.2915   26.6572 C   0  0  0  0  0  0  0  0  0  0  0  0
    8.5242  -19.4057   26.3230 C   0  0  1  0  0  0  0  0  0  0  0  0
    8.6189  -19.6665   24.9400 O   0  0  0  0  0  0  0  0  0  0  0  0
    9.2685  -18.1085   26.5567 C   0  0  2  0  0  0  0  0  0  0  0  0
    8.8481  -17.0590   25.6901 N   0  0  0  0  0  0  0  0  0  0  0  0
   10.7266  -18.3264   26.4068 C   0  0  0  0  0  0  0  0  0  0  0  0
   11.3989  -17.7351   25.5242 O   0  0  0  0  0  0  0  0  0  0  0  0
   11.3632  -19.2032   27.2607 O   0  0  0  0  0  0  0  0  0  0  0  0
  1  2  1  0
  2  3  2  0
  4  2  1  0
  4  5  1  0
  5  6  1  1
  7  5  1  0
  7  8  2  0
 10  9  1  1
 10 11  1  0
 10 12  1  0
 13 12  1  1
 13 14  1  0
 14  7  1  0
 15 13  1  0
 16 15  2  0
 18 17  1  6
 19 18  1  0
 20 18  1  0
 20 21  1  6
 21 15  1  0
 22 24  1  0
 22 20  1  0
 23 22  2  0
M  END
$$$$
