NLT.pdb
     RDKit          3D

 24 23  0  0  1  0  0  0  0  0999 V2000
    8.1093  -17.1443   18.6728 N   0  0  0  0  0  0  0  0  0  0  0  0
    9.1405  -16.1729   18.5787 C   0  0  0  0  0  0  0  0  0  0  0  0
    9.6191  -15.8519   17.4760 O   0  0  0  0  0  0  0  0  0  0  0  0
    9.6284  -15.5521   19.8467 C   0  0  0  0  0  0  0  0  0  0  0  0
    8.9070  -16.1969   20.9957 C   0  0  2  0  0  0  0  0  0  0  0  0
    7.4853  -16.2529   20.7235 N   0  0  0  0  0  0  0  0  0  0  0  0
    9.1686  -15.5743   22.2915 C   0  0  0  0  0  0  0  0  0  0  0  0
   10.3792  -15.4342   22.6495 O   0  0  0  0  0  0  0  0  0  0  0  0
    5.9674  -12.6053   26.6501 C   0  0  0  0  0  0  0  0  0  0  0  0
    7.2401  -13.3071   26.3285 C   0  0  2  0  0  0  0  0  0  0  0  0
    8.3829  -12.3005   26.5819 C   0  0  0  0  0  0  0  0  0  0  0  0
    7.3815  -13.8617   24.9807 C   0  0  0  0  0  0  0  0  0  0  0  0
    8.5059  -14.7588   24.6093 C   0  0  2  0  0  0  0  0  0  0  0  0
    8.1991  -15.1125   23.1854 N   0  0  0  0  0  0  0  0  0  0  0  0
    8.5922  -15.9991   25.3930 C   0  0  0  0  0  0  0  0  0  0  0  0
    7.5669  -16.6615   25.7160 O   0  0  0  0  0  0  0  0  0  0  0  0
   10.0429  -19.1527   24.4216 C   0  0  0  0  0  0  0  0  0  0  0  0
   10.6635  -18.8411   25.7444 C   0  0  1  0  0  0  0  0  0  0  0  0
   11.9374  -18.2904   25.4929 O   0  0  0  0  0  0  0  0  0  0  0  0
    9.8917  -17.7826   26.5029 C   0  0  2  0  0  0  0  0  0  0  0  0
    9.8660  -16.5243   25.8358 N   0  0  0  0  0  0  0  0  0  0  0  0
   10.4600  -17.6165   27.8614 C   0  0  0  0  0  0  0  0  0  0  0  0
   11.0191  -16.5494   28.2212 O   0  0  0  0  0  0  0  0  0  0  0  0
   10.3725  -18.6633   28.7556 O   0  0  0  0  0  0  0  0  0  0  0  0
  1  2  1  0
  2  3  2  0
  4  2  1  0
  4  5  1  0
  5  6  1  6
  7  5  1  0
  7  8  2  0
 10  9  1  6
 10 11  1  0
 10 12  1  0
 13 12  1  1
 13 14  1  0
 14  7  1  0
 15 13  1  0
 16 15  2  0
 18 17  1  6
 19 18  1  0
 20 18  1  0
 20 21  1  6
 21 15  1  0
 22 24  1  0
 22 20  1  0
 23 22  2  0
M  END
$$$$
