NLT.pdb
     RDKit          3D

 24 23  0  0  1  0  0  0  0  0999 V2000
    7.7487  -12.4328   18.1308 N   0  0  0  0  0  0  0  0  0  0  0  0
    8.1017  -13.5803   18.8889 C   0  0  0  0  0  0  0  0  0  0  0  0
    8.0722  -14.7163   18.3824 O   0  0  0  0  0  0  0  0  0  0  0  0
    8.5083  -13.3752   20.3116 C   0  0  0  0  0  0  0  0  0  0  0  0
    8.2074  -14.6337   21.0744 C   0  0  2  0  0  0  0  0  0  0  0  0
    6.7980  -14.9530   20.9736 N   0  0  0  0  0  0  0  0  0  0  0  0
    8.6401  -14.6055   22.4698 C   0  0  0  0  0  0  0  0  0  0  0  0
    9.8828  -14.4872   22.7040 O   0  0  0  0  0  0  0  0  0  0  0  0
    8.1267  -11.8421   26.3750 C   0  0  0  0  0  0  0  0  0  0  0  0
    7.0179  -12.6673   25.8226 C   0  0  2  0  0  0  0  0  0  0  0  0
    5.7658  -12.3614   26.6724 C   0  0  0  0  0  0  0  0  0  0  0  0
    7.2182  -14.1169   25.7708 C   0  0  0  0  0  0  0  0  0  0  0  0
    8.3219  -14.7347   24.9914 C   0  0  2  0  0  0  0  0  0  0  0  0
    7.8038  -14.6976   23.5854 N   0  0  0  0  0  0  0  0  0  0  0  0
    8.6227  -16.1293   25.3443 C   0  0  0  0  0  0  0  0  0  0  0  0
    7.7486  -17.0388   25.2898 O   0  0  0  0  0  0  0  0  0  0  0  0
   11.5680  -19.9169   25.4580 C   0  0  0  0  0  0  0  0  0  0  0  0
   11.3475  -18.4602   25.2103 C   0  0  1  0  0  0  0  0  0  0  0  0
   10.9771  -18.3142   23.8572 O   0  0  0  0  0  0  0  0  0  0  0  0
   10.1944  -17.9103   26.0222 C   0  0  2  0  0  0  0  0  0  0  0  0
    9.9451  -16.5297   25.7749 N   0  0  0  0  0  0  0  0  0  0  0  0
   10.4453  -18.1216   27.4673 C   0  0  0  0  0  0  0  0  0  0  0  0
   10.7748  -17.1773   28.2290 O   0  0  0  0  0  0  0  0  0  0  0  0
   10.3130  -19.3913   27.9904 O   0  0  0  0  0  0  0  0  0  0  0  0
  1  2  1  0
  2  3  2  0
  4  2  1  0
  4  5  1  0
  5  6  1  1
  7  5  1  0
  7  8  2  0
 10  9  1  1
 10 11  1  0
 10 12  1  0
 13 12  1  1
 13 14  1  0
 14  7  1  0
 15 13  1  0
 16 15  2  0
 18 17  1  1
 19 18  1  0
 20 18  1  0
 20 21  1  1
 21 15  1  0
 22 24  1  0
 22 20  1  0
 23 22  2  0
M  END
$$$$
