NLT.pdb
     RDKit          3D

 24 23  0  0  1  0  0  0  0  0999 V2000
   12.2755  -19.4781   17.3768 N   0  0  0  0  0  0  0  0  0  0  0  0
   12.1177  -18.2821   16.6281 C   0  0  0  0  0  0  0  0  0  0  0  0
   12.8123  -18.0617   15.6196 O   0  0  0  0  0  0  0  0  0  0  0  0
   11.0915  -17.3013   17.0930 C   0  0  0  0  0  0  0  0  0  0  0  0
   10.5218  -17.7947   18.3924 C   0  0  2  0  0  0  0  0  0  0  0  0
    9.2006  -18.3489   18.1791 N   0  0  0  0  0  0  0  0  0  0  0  0
   10.5051  -16.7938   19.4568 C   0  0  0  0  0  0  0  0  0  0  0  0
   11.6188  -16.3286   19.8523 O   0  0  0  0  0  0  0  0  0  0  0  0
    8.8347  -12.5659   19.6299 C   0  0  0  0  0  0  0  0  0  0  0  0
    7.9175  -13.7124   19.8752 C   0  0  2  0  0  0  0  0  0  0  0  0
    6.4890  -13.1329   19.9597 C   0  0  0  0  0  0  0  0  0  0  0  0
    8.1703  -14.5359   21.0593 C   0  0  0  0  0  0  0  0  0  0  0  0
    9.4224  -15.3182   21.2251 C   0  0  2  0  0  0  0  0  0  0  0  0
    9.3635  -16.2937   20.0887 N   0  0  0  0  0  0  0  0  0  0  0  0
    9.5197  -16.0697   22.4843 C   0  0  0  0  0  0  0  0  0  0  0  0
    8.5319  -16.6813   22.9789 O   0  0  0  0  0  0  0  0  0  0  0  0
   10.5196  -19.1183   23.2334 C   0  0  0  0  0  0  0  0  0  0  0  0
   11.3616  -18.3228   24.1768 C   0  0  1  0  0  0  0  0  0  0  0  0
   12.6208  -18.1419   23.5676 O   0  0  0  0  0  0  0  0  0  0  0  0
   10.8049  -16.9344   24.4085 C   0  0  2  0  0  0  0  0  0  0  0  0
   10.7616  -16.1448   23.2236 N   0  0  0  0  0  0  0  0  0  0  0  0
   11.5999  -16.2357   25.4457 C   0  0  0  0  0  0  0  0  0  0  0  0
   12.3232  -15.2445   25.1721 O   0  0  0  0  0  0  0  0  0  0  0  0
   11.5438  -16.6869   26.7481 O   0  0  0  0  0  0  0  0  0  0  0  0
  1  2  1  0
  2  3  2  0
  4  2  1  0
  4  5  1  0
  5  6  1  6
  7  5  1  0
  7  8  2  0
 10  9  1  1
 10 11  1  0
 10 12  1  0
 13 12  1  1
 13 14  1  0
 14  7  1  0
 15 13  1  0
 16 15  2  0
 18 17  1  6
 19 18  1  0
 20 18  1  0
 20 21  1  6
 21 15  1  0
 22 24  1  0
 22 20  1  0
 23 22  2  0
M  END
$$$$
