FDI.pdb
     RDKit          3D

 28 28  0  0  1  0  0  0  0  0999 V2000
   27.9362  -20.7876  -17.1202 N   0  0  0  0  0  0  0  0  0  0  0  0
   27.7789  -19.9067  -15.9897 C   0  0  1  0  0  0  0  0  0  0  0  0
   27.1863  -18.6104  -16.5153 C   0  0  0  0  0  0  0  0  0  0  0  0
   28.2456  -17.9286  -17.2756 C   0  0  0  0  0  0  0  0  0  0  0  0
   29.5374  -17.8426  -16.8183 C   0  0  0  0  0  0  0  0  0  0  0  0
   30.5317  -17.1999  -17.5349 C   0  0  0  0  0  0  0  0  0  0  0  0
   30.1748  -16.6316  -18.7584 C   0  0  0  0  0  0  0  0  0  0  0  0
   28.8912  -16.6998  -19.2447 C   0  0  0  0  0  0  0  0  0  0  0  0
   27.9445  -17.3533  -18.4854 C   0  0  0  0  0  0  0  0  0  0  0  0
   26.8328  -20.5469  -15.0404 C   0  0  0  0  0  0  0  0  0  0  0  0
   25.9399  -21.3454  -15.4290 O   0  0  0  0  0  0  0  0  0  0  0  0
   26.9186  -20.2630  -13.6323 N   0  0  0  0  0  0  0  0  0  0  0  0
   25.9055  -20.6631  -12.7125 C   0  0  1  0  0  0  0  0  0  0  0  0
   26.2895  -20.5173  -11.2664 C   0  0  0  0  0  0  0  0  0  0  0  0
   25.3009  -21.0645  -10.3340 C   0  0  0  0  0  0  0  0  0  0  0  0
   24.2611  -21.6816  -10.6704 O   0  0  0  0  0  0  0  0  0  0  0  0
   24.5873  -20.0211  -13.0010 C   0  0  0  0  0  0  0  0  0  0  0  0
   24.5854  -18.8418  -13.3855 O   0  0  0  0  0  0  0  0  0  0  0  0
   25.5254  -20.8906   -8.9753 O   0  0  0  0  0  0  0  0  0  0  0  0
   20.7287  -18.8220  -16.5627 C   0  0  0  0  0  0  0  0  0  0  0  0
   20.7502  -19.1770  -15.0995 C   0  0  0  0  0  0  0  0  0  0  0  0
   22.0337  -19.8330  -14.6831 C   0  0  2  0  0  0  0  0  0  0  0  0
   22.2515  -21.0388  -15.5670 C   0  0  0  0  0  0  0  0  0  0  0  0
   22.0733  -20.1544  -13.2300 C   0  0  2  0  0  0  0  0  0  0  0  0
   23.3657  -20.7243  -12.8452 N   0  0  0  0  0  0  0  0  0  0  0  0
   20.9674  -21.0130  -12.7539 C   0  0  0  0  0  0  0  0  0  0  0  0
   21.0896  -22.3544  -12.5882 O   0  0  0  0  0  0  0  0  0  0  0  0
   19.8501  -20.4731  -12.4887 O   0  0  0  0  0  0  0  0  0  0  0  0
  2  1  1  6
  2  3  1  0
  2 10  1  0
  3  4  1  0
  4  9  2  0
  5  6  2  0
  5  4  1  0
  6  7  1  0
  7  8  2  0
  9  8  1  0
 10 12  1  0
 10 11  2  0
 12 13  1  0
 13 14  1  1
 15 14  1  0
 15 19  1  0
 16 15  2  0
 17 13  1  0
 17 18  2  0
 20 21  1  0
 22 24  1  0
 22 21  1  0
 22 23  1  6
 24 25  1  6
 25 17  1  0
 26 24  1  0
 27 26  1  0
 28 26  2  0
M  END
$$$$
