FDI.pdb
     RDKit          3D

 28 28  0  0  1  0  0  0  0  0999 V2000
   17.4473  -13.6438    7.2175 N   0  0  0  0  0  0  0  0  0  0  0  0
   17.6690  -14.8107    6.4002 C   0  0  1  0  0  0  0  0  0  0  0  0
   18.8954  -14.5305    5.5485 C   0  0  0  0  0  0  0  0  0  0  0  0
   18.4862  -13.5803    4.5021 C   0  0  0  0  0  0  0  0  0  0  0  0
   18.8902  -12.2680    4.5042 C   0  0  0  0  0  0  0  0  0  0  0  0
   18.5032  -11.3760    3.5194 C   0  0  0  0  0  0  0  0  0  0  0  0
   17.6749  -11.8598    2.5059 C   0  0  0  0  0  0  0  0  0  0  0  0
   17.2526  -13.1673    2.4744 C   0  0  0  0  0  0  0  0  0  0  0  0
   17.6714  -14.0081    3.4831 C   0  0  0  0  0  0  0  0  0  0  0  0
   17.9336  -15.9583    7.3054 C   0  0  0  0  0  0  0  0  0  0  0  0
   18.4970  -15.8082    8.4215 O   0  0  0  0  0  0  0  0  0  0  0  0
   17.5444  -17.2886    6.9187 N   0  0  0  0  0  0  0  0  0  0  0  0
   17.9179  -18.4397    7.6723 C   0  0  1  0  0  0  0  0  0  0  0  0
   17.3095  -19.7243    7.1829 C   0  0  0  0  0  0  0  0  0  0  0  0
   15.8500  -19.6798    7.0643 C   0  0  0  0  0  0  0  0  0  0  0  0
   15.1890  -20.2006    6.1331 O   0  0  0  0  0  0  0  0  0  0  0  0
   19.3984  -18.5579    7.8373 C   0  0  0  0  0  0  0  0  0  0  0  0
   20.0993  -18.5725    6.8139 O   0  0  0  0  0  0  0  0  0  0  0  0
   15.1392  -19.0132    8.0527 O   0  0  0  0  0  0  0  0  0  0  0  0
   24.1684  -16.1312    9.8684 C   0  0  0  0  0  0  0  0  0  0  0  0
   23.5124  -17.4858    9.9111 C   0  0  0  0  0  0  0  0  0  0  0  0
   22.0346  -17.4202    9.6599 C   0  0  2  0  0  0  0  0  0  0  0  0
   21.3824  -16.7857   10.8661 C   0  0  0  0  0  0  0  0  0  0  0  0
   21.4500  -18.7420    9.3027 C   0  0  2  0  0  0  0  0  0  0  0  0
   20.0006  -18.6513    9.1178 N   0  0  0  0  0  0  0  0  0  0  0  0
   21.7846  -19.8407   10.2342 C   0  0  0  0  0  0  0  0  0  0  0  0
   20.9024  -20.3430   11.1348 O   0  0  0  0  0  0  0  0  0  0  0  0
   22.9513  -20.3381   10.1928 O   0  0  0  0  0  0  0  0  0  0  0  0
  2  1  1  1
  2  3  1  0
  2 10  1  0
  3  4  1  0
  4  9  2  0
  5  6  2  0
  5  4  1  0
  6  7  1  0
  7  8  2  0
  9  8  1  0
 10 12  1  0
 10 11  2  0
 12 13  1  0
 13 14  1  6
 15 14  1  0
 15 19  1  0
 16 15  2  0
 17 13  1  0
 17 18  2  0
 20 21  1  0
 22 24  1  0
 22 21  1  0
 22 23  1  1
 24 25  1  1
 25 17  1  0
 26 24  1  0
 27 26  1  0
 28 26  2  0
M  END
$$$$
