FDI.pdb
     RDKit          3D

 28 28  0  0  1  0  0  0  0  0999 V2000
   29.4880  -21.6829  -16.6201 N   0  0  0  0  0  0  0  0  0  0  0  0
   29.5115  -21.6924  -15.1785 C   0  0  1  0  0  0  0  0  0  0  0  0
   30.7297  -20.8931  -14.7484 C   0  0  0  0  0  0  0  0  0  0  0  0
   30.9985  -21.2384  -13.3436 C   0  0  0  0  0  0  0  0  0  0  0  0
   31.7101  -22.3571  -12.9864 C   0  0  0  0  0  0  0  0  0  0  0  0
   31.9607  -22.6802  -11.6643 C   0  0  0  0  0  0  0  0  0  0  0  0
   31.4592  -21.8187  -10.6876 C   0  0  0  0  0  0  0  0  0  0  0  0
   30.7434  -20.6911  -11.0113 C   0  0  0  0  0  0  0  0  0  0  0  0
   30.5261  -20.4222  -12.3456 C   0  0  0  0  0  0  0  0  0  0  0  0
   28.2741  -21.0261  -14.6976 C   0  0  0  0  0  0  0  0  0  0  0  0
   27.9590  -19.8639  -15.0659 O   0  0  0  0  0  0  0  0  0  0  0  0
   27.3944  -21.7073  -13.7849 N   0  0  0  0  0  0  0  0  0  0  0  0
   26.2298  -21.0869  -13.2451 C   0  0  1  0  0  0  0  0  0  0  0  0
   24.9923  -21.2602  -14.0807 C   0  0  0  0  0  0  0  0  0  0  0  0
   23.8151  -20.5730  -13.5437 C   0  0  0  0  0  0  0  0  0  0  0  0
   22.6838  -21.0958  -13.3955 O   0  0  0  0  0  0  0  0  0  0  0  0
   25.9906  -21.4654  -11.8194 C   0  0  0  0  0  0  0  0  0  0  0  0
   25.9795  -22.6718  -11.5310 O   0  0  0  0  0  0  0  0  0  0  0  0
   23.9552  -19.2439  -13.1689 O   0  0  0  0  0  0  0  0  0  0  0  0
   28.2912  -19.2221   -7.5490 C   0  0  0  0  0  0  0  0  0  0  0  0
   27.5644  -20.2186   -8.4127 C   0  0  0  0  0  0  0  0  0  0  0  0
   26.0833  -19.9810   -8.4476 C   0  0  2  0  0  0  0  0  0  0  0  0
   25.5492  -20.1476   -7.0442 C   0  0  0  0  0  0  0  0  0  0  0  0
   25.3847  -20.8344   -9.4477 C   0  0  2  0  0  0  0  0  0  0  0  0
   25.7810  -20.4878  -10.8138 N   0  0  0  0  0  0  0  0  0  0  0  0
   23.9111  -20.8531   -9.3260 C   0  0  0  0  0  0  0  0  0  0  0  0
   23.2541  -21.5852   -8.3911 O   0  0  0  0  0  0  0  0  0  0  0  0
   23.2259  -20.1538  -10.1334 O   0  0  0  0  0  0  0  0  0  0  0  0
  2  1  1  6
  2  3  1  0
  2 10  1  0
  3  4  1  0
  4  9  2  0
  5  6  2  0
  5  4  1  0
  6  7  1  0
  7  8  2  0
  9  8  1  0
 10 12  1  0
 10 11  2  0
 12 13  1  0
 13 14  1  6
 15 14  1  0
 15 19  1  0
 16 15  2  0
 17 13  1  0
 17 18  2  0
 20 21  1  0
 22 24  1  0
 22 21  1  0
 22 23  1  1
 24 25  1  6
 25 17  1  0
 26 24  1  0
 27 26  1  0
 28 26  2  0
M  END
$$$$
