FDI.pdb
     RDKit          3D

 28 28  0  0  1  0  0  0  0  0999 V2000
   12.8148  -16.6847  -11.4191 N   0  0  0  0  0  0  0  0  0  0  0  0
   13.3818  -17.6705  -10.5329 C   0  0  1  0  0  0  0  0  0  0  0  0
   14.3258  -16.9359   -9.5963 C   0  0  0  0  0  0  0  0  0  0  0  0
   15.5576  -16.6616  -10.3529 C   0  0  0  0  0  0  0  0  0  0  0  0
   16.5350  -17.6092  -10.5318 C   0  0  0  0  0  0  0  0  0  0  0  0
   17.6932  -17.3484  -11.2431 C   0  0  0  0  0  0  0  0  0  0  0  0
   17.8399  -16.0698  -11.7827 C   0  0  0  0  0  0  0  0  0  0  0  0
   16.8808  -15.0987  -11.6220 C   0  0  0  0  0  0  0  0  0  0  0  0
   15.7488  -15.4184  -10.9035 C   0  0  0  0  0  0  0  0  0  0  0  0
   12.2712  -18.2789   -9.7565 C   0  0  0  0  0  0  0  0  0  0  0  0
   11.2548  -17.6162   -9.4200 O   0  0  0  0  0  0  0  0  0  0  0  0
   12.3351  -19.6625   -9.3663 N   0  0  0  0  0  0  0  0  0  0  0  0
   11.2673  -20.3086   -8.6773 C   0  0  1  0  0  0  0  0  0  0  0  0
   11.0261  -21.7300   -9.1030 C   0  0  0  0  0  0  0  0  0  0  0  0
    9.8744  -22.3560   -8.4486 C   0  0  0  0  0  0  0  0  0  0  0  0
    8.6923  -21.9413   -8.5248 O   0  0  0  0  0  0  0  0  0  0  0  0
   11.3920  -20.1906   -7.1929 C   0  0  0  0  0  0  0  0  0  0  0  0
   12.5303  -20.2115   -6.7005 O   0  0  0  0  0  0  0  0  0  0  0  0
   10.1012  -23.4932   -7.6858 O   0  0  0  0  0  0  0  0  0  0  0  0
    8.7760  -17.9270   -2.3865 C   0  0  0  0  0  0  0  0  0  0  0  0
   10.0882  -18.1646   -3.0857 C   0  0  0  0  0  0  0  0  0  0  0  0
    9.9191  -18.4586   -4.5472 C   0  0  2  0  0  0  0  0  0  0  0  0
    8.4835  -18.1701   -4.9197 C   0  0  0  0  0  0  0  0  0  0  0  0
   10.3569  -19.8334   -4.9145 C   0  0  2  0  0  0  0  0  0  0  0  0
   10.2538  -20.0580   -6.3574 N   0  0  0  0  0  0  0  0  0  0  0  0
    9.6802  -20.9190   -4.1727 C   0  0  0  0  0  0  0  0  0  0  0  0
    8.9768  -21.9065   -4.7826 O   0  0  0  0  0  0  0  0  0  0  0  0
    9.7579  -20.9296   -2.9062 O   0  0  0  0  0  0  0  0  0  0  0  0
  2  1  1  6
  2  3  1  0
  2 10  1  0
  3  4  1  0
  4  9  2  0
  5  6  2  0
  5  4  1  0
  6  7  1  0
  7  8  2  0
  9  8  1  0
 10 12  1  0
 10 11  2  0
 12 13  1  0
 13 14  1  1
 15 14  1  0
 15 19  1  0
 16 15  2  0
 17 13  1  0
 17 18  2  0
 20 21  1  0
 22 24  1  0
 22 21  1  0
 22 23  1  1
 24 25  1  6
 25 17  1  0
 26 24  1  0
 27 26  1  0
 28 26  2  0
M  END
$$$$
