FDI.pdb
     RDKit          3D

 28 28  0  0  1  0  0  0  0  0999 V2000
   25.7688  -17.5584  -17.5263 N   0  0  0  0  0  0  0  0  0  0  0  0
   26.2981  -17.9674  -16.2491 C   0  0  1  0  0  0  0  0  0  0  0  0
   27.0675  -16.7842  -15.6871 C   0  0  0  0  0  0  0  0  0  0  0  0
   28.3100  -16.6677  -16.4667 C   0  0  0  0  0  0  0  0  0  0  0  0
   29.3814  -17.5032  -16.2685 C   0  0  0  0  0  0  0  0  0  0  0  0
   30.5493  -17.3909  -17.0025 C   0  0  0  0  0  0  0  0  0  0  0  0
   30.6057  -16.3845  -17.9676 C   0  0  0  0  0  0  0  0  0  0  0  0
   29.5513  -15.5318  -18.1909 C   0  0  0  0  0  0  0  0  0  0  0  0
   28.4146  -15.6931  -17.4282 C   0  0  0  0  0  0  0  0  0  0  0  0
   25.1513  -18.2919  -15.3626 C   0  0  0  0  0  0  0  0  0  0  0  0
   24.1194  -17.5715  -15.3204 O   0  0  0  0  0  0  0  0  0  0  0  0
   25.1967  -19.4569  -14.5191 N   0  0  0  0  0  0  0  0  0  0  0  0
   24.1457  -19.7806  -13.6118 C   0  0  1  0  0  0  0  0  0  0  0  0
   22.9609  -20.4502  -14.2503 C   0  0  0  0  0  0  0  0  0  0  0  0
   21.9262  -20.8566  -13.2961 C   0  0  0  0  0  0  0  0  0  0  0  0
   21.8006  -22.0118  -12.8219 O   0  0  0  0  0  0  0  0  0  0  0  0
   24.6337  -20.5403  -12.4211 C   0  0  0  0  0  0  0  0  0  0  0  0
   25.2481  -21.5998  -12.6178 O   0  0  0  0  0  0  0  0  0  0  0  0
   21.0133  -19.8966  -12.8818 O   0  0  0  0  0  0  0  0  0  0  0  0
   27.9647  -20.4481   -7.6941 C   0  0  0  0  0  0  0  0  0  0  0  0
   26.6597  -21.0024   -8.2012 C   0  0  0  0  0  0  0  0  0  0  0  0
   26.1072  -20.2163   -9.3536 C   0  0  2  0  0  0  0  0  0  0  0  0
   25.9277  -18.7859   -8.9014 C   0  0  0  0  0  0  0  0  0  0  0  0
   24.8665  -20.8143   -9.9189 C   0  0  2  0  0  0  0  0  0  0  0  0
   24.4100  -20.0783  -11.0992 N   0  0  0  0  0  0  0  0  0  0  0  0
   23.7600  -20.9778   -8.9516 C   0  0  0  0  0  0  0  0  0  0  0  0
   22.5315  -20.4301   -9.1318 O   0  0  0  0  0  0  0  0  0  0  0  0
   23.9664  -21.6607   -7.9022 O   0  0  0  0  0  0  0  0  0  0  0  0
  2  1  1  6
  2  3  1  0
  2 10  1  0
  3  4  1  0
  4  9  2  0
  5  6  2  0
  5  4  1  0
  6  7  1  0
  7  8  2  0
  9  8  1  0
 10 12  1  0
 10 11  2  0
 12 13  1  0
 13 14  1  6
 15 14  1  0
 15 19  1  0
 16 15  2  0
 17 13  1  0
 17 18  2  0
 20 21  1  0
 22 24  1  0
 22 21  1  0
 22 23  1  1
 24 25  1  6
 25 17  1  0
 26 24  1  0
 27 26  1  0
 28 26  2  0
M  END
$$$$
