FDI.pdb
     RDKit          3D

 28 28  0  0  1  0  0  0  0  0999 V2000
   28.2778  -21.4015  -14.8035 N   0  0  0  0  0  0  0  0  0  0  0  0
   27.2443  -21.4918  -13.8023 C   0  0  1  0  0  0  0  0  0  0  0  0
   27.4241  -20.3061  -12.8696 C   0  0  0  0  0  0  0  0  0  0  0  0
   28.5847  -20.6016  -12.0147 C   0  0  0  0  0  0  0  0  0  0  0  0
   28.4865  -21.3804  -10.8880 C   0  0  0  0  0  0  0  0  0  0  0  0
   29.5794  -21.6560  -10.0850 C   0  0  0  0  0  0  0  0  0  0  0  0
   30.8064  -21.1085  -10.4621 C   0  0  0  0  0  0  0  0  0  0  0  0
   30.9387  -20.3251  -11.5835 C   0  0  0  0  0  0  0  0  0  0  0  0
   29.8140  -20.0859  -12.3435 C   0  0  0  0  0  0  0  0  0  0  0  0
   25.9318  -21.3985  -14.4913 C   0  0  0  0  0  0  0  0  0  0  0  0
   25.6698  -20.4683  -15.2987 O   0  0  0  0  0  0  0  0  0  0  0  0
   24.9148  -22.3867  -14.2462 N   0  0  0  0  0  0  0  0  0  0  0  0
   23.6658  -22.3794  -14.9335 C   0  0  1  0  0  0  0  0  0  0  0  0
   23.2444  -23.7205  -15.4661 C   0  0  0  0  0  0  0  0  0  0  0  0
   23.7160  -24.8508  -14.6622 C   0  0  0  0  0  0  0  0  0  0  0  0
   24.9155  -25.2036  -14.5533 O   0  0  0  0  0  0  0  0  0  0  0  0
   22.5789  -21.7364  -14.1346 C   0  0  0  0  0  0  0  0  0  0  0  0
   22.5676  -21.9248  -12.9086 O   0  0  0  0  0  0  0  0  0  0  0  0
   22.7701  -25.5909  -13.9664 O   0  0  0  0  0  0  0  0  0  0  0  0
   21.3578  -16.6651  -14.6848 C   0  0  0  0  0  0  0  0  0  0  0  0
   21.4963  -18.0543  -14.1207 C   0  0  0  0  0  0  0  0  0  0  0  0
   20.2837  -18.9022  -14.3692 C   0  0  2  0  0  0  0  0  0  0  0  0
   19.1099  -18.2570  -13.6702 C   0  0  0  0  0  0  0  0  0  0  0  0
   20.4860  -20.3264  -13.9856 C   0  0  2  0  0  0  0  0  0  0  0  0
   21.5823  -20.9320  -14.7436 N   0  0  0  0  0  0  0  0  0  0  0  0
   19.2737  -21.1693  -14.0673 C   0  0  0  0  0  0  0  0  0  0  0  0
   18.4612  -21.4034  -13.0058 O   0  0  0  0  0  0  0  0  0  0  0  0
   18.9775  -21.7013  -15.1806 O   0  0  0  0  0  0  0  0  0  0  0  0
  2  1  1  6
  2  3  1  0
  2 10  1  0
  3  4  1  0
  4  9  2  0
  5  6  2  0
  5  4  1  0
  6  7  1  0
  7  8  2  0
  9  8  1  0
 10 12  1  0
 10 11  2  0
 12 13  1  0
 13 14  1  1
 15 14  1  0
 15 19  1  0
 16 15  2  0
 17 13  1  0
 17 18  2  0
 20 21  1  0
 22 24  1  0
 22 21  1  0
 22 23  1  1
 24 25  1  6
 25 17  1  0
 26 24  1  0
 27 26  1  0
 28 26  2  0
M  END
$$$$
