FDI.pdb
     RDKit          3D

 28 28  0  0  1  0  0  0  0  0999 V2000
   25.3158  -17.1185  -16.6033 N   0  0  0  0  0  0  0  0  0  0  0  0
   26.1996  -17.7802  -15.6760 C   0  0  1  0  0  0  0  0  0  0  0  0
   27.1076  -16.7132  -15.0887 C   0  0  0  0  0  0  0  0  0  0  0  0
   28.1976  -16.4956  -16.0530 C   0  0  0  0  0  0  0  0  0  0  0  0
   28.2620  -15.3773  -16.8472 C   0  0  0  0  0  0  0  0  0  0  0  0
   29.2877  -15.1754  -17.7541 C   0  0  0  0  0  0  0  0  0  0  0  0
   30.2722  -16.1608  -17.8382 C   0  0  0  0  0  0  0  0  0  0  0  0
   30.2373  -17.2916  -17.0579 C   0  0  0  0  0  0  0  0  0  0  0  0
   29.1904  -17.4364  -16.1731 C   0  0  0  0  0  0  0  0  0  0  0  0
   25.3675  -18.3824  -14.6031 C   0  0  0  0  0  0  0  0  0  0  0  0
   24.4616  -17.7306  -14.0198 O   0  0  0  0  0  0  0  0  0  0  0  0
   25.5831  -19.7473  -14.2012 N   0  0  0  0  0  0  0  0  0  0  0  0
   24.7622  -20.3933  -13.2311 C   0  0  1  0  0  0  0  0  0  0  0  0
   23.8505  -21.4474  -13.7947 C   0  0  0  0  0  0  0  0  0  0  0  0
   23.0195  -22.1108  -12.7869 C   0  0  0  0  0  0  0  0  0  0  0  0
   22.9522  -23.3523  -12.6158 O   0  0  0  0  0  0  0  0  0  0  0  0
   25.5490  -20.9078  -12.0695 C   0  0  0  0  0  0  0  0  0  0  0  0
   26.3141  -21.8650  -12.2623 O   0  0  0  0  0  0  0  0  0  0  0  0
   22.2463  -21.3118  -11.9560 O   0  0  0  0  0  0  0  0  0  0  0  0
   28.7050  -19.7401   -7.1255 C   0  0  0  0  0  0  0  0  0  0  0  0
   27.6407  -20.6262   -7.7167 C   0  0  0  0  0  0  0  0  0  0  0  0
   26.9892  -20.0194   -8.9244 C   0  0  2  0  0  0  0  0  0  0  0  0
   26.3665  -18.7065   -8.5104 C   0  0  0  0  0  0  0  0  0  0  0  0
   26.0280  -20.9428   -9.5876 C   0  0  2  0  0  0  0  0  0  0  0  0
   25.4367  -20.3309  -10.7789 N   0  0  0  0  0  0  0  0  0  0  0  0
   24.9711  -21.4785   -8.7029 C   0  0  0  0  0  0  0  0  0  0  0  0
   25.2043  -22.4256   -7.7594 O   0  0  0  0  0  0  0  0  0  0  0  0
   23.7892  -21.0346   -8.8307 O   0  0  0  0  0  0  0  0  0  0  0  0
  2  1  1  6
  2  3  1  0
  2 10  1  0
  3  4  1  0
  4  9  2  0
  5  6  2  0
  5  4  1  0
  6  7  1  0
  7  8  2  0
  9  8  1  0
 10 12  1  0
 10 11  2  0
 12 13  1  0
 13 14  1  6
 15 14  1  0
 15 19  1  0
 16 15  2  0
 17 13  1  0
 17 18  2  0
 20 21  1  0
 22 24  1  0
 22 21  1  0
 22 23  1  1
 24 25  1  6
 25 17  1  0
 26 24  1  0
 27 26  1  0
 28 26  2  0
M  END
$$$$
