FDI.pdb
     RDKit          3D

 28 28  0  0  1  0  0  0  0  0999 V2000
   26.6338  -14.8998  -17.8192 N   0  0  0  0  0  0  0  0  0  0  0  0
   26.7897  -13.4703  -17.7149 C   0  0  1  0  0  0  0  0  0  0  0  0
   26.4009  -13.0828  -16.2984 C   0  0  0  0  0  0  0  0  0  0  0  0
   24.9897  -13.4594  -16.1199 C   0  0  0  0  0  0  0  0  0  0  0  0
   23.9697  -12.8136  -16.7740 C   0  0  0  0  0  0  0  0  0  0  0  0
   22.6431  -13.1691  -16.6036 C   0  0  0  0  0  0  0  0  0  0  0  0
   22.3689  -14.2230  -15.7310 C   0  0  0  0  0  0  0  0  0  0  0  0
   23.3663  -14.8902  -15.0611 C   0  0  0  0  0  0  0  0  0  0  0  0
   24.6683  -14.4903  -15.2718 C   0  0  0  0  0  0  0  0  0  0  0  0
   28.2203  -13.1488  -17.9524 C   0  0  0  0  0  0  0  0  0  0  0  0
   29.0606  -14.0379  -18.2508 O   0  0  0  0  0  0  0  0  0  0  0  0
   28.6834  -11.7906  -17.8447 N   0  0  0  0  0  0  0  0  0  0  0  0
   29.9174  -11.3602  -18.4145 C   0  0  1  0  0  0  0  0  0  0  0  0
   30.0918  -11.7261  -19.8621 C   0  0  0  0  0  0  0  0  0  0  0  0
   31.4069  -11.3778  -20.4057 C   0  0  0  0  0  0  0  0  0  0  0  0
   31.6328  -10.4131  -21.1761 O   0  0  0  0  0  0  0  0  0  0  0  0
   30.1801   -9.9085  -18.1765 C   0  0  0  0  0  0  0  0  0  0  0  0
   29.2792   -9.1010  -18.4503 O   0  0  0  0  0  0  0  0  0  0  0  0
   32.4880  -12.1703  -20.0454 O   0  0  0  0  0  0  0  0  0  0  0  0
   33.5014   -6.3016  -14.4735 C   0  0  0  0  0  0  0  0  0  0  0  0
   32.7022   -6.4509  -15.7409 C   0  0  0  0  0  0  0  0  0  0  0  0
   32.5075   -7.8853  -16.1355 C   0  0  2  0  0  0  0  0  0  0  0  0
   33.8701   -8.5265  -16.2573 C   0  0  0  0  0  0  0  0  0  0  0  0
   31.6734   -8.0399  -17.3589 C   0  0  2  0  0  0  0  0  0  0  0  0
   31.4163   -9.4506  -17.6540 N   0  0  0  0  0  0  0  0  0  0  0  0
   32.1952   -7.3479  -18.5572 C   0  0  0  0  0  0  0  0  0  0  0  0
   32.1852   -5.9980  -18.6963 O   0  0  0  0  0  0  0  0  0  0  0  0
   32.6740   -8.0468  -19.5019 O   0  0  0  0  0  0  0  0  0  0  0  0
  2  1  1  1
  2  3  1  0
  2 10  1  0
  3  4  1  0
  4  9  2  0
  5  6  2  0
  5  4  1  0
  6  7  1  0
  7  8  2  0
  9  8  1  0
 10 12  1  0
 10 11  2  0
 12 13  1  0
 13 14  1  6
 15 14  1  0
 15 19  1  0
 16 15  2  0
 17 13  1  0
 17 18  2  0
 20 21  1  0
 22 24  1  0
 22 21  1  0
 22 23  1  6
 24 25  1  6
 25 17  1  0
 26 24  1  0
 27 26  1  0
 28 26  2  0
M  END
$$$$
