FDI.pdb
     RDKit          3D

 28 28  0  0  1  0  0  0  0  0999 V2000
   26.2202  -19.7135  -18.1921 N   0  0  0  0  0  0  0  0  0  0  0  0
   26.4217  -19.9804  -16.7896 C   0  0  1  0  0  0  0  0  0  0  0  0
   26.6181  -18.6383  -16.1054 C   0  0  0  0  0  0  0  0  0  0  0  0
   27.8773  -18.0737  -16.6159 C   0  0  0  0  0  0  0  0  0  0  0  0
   27.9131  -16.9362  -17.3840 C   0  0  0  0  0  0  0  0  0  0  0  0
   29.0987  -16.4077  -17.8638 C   0  0  0  0  0  0  0  0  0  0  0  0
   30.2781  -17.0784  -17.5372 C   0  0  0  0  0  0  0  0  0  0  0  0
   30.2771  -18.2190  -16.7706 C   0  0  0  0  0  0  0  0  0  0  0  0
   29.0648  -18.6972  -16.3218 C   0  0  0  0  0  0  0  0  0  0  0  0
   25.1958  -20.6385  -16.2695 C   0  0  0  0  0  0  0  0  0  0  0  0
   24.0523  -20.3637  -16.7194 O   0  0  0  0  0  0  0  0  0  0  0  0
   25.2916  -21.6210  -15.2225 N   0  0  0  0  0  0  0  0  0  0  0  0
   24.1543  -22.3337  -14.7419 C   0  0  1  0  0  0  0  0  0  0  0  0
   24.4726  -23.6735  -14.1391 C   0  0  0  0  0  0  0  0  0  0  0  0
   23.2886  -24.4788  -13.8291 C   0  0  0  0  0  0  0  0  0  0  0  0
   23.3143  -25.6595  -13.4043 O   0  0  0  0  0  0  0  0  0  0  0  0
   23.3055  -21.5066  -13.8317 C   0  0  0  0  0  0  0  0  0  0  0  0
   23.8251  -21.0577  -12.7987 O   0  0  0  0  0  0  0  0  0  0  0  0
   22.0420  -23.8980  -14.0174 O   0  0  0  0  0  0  0  0  0  0  0  0
   20.2509  -16.6685  -13.2910 C   0  0  0  0  0  0  0  0  0  0  0  0
   20.2439  -18.1057  -12.8417 C   0  0  0  0  0  0  0  0  0  0  0  0
   21.0807  -18.9894  -13.7191 C   0  0  2  0  0  0  0  0  0  0  0  0
   20.5959  -18.8312  -15.1413 C   0  0  0  0  0  0  0  0  0  0  0  0
   21.1032  -20.4053  -13.2596 C   0  0  2  0  0  0  0  0  0  0  0  0
   21.9452  -21.2332  -14.1250 N   0  0  0  0  0  0  0  0  0  0  0  0
   19.7707  -21.0239  -13.0900 C   0  0  0  0  0  0  0  0  0  0  0  0
   19.3403  -22.0725  -13.8361 O   0  0  0  0  0  0  0  0  0  0  0  0
   18.9904  -20.5530  -12.2069 O   0  0  0  0  0  0  0  0  0  0  0  0
  2  1  1  6
  2  3  1  0
  2 10  1  0
  3  4  1  0
  4  9  2  0
  5  6  2  0
  5  4  1  0
  6  7  1  0
  7  8  2  0
  9  8  1  0
 10 12  1  0
 10 11  2  0
 12 13  1  0
 13 14  1  1
 15 14  1  0
 15 19  1  0
 16 15  2  0
 17 13  1  0
 17 18  2  0
 20 21  1  0
 22 24  1  0
 22 21  1  0
 22 23  1  6
 24 25  1  6
 25 17  1  0
 26 24  1  0
 27 26  1  0
 28 26  2  0
M  END
$$$$
