FDI.pdb
     RDKit          3D

 28 28  0  0  1  0  0  0  0  0999 V2000
   27.8009  -18.8685   -8.6277 N   0  0  0  0  0  0  0  0  0  0  0  0
   27.0812  -20.1141   -8.7232 C   0  0  1  0  0  0  0  0  0  0  0  0
   26.2714  -20.2588   -7.4460 C   0  0  0  0  0  0  0  0  0  0  0  0
   27.2083  -20.1077   -6.3215 C   0  0  0  0  0  0  0  0  0  0  0  0
   27.8949  -21.1718   -5.7907 C   0  0  0  0  0  0  0  0  0  0  0  0
   28.7748  -21.0272   -4.7324 C   0  0  0  0  0  0  0  0  0  0  0  0
   28.9460  -19.7438   -4.2118 C   0  0  0  0  0  0  0  0  0  0  0  0
   28.2743  -18.6578   -4.7198 C   0  0  0  0  0  0  0  0  0  0  0  0
   27.4112  -18.8649   -5.7743 C   0  0  0  0  0  0  0  0  0  0  0  0
   26.1696  -20.0259   -9.8926 C   0  0  0  0  0  0  0  0  0  0  0  0
   25.3580  -19.0732  -10.0322 O   0  0  0  0  0  0  0  0  0  0  0  0
   26.1958  -21.0452  -10.9081 N   0  0  0  0  0  0  0  0  0  0  0  0
   25.5335  -20.8881  -12.1608 C   0  0  1  0  0  0  0  0  0  0  0  0
   26.3652  -21.2710  -13.3531 C   0  0  0  0  0  0  0  0  0  0  0  0
   25.8674  -20.7289  -14.6199 C   0  0  0  0  0  0  0  0  0  0  0  0
   26.4277  -19.8221  -15.2824 O   0  0  0  0  0  0  0  0  0  0  0  0
   24.1948  -21.5516  -12.1855 C   0  0  0  0  0  0  0  0  0  0  0  0
   24.1324  -22.7493  -11.8686 O   0  0  0  0  0  0  0  0  0  0  0  0
   24.6883  -21.2535  -15.1308 O   0  0  0  0  0  0  0  0  0  0  0  0
   19.9924  -19.5715   -9.7872 C   0  0  0  0  0  0  0  0  0  0  0  0
   20.9375  -20.5338  -10.4565 C   0  0  0  0  0  0  0  0  0  0  0  0
   20.6718  -20.6764  -11.9262 C   0  0  2  0  0  0  0  0  0  0  0  0
   19.2717  -21.2177  -12.0985 C   0  0  0  0  0  0  0  0  0  0  0  0
   21.7061  -21.4884  -12.6243 C   0  0  2  0  0  0  0  0  0  0  0  0
   23.0210  -20.8482  -12.5575 N   0  0  0  0  0  0  0  0  0  0  0  0
   21.3758  -21.8464  -14.0206 C   0  0  0  0  0  0  0  0  0  0  0  0
   21.9894  -21.2867  -15.0939 O   0  0  0  0  0  0  0  0  0  0  0  0
   20.4757  -22.7166  -14.2280 O   0  0  0  0  0  0  0  0  0  0  0  0
  2  1  1  1
  2  3  1  0
  2 10  1  0
  3  4  1  0
  4  9  2  0
  5  6  2  0
  5  4  1  0
  6  7  1  0
  7  8  2  0
  9  8  1  0
 10 12  1  0
 10 11  2  0
 12 13  1  0
 13 14  1  6
 15 14  1  0
 15 19  1  0
 16 15  2  0
 17 13  1  0
 17 18  2  0
 20 21  1  0
 22 24  1  0
 22 21  1  0
 22 23  1  1
 24 25  1  6
 25 17  1  0
 26 24  1  0
 27 26  1  0
 28 26  2  0
M  END
$$$$
