FDI.pdb
     RDKit          3D

 28 28  0  0  1  0  0  0  0  0999 V2000
   28.1971  -21.0542  -15.4233 N   0  0  0  0  0  0  0  0  0  0  0  0
   27.2646  -21.2115  -14.3350 C   0  0  1  0  0  0  0  0  0  0  0  0
   27.3691  -19.9629  -13.4760 C   0  0  0  0  0  0  0  0  0  0  0  0
   26.4657  -20.1507  -12.3298 C   0  0  0  0  0  0  0  0  0  0  0  0
   26.8708  -20.7618  -11.1689 C   0  0  0  0  0  0  0  0  0  0  0  0
   26.0188  -20.9382  -10.0926 C   0  0  0  0  0  0  0  0  0  0  0  0
   24.7119  -20.4674  -10.2258 C   0  0  0  0  0  0  0  0  0  0  0  0
   24.2746  -19.8514  -11.3739 C   0  0  0  0  0  0  0  0  0  0  0  0
   25.1697  -19.7047  -12.4118 C   0  0  0  0  0  0  0  0  0  0  0  0
   25.9006  -21.3141  -14.9140 C   0  0  0  0  0  0  0  0  0  0  0  0
   25.5136  -20.5555  -15.8416 O   0  0  0  0  0  0  0  0  0  0  0  0
   24.9771  -22.3001  -14.4182 N   0  0  0  0  0  0  0  0  0  0  0  0
   23.6593  -22.4404  -14.9438 C   0  0  1  0  0  0  0  0  0  0  0  0
   23.3361  -23.8206  -15.4443 C   0  0  0  0  0  0  0  0  0  0  0  0
   22.0333  -23.9192  -16.1072 C   0  0  0  0  0  0  0  0  0  0  0  0
   21.6583  -23.1989  -17.0641 O   0  0  0  0  0  0  0  0  0  0  0  0
   22.6133  -21.9351  -14.0038 C   0  0  0  0  0  0  0  0  0  0  0  0
   22.9601  -21.6420  -12.8495 O   0  0  0  0  0  0  0  0  0  0  0  0
   21.1427  -24.8793  -15.6470 O   0  0  0  0  0  0  0  0  0  0  0  0
   20.6612  -16.9636  -13.5365 C   0  0  0  0  0  0  0  0  0  0  0  0
   20.0794  -18.3433  -13.3776 C   0  0  0  0  0  0  0  0  0  0  0  0
   20.9271  -19.4045  -14.0151 C   0  0  2  0  0  0  0  0  0  0  0  0
   21.1285  -19.0341  -15.4659 C   0  0  0  0  0  0  0  0  0  0  0  0
   20.3745  -20.7744  -13.8292 C   0  0  2  0  0  0  0  0  0  0  0  0
   21.2604  -21.7889  -14.4029 N   0  0  0  0  0  0  0  0  0  0  0  0
   18.9919  -20.9578  -14.3210 C   0  0  0  0  0  0  0  0  0  0  0  0
   18.6679  -21.8222  -15.3157 O   0  0  0  0  0  0  0  0  0  0  0  0
   18.0630  -20.2750  -13.7907 O   0  0  0  0  0  0  0  0  0  0  0  0
  2  1  1  6
  2  3  1  0
  2 10  1  0
  3  4  1  0
  4  9  2  0
  5  6  2  0
  5  4  1  0
  6  7  1  0
  7  8  2  0
  9  8  1  0
 10 12  1  0
 10 11  2  0
 12 13  1  0
 13 14  1  1
 15 14  1  0
 15 19  1  0
 16 15  2  0
 17 13  1  0
 17 18  2  0
 20 21  1  0
 22 24  1  0
 22 21  1  0
 22 23  1  6
 24 25  1  6
 25 17  1  0
 26 24  1  0
 27 26  1  0
 28 26  2  0
M  END
$$$$
