FDI.pdb
     RDKit          3D

 28 28  0  0  1  0  0  0  0  0999 V2000
   16.8885  -10.4316  -19.2937 N   0  0  0  0  0  0  0  0  0  0  0  0
   18.1651   -9.7699  -19.1891 C   0  0  1  0  0  0  0  0  0  0  0  0
   18.2529   -8.7877  -20.3447 C   0  0  0  0  0  0  0  0  0  0  0  0
   18.4447   -9.5792  -21.5702 C   0  0  0  0  0  0  0  0  0  0  0  0
   19.6689  -10.0842  -21.9332 C   0  0  0  0  0  0  0  0  0  0  0  0
   19.8470  -10.8275  -23.0868 C   0  0  0  0  0  0  0  0  0  0  0  0
   18.7240  -11.0523  -23.8843 C   0  0  0  0  0  0  0  0  0  0  0  0
   17.4848  -10.5611  -23.5497 C   0  0  0  0  0  0  0  0  0  0  0  0
   17.3704   -9.8278  -22.3883 C   0  0  0  0  0  0  0  0  0  0  0  0
   18.1941   -9.0356  -17.8982 C   0  0  0  0  0  0  0  0  0  0  0  0
   17.2978   -8.2088  -17.5837 O   0  0  0  0  0  0  0  0  0  0  0  0
   19.2657   -9.2581  -16.9639 N   0  0  0  0  0  0  0  0  0  0  0  0
   19.3337   -8.5837  -15.7097 C   0  0  1  0  0  0  0  0  0  0  0  0
   19.2409   -9.4899  -14.5138 C   0  0  0  0  0  0  0  0  0  0  0  0
   17.9712  -10.2145  -14.4180 C   0  0  0  0  0  0  0  0  0  0  0  0
   16.8476   -9.6770  -14.2636 O   0  0  0  0  0  0  0  0  0  0  0  0
   20.5103   -7.6672  -15.6177 C   0  0  0  0  0  0  0  0  0  0  0  0
   21.3065   -7.6441  -16.5687 O   0  0  0  0  0  0  0  0  0  0  0  0
   18.0070  -11.5994  -14.5037 O   0  0  0  0  0  0  0  0  0  0  0  0
   22.8090   -2.9144  -16.6368 C   0  0  0  0  0  0  0  0  0  0  0  0
   22.8390   -3.8591  -15.4646 C   0  0  0  0  0  0  0  0  0  0  0  0
   21.7346   -4.8736  -15.5119 C   0  0  2  0  0  0  0  0  0  0  0  0
   20.4187   -4.1320  -15.5429 C   0  0  0  0  0  0  0  0  0  0  0  0
   21.8206   -5.8730  -14.4118 C   0  0  2  0  0  0  0  0  0  0  0  0
   20.7254   -6.8417  -14.4849 N   0  0  0  0  0  0  0  0  0  0  0  0
   21.9095   -5.2947  -13.0537 C   0  0  0  0  0  0  0  0  0  0  0  0
   23.0394   -4.7248  -12.5636 O   0  0  0  0  0  0  0  0  0  0  0  0
   20.8828   -5.3330  -12.3088 O   0  0  0  0  0  0  0  0  0  0  0  0
  2  1  1  6
  2  3  1  0
  2 10  1  0
  3  4  1  0
  4  9  2  0
  5  6  2  0
  5  4  1  0
  6  7  1  0
  7  8  2  0
  9  8  1  0
 10 12  1  0
 10 11  2  0
 12 13  1  0
 13 14  1  1
 15 14  1  0
 15 19  1  0
 16 15  2  0
 17 13  1  0
 17 18  2  0
 20 21  1  0
 22 24  1  0
 22 21  1  0
 22 23  1  1
 24 25  1  1
 25 17  1  0
 26 24  1  0
 27 26  1  0
 28 26  2  0
M  END
$$$$
