KED.pdb
     RDKit          3D

 27 26  0  0  1  0  0  0  0  0999 V2000
    8.9856  -15.3490   16.9452 N   0  0  0  0  0  0  0  0  0  0  0  0
    9.7386  -14.5209   17.8652 C   0  0  1  0  0  0  0  0  0  0  0  0
    8.9851  -14.2019   19.1140 C   0  0  0  0  0  0  0  0  0  0  0  0
    7.8457  -13.2681   18.8116 C   0  0  0  0  0  0  0  0  0  0  0  0
    7.0518  -13.0401   20.1015 C   0  0  0  0  0  0  0  0  0  0  0  0
    5.8773  -12.1199   19.8704 C   0  0  0  0  0  0  0  0  0  0  0  0
    5.1180  -11.8807   21.0759 N   0  0  0  0  0  0  0  0  0  0  0  0
   11.0031  -15.2279   18.2860 C   0  0  0  0  0  0  0  0  0  0  0  0
   11.0546  -16.4730   18.4079 O   0  0  0  0  0  0  0  0  0  0  0  0
   12.1810  -14.5030   18.5584 N   0  0  0  0  0  0  0  0  0  0  0  0
   13.4451  -15.2076   18.9753 C   0  0  1  0  0  0  0  0  0  0  0  0
   14.5409  -14.5715   18.2465 C   0  0  0  0  0  0  0  0  0  0  0  0
   15.9390  -14.8034   18.6659 C   0  0  0  0  0  0  0  0  0  0  0  0
   16.9828  -14.1548   17.8631 C   0  0  0  0  0  0  0  0  0  0  0  0
   17.9384  -14.7714   17.3939 O   0  0  0  0  0  0  0  0  0  0  0  0
   13.3700  -15.3630   20.3839 C   0  0  0  0  0  0  0  0  0  0  0  0
   12.9619  -14.3925   21.1167 O   0  0  0  0  0  0  0  0  0  0  0  0
   16.8674  -12.7827   17.6351 O   0  0  0  0  0  0  0  0  0  0  0  0
   13.7017  -16.5340   21.1048 N   0  0  0  0  0  0  0  0  0  0  0  0
   13.6883  -16.5735   22.5619 C   0  0  1  0  0  0  0  0  0  0  0  0
   13.1477  -17.9148   23.0343 C   0  0  0  0  0  0  0  0  0  0  0  0
   13.1978  -18.0362   24.4948 C   0  0  0  0  0  0  0  0  0  0  0  0
   12.8160  -19.0772   25.0502 O   0  0  0  0  0  0  0  0  0  0  0  0
   15.0095  -16.2808   23.1184 C   0  0  0  0  0  0  0  0  0  0  0  0
   15.1740  -15.6671   24.3678 O   0  0  0  0  0  0  0  0  0  0  0  0
   13.6747  -16.9887   25.2749 O   0  0  0  0  0  0  0  0  0  0  0  0
   16.0551  -16.5639   22.5049 O   0  0  0  0  0  0  0  0  0  0  0  0
  2  1  1  6
  3  2  1  0
  4  3  1  0
  5  4  1  0
  5  6  1  0
  6  7  1  0
  8 10  1  0
  8  2  1  0
  9  8  2  0
 11 10  1  0
 11 12  1  1
 12 13  1  0
 13 14  1  0
 14 18  1  0
 15 14  2  0
 16 17  2  0
 16 11  1  0
 19 16  1  0
 20 21  1  6
 20 19  1  0
 22 21  1  0
 22 23  2  0
 24 20  1  0
 25 24  1  0
 26 22  1  0
 27 24  2  0
M  END
$$$$
