KED.pdb
     RDKit          3D

 27 26  0  0  1  0  0  0  0  0999 V2000
    5.8540  -16.0957   24.0579 N   0  0  0  0  0  0  0  0  0  0  0  0
    7.1368  -15.4259   24.1305 C   0  0  1  0  0  0  0  0  0  0  0  0
    7.3167  -14.6445   25.3899 C   0  0  0  0  0  0  0  0  0  0  0  0
    6.3374  -13.5042   25.4407 C   0  0  0  0  0  0  0  0  0  0  0  0
    6.4887  -12.7967   26.7907 C   0  0  0  0  0  0  0  0  0  0  0  0
    5.5142  -11.6512   26.9246 C   0  0  0  0  0  0  0  0  0  0  0  0
    5.5581  -11.0394   28.2326 N   0  0  0  0  0  0  0  0  0  0  0  0
    8.2552  -16.4370   24.0796 C   0  0  0  0  0  0  0  0  0  0  0  0
    8.1415  -17.5744   24.5909 O   0  0  0  0  0  0  0  0  0  0  0  0
    9.4781  -16.1321   23.4481 N   0  0  0  0  0  0  0  0  0  0  0  0
   10.5906  -17.1452   23.3842 C   0  0  1  0  0  0  0  0  0  0  0  0
   11.4149  -16.7921   22.2300 C   0  0  0  0  0  0  0  0  0  0  0  0
   12.6832  -17.5093   21.9817 C   0  0  0  0  0  0  0  0  0  0  0  0
   13.4521  -17.0966   20.8014 C   0  0  0  0  0  0  0  0  0  0  0  0
   14.2715  -17.8320   20.2527 O   0  0  0  0  0  0  0  0  0  0  0  0
   11.0579  -17.3100   24.7140 C   0  0  0  0  0  0  0  0  0  0  0  0
   11.2832  -16.2824   25.4480 O   0  0  0  0  0  0  0  0  0  0  0  0
   13.2294  -15.8142   20.2978 O   0  0  0  0  0  0  0  0  0  0  0  0
   11.3044  -18.5462   25.3559 N   0  0  0  0  0  0  0  0  0  0  0  0
   11.7928  -18.6201   26.7275 C   0  0  1  0  0  0  0  0  0  0  0  0
   10.8300  -19.4413   27.5719 C   0  0  0  0  0  0  0  0  0  0  0  0
   11.2603  -19.5115   28.9719 C   0  0  0  0  0  0  0  0  0  0  0  0
   12.3521  -19.0347   29.3163 O   0  0  0  0  0  0  0  0  0  0  0  0
   13.1600  -19.1387   26.7825 C   0  0  0  0  0  0  0  0  0  0  0  0
   14.0926  -18.6862   27.7259 O   0  0  0  0  0  0  0  0  0  0  0  0
   10.4509  -20.1107   29.9307 O   0  0  0  0  0  0  0  0  0  0  0  0
   13.5613  -20.0103   25.9894 O   0  0  0  0  0  0  0  0  0  0  0  0
  2  1  1  1
  3  2  1  0
  4  3  1  0
  5  4  1  0
  5  6  1  0
  6  7  1  0
  8 10  1  0
  8  2  1  0
  9  8  2  0
 11 10  1  0
 11 12  1  6
 12 13  1  0
 13 14  1  0
 14 18  1  0
 15 14  2  0
 16 17  2  0
 16 11  1  0
 19 16  1  0
 20 21  1  1
 20 19  1  0
 22 21  1  0
 22 23  2  0
 24 20  1  0
 25 24  1  0
 26 22  1  0
 27 24  2  0
M  END
$$$$
