KED.pdb
     RDKit          3D

 27 26  0  0  1  0  0  0  0  0999 V2000
    8.1971  -18.2569   18.9049 N   0  0  0  0  0  0  0  0  0  0  0  0
    8.1548  -17.5517   20.1700 C   0  0  1  0  0  0  0  0  0  0  0  0
    6.9586  -17.9001   20.9927 C   0  0  0  0  0  0  0  0  0  0  0  0
    5.7576  -18.0977   20.1093 C   0  0  0  0  0  0  0  0  0  0  0  0
    5.1263  -19.4517   20.4472 C   0  0  0  0  0  0  0  0  0  0  0  0
    3.9117  -19.7221   19.5919 C   0  0  0  0  0  0  0  0  0  0  0  0
    3.3159  -21.0083   19.8706 N   0  0  0  0  0  0  0  0  0  0  0  0
    9.3691  -17.8939   20.9971 C   0  0  0  0  0  0  0  0  0  0  0  0
    9.6690  -19.0781   21.2720 O   0  0  0  0  0  0  0  0  0  0  0  0
   10.2155  -16.8815   21.4931 N   0  0  0  0  0  0  0  0  0  0  0  0
   11.4682  -17.2239   22.2556 C   0  0  1  0  0  0  0  0  0  0  0  0
   12.4891  -16.2640   21.8398 C   0  0  0  0  0  0  0  0  0  0  0  0
   13.7735  -16.1908   22.5673 C   0  0  0  0  0  0  0  0  0  0  0  0
   14.7998  -15.3060   22.0029 C   0  0  0  0  0  0  0  0  0  0  0  0
   14.8964  -15.0867   20.7962 O   0  0  0  0  0  0  0  0  0  0  0  0
   11.0660  -17.4748   23.5932 C   0  0  0  0  0  0  0  0  0  0  0  0
   10.2344  -16.6884   24.1725 O   0  0  0  0  0  0  0  0  0  0  0  0
   15.6921  -14.6996   22.8883 O   0  0  0  0  0  0  0  0  0  0  0  0
   11.4940  -18.5584   24.3952 N   0  0  0  0  0  0  0  0  0  0  0  0
   11.1067  -18.6833   25.7951 C   0  0  1  0  0  0  0  0  0  0  0  0
   10.4711  -20.0450   26.0325 C   0  0  0  0  0  0  0  0  0  0  0  0
   10.2391  -20.2944   27.4587 C   0  0  0  0  0  0  0  0  0  0  0  0
   10.5587  -19.4443   28.3033 O   0  0  0  0  0  0  0  0  0  0  0  0
   12.2386  -18.4360   26.6887 C   0  0  0  0  0  0  0  0  0  0  0  0
   12.0691  -18.1971   28.0594 O   0  0  0  0  0  0  0  0  0  0  0  0
    9.6572  -21.4840   27.8825 O   0  0  0  0  0  0  0  0  0  0  0  0
   13.4113  -18.4254   26.2713 O   0  0  0  0  0  0  0  0  0  0  0  0
  2  1  1  6
  3  2  1  0
  4  3  1  0
  5  4  1  0
  5  6  1  0
  6  7  1  0
  8 10  1  0
  8  2  1  0
  9  8  2  0
 11 10  1  0
 11 12  1  1
 12 13  1  0
 13 14  1  0
 14 18  1  0
 15 14  2  0
 16 17  2  0
 16 11  1  0
 19 16  1  0
 20 21  1  6
 20 19  1  0
 22 21  1  0
 22 23  2  0
 24 20  1  0
 25 24  1  0
 26 22  1  0
 27 24  2  0
M  END
$$$$
