KED.pdb
     RDKit          3D

 27 26  0  0  1  0  0  0  0  0999 V2000
    9.0195  -16.6842   16.8829 N   0  0  0  0  0  0  0  0  0  0  0  0
    9.3159  -15.7513   17.9512 C   0  0  1  0  0  0  0  0  0  0  0  0
    8.3265  -15.8092   19.0679 C   0  0  0  0  0  0  0  0  0  0  0  0
    7.8436  -17.2199   19.2643 C   0  0  0  0  0  0  0  0  0  0  0  0
    6.8940  -17.2430   20.4659 C   0  0  0  0  0  0  0  0  0  0  0  0
    6.4531  -18.6496   20.7927 C   0  0  0  0  0  0  0  0  0  0  0  0
    5.5802  -18.7012   21.9427 N   0  0  0  0  0  0  0  0  0  0  0  0
   10.6673  -16.0563   18.5481 C   0  0  0  0  0  0  0  0  0  0  0  0
   11.0109  -17.2235   18.8438 O   0  0  0  0  0  0  0  0  0  0  0  0
   11.5982  -15.0269   18.7953 N   0  0  0  0  0  0  0  0  0  0  0  0
   12.9998  -15.3421   19.2470 C   0  0  1  0  0  0  0  0  0  0  0  0
   13.8884  -14.4326   18.5260 C   0  0  0  0  0  0  0  0  0  0  0  0
   15.3325  -14.4088   18.8393 C   0  0  0  0  0  0  0  0  0  0  0  0
   16.1679  -13.5182   18.0246 C   0  0  0  0  0  0  0  0  0  0  0  0
   17.0029  -12.7592   18.5148 O   0  0  0  0  0  0  0  0  0  0  0  0
   12.9407  -15.4948   20.6566 C   0  0  0  0  0  0  0  0  0  0  0  0
   12.2293  -14.6926   21.3607 O   0  0  0  0  0  0  0  0  0  0  0  0
   15.9913  -13.5492   16.6405 O   0  0  0  0  0  0  0  0  0  0  0  0
   13.6047  -16.4924   21.4081 N   0  0  0  0  0  0  0  0  0  0  0  0
   13.6135  -16.4832   22.8659 C   0  0  1  0  0  0  0  0  0  0  0  0
   12.8856  -17.7114   23.3915 C   0  0  0  0  0  0  0  0  0  0  0  0
   12.9964  -17.8254   24.8492 C   0  0  0  0  0  0  0  0  0  0  0  0
   13.6983  -17.0273   25.4884 O   0  0  0  0  0  0  0  0  0  0  0  0
   14.9743  -16.3769   23.3931 C   0  0  0  0  0  0  0  0  0  0  0  0
   16.0888  -16.8427   22.6821 O   0  0  0  0  0  0  0  0  0  0  0  0
   12.3163  -18.8268   25.5334 O   0  0  0  0  0  0  0  0  0  0  0  0
   15.2072  -15.8657   24.5041 O   0  0  0  0  0  0  0  0  0  0  0  0
  2  1  1  6
  3  2  1  0
  4  3  1  0
  5  4  1  0
  5  6  1  0
  6  7  1  0
  8 10  1  0
  8  2  1  0
  9  8  2  0
 11 10  1  0
 11 12  1  1
 12 13  1  0
 13 14  1  0
 14 18  1  0
 15 14  2  0
 16 17  2  0
 16 11  1  0
 19 16  1  0
 20 21  1  1
 20 19  1  0
 22 21  1  0
 22 23  2  0
 24 20  1  0
 25 24  1  0
 26 22  1  0
 27 24  2  0
M  END
$$$$
