KED.pdb
     RDKit          3D

 27 26  0  0  1  0  0  0  0  0999 V2000
    4.5024  -16.7108   21.8565 N   0  0  0  0  0  0  0  0  0  0  0  0
    5.9511  -16.6831   21.8666 C   0  0  1  0  0  0  0  0  0  0  0  0
    6.5134  -15.3866   21.3851 C   0  0  0  0  0  0  0  0  0  0  0  0
    6.9182  -15.4978   19.9409 C   0  0  0  0  0  0  0  0  0  0  0  0
    7.5026  -14.1532   19.4975 C   0  0  0  0  0  0  0  0  0  0  0  0
    7.9007  -14.1789   18.0413 C   0  0  0  0  0  0  0  0  0  0  0  0
    8.3286  -12.8845   17.5634 N   0  0  0  0  0  0  0  0  0  0  0  0
    6.4655  -16.8887   23.2698 C   0  0  0  0  0  0  0  0  0  0  0  0
    6.1532  -16.1197   24.2074 O   0  0  0  0  0  0  0  0  0  0  0  0
    7.3236  -17.9646   23.5755 N   0  0  0  0  0  0  0  0  0  0  0  0
    7.9468  -18.0946   24.9403 C   0  0  1  0  0  0  0  0  0  0  0  0
    7.2245  -19.1602   25.6325 C   0  0  0  0  0  0  0  0  0  0  0  0
    7.7126  -19.6567   26.9362 C   0  0  0  0  0  0  0  0  0  0  0  0
    6.9633  -20.7648   27.5406 C   0  0  0  0  0  0  0  0  0  0  0  0
    7.2627  -21.2524   28.6297 O   0  0  0  0  0  0  0  0  0  0  0  0
    9.3514  -18.0401   24.7451 C   0  0  0  0  0  0  0  0  0  0  0  0
    9.8857  -18.6455   23.7485 O   0  0  0  0  0  0  0  0  0  0  0  0
    5.8710  -21.2709   26.8344 O   0  0  0  0  0  0  0  0  0  0  0  0
   10.2730  -17.3466   25.5640 N   0  0  0  0  0  0  0  0  0  0  0  0
   11.6976  -17.6557   25.5562 C   0  0  1  0  0  0  0  0  0  0  0  0
   12.4854  -16.4351   25.1047 C   0  0  0  0  0  0  0  0  0  0  0  0
   12.7148  -16.4423   23.6564 C   0  0  0  0  0  0  0  0  0  0  0  0
   12.2637  -17.3606   22.9554 O   0  0  0  0  0  0  0  0  0  0  0  0
   12.1451  -18.1549   26.8568 C   0  0  0  0  0  0  0  0  0  0  0  0
   11.4672  -17.8528   28.0457 O   0  0  0  0  0  0  0  0  0  0  0  0
   13.4380  -15.4210   23.0504 O   0  0  0  0  0  0  0  0  0  0  0  0
   13.1546  -18.8747   26.9690 O   0  0  0  0  0  0  0  0  0  0  0  0
  2  1  1  1
  3  2  1  0
  4  3  1  0
  5  4  1  0
  5  6  1  0
  6  7  1  0
  8 10  1  0
  8  2  1  0
  9  8  2  0
 11 10  1  0
 11 12  1  6
 12 13  1  0
 13 14  1  0
 14 18  1  0
 15 14  2  0
 16 17  2  0
 16 11  1  0
 19 16  1  0
 20 21  1  1
 20 19  1  0
 22 21  1  0
 22 23  2  0
 24 20  1  0
 25 24  1  0
 26 22  1  0
 27 24  2  0
M  END
$$$$
