KED.pdb
     RDKit          3D

 27 26  0  0  1  0  0  0  0  0999 V2000
    6.9156  -18.6034   20.3149 N   0  0  0  0  0  0  0  0  0  0  0  0
    7.7489  -17.5134   19.8492 C   0  0  1  0  0  0  0  0  0  0  0  0
    7.3623  -16.1936   20.4304 C   0  0  0  0  0  0  0  0  0  0  0  0
    8.0729  -15.0792   19.7127 C   0  0  0  0  0  0  0  0  0  0  0  0
    7.6286  -13.7481   20.3264 C   0  0  0  0  0  0  0  0  0  0  0  0
    8.3248  -12.5796   19.6709 C   0  0  0  0  0  0  0  0  0  0  0  0
    8.3732  -12.7024   18.2323 N   0  0  0  0  0  0  0  0  0  0  0  0
    9.1870  -17.7565   20.2345 C   0  0  0  0  0  0  0  0  0  0  0  0
    9.5052  -18.1695   21.3729 O   0  0  0  0  0  0  0  0  0  0  0  0
   10.2312  -17.5247   19.3163 N   0  0  0  0  0  0  0  0  0  0  0  0
   11.6639  -17.8058   19.6856 C   0  0  1  0  0  0  0  0  0  0  0  0
   12.3757  -18.0708   18.4368 C   0  0  0  0  0  0  0  0  0  0  0  0
   13.8414  -18.2606   18.4486 C   0  0  0  0  0  0  0  0  0  0  0  0
   14.4948  -18.4189   17.1436 C   0  0  0  0  0  0  0  0  0  0  0  0
   15.2436  -17.5662   16.6686 O   0  0  0  0  0  0  0  0  0  0  0  0
   12.0259  -16.8321   20.6525 C   0  0  0  0  0  0  0  0  0  0  0  0
   11.9270  -15.5836   20.3754 O   0  0  0  0  0  0  0  0  0  0  0  0
   14.2423  -19.5911   16.4295 O   0  0  0  0  0  0  0  0  0  0  0  0
   12.4971  -17.1004   21.9589 N   0  0  0  0  0  0  0  0  0  0  0  0
   13.0076  -16.0465   22.8272 C   0  0  1  0  0  0  0  0  0  0  0  0
   12.1548  -15.9584   24.0839 C   0  0  0  0  0  0  0  0  0  0  0  0
   12.1113  -17.2368   24.8010 C   0  0  0  0  0  0  0  0  0  0  0  0
   12.6672  -18.2394   24.3281 O   0  0  0  0  0  0  0  0  0  0  0  0
   14.4254  -16.2424   23.1315 C   0  0  0  0  0  0  0  0  0  0  0  0
   14.8648  -17.1971   24.0589 O   0  0  0  0  0  0  0  0  0  0  0  0
   11.4492  -17.3414   26.0192 O   0  0  0  0  0  0  0  0  0  0  0  0
   15.3125  -15.5664   22.5785 O   0  0  0  0  0  0  0  0  0  0  0  0
  2  1  1  1
  3  2  1  0
  4  3  1  0
  5  4  1  0
  5  6  1  0
  6  7  1  0
  8 10  1  0
  8  2  1  0
  9  8  2  0
 11 10  1  0
 11 12  1  6
 12 13  1  0
 13 14  1  0
 14 18  1  0
 15 14  2  0
 16 17  2  0
 16 11  1  0
 19 16  1  0
 20 21  1  1
 20 19  1  0
 22 21  1  0
 22 23  2  0
 24 20  1  0
 25 24  1  0
 26 22  1  0
 27 24  2  0
M  END
$$$$
