KED.pdb
     RDKit          3D

 27 26  0  0  1  0  0  0  0  0999 V2000
    6.8380  -15.4124   22.1115 N   0  0  0  0  0  0  0  0  0  0  0  0
    8.0339  -14.6063   22.2507 C   0  0  1  0  0  0  0  0  0  0  0  0
    8.2649  -14.1417   23.6506 C   0  0  0  0  0  0  0  0  0  0  0  0
    7.0571  -13.4058   24.1620 C   0  0  0  0  0  0  0  0  0  0  0  0
    7.3130  -13.0101   25.6193 C   0  0  0  0  0  0  0  0  0  0  0  0
    6.1816  -12.1759   26.1706 C   0  0  0  0  0  0  0  0  0  0  0  0
    5.2605  -12.9530   26.9673 N   0  0  0  0  0  0  0  0  0  0  0  0
    9.2492  -15.4046   21.8487 C   0  0  0  0  0  0  0  0  0  0  0  0
    9.3165  -16.6418   22.0299 O   0  0  0  0  0  0  0  0  0  0  0  0
   10.3608  -14.7782   21.2495 N   0  0  0  0  0  0  0  0  0  0  0  0
   11.6032  -15.5605   20.9142 C   0  0  1  0  0  0  0  0  0  0  0  0
   12.2375  -14.8793   19.7872 C   0  0  0  0  0  0  0  0  0  0  0  0
   13.5664  -15.3186   19.3124 C   0  0  0  0  0  0  0  0  0  0  0  0
   14.1014  -14.6345   18.1290 C   0  0  0  0  0  0  0  0  0  0  0  0
   14.9630  -15.1337   17.4066 O   0  0  0  0  0  0  0  0  0  0  0  0
   12.2273  -15.8688   22.1509 C   0  0  0  0  0  0  0  0  0  0  0  0
   12.1142  -15.0666   23.1454 O   0  0  0  0  0  0  0  0  0  0  0  0
   13.5988  -13.3673   17.8295 O   0  0  0  0  0  0  0  0  0  0  0  0
   12.9899  -17.0281   22.4250 N   0  0  0  0  0  0  0  0  0  0  0  0
   13.5811  -17.2715   23.7352 C   0  0  1  0  0  0  0  0  0  0  0  0
   12.9680  -18.5200   24.3513 C   0  0  0  0  0  0  0  0  0  0  0  0
   13.6139  -18.8726   25.6197 C   0  0  0  0  0  0  0  0  0  0  0  0
   14.5770  -18.2121   26.0369 O   0  0  0  0  0  0  0  0  0  0  0  0
   15.0402  -17.3497   23.6588 C   0  0  0  0  0  0  0  0  0  0  0  0
   15.8566  -17.1847   24.7862 O   0  0  0  0  0  0  0  0  0  0  0  0
   13.1551  -19.9488   26.3710 O   0  0  0  0  0  0  0  0  0  0  0  0
   15.6282  -17.5668   22.5833 O   0  0  0  0  0  0  0  0  0  0  0  0
  2  1  1  1
  3  2  1  0
  4  3  1  0
  5  4  1  0
  5  6  1  0
  6  7  1  0
  8 10  1  0
  8  2  1  0
  9  8  2  0
 11 10  1  0
 11 12  1  6
 12 13  1  0
 13 14  1  0
 14 18  1  0
 15 14  2  0
 16 17  2  0
 16 11  1  0
 19 16  1  0
 20 21  1  6
 20 19  1  0
 22 21  1  0
 22 23  2  0
 24 20  1  0
 25 24  1  0
 26 22  1  0
 27 24  2  0
M  END
$$$$
