KED.pdb
     RDKit          3D

 27 26  0  0  1  0  0  0  0  0999 V2000
    8.3856  -14.0501   16.7877 N   0  0  0  0  0  0  0  0  0  0  0  0
    8.8772  -13.6820   18.1000 C   0  0  1  0  0  0  0  0  0  0  0  0
    7.8226  -13.7383   19.1553 C   0  0  0  0  0  0  0  0  0  0  0  0
    8.3949  -13.3366   20.4868 C   0  0  0  0  0  0  0  0  0  0  0  0
    7.2819  -13.4174   21.5359 C   0  0  0  0  0  0  0  0  0  0  0  0
    7.7494  -12.9026   22.8761 C   0  0  0  0  0  0  0  0  0  0  0  0
    6.6703  -12.7858   23.8294 N   0  0  0  0  0  0  0  0  0  0  0  0
    9.9746  -14.6246   18.5278 C   0  0  0  0  0  0  0  0  0  0  0  0
    9.8397  -15.8678   18.4645 O   0  0  0  0  0  0  0  0  0  0  0  0
   11.2013  -14.1322   19.0178 N   0  0  0  0  0  0  0  0  0  0  0  0
   12.3827  -15.0467   19.2076 C   0  0  1  0  0  0  0  0  0  0  0  0
   13.5208  -14.4046   18.5527 C   0  0  0  0  0  0  0  0  0  0  0  0
   14.8756  -14.9769   18.6987 C   0  0  0  0  0  0  0  0  0  0  0  0
   15.9707  -14.2502   18.0449 C   0  0  0  0  0  0  0  0  0  0  0  0
   16.9515  -13.8342   18.6601 O   0  0  0  0  0  0  0  0  0  0  0  0
   12.3420  -15.4769   20.5593 C   0  0  0  0  0  0  0  0  0  0  0  0
   11.8231  -14.7232   21.4583 O   0  0  0  0  0  0  0  0  0  0  0  0
   15.8753  -14.0329   16.6696 O   0  0  0  0  0  0  0  0  0  0  0  0
   12.8250  -16.7134   21.0477 N   0  0  0  0  0  0  0  0  0  0  0  0
   12.7506  -17.0681   22.4597 C   0  0  1  0  0  0  0  0  0  0  0  0
   12.4209  -18.5465   22.6011 C   0  0  0  0  0  0  0  0  0  0  0  0
   12.4041  -18.9669   24.0059 C   0  0  0  0  0  0  0  0  0  0  0  0
   13.4403  -19.3789   24.5487 O   0  0  0  0  0  0  0  0  0  0  0  0
   13.9768  -16.7028   23.1696 C   0  0  0  0  0  0  0  0  0  0  0  0
   14.0326  -16.6166   24.5675 O   0  0  0  0  0  0  0  0  0  0  0  0
   11.2292  -18.9076   24.7472 O   0  0  0  0  0  0  0  0  0  0  0  0
   15.0335  -16.4494   22.5621 O   0  0  0  0  0  0  0  0  0  0  0  0
  2  1  1  6
  3  2  1  0
  4  3  1  0
  5  4  1  0
  5  6  1  0
  6  7  1  0
  8 10  1  0
  8  2  1  0
  9  8  2  0
 11 10  1  0
 11 12  1  1
 12 13  1  0
 13 14  1  0
 14 18  1  0
 15 14  2  0
 16 17  2  0
 16 11  1  0
 19 16  1  0
 20 21  1  6
 20 19  1  0
 22 21  1  0
 22 23  2  0
 24 20  1  0
 25 24  1  0
 26 22  1  0
 27 24  2  0
M  END
$$$$
