KED.pdb
     RDKit          3D

 27 26  0  0  1  0  0  0  0  0999 V2000
    6.5552  -15.3937   22.3641 N   0  0  0  0  0  0  0  0  0  0  0  0
    7.7584  -14.9128   23.0128 C   0  0  1  0  0  0  0  0  0  0  0  0
    7.5344  -14.5088   24.4325 C   0  0  0  0  0  0  0  0  0  0  0  0
    6.8811  -13.1555   24.4929 C   0  0  0  0  0  0  0  0  0  0  0  0
    6.6830  -12.7793   25.9644 C   0  0  0  0  0  0  0  0  0  0  0  0
    6.0755  -11.4042   26.1046 C   0  0  0  0  0  0  0  0  0  0  0  0
    5.8143  -11.0541   27.4817 N   0  0  0  0  0  0  0  0  0  0  0  0
    8.8098  -15.9945   23.0266 C   0  0  0  0  0  0  0  0  0  0  0  0
    8.5350  -17.1793   23.3246 O   0  0  0  0  0  0  0  0  0  0  0  0
   10.1504  -15.7048   22.7009 N   0  0  0  0  0  0  0  0  0  0  0  0
   11.2130  -16.7694   22.7753 C   0  0  1  0  0  0  0  0  0  0  0  0
   12.2589  -16.3862   21.8288 C   0  0  0  0  0  0  0  0  0  0  0  0
   13.5259  -17.1457   21.7816 C   0  0  0  0  0  0  0  0  0  0  0  0
   14.0938  -17.3959   20.4513 C   0  0  0  0  0  0  0  0  0  0  0  0
   13.3960  -17.5449   19.4492 O   0  0  0  0  0  0  0  0  0  0  0  0
   11.4067  -17.0451   24.1538 C   0  0  0  0  0  0  0  0  0  0  0  0
   11.3110  -16.1016   25.0176 O   0  0  0  0  0  0  0  0  0  0  0  0
   15.4834  -17.4639   20.3413 O   0  0  0  0  0  0  0  0  0  0  0  0
   11.6972  -18.3129   24.7099 N   0  0  0  0  0  0  0  0  0  0  0  0
   11.8840  -18.5029   26.1432 C   0  0  1  0  0  0  0  0  0  0  0  0
   10.6902  -19.2471   26.7224 C   0  0  0  0  0  0  0  0  0  0  0  0
   10.8723  -19.5393   28.1477 C   0  0  0  0  0  0  0  0  0  0  0  0
   11.9157  -19.2032   28.7277 O   0  0  0  0  0  0  0  0  0  0  0  0
   13.1509  -19.1745   26.4344 C   0  0  0  0  0  0  0  0  0  0  0  0
   14.1099  -19.4217   25.4424 O   0  0  0  0  0  0  0  0  0  0  0  0
    9.8791  -20.1944   28.8673 O   0  0  0  0  0  0  0  0  0  0  0  0
   13.4378  -19.5605   27.5826 O   0  0  0  0  0  0  0  0  0  0  0  0
  2  1  1  1
  3  2  1  0
  4  3  1  0
  5  4  1  0
  5  6  1  0
  6  7  1  0
  8 10  1  0
  8  2  1  0
  9  8  2  0
 11 10  1  0
 11 12  1  1
 12 13  1  0
 13 14  1  0
 14 18  1  0
 15 14  2  0
 16 17  2  0
 16 11  1  0
 19 16  1  0
 20 21  1  6
 20 19  1  0
 22 21  1  0
 22 23  2  0
 24 20  1  0
 25 24  1  0
 26 22  1  0
 27 24  2  0
M  END
$$$$
