KED.pdb
     RDKit          3D

 27 26  0  0  1  0  0  0  0  0999 V2000
    5.9436  -15.9378   21.4207 N   0  0  0  0  0  0  0  0  0  0  0  0
    7.2425  -15.3749   21.7296 C   0  0  1  0  0  0  0  0  0  0  0  0
    7.1952  -13.9052   21.9881 C   0  0  0  0  0  0  0  0  0  0  0  0
    7.2229  -13.1460   20.6901 C   0  0  0  0  0  0  0  0  0  0  0  0
    8.6649  -13.1229   20.1742 C   0  0  0  0  0  0  0  0  0  0  0  0
    8.7609  -12.4265   18.8380 C   0  0  0  0  0  0  0  0  0  0  0  0
   10.0835  -12.5147   18.2635 N   0  0  0  0  0  0  0  0  0  0  0  0
    7.8068  -16.0194   22.9713 C   0  0  0  0  0  0  0  0  0  0  0  0
    7.0947  -16.2601   23.9727 O   0  0  0  0  0  0  0  0  0  0  0  0
    9.1685  -16.3762   23.0463 N   0  0  0  0  0  0  0  0  0  0  0  0
    9.7222  -17.0671   24.2646 C   0  0  1  0  0  0  0  0  0  0  0  0
   10.7350  -18.0082   23.7903 C   0  0  0  0  0  0  0  0  0  0  0  0
   11.5513  -18.7658   24.7619 C   0  0  0  0  0  0  0  0  0  0  0  0
   12.4924  -19.7463   24.2074 C   0  0  0  0  0  0  0  0  0  0  0  0
   13.6512  -19.4596   23.9101 O   0  0  0  0  0  0  0  0  0  0  0  0
    9.9258  -16.0560   25.2395 C   0  0  0  0  0  0  0  0  0  0  0  0
   10.6904  -15.0590   24.9813 O   0  0  0  0  0  0  0  0  0  0  0  0
   12.0336  -21.0507   24.0175 O   0  0  0  0  0  0  0  0  0  0  0  0
    9.3393  -16.0189   26.5261 N   0  0  0  0  0  0  0  0  0  0  0  0
    9.6251  -14.9492   27.4744 C   0  0  1  0  0  0  0  0  0  0  0  0
    8.3217  -14.3498   27.9806 C   0  0  0  0  0  0  0  0  0  0  0  0
    8.0075  -13.0862   27.3063 C   0  0  0  0  0  0  0  0  0  0  0  0
    8.8130  -12.5856   26.5071 O   0  0  0  0  0  0  0  0  0  0  0  0
   10.4822  -15.4145   28.5652 C   0  0  0  0  0  0  0  0  0  0  0  0
   11.0651  -14.5320   29.4850 O   0  0  0  0  0  0  0  0  0  0  0  0
    6.8042  -12.4343   27.5521 O   0  0  0  0  0  0  0  0  0  0  0  0
   10.7359  -16.6224   28.7280 O   0  0  0  0  0  0  0  0  0  0  0  0
  2  1  1  1
  3  2  1  0
  4  3  1  0
  5  4  1  0
  5  6  1  0
  6  7  1  0
  8 10  1  0
  8  2  1  0
  9  8  2  0
 11 10  1  0
 11 12  1  6
 12 13  1  0
 13 14  1  0
 14 18  1  0
 15 14  2  0
 16 17  2  0
 16 11  1  0
 19 16  1  0
 20 21  1  1
 20 19  1  0
 22 21  1  0
 22 23  2  0
 24 20  1  0
 25 24  1  0
 26 22  1  0
 27 24  2  0
M  END
$$$$
