KED.pdb
     RDKit          3D

 27 26  0  0  1  0  0  0  0  0999 V2000
   18.2878  -18.1626   16.0056 N   0  0  0  0  0  0  0  0  0  0  0  0
   17.7832  -17.4218   17.1441 C   0  0  1  0  0  0  0  0  0  0  0  0
   16.5990  -18.0687   17.7830 C   0  0  0  0  0  0  0  0  0  0  0  0
   16.0967  -19.1986   16.9269 C   0  0  0  0  0  0  0  0  0  0  0  0
   14.8857  -19.8296   17.6206 C   0  0  0  0  0  0  0  0  0  0  0  0
   13.5970  -19.1768   17.1812 C   0  0  0  0  0  0  0  0  0  0  0  0
   12.4379  -19.7635   17.8129 N   0  0  0  0  0  0  0  0  0  0  0  0
   18.8482  -17.3122   18.2069 C   0  0  0  0  0  0  0  0  0  0  0  0
   19.6111  -18.2672   18.4788 O   0  0  0  0  0  0  0  0  0  0  0  0
   19.0219  -16.1188   18.9368 N   0  0  0  0  0  0  0  0  0  0  0  0
   20.1727  -15.9573   19.8948 C   0  0  1  0  0  0  0  0  0  0  0  0
   20.8719  -14.7330   19.5094 C   0  0  0  0  0  0  0  0  0  0  0  0
   21.7492  -14.7272   18.3199 C   0  0  0  0  0  0  0  0  0  0  0  0
   22.4217  -13.4611   18.0046 C   0  0  0  0  0  0  0  0  0  0  0  0
   22.3536  -12.4736   18.7351 O   0  0  0  0  0  0  0  0  0  0  0  0
   19.6606  -16.2446   21.1868 C   0  0  0  0  0  0  0  0  0  0  0  0
   18.4381  -16.6069   21.3276 O   0  0  0  0  0  0  0  0  0  0  0  0
   23.1625  -13.3964   16.8236 O   0  0  0  0  0  0  0  0  0  0  0  0
   20.3901  -16.1833   22.3971 N   0  0  0  0  0  0  0  0  0  0  0  0
   19.7821  -16.5053   23.6823 C   0  0  1  0  0  0  0  0  0  0  0  0
   19.1141  -17.8701   23.6068 C   0  0  0  0  0  0  0  0  0  0  0  0
   17.7652  -17.8466   24.1814 C   0  0  0  0  0  0  0  0  0  0  0  0
   17.2999  -16.7945   24.6446 O   0  0  0  0  0  0  0  0  0  0  0  0
   20.7557  -16.4237   24.7715 C   0  0  0  0  0  0  0  0  0  0  0  0
   20.3671  -16.2911   26.1116 O   0  0  0  0  0  0  0  0  0  0  0  0
   16.9904  -19.0008   24.2130 O   0  0  0  0  0  0  0  0  0  0  0  0
   21.9813  -16.4677   24.5579 O   0  0  0  0  0  0  0  0  0  0  0  0
  2  1  1  6
  3  2  1  0
  4  3  1  0
  5  4  1  0
  5  6  1  0
  6  7  1  0
  8 10  1  0
  8  2  1  0
  9  8  2  0
 11 10  1  0
 11 12  1  1
 12 13  1  0
 13 14  1  0
 14 18  1  0
 15 14  2  0
 16 17  2  0
 16 11  1  0
 19 16  1  0
 20 21  1  6
 20 19  1  0
 22 21  1  0
 22 23  2  0
 24 20  1  0
 25 24  1  0
 26 22  1  0
 27 24  2  0
M  END
$$$$
