KED.pdb
     RDKit          3D

 27 26  0  0  1  0  0  0  0  0999 V2000
    6.6534  -17.5042   19.7471 N   0  0  0  0  0  0  0  0  0  0  0  0
    8.0549  -17.1518   19.6425 C   0  0  1  0  0  0  0  0  0  0  0  0
    8.3464  -15.7689   20.1240 C   0  0  0  0  0  0  0  0  0  0  0  0
    7.6469  -14.7570   19.2586 C   0  0  0  0  0  0  0  0  0  0  0  0
    8.1604  -13.3633   19.6327 C   0  0  0  0  0  0  0  0  0  0  0  0
    7.4606  -12.2867   18.8384 C   0  0  0  0  0  0  0  0  0  0  0  0
    7.9030  -10.9595   19.1985 N   0  0  0  0  0  0  0  0  0  0  0  0
    8.8910  -18.0905   20.4765 C   0  0  0  0  0  0  0  0  0  0  0  0
    8.5132  -18.4890   21.6019 O   0  0  0  0  0  0  0  0  0  0  0  0
   10.1381  -18.5552   20.0120 N   0  0  0  0  0  0  0  0  0  0  0  0
   10.9696  -19.5001   20.8390 C   0  0  1  0  0  0  0  0  0  0  0  0
   11.5596  -20.4631   19.9111 C   0  0  0  0  0  0  0  0  0  0  0  0
   11.2001  -21.8937   20.0046 C   0  0  0  0  0  0  0  0  0  0  0  0
   12.0143  -22.8292   19.2193 C   0  0  0  0  0  0  0  0  0  0  0  0
   11.5319  -23.5789   18.3716 O   0  0  0  0  0  0  0  0  0  0  0  0
   11.6870  -18.6969   21.7632 C   0  0  0  0  0  0  0  0  0  0  0  0
   12.2343  -17.6036   21.3750 O   0  0  0  0  0  0  0  0  0  0  0  0
   13.3889  -22.8533   19.4602 O   0  0  0  0  0  0  0  0  0  0  0  0
   11.8644  -18.9777   23.1381 N   0  0  0  0  0  0  0  0  0  0  0  0
   12.5542  -18.0554   24.0318 C   0  0  1  0  0  0  0  0  0  0  0  0
   11.5394  -17.3224   24.8963 C   0  0  0  0  0  0  0  0  0  0  0  0
   10.6948  -16.4264   24.1001 C   0  0  0  0  0  0  0  0  0  0  0  0
    9.4753  -16.6324   24.0084 O   0  0  0  0  0  0  0  0  0  0  0  0
   13.5704  -18.7417   24.8303 C   0  0  0  0  0  0  0  0  0  0  0  0
   13.7287  -20.1341   24.8000 O   0  0  0  0  0  0  0  0  0  0  0  0
   11.2483  -15.3349   23.4400 O   0  0  0  0  0  0  0  0  0  0  0  0
   14.3457  -18.1180   25.5784 O   0  0  0  0  0  0  0  0  0  0  0  0
  2  1  1  1
  3  2  1  0
  4  3  1  0
  5  4  1  0
  5  6  1  0
  6  7  1  0
  8 10  1  0
  8  2  1  0
  9  8  2  0
 11 10  1  0
 11 12  1  6
 12 13  1  0
 13 14  1  0
 14 18  1  0
 15 14  2  0
 16 17  2  0
 16 11  1  0
 19 16  1  0
 20 21  1  1
 20 19  1  0
 22 21  1  0
 22 23  2  0
 24 20  1  0
 25 24  1  0
 26 22  1  0
 27 24  2  0
M  END
$$$$
