KED.pdb
     RDKit          3D

 27 26  0  0  1  0  0  0  0  0999 V2000
   10.2809  -14.2252   17.8769 N   0  0  0  0  0  0  0  0  0  0  0  0
    9.2881  -13.7260   18.8067 C   0  0  1  0  0  0  0  0  0  0  0  0
    7.9841  -13.4078   18.1530 C   0  0  0  0  0  0  0  0  0  0  0  0
    7.9341  -14.0020   16.7722 C   0  0  0  0  0  0  0  0  0  0  0  0
    7.0283  -13.1261   15.9014 C   0  0  0  0  0  0  0  0  0  0  0  0
    6.8404  -13.7230   14.5273 C   0  0  0  0  0  0  0  0  0  0  0  0
    5.8880  -12.9848   13.7305 N   0  0  0  0  0  0  0  0  0  0  0  0
    9.0043  -14.7588   19.8689 C   0  0  0  0  0  0  0  0  0  0  0  0
    8.3178  -14.4934   20.8819 O   0  0  0  0  0  0  0  0  0  0  0  0
    9.5075  -16.0708   19.7553 N   0  0  0  0  0  0  0  0  0  0  0  0
    9.3204  -17.0709   20.8656 C   0  0  1  0  0  0  0  0  0  0  0  0
    8.5408  -18.1753   20.3097 C   0  0  0  0  0  0  0  0  0  0  0  0
    7.2006  -17.9199   19.7413 C   0  0  0  0  0  0  0  0  0  0  0  0
    6.4901  -19.0780   19.1857 C   0  0  0  0  0  0  0  0  0  0  0  0
    6.9691  -20.2112   19.1817 O   0  0  0  0  0  0  0  0  0  0  0  0
   10.5782  -17.1906   21.5119 C   0  0  0  0  0  0  0  0  0  0  0  0
   11.6149  -17.5381   20.8411 O   0  0  0  0  0  0  0  0  0  0  0  0
    5.2216  -18.8628   18.6449 O   0  0  0  0  0  0  0  0  0  0  0  0
   10.8297  -16.9451   22.8820 N   0  0  0  0  0  0  0  0  0  0  0  0
   12.1563  -17.1065   23.4645 C   0  0  1  0  0  0  0  0  0  0  0  0
   13.1786  -16.3475   22.6319 C   0  0  0  0  0  0  0  0  0  0  0  0
   14.5235  -16.4377   23.2093 C   0  0  0  0  0  0  0  0  0  0  0  0
   15.0083  -17.5420   23.4982 O   0  0  0  0  0  0  0  0  0  0  0  0
   12.1769  -16.7035   24.8710 C   0  0  0  0  0  0  0  0  0  0  0  0
   13.2045  -17.0888   25.7429 O   0  0  0  0  0  0  0  0  0  0  0  0
   15.2725  -15.2889   23.4387 O   0  0  0  0  0  0  0  0  0  0  0  0
   11.2777  -15.9963   25.3620 O   0  0  0  0  0  0  0  0  0  0  0  0
  2  1  1  6
  3  2  1  0
  4  3  1  0
  5  4  1  0
  5  6  1  0
  6  7  1  0
  8 10  1  0
  8  2  1  0
  9  8  2  0
 11 10  1  0
 11 12  1  6
 12 13  1  0
 13 14  1  0
 14 18  1  0
 15 14  2  0
 16 17  2  0
 16 11  1  0
 19 16  1  0
 20 21  1  6
 20 19  1  0
 22 21  1  0
 22 23  2  0
 24 20  1  0
 25 24  1  0
 26 22  1  0
 27 24  2  0
M  END
$$$$
