KED.pdb
     RDKit          3D

 27 26  0  0  1  0  0  0  0  0999 V2000
    7.8068  -16.5841   20.6417 N   0  0  0  0  0  0  0  0  0  0  0  0
    8.3630  -15.7546   21.6914 C   0  0  1  0  0  0  0  0  0  0  0  0
    7.3644  -15.3940   22.7411 C   0  0  0  0  0  0  0  0  0  0  0  0
    7.7258  -14.0790   23.3752 C   0  0  0  0  0  0  0  0  0  0  0  0
    6.6314  -13.7102   24.3813 C   0  0  0  0  0  0  0  0  0  0  0  0
    6.9543  -12.4217   25.0990 C   0  0  0  0  0  0  0  0  0  0  0  0
    5.9555  -12.0727   26.0827 N   0  0  0  0  0  0  0  0  0  0  0  0
    9.4868  -16.4810   22.3880 C   0  0  0  0  0  0  0  0  0  0  0  0
    9.3690  -17.6669   22.7724 O   0  0  0  0  0  0  0  0  0  0  0  0
   10.7197  -15.8424   22.6318 N   0  0  0  0  0  0  0  0  0  0  0  0
   11.8632  -16.5847   23.2718 C   0  0  1  0  0  0  0  0  0  0  0  0
   13.0923  -16.0319   22.7061 C   0  0  0  0  0  0  0  0  0  0  0  0
   14.4057  -16.5268   23.1691 C   0  0  0  0  0  0  0  0  0  0  0  0
   15.5919  -15.8724   22.6038 C   0  0  0  0  0  0  0  0  0  0  0  0
   16.3516  -15.1783   23.2780 O   0  0  0  0  0  0  0  0  0  0  0  0
   11.5574  -16.6742   24.6548 C   0  0  0  0  0  0  0  0  0  0  0  0
   10.5147  -16.0907   25.1215 O   0  0  0  0  0  0  0  0  0  0  0  0
   15.8495  -16.0579   21.2447 O   0  0  0  0  0  0  0  0  0  0  0  0
   12.3079  -17.3818   25.6227 N   0  0  0  0  0  0  0  0  0  0  0  0
   11.6760  -18.0413   26.7589 C   0  0  1  0  0  0  0  0  0  0  0  0
   10.6222  -19.0204   26.2635 C   0  0  0  0  0  0  0  0  0  0  0  0
   10.0082  -19.7623   27.3692 C   0  0  0  0  0  0  0  0  0  0  0  0
   10.3636  -19.5515   28.5386 O   0  0  0  0  0  0  0  0  0  0  0  0
   12.6657  -18.6827   27.6250 C   0  0  0  0  0  0  0  0  0  0  0  0
   13.5640  -19.6462   27.1460 O   0  0  0  0  0  0  0  0  0  0  0  0
    9.0201  -20.7089   27.1224 O   0  0  0  0  0  0  0  0  0  0  0  0
   12.7566  -18.4018   28.8343 O   0  0  0  0  0  0  0  0  0  0  0  0
  2  1  1  6
  3  2  1  0
  4  3  1  0
  5  4  1  0
  5  6  1  0
  6  7  1  0
  8 10  1  0
  8  2  1  0
  9  8  2  0
 11 10  1  0
 11 12  1  1
 12 13  1  0
 13 14  1  0
 14 18  1  0
 15 14  2  0
 16 17  2  0
 16 11  1  0
 19 16  1  0
 20 21  1  6
 20 19  1  0
 22 21  1  0
 22 23  2  0
 24 20  1  0
 25 24  1  0
 26 22  1  0
 27 24  2  0
M  END
$$$$
