KED.pdb
     RDKit          3D

 27 26  0  0  1  0  0  0  0  0999 V2000
    9.1402  -15.4039   17.1733 N   0  0  0  0  0  0  0  0  0  0  0  0
    9.9501  -14.4870   17.9497 C   0  0  1  0  0  0  0  0  0  0  0  0
    9.3029  -14.0788   19.2318 C   0  0  0  0  0  0  0  0  0  0  0  0
    7.9865  -13.4042   18.9599 C   0  0  0  0  0  0  0  0  0  0  0  0
    7.3086  -13.1083   20.3012 C   0  0  0  0  0  0  0  0  0  0  0  0
    6.0138  -12.3557   20.1099 C   0  0  0  0  0  0  0  0  0  0  0  0
    5.3942  -11.9959   21.3644 N   0  0  0  0  0  0  0  0  0  0  0  0
   11.2655  -15.1318   18.3098 C   0  0  0  0  0  0  0  0  0  0  0  0
   11.3564  -16.3568   18.5527 O   0  0  0  0  0  0  0  0  0  0  0  0
   12.4485  -14.3689   18.3855 N   0  0  0  0  0  0  0  0  0  0  0  0
   13.7593  -15.0077   18.7622 C   0  0  1  0  0  0  0  0  0  0  0  0
   14.7937  -14.3417   17.9730 C   0  0  0  0  0  0  0  0  0  0  0  0
   16.2207  -14.5955   18.2621 C   0  0  0  0  0  0  0  0  0  0  0  0
   17.1975  -13.8907   17.4231 C   0  0  0  0  0  0  0  0  0  0  0  0
   17.3510  -14.1429   16.2288 O   0  0  0  0  0  0  0  0  0  0  0  0
   13.7510  -15.1332   20.1758 C   0  0  0  0  0  0  0  0  0  0  0  0
   13.3912  -14.1426   20.9069 O   0  0  0  0  0  0  0  0  0  0  0  0
   17.9730  -12.8983   18.0244 O   0  0  0  0  0  0  0  0  0  0  0  0
   14.1030  -16.2935   20.9042 N   0  0  0  0  0  0  0  0  0  0  0  0
   14.0398  -16.3401   22.3599 C   0  0  1  0  0  0  0  0  0  0  0  0
   13.3271  -17.6093   22.8026 C   0  0  0  0  0  0  0  0  0  0  0  0
   13.3219  -17.7477   24.2624 C   0  0  0  0  0  0  0  0  0  0  0  0
   12.7742  -18.7235   24.7971 O   0  0  0  0  0  0  0  0  0  0  0  0
   15.3687  -16.2125   22.9586 C   0  0  0  0  0  0  0  0  0  0  0  0
   16.5258  -16.0607   22.1822 O   0  0  0  0  0  0  0  0  0  0  0  0
   13.9311  -16.7897   25.0652 O   0  0  0  0  0  0  0  0  0  0  0  0
   15.5352  -16.2336   24.1922 O   0  0  0  0  0  0  0  0  0  0  0  0
  2  1  1  1
  3  2  1  0
  4  3  1  0
  5  4  1  0
  5  6  1  0
  6  7  1  0
  8 10  1  0
  8  2  1  0
  9  8  2  0
 11 10  1  0
 11 12  1  1
 12 13  1  0
 13 14  1  0
 14 18  1  0
 15 14  2  0
 16 17  2  0
 16 11  1  0
 19 16  1  0
 20 21  1  6
 20 19  1  0
 22 21  1  0
 22 23  2  0
 24 20  1  0
 25 24  1  0
 26 22  1  0
 27 24  2  0
M  END
$$$$
