HIY.pdb
     RDKit          3D

 31 32  0  0  1  0  0  0  0  0999 V2000
   34.6537  -29.2264  -20.4908 N   0  0  0  0  0  0  0  0  0  0  0  0
   33.3888  -29.9040  -20.3010 C   0  0  1  0  0  0  0  0  0  0  0  0
   33.5491  -30.8144  -19.1052 C   0  0  0  0  0  0  0  0  0  0  0  0
   34.4139  -31.9466  -19.5374 C   0  0  0  0  0  0  0  0  0  0  0  0
   34.0485  -33.0047  -20.3673 C   0  0  0  0  0  0  0  0  0  0  0  0
   35.0813  -33.8394  -20.5424 N   0  0  0  0  0  0  0  0  0  0  0  0
   36.1021  -33.3117  -19.8242 C   0  0  0  0  0  0  0  0  0  0  0  0
   35.7000  -32.1754  -19.2214 N   0  0  0  0  0  0  0  0  0  0  0  0
   32.3456  -28.8776  -20.0595 C   0  0  0  0  0  0  0  0  0  0  0  0
   32.6185  -27.7741  -19.4965 O   0  0  0  0  0  0  0  0  0  0  0  0
   29.9291  -26.6408  -23.8837 C   0  0  0  0  0  0  0  0  0  0  0  0
   30.4424  -26.9134  -22.5149 C   0  0  0  0  0  0  0  0  0  0  0  0
   29.5351  -27.6943  -21.6474 C   0  0  2  0  0  0  0  0  0  0  0  0
   28.1590  -27.0211  -21.5518 C   0  0  0  0  0  0  0  0  0  0  0  0
   29.9699  -28.0261  -20.2720 C   0  0  2  0  0  0  0  0  0  0  0  0
   31.0070  -29.0803  -20.4434 N   0  0  0  0  0  0  0  0  0  0  0  0
   28.9089  -28.6761  -19.4268 C   0  0  0  0  0  0  0  0  0  0  0  0
   28.2450  -29.6533  -19.8949 O   0  0  0  0  0  0  0  0  0  0  0  0
   24.5554  -33.0390  -13.5329 O   0  0  0  0  0  0  0  0  0  0  0  0
   25.4530  -32.3545  -14.3188 C   0  0  0  0  0  0  0  0  0  0  0  0
   25.0357  -31.9941  -15.5906 C   0  0  0  0  0  0  0  0  0  0  0  0
   25.9093  -31.3081  -16.4030 C   0  0  0  0  0  0  0  0  0  0  0  0
   27.1720  -30.9901  -15.9525 C   0  0  0  0  0  0  0  0  0  0  0  0
   28.0724  -30.2623  -16.8406 C   0  0  0  0  0  0  0  0  0  0  0  0
   27.6922  -28.8703  -17.1915 C   0  0  2  0  0  0  0  0  0  0  0  0
   28.6107  -28.2468  -18.1131 N   0  0  0  0  0  0  0  0  0  0  0  0
   27.2605  -28.0188  -16.0688 C   0  0  0  0  0  0  0  0  0  0  0  0
   28.1009  -27.2490  -15.4804 O   0  0  0  0  0  0  0  0  0  0  0  0
   27.5760  -31.3479  -14.6995 C   0  0  0  0  0  0  0  0  0  0  0  0
   26.7112  -32.0345  -13.8772 C   0  0  0  0  0  0  0  0  0  0  0  0
   25.9790  -27.9569  -15.5479 O   0  0  0  0  0  0  0  0  0  0  0  0
  2  1  1  1
  3  4  1  0
  3  2  1  0
  4  8  1  0
  4  5  2  0
  5  6  1  0
  7  6  1  0
  8  7  2  0
  9 16  1  0
  9  2  1  0
 10  9  2  0
 11 12  1  0
 13 12  1  0
 13 15  1  0
 13 14  1  1
 15 16  1  6
 17 15  1  0
 18 17  2  0
 20 19  1  0
 20 30  2  0
 21 20  1  0
 22 21  2  0
 22 23  1  0
 23 29  2  0
 24 23  1  0
 25 26  1  0
 25 24  1  1
 26 17  1  0
 27 25  1  0
 28 27  2  0
 29 30  1  0
 31 27  1  0
M  END
$$$$
