HIY.pdb
     RDKit          3D

 31 32  0  0  1  0  0  0  0  0999 V2000
   26.2542  -19.1102  -17.9319 N   0  0  0  0  0  0  0  0  0  0  0  0
   25.4843  -18.6797  -16.7842 C   0  0  1  0  0  0  0  0  0  0  0  0
   24.1441  -18.2096  -17.3010 C   0  0  0  0  0  0  0  0  0  0  0  0
   24.3422  -16.8288  -17.8213 C   0  0  0  0  0  0  0  0  0  0  0  0
   23.8260  -15.6526  -17.2809 C   0  0  0  0  0  0  0  0  0  0  0  0
   24.2082  -14.5962  -18.0104 N   0  0  0  0  0  0  0  0  0  0  0  0
   24.9666  -15.1011  -19.0134 C   0  0  0  0  0  0  0  0  0  0  0  0
   25.0463  -16.4416  -18.8986 N   0  0  0  0  0  0  0  0  0  0  0  0
   25.3321  -19.8368  -15.8687 C   0  0  0  0  0  0  0  0  0  0  0  0
   25.2423  -21.0233  -16.3085 O   0  0  0  0  0  0  0  0  0  0  0  0
   28.7764  -20.7611  -12.3254 C   0  0  0  0  0  0  0  0  0  0  0  0
   27.6405  -20.8785  -13.2781 C   0  0  0  0  0  0  0  0  0  0  0  0
   26.2968  -20.7894  -12.6680 C   0  0  2  0  0  0  0  0  0  0  0  0
   26.1142  -21.8685  -11.5918 C   0  0  0  0  0  0  0  0  0  0  0  0
   25.1075  -20.8265  -13.5484 C   0  0  2  0  0  0  0  0  0  0  0  0
   25.2802  -19.6718  -14.4721 N   0  0  0  0  0  0  0  0  0  0  0  0
   23.8068  -20.5533  -12.8439 C   0  0  0  0  0  0  0  0  0  0  0  0
   23.7542  -19.6505  -11.9511 O   0  0  0  0  0  0  0  0  0  0  0  0
   19.2837  -18.2761  -18.0406 O   0  0  0  0  0  0  0  0  0  0  0  0
   19.7151  -18.5840  -16.7713 C   0  0  0  0  0  0  0  0  0  0  0  0
   18.7798  -19.1113  -15.8946 C   0  0  0  0  0  0  0  0  0  0  0  0
   19.1784  -19.4304  -14.6167 C   0  0  0  0  0  0  0  0  0  0  0  0
   20.4837  -19.2263  -14.2253 C   0  0  0  0  0  0  0  0  0  0  0  0
   20.8716  -19.5758  -12.8627 C   0  0  0  0  0  0  0  0  0  0  0  0
   21.2996  -20.9774  -12.6230 C   0  0  2  0  0  0  0  0  0  0  0  0
   22.6185  -21.2627  -13.1336 N   0  0  0  0  0  0  0  0  0  0  0  0
   20.2879  -22.0143  -12.8939 C   0  0  0  0  0  0  0  0  0  0  0  0
   20.5180  -22.9321  -13.7596 O   0  0  0  0  0  0  0  0  0  0  0  0
   21.3989  -18.7069  -15.0935 C   0  0  0  0  0  0  0  0  0  0  0  0
   21.0125  -18.3836  -16.3748 C   0  0  0  0  0  0  0  0  0  0  0  0
   19.0471  -22.1105  -12.2867 O   0  0  0  0  0  0  0  0  0  0  0  0
  2  1  1  6
  3  4  1  0
  3  2  1  0
  4  8  1  0
  4  5  2  0
  5  6  1  0
  7  6  1  0
  8  7  2  0
  9 16  1  0
  9  2  1  0
 10  9  2  0
 11 12  1  0
 13 12  1  0
 13 15  1  0
 13 14  1  1
 15 16  1  6
 17 15  1  0
 18 17  2  0
 20 19  1  0
 20 30  2  0
 21 20  1  0
 22 21  2  0
 22 23  1  0
 23 29  2  0
 24 23  1  0
 25 26  1  0
 25 24  1  6
 26 17  1  0
 27 25  1  0
 28 27  2  0
 29 30  1  0
 31 27  1  0
M  END
$$$$
