HIY.pdb
     RDKit          3D

 31 32  0  0  1  0  0  0  0  0999 V2000
   23.5792  -12.7809  -17.1318 N   0  0  0  0  0  0  0  0  0  0  0  0
   23.9562  -11.6056  -16.3755 C   0  0  1  0  0  0  0  0  0  0  0  0
   25.2716  -11.1194  -16.9392 C   0  0  0  0  0  0  0  0  0  0  0  0
   26.2971  -12.1380  -16.5825 C   0  0  0  0  0  0  0  0  0  0  0  0
   27.1230  -12.1314  -15.4601 C   0  0  0  0  0  0  0  0  0  0  0  0
   27.9237  -13.2052  -15.4630 N   0  0  0  0  0  0  0  0  0  0  0  0
   27.6066  -13.8933  -16.5864 C   0  0  0  0  0  0  0  0  0  0  0  0
   26.6299  -13.2515  -17.2576 N   0  0  0  0  0  0  0  0  0  0  0  0
   22.8906  -10.5872  -16.5413 C   0  0  0  0  0  0  0  0  0  0  0  0
   22.4211  -10.2982  -17.6838 O   0  0  0  0  0  0  0  0  0  0  0  0
   18.3165  -11.2972  -14.8726 C   0  0  0  0  0  0  0  0  0  0  0  0
   19.4269  -10.6650  -15.6333 C   0  0  0  0  0  0  0  0  0  0  0  0
   20.0791   -9.5219  -14.9597 C   0  0  2  0  0  0  0  0  0  0  0  0
   19.0627   -8.4097  -14.6667 C   0  0  0  0  0  0  0  0  0  0  0  0
   21.2601   -8.8958  -15.5956 C   0  0  2  0  0  0  0  0  0  0  0  0
   22.3522   -9.8957  -15.4404 N   0  0  0  0  0  0  0  0  0  0  0  0
   21.7684   -7.6705  -14.8864 C   0  0  0  0  0  0  0  0  0  0  0  0
   22.4618   -7.7995  -13.8293 O   0  0  0  0  0  0  0  0  0  0  0  0
   24.5565   -4.0775  -20.5814 O   0  0  0  0  0  0  0  0  0  0  0  0
   24.2865   -4.2413  -19.2427 C   0  0  0  0  0  0  0  0  0  0  0  0
   24.2174   -5.5406  -18.7644 C   0  0  0  0  0  0  0  0  0  0  0  0
   23.9489   -5.7398  -17.4295 C   0  0  0  0  0  0  0  0  0  0  0  0
   23.7540   -4.6630  -16.5923 C   0  0  0  0  0  0  0  0  0  0  0  0
   23.4711   -4.9111  -15.1825 C   0  0  0  0  0  0  0  0  0  0  0  0
   22.0511   -5.1349  -14.8101 C   0  0  2  0  0  0  0  0  0  0  0  0
   21.5100   -6.3594  -15.3483 N   0  0  0  0  0  0  0  0  0  0  0  0
   21.1655   -3.9617  -14.9161 C   0  0  0  0  0  0  0  0  0  0  0  0
   20.1532   -3.9844  -15.7033 O   0  0  0  0  0  0  0  0  0  0  0  0
   23.8235   -3.3869  -17.0698 C   0  0  0  0  0  0  0  0  0  0  0  0
   24.0914   -3.1744  -18.4035 C   0  0  0  0  0  0  0  0  0  0  0  0
   21.3153   -2.7713  -14.2249 O   0  0  0  0  0  0  0  0  0  0  0  0
  2  1  1  6
  3  4  1  0
  3  2  1  0
  4  8  1  0
  4  5  2  0
  5  6  1  0
  7  6  1  0
  8  7  2  0
  9 16  1  0
  9  2  1  0
 10  9  2  0
 11 12  1  0
 13 12  1  0
 13 15  1  0
 13 14  1  6
 15 16  1  1
 17 15  1  0
 18 17  2  0
 20 19  1  0
 20 30  2  0
 21 20  1  0
 22 21  2  0
 22 23  1  0
 23 29  2  0
 24 23  1  0
 25 26  1  0
 25 24  1  6
 26 17  1  0
 27 25  1  0
 28 27  2  0
 29 30  1  0
 31 27  1  0
M  END
$$$$
