HIY.pdb
     RDKit          3D

 31 32  0  0  1  0  0  0  0  0999 V2000
   14.0270  -23.7221    1.6332 N   0  0  0  0  0  0  0  0  0  0  0  0
   15.0557  -22.7120    1.5040 C   0  0  1  0  0  0  0  0  0  0  0  0
   14.4422  -21.5476    0.7611 C   0  0  0  0  0  0  0  0  0  0  0  0
   14.4053  -21.9251   -0.6786 C   0  0  0  0  0  0  0  0  0  0  0  0
   15.4806  -22.3499   -1.4565 C   0  0  0  0  0  0  0  0  0  0  0  0
   15.0797  -22.6039   -2.7090 N   0  0  0  0  0  0  0  0  0  0  0  0
   13.7506  -22.3405   -2.7266 C   0  0  0  0  0  0  0  0  0  0  0  0
   13.3471  -21.9331   -1.5069 N   0  0  0  0  0  0  0  0  0  0  0  0
   15.4870  -22.3139    2.8662 C   0  0  0  0  0  0  0  0  0  0  0  0
   14.6507  -22.1538    3.8066 O   0  0  0  0  0  0  0  0  0  0  0  0
   19.0585  -25.0682    5.2782 C   0  0  0  0  0  0  0  0  0  0  0  0
   17.9376  -24.1312    5.0010 C   0  0  0  0  0  0  0  0  0  0  0  0
   18.3189  -22.7060    4.9049 C   0  0  2  0  0  0  0  0  0  0  0  0
   18.9914  -22.2331    6.2011 C   0  0  0  0  0  0  0  0  0  0  0  0
   17.2834  -21.7109    4.5465 C   0  0  2  0  0  0  0  0  0  0  0  0
   16.8418  -22.0956    3.1777 N   0  0  0  0  0  0  0  0  0  0  0  0
   17.8005  -20.3066    4.3941 C   0  0  0  0  0  0  0  0  0  0  0  0
   18.7820  -20.0798    3.6195 O   0  0  0  0  0  0  0  0  0  0  0  0
   18.7548  -11.6203    4.2499 O   0  0  0  0  0  0  0  0  0  0  0  0
   18.3561  -12.9364    4.2252 C   0  0  0  0  0  0  0  0  0  0  0  0
   17.3064  -13.2963    5.0560 C   0  0  0  0  0  0  0  0  0  0  0  0
   16.8825  -14.6055    5.0557 C   0  0  0  0  0  0  0  0  0  0  0  0
   17.4955  -15.5335    4.2423 C   0  0  0  0  0  0  0  0  0  0  0  0
   17.0205  -16.9129    4.2676 C   0  0  0  0  0  0  0  0  0  0  0  0
   17.7612  -17.8643    5.1345 C   0  0  2  0  0  0  0  0  0  0  0  0
   17.2361  -19.2071    5.0809 N   0  0  0  0  0  0  0  0  0  0  0  0
   18.0945  -17.3782    6.4852 C   0  0  0  0  0  0  0  0  0  0  0  0
   17.3174  -17.6309    7.4738 O   0  0  0  0  0  0  0  0  0  0  0  0
   18.5281  -15.1723    3.4271 C   0  0  0  0  0  0  0  0  0  0  0  0
   18.9614  -13.8654    3.4183 C   0  0  0  0  0  0  0  0  0  0  0  0
   19.2130  -16.6351    6.8233 O   0  0  0  0  0  0  0  0  0  0  0  0
  2  1  1  1
  3  4  1  0
  3  2  1  0
  4  8  1  0
  4  5  2  0
  5  6  1  0
  7  6  1  0
  8  7  2  0
  9 16  1  0
  9  2  1  0
 10  9  2  0
 11 12  1  0
 13 12  1  0
 13 15  1  0
 13 14  1  1
 15 16  1  6
 17 15  1  0
 18 17  2  0
 20 19  1  0
 20 30  2  0
 21 20  1  0
 22 21  2  0
 22 23  1  0
 23 29  2  0
 24 23  1  0
 25 26  1  0
 25 24  1  1
 26 17  1  0
 27 25  1  0
 28 27  2  0
 29 30  1  0
 31 27  1  0
M  END
$$$$
