HIY.pdb
     RDKit          3D

 31 32  0  0  1  0  0  0  0  0999 V2000
   24.4409  -23.3378  -17.3153 N   0  0  0  0  0  0  0  0  0  0  0  0
   23.9226  -22.6138  -16.1740 C   0  0  1  0  0  0  0  0  0  0  0  0
   23.0827  -23.5855  -15.3774 C   0  0  0  0  0  0  0  0  0  0  0  0
   21.7523  -23.6523  -16.0423 C   0  0  0  0  0  0  0  0  0  0  0  0
   21.1582  -24.7796  -16.6062 C   0  0  0  0  0  0  0  0  0  0  0  0
   19.9588  -24.4701  -17.1158 N   0  0  0  0  0  0  0  0  0  0  0  0
   19.7913  -23.1470  -16.8759 C   0  0  0  0  0  0  0  0  0  0  0  0
   20.8689  -22.6573  -16.2313 N   0  0  0  0  0  0  0  0  0  0  0  0
   25.0728  -22.1191  -15.3787 C   0  0  0  0  0  0  0  0  0  0  0  0
   26.0973  -22.8390  -15.1753 O   0  0  0  0  0  0  0  0  0  0  0  0
   28.2410  -19.3747  -16.1349 C   0  0  0  0  0  0  0  0  0  0  0  0
   26.9555  -18.6945  -15.8247 C   0  0  0  0  0  0  0  0  0  0  0  0
   26.4298  -18.9345  -14.4639 C   0  0  2  0  0  0  0  0  0  0  0  0
   27.2920  -18.2217  -13.4129 C   0  0  0  0  0  0  0  0  0  0  0  0
   26.2290  -20.3290  -14.0102 C   0  0  2  0  0  0  0  0  0  0  0  0
   25.0803  -20.8303  -14.8138 N   0  0  0  0  0  0  0  0  0  0  0  0
   25.7730  -20.4562  -12.5823 C   0  0  0  0  0  0  0  0  0  0  0  0
   24.5943  -20.1021  -12.2661 O   0  0  0  0  0  0  0  0  0  0  0  0
   27.4466  -19.3951   -4.0479 O   0  0  0  0  0  0  0  0  0  0  0  0
   27.4438  -19.8769   -5.3362 C   0  0  0  0  0  0  0  0  0  0  0  0
   28.1543  -19.1567   -6.2838 C   0  0  0  0  0  0  0  0  0  0  0  0
   28.1722  -19.6113   -7.5826 C   0  0  0  0  0  0  0  0  0  0  0  0
   27.4941  -20.7609   -7.9250 C   0  0  0  0  0  0  0  0  0  0  0  0
   27.5343  -21.2139   -9.3115 C   0  0  0  0  0  0  0  0  0  0  0  0
   26.3314  -20.9498  -10.1412 C   0  0  2  0  0  0  0  0  0  0  0  0
   26.6058  -20.9617  -11.5577 N   0  0  0  0  0  0  0  0  0  0  0  0
   25.4624  -19.8512   -9.6832 C   0  0  0  0  0  0  0  0  0  0  0  0
   25.7784  -18.6322   -9.9262 O   0  0  0  0  0  0  0  0  0  0  0  0
   26.7968  -21.4648   -6.9872 C   0  0  0  0  0  0  0  0  0  0  0  0
   26.7713  -21.0203   -5.6844 C   0  0  0  0  0  0  0  0  0  0  0  0
   24.2798  -19.9969   -8.9778 O   0  0  0  0  0  0  0  0  0  0  0  0
  2  1  1  6
  3  4  1  0
  3  2  1  0
  4  8  1  0
  4  5  2  0
  5  6  1  0
  7  6  1  0
  8  7  2  0
  9 16  1  0
  9  2  1  0
 10  9  2  0
 11 12  1  0
 13 12  1  0
 13 15  1  0
 13 14  1  1
 15 16  1  6
 17 15  1  0
 18 17  2  0
 20 19  1  0
 20 30  2  0
 21 20  1  0
 22 21  2  0
 22 23  1  0
 23 29  2  0
 24 23  1  0
 25 26  1  0
 25 24  1  1
 26 17  1  0
 27 25  1  0
 28 27  2  0
 29 30  1  0
 31 27  1  0
M  END
$$$$
