HIY.pdb
     RDKit          3D

 31 32  0  0  1  0  0  0  0  0999 V2000
   27.9482  -21.3202  -15.9090 N   0  0  0  0  0  0  0  0  0  0  0  0
   27.2310  -20.2848  -15.1956 C   0  0  1  0  0  0  0  0  0  0  0  0
   26.5667  -19.4104  -16.2340 C   0  0  0  0  0  0  0  0  0  0  0  0
   27.6475  -18.6293  -16.8961 C   0  0  0  0  0  0  0  0  0  0  0  0
   29.0201  -18.7840  -16.7119 C   0  0  0  0  0  0  0  0  0  0  0  0
   29.6947  -17.9102  -17.4704 N   0  0  0  0  0  0  0  0  0  0  0  0
   28.7512  -17.2009  -18.1359 C   0  0  0  0  0  0  0  0  0  0  0  0
   27.5226  -17.6337  -17.7902 N   0  0  0  0  0  0  0  0  0  0  0  0
   26.2272  -20.9368  -14.3196 C   0  0  0  0  0  0  0  0  0  0  0  0
   25.6686  -22.0274  -14.6480 O   0  0  0  0  0  0  0  0  0  0  0  0
   27.0343  -20.6657   -9.0132 C   0  0  0  0  0  0  0  0  0  0  0  0
   26.6447  -21.1225  -10.3737 C   0  0  0  0  0  0  0  0  0  0  0  0
   25.3012  -20.6956  -10.8193 C   0  0  2  0  0  0  0  0  0  0  0  0
   24.2219  -21.1883   -9.8455 C   0  0  0  0  0  0  0  0  0  0  0  0
   24.8599  -21.0374  -12.1901 C   0  0  2  0  0  0  0  0  0  0  0  0
   25.8489  -20.3764  -13.0854 N   0  0  0  0  0  0  0  0  0  0  0  0
   23.5375  -20.4376  -12.5826 C   0  0  0  0  0  0  0  0  0  0  0  0
   23.3538  -19.1865  -12.4571 O   0  0  0  0  0  0  0  0  0  0  0  0
   23.6376  -17.2048  -18.0544 O   0  0  0  0  0  0  0  0  0  0  0  0
   22.9121  -18.0486  -17.2459 C   0  0  0  0  0  0  0  0  0  0  0  0
   23.3297  -19.3682  -17.1703 C   0  0  0  0  0  0  0  0  0  0  0  0
   22.6259  -20.2391  -16.3703 C   0  0  0  0  0  0  0  0  0  0  0  0
   21.5290  -19.7990  -15.6620 C   0  0  0  0  0  0  0  0  0  0  0  0
   20.8061  -20.7497  -14.8237 C   0  0  0  0  0  0  0  0  0  0  0  0
   21.1317  -20.7531  -13.3749 C   0  0  2  0  0  0  0  0  0  0  0  0
   22.4711  -21.2113  -13.0958 N   0  0  0  0  0  0  0  0  0  0  0  0
   20.0895  -21.2910  -12.4825 C   0  0  0  0  0  0  0  0  0  0  0  0
   20.1849  -22.4843  -12.0221 O   0  0  0  0  0  0  0  0  0  0  0  0
   21.1237  -18.4988  -15.7412 C   0  0  0  0  0  0  0  0  0  0  0  0
   21.8195  -17.6176  -16.5381 C   0  0  0  0  0  0  0  0  0  0  0  0
   18.9549  -20.6153  -12.0660 O   0  0  0  0  0  0  0  0  0  0  0  0
  2  1  1  6
  3  4  1  0
  3  2  1  0
  4  8  1  0
  4  5  2  0
  5  6  1  0
  7  6  1  0
  8  7  2  0
  9 16  1  0
  9  2  1  0
 10  9  2  0
 11 12  1  0
 13 12  1  0
 13 15  1  0
 13 14  1  1
 15 16  1  6
 17 15  1  0
 18 17  2  0
 20 19  1  0
 20 30  2  0
 21 20  1  0
 22 21  2  0
 22 23  1  0
 23 29  2  0
 24 23  1  0
 25 26  1  0
 25 24  1  6
 26 17  1  0
 27 25  1  0
 28 27  2  0
 29 30  1  0
 31 27  1  0
M  END
$$$$
