HIY.pdb
     RDKit          3D

 31 32  0  0  1  0  0  0  0  0999 V2000
   22.1956  -20.5210  -14.0414 N   0  0  0  0  0  0  0  0  0  0  0  0
   21.4758  -20.0360  -12.8830 C   0  0  1  0  0  0  0  0  0  0  0  0
   20.0307  -19.8747  -13.2952 C   0  0  0  0  0  0  0  0  0  0  0  0
   19.9801  -18.7389  -14.2564 C   0  0  0  0  0  0  0  0  0  0  0  0
   19.7878  -18.8211  -15.6342 C   0  0  0  0  0  0  0  0  0  0  0  0
   19.7994  -17.5985  -16.1813 N   0  0  0  0  0  0  0  0  0  0  0  0
   19.9991  -16.7404  -15.1517 C   0  0  0  0  0  0  0  0  0  0  0  0
   20.1073  -17.4264  -13.9967 N   0  0  0  0  0  0  0  0  0  0  0  0
   21.6170  -21.0372  -11.7978 C   0  0  0  0  0  0  0  0  0  0  0  0
   21.6493  -22.2815  -12.0432 O   0  0  0  0  0  0  0  0  0  0  0  0
   25.3091  -19.9902   -8.2709 C   0  0  0  0  0  0  0  0  0  0  0  0
   24.3971  -20.8416   -9.0801 C   0  0  0  0  0  0  0  0  0  0  0  0
   23.0356  -21.0058   -8.5278 C   0  0  2  0  0  0  0  0  0  0  0  0
   23.0771  -21.7563   -7.1895 C   0  0  0  0  0  0  0  0  0  0  0  0
   21.9948  -21.6406   -9.3673 C   0  0  2  0  0  0  0  0  0  0  0  0
   21.7216  -20.6536  -10.4479 N   0  0  0  0  0  0  0  0  0  0  0  0
   20.6694  -21.8214   -8.6792 C   0  0  0  0  0  0  0  0  0  0  0  0
   19.9749  -20.8011   -8.3768 O   0  0  0  0  0  0  0  0  0  0  0  0
   16.4596  -21.4534  -13.2628 O   0  0  0  0  0  0  0  0  0  0  0  0
   16.8497  -22.1133  -12.1208 C   0  0  0  0  0  0  0  0  0  0  0  0
   16.1038  -21.8905  -10.9738 C   0  0  0  0  0  0  0  0  0  0  0  0
   16.4671  -22.5353   -9.8137 C   0  0  0  0  0  0  0  0  0  0  0  0
   17.5525  -23.3840   -9.8019 C   0  0  0  0  0  0  0  0  0  0  0  0
   17.9095  -24.0509   -8.5541 C   0  0  0  0  0  0  0  0  0  0  0  0
   18.8978  -23.3653   -7.6831 C   0  0  2  0  0  0  0  0  0  0  0  0
   20.1485  -23.0937   -8.3492 N   0  0  0  0  0  0  0  0  0  0  0  0
   19.0223  -23.8925   -6.3125 C   0  0  0  0  0  0  0  0  0  0  0  0
   20.1354  -24.3840   -5.9072 O   0  0  0  0  0  0  0  0  0  0  0  0
   18.2822  -23.5986  -10.9344 C   0  0  0  0  0  0  0  0  0  0  0  0
   17.9288  -22.9594  -12.1015 C   0  0  0  0  0  0  0  0  0  0  0  0
   18.0147  -23.9209   -5.3631 O   0  0  0  0  0  0  0  0  0  0  0  0
  2  1  1  6
  3  4  1  0
  3  2  1  0
  4  8  1  0
  4  5  2  0
  5  6  1  0
  7  6  1  0
  8  7  2  0
  9 16  1  0
  9  2  1  0
 10  9  2  0
 11 12  1  0
 13 12  1  0
 13 15  1  0
 13 14  1  1
 15 16  1  6
 17 15  1  0
 18 17  2  0
 20 19  1  0
 20 30  2  0
 21 20  1  0
 22 21  2  0
 22 23  1  0
 23 29  2  0
 24 23  1  0
 25 26  1  0
 25 24  1  6
 26 17  1  0
 27 25  1  0
 28 27  2  0
 29 30  1  0
 31 27  1  0
M  END
$$$$
