HIY.pdb
     RDKit          3D

 31 32  0  0  1  0  0  0  0  0999 V2000
   26.6459  -33.2138  -11.6015 N   0  0  0  0  0  0  0  0  0  0  0  0
   25.5470  -33.2261  -10.6594 C   0  0  1  0  0  0  0  0  0  0  0  0
   24.4337  -34.0320  -11.2882 C   0  0  0  0  0  0  0  0  0  0  0  0
   23.8300  -33.1799  -12.3493 C   0  0  0  0  0  0  0  0  0  0  0  0
   24.3092  -32.9979  -13.6451 C   0  0  0  0  0  0  0  0  0  0  0  0
   23.5126  -32.1627  -14.3248 N   0  0  0  0  0  0  0  0  0  0  0  0
   22.5282  -31.8143  -13.4613 C   0  0  0  0  0  0  0  0  0  0  0  0
   22.7200  -32.4258  -12.2756 N   0  0  0  0  0  0  0  0  0  0  0  0
   26.0221  -33.8542   -9.4025 C   0  0  0  0  0  0  0  0  0  0  0  0
   27.0522  -34.5942   -9.3788 O   0  0  0  0  0  0  0  0  0  0  0  0
   29.6240  -33.1010   -7.4062 C   0  0  0  0  0  0  0  0  0  0  0  0
   28.3575  -33.8544   -7.6057 C   0  0  0  0  0  0  0  0  0  0  0  0
   27.2215  -33.4061   -6.7725 C   0  0  2  0  0  0  0  0  0  0  0  0
   27.6113  -33.3800   -5.2881 C   0  0  0  0  0  0  0  0  0  0  0  0
   25.9276  -34.1160   -6.8853 C   0  0  2  0  0  0  0  0  0  0  0  0
   25.3528  -33.6585   -8.1802 N   0  0  0  0  0  0  0  0  0  0  0  0
   24.9073  -33.7109   -5.8568 C   0  0  0  0  0  0  0  0  0  0  0  0
   24.8657  -32.5062   -5.4548 O   0  0  0  0  0  0  0  0  0  0  0  0
   17.4770  -32.4795   -1.6193 O   0  0  0  0  0  0  0  0  0  0  0  0
   18.6122  -32.6594   -2.3749 C   0  0  0  0  0  0  0  0  0  0  0  0
   18.4967  -33.4364   -3.5171 C   0  0  0  0  0  0  0  0  0  0  0  0
   19.6135  -33.6364   -4.2958 C   0  0  0  0  0  0  0  0  0  0  0  0
   20.8186  -33.0714   -3.9393 C   0  0  0  0  0  0  0  0  0  0  0  0
   21.9824  -33.3045   -4.7881 C   0  0  0  0  0  0  0  0  0  0  0  0
   22.9582  -34.3248   -4.3275 C   0  0  2  0  0  0  0  0  0  0  0  0
   23.9745  -34.6207   -5.3080 N   0  0  0  0  0  0  0  0  0  0  0  0
   22.3868  -35.5004   -3.6468 C   0  0  0  0  0  0  0  0  0  0  0  0
   22.0558  -36.5405   -4.3203 O   0  0  0  0  0  0  0  0  0  0  0  0
   20.9250  -32.3079   -2.8138 C   0  0  0  0  0  0  0  0  0  0  0  0
   19.8149  -32.1003   -2.0263 C   0  0  0  0  0  0  0  0  0  0  0  0
   22.1514  -35.6112   -2.2868 O   0  0  0  0  0  0  0  0  0  0  0  0
  2  1  1  6
  3  4  1  0
  3  2  1  0
  4  8  1  0
  4  5  2  0
  5  6  1  0
  7  6  1  0
  8  7  2  0
  9 16  1  0
  9  2  1  0
 10  9  2  0
 11 12  1  0
 13 12  1  0
 13 15  1  0
 13 14  1  1
 15 16  1  6
 17 15  1  0
 18 17  2  0
 20 19  1  0
 20 30  2  0
 21 20  1  0
 22 21  2  0
 22 23  1  0
 23 29  2  0
 24 23  1  0
 25 26  1  0
 25 24  1  6
 26 17  1  0
 27 25  1  0
 28 27  2  0
 29 30  1  0
 31 27  1  0
M  END
$$$$
