HIY.pdb
     RDKit          3D

 31 32  0  0  1  0  0  0  0  0999 V2000
   25.1337  -20.6618  -13.9685 N   0  0  0  0  0  0  0  0  0  0  0  0
   24.1988  -20.1158  -13.0078 C   0  0  1  0  0  0  0  0  0  0  0  0
   22.8183  -20.2493  -13.6082 C   0  0  0  0  0  0  0  0  0  0  0  0
   22.7590  -19.3159  -14.7665 C   0  0  0  0  0  0  0  0  0  0  0  0
   22.5326  -19.6548  -16.0991 C   0  0  0  0  0  0  0  0  0  0  0  0
   22.5467  -18.5587  -16.8688 N   0  0  0  0  0  0  0  0  0  0  0  0
   22.7819  -17.5244  -16.0257 C   0  0  0  0  0  0  0  0  0  0  0  0
   22.9092  -17.9804  -14.7639 N   0  0  0  0  0  0  0  0  0  0  0  0
   24.3171  -20.8962  -11.7520 C   0  0  0  0  0  0  0  0  0  0  0  0
   24.2696  -22.1639  -11.7517 O   0  0  0  0  0  0  0  0  0  0  0  0
   26.8423  -19.9355   -6.2887 C   0  0  0  0  0  0  0  0  0  0  0  0
   25.8240  -20.7287   -7.0272 C   0  0  0  0  0  0  0  0  0  0  0  0
   25.5687  -20.2872   -8.4149 C   0  0  2  0  0  0  0  0  0  0  0  0
   25.1563  -18.8091   -8.4494 C   0  0  0  0  0  0  0  0  0  0  0  0
   24.6000  -21.0437   -9.2396 C   0  0  2  0  0  0  0  0  0  0  0  0
   24.4872  -20.2671  -10.5047 N   0  0  0  0  0  0  0  0  0  0  0  0
   23.2012  -21.0671   -8.6866 C   0  0  0  0  0  0  0  0  0  0  0  0
   22.5223  -19.9935   -8.6513 O   0  0  0  0  0  0  0  0  0  0  0  0
   15.2328  -24.0260   -6.4450 O   0  0  0  0  0  0  0  0  0  0  0  0
   16.4790  -23.7860   -6.9754 C   0  0  0  0  0  0  0  0  0  0  0  0
   17.5503  -24.4552   -6.4045 C   0  0  0  0  0  0  0  0  0  0  0  0
   18.8111  -24.2377   -6.9114 C   0  0  0  0  0  0  0  0  0  0  0  0
   18.9953  -23.3701   -7.9658 C   0  0  0  0  0  0  0  0  0  0  0  0
   20.3458  -23.1632   -8.4780 C   0  0  0  0  0  0  0  0  0  0  0  0
   21.2704  -22.3634   -7.6349 C   0  0  2  0  0  0  0  0  0  0  0  0
   22.5936  -22.2466   -8.1980 N   0  0  0  0  0  0  0  0  0  0  0  0
   21.2303  -22.6466   -6.1891 C   0  0  0  0  0  0  0  0  0  0  0  0
   20.3941  -22.0350   -5.4331 O   0  0  0  0  0  0  0  0  0  0  0  0
   17.9362  -22.7148   -8.5228 C   0  0  0  0  0  0  0  0  0  0  0  0
   16.6698  -22.9239   -8.0247 C   0  0  0  0  0  0  0  0  0  0  0  0
   22.0422  -23.5464   -5.5193 O   0  0  0  0  0  0  0  0  0  0  0  0
  2  1  1  6
  3  4  1  0
  3  2  1  0
  4  8  1  0
  4  5  2  0
  5  6  1  0
  7  6  1  0
  8  7  2  0
  9 16  1  0
  9  2  1  0
 10  9  2  0
 11 12  1  0
 13 12  1  0
 13 15  1  0
 13 14  1  1
 15 16  1  6
 17 15  1  0
 18 17  2  0
 20 19  1  0
 20 30  2  0
 21 20  1  0
 22 21  2  0
 22 23  1  0
 23 29  2  0
 24 23  1  0
 25 26  1  0
 25 24  1  6
 26 17  1  0
 27 25  1  0
 28 27  2  0
 29 30  1  0
 31 27  1  0
M  END
$$$$
