HIY.pdb
     RDKit          3D

 31 32  0  0  1  0  0  0  0  0999 V2000
   19.0356  -14.3145  -18.0652 N   0  0  0  0  0  0  0  0  0  0  0  0
   18.6682  -12.9484  -17.7582 C   0  0  1  0  0  0  0  0  0  0  0  0
   17.1712  -12.9282  -17.5516 C   0  0  0  0  0  0  0  0  0  0  0  0
   16.5479  -13.1127  -18.8909 C   0  0  0  0  0  0  0  0  0  0  0  0
   16.7940  -12.3573  -20.0358 C   0  0  0  0  0  0  0  0  0  0  0  0
   16.0553  -12.8057  -21.0592 N   0  0  0  0  0  0  0  0  0  0  0  0
   15.3405  -13.8452  -20.5646 C   0  0  0  0  0  0  0  0  0  0  0  0
   15.6371  -14.0284  -19.2628 N   0  0  0  0  0  0  0  0  0  0  0  0
   19.3869  -12.5417  -16.5261 C   0  0  0  0  0  0  0  0  0  0  0  0
   19.4071  -13.2808  -15.4953 O   0  0  0  0  0  0  0  0  0  0  0  0
   24.6257  -10.4296  -15.0459 C   0  0  0  0  0  0  0  0  0  0  0  0
   23.2197  -10.4785  -14.5641 C   0  0  0  0  0  0  0  0  0  0  0  0
   22.2234  -10.8950  -15.5740 C   0  0  2  0  0  0  0  0  0  0  0  0
   22.3732  -10.0703  -16.8598 C   0  0  0  0  0  0  0  0  0  0  0  0
   20.7897  -10.8976  -15.2059 C   0  0  2  0  0  0  0  0  0  0  0  0
   20.0785  -11.3189  -16.4440 N   0  0  0  0  0  0  0  0  0  0  0  0
   20.2280   -9.5375  -14.8936 C   0  0  0  0  0  0  0  0  0  0  0  0
   19.8899   -8.7649  -15.8442 O   0  0  0  0  0  0  0  0  0  0  0  0
   15.7862   -3.1986  -10.7622 O   0  0  0  0  0  0  0  0  0  0  0  0
   16.3589   -4.3531  -11.2430 C   0  0  0  0  0  0  0  0  0  0  0  0
   17.0241   -5.1579  -10.3312 C   0  0  0  0  0  0  0  0  0  0  0  0
   17.6084   -6.3205  -10.7792 C   0  0  0  0  0  0  0  0  0  0  0  0
   17.5286   -6.6696  -12.1097 C   0  0  0  0  0  0  0  0  0  0  0  0
   18.1599   -7.9093  -12.5500 C   0  0  0  0  0  0  0  0  0  0  0  0
   19.5026   -7.7963  -13.1742 C   0  0  2  0  0  0  0  0  0  0  0  0
   20.0525   -9.0699  -13.5709 N   0  0  0  0  0  0  0  0  0  0  0  0
   20.4503   -6.8896  -12.5021 C   0  0  0  0  0  0  0  0  0  0  0  0
   21.2564   -7.3404  -11.6121 O   0  0  0  0  0  0  0  0  0  0  0  0
   16.8723   -5.8727  -13.0016 C   0  0  0  0  0  0  0  0  0  0  0  0
   16.2835   -4.7070  -12.5657 C   0  0  0  0  0  0  0  0  0  0  0  0
   20.5712   -5.5300  -12.7351 O   0  0  0  0  0  0  0  0  0  0  0  0
  2  1  1  1
  3  4  1  0
  3  2  1  0
  4  8  1  0
  4  5  2  0
  5  6  1  0
  7  6  1  0
  8  7  2  0
  9 16  1  0
  9  2  1  0
 10  9  2  0
 11 12  1  0
 13 12  1  0
 13 15  1  0
 13 14  1  6
 15 16  1  6
 17 15  1  0
 18 17  2  0
 20 19  1  0
 20 30  2  0
 21 20  1  0
 22 21  2  0
 22 23  1  0
 23 29  2  0
 24 23  1  0
 25 26  1  0
 25 24  1  1
 26 17  1  0
 27 25  1  0
 28 27  2  0
 29 30  1  0
 31 27  1  0
M  END
$$$$
