HIY.pdb
     RDKit          3D

 31 32  0  0  1  0  0  0  0  0999 V2000
   22.7309  -17.7982  -20.1561 N   0  0  0  0  0  0  0  0  0  0  0  0
   22.4977  -17.8006  -18.7274 C   0  0  1  0  0  0  0  0  0  0  0  0
   21.3482  -18.7469  -18.4679 C   0  0  0  0  0  0  0  0  0  0  0  0
   20.1131  -18.0674  -18.9466 C   0  0  0  0  0  0  0  0  0  0  0  0
   19.3893  -17.0841  -18.2750 C   0  0  0  0  0  0  0  0  0  0  0  0
   18.3336  -16.7006  -19.0049 N   0  0  0  0  0  0  0  0  0  0  0  0
   18.3869  -17.4398  -20.1392 C   0  0  0  0  0  0  0  0  0  0  0  0
   19.4558  -18.2600  -20.1030 N   0  0  0  0  0  0  0  0  0  0  0  0
   23.7373  -18.2634  -18.0571 C   0  0  0  0  0  0  0  0  0  0  0  0
   24.5137  -19.1037  -18.6050 O   0  0  0  0  0  0  0  0  0  0  0  0
   26.8901  -14.5688  -16.2030 C   0  0  0  0  0  0  0  0  0  0  0  0
   26.4477  -15.8847  -16.7360 C   0  0  0  0  0  0  0  0  0  0  0  0
   25.9837  -16.8513  -15.7181 C   0  0  2  0  0  0  0  0  0  0  0  0
   27.0982  -17.1559  -14.7076 C   0  0  0  0  0  0  0  0  0  0  0  0
   25.4161  -18.1433  -16.1646 C   0  0  2  0  0  0  0  0  0  0  0  0
   24.1087  -17.7922  -16.7842 N   0  0  0  0  0  0  0  0  0  0  0  0
   25.0615  -19.0838  -15.0455 C   0  0  0  0  0  0  0  0  0  0  0  0
   25.9231  -19.9220  -14.6333 O   0  0  0  0  0  0  0  0  0  0  0  0
   22.0473  -22.2719   -7.5443 O   0  0  0  0  0  0  0  0  0  0  0  0
   22.4377  -21.5341   -8.6376 C   0  0  0  0  0  0  0  0  0  0  0  0
   21.4389  -20.9197   -9.3769 C   0  0  0  0  0  0  0  0  0  0  0  0
   21.7953  -20.1739  -10.4771 C   0  0  0  0  0  0  0  0  0  0  0  0
   23.1212  -20.0461  -10.8293 C   0  0  0  0  0  0  0  0  0  0  0  0
   23.4630  -19.2479  -12.0021 C   0  0  0  0  0  0  0  0  0  0  0  0
   23.3734  -19.9200  -13.3233 C   0  0  2  0  0  0  0  0  0  0  0  0
   23.7949  -19.0787  -14.4171 N   0  0  0  0  0  0  0  0  0  0  0  0
   22.1436  -20.6939  -13.5694 C   0  0  0  0  0  0  0  0  0  0  0  0
   21.1136  -20.1264  -14.0812 O   0  0  0  0  0  0  0  0  0  0  0  0
   24.0989  -20.6536  -10.0971 C   0  0  0  0  0  0  0  0  0  0  0  0
   23.7553  -21.4025   -8.9941 C   0  0  0  0  0  0  0  0  0  0  0  0
   21.9660  -22.0386  -13.2907 O   0  0  0  0  0  0  0  0  0  0  0  0
  2  1  1  6
  3  4  1  0
  3  2  1  0
  4  8  1  0
  4  5  2  0
  5  6  1  0
  7  6  1  0
  8  7  2  0
  9 16  1  0
  9  2  1  0
 10  9  2  0
 11 12  1  0
 13 12  1  0
 13 15  1  0
 13 14  1  1
 15 16  1  1
 17 15  1  0
 18 17  2  0
 20 19  1  0
 20 30  2  0
 21 20  1  0
 22 21  2  0
 22 23  1  0
 23 29  2  0
 24 23  1  0
 25 26  1  0
 25 24  1  1
 26 17  1  0
 27 25  1  0
 28 27  2  0
 29 30  1  0
 31 27  1  0
M  END
$$$$
