HIY.pdb
     RDKit          3D

 31 32  0  0  1  0  0  0  0  0999 V2000
   20.1538  -16.6086  -16.7132 N   0  0  0  0  0  0  0  0  0  0  0  0
   20.1219  -15.2344  -17.1668 C   0  0  1  0  0  0  0  0  0  0  0  0
   18.6676  -14.8504  -17.3143 C   0  0  0  0  0  0  0  0  0  0  0  0
   18.1274  -15.6361  -18.4577 C   0  0  0  0  0  0  0  0  0  0  0  0
   17.1204  -16.5980  -18.4059 C   0  0  0  0  0  0  0  0  0  0  0  0
   16.8913  -17.1007  -19.6261 N   0  0  0  0  0  0  0  0  0  0  0  0
   17.7522  -16.4585  -20.4523 C   0  0  0  0  0  0  0  0  0  0  0  0
   18.4937  -15.5795  -19.7495 N   0  0  0  0  0  0  0  0  0  0  0  0
   20.7993  -14.3951  -16.1486 C   0  0  0  0  0  0  0  0  0  0  0  0
   20.5491  -14.5217  -14.9114 O   0  0  0  0  0  0  0  0  0  0  0  0
   26.2026  -12.0829  -15.1612 C   0  0  0  0  0  0  0  0  0  0  0  0
   24.7574  -11.8484  -14.9006 C   0  0  0  0  0  0  0  0  0  0  0  0
   23.8316  -12.6730  -15.7061 C   0  0  2  0  0  0  0  0  0  0  0  0
   24.1112  -12.4997  -17.2053 C   0  0  0  0  0  0  0  0  0  0  0  0
   22.3739  -12.5206  -15.4998 C   0  0  2  0  0  0  0  0  0  0  0  0
   21.7495  -13.4212  -16.5076 N   0  0  0  0  0  0  0  0  0  0  0  0
   21.8406  -11.1545  -15.8346 C   0  0  0  0  0  0  0  0  0  0  0  0
   21.4267  -10.9135  -17.0117 O   0  0  0  0  0  0  0  0  0  0  0  0
   17.6143   -3.9248  -17.1155 O   0  0  0  0  0  0  0  0  0  0  0  0
   18.1638   -5.1358  -16.7644 C   0  0  0  0  0  0  0  0  0  0  0  0
   19.0305   -5.7254  -17.6715 C   0  0  0  0  0  0  0  0  0  0  0  0
   19.5978   -6.9375  -17.3513 C   0  0  0  0  0  0  0  0  0  0  0  0
   19.3043   -7.5458  -16.1503 C   0  0  0  0  0  0  0  0  0  0  0  0
   19.9236   -8.8308  -15.8435 C   0  0  0  0  0  0  0  0  0  0  0  0
   21.2015   -8.7990  -15.0877 C   0  0  2  0  0  0  0  0  0  0  0  0
   21.7739  -10.1080  -14.8862 N   0  0  0  0  0  0  0  0  0  0  0  0
   21.2288   -7.9176  -13.9069 C   0  0  0  0  0  0  0  0  0  0  0  0
   21.4779   -6.6664  -14.0391 O   0  0  0  0  0  0  0  0  0  0  0  0
   18.4503   -6.9598  -15.2622 C   0  0  0  0  0  0  0  0  0  0  0  0
   17.8762   -5.7471  -15.5710 C   0  0  0  0  0  0  0  0  0  0  0  0
   21.0067   -8.3127  -12.5984 O   0  0  0  0  0  0  0  0  0  0  0  0
  2  1  1  1
  3  4  1  0
  3  2  1  0
  4  8  1  0
  4  5  2  0
  5  6  1  0
  7  6  1  0
  8  7  2  0
  9 16  1  0
  9  2  1  0
 10  9  2  0
 11 12  1  0
 13 12  1  0
 13 15  1  0
 13 14  1  6
 15 16  1  6
 17 15  1  0
 18 17  2  0
 20 19  1  0
 20 30  2  0
 21 20  1  0
 22 21  2  0
 22 23  1  0
 23 29  2  0
 24 23  1  0
 25 26  1  0
 25 24  1  1
 26 17  1  0
 27 25  1  0
 28 27  2  0
 29 30  1  0
 31 27  1  0
M  END
$$$$
