SEK.pdb
     RDKit          3D

 25 24  0  0  1  0  0  0  0  0999 V2000
   21.5094  -14.0683  -21.9472 O   0  0  0  0  0  0  0  0  0  0  0  0
   21.9261  -13.2921  -20.8568 C   0  0  0  0  0  0  0  0  0  0  0  0
   23.1378  -13.9871  -20.2718 C   0  0  2  0  0  0  0  0  0  0  0  0
   22.7920  -15.1971  -19.5918 N   0  0  0  0  0  0  0  0  0  0  0  0
   23.7870  -13.0609  -19.2951 C   0  0  0  0  0  0  0  0  0  0  0  0
   23.4353  -13.0166  -18.0897 O   0  0  0  0  0  0  0  0  0  0  0  0
   24.8283  -12.1809  -19.6513 N   0  0  0  0  0  0  0  0  0  0  0  0
   25.4403  -11.2886  -18.7562 C   0  0  1  0  0  0  0  0  0  0  0  0
   26.8683  -10.9440  -18.9880 C   0  0  0  0  0  0  0  0  0  0  0  0
   27.3714   -9.9294  -17.9759 C   0  0  0  0  0  0  0  0  0  0  0  0
   28.7564   -9.5073  -18.2666 C   0  0  0  0  0  0  0  0  0  0  0  0
   29.3607   -9.9854  -19.2489 O   0  0  0  0  0  0  0  0  0  0  0  0
   24.6404  -10.0437  -18.6817 C   0  0  0  0  0  0  0  0  0  0  0  0
   24.4113   -9.4054  -19.7339 O   0  0  0  0  0  0  0  0  0  0  0  0
   29.3992   -8.5880  -17.4668 O   0  0  0  0  0  0  0  0  0  0  0  0
   24.1232   -9.5429  -17.4742 N   0  0  0  0  0  0  0  0  0  0  0  0
   23.3264   -8.3323  -17.3708 C   0  0  1  0  0  0  0  0  0  0  0  0
   21.8945   -8.7996  -17.2394 C   0  0  0  0  0  0  0  0  0  0  0  0
   20.8886   -7.6995  -17.1519 C   0  0  0  0  0  0  0  0  0  0  0  0
   19.5182   -8.3456  -17.1436 C   0  0  0  0  0  0  0  0  0  0  0  0
   18.4042   -7.3274  -17.2470 C   0  0  0  0  0  0  0  0  0  0  0  0
   17.1001   -7.9209  -17.3343 N   0  0  0  0  0  0  0  0  0  0  0  0
   23.7799   -7.4505  -16.2958 C   0  0  0  0  0  0  0  0  0  0  0  0
   24.3170   -7.9432  -15.2746 O   0  0  0  0  0  0  0  0  0  0  0  0
   23.6493   -6.0691  -16.3376 O   0  0  0  0  0  0  0  0  0  0  0  0
  1  2  1  0
  3  5  1  0
  3  2  1  0
  3  4  1  1
  5  6  2  0
  7  8  1  0
  7  5  1  0
  8  9  1  6
  9 10  1  0
 11 10  1  0
 11 12  2  0
 13  8  1  0
 14 13  2  0
 15 11  1  0
 16 13  1  0
 17 16  1  0
 18 19  1  0
 17 18  1  1
 19 20  1  0
 20 21  1  0
 21 22  1  0
 23 17  1  0
 23 25  1  0
 24 23  2  0
M  END
$$$$
