SEK.pdb
     RDKit          3D

 25 24  0  0  1  0  0  0  0  0999 V2000
   17.5596  -14.1639  -17.9800 O   0  0  0  0  0  0  0  0  0  0  0  0
   18.1603  -13.1499  -17.2213 C   0  0  0  0  0  0  0  0  0  0  0  0
   19.4219  -12.7512  -17.9581 C   0  0  2  0  0  0  0  0  0  0  0  0
   20.4143  -13.7810  -17.9287 N   0  0  0  0  0  0  0  0  0  0  0  0
   19.9837  -11.5301  -17.3050 C   0  0  0  0  0  0  0  0  0  0  0  0
   20.0968  -11.4387  -16.0570 O   0  0  0  0  0  0  0  0  0  0  0  0
   20.4219  -10.4061  -18.0332 N   0  0  0  0  0  0  0  0  0  0  0  0
   20.9829   -9.2613  -17.4442 C   0  0  1  0  0  0  0  0  0  0  0  0
   21.5969   -8.2487  -18.3438 C   0  0  0  0  0  0  0  0  0  0  0  0
   22.8674   -8.7715  -18.9914 C   0  0  0  0  0  0  0  0  0  0  0  0
   23.4430   -7.7926  -19.9356 C   0  0  0  0  0  0  0  0  0  0  0  0
   24.4380   -7.1160  -19.6027 O   0  0  0  0  0  0  0  0  0  0  0  0
   19.9691   -8.6053  -16.5857 C   0  0  0  0  0  0  0  0  0  0  0  0
   18.7829   -8.5490  -16.9817 O   0  0  0  0  0  0  0  0  0  0  0  0
   22.8974   -7.6110  -21.1875 O   0  0  0  0  0  0  0  0  0  0  0  0
   20.2810   -8.0389  -15.3374 N   0  0  0  0  0  0  0  0  0  0  0  0
   19.3075   -7.4007  -14.4679 C   0  0  1  0  0  0  0  0  0  0  0  0
   18.6454   -8.5263  -13.7059 C   0  0  0  0  0  0  0  0  0  0  0  0
   17.6677   -8.0819  -12.6683 C   0  0  0  0  0  0  0  0  0  0  0  0
   17.1345   -9.3287  -11.9926 C   0  0  0  0  0  0  0  0  0  0  0  0
   16.0708   -9.0127  -10.9644 C   0  0  0  0  0  0  0  0  0  0  0  0
   15.4999  -10.1835  -10.3612 N   0  0  0  0  0  0  0  0  0  0  0  0
   19.9005   -6.3622  -13.6262 C   0  0  0  0  0  0  0  0  0  0  0  0
   21.1294   -6.3941  -13.3753 O   0  0  0  0  0  0  0  0  0  0  0  0
   19.1694   -5.3188  -13.0750 O   0  0  0  0  0  0  0  0  0  0  0  0
  1  2  1  0
  3  5  1  0
  3  2  1  0
  3  4  1  1
  5  6  2  0
  7  8  1  0
  7  5  1  0
  8  9  1  6
  9 10  1  0
 11 10  1  0
 11 12  2  0
 13  8  1  0
 14 13  2  0
 15 11  1  0
 16 13  1  0
 17 16  1  0
 18 19  1  0
 17 18  1  1
 19 20  1  0
 20 21  1  0
 21 22  1  0
 23 17  1  0
 23 25  1  0
 24 23  2  0
M  END
$$$$
