SEK.pdb
     RDKit          3D

 25 24  0  0  1  0  0  0  0  0999 V2000
   23.0625  -12.1566  -14.3433 O   0  0  0  0  0  0  0  0  0  0  0  0
   24.2156  -12.9126  -14.0907 C   0  0  0  0  0  0  0  0  0  0  0  0
   24.6041  -13.5570  -15.4049 C   0  0  2  0  0  0  0  0  0  0  0  0
   24.6645  -12.6100  -16.4753 N   0  0  0  0  0  0  0  0  0  0  0  0
   23.5814  -14.5929  -15.7429 C   0  0  0  0  0  0  0  0  0  0  0  0
   22.6958  -14.3911  -16.6110 O   0  0  0  0  0  0  0  0  0  0  0  0
   23.5370  -15.8559  -15.1197 N   0  0  0  0  0  0  0  0  0  0  0  0
   22.6298  -16.8697  -15.4680 C   0  0  1  0  0  0  0  0  0  0  0  0
   23.1584  -18.2516  -15.6187 C   0  0  0  0  0  0  0  0  0  0  0  0
   22.0932  -19.2064  -16.1292 C   0  0  0  0  0  0  0  0  0  0  0  0
   22.6465  -20.5483  -16.4014 C   0  0  0  0  0  0  0  0  0  0  0  0
   23.7839  -20.6637  -16.9032 O   0  0  0  0  0  0  0  0  0  0  0  0
   21.5072  -16.8760  -14.5010 C   0  0  0  0  0  0  0  0  0  0  0  0
   21.7580  -16.7721  -13.2790 O   0  0  0  0  0  0  0  0  0  0  0  0
   21.9245  -21.6846  -16.1092 O   0  0  0  0  0  0  0  0  0  0  0  0
   20.1633  -16.9941  -14.8965 N   0  0  0  0  0  0  0  0  0  0  0  0
   19.0359  -16.8950  -13.9853 C   0  0  1  0  0  0  0  0  0  0  0  0
   17.9255  -16.2499  -14.7833 C   0  0  0  0  0  0  0  0  0  0  0  0
   16.6500  -16.0601  -14.0303 C   0  0  0  0  0  0  0  0  0  0  0  0
   15.6338  -15.5008  -15.0049 C   0  0  0  0  0  0  0  0  0  0  0  0
   14.2775  -15.2996  -14.3657 C   0  0  0  0  0  0  0  0  0  0  0  0
   13.2559  -14.9364  -15.3064 N   0  0  0  0  0  0  0  0  0  0  0  0
   18.6849  -18.1805  -13.3829 C   0  0  0  0  0  0  0  0  0  0  0  0
   18.9381  -19.2437  -13.9989 O   0  0  0  0  0  0  0  0  0  0  0  0
   18.0742  -18.2987  -12.1418 O   0  0  0  0  0  0  0  0  0  0  0  0
  1  2  1  0
  3  5  1  0
  3  2  1  0
  3  4  1  6
  5  6  2  0
  7  8  1  0
  7  5  1  0
  8  9  1  1
  9 10  1  0
 11 10  1  0
 11 12  2  0
 13  8  1  0
 14 13  2  0
 15 11  1  0
 16 13  1  0
 17 16  1  0
 18 19  1  0
 17 18  1  6
 19 20  1  0
 20 21  1  0
 21 22  1  0
 23 17  1  0
 23 25  1  0
 24 23  2  0
M  END
$$$$
