SEK.pdb
     RDKit          3D

 25 24  0  0  1  0  0  0  0  0999 V2000
   20.8046  -10.8380  -15.7421 O   0  0  0  0  0  0  0  0  0  0  0  0
   21.6771  -10.8531  -16.8391 C   0  0  0  0  0  0  0  0  0  0  0  0
   23.0440  -10.4763  -16.3069 C   0  0  2  0  0  0  0  0  0  0  0  0
   23.3851  -11.2069  -15.1253 N   0  0  0  0  0  0  0  0  0  0  0  0
   23.0373   -9.0182  -15.9797 C   0  0  0  0  0  0  0  0  0  0  0  0
   23.0418   -8.6054  -14.7931 O   0  0  0  0  0  0  0  0  0  0  0  0
   23.0257   -8.0128  -16.9670 N   0  0  0  0  0  0  0  0  0  0  0  0
   23.0379   -6.6373  -16.6843 C   0  0  1  0  0  0  0  0  0  0  0  0
   24.0228   -5.7894  -17.4072 C   0  0  0  0  0  0  0  0  0  0  0  0
   24.0320   -4.3659  -16.8778 C   0  0  0  0  0  0  0  0  0  0  0  0
   24.9603   -3.5053  -17.6384 C   0  0  0  0  0  0  0  0  0  0  0  0
   24.9453   -2.2686  -17.4679 O   0  0  0  0  0  0  0  0  0  0  0  0
   21.6771   -6.0849  -16.8800 C   0  0  0  0  0  0  0  0  0  0  0  0
   21.1153   -6.2332  -17.9887 O   0  0  0  0  0  0  0  0  0  0  0  0
   25.8500   -4.0467  -18.5402 O   0  0  0  0  0  0  0  0  0  0  0  0
   20.9829   -5.3968  -15.8695 N   0  0  0  0  0  0  0  0  0  0  0  0
   19.5964   -4.9762  -15.9771 C   0  0  1  0  0  0  0  0  0  0  0  0
   18.7748   -6.2193  -15.7209 C   0  0  0  0  0  0  0  0  0  0  0  0
   17.2983   -5.9961  -15.7122 C   0  0  0  0  0  0  0  0  0  0  0  0
   16.6477   -7.3191  -15.3631 C   0  0  0  0  0  0  0  0  0  0  0  0
   15.1397   -7.2614  -15.4688 C   0  0  0  0  0  0  0  0  0  0  0  0
   14.4997   -8.5001  -15.1276 N   0  0  0  0  0  0  0  0  0  0  0  0
   19.2814   -3.8474  -15.1022 C   0  0  0  0  0  0  0  0  0  0  0  0
   19.9187   -3.6955  -14.0323 O   0  0  0  0  0  0  0  0  0  0  0  0
   18.2971   -2.9119  -15.3903 O   0  0  0  0  0  0  0  0  0  0  0  0
  1  2  1  0
  3  5  1  0
  3  2  1  0
  3  4  1  1
  5  6  2  0
  7  8  1  0
  7  5  1  0
  8  9  1  6
  9 10  1  0
 11 10  1  0
 11 12  2  0
 13  8  1  0
 14 13  2  0
 15 11  1  0
 16 13  1  0
 17 16  1  0
 18 19  1  0
 17 18  1  1
 19 20  1  0
 20 21  1  0
 21 22  1  0
 23 17  1  0
 23 25  1  0
 24 23  2  0
M  END
$$$$
