SEK.pdb
     RDKit          3D

 25 24  0  0  1  0  0  0  0  0999 V2000
   31.2687  -31.3448  -16.1998 O   0  0  0  0  0  0  0  0  0  0  0  0
   30.9211  -30.5187  -17.2776 C   0  0  0  0  0  0  0  0  0  0  0  0
   29.4167  -30.6126  -17.4242 C   0  0  2  0  0  0  0  0  0  0  0  0
   28.7353  -30.3433  -16.1956 N   0  0  0  0  0  0  0  0  0  0  0  0
   29.0714  -31.9976  -17.8664 C   0  0  0  0  0  0  0  0  0  0  0  0
   29.5429  -32.4936  -18.9201 O   0  0  0  0  0  0  0  0  0  0  0  0
   28.2022  -32.8375  -17.1420 N   0  0  0  0  0  0  0  0  0  0  0  0
   27.9307  -34.1707  -17.4899 C   0  0  1  0  0  0  0  0  0  0  0  0
   27.9167  -35.1827  -16.4003 C   0  0  0  0  0  0  0  0  0  0  0  0
   27.0309  -34.7499  -15.2449 C   0  0  0  0  0  0  0  0  0  0  0  0
   26.9227  -35.8023  -14.2145 C   0  0  0  0  0  0  0  0  0  0  0  0
   27.4559  -36.9155  -14.4020 O   0  0  0  0  0  0  0  0  0  0  0  0
   26.6508  -34.2319  -18.2337 C   0  0  0  0  0  0  0  0  0  0  0  0
   25.6425  -33.6656  -17.7546 O   0  0  0  0  0  0  0  0  0  0  0  0
   26.2385  -35.5761  -13.0404 O   0  0  0  0  0  0  0  0  0  0  0  0
   26.5163  -34.9020  -19.4622 N   0  0  0  0  0  0  0  0  0  0  0  0
   25.2859  -34.9465  -20.2337 C   0  0  1  0  0  0  0  0  0  0  0  0
   25.6040  -35.7770  -21.4565 C   0  0  0  0  0  0  0  0  0  0  0  0
   24.4836  -35.8921  -22.4369 C   0  0  0  0  0  0  0  0  0  0  0  0
   24.9148  -35.1690  -23.6964 C   0  0  0  0  0  0  0  0  0  0  0  0
   25.2309  -36.1245  -24.8258 C   0  0  0  0  0  0  0  0  0  0  0  0
   25.6098  -35.4605  -26.0408 N   0  0  0  0  0  0  0  0  0  0  0  0
   24.1480  -35.4273  -19.4507 C   0  0  0  0  0  0  0  0  0  0  0  0
   23.0076  -34.9454  -19.6540 O   0  0  0  0  0  0  0  0  0  0  0  0
   24.2555  -36.4072  -18.4734 O   0  0  0  0  0  0  0  0  0  0  0  0
  1  2  1  0
  3  5  1  0
  3  2  1  0
  3  4  1  1
  5  6  2  0
  7  8  1  0
  7  5  1  0
  8  9  1  1
  9 10  1  0
 11 10  1  0
 11 12  2  0
 13  8  1  0
 14 13  2  0
 15 11  1  0
 16 13  1  0
 17 16  1  0
 18 19  1  0
 17 18  1  6
 19 20  1  0
 20 21  1  0
 21 22  1  0
 23 17  1  0
 23 25  1  0
 24 23  2  0
M  END
$$$$
