SEK.pdb
     RDKit          3D

 25 24  0  0  1  0  0  0  0  0999 V2000
   26.3812  -23.2737  -16.3735 O   0  0  0  0  0  0  0  0  0  0  0  0
   25.5487  -22.9159  -15.3040 C   0  0  0  0  0  0  0  0  0  0  0  0
   25.5806  -21.4041  -15.2208 C   0  0  2  0  0  0  0  0  0  0  0  0
   26.7003  -20.9269  -14.4695 N   0  0  0  0  0  0  0  0  0  0  0  0
   24.3267  -20.9419  -14.5520 C   0  0  0  0  0  0  0  0  0  0  0  0
   24.2556  -20.7951  -13.3062 O   0  0  0  0  0  0  0  0  0  0  0  0
   23.1473  -20.6409  -15.2621 N   0  0  0  0  0  0  0  0  0  0  0  0
   21.9537  -20.2186  -14.6548 C   0  0  1  0  0  0  0  0  0  0  0  0
   21.1450  -19.1873  -15.3578 C   0  0  0  0  0  0  0  0  0  0  0  0
   19.9263  -18.7821  -14.5470 C   0  0  0  0  0  0  0  0  0  0  0  0
   19.0283  -17.8959  -15.3147 C   0  0  0  0  0  0  0  0  0  0  0  0
   19.4314  -16.7766  -15.6932 O   0  0  0  0  0  0  0  0  0  0  0  0
   21.1045  -21.3989  -14.3701 C   0  0  0  0  0  0  0  0  0  0  0  0
   20.9791  -22.2824  -15.2479 O   0  0  0  0  0  0  0  0  0  0  0  0
   17.7434  -18.2851  -15.6232 O   0  0  0  0  0  0  0  0  0  0  0  0
   20.4283  -21.5729  -13.1500 N   0  0  0  0  0  0  0  0  0  0  0  0
   19.6529  -22.7541  -12.8113 C   0  0  1  0  0  0  0  0  0  0  0  0
   19.6733  -22.8331  -11.3016 C   0  0  0  0  0  0  0  0  0  0  0  0
   19.0119  -24.0461  -10.7349 C   0  0  0  0  0  0  0  0  0  0  0  0
   19.2246  -24.0124   -9.2352 C   0  0  0  0  0  0  0  0  0  0  0  0
   18.7257  -25.2696   -8.5576 C   0  0  0  0  0  0  0  0  0  0  0  0
   18.9330  -25.2683   -7.1372 N   0  0  0  0  0  0  0  0  0  0  0  0
   18.3151  -22.7373  -13.4019 C   0  0  0  0  0  0  0  0  0  0  0  0
   17.9177  -23.7253  -14.0651 O   0  0  0  0  0  0  0  0  0  0  0  0
   17.4378  -21.6696  -13.2703 O   0  0  0  0  0  0  0  0  0  0  0  0
  1  2  1  0
  3  5  1  0
  3  2  1  0
  3  4  1  1
  5  6  2  0
  7  8  1  0
  7  5  1  0
  8  9  1  6
  9 10  1  0
 11 10  1  0
 11 12  2  0
 13  8  1  0
 14 13  2  0
 15 11  1  0
 16 13  1  0
 17 16  1  0
 18 19  1  0
 17 18  1  1
 19 20  1  0
 20 21  1  0
 21 22  1  0
 23 17  1  0
 23 25  1  0
 24 23  2  0
M  END
$$$$
