RYI.pdb
     RDKit          3D

 32 32  0  0  1  0  0  0  0  0999 V2000
   13.1171  -19.7134   16.4520 N   0  0  0  0  0  0  0  0  0  0  0  0
   13.0044  -20.5488   17.5966 C   0  0  0  0  0  0  0  0  0  0  0  0
   13.9078  -21.4488   17.7711 N   0  0  0  0  0  0  0  0  0  0  0  0
   11.9660  -20.4436   18.5383 N   0  0  0  0  0  0  0  0  0  0  0  0
   10.8566  -19.4906   18.3713 C   0  0  0  0  0  0  0  0  0  0  0  0
    9.9695  -19.6647   19.5533 C   0  0  0  0  0  0  0  0  0  0  0  0
   10.0682  -18.6191   20.6078 C   0  0  0  0  0  0  0  0  0  0  0  0
    9.4074  -17.3170   20.3158 C   0  0  2  0  0  0  0  0  0  0  0  0
    9.9267  -16.6128   19.1898 N   0  0  0  0  0  0  0  0  0  0  0  0
    9.5696  -16.4432   21.5438 C   0  0  0  0  0  0  0  0  0  0  0  0
   10.7266  -16.1692   21.9078 O   0  0  0  0  0  0  0  0  0  0  0  0
   13.9533  -22.1184   18.5442 O   0  0  0  0  0  0  0  0  0  0  0  0
    7.0018  -11.1511   28.1865 C   0  0  0  0  0  0  0  0  0  0  0  0
    7.0443  -11.9271   27.0358 C   0  0  0  0  0  0  0  0  0  0  0  0
    7.7748  -11.5181   25.9423 C   0  0  0  0  0  0  0  0  0  0  0  0
    7.8028  -12.3131   24.7978 C   0  0  0  0  0  0  0  0  0  0  0  0
    7.1191  -13.5014   24.7265 C   0  0  0  0  0  0  0  0  0  0  0  0
    7.1521  -14.3391   23.5165 C   0  0  2  0  0  0  0  0  0  0  0  0
    8.3792  -15.1835   23.4095 N   0  0  0  0  0  0  0  0  0  0  0  0
    8.4546  -15.9662   22.2367 C   0  0  0  0  0  0  0  0  0  0  0  0
    8.6723  -15.8179   24.7020 O   0  0  0  0  0  0  0  0  0  0  0  0
    8.0488  -16.8181   25.0964 C   0  0  0  0  0  0  0  0  0  0  0  0
    6.4000  -13.8831   25.8312 C   0  0  0  0  0  0  0  0  0  0  0  0
    6.3571  -13.1053   26.9860 C   0  0  0  0  0  0  0  0  0  0  0  0
   13.9289  -16.2259   25.1845 C   0  0  0  0  0  0  0  0  0  0  0  0
   12.4620  -16.4928   25.2887 C   0  0  2  0  0  0  0  0  0  0  0  0
   11.7587  -16.0697   26.5137 C   0  0  0  0  0  0  0  0  0  0  0  0
   12.3285  -16.8213   27.7462 C   0  0  2  0  0  0  0  0  0  0  0  0
   10.2871  -16.1818   26.6198 N   0  0  0  0  0  0  0  0  0  0  0  0
    9.6767  -15.3190   25.5502 C   0  0  0  0  0  0  0  0  0  0  0  0
    9.6133  -15.8503   27.8501 O   0  0  0  0  0  0  0  0  0  0  0  0
    8.8816  -14.7163   28.1330 O   0  0  0  0  0  0  0  0  0  0  0  0
  2  4  1  0
  2  1  1  0
  3  2  2  0
  5  6  1  0
  5  4  1  0
  7  8  1  0
  7  6  1  0
  8 10  1  0
  8  9  1  6
 10 11  2  0
 12 13  1  0
 13 23  2  0
 13 14  1  0
 14 15  2  0
 15 16  1  0
 16 17  1  0
 18 17  1  6
 18 20  1  0
 19 18  1  0
 19 10  1  0
 20 29  1  0
 21 20  2  0
 22 16  2  0
 23 22  1  0
 24 25  1  0
 26 25  1  0
 26 28  1  0
 26 27  1  1
 28 30  1  0
 28 29  1  6
 30 32  2  0
 30 31  1  0
M  END
$$$$
