RYI.pdb
     RDKit          3D

 32 32  0  0  1  0  0  0  0  0999 V2000
    8.1047  -22.4751   20.3941 N   0  0  0  0  0  0  0  0  0  0  0  0
    9.3980  -22.6782   19.8403 C   0  0  0  0  0  0  0  0  0  0  0  0
    9.4778  -23.3207   18.7278 N   0  0  0  0  0  0  0  0  0  0  0  0
   10.5831  -22.2182   20.4403 N   0  0  0  0  0  0  0  0  0  0  0  0
   10.6598  -20.9100   21.1107 C   0  0  0  0  0  0  0  0  0  0  0  0
   11.4806  -20.0333   20.2321 C   0  0  0  0  0  0  0  0  0  0  0  0
   11.7495  -18.6608   20.7411 C   0  0  0  0  0  0  0  0  0  0  0  0
   10.8869  -17.5724   20.2037 C   0  0  2  0  0  0  0  0  0  0  0  0
   11.4493  -16.8307   19.1234 N   0  0  0  0  0  0  0  0  0  0  0  0
   10.6036  -16.6161   21.3451 C   0  0  0  0  0  0  0  0  0  0  0  0
   11.5187  -15.8516   21.6976 O   0  0  0  0  0  0  0  0  0  0  0  0
   10.3395  -23.6062   18.2546 O   0  0  0  0  0  0  0  0  0  0  0  0
    7.4925  -12.6104   17.6239 C   0  0  0  0  0  0  0  0  0  0  0  0
    7.5108  -13.2257   18.8685 C   0  0  0  0  0  0  0  0  0  0  0  0
    7.0447  -14.5128   19.0201 C   0  0  0  0  0  0  0  0  0  0  0  0
    7.0725  -15.1102   20.2790 C   0  0  0  0  0  0  0  0  0  0  0  0
    7.5542  -14.4498   21.3819 C   0  0  0  0  0  0  0  0  0  0  0  0
    7.5832  -15.0844   22.7097 C   0  0  2  0  0  0  0  0  0  0  0  0
    8.8725  -15.7745   23.0125 N   0  0  0  0  0  0  0  0  0  0  0  0
    9.3564  -16.5997   21.9739 C   0  0  0  0  0  0  0  0  0  0  0  0
    8.8553  -16.3021   24.3837 O   0  0  0  0  0  0  0  0  0  0  0  0
    8.8670  -17.5231   24.6153 C   0  0  0  0  0  0  0  0  0  0  0  0
    8.0117  -13.1687   21.2005 C   0  0  0  0  0  0  0  0  0  0  0  0
    7.9940  -12.5510   19.9521 C   0  0  0  0  0  0  0  0  0  0  0  0
   10.4718  -13.1195   29.5385 C   0  0  0  0  0  0  0  0  0  0  0  0
   10.5009  -14.3939   28.7583 C   0  0  2  0  0  0  0  0  0  0  0  0
    9.8125  -14.4325   27.4548 C   0  0  0  0  0  0  0  0  0  0  0  0
    8.3622  -13.8990   27.5980 C   0  0  2  0  0  0  0  0  0  0  0  0
    9.7023  -15.6964   26.6931 N   0  0  0  0  0  0  0  0  0  0  0  0
    8.8269  -15.4436   25.4970 C   0  0  0  0  0  0  0  0  0  0  0  0
    9.2015  -16.8915   27.3243 O   0  0  0  0  0  0  0  0  0  0  0  0
    8.0167  -17.5487   27.0679 O   0  0  0  0  0  0  0  0  0  0  0  0
  2  4  1  0
  2  1  1  0
  3  2  2  0
  5  6  1  0
  5  4  1  0
  7  8  1  0
  7  6  1  0
  8 10  1  0
  8  9  1  6
 10 11  2  0
 12 13  1  0
 13 23  2  0
 13 14  1  0
 14 15  2  0
 15 16  1  0
 16 17  1  0
 18 17  1  6
 18 20  1  0
 19 18  1  0
 19 10  1  0
 20 29  1  0
 21 20  2  0
 22 16  2  0
 23 22  1  0
 24 25  1  0
 26 25  1  0
 26 28  1  0
 26 27  1  6
 28 30  1  0
 28 29  1  1
 30 32  2  0
 30 31  1  0
M  END
$$$$
