RYI.pdb
     RDKit          3D

 32 32  0  0  1  0  0  0  0  0999 V2000
    9.6696  -20.3960   16.6394 N   0  0  0  0  0  0  0  0  0  0  0  0
    9.6224  -21.5906   17.4084 C   0  0  0  0  0  0  0  0  0  0  0  0
    9.4677  -22.7019   16.7777 N   0  0  0  0  0  0  0  0  0  0  0  0
    9.7343  -21.6198   18.8094 N   0  0  0  0  0  0  0  0  0  0  0  0
    9.7266  -20.3893   19.6173 C   0  0  0  0  0  0  0  0  0  0  0  0
   11.1512  -20.0442   19.8736 C   0  0  0  0  0  0  0  0  0  0  0  0
   11.3947  -18.8124   20.6725 C   0  0  0  0  0  0  0  0  0  0  0  0
   10.6677  -17.5865   20.2410 C   0  0  2  0  0  0  0  0  0  0  0  0
   11.3342  -16.8024   19.2538 N   0  0  0  0  0  0  0  0  0  0  0  0
   10.4586  -16.7287   21.4732 C   0  0  0  0  0  0  0  0  0  0  0  0
   11.4691  -16.2745   22.0379 O   0  0  0  0  0  0  0  0  0  0  0  0
    9.3680  -23.6288   17.2008 O   0  0  0  0  0  0  0  0  0  0  0  0
    5.9045  -11.4467   26.9226 C   0  0  0  0  0  0  0  0  0  0  0  0
    6.2539  -12.3800   25.9558 C   0  0  0  0  0  0  0  0  0  0  0  0
    6.9300  -11.9921   24.8203 C   0  0  0  0  0  0  0  0  0  0  0  0
    7.2703  -12.9464   23.8631 C   0  0  0  0  0  0  0  0  0  0  0  0
    6.9497  -14.2722   24.0186 C   0  0  0  0  0  0  0  0  0  0  0  0
    7.3118  -15.2774   23.0061 C   0  0  2  0  0  0  0  0  0  0  0  0
    8.7552  -15.6596   23.0353 N   0  0  0  0  0  0  0  0  0  0  0  0
    9.1736  -16.4620   21.9515 C   0  0  0  0  0  0  0  0  0  0  0  0
    9.1487  -16.0499   24.3962 O   0  0  0  0  0  0  0  0  0  0  0  0
    9.1075  -17.2326   24.7755 C   0  0  0  0  0  0  0  0  0  0  0  0
    6.2759  -14.6290   25.1597 C   0  0  0  0  0  0  0  0  0  0  0  0
    5.9254  -13.6932   26.1301 C   0  0  0  0  0  0  0  0  0  0  0  0
   10.4433  -13.3498   29.8819 C   0  0  0  0  0  0  0  0  0  0  0  0
   10.7011  -14.4704   28.9272 C   0  0  2  0  0  0  0  0  0  0  0  0
   10.1473  -14.3705   27.5643 C   0  0  0  0  0  0  0  0  0  0  0  0
    8.6528  -13.9557   27.6215 C   0  0  2  0  0  0  0  0  0  0  0  0
   10.2100  -15.5199   26.6346 N   0  0  0  0  0  0  0  0  0  0  0  0
    9.5927  -15.0972   25.3302 C   0  0  0  0  0  0  0  0  0  0  0  0
    9.6064  -16.7808   26.9859 O   0  0  0  0  0  0  0  0  0  0  0  0
    8.3030  -17.1801   26.7777 O   0  0  0  0  0  0  0  0  0  0  0  0
  2  4  1  0
  2  1  1  0
  3  2  2  0
  5  6  1  0
  5  4  1  0
  7  8  1  0
  7  6  1  0
  8 10  1  0
  8  9  1  6
 10 11  2  0
 12 13  1  0
 13 23  2  0
 13 14  1  0
 14 15  2  0
 15 16  1  0
 16 17  1  0
 18 17  1  6
 18 20  1  0
 19 18  1  0
 19 10  1  0
 20 29  1  0
 21 20  2  0
 22 16  2  0
 23 22  1  0
 24 25  1  0
 26 25  1  0
 26 28  1  0
 26 27  1  6
 28 30  1  0
 28 29  1  1
 30 32  2  0
 30 31  1  0
M  END
$$$$
