RYI.pdb
     RDKit          3D

 32 32  0  0  1  0  0  0  0  0999 V2000
    7.6840  -13.6872   17.2648 N   0  0  0  0  0  0  0  0  0  0  0  0
    8.7023  -14.0211   18.1987 C   0  0  0  0  0  0  0  0  0  0  0  0
    9.5176  -13.0901   18.5526 N   0  0  0  0  0  0  0  0  0  0  0  0
    8.8634  -15.3044   18.7496 N   0  0  0  0  0  0  0  0  0  0  0  0
    7.7130  -16.1684   19.0611 C   0  0  0  0  0  0  0  0  0  0  0  0
    6.9385  -15.4724   20.1240 C   0  0  0  0  0  0  0  0  0  0  0  0
    5.7790  -16.2175   20.6860 C   0  0  0  0  0  0  0  0  0  0  0  0
    6.0736  -17.5454   21.2920 C   0  0  2  0  0  0  0  0  0  0  0  0
    5.1404  -18.5763   20.9763 N   0  0  0  0  0  0  0  0  0  0  0  0
    6.0925  -17.3606   22.7964 C   0  0  0  0  0  0  0  0  0  0  0  0
    5.0316  -17.0213   23.3491 O   0  0  0  0  0  0  0  0  0  0  0  0
   10.3402  -13.2019   19.1516 O   0  0  0  0  0  0  0  0  0  0  0  0
    5.7685  -23.0322   26.9481 C   0  0  0  0  0  0  0  0  0  0  0  0
    6.4225  -21.8529   26.6175 C   0  0  0  0  0  0  0  0  0  0  0  0
    6.5834  -20.8555   27.5536 C   0  0  0  0  0  0  0  0  0  0  0  0
    7.2431  -19.6800   27.1992 C   0  0  0  0  0  0  0  0  0  0  0  0
    7.7418  -19.4841   25.9352 C   0  0  0  0  0  0  0  0  0  0  0  0
    8.4391  -18.2417   25.5649 C   0  0  2  0  0  0  0  0  0  0  0  0
    7.5629  -17.2502   24.8726 N   0  0  0  0  0  0  0  0  0  0  0  0
    7.2637  -17.5660   23.5293 C   0  0  0  0  0  0  0  0  0  0  0  0
    7.9895  -15.8823   25.1983 O   0  0  0  0  0  0  0  0  0  0  0  0
    8.7650  -15.2465   24.4643 C   0  0  0  0  0  0  0  0  0  0  0  0
    7.5665  -20.4950   25.0238 C   0  0  0  0  0  0  0  0  0  0  0  0
    6.9107  -21.6785   25.3550 C   0  0  0  0  0  0  0  0  0  0  0  0
    5.8466  -10.7148   27.4812 C   0  0  0  0  0  0  0  0  0  0  0  0
    7.0621  -11.5702   27.3244 C   0  0  2  0  0  0  0  0  0  0  0  0
    6.8794  -12.9832   26.9445 C   0  0  0  0  0  0  0  0  0  0  0  0
    5.9837  -13.7070   27.9849 C   0  0  2  0  0  0  0  0  0  0  0  0
    8.0464  -13.8683   26.7340 N   0  0  0  0  0  0  0  0  0  0  0  0
    7.5344  -15.2315   26.3586 C   0  0  0  0  0  0  0  0  0  0  0  0
    9.0145  -14.0670   27.7831 O   0  0  0  0  0  0  0  0  0  0  0  0
    9.2398  -15.2116   28.5185 O   0  0  0  0  0  0  0  0  0  0  0  0
  2  4  1  0
  2  1  1  0
  3  2  2  0
  5  6  1  0
  5  4  1  0
  7  8  1  0
  7  6  1  0
  8 10  1  0
  8  9  1  1
 10 11  2  0
 12 13  1  0
 13 23  2  0
 13 14  1  0
 14 15  2  0
 15 16  1  0
 16 17  1  0
 18 17  1  1
 18 20  1  0
 19 18  1  0
 19 10  1  0
 20 29  1  0
 21 20  2  0
 22 16  2  0
 23 22  1  0
 24 25  1  0
 26 25  1  0
 26 28  1  0
 26 27  1  6
 28 30  1  0
 28 29  1  1
 30 32  2  0
 30 31  1  0
M  END
$$$$
