RYI.pdb
     RDKit          3D

 32 32  0  0  1  0  0  0  0  0999 V2000
   14.6153  -17.0522   15.5107 N   0  0  0  0  0  0  0  0  0  0  0  0
   13.9667  -18.3032   15.3239 C   0  0  0  0  0  0  0  0  0  0  0  0
   14.4057  -19.0704   14.3883 N   0  0  0  0  0  0  0  0  0  0  0  0
   12.8800  -18.7408   16.1011 N   0  0  0  0  0  0  0  0  0  0  0  0
   12.3177  -17.9200   17.1859 C   0  0  0  0  0  0  0  0  0  0  0  0
   12.8256  -18.4987   18.4592 C   0  0  0  0  0  0  0  0  0  0  0  0
   12.4747  -17.7595   19.7024 C   0  0  0  0  0  0  0  0  0  0  0  0
   11.0245  -17.6483   20.0219 C   0  0  2  0  0  0  0  0  0  0  0  0
   10.1940  -17.2424   18.9360 N   0  0  0  0  0  0  0  0  0  0  0  0
   10.8849  -16.6318   21.1376 C   0  0  0  0  0  0  0  0  0  0  0  0
   11.6850  -15.6801   21.1542 O   0  0  0  0  0  0  0  0  0  0  0  0
   14.0547  -20.0038   14.1568 O   0  0  0  0  0  0  0  0  0  0  0  0
    7.3149  -12.7011   18.0183 C   0  0  0  0  0  0  0  0  0  0  0  0
    7.5175  -13.3346   19.2371 C   0  0  0  0  0  0  0  0  0  0  0  0
    8.1830  -12.6925   20.2577 C   0  0  0  0  0  0  0  0  0  0  0  0
    8.3750  -13.3481   21.4726 C   0  0  0  0  0  0  0  0  0  0  0  0
    7.9172  -14.6247   21.6852 C   0  0  0  0  0  0  0  0  0  0  0  0
    8.1207  -15.3135   22.9701 C   0  0  2  0  0  0  0  0  0  0  0  0
    9.4938  -15.8778   23.1329 N   0  0  0  0  0  0  0  0  0  0  0  0
    9.8903  -16.7657   22.1093 C   0  0  0  0  0  0  0  0  0  0  0  0
    9.7194  -16.2666   24.5318 O   0  0  0  0  0  0  0  0  0  0  0  0
    9.7566  -17.4585   24.8818 C   0  0  0  0  0  0  0  0  0  0  0  0
    7.2579  -15.2393   20.6503 C   0  0  0  0  0  0  0  0  0  0  0  0
    7.0541  -14.6042   19.4274 C   0  0  0  0  0  0  0  0  0  0  0  0
   10.0879  -13.3743   30.0949 C   0  0  0  0  0  0  0  0  0  0  0  0
   10.4052  -14.5612   29.2439 C   0  0  2  0  0  0  0  0  0  0  0  0
   10.0306  -14.5207   27.8183 C   0  0  0  0  0  0  0  0  0  0  0  0
    8.5411  -14.1121   27.6664 C   0  0  2  0  0  0  0  0  0  0  0  0
   10.2120  -15.7073   26.9530 N   0  0  0  0  0  0  0  0  0  0  0  0
    9.9057  -15.3020   25.5377 C   0  0  0  0  0  0  0  0  0  0  0  0
    9.4708  -16.9177   27.2038 O   0  0  0  0  0  0  0  0  0  0  0  0
    8.3581  -17.3807   26.5337 O   0  0  0  0  0  0  0  0  0  0  0  0
  2  4  1  0
  2  1  1  0
  3  2  2  0
  5  6  1  0
  5  4  1  0
  7  8  1  0
  7  6  1  0
  8 10  1  0
  8  9  1  6
 10 11  2  0
 12 13  1  0
 13 23  2  0
 13 14  1  0
 14 15  2  0
 15 16  1  0
 16 17  1  0
 18 17  1  6
 18 20  1  0
 19 18  1  0
 19 10  1  0
 20 29  1  0
 21 20  2  0
 22 16  2  0
 23 22  1  0
 24 25  1  0
 26 25  1  0
 26 28  1  0
 26 27  1  6
 28 30  1  0
 28 29  1  1
 30 32  2  0
 30 31  1  0
M  END
$$$$
