RYI.pdb
     RDKit          3D

 32 32  0  0  1  0  0  0  0  0999 V2000
    8.9529  -13.3521   16.4993 N   0  0  0  0  0  0  0  0  0  0  0  0
    9.0676  -12.9499   17.8578 C   0  0  0  0  0  0  0  0  0  0  0  0
   10.2520  -12.8136   18.3430 N   0  0  0  0  0  0  0  0  0  0  0  0
    7.9639  -12.6965   18.6908 N   0  0  0  0  0  0  0  0  0  0  0  0
    6.7877  -13.5813   18.7161 C   0  0  0  0  0  0  0  0  0  0  0  0
    7.3001  -14.9572   18.9583 C   0  0  0  0  0  0  0  0  0  0  0  0
    7.2548  -15.4360   20.3668 C   0  0  0  0  0  0  0  0  0  0  0  0
    7.7699  -16.8104   20.6178 C   0  0  2  0  0  0  0  0  0  0  0  0
    6.9939  -17.8621   20.0475 N   0  0  0  0  0  0  0  0  0  0  0  0
    7.8143  -17.0083   22.1201 C   0  0  0  0  0  0  0  0  0  0  0  0
    6.7329  -17.0096   22.7337 O   0  0  0  0  0  0  0  0  0  0  0  0
   10.4862  -12.4832   19.2832 O   0  0  0  0  0  0  0  0  0  0  0  0
   11.0466  -17.8824   30.2361 C   0  0  0  0  0  0  0  0  0  0  0  0
   10.9434  -17.8198   28.8528 C   0  0  0  0  0  0  0  0  0  0  0  0
   11.7682  -16.9900   28.1262 C   0  0  0  0  0  0  0  0  0  0  0  0
   11.6465  -16.9433   26.7385 C   0  0  0  0  0  0  0  0  0  0  0  0
   10.7223  -17.7053   26.0680 C   0  0  0  0  0  0  0  0  0  0  0  0
   10.5975  -17.6543   24.6022 C   0  0  2  0  0  0  0  0  0  0  0  0
    9.3728  -16.9400   24.1328 N   0  0  0  0  0  0  0  0  0  0  0  0
    9.0305  -17.1824   22.7846 C   0  0  0  0  0  0  0  0  0  0  0  0
    9.3748  -15.5548   24.6230 O   0  0  0  0  0  0  0  0  0  0  0  0
   10.1455  -14.6975   24.1588 C   0  0  0  0  0  0  0  0  0  0  0  0
    9.9142  -18.5224   26.8183 C   0  0  0  0  0  0  0  0  0  0  0  0
   10.0175  -18.5859   28.2060 C   0  0  0  0  0  0  0  0  0  0  0  0
    5.7017  -11.0716   26.0113 C   0  0  0  0  0  0  0  0  0  0  0  0
    7.0333  -11.6804   26.3109 C   0  0  2  0  0  0  0  0  0  0  0  0
    7.2569  -13.0908   25.9435 C   0  0  0  0  0  0  0  0  0  0  0  0
    6.1964  -13.9971   26.6239 C   0  0  2  0  0  0  0  0  0  0  0  0
    8.5619  -13.7417   26.1944 N   0  0  0  0  0  0  0  0  0  0  0  0
    8.4989  -15.1385   25.6411 C   0  0  0  0  0  0  0  0  0  0  0  0
    9.0800  -13.8531   27.5348 O   0  0  0  0  0  0  0  0  0  0  0  0
    9.1905  -14.9913   28.3054 O   0  0  0  0  0  0  0  0  0  0  0  0
  2  4  1  0
  2  1  1  0
  3  2  2  0
  5  6  1  0
  5  4  1  0
  7  8  1  0
  7  6  1  0
  8 10  1  0
  8  9  1  6
 10 11  2  0
 12 13  1  0
 13 23  2  0
 13 14  1  0
 14 15  2  0
 15 16  1  0
 16 17  1  0
 18 17  1  1
 18 20  1  0
 19 18  1  0
 19 10  1  0
 20 29  1  0
 21 20  2  0
 22 16  2  0
 23 22  1  0
 24 25  1  0
 26 25  1  0
 26 28  1  0
 26 27  1  6
 28 30  1  0
 28 29  1  1
 30 32  2  0
 30 31  1  0
M  END
$$$$
