RYI.pdb
     RDKit          3D

 32 32  0  0  1  0  0  0  0  0999 V2000
   13.6742  -19.5511   16.5362 N   0  0  0  0  0  0  0  0  0  0  0  0
   13.1277  -20.6204   17.2969 C   0  0  0  0  0  0  0  0  0  0  0  0
   12.5652  -21.5841   16.6554 N   0  0  0  0  0  0  0  0  0  0  0  0
   13.1692  -20.6780   18.7009 N   0  0  0  0  0  0  0  0  0  0  0  0
   13.8283  -19.6354   19.5042 C   0  0  0  0  0  0  0  0  0  0  0  0
   13.1484  -18.3542   19.1720 C   0  0  0  0  0  0  0  0  0  0  0  0
   12.6128  -17.5775   20.3232 C   0  0  0  0  0  0  0  0  0  0  0  0
   11.1304  -17.4865   20.4306 C   0  0  2  0  0  0  0  0  0  0  0  0
   10.4714  -16.9510   19.2851 N   0  0  0  0  0  0  0  0  0  0  0  0
   10.8178  -16.6012   21.6207 C   0  0  0  0  0  0  0  0  0  0  0  0
   11.7638  -15.9935   22.1516 O   0  0  0  0  0  0  0  0  0  0  0  0
   12.0831  -22.3865   17.0698 O   0  0  0  0  0  0  0  0  0  0  0  0
    5.9090  -11.8134   27.1738 C   0  0  0  0  0  0  0  0  0  0  0  0
    6.3135  -12.6942   26.1795 C   0  0  0  0  0  0  0  0  0  0  0  0
    5.9401  -14.0191   26.2236 C   0  0  0  0  0  0  0  0  0  0  0  0
    6.3580  -14.8851   25.2147 C   0  0  0  0  0  0  0  0  0  0  0  0
    7.1369  -14.4545   24.1694 C   0  0  0  0  0  0  0  0  0  0  0  0
    7.5754  -15.3718   23.1049 C   0  0  2  0  0  0  0  0  0  0  0  0
    9.0131  -15.7621   23.2094 N   0  0  0  0  0  0  0  0  0  0  0  0
    9.5110  -16.4771   22.0983 C   0  0  0  0  0  0  0  0  0  0  0  0
    9.3059  -16.2619   24.5598 O   0  0  0  0  0  0  0  0  0  0  0  0
    9.3096  -17.4768   24.8213 C   0  0  0  0  0  0  0  0  0  0  0  0
    7.4935  -13.1294   24.1521 C   0  0  0  0  0  0  0  0  0  0  0  0
    7.0878  -12.2452   25.1491 C   0  0  0  0  0  0  0  0  0  0  0  0
   10.5787  -12.3632   28.5724 C   0  0  0  0  0  0  0  0  0  0  0  0
   10.7058  -13.4494   27.5538 C   0  0  2  0  0  0  0  0  0  0  0  0
   10.1740  -14.7844   27.8839 C   0  0  0  0  0  0  0  0  0  0  0  0
   10.8673  -15.3384   29.1571 C   0  0  2  0  0  0  0  0  0  0  0  0
   10.2157  -15.8830   26.8935 N   0  0  0  0  0  0  0  0  0  0  0  0
    9.5976  -15.3824   25.6174 C   0  0  0  0  0  0  0  0  0  0  0  0
    9.5964  -17.1525   27.1802 O   0  0  0  0  0  0  0  0  0  0  0  0
    8.3055  -17.5457   26.8962 O   0  0  0  0  0  0  0  0  0  0  0  0
  2  4  1  0
  2  1  1  0
  3  2  2  0
  5  6  1  0
  5  4  1  0
  7  8  1  0
  7  6  1  0
  8 10  1  0
  8  9  1  6
 10 11  2  0
 12 13  1  0
 13 23  2  0
 13 14  1  0
 14 15  2  0
 15 16  1  0
 16 17  1  0
 18 17  1  6
 18 20  1  0
 19 18  1  0
 19 10  1  0
 20 29  1  0
 21 20  2  0
 22 16  2  0
 23 22  1  0
 24 25  1  0
 26 25  1  0
 26 28  1  0
 26 27  1  6
 28 30  1  0
 28 29  1  6
 30 32  2  0
 30 31  1  0
M  END
$$$$
