RYI.pdb
     RDKit          3D

 32 32  0  0  1  0  0  0  0  0999 V2000
    9.1400  -20.0020   15.0412 N   0  0  0  0  0  0  0  0  0  0  0  0
    8.4519  -18.8433   15.4934 C   0  0  0  0  0  0  0  0  0  0  0  0
    7.2987  -18.5940   14.9790 N   0  0  0  0  0  0  0  0  0  0  0  0
    8.9621  -17.9637   16.4641 N   0  0  0  0  0  0  0  0  0  0  0  0
   10.3004  -18.1424   17.0506 C   0  0  0  0  0  0  0  0  0  0  0  0
   10.1239  -19.0084   18.2478 C   0  0  0  0  0  0  0  0  0  0  0  0
   10.6976  -18.4933   19.5209 C   0  0  0  0  0  0  0  0  0  0  0  0
    9.7757  -18.4348   20.6889 C   0  0  2  0  0  0  0  0  0  0  0  0
    8.3886  -18.3739   20.3638 N   0  0  0  0  0  0  0  0  0  0  0  0
   10.1356  -17.1968   21.4861 C   0  0  0  0  0  0  0  0  0  0  0  0
   11.3110  -17.0833   21.8756 O   0  0  0  0  0  0  0  0  0  0  0  0
    6.7131  -17.7773   15.1741 O   0  0  0  0  0  0  0  0  0  0  0  0
    7.2157  -13.3102   16.6200 C   0  0  0  0  0  0  0  0  0  0  0  0
    7.4687  -13.4734   17.9754 C   0  0  0  0  0  0  0  0  0  0  0  0
    8.4248  -12.7086   18.6062 C   0  0  0  0  0  0  0  0  0  0  0  0
    8.6619  -12.8900   19.9676 C   0  0  0  0  0  0  0  0  0  0  0  0
    7.9660  -13.8151   20.7055 C   0  0  0  0  0  0  0  0  0  0  0  0
    8.2183  -14.0030   22.1435 C   0  0  2  0  0  0  0  0  0  0  0  0
    9.3065  -14.9836   22.4345 N   0  0  0  0  0  0  0  0  0  0  0  0
    9.1758  -16.2223   21.7694 C   0  0  0  0  0  0  0  0  0  0  0  0
    9.6193  -14.9824   23.8702 O   0  0  0  0  0  0  0  0  0  0  0  0
   10.6497  -14.4486   24.3149 C   0  0  0  0  0  0  0  0  0  0  0  0
    7.0199  -14.5627   20.0501 C   0  0  0  0  0  0  0  0  0  0  0  0
    6.7654  -14.3991   18.6904 C   0  0  0  0  0  0  0  0  0  0  0  0
    7.0735  -11.9263   27.6646 C   0  0  0  0  0  0  0  0  0  0  0  0
    7.8766  -13.1863   27.6295 C   0  0  2  0  0  0  0  0  0  0  0  0
    7.9125  -13.9587   26.3740 C   0  0  0  0  0  0  0  0  0  0  0  0
    6.4813  -14.4140   25.9829 C   0  0  2  0  0  0  0  0  0  0  0  0
    8.7651  -15.1616   26.2484 N   0  0  0  0  0  0  0  0  0  0  0  0
    8.7607  -15.5862   24.8059 C   0  0  0  0  0  0  0  0  0  0  0  0
    8.4855  -16.3428   27.0257 O   0  0  0  0  0  0  0  0  0  0  0  0
    8.0340  -17.5645   26.5726 O   0  0  0  0  0  0  0  0  0  0  0  0
  2  4  1  0
  2  1  1  0
  3  2  2  0
  5  6  1  0
  5  4  1  0
  7  8  1  0
  7  6  1  0
  8 10  1  0
  8  9  1  6
 10 11  2  0
 12 13  1  0
 13 23  2  0
 13 14  1  0
 14 15  2  0
 15 16  1  0
 16 17  1  0
 18 17  1  6
 18 20  1  0
 19 18  1  0
 19 10  1  0
 20 29  1  0
 21 20  2  0
 22 16  2  0
 23 22  1  0
 24 25  1  0
 26 25  1  0
 26 28  1  0
 26 27  1  6
 28 30  1  0
 28 29  1  1
 30 32  2  0
 30 31  1  0
M  END
$$$$
