RYI.pdb
     RDKit          3D

 32 32  0  0  1  0  0  0  0  0999 V2000
    8.0192  -13.9130   16.1479 N   0  0  0  0  0  0  0  0  0  0  0  0
    8.4316  -13.3823   17.4004 C   0  0  0  0  0  0  0  0  0  0  0  0
    8.7516  -12.1364   17.4457 N   0  0  0  0  0  0  0  0  0  0  0  0
    8.5079  -14.1418   18.5809 N   0  0  0  0  0  0  0  0  0  0  0  0
    8.2610  -15.5929   18.5908 C   0  0  0  0  0  0  0  0  0  0  0  0
    6.8171  -15.7729   18.9020 C   0  0  0  0  0  0  0  0  0  0  0  0
    6.4719  -15.9451   20.3395 C   0  0  0  0  0  0  0  0  0  0  0  0
    7.1303  -17.0763   21.0497 C   0  0  2  0  0  0  0  0  0  0  0  0
    6.7272  -18.3762   20.6238 N   0  0  0  0  0  0  0  0  0  0  0  0
    6.8066  -16.9333   22.5236 C   0  0  0  0  0  0  0  0  0  0  0  0
    6.2769  -15.8723   22.8974 O   0  0  0  0  0  0  0  0  0  0  0  0
    9.1227  -11.6362   18.2582 O   0  0  0  0  0  0  0  0  0  0  0  0
    9.4962  -19.0746   30.7458 C   0  0  0  0  0  0  0  0  0  0  0  0
    9.1848  -19.0889   29.3928 C   0  0  0  0  0  0  0  0  0  0  0  0
    7.8724  -19.1271   28.9768 C   0  0  0  0  0  0  0  0  0  0  0  0
    7.5835  -19.1410   27.6134 C   0  0  0  0  0  0  0  0  0  0  0  0
    8.5751  -19.1176   26.6643 C   0  0  0  0  0  0  0  0  0  0  0  0
    8.2661  -19.1311   25.2251 C   0  0  2  0  0  0  0  0  0  0  0  0
    7.5656  -17.8991   24.7543 N   0  0  0  0  0  0  0  0  0  0  0  0
    7.0959  -17.9611   23.4242 C   0  0  0  0  0  0  0  0  0  0  0  0
    8.2978  -16.7019   25.1897 O   0  0  0  0  0  0  0  0  0  0  0  0
    9.2925  -16.2830   24.5735 C   0  0  0  0  0  0  0  0  0  0  0  0
    9.8731  -19.0799   27.1084 C   0  0  0  0  0  0  0  0  0  0  0  0
   10.1861  -19.0652   28.4656 C   0  0  0  0  0  0  0  0  0  0  0  0
    5.3216  -12.4948   27.1290 C   0  0  0  0  0  0  0  0  0  0  0  0
    6.3762  -13.3129   26.4566 C   0  0  2  0  0  0  0  0  0  0  0  0
    7.5172  -13.7839   27.2632 C   0  0  0  0  0  0  0  0  0  0  0  0
    8.2853  -12.5759   27.8627 C   0  0  2  0  0  0  0  0  0  0  0  0
    8.5501  -14.6642   26.6735 N   0  0  0  0  0  0  0  0  0  0  0  0
    7.9007  -15.9751   26.3260 C   0  0  0  0  0  0  0  0  0  0  0  0
    9.7494  -14.9810   27.4075 O   0  0  0  0  0  0  0  0  0  0  0  0
    9.8952  -15.8878   28.4360 O   0  0  0  0  0  0  0  0  0  0  0  0
  2  4  1  0
  2  1  1  0
  3  2  2  0
  5  6  1  0
  5  4  1  0
  7  8  1  0
  7  6  1  0
  8 10  1  0
  8  9  1  6
 10 11  2  0
 12 13  1  0
 13 23  2  0
 13 14  1  0
 14 15  2  0
 15 16  1  0
 16 17  1  0
 18 17  1  1
 18 20  1  0
 19 18  1  0
 19 10  1  0
 20 29  1  0
 21 20  2  0
 22 16  2  0
 23 22  1  0
 24 25  1  0
 26 25  1  0
 26 28  1  0
 26 27  1  1
 28 30  1  0
 28 29  1  6
 30 32  2  0
 30 31  1  0
M  END
$$$$
