RYI.pdb
     RDKit          3D

 32 32  0  0  1  0  0  0  0  0999 V2000
    9.5034  -14.3879   17.8403 N   0  0  0  0  0  0  0  0  0  0  0  0
    8.6168  -14.1889   18.9334 C   0  0  0  0  0  0  0  0  0  0  0  0
    8.1137  -13.0144   19.0890 N   0  0  0  0  0  0  0  0  0  0  0  0
    8.2653  -15.1997   19.8450 N   0  0  0  0  0  0  0  0  0  0  0  0
    7.1598  -16.1354   19.5824 C   0  0  0  0  0  0  0  0  0  0  0  0
    6.0845  -15.8013   20.5552 C   0  0  0  0  0  0  0  0  0  0  0  0
    5.1401  -16.9009   20.8931 C   0  0  0  0  0  0  0  0  0  0  0  0
    5.7140  -18.0715   21.6125 C   0  0  2  0  0  0  0  0  0  0  0  0
    4.9259  -19.2589   21.5638 N   0  0  0  0  0  0  0  0  0  0  0  0
    5.8853  -17.6695   23.0640 C   0  0  0  0  0  0  0  0  0  0  0  0
    4.9053  -17.1694   23.6433 O   0  0  0  0  0  0  0  0  0  0  0  0
    7.5566  -12.6958   19.8866 O   0  0  0  0  0  0  0  0  0  0  0  0
    5.0839  -23.2470   26.6905 C   0  0  0  0  0  0  0  0  0  0  0  0
    5.8555  -22.1175   26.4524 C   0  0  0  0  0  0  0  0  0  0  0  0
    6.5204  -21.9633   25.2562 C   0  0  0  0  0  0  0  0  0  0  0  0
    7.2893  -20.8213   25.0393 C   0  0  0  0  0  0  0  0  0  0  0  0
    7.4053  -19.8370   25.9892 C   0  0  0  0  0  0  0  0  0  0  0  0
    8.2173  -18.6315   25.7561 C   0  0  2  0  0  0  0  0  0  0  0  0
    7.4800  -17.5445   25.0454 N   0  0  0  0  0  0  0  0  0  0  0  0
    7.1036  -17.8572   23.7210 C   0  0  0  0  0  0  0  0  0  0  0  0
    8.1121  -16.2451   25.3119 O   0  0  0  0  0  0  0  0  0  0  0  0
    8.9747  -15.7693   24.5542 C   0  0  0  0  0  0  0  0  0  0  0  0
    6.7318  -20.0180   27.1711 C   0  0  0  0  0  0  0  0  0  0  0  0
    5.9573  -21.1508   27.4105 C   0  0  0  0  0  0  0  0  0  0  0  0
    5.2351  -11.9481   27.1160 C   0  0  0  0  0  0  0  0  0  0  0  0
    6.2552  -12.8357   26.4796 C   0  0  2  0  0  0  0  0  0  0  0  0
    7.4252  -13.2430   27.2792 C   0  0  0  0  0  0  0  0  0  0  0  0
    8.2113  -11.9924   27.7554 C   0  0  2  0  0  0  0  0  0  0  0  0
    8.4387  -14.1669   26.7233 N   0  0  0  0  0  0  0  0  0  0  0  0
    7.7644  -15.4807   26.4397 C   0  0  0  0  0  0  0  0  0  0  0  0
    9.6377  -14.4710   27.4631 O   0  0  0  0  0  0  0  0  0  0  0  0
   10.8720  -13.8657   27.3566 O   0  0  0  0  0  0  0  0  0  0  0  0
  2  4  1  0
  2  1  1  0
  3  2  2  0
  5  6  1  0
  5  4  1  0
  7  8  1  0
  7  6  1  0
  8 10  1  0
  8  9  1  1
 10 11  2  0
 12 13  1  0
 13 23  2  0
 13 14  1  0
 14 15  2  0
 15 16  1  0
 16 17  1  0
 18 17  1  1
 18 20  1  0
 19 18  1  0
 19 10  1  0
 20 29  1  0
 21 20  2  0
 22 16  2  0
 23 22  1  0
 24 25  1  0
 26 25  1  0
 26 28  1  0
 26 27  1  1
 28 30  1  0
 28 29  1  6
 30 32  2  0
 30 31  1  0
M  END
$$$$
