RYI.pdb
     RDKit          3D

 32 32  0  0  1  0  0  0  0  0999 V2000
   10.4851  -16.1860   17.1689 N   0  0  0  0  0  0  0  0  0  0  0  0
   10.3534  -17.3491   16.3623 C   0  0  0  0  0  0  0  0  0  0  0  0
   11.0800  -17.4274   15.3028 N   0  0  0  0  0  0  0  0  0  0  0  0
    9.4776  -18.4078   16.6596 N   0  0  0  0  0  0  0  0  0  0  0  0
    8.6941  -18.4443   17.9052 C   0  0  0  0  0  0  0  0  0  0  0  0
    9.5109  -19.1971   18.8953 C   0  0  0  0  0  0  0  0  0  0  0  0
   10.1511  -18.3887   19.9685 C   0  0  0  0  0  0  0  0  0  0  0  0
    9.3876  -18.2486   21.2393 C   0  0  2  0  0  0  0  0  0  0  0  0
    7.9709  -18.3454   21.1091 N   0  0  0  0  0  0  0  0  0  0  0  0
    9.7234  -16.8892   21.8199 C   0  0  0  0  0  0  0  0  0  0  0  0
   10.9246  -16.6136   21.9853 O   0  0  0  0  0  0  0  0  0  0  0  0
   10.9932  -18.1264   14.5600 O   0  0  0  0  0  0  0  0  0  0  0  0
    7.3800  -13.6159   16.4577 C   0  0  0  0  0  0  0  0  0  0  0  0
    7.4608  -13.6554   17.8433 C   0  0  0  0  0  0  0  0  0  0  0  0
    6.8387  -14.6587   18.5525 C   0  0  0  0  0  0  0  0  0  0  0  0
    6.9333  -14.6781   19.9430 C   0  0  0  0  0  0  0  0  0  0  0  0
    7.6334  -13.7199   20.6332 C   0  0  0  0  0  0  0  0  0  0  0  0
    7.7321  -13.7442   22.1016 C   0  0  2  0  0  0  0  0  0  0  0  0
    8.8038  -14.6505   22.6120 N   0  0  0  0  0  0  0  0  0  0  0  0
    8.7142  -15.9835   22.1550 C   0  0  0  0  0  0  0  0  0  0  0  0
    9.0335  -14.4084   24.0429 O   0  0  0  0  0  0  0  0  0  0  0  0
    9.5266  -13.3449   24.4557 C   0  0  0  0  0  0  0  0  0  0  0  0
    8.2426  -12.7326   19.8999 C   0  0  0  0  0  0  0  0  0  0  0  0
    8.1621  -12.6927   18.5099 C   0  0  0  0  0  0  0  0  0  0  0  0
    6.4222  -12.1358   26.7287 C   0  0  0  0  0  0  0  0  0  0  0  0
    7.5768  -12.9566   26.2525 C   0  0  2  0  0  0  0  0  0  0  0  0
    7.8826  -14.2127   26.9618 C   0  0  0  0  0  0  0  0  0  0  0  0
    8.2298  -13.9199   28.4459 C   0  0  2  0  0  0  0  0  0  0  0  0
    8.9439  -15.1204   26.4724 N   0  0  0  0  0  0  0  0  0  0  0  0
    8.7016  -15.3735   25.0101 C   0  0  0  0  0  0  0  0  0  0  0  0
    9.1461  -16.4093   27.0850 O   0  0  0  0  0  0  0  0  0  0  0  0
    8.8454  -17.6493   26.5620 O   0  0  0  0  0  0  0  0  0  0  0  0
  2  4  1  0
  2  1  1  0
  3  2  2  0
  5  6  1  0
  5  4  1  0
  7  8  1  0
  7  6  1  0
  8 10  1  0
  8  9  1  6
 10 11  2  0
 12 13  1  0
 13 23  2  0
 13 14  1  0
 14 15  2  0
 15 16  1  0
 16 17  1  0
 18 17  1  6
 18 20  1  0
 19 18  1  0
 19 10  1  0
 20 29  1  0
 21 20  2  0
 22 16  2  0
 23 22  1  0
 24 25  1  0
 26 25  1  0
 26 28  1  0
 26 27  1  6
 28 30  1  0
 28 29  1  6
 30 32  2  0
 30 31  1  0
M  END
$$$$
