RYI.pdb
     RDKit          3D

 32 32  0  0  1  0  0  0  0  0999 V2000
    7.7129  -12.4945   18.6042 N   0  0  0  0  0  0  0  0  0  0  0  0
    8.0456  -13.5708   17.7374 C   0  0  0  0  0  0  0  0  0  0  0  0
    9.0243  -13.3990   16.9193 N   0  0  0  0  0  0  0  0  0  0  0  0
    7.3660  -14.8014   17.7275 N   0  0  0  0  0  0  0  0  0  0  0  0
    6.4806  -15.2111   18.8298 C   0  0  0  0  0  0  0  0  0  0  0  0
    6.8597  -16.6071   19.1786 C   0  0  0  0  0  0  0  0  0  0  0  0
    7.7738  -16.7679   20.3421 C   0  0  0  0  0  0  0  0  0  0  0  0
    8.9827  -17.6099   20.1253 C   0  0  2  0  0  0  0  0  0  0  0  0
    8.7276  -19.0007   19.9410 N   0  0  0  0  0  0  0  0  0  0  0  0
    9.8726  -17.4431   21.3411 C   0  0  0  0  0  0  0  0  0  0  0  0
   10.0200  -18.4269   22.0872 O   0  0  0  0  0  0  0  0  0  0  0  0
    9.3282  -14.0539   16.1935 O   0  0  0  0  0  0  0  0  0  0  0  0
   14.9373  -15.1455   17.5276 C   0  0  0  0  0  0  0  0  0  0  0  0
   14.2597  -15.0301   18.7340 C   0  0  0  0  0  0  0  0  0  0  0  0
   13.0054  -14.4633   18.7809 C   0  0  0  0  0  0  0  0  0  0  0  0
   12.3440  -14.3577   20.0032 C   0  0  0  0  0  0  0  0  0  0  0  0
   12.9089  -14.8051   21.1717 C   0  0  0  0  0  0  0  0  0  0  0  0
   12.2069  -14.6930   22.4606 C   0  0  2  0  0  0  0  0  0  0  0  0
   11.2633  -15.8200   22.7253 N   0  0  0  0  0  0  0  0  0  0  0  0
   10.5016  -16.2247   21.6075 C   0  0  0  0  0  0  0  0  0  0  0  0
   10.5796  -15.6175   24.0100 O   0  0  0  0  0  0  0  0  0  0  0  0
   11.2082  -15.3816   25.0558 C   0  0  0  0  0  0  0  0  0  0  0  0
   14.1594  -15.3651   21.0941 C   0  0  0  0  0  0  0  0  0  0  0  0
   14.8397  -15.4814   19.8841 C   0  0  0  0  0  0  0  0  0  0  0  0
    6.8108  -12.1440   26.6402 C   0  0  0  0  0  0  0  0  0  0  0  0
    7.2461  -13.5737   26.6379 C   0  0  2  0  0  0  0  0  0  0  0  0
    7.9911  -14.0768   25.4691 C   0  0  0  0  0  0  0  0  0  0  0  0
    7.1524  -13.8892   24.1768 C   0  0  2  0  0  0  0  0  0  0  0  0
    8.4856  -15.4709   25.4283 N   0  0  0  0  0  0  0  0  0  0  0  0
    9.1784  -15.6802   24.1102 C   0  0  0  0  0  0  0  0  0  0  0  0
    7.5761  -16.5766   25.5950 O   0  0  0  0  0  0  0  0  0  0  0  0
    7.2938  -17.5811   24.6935 O   0  0  0  0  0  0  0  0  0  0  0  0
  2  4  1  0
  2  1  1  0
  3  2  2  0
  5  6  1  0
  5  4  1  0
  7  8  1  0
  7  6  1  0
  8 10  1  0
  8  9  1  1
 10 11  2  0
 12 13  1  0
 13 23  2  0
 13 14  1  0
 14 15  2  0
 15 16  1  0
 16 17  1  0
 18 17  1  6
 18 20  1  0
 19 18  1  0
 19 10  1  0
 20 29  1  0
 21 20  2  0
 22 16  2  0
 23 22  1  0
 24 25  1  0
 26 25  1  0
 26 28  1  0
 26 27  1  6
 28 30  1  0
 28 29  1  1
 30 32  2  0
 30 31  1  0
M  END
$$$$
