RYI.pdb
     RDKit          3D

 32 32  0  0  1  0  0  0  0  0999 V2000
    8.9983  -21.9002   18.2719 N   0  0  0  0  0  0  0  0  0  0  0  0
   10.2699  -22.4620   18.5686 C   0  0  0  0  0  0  0  0  0  0  0  0
   10.3669  -23.7453   18.5874 N   0  0  0  0  0  0  0  0  0  0  0  0
   11.4159  -21.6946   18.8409 N   0  0  0  0  0  0  0  0  0  0  0  0
   11.3993  -20.2237   18.7868 C   0  0  0  0  0  0  0  0  0  0  0  0
   10.4812  -19.7723   19.8673 C   0  0  0  0  0  0  0  0  0  0  0  0
   10.9592  -18.6375   20.7034 C   0  0  0  0  0  0  0  0  0  0  0  0
   10.5506  -17.2735   20.2678 C   0  0  2  0  0  0  0  0  0  0  0  0
   11.4527  -16.6276   19.3719 N   0  0  0  0  0  0  0  0  0  0  0  0
   10.4216  -16.4213   21.5148 C   0  0  0  0  0  0  0  0  0  0  0  0
   11.4530  -15.8849   21.9559 O   0  0  0  0  0  0  0  0  0  0  0  0
   11.2060  -24.2852   18.8162 O   0  0  0  0  0  0  0  0  0  0  0  0
    6.5457  -11.5057   27.7125 C   0  0  0  0  0  0  0  0  0  0  0  0
    6.7714  -12.3587   26.6403 C   0  0  0  0  0  0  0  0  0  0  0  0
    6.3023  -13.6533   26.6650 C   0  0  0  0  0  0  0  0  0  0  0  0
    6.5410  -14.4918   25.5775 C   0  0  0  0  0  0  0  0  0  0  0  0
    7.2350  -14.0633   24.4732 C   0  0  0  0  0  0  0  0  0  0  0  0
    7.4840  -14.9514   23.3260 C   0  0  2  0  0  0  0  0  0  0  0  0
    8.8527  -15.5489   23.3209 N   0  0  0  0  0  0  0  0  0  0  0  0
    9.1848  -16.2491   22.1407 C   0  0  0  0  0  0  0  0  0  0  0  0
    9.1362  -16.1773   24.6185 O   0  0  0  0  0  0  0  0  0  0  0  0
    8.6496  -17.2766   24.9334 C   0  0  0  0  0  0  0  0  0  0  0  0
    7.6903  -12.7687   24.4770 C   0  0  0  0  0  0  0  0  0  0  0  0
    7.4639  -11.9124   25.5522 C   0  0  0  0  0  0  0  0  0  0  0  0
   10.0995  -13.4679   29.5308 C   0  0  0  0  0  0  0  0  0  0  0  0
    9.7040  -14.3949   28.4272 C   0  0  2  0  0  0  0  0  0  0  0  0
   10.7416  -15.2567   27.8312 C   0  0  0  0  0  0  0  0  0  0  0  0
   11.8553  -14.3885   27.1872 C   0  0  1  0  0  0  0  0  0  0  0  0
   10.3900  -16.2758   26.8176 N   0  0  0  0  0  0  0  0  0  0  0  0
    9.9758  -15.5593   25.5621 C   0  0  0  0  0  0  0  0  0  0  0  0
    9.3688  -17.2565   27.0875 O   0  0  0  0  0  0  0  0  0  0  0  0
    9.4807  -18.4069   27.8395 O   0  0  0  0  0  0  0  0  0  0  0  0
  2  4  1  0
  2  1  1  0
  3  2  2  0
  5  6  1  0
  5  4  1  0
  7  8  1  0
  7  6  1  0
  8 10  1  0
  8  9  1  6
 10 11  2  0
 12 13  1  0
 13 23  2  0
 13 14  1  0
 14 15  2  0
 15 16  1  0
 16 17  1  0
 18 17  1  6
 18 20  1  0
 19 18  1  0
 19 10  1  0
 20 29  1  0
 21 20  2  0
 22 16  2  0
 23 22  1  0
 24 25  1  0
 26 25  1  0
 26 28  1  0
 26 27  1  1
 28 30  1  0
 28 29  1  6
 30 32  2  0
 30 31  1  0
M  END
$$$$
