FMT.pdb
     RDKit          3D

 27 27  0  0  1  0  0  0  0  0999 V2000
    6.6277  -16.2863   24.4502 N   0  0  0  0  0  0  0  0  0  0  0  0
    7.4138  -15.6191   23.4463 C   0  0  1  0  0  0  0  0  0  0  0  0
    6.8526  -14.2579   23.1195 C   0  0  0  0  0  0  0  0  0  0  0  0
    6.8247  -13.4503   24.3581 C   0  0  0  0  0  0  0  0  0  0  0  0
    6.0698  -13.8599   25.4326 C   0  0  0  0  0  0  0  0  0  0  0  0
    6.0180  -13.1247   26.6182 C   0  0  0  0  0  0  0  0  0  0  0  0
    6.7499  -11.9589   26.6962 C   0  0  0  0  0  0  0  0  0  0  0  0
    7.5123  -11.5251   25.6402 C   0  0  0  0  0  0  0  0  0  0  0  0
    7.5330  -12.2828   24.4908 C   0  0  0  0  0  0  0  0  0  0  0  0
    8.8549  -15.5273   23.8511 C   0  0  0  0  0  0  0  0  0  0  0  0
    9.7312  -15.0450   23.0805 O   0  0  0  0  0  0  0  0  0  0  0  0
   10.4377  -15.6407   30.0222 C   0  0  0  0  0  0  0  0  0  0  0  0
   10.5296  -14.0865   29.0950 S   0  0  0  0  0  0  0  0  0  0  0  0
   10.0669  -14.3854   27.3301 C   0  0  0  0  0  0  0  0  0  0  0  0
   10.8927  -15.5198   26.8869 C   0  0  0  0  0  0  0  0  0  0  0  0
   10.7408  -16.0053   25.4802 C   0  0  2  0  0  0  0  0  0  0  0  0
    9.2947  -15.9812   25.1231 N   0  0  0  0  0  0  0  0  0  0  0  0
   11.3016  -17.3219   25.1819 C   0  0  0  0  0  0  0  0  0  0  0  0
   10.5164  -18.2731   24.8446 O   0  0  0  0  0  0  0  0  0  0  0  0
   11.6243  -19.0412   22.8509 C   0  0  0  0  0  0  0  0  0  0  0  0
   13.0587  -19.0147   23.2842 C   0  0  1  0  0  0  0  0  0  0  0  0
   13.6568  -17.9181   22.6618 O   0  0  0  0  0  0  0  0  0  0  0  0
   13.2092  -18.9228   24.8030 C   0  0  2  0  0  0  0  0  0  0  0  0
   12.6724  -17.6476   25.2295 N   0  0  0  0  0  0  0  0  0  0  0  0
   14.6455  -18.9697   25.1060 C   0  0  0  0  0  0  0  0  0  0  0  0
   15.2347  -17.9529   25.5147 O   0  0  0  0  0  0  0  0  0  0  0  0
   15.3512  -20.1411   24.9399 O   0  0  0  0  0  0  0  0  0  0  0  0
  2  1  1  1
  2 10  1  0
  2  3  1  0
  3  4  1  0
  4  5  2  0
  5  6  1  0
  7  6  2  0
  8  7  1  0
  9  8  2  0
  9  4  1  0
 10 17  1  0
 11 10  2  0
 13 12  1  0
 14 13  1  0
 16 15  1  1
 15 14  1  0
 17 16  1  0
 18 19  2  0
 18 16  1  0
 21 20  1  1
 21 23  1  0
 22 21  1  0
 23 24  1  6
 23 25  1  0
 24 18  1  0
 25 27  1  0
 26 25  2  0
M  END
$$$$
