FMT.pdb
     RDKit          3D

 27 27  0  0  1  0  0  0  0  0999 V2000
    8.8927  -16.4093   26.1310 N   0  0  0  0  0  0  0  0  0  0  0  0
    7.5259  -16.7136   25.7993 C   0  0  1  0  0  0  0  0  0  0  0  0
    6.5627  -15.9818   26.7000 C   0  0  0  0  0  0  0  0  0  0  0  0
    6.9833  -14.5667   26.7884 C   0  0  0  0  0  0  0  0  0  0  0  0
    8.1912  -14.2398   27.3595 C   0  0  0  0  0  0  0  0  0  0  0  0
    8.6226  -12.9160   27.4612 C   0  0  0  0  0  0  0  0  0  0  0  0
    7.8024  -11.9223   26.9704 C   0  0  0  0  0  0  0  0  0  0  0  0
    6.5916  -12.2183   26.3952 C   0  0  0  0  0  0  0  0  0  0  0  0
    6.2074  -13.5381   26.3166 C   0  0  0  0  0  0  0  0  0  0  0  0
    7.2372  -16.4311   24.3550 C   0  0  0  0  0  0  0  0  0  0  0  0
    6.1509  -16.7808   23.8147 O   0  0  0  0  0  0  0  0  0  0  0  0
    6.6893  -12.4280   19.3138 C   0  0  0  0  0  0  0  0  0  0  0  0
    7.4034  -12.1582   20.9572 S   0  0  0  0  0  0  0  0  0  0  0  0
    7.1987  -13.6822   21.9837 C   0  0  0  0  0  0  0  0  0  0  0  0
    8.0441  -14.7070   21.3509 C   0  0  0  0  0  0  0  0  0  0  0  0
    8.2449  -16.0058   22.0653 C   0  0  2  0  0  0  0  0  0  0  0  0
    8.1780  -15.7562   23.5324 N   0  0  0  0  0  0  0  0  0  0  0  0
    9.4658  -16.7430   21.7447 C   0  0  0  0  0  0  0  0  0  0  0  0
    9.5947  -17.2624   20.5833 O   0  0  0  0  0  0  0  0  0  0  0  0
   12.8738  -15.6513   21.3274 C   0  0  0  0  0  0  0  0  0  0  0  0
   12.9354  -16.7369   22.3587 C   0  0  1  0  0  0  0  0  0  0  0  0
   12.9923  -16.1162   23.6073 O   0  0  0  0  0  0  0  0  0  0  0  0
   11.7393  -17.6862   22.2808 C   0  0  2  0  0  0  0  0  0  0  0  0
   10.5497  -16.9362   22.6253 N   0  0  0  0  0  0  0  0  0  0  0  0
   11.9513  -18.7432   23.2780 C   0  0  0  0  0  0  0  0  0  0  0  0
   11.1260  -18.9188   24.1925 O   0  0  0  0  0  0  0  0  0  0  0  0
   13.0666  -19.5490   23.2078 O   0  0  0  0  0  0  0  0  0  0  0  0
  2  1  1  1
  2 10  1  0
  2  3  1  0
  3  4  1  0
  4  5  2  0
  5  6  1  0
  7  6  2  0
  8  7  1  0
  9  8  2  0
  9  4  1  0
 10 17  1  0
 11 10  2  0
 13 12  1  0
 14 13  1  0
 16 15  1  6
 15 14  1  0
 17 16  1  0
 18 19  2  0
 18 16  1  0
 21 20  1  6
 21 23  1  0
 22 21  1  0
 23 24  1  1
 23 25  1  0
 24 18  1  0
 25 27  1  0
 26 25  2  0
M  END
$$$$
