FMT.pdb
     RDKit          3D

 27 27  0  0  1  0  0  0  0  0999 V2000
    7.0379  -16.8289   25.9641 N   0  0  0  0  0  0  0  0  0  0  0  0
    7.3388  -15.8041   24.9998 C   0  0  1  0  0  0  0  0  0  0  0  0
    8.3980  -14.8593   25.5099 C   0  0  0  0  0  0  0  0  0  0  0  0
    7.7317  -13.7315   26.1965 C   0  0  0  0  0  0  0  0  0  0  0  0
    6.5290  -13.2532   25.7310 C   0  0  0  0  0  0  0  0  0  0  0  0
    5.8699  -12.1906   26.3518 C   0  0  0  0  0  0  0  0  0  0  0  0
    6.4555  -11.6172   27.4606 C   0  0  0  0  0  0  0  0  0  0  0  0
    7.6551  -12.0732   27.9478 C   0  0  0  0  0  0  0  0  0  0  0  0
    8.2688  -13.1236   27.3031 C   0  0  0  0  0  0  0  0  0  0  0  0
    7.7314  -16.3944   23.6782 C   0  0  0  0  0  0  0  0  0  0  0  0
    7.6333  -17.6322   23.4490 O   0  0  0  0  0  0  0  0  0  0  0  0
    8.8231  -12.0777   19.5007 C   0  0  0  0  0  0  0  0  0  0  0  0
    7.1366  -12.7357   19.4228 S   0  0  0  0  0  0  0  0  0  0  0  0
    6.9685  -14.1597   20.5898 C   0  0  0  0  0  0  0  0  0  0  0  0
    8.0691  -15.0790   20.2601 C   0  0  0  0  0  0  0  0  0  0  0  0
    8.4431  -16.1296   21.2570 C   0  0  2  0  0  0  0  0  0  0  0  0
    8.2317  -15.5819   22.6262 N   0  0  0  0  0  0  0  0  0  0  0  0
    9.7932  -16.6793   21.1478 C   0  0  0  0  0  0  0  0  0  0  0  0
   10.1131  -17.3470   20.1052 O   0  0  0  0  0  0  0  0  0  0  0  0
   12.8778  -15.0303   20.7438 C   0  0  0  0  0  0  0  0  0  0  0  0
   13.1330  -15.9384   21.9084 C   0  0  1  0  0  0  0  0  0  0  0  0
   13.0647  -15.1571   23.0627 O   0  0  0  0  0  0  0  0  0  0  0  0
   12.1350  -17.0946   21.9782 C   0  0  2  0  0  0  0  0  0  0  0  0
   10.8078  -16.5324   22.1156 N   0  0  0  0  0  0  0  0  0  0  0  0
   12.4551  -17.8799   23.1772 C   0  0  0  0  0  0  0  0  0  0  0  0
   11.6704  -17.9004   24.1426 O   0  0  0  0  0  0  0  0  0  0  0  0
   13.6276  -18.6003   23.2415 O   0  0  0  0  0  0  0  0  0  0  0  0
  2  1  1  1
  2 10  1  0
  2  3  1  0
  3  4  1  0
  4  5  2  0
  5  6  1  0
  7  6  2  0
  8  7  1  0
  9  8  2  0
  9  4  1  0
 10 17  1  0
 11 10  2  0
 13 12  1  0
 14 13  1  0
 16 15  1  6
 15 14  1  0
 17 16  1  0
 18 19  2  0
 18 16  1  0
 21 20  1  6
 21 23  1  0
 22 21  1  0
 23 24  1  1
 23 25  1  0
 24 18  1  0
 25 27  1  0
 26 25  2  0
M  END
$$$$
