FMT.pdb
     RDKit          3D

 27 27  0  0  1  0  0  0  0  0999 V2000
    5.7333  -18.1887   25.5257 N   0  0  0  0  0  0  0  0  0  0  0  0
    6.2277  -16.8467   25.3667 C   0  0  1  0  0  0  0  0  0  0  0  0
    6.8724  -16.3417   26.6332 C   0  0  0  0  0  0  0  0  0  0  0  0
    6.9183  -14.8644   26.5816 C   0  0  0  0  0  0  0  0  0  0  0  0
    8.1284  -14.2104   26.5902 C   0  0  0  0  0  0  0  0  0  0  0  0
    8.2123  -12.8178   26.5427 C   0  0  0  0  0  0  0  0  0  0  0  0
    7.0399  -12.0944   26.4860 C   0  0  0  0  0  0  0  0  0  0  0  0
    5.8177  -12.7195   26.4761 C   0  0  0  0  0  0  0  0  0  0  0  0
    5.7837  -14.0950   26.5243 C   0  0  0  0  0  0  0  0  0  0  0  0
    7.1679  -16.7441   24.2028 C   0  0  0  0  0  0  0  0  0  0  0  0
    7.9729  -17.6737   23.9162 O   0  0  0  0  0  0  0  0  0  0  0  0
    7.4964  -11.3071   20.4688 C   0  0  0  0  0  0  0  0  0  0  0  0
    7.3388  -12.6689   19.2838 S   0  0  0  0  0  0  0  0  0  0  0  0
    8.1386  -14.1880   19.9700 C   0  0  0  0  0  0  0  0  0  0  0  0
    7.5720  -14.3646   21.3165 C   0  0  0  0  0  0  0  0  0  0  0  0
    7.9875  -15.5604   22.1133 C   0  0  2  0  0  0  0  0  0  0  0  0
    7.1915  -15.5923   23.3721 N   0  0  0  0  0  0  0  0  0  0  0  0
    9.4111  -15.6717   22.4259 C   0  0  0  0  0  0  0  0  0  0  0  0
    9.9288  -14.8670   23.2742 O   0  0  0  0  0  0  0  0  0  0  0  0
   11.6656  -18.6552   23.7187 C   0  0  0  0  0  0  0  0  0  0  0  0
   12.0859  -18.1414   22.3751 C   0  0  1  0  0  0  0  0  0  0  0  0
   11.4767  -18.9511   21.4155 O   0  0  0  0  0  0  0  0  0  0  0  0
   11.7069  -16.6751   22.1649 C   0  0  2  0  0  0  0  0  0  0  0  0
   10.2920  -16.6175   21.8630 N   0  0  0  0  0  0  0  0  0  0  0  0
   12.4693  -16.1854   21.0092 C   0  0  0  0  0  0  0  0  0  0  0  0
   11.8909  -15.9310   19.9372 O   0  0  0  0  0  0  0  0  0  0  0  0
   13.8316  -16.0036   21.1038 O   0  0  0  0  0  0  0  0  0  0  0  0
  2  1  1  1
  2 10  1  0
  2  3  1  0
  3  4  1  0
  4  5  2  0
  5  6  1  0
  7  6  2  0
  8  7  1  0
  9  8  2  0
  9  4  1  0
 10 17  1  0
 11 10  2  0
 13 12  1  0
 14 13  1  0
 16 15  1  1
 15 14  1  0
 17 16  1  0
 18 19  2  0
 18 16  1  0
 21 20  1  1
 21 23  1  0
 22 21  1  0
 23 24  1  6
 23 25  1  0
 24 18  1  0
 25 27  1  0
 26 25  2  0
M  END
$$$$
