FMT.pdb
     RDKit          3D

 27 27  0  0  1  0  0  0  0  0999 V2000
    9.2801  -18.0469   21.0206 N   0  0  0  0  0  0  0  0  0  0  0  0
    8.9799  -16.6486   21.1803 C   0  0  1  0  0  0  0  0  0  0  0  0
    8.0080  -16.1688   20.1317 C   0  0  0  0  0  0  0  0  0  0  0  0
    7.8748  -14.7006   20.2497 C   0  0  0  0  0  0  0  0  0  0  0  0
    6.7857  -14.1552   20.8887 C   0  0  0  0  0  0  0  0  0  0  0  0
    6.6249  -12.7747   21.0198 C   0  0  0  0  0  0  0  0  0  0  0  0
    7.5942  -11.9508   20.4880 C   0  0  0  0  0  0  0  0  0  0  0  0
    8.6919  -12.4664   19.8448 C   0  0  0  0  0  0  0  0  0  0  0  0
    8.8084  -13.8342   19.7394 C   0  0  0  0  0  0  0  0  0  0  0  0
    8.4764  -16.3511   22.5614 C   0  0  0  0  0  0  0  0  0  0  0  0
    7.4915  -16.9676   23.0556 O   0  0  0  0  0  0  0  0  0  0  0  0
    8.0821  -11.9987   27.6476 C   0  0  0  0  0  0  0  0  0  0  0  0
    6.7523  -12.4673   26.5093 S   0  0  0  0  0  0  0  0  0  0  0  0
    6.7999  -14.2915   26.2123 C   0  0  0  0  0  0  0  0  0  0  0  0
    7.4241  -14.4653   24.8912 C   0  0  0  0  0  0  0  0  0  0  0  0
    8.7250  -15.1989   24.8085 C   0  0  2  0  0  0  0  0  0  0  0  0
    9.0893  -15.3597   23.3730 N   0  0  0  0  0  0  0  0  0  0  0  0
    8.7852  -16.4952   25.4816 C   0  0  0  0  0  0  0  0  0  0  0  0
    7.7015  -17.1408   25.6912 O   0  0  0  0  0  0  0  0  0  0  0  0
   10.2768  -19.7132   24.5100 C   0  0  0  0  0  0  0  0  0  0  0  0
   10.8715  -19.3501   25.8368 C   0  0  1  0  0  0  0  0  0  0  0  0
   12.1205  -18.7801   25.5863 O   0  0  0  0  0  0  0  0  0  0  0  0
    9.9873  -18.3876   26.6303 C   0  0  2  0  0  0  0  0  0  0  0  0
    9.9664  -17.1198   25.9313 N   0  0  0  0  0  0  0  0  0  0  0  0
   10.6094  -18.2042   27.9480 C   0  0  0  0  0  0  0  0  0  0  0  0
   11.1248  -17.1134   28.2530 O   0  0  0  0  0  0  0  0  0  0  0  0
   10.6265  -19.2394   28.8567 O   0  0  0  0  0  0  0  0  0  0  0  0
  2  1  1  1
  2 10  1  0
  2  3  1  0
  3  4  1  0
  4  5  2  0
  5  6  1  0
  7  6  2  0
  8  7  1  0
  9  8  2  0
  9  4  1  0
 10 17  1  0
 11 10  2  0
 13 12  1  0
 14 13  1  0
 16 15  1  6
 15 14  1  0
 17 16  1  0
 18 19  2  0
 18 16  1  0
 21 20  1  6
 21 23  1  0
 22 21  1  0
 23 24  1  6
 23 25  1  0
 24 18  1  0
 25 27  1  0
 26 25  2  0
M  END
$$$$
