FMT.pdb
     RDKit          3D

 27 27  0  0  1  0  0  0  0  0999 V2000
    5.7839  -18.9712   21.3227 N   0  0  0  0  0  0  0  0  0  0  0  0
    5.5332  -18.0234   22.3760 C   0  0  1  0  0  0  0  0  0  0  0  0
    5.0240  -18.7039   23.6219 C   0  0  0  0  0  0  0  0  0  0  0  0
    3.7441  -19.3729   23.3033 C   0  0  0  0  0  0  0  0  0  0  0  0
    2.6704  -18.6350   22.8621 C   0  0  0  0  0  0  0  0  0  0  0  0
    1.4465  -19.2303   22.5517 C   0  0  0  0  0  0  0  0  0  0  0  0
    1.3290  -20.5963   22.6974 C   0  0  0  0  0  0  0  0  0  0  0  0
    2.3832  -21.3586   23.1358 C   0  0  0  0  0  0  0  0  0  0  0  0
    3.5712  -20.7281   23.4300 C   0  0  0  0  0  0  0  0  0  0  0  0
    6.7498  -17.1969   22.6696 C   0  0  0  0  0  0  0  0  0  0  0  0
    7.8977  -17.5414   22.2722 O   0  0  0  0  0  0  0  0  0  0  0  0
    7.6163  -12.2938   27.9080 C   0  0  0  0  0  0  0  0  0  0  0  0
    6.5911  -12.3659   26.4156 S   0  0  0  0  0  0  0  0  0  0  0  0
    6.6540  -14.0686   25.6978 C   0  0  0  0  0  0  0  0  0  0  0  0
    7.4503  -13.9539   24.4658 C   0  0  0  0  0  0  0  0  0  0  0  0
    7.8768  -15.2094   23.7733 C   0  0  2  0  0  0  0  0  0  0  0  0
    6.6600  -15.9882   23.4100 N   0  0  0  0  0  0  0  0  0  0  0  0
    8.8138  -16.0661   24.4978 C   0  0  0  0  0  0  0  0  0  0  0  0
    8.4085  -16.7004   25.5317 O   0  0  0  0  0  0  0  0  0  0  0  0
   10.4463  -19.2181   23.5144 C   0  0  0  0  0  0  0  0  0  0  0  0
   11.5233  -18.2343   23.8580 C   0  0  1  0  0  0  0  0  0  0  0  0
   11.9387  -17.6444   22.6635 O   0  0  0  0  0  0  0  0  0  0  0  0
   11.0498  -17.1715   24.8500 C   0  0  2  0  0  0  0  0  0  0  0  0
   10.1646  -16.2665   24.1474 N   0  0  0  0  0  0  0  0  0  0  0  0
   12.2361  -16.4340   25.3036 C   0  0  0  0  0  0  0  0  0  0  0  0
   12.3872  -15.2376   24.9971 O   0  0  0  0  0  0  0  0  0  0  0  0
   13.1908  -17.0623   26.0728 O   0  0  0  0  0  0  0  0  0  0  0  0
  2  1  1  6
  2 10  1  0
  2  3  1  0
  3  4  1  0
  4  5  2  0
  5  6  1  0
  7  6  2  0
  8  7  1  0
  9  8  2  0
  9  4  1  0
 10 17  1  0
 11 10  2  0
 13 12  1  0
 14 13  1  0
 16 15  1  1
 15 14  1  0
 17 16  1  0
 18 19  2  0
 18 16  1  0
 21 20  1  6
 21 23  1  0
 22 21  1  0
 23 24  1  6
 23 25  1  0
 24 18  1  0
 25 27  1  0
 26 25  2  0
M  END
$$$$
