FMT.pdb
     RDKit          3D

 27 27  0  0  1  0  0  0  0  0999 V2000
    5.7129  -14.6074   21.7635 N   0  0  0  0  0  0  0  0  0  0  0  0
    6.5684  -15.7448   21.9756 C   0  0  1  0  0  0  0  0  0  0  0  0
    7.3497  -16.0880   20.7322 C   0  0  0  0  0  0  0  0  0  0  0  0
    7.6821  -14.8331   20.0236 C   0  0  0  0  0  0  0  0  0  0  0  0
    8.2411  -14.8767   18.7675 C   0  0  0  0  0  0  0  0  0  0  0  0
    8.5686  -13.7142   18.0674 C   0  0  0  0  0  0  0  0  0  0  0  0
    8.3180  -12.4982   18.6669 C   0  0  0  0  0  0  0  0  0  0  0  0
    7.7611  -12.4236   19.9194 C   0  0  0  0  0  0  0  0  0  0  0  0
    7.4544  -13.5964   20.5723 C   0  0  0  0  0  0  0  0  0  0  0  0
    7.4810  -15.5324   23.1467 C   0  0  0  0  0  0  0  0  0  0  0  0
    8.5523  -14.8725   23.0419 O   0  0  0  0  0  0  0  0  0  0  0  0
    5.3189  -11.9377   26.8791 C   0  0  0  0  0  0  0  0  0  0  0  0
    7.0869  -12.2578   27.1143 S   0  0  0  0  0  0  0  0  0  0  0  0
    7.6919  -13.4097   25.8008 C   0  0  0  0  0  0  0  0  0  0  0  0
    7.6663  -14.7519   26.4034 C   0  0  0  0  0  0  0  0  0  0  0  0
    8.1135  -15.9139   25.5743 C   0  0  2  0  0  0  0  0  0  0  0  0
    7.1761  -16.0672   24.4267 N   0  0  0  0  0  0  0  0  0  0  0  0
    8.2574  -17.1920   26.2689 C   0  0  0  0  0  0  0  0  0  0  0  0
    7.2203  -17.7553   26.7613 O   0  0  0  0  0  0  0  0  0  0  0  0
    9.6070  -20.6176   25.2561 C   0  0  0  0  0  0  0  0  0  0  0  0
   10.3825  -20.1144   26.4357 C   0  0  1  0  0  0  0  0  0  0  0  0
   11.5674  -19.5639   25.9452 O   0  0  0  0  0  0  0  0  0  0  0  0
    9.6032  -19.0817   27.2506 C   0  0  2  0  0  0  0  0  0  0  0  0
    9.4726  -17.8841   26.4475 N   0  0  0  0  0  0  0  0  0  0  0  0
   10.3964  -18.7777   28.4486 C   0  0  0  0  0  0  0  0  0  0  0  0
   10.8913  -17.6467   28.6039 O   0  0  0  0  0  0  0  0  0  0  0  0
   10.5981  -19.7435   29.4101 O   0  0  0  0  0  0  0  0  0  0  0  0
  2  1  1  6
  2 10  1  0
  2  3  1  0
  3  4  1  0
  4  5  2  0
  5  6  1  0
  7  6  2  0
  8  7  1  0
  9  8  2  0
  9  4  1  0
 10 17  1  0
 11 10  2  0
 13 12  1  0
 14 13  1  0
 16 15  1  1
 15 14  1  0
 17 16  1  0
 18 19  2  0
 18 16  1  0
 21 20  1  6
 21 23  1  0
 22 21  1  0
 23 24  1  6
 23 25  1  0
 24 18  1  0
 25 27  1  0
 26 25  2  0
M  END
$$$$
