FMT.pdb
     RDKit          3D

 27 27  0  0  1  0  0  0  0  0999 V2000
    5.8465  -18.3077   25.4088 N   0  0  0  0  0  0  0  0  0  0  0  0
    6.4013  -16.9974   25.1936 C   0  0  1  0  0  0  0  0  0  0  0  0
    7.1114  -16.4894   26.4233 C   0  0  0  0  0  0  0  0  0  0  0  0
    7.0488  -15.0117   26.4265 C   0  0  0  0  0  0  0  0  0  0  0  0
    5.8337  -14.3720   26.3484 C   0  0  0  0  0  0  0  0  0  0  0  0
    5.7341  -12.9796   26.3485 C   0  0  0  0  0  0  0  0  0  0  0  0
    6.8960  -12.2417   26.4295 C   0  0  0  0  0  0  0  0  0  0  0  0
    8.1229  -12.8524   26.5084 C   0  0  0  0  0  0  0  0  0  0  0  0
    8.1725  -14.2283   26.5051 C   0  0  0  0  0  0  0  0  0  0  0  0
    7.3067  -16.9760   23.9982 C   0  0  0  0  0  0  0  0  0  0  0  0
    8.0505  -17.9552   23.7115 O   0  0  0  0  0  0  0  0  0  0  0  0
    8.2846  -12.5563   18.7010 C   0  0  0  0  0  0  0  0  0  0  0  0
    7.5382  -12.1450   20.3001 S   0  0  0  0  0  0  0  0  0  0  0  0
    8.1332  -13.3296   21.5889 C   0  0  0  0  0  0  0  0  0  0  0  0
    7.8302  -14.6721   21.0683 C   0  0  0  0  0  0  0  0  0  0  0  0
    8.1976  -15.8591   21.9012 C   0  0  2  0  0  0  0  0  0  0  0  0
    7.3650  -15.8485   23.1364 N   0  0  0  0  0  0  0  0  0  0  0  0
    9.6089  -15.9924   22.2577 C   0  0  0  0  0  0  0  0  0  0  0  0
   10.4860  -16.0395   21.3283 O   0  0  0  0  0  0  0  0  0  0  0  0
   11.2321  -14.8227   26.0050 C   0  0  0  0  0  0  0  0  0  0  0  0
   11.6581  -16.1334   25.4163 C   0  0  1  0  0  0  0  0  0  0  0  0
   10.8721  -17.1246   26.0057 O   0  0  0  0  0  0  0  0  0  0  0  0
   11.5163  -16.1646   23.8942 C   0  0  2  0  0  0  0  0  0  0  0  0
   10.1073  -16.0721   23.5742 N   0  0  0  0  0  0  0  0  0  0  0  0
   12.0344  -17.4584   23.4310 C   0  0  0  0  0  0  0  0  0  0  0  0
   11.2572  -18.3261   22.9937 O   0  0  0  0  0  0  0  0  0  0  0  0
   13.3861  -17.7205   23.4769 O   0  0  0  0  0  0  0  0  0  0  0  0
  2  1  1  1
  2 10  1  0
  2  3  1  0
  3  4  1  0
  4  5  2  0
  5  6  1  0
  7  6  2  0
  8  7  1  0
  9  8  2  0
  9  4  1  0
 10 17  1  0
 11 10  2  0
 13 12  1  0
 14 13  1  0
 16 15  1  1
 15 14  1  0
 17 16  1  0
 18 19  2  0
 18 16  1  0
 21 20  1  1
 21 23  1  0
 22 21  1  0
 23 24  1  1
 23 25  1  0
 24 18  1  0
 25 27  1  0
 26 25  2  0
M  END
$$$$
