FMT.pdb
     RDKit          3D

 27 27  0  0  1  0  0  0  0  0999 V2000
   10.1039  -15.8957   24.9270 N   0  0  0  0  0  0  0  0  0  0  0  0
    8.8335  -16.5711   24.9010 C   0  0  1  0  0  0  0  0  0  0  0  0
    7.9370  -16.1051   26.0207 C   0  0  0  0  0  0  0  0  0  0  0  0
    8.7180  -15.2199   26.9118 C   0  0  0  0  0  0  0  0  0  0  0  0
    9.5459  -15.7597   27.8684 C   0  0  0  0  0  0  0  0  0  0  0  0
   10.2985  -14.9571   28.7276 C   0  0  0  0  0  0  0  0  0  0  0  0
   10.1963  -13.5881   28.5995 C   0  0  0  0  0  0  0  0  0  0  0  0
    9.3782  -13.0209   27.6542 C   0  0  0  0  0  0  0  0  0  0  0  0
    8.6548  -13.8519   26.8286 C   0  0  0  0  0  0  0  0  0  0  0  0
    8.1599  -16.4192   23.5697 C   0  0  0  0  0  0  0  0  0  0  0  0
    7.0455  -16.9598   23.3244 O   0  0  0  0  0  0  0  0  0  0  0  0
    7.7545  -11.1077   21.0605 C   0  0  0  0  0  0  0  0  0  0  0  0
    7.6579  -12.0960   19.5448 S   0  0  0  0  0  0  0  0  0  0  0  0
    8.5996  -13.6715   19.7670 C   0  0  0  0  0  0  0  0  0  0  0  0
    7.7609  -14.5206   20.6276 C   0  0  0  0  0  0  0  0  0  0  0  0
    8.3213  -15.8213   21.1089 C   0  0  2  0  0  0  0  0  0  0  0  0
    8.7506  -15.6581   22.5261 N   0  0  0  0  0  0  0  0  0  0  0  0
    9.4157  -16.3890   20.3234 C   0  0  0  0  0  0  0  0  0  0  0  0
    9.1723  -16.8507   19.1560 O   0  0  0  0  0  0  0  0  0  0  0  0
   12.5975  -14.7881   19.0972 C   0  0  0  0  0  0  0  0  0  0  0  0
   12.9590  -16.0103   19.8854 C   0  0  1  0  0  0  0  0  0  0  0  0
   13.3009  -15.5858   21.1701 O   0  0  0  0  0  0  0  0  0  0  0  0
   11.8211  -17.0302   19.9379 C   0  0  2  0  0  0  0  0  0  0  0  0
   10.7577  -16.4729   20.7472 N   0  0  0  0  0  0  0  0  0  0  0  0
   12.3434  -18.2384   20.5894 C   0  0  0  0  0  0  0  0  0  0  0  0
   11.8323  -18.6535   21.6452 O   0  0  0  0  0  0  0  0  0  0  0  0
   13.4037  -18.9215   20.0354 O   0  0  0  0  0  0  0  0  0  0  0  0
  2  1  1  6
  2 10  1  0
  2  3  1  0
  3  4  1  0
  4  5  2  0
  5  6  1  0
  7  6  2  0
  8  7  1  0
  9  8  2  0
  9  4  1  0
 10 17  1  0
 11 10  2  0
 13 12  1  0
 14 13  1  0
 16 15  1  6
 15 14  1  0
 17 16  1  0
 18 19  2  0
 18 16  1  0
 21 20  1  6
 21 23  1  0
 22 21  1  0
 23 24  1  1
 23 25  1  0
 24 18  1  0
 25 27  1  0
 26 25  2  0
M  END
$$$$
