FMT.pdb
     RDKit          3D

 27 27  0  0  1  0  0  0  0  0999 V2000
    6.7161  -17.4583   26.1177 N   0  0  0  0  0  0  0  0  0  0  0  0
    6.9429  -16.2361   25.3927 C   0  0  1  0  0  0  0  0  0  0  0  0
    7.9981  -15.3875   26.0567 C   0  0  0  0  0  0  0  0  0  0  0  0
    7.4000  -14.0811   26.4072 C   0  0  0  0  0  0  0  0  0  0  0  0
    6.7616  -13.3336   25.4451 C   0  0  0  0  0  0  0  0  0  0  0  0
    6.1851  -12.0963   25.7373 C   0  0  0  0  0  0  0  0  0  0  0  0
    6.2676  -11.6265   27.0309 C   0  0  0  0  0  0  0  0  0  0  0  0
    6.8984  -12.3503   28.0121 C   0  0  0  0  0  0  0  0  0  0  0  0
    7.4525  -13.5655   27.6776 C   0  0  0  0  0  0  0  0  0  0  0  0
    7.2892  -16.5066   23.9588 C   0  0  0  0  0  0  0  0  0  0  0  0
    7.5877  -17.6653   23.5555 O   0  0  0  0  0  0  0  0  0  0  0  0
    8.2299  -11.4453   19.5788 C   0  0  0  0  0  0  0  0  0  0  0  0
    7.4748  -12.8407   18.7037 S   0  0  0  0  0  0  0  0  0  0  0  0
    8.0880  -14.4311   19.4198 C   0  0  0  0  0  0  0  0  0  0  0  0
    7.5981  -14.4600   20.8070 C   0  0  0  0  0  0  0  0  0  0  0  0
    7.8910  -15.6667   21.6412 C   0  0  2  0  0  0  0  0  0  0  0  0
    7.2959  -15.4661   22.9921 N   0  0  0  0  0  0  0  0  0  0  0  0
    9.2977  -16.0420   21.7718 C   0  0  0  0  0  0  0  0  0  0  0  0
   10.0640  -15.3416   22.5184 O   0  0  0  0  0  0  0  0  0  0  0  0
   11.0766  -19.3767   22.8731 C   0  0  0  0  0  0  0  0  0  0  0  0
   11.4337  -18.9720   21.4750 C   0  0  1  0  0  0  0  0  0  0  0  0
   10.5833  -19.6680   20.6148 O   0  0  0  0  0  0  0  0  0  0  0  0
   11.3113  -17.4642   21.2532 C   0  0  2  0  0  0  0  0  0  0  0  0
    9.9047  -17.1424   21.1328 N   0  0  0  0  0  0  0  0  0  0  0  0
   11.9902  -17.1491   19.9897 C   0  0  0  0  0  0  0  0  0  0  0  0
   13.2314  -17.1955   19.9150 O   0  0  0  0  0  0  0  0  0  0  0  0
   11.2570  -16.8001   18.8769 O   0  0  0  0  0  0  0  0  0  0  0  0
  2  1  1  1
  2 10  1  0
  2  3  1  0
  3  4  1  0
  4  5  2  0
  5  6  1  0
  7  6  2  0
  8  7  1  0
  9  8  2  0
  9  4  1  0
 10 17  1  0
 11 10  2  0
 13 12  1  0
 14 13  1  0
 16 15  1  6
 15 14  1  0
 17 16  1  0
 18 19  2  0
 18 16  1  0
 21 20  1  1
 21 23  1  0
 22 21  1  0
 23 24  1  6
 23 25  1  0
 24 18  1  0
 25 27  1  0
 26 25  2  0
M  END
$$$$
