FMT.pdb
     RDKit          3D

 27 27  0  0  1  0  0  0  0  0999 V2000
    5.8842  -18.4894   25.2163 N   0  0  0  0  0  0  0  0  0  0  0  0
    6.2943  -17.1129   25.1274 C   0  0  1  0  0  0  0  0  0  0  0  0
    6.8531  -16.6173   26.4376 C   0  0  0  0  0  0  0  0  0  0  0  0
    6.8150  -15.1388   26.4365 C   0  0  0  0  0  0  0  0  0  0  0  0
    5.6163  -14.4791   26.2952 C   0  0  0  0  0  0  0  0  0  0  0  0
    5.5401  -13.0852   26.2892 C   0  0  0  0  0  0  0  0  0  0  0  0
    6.7083  -12.3665   26.4297 C   0  0  0  0  0  0  0  0  0  0  0  0
    7.9192  -12.9974   26.5724 C   0  0  0  0  0  0  0  0  0  0  0  0
    7.9460  -14.3740   26.5726 C   0  0  0  0  0  0  0  0  0  0  0  0
    7.2713  -16.9041   24.0089 C   0  0  0  0  0  0  0  0  0  0  0  0
    8.1352  -17.7755   23.7110 O   0  0  0  0  0  0  0  0  0  0  0  0
    8.0415  -11.1446   20.4194 C   0  0  0  0  0  0  0  0  0  0  0  0
    7.4334  -12.4936   19.3735 S   0  0  0  0  0  0  0  0  0  0  0  0
    8.1814  -14.0931   19.9216 C   0  0  0  0  0  0  0  0  0  0  0  0
    7.6232  -14.3586   21.2569 C   0  0  0  0  0  0  0  0  0  0  0  0
    8.0410  -15.6061   21.9689 C   0  0  2  0  0  0  0  0  0  0  0  0
    7.2648  -15.7126   23.2359 N   0  0  0  0  0  0  0  0  0  0  0  0
    9.4684  -15.7477   22.2506 C   0  0  0  0  0  0  0  0  0  0  0  0
   10.3066  -15.6573   21.2890 O   0  0  0  0  0  0  0  0  0  0  0  0
   11.2831  -14.7864   25.8952 C   0  0  0  0  0  0  0  0  0  0  0  0
   11.6686  -16.0979   25.2811 C   0  0  1  0  0  0  0  0  0  0  0  0
   10.9108  -17.0862   25.9109 O   0  0  0  0  0  0  0  0  0  0  0  0
   11.4427  -16.1247   23.7691 C   0  0  2  0  0  0  0  0  0  0  0  0
   10.0229  -15.9780   23.5262 N   0  0  0  0  0  0  0  0  0  0  0  0
   11.8844  -17.4379   23.2819 C   0  0  0  0  0  0  0  0  0  0  0  0
   11.0636  -18.2351   22.7930 O   0  0  0  0  0  0  0  0  0  0  0  0
   13.2121  -17.7965   23.3624 O   0  0  0  0  0  0  0  0  0  0  0  0
  2  1  1  1
  2 10  1  0
  2  3  1  0
  3  4  1  0
  4  5  2  0
  5  6  1  0
  7  6  2  0
  8  7  1  0
  9  8  2  0
  9  4  1  0
 10 17  1  0
 11 10  2  0
 13 12  1  0
 14 13  1  0
 16 15  1  1
 15 14  1  0
 17 16  1  0
 18 19  2  0
 18 16  1  0
 21 20  1  1
 21 23  1  0
 22 21  1  0
 23 24  1  1
 23 25  1  0
 24 18  1  0
 25 27  1  0
 26 25  2  0
M  END
$$$$
