AGW.pdb
     RDKit          3D

 24 25  0  0  1  0  0  0  0  0999 V2000
    7.2890  -12.8467   18.2226 C   0  0  0  0  0  0  0  0  0  0  0  0
    8.5369  -13.6314   18.5942 C   0  0  2  0  0  0  0  0  0  0  0  0
    8.7607  -14.5772   17.5163 N   0  0  0  0  0  0  0  0  0  0  0  0
    8.2909  -14.2883   19.8819 C   0  0  0  0  0  0  0  0  0  0  0  0
    8.1365  -13.5856   20.9138 O   0  0  0  0  0  0  0  0  0  0  0  0
    8.2127  -15.7022   20.0485 N   0  0  0  0  0  0  0  0  0  0  0  0
    7.9277  -16.2646   21.3416 C   0  0  0  0  0  0  0  0  0  0  0  0
    8.9211  -15.9961   22.3778 C   0  0  0  0  0  0  0  0  0  0  0  0
    9.9867  -15.4075   21.9724 O   0  0  0  0  0  0  0  0  0  0  0  0
    8.8458  -16.3023   23.7424 N   0  0  0  0  0  0  0  0  0  0  0  0
    9.8826  -15.9938   24.6992 C   0  0  1  0  0  0  0  0  0  0  0  0
    9.3148  -15.8215   26.0971 C   0  0  0  0  0  0  0  0  0  0  0  0
    7.9821  -15.1783   26.0834 C   0  0  0  0  0  0  0  0  0  0  0  0
    6.7397  -15.8013   25.9207 C   0  0  0  0  0  0  0  0  0  0  0  0
    5.7540  -14.9133   25.9587 N   0  0  0  0  0  0  0  0  0  0  0  0
    6.3317  -13.7148   26.1441 C   0  0  0  0  0  0  0  0  0  0  0  0
    5.7211  -12.4839   26.2502 C   0  0  0  0  0  0  0  0  0  0  0  0
    6.5169  -11.3927   26.4379 C   0  0  0  0  0  0  0  0  0  0  0  0
    7.8971  -11.4760   26.5249 C   0  0  0  0  0  0  0  0  0  0  0  0
    8.5092  -12.7144   26.4183 C   0  0  0  0  0  0  0  0  0  0  0  0
    7.7014  -13.8280   26.2269 C   0  0  0  0  0  0  0  0  0  0  0  0
   10.9066  -17.0544   24.7426 C   0  0  0  0  0  0  0  0  0  0  0  0
   12.1281  -16.8719   25.3544 O   0  0  0  0  0  0  0  0  0  0  0  0
   10.6886  -18.1724   24.2132 O   0  0  0  0  0  0  0  0  0  0  0  0
  2  1  1  6
  3  2  1  0
  4  6  1  0
  4  2  1  0
  5  4  2  0
  7  8  1  0
  7  6  1  0
  8 10  1  0
  9  8  2  0
 10 11  1  0
 11 12  1  1
 12 13  1  0
 13 14  2  0
 13 21  1  0
 14 15  1  0
 15 16  1  0
 16 17  2  0
 17 18  1  0
 19 18  2  0
 20 19  1  0
 21 20  2  0
 21 16  1  0
 22 23  1  0
 22 11  1  0
 24 22  2  0
M  END
$$$$
