AGW.pdb
     RDKit          3D

 24 25  0  0  1  0  0  0  0  0999 V2000
    7.3576  -12.4284   18.7884 C   0  0  0  0  0  0  0  0  0  0  0  0
    8.4670  -13.4195   18.4752 C   0  0  2  0  0  0  0  0  0  0  0  0
    8.4300  -13.6341   17.0403 N   0  0  0  0  0  0  0  0  0  0  0  0
    8.2069  -14.6447   19.2377 C   0  0  0  0  0  0  0  0  0  0  0  0
    8.2186  -15.7546   18.6456 O   0  0  0  0  0  0  0  0  0  0  0  0
    7.9353  -14.6649   20.6372 N   0  0  0  0  0  0  0  0  0  0  0  0
    8.1640  -15.8614   21.4024 C   0  0  0  0  0  0  0  0  0  0  0  0
    9.0577  -15.7149   22.5481 C   0  0  0  0  0  0  0  0  0  0  0  0
   10.1298  -15.0473   22.3216 O   0  0  0  0  0  0  0  0  0  0  0  0
    8.8820  -16.2113   23.8459 N   0  0  0  0  0  0  0  0  0  0  0  0
    9.8301  -16.0241   24.9190 C   0  0  1  0  0  0  0  0  0  0  0  0
    9.1288  -15.8255   26.2513 C   0  0  0  0  0  0  0  0  0  0  0  0
    7.8389  -15.1155   26.1033 C   0  0  0  0  0  0  0  0  0  0  0  0
    6.5942  -15.6718   25.7877 C   0  0  0  0  0  0  0  0  0  0  0  0
    5.6546  -14.7357   25.7357 N   0  0  0  0  0  0  0  0  0  0  0  0
    6.2648  -13.5716   26.0127 C   0  0  0  0  0  0  0  0  0  0  0  0
    5.7063  -12.3134   26.0784 C   0  0  0  0  0  0  0  0  0  0  0  0
    6.5275  -11.2674   26.3797 C   0  0  0  0  0  0  0  0  0  0  0  0
    7.8834  -11.4221   26.6189 C   0  0  0  0  0  0  0  0  0  0  0  0
    8.4431  -12.6877   26.5527 C   0  0  0  0  0  0  0  0  0  0  0  0
    7.6092  -13.7555   26.2459 C   0  0  0  0  0  0  0  0  0  0  0  0
   10.7384  -17.1796   25.0413 C   0  0  0  0  0  0  0  0  0  0  0  0
   11.8783  -17.1397   25.8150 O   0  0  0  0  0  0  0  0  0  0  0  0
   10.4925  -18.2503   24.4322 O   0  0  0  0  0  0  0  0  0  0  0  0
  2  1  1  6
  3  2  1  0
  4  6  1  0
  4  2  1  0
  5  4  2  0
  7  8  1  0
  7  6  1  0
  8 10  1  0
  9  8  2  0
 10 11  1  0
 11 12  1  1
 12 13  1  0
 13 14  2  0
 13 21  1  0
 14 15  1  0
 15 16  1  0
 16 17  2  0
 17 18  1  0
 19 18  2  0
 20 19  1  0
 21 20  2  0
 21 16  1  0
 22 23  1  0
 22 11  1  0
 24 22  2  0
M  END
$$$$
