AGW.pdb
     RDKit          3D

 24 25  0  0  1  0  0  0  0  0999 V2000
    6.4641  -12.9652   20.2163 C   0  0  0  0  0  0  0  0  0  0  0  0
    7.9731  -12.9991   20.0357 C   0  0  2  0  0  0  0  0  0  0  0  0
    8.2319  -12.5588   18.6772 N   0  0  0  0  0  0  0  0  0  0  0  0
    8.4270  -14.3714   20.2822 C   0  0  0  0  0  0  0  0  0  0  0  0
    9.0932  -14.9695   19.3985 O   0  0  0  0  0  0  0  0  0  0  0  0
    8.1587  -15.0915   21.4832 N   0  0  0  0  0  0  0  0  0  0  0  0
    8.9515  -16.2403   21.8316 C   0  0  0  0  0  0  0  0  0  0  0  0
    9.6922  -16.1372   23.0860 C   0  0  0  0  0  0  0  0  0  0  0  0
   10.9005  -15.7204   22.9731 O   0  0  0  0  0  0  0  0  0  0  0  0
    9.2425  -16.4360   24.3782 N   0  0  0  0  0  0  0  0  0  0  0  0
   10.0714  -16.3696   25.5589 C   0  0  1  0  0  0  0  0  0  0  0  0
    9.2459  -16.0872   26.8019 C   0  0  0  0  0  0  0  0  0  0  0  0
    8.0075  -15.3386   26.4918 C   0  0  0  0  0  0  0  0  0  0  0  0
    6.7979  -15.8572   26.0161 C   0  0  0  0  0  0  0  0  0  0  0  0
    5.9012  -14.8933   25.8474 N   0  0  0  0  0  0  0  0  0  0  0  0
    6.5049  -13.7482   26.2057 C   0  0  0  0  0  0  0  0  0  0  0  0
    5.9802  -12.4738   26.2041 C   0  0  0  0  0  0  0  0  0  0  0  0
    6.7865  -11.4531   26.6132 C   0  0  0  0  0  0  0  0  0  0  0  0
    8.0950  -11.6484   27.0245 C   0  0  0  0  0  0  0  0  0  0  0  0
    8.6207  -12.9303   27.0256 C   0  0  0  0  0  0  0  0  0  0  0  0
    7.8020  -13.9724   26.6094 C   0  0  0  0  0  0  0  0  0  0  0  0
   10.8091  -17.6293   25.7691 C   0  0  0  0  0  0  0  0  0  0  0  0
   11.8249  -17.7405   26.6941 O   0  0  0  0  0  0  0  0  0  0  0  0
   10.5260  -18.6528   25.0983 O   0  0  0  0  0  0  0  0  0  0  0  0
  2  1  1  6
  3  2  1  0
  4  6  1  0
  4  2  1  0
  5  4  2  0
  7  8  1  0
  7  6  1  0
  8 10  1  0
  9  8  2  0
 10 11  1  0
 11 12  1  1
 12 13  1  0
 13 14  2  0
 13 21  1  0
 14 15  1  0
 15 16  1  0
 16 17  2  0
 17 18  1  0
 19 18  2  0
 20 19  1  0
 21 20  2  0
 21 16  1  0
 22 23  1  0
 22 11  1  0
 24 22  2  0
M  END
$$$$
