AGW.pdb
     RDKit          3D

 24 25  0  0  1  0  0  0  0  0999 V2000
    7.1276  -12.7682   18.7939 C   0  0  0  0  0  0  0  0  0  0  0  0
    8.4666  -13.4362   19.0623 C   0  0  2  0  0  0  0  0  0  0  0  0
    8.8211  -14.1442   17.8460 N   0  0  0  0  0  0  0  0  0  0  0  0
    8.3022  -14.3322   20.2115 C   0  0  0  0  0  0  0  0  0  0  0  0
    8.0206  -13.8468   21.3374 O   0  0  0  0  0  0  0  0  0  0  0  0
    8.4429  -15.7491   20.1385 N   0  0  0  0  0  0  0  0  0  0  0  0
    8.3175  -16.5516   21.3259 C   0  0  0  0  0  0  0  0  0  0  0  0
    9.2151  -16.1982   22.4224 C   0  0  0  0  0  0  0  0  0  0  0  0
   10.3580  -15.7378   22.0647 O   0  0  0  0  0  0  0  0  0  0  0  0
    8.9756  -16.3020   23.7983 N   0  0  0  0  0  0  0  0  0  0  0  0
    9.9581  -16.0079   24.8150 C   0  0  1  0  0  0  0  0  0  0  0  0
    9.3041  -15.7498   26.1612 C   0  0  0  0  0  0  0  0  0  0  0  0
    7.9844  -15.0944   26.0245 C   0  0  0  0  0  0  0  0  0  0  0  0
    6.7489  -15.7111   25.7974 C   0  0  0  0  0  0  0  0  0  0  0  0
    5.7747  -14.8124   25.7276 N   0  0  0  0  0  0  0  0  0  0  0  0
    6.3531  -13.6131   25.9057 C   0  0  0  0  0  0  0  0  0  0  0  0
    5.7524  -12.3728   25.9169 C   0  0  0  0  0  0  0  0  0  0  0  0
    6.5468  -11.2828   26.1175 C   0  0  0  0  0  0  0  0  0  0  0  0
    7.9159  -11.3763   26.3078 C   0  0  0  0  0  0  0  0  0  0  0  0
    8.5180  -12.6241   26.2964 C   0  0  0  0  0  0  0  0  0  0  0  0
    7.7116  -13.7366   26.0922 C   0  0  0  0  0  0  0  0  0  0  0  0
   10.9180  -17.1166   24.9714 C   0  0  0  0  0  0  0  0  0  0  0  0
   12.0669  -16.9935   25.7229 O   0  0  0  0  0  0  0  0  0  0  0  0
   10.7102  -18.2226   24.4135 O   0  0  0  0  0  0  0  0  0  0  0  0
  2  1  1  6
  3  2  1  0
  4  6  1  0
  4  2  1  0
  5  4  2  0
  7  8  1  0
  7  6  1  0
  8 10  1  0
  9  8  2  0
 10 11  1  0
 11 12  1  1
 12 13  1  0
 13 14  2  0
 13 21  1  0
 14 15  1  0
 15 16  1  0
 16 17  2  0
 17 18  1  0
 19 18  2  0
 20 19  1  0
 21 20  2  0
 21 16  1  0
 22 23  1  0
 22 11  1  0
 24 22  2  0
M  END
$$$$
