AGW.pdb
     RDKit          3D

 24 25  0  0  1  0  0  0  0  0999 V2000
    5.5132  -19.0997   19.8519 C   0  0  0  0  0  0  0  0  0  0  0  0
    6.8032  -18.8697   20.6227 C   0  0  2  0  0  0  0  0  0  0  0  0
    6.8131  -19.8404   21.7015 N   0  0  0  0  0  0  0  0  0  0  0  0
    6.7997  -17.4855   21.1066 C   0  0  0  0  0  0  0  0  0  0  0  0
    6.1528  -17.1965   22.1460 O   0  0  0  0  0  0  0  0  0  0  0  0
    7.4958  -16.4194   20.4647 N   0  0  0  0  0  0  0  0  0  0  0  0
    7.4346  -15.0867   21.0027 C   0  0  0  0  0  0  0  0  0  0  0  0
    8.2516  -14.8487   22.1896 C   0  0  0  0  0  0  0  0  0  0  0  0
    8.5475  -13.6199   22.4105 O   0  0  0  0  0  0  0  0  0  0  0  0
    8.7416  -15.7927   23.1008 N   0  0  0  0  0  0  0  0  0  0  0  0
    9.6555  -15.4820   24.1748 C   0  0  1  0  0  0  0  0  0  0  0  0
    9.0328  -15.7597   25.5318 C   0  0  0  0  0  0  0  0  0  0  0  0
    7.7333  -15.0722   25.7013 C   0  0  0  0  0  0  0  0  0  0  0  0
    6.4554  -15.6192   25.5401 C   0  0  0  0  0  0  0  0  0  0  0  0
    5.5166  -14.7097   25.7707 N   0  0  0  0  0  0  0  0  0  0  0  0
    6.1601  -13.5723   26.0813 C   0  0  0  0  0  0  0  0  0  0  0  0
    5.6154  -12.3473   26.4010 C   0  0  0  0  0  0  0  0  0  0  0  0
    6.4714  -11.3244   26.6836 C   0  0  0  0  0  0  0  0  0  0  0  0
    7.8491  -11.4703   26.6615 C   0  0  0  0  0  0  0  0  0  0  0  0
    8.3948  -12.7025   26.3401 C   0  0  0  0  0  0  0  0  0  0  0  0
    7.5254  -13.7468   26.0516 C   0  0  0  0  0  0  0  0  0  0  0  0
   10.8991  -16.2674   24.0664 C   0  0  0  0  0  0  0  0  0  0  0  0
   12.0019  -16.0098   24.8521 O   0  0  0  0  0  0  0  0  0  0  0  0
   10.9877  -17.2090   23.2398 O   0  0  0  0  0  0  0  0  0  0  0  0
  2  1  1  1
  3  2  1  0
  4  6  1  0
  4  2  1  0
  5  4  2  0
  7  8  1  0
  7  6  1  0
  8 10  1  0
  9  8  2  0
 10 11  1  0
 11 12  1  1
 12 13  1  0
 13 14  2  0
 13 21  1  0
 14 15  1  0
 15 16  1  0
 16 17  2  0
 17 18  1  0
 19 18  2  0
 20 19  1  0
 21 20  2  0
 21 16  1  0
 22 23  1  0
 22 11  1  0
 24 22  2  0
M  END
$$$$
