AGW.pdb
     RDKit          3D

 24 25  0  0  1  0  0  0  0  0999 V2000
    6.8105  -19.3232   18.9472 C   0  0  0  0  0  0  0  0  0  0  0  0
    7.8953  -19.1481   19.9977 C   0  0  2  0  0  0  0  0  0  0  0  0
    7.3255  -19.6022   21.2529 N   0  0  0  0  0  0  0  0  0  0  0  0
    8.2718  -17.7312   20.0266 C   0  0  0  0  0  0  0  0  0  0  0  0
    9.0256  -17.2744   19.1290 O   0  0  0  0  0  0  0  0  0  0  0  0
    7.8319  -16.8142   21.0258 N   0  0  0  0  0  0  0  0  0  0  0  0
    8.4596  -15.5261   21.1537 C   0  0  0  0  0  0  0  0  0  0  0  0
    9.1759  -15.2962   22.4055 C   0  0  0  0  0  0  0  0  0  0  0  0
    9.7607  -14.1579   22.4980 O   0  0  0  0  0  0  0  0  0  0  0  0
    9.2960  -16.1618   23.4999 N   0  0  0  0  0  0  0  0  0  0  0  0
   10.0767  -15.8710   24.6795 C   0  0  1  0  0  0  0  0  0  0  0  0
    9.2428  -15.9970   25.9424 C   0  0  0  0  0  0  0  0  0  0  0  0
    7.9499  -15.2856   25.8313 C   0  0  0  0  0  0  0  0  0  0  0  0
    6.6916  -15.8442   25.5797 C   0  0  0  0  0  0  0  0  0  0  0  0
    5.7535  -14.9060   25.5450 N   0  0  0  0  0  0  0  0  0  0  0  0
    6.3778  -13.7383   25.7704 C   0  0  0  0  0  0  0  0  0  0  0  0
    5.8260  -12.4768   25.8303 C   0  0  0  0  0  0  0  0  0  0  0  0
    6.6619  -11.4274   26.0740 C   0  0  0  0  0  0  0  0  0  0  0  0
    8.0260  -11.5818   26.2609 C   0  0  0  0  0  0  0  0  0  0  0  0
    8.5789  -12.8507   26.2004 C   0  0  0  0  0  0  0  0  0  0  0  0
    7.7301  -13.9219   25.9524 C   0  0  0  0  0  0  0  0  0  0  0  0
   11.2333  -16.7788   24.7957 C   0  0  0  0  0  0  0  0  0  0  0  0
   12.1828  -16.6365   25.7846 O   0  0  0  0  0  0  0  0  0  0  0  0
   11.3864  -17.7228   23.9814 O   0  0  0  0  0  0  0  0  0  0  0  0
  2  1  1  6
  3  2  1  0
  4  6  1  0
  4  2  1  0
  5  4  2  0
  7  8  1  0
  7  6  1  0
  8 10  1  0
  9  8  2  0
 10 11  1  0
 11 12  1  1
 12 13  1  0
 13 14  2  0
 13 21  1  0
 14 15  1  0
 15 16  1  0
 16 17  2  0
 17 18  1  0
 19 18  2  0
 20 19  1  0
 21 20  2  0
 21 16  1  0
 22 23  1  0
 22 11  1  0
 24 22  2  0
M  END
$$$$
