AGW.pdb
     RDKit          3D

 24 25  0  0  1  0  0  0  0  0999 V2000
    9.1746  -19.9202   18.4540 C   0  0  0  0  0  0  0  0  0  0  0  0
    9.8409  -19.6450   19.7924 C   0  0  2  0  0  0  0  0  0  0  0  0
    9.1033  -20.4100   20.7809 N   0  0  0  0  0  0  0  0  0  0  0  0
    9.7840  -18.2003   20.0369 C   0  0  0  0  0  0  0  0  0  0  0  0
   10.5098  -17.4301   19.3568 O   0  0  0  0  0  0  0  0  0  0  0  0
    8.9427  -17.5943   21.0156 N   0  0  0  0  0  0  0  0  0  0  0  0
    9.0579  -16.1888   21.2997 C   0  0  0  0  0  0  0  0  0  0  0  0
    9.7533  -15.8518   22.5390 C   0  0  0  0  0  0  0  0  0  0  0  0
   10.8436  -15.1918   22.3904 O   0  0  0  0  0  0  0  0  0  0  0  0
    9.3730  -16.1611   23.8509 N   0  0  0  0  0  0  0  0  0  0  0  0
   10.1543  -15.8297   25.0192 C   0  0  1  0  0  0  0  0  0  0  0  0
    9.3168  -15.8952   26.2844 C   0  0  0  0  0  0  0  0  0  0  0  0
    7.9893  -15.2652   26.1087 C   0  0  0  0  0  0  0  0  0  0  0  0
    6.7758  -15.9040   25.8299 C   0  0  0  0  0  0  0  0  0  0  0  0
    5.7862  -15.0246   25.7364 N   0  0  0  0  0  0  0  0  0  0  0  0
    6.3326  -13.8162   25.9499 C   0  0  0  0  0  0  0  0  0  0  0  0
    5.7062  -12.5887   25.9551 C   0  0  0  0  0  0  0  0  0  0  0  0
    6.4699  -11.4854   26.1975 C   0  0  0  0  0  0  0  0  0  0  0  0
    7.8331  -11.5533   26.4356 C   0  0  0  0  0  0  0  0  0  0  0  0
    8.4611  -12.7883   26.4301 C   0  0  0  0  0  0  0  0  0  0  0  0
    7.6859  -13.9143   26.1835 C   0  0  0  0  0  0  0  0  0  0  0  0
   11.3016  -16.7432   25.1754 C   0  0  0  0  0  0  0  0  0  0  0  0
   11.4932  -17.8303   24.3499 O   0  0  0  0  0  0  0  0  0  0  0  0
   12.1499  -16.5512   26.0816 O   0  0  0  0  0  0  0  0  0  0  0  0
  2  1  1  6
  3  2  1  0
  4  6  1  0
  4  2  1  0
  5  4  2  0
  7  8  1  0
  7  6  1  0
  8 10  1  0
  9  8  2  0
 10 11  1  0
 11 12  1  1
 12 13  1  0
 13 14  2  0
 13 21  1  0
 14 15  1  0
 15 16  1  0
 16 17  2  0
 17 18  1  0
 19 18  2  0
 20 19  1  0
 21 20  2  0
 21 16  1  0
 22 23  1  0
 22 11  1  0
 24 22  2  0
M  END
$$$$
