AGW.pdb
     RDKit          3D

 24 25  0  0  1  0  0  0  0  0999 V2000
    6.1704  -19.5282   18.8268 C   0  0  0  0  0  0  0  0  0  0  0  0
    7.2295  -19.3146   19.8963 C   0  0  2  0  0  0  0  0  0  0  0  0
    6.6300  -19.7253   21.1527 N   0  0  0  0  0  0  0  0  0  0  0  0
    7.6042  -17.8970   19.8845 C   0  0  0  0  0  0  0  0  0  0  0  0
    8.3397  -17.4606   18.9620 O   0  0  0  0  0  0  0  0  0  0  0  0
    7.1821  -16.9571   20.8700 N   0  0  0  0  0  0  0  0  0  0  0  0
    7.6963  -15.6136   20.8570 C   0  0  0  0  0  0  0  0  0  0  0  0
    8.5488  -15.2547   21.9872 C   0  0  0  0  0  0  0  0  0  0  0  0
    9.0709  -14.0842   21.9263 O   0  0  0  0  0  0  0  0  0  0  0  0
    8.8572  -16.0290   23.1127 N   0  0  0  0  0  0  0  0  0  0  0  0
    9.8543  -15.6694   24.0936 C   0  0  1  0  0  0  0  0  0  0  0  0
    9.3311  -15.8469   25.5082 C   0  0  0  0  0  0  0  0  0  0  0  0
    8.0368  -15.1599   25.7154 C   0  0  0  0  0  0  0  0  0  0  0  0
    6.7556  -15.7149   25.6208 C   0  0  0  0  0  0  0  0  0  0  0  0
    5.8233  -14.8034   25.8687 N   0  0  0  0  0  0  0  0  0  0  0  0
    6.4742  -13.6566   26.1248 C   0  0  0  0  0  0  0  0  0  0  0  0
    5.9379  -12.4262   26.4376 C   0  0  0  0  0  0  0  0  0  0  0  0
    6.8006  -11.3938   26.6596 C   0  0  0  0  0  0  0  0  0  0  0  0
    8.1767  -11.5356   26.5834 C   0  0  0  0  0  0  0  0  0  0  0  0
    8.7140  -12.7733   26.2691 C   0  0  0  0  0  0  0  0  0  0  0  0
    7.8379  -13.8272   26.0422 C   0  0  0  0  0  0  0  0  0  0  0  0
   11.0735  -16.4859   23.9448 C   0  0  0  0  0  0  0  0  0  0  0  0
   12.2363  -16.2015   24.6279 O   0  0  0  0  0  0  0  0  0  0  0  0
   11.0845  -17.4802   23.1773 O   0  0  0  0  0  0  0  0  0  0  0  0
  2  1  1  6
  3  2  1  0
  4  6  1  0
  4  2  1  0
  5  4  2  0
  7  8  1  0
  7  6  1  0
  8 10  1  0
  9  8  2  0
 10 11  1  0
 11 12  1  1
 12 13  1  0
 13 14  2  0
 13 21  1  0
 14 15  1  0
 15 16  1  0
 16 17  2  0
 17 18  1  0
 19 18  2  0
 20 19  1  0
 21 20  2  0
 21 16  1  0
 22 23  1  0
 22 11  1  0
 24 22  2  0
M  END
$$$$
