AGW.pdb
     RDKit          3D

 24 25  0  0  1  0  0  0  0  0999 V2000
    7.7287  -18.1201   17.1589 C   0  0  0  0  0  0  0  0  0  0  0  0
    8.7648  -17.2319   17.8288 C   0  0  2  0  0  0  0  0  0  0  0  0
   10.0280  -17.9411   17.7424 N   0  0  0  0  0  0  0  0  0  0  0  0
    8.3372  -17.0036   19.2127 C   0  0  0  0  0  0  0  0  0  0  0  0
    8.5896  -17.8712   20.0880 O   0  0  0  0  0  0  0  0  0  0  0  0
    7.6385  -15.8382   19.6447 N   0  0  0  0  0  0  0  0  0  0  0  0
    7.2217  -15.7099   21.0156 C   0  0  0  0  0  0  0  0  0  0  0  0
    8.2865  -15.4244   21.9734 C   0  0  0  0  0  0  0  0  0  0  0  0
    9.0604  -14.4519   21.6545 O   0  0  0  0  0  0  0  0  0  0  0  0
    8.5560  -16.0795   23.1815 N   0  0  0  0  0  0  0  0  0  0  0  0
    9.5782  -15.6676   24.1147 C   0  0  1  0  0  0  0  0  0  0  0  0
    9.1091  -15.8121   25.5519 C   0  0  0  0  0  0  0  0  0  0  0  0
    7.8480  -15.0799   25.8041 C   0  0  0  0  0  0  0  0  0  0  0  0
    6.5467  -15.5938   25.7747 C   0  0  0  0  0  0  0  0  0  0  0  0
    5.6561  -14.6485   26.0481 N   0  0  0  0  0  0  0  0  0  0  0  0
    6.3542  -13.5201   26.2567 C   0  0  0  0  0  0  0  0  0  0  0  0
    5.8722  -12.2681   26.5724 C   0  0  0  0  0  0  0  0  0  0  0  0
    6.7766  -11.2615   26.7397 C   0  0  0  0  0  0  0  0  0  0  0  0
    8.1428  -11.4496   26.6058 C   0  0  0  0  0  0  0  0  0  0  0  0
    8.6255  -12.7089   26.2886 C   0  0  0  0  0  0  0  0  0  0  0  0
    7.7068  -13.7366   26.1175 C   0  0  0  0  0  0  0  0  0  0  0  0
   10.8099  -16.4614   23.9475 C   0  0  0  0  0  0  0  0  0  0  0  0
   12.0177  -16.0651   24.4804 O   0  0  0  0  0  0  0  0  0  0  0  0
   10.7903  -17.5394   23.3031 O   0  0  0  0  0  0  0  0  0  0  0  0
  2  1  1  6
  3  2  1  0
  4  6  1  0
  4  2  1  0
  5  4  2  0
  7  8  1  0
  7  6  1  0
  8 10  1  0
  9  8  2  0
 10 11  1  0
 11 12  1  1
 12 13  1  0
 13 14  2  0
 13 21  1  0
 14 15  1  0
 15 16  1  0
 16 17  2  0
 17 18  1  0
 19 18  2  0
 20 19  1  0
 21 20  2  0
 21 16  1  0
 22 23  1  0
 22 11  1  0
 24 22  2  0
M  END
$$$$
