AGW.pdb
     RDKit          3D

 24 25  0  0  1  0  0  0  0  0999 V2000
    7.2263  -12.8128   19.1303 C   0  0  0  0  0  0  0  0  0  0  0  0
    8.5439  -13.5666   19.2138 C   0  0  2  0  0  0  0  0  0  0  0  0
    8.6846  -14.2836   17.9598 N   0  0  0  0  0  0  0  0  0  0  0  0
    8.4798  -14.4615   20.3736 C   0  0  0  0  0  0  0  0  0  0  0  0
    8.3773  -13.9705   21.5273 O   0  0  0  0  0  0  0  0  0  0  0  0
    8.5266  -15.8835   20.2813 N   0  0  0  0  0  0  0  0  0  0  0  0
    8.4022  -16.6908   21.4655 C   0  0  0  0  0  0  0  0  0  0  0  0
    9.3455  -16.3855   22.5377 C   0  0  0  0  0  0  0  0  0  0  0  0
   10.5772  -16.3329   22.1818 O   0  0  0  0  0  0  0  0  0  0  0  0
    9.0651  -16.1468   23.8890 N   0  0  0  0  0  0  0  0  0  0  0  0
   10.0742  -16.0122   24.9132 C   0  0  1  0  0  0  0  0  0  0  0  0
    9.6349  -15.0497   26.0026 C   0  0  0  0  0  0  0  0  0  0  0  0
    8.1920  -14.7319   25.9186 C   0  0  0  0  0  0  0  0  0  0  0  0
    7.1489  -15.6010   25.5794 C   0  0  0  0  0  0  0  0  0  0  0  0
    5.9801  -14.9726   25.6029 N   0  0  0  0  0  0  0  0  0  0  0  0
    6.2406  -13.7022   25.9528 C   0  0  0  0  0  0  0  0  0  0  0  0
    5.3483  -12.6640   26.1116 C   0  0  0  0  0  0  0  0  0  0  0  0
    5.8454  -11.4474   26.4752 C   0  0  0  0  0  0  0  0  0  0  0  0
    7.1957  -11.2212   26.6878 C   0  0  0  0  0  0  0  0  0  0  0  0
    8.0912  -12.2662   26.5279 C   0  0  0  0  0  0  0  0  0  0  0  0
    7.5880  -13.5068   26.1575 C   0  0  0  0  0  0  0  0  0  0  0  0
   10.3809  -17.3118   25.5395 C   0  0  0  0  0  0  0  0  0  0  0  0
    9.6285  -18.4407   25.2961 O   0  0  0  0  0  0  0  0  0  0  0  0
   11.3536  -17.4261   26.3259 O   0  0  0  0  0  0  0  0  0  0  0  0
  2  1  1  6
  3  2  1  0
  4  6  1  0
  4  2  1  0
  5  4  2  0
  7  8  1  0
  7  6  1  0
  8 10  1  0
  9  8  2  0
 10 11  1  0
 11 12  1  1
 12 13  1  0
 13 14  2  0
 13 21  1  0
 14 15  1  0
 15 16  1  0
 16 17  2  0
 17 18  1  0
 19 18  2  0
 20 19  1  0
 21 20  2  0
 21 16  1  0
 22 23  1  0
 22 11  1  0
 24 22  2  0
M  END
$$$$
