AGW.pdb
     RDKit          3D

 24 25  0  0  1  0  0  0  0  0999 V2000
    7.9290  -20.2436   19.0848 C   0  0  0  0  0  0  0  0  0  0  0  0
    8.4719  -19.8913   20.4604 C   0  0  2  0  0  0  0  0  0  0  0  0
    7.3967  -20.1457   21.4014 N   0  0  0  0  0  0  0  0  0  0  0  0
    8.8828  -18.4839   20.4371 C   0  0  0  0  0  0  0  0  0  0  0  0
    9.8930  -18.1467   19.7675 O   0  0  0  0  0  0  0  0  0  0  0  0
    8.1998  -17.4469   21.1378 N   0  0  0  0  0  0  0  0  0  0  0  0
    8.7535  -16.1201   21.1881 C   0  0  0  0  0  0  0  0  0  0  0  0
    9.3145  -15.7203   22.4759 C   0  0  0  0  0  0  0  0  0  0  0  0
    9.8562  -14.5573   22.4973 O   0  0  0  0  0  0  0  0  0  0  0  0
    9.3289  -16.4487   23.6719 N   0  0  0  0  0  0  0  0  0  0  0  0
   10.0985  -16.0775   24.8361 C   0  0  1  0  0  0  0  0  0  0  0  0
    9.2500  -16.1066   26.0953 C   0  0  0  0  0  0  0  0  0  0  0  0
    7.9849  -15.3561   25.9338 C   0  0  0  0  0  0  0  0  0  0  0  0
    6.7203  -15.8764   25.6363 C   0  0  0  0  0  0  0  0  0  0  0  0
    5.8136  -14.9099   25.5640 N   0  0  0  0  0  0  0  0  0  0  0  0
    6.4649  -13.7611   25.8098 C   0  0  0  0  0  0  0  0  0  0  0  0
    5.9506  -12.4830   25.8459 C   0  0  0  0  0  0  0  0  0  0  0  0
    6.8089  -11.4591   26.1183 C   0  0  0  0  0  0  0  0  0  0  0  0
    8.1596  -11.6548   26.3568 C   0  0  0  0  0  0  0  0  0  0  0  0
    8.6748  -12.9404   26.3204 C   0  0  0  0  0  0  0  0  0  0  0  0
    7.8031  -13.9858   26.0431 C   0  0  0  0  0  0  0  0  0  0  0  0
   11.2478  -16.9810   25.0310 C   0  0  0  0  0  0  0  0  0  0  0  0
   12.1959  -16.7640   26.0076 O   0  0  0  0  0  0  0  0  0  0  0  0
   11.3957  -17.9907   24.2985 O   0  0  0  0  0  0  0  0  0  0  0  0
  2  1  1  6
  3  2  1  0
  4  6  1  0
  4  2  1  0
  5  4  2  0
  7  8  1  0
  7  6  1  0
  8 10  1  0
  9  8  2  0
 10 11  1  0
 11 12  1  1
 12 13  1  0
 13 14  2  0
 13 21  1  0
 14 15  1  0
 15 16  1  0
 16 17  2  0
 17 18  1  0
 19 18  2  0
 20 19  1  0
 21 20  2  0
 21 16  1  0
 22 23  1  0
 22 11  1  0
 24 22  2  0
M  END
$$$$
