AGW.pdb
     RDKit          3D

 24 25  0  0  1  0  0  0  0  0999 V2000
    7.8716  -19.5903   18.4634 C   0  0  0  0  0  0  0  0  0  0  0  0
    8.9468  -19.4116   19.5233 C   0  0  2  0  0  0  0  0  0  0  0  0
    8.4478  -20.0561   20.7241 N   0  0  0  0  0  0  0  0  0  0  0  0
    9.1692  -17.9735   19.7033 C   0  0  0  0  0  0  0  0  0  0  0  0
    9.9212  -17.3601   18.9028 O   0  0  0  0  0  0  0  0  0  0  0  0
    8.5776  -17.2044   20.7481 N   0  0  0  0  0  0  0  0  0  0  0  0
    8.8960  -15.8086   20.8895 C   0  0  0  0  0  0  0  0  0  0  0  0
    9.2086  -15.3684   22.2465 C   0  0  0  0  0  0  0  0  0  0  0  0
    9.4599  -14.1162   22.3692 O   0  0  0  0  0  0  0  0  0  0  0  0
    9.2645  -16.1437   23.4115 N   0  0  0  0  0  0  0  0  0  0  0  0
   10.0464  -15.7993   24.5757 C   0  0  1  0  0  0  0  0  0  0  0  0
    9.2581  -16.0104   25.8564 C   0  0  0  0  0  0  0  0  0  0  0  0
    7.9447  -15.3292   25.8227 C   0  0  0  0  0  0  0  0  0  0  0  0
    6.6936  -15.9077   25.5811 C   0  0  0  0  0  0  0  0  0  0  0  0
    5.7314  -14.9945   25.6246 N   0  0  0  0  0  0  0  0  0  0  0  0
    6.3330  -13.8236   25.8913 C   0  0  0  0  0  0  0  0  0  0  0  0
    5.7518  -12.5821   26.0341 C   0  0  0  0  0  0  0  0  0  0  0  0
    6.5684  -11.5246   26.3064 C   0  0  0  0  0  0  0  0  0  0  0  0
    7.9412  -11.6516   26.4427 C   0  0  0  0  0  0  0  0  0  0  0  0
    8.5237  -12.9004   26.2990 C   0  0  0  0  0  0  0  0  0  0  0  0
    7.6947  -13.9799   26.0216 C   0  0  0  0  0  0  0  0  0  0  0  0
   11.2794  -16.6050   24.6526 C   0  0  0  0  0  0  0  0  0  0  0  0
   12.2748  -16.3395   25.5683 O   0  0  0  0  0  0  0  0  0  0  0  0
   11.4581  -17.5720   23.8711 O   0  0  0  0  0  0  0  0  0  0  0  0
  2  1  1  6
  3  2  1  0
  4  6  1  0
  4  2  1  0
  5  4  2  0
  7  8  1  0
  7  6  1  0
  8 10  1  0
  9  8  2  0
 10 11  1  0
 11 12  1  1
 12 13  1  0
 13 14  2  0
 13 21  1  0
 14 15  1  0
 15 16  1  0
 16 17  2  0
 17 18  1  0
 19 18  2  0
 20 19  1  0
 21 20  2  0
 21 16  1  0
 22 23  1  0
 22 11  1  0
 24 22  2  0
M  END
$$$$
