AGW.pdb
     RDKit          3D

 24 25  0  0  1  0  0  0  0  0999 V2000
    6.2867  -19.5637   19.1948 C   0  0  0  0  0  0  0  0  0  0  0  0
    7.3904  -19.4421   20.2332 C   0  0  2  0  0  0  0  0  0  0  0  0
    6.7907  -19.7868   21.5090 N   0  0  0  0  0  0  0  0  0  0  0  0
    7.8943  -18.0655   20.1979 C   0  0  0  0  0  0  0  0  0  0  0  0
    8.7188  -17.7325   19.3081 O   0  0  0  0  0  0  0  0  0  0  0  0
    7.5047  -17.0546   21.1249 N   0  0  0  0  0  0  0  0  0  0  0  0
    8.1247  -15.7571   21.0848 C   0  0  0  0  0  0  0  0  0  0  0  0
    8.9510  -15.4181   22.2402 C   0  0  0  0  0  0  0  0  0  0  0  0
    9.6368  -14.3400   22.1226 O   0  0  0  0  0  0  0  0  0  0  0  0
    9.0790  -16.1231   23.4435 N   0  0  0  0  0  0  0  0  0  0  0  0
   10.0263  -15.7880   24.4807 C   0  0  1  0  0  0  0  0  0  0  0  0
    9.3804  -15.8215   25.8548 C   0  0  0  0  0  0  0  0  0  0  0  0
    8.0446  -15.1845   25.8598 C   0  0  0  0  0  0  0  0  0  0  0  0
    6.8056  -15.8071   25.6712 C   0  0  0  0  0  0  0  0  0  0  0  0
    5.8157  -14.9256   25.7377 N   0  0  0  0  0  0  0  0  0  0  0  0
    6.3870  -13.7318   25.9672 C   0  0  0  0  0  0  0  0  0  0  0  0
    5.7702  -12.5083   26.1149 C   0  0  0  0  0  0  0  0  0  0  0  0
    6.5602  -11.4207   26.3437 C   0  0  0  0  0  0  0  0  0  0  0  0
    7.9406  -11.5006   26.4319 C   0  0  0  0  0  0  0  0  0  0  0  0
    8.5589  -12.7315   26.2833 C   0  0  0  0  0  0  0  0  0  0  0  0
    7.7570  -13.8415   26.0501 C   0  0  0  0  0  0  0  0  0  0  0  0
   11.1708  -16.7182   24.4841 C   0  0  0  0  0  0  0  0  0  0  0  0
   12.3046  -16.4856   25.2325 O   0  0  0  0  0  0  0  0  0  0  0  0
   11.1420  -17.7661   23.7922 O   0  0  0  0  0  0  0  0  0  0  0  0
  2  1  1  6
  3  2  1  0
  4  6  1  0
  4  2  1  0
  5  4  2  0
  7  8  1  0
  7  6  1  0
  8 10  1  0
  9  8  2  0
 10 11  1  0
 11 12  1  1
 12 13  1  0
 13 14  2  0
 13 21  1  0
 14 15  1  0
 15 16  1  0
 16 17  2  0
 17 18  1  0
 19 18  2  0
 20 19  1  0
 21 20  2  0
 21 16  1  0
 22 23  1  0
 22 11  1  0
 24 22  2  0
M  END
$$$$
