PVV.pdb
     RDKit          3D

 22 22  0  0  1  0  0  0  0  0999 V2000
   19.9083  -12.8223  -17.0473 N   0  0  0  0  0  0  0  0  0  0  0  0
   21.0053  -12.4476  -17.9102 C   0  0  0  0  0  0  0  0  0  0  0  0
   22.0842  -11.8606  -17.0432 C   0  0  0  0  0  0  0  0  0  0  0  0
   21.5543  -12.0740  -15.6363 C   0  0  0  0  0  0  0  0  0  0  0  0
   20.0772  -12.0394  -15.8448 C   0  0  1  0  0  0  0  0  0  0  0  0
   19.6353  -10.6168  -16.1403 C   0  0  0  0  0  0  0  0  0  0  0  0
   19.8301  -10.2150  -17.2941 O   0  0  0  0  0  0  0  0  0  0  0  0
   16.3931   -9.5347  -16.5830 C   0  0  0  0  0  0  0  0  0  0  0  0
   16.8490   -8.6898  -15.3941 C   0  0  2  0  0  0  0  0  0  0  0  0
   16.1290   -7.3965  -15.4596 C   0  0  0  0  0  0  0  0  0  0  0  0
   18.3308   -8.6094  -15.3379 C   0  0  2  0  0  0  0  0  0  0  0  0
   19.0492   -9.8294  -15.1608 N   0  0  0  0  0  0  0  0  0  0  0  0
   18.9306   -7.5015  -14.5757 C   0  0  0  0  0  0  0  0  0  0  0  0
   18.8697   -7.4896  -13.2883 O   0  0  0  0  0  0  0  0  0  0  0  0
   22.4130   -6.5542  -14.1927 C   0  0  0  0  0  0  0  0  0  0  0  0
   21.7201   -5.2610  -14.5435 C   0  0  1  0  0  0  0  0  0  0  0  0
   21.9844   -4.8988  -15.9951 C   0  0  0  0  0  0  0  0  0  0  0  0
   20.2342   -5.3807  -14.2704 C   0  0  2  0  0  0  0  0  0  0  0  0
   19.6142   -6.3827  -15.1050 N   0  0  0  0  0  0  0  0  0  0  0  0
   19.6434   -4.0326  -14.4386 C   0  0  0  0  0  0  0  0  0  0  0  0
   18.9190   -3.7934  -15.4311 O   0  0  0  0  0  0  0  0  0  0  0  0
   19.8820   -3.0481  -13.5201 O   0  0  0  0  0  0  0  0  0  0  0  0
  1  5  1  0
  2  1  1  0
  3  2  1  0
  3  4  1  0
  4  5  1  0
  6  7  2  0
  5  6  1  6
  9  8  1  6
  9 11  1  0
 10  9  1  0
 11 12  1  1
 11 13  1  0
 12  6  1  0
 13 19  1  0
 14 13  2  0
 16 18  1  0
 16 15  1  6
 17 16  1  0
 18 20  1  0
 18 19  1  6
 20 21  2  0
 20 22  1  0
M  END
$$$$
