PVV.pdb
     RDKit          3D

 22 22  0  0  1  0  0  0  0  0999 V2000
   28.7372  -20.2243  -15.5849 N   0  0  0  0  0  0  0  0  0  0  0  0
   27.8555  -19.9018  -16.6836 C   0  0  0  0  0  0  0  0  0  0  0  0
   27.1757  -18.6022  -16.3532 C   0  0  0  0  0  0  0  0  0  0  0  0
   27.8560  -18.1714  -15.0659 C   0  0  0  0  0  0  0  0  0  0  0  0
   28.2346  -19.4786  -14.4540 C   0  0  1  0  0  0  0  0  0  0  0  0
   26.9911  -20.1817  -13.9385 C   0  0  0  0  0  0  0  0  0  0  0  0
   26.5890  -21.1391  -14.6111 O   0  0  0  0  0  0  0  0  0  0  0  0
   26.7337  -21.2755  -10.2019 C   0  0  0  0  0  0  0  0  0  0  0  0
   25.4622  -20.5188  -10.5843 C   0  0  2  0  0  0  0  0  0  0  0  0
   24.3316  -21.1451   -9.8600 C   0  0  0  0  0  0  0  0  0  0  0  0
   25.3222  -20.4293  -12.0601 C   0  0  2  0  0  0  0  0  0  0  0  0
   26.3572  -19.7604  -12.7793 N   0  0  0  0  0  0  0  0  0  0  0  0
   23.9885  -20.1284  -12.6069 C   0  0  0  0  0  0  0  0  0  0  0  0
   23.5068  -18.9356  -12.5271 O   0  0  0  0  0  0  0  0  0  0  0  0
   22.7649  -20.4631  -16.1136 C   0  0  0  0  0  0  0  0  0  0  0  0
   21.6970  -21.0913  -15.2531 C   0  0  1  0  0  0  0  0  0  0  0  0
   21.7659  -22.6059  -15.3503 C   0  0  0  0  0  0  0  0  0  0  0  0
   21.8500  -20.6268  -13.8187 C   0  0  2  0  0  0  0  0  0  0  0  0
   23.1161  -21.0326  -13.2554 N   0  0  0  0  0  0  0  0  0  0  0  0
   20.6831  -21.1366  -13.0617 C   0  0  0  0  0  0  0  0  0  0  0  0
   19.5656  -20.5907  -13.2047 O   0  0  0  0  0  0  0  0  0  0  0  0
   20.8156  -22.1973  -12.2089 O   0  0  0  0  0  0  0  0  0  0  0  0
  1  5  1  0
  2  1  1  0
  3  2  1  0
  3  4  1  0
  4  5  1  0
  6  7  2  0
  5  6  1  6
  9  8  1  6
  9 11  1  0
 10  9  1  0
 11 12  1  1
 11 13  1  0
 12  6  1  0
 13 19  1  0
 14 13  2  0
 16 18  1  0
 16 15  1  6
 17 16  1  0
 18 20  1  0
 18 19  1  1
 20 21  2  0
 20 22  1  0
M  END
$$$$
