PVV.pdb
     RDKit          3D

 22 22  0  0  1  0  0  0  0  0999 V2000
   27.0846  -20.1209  -14.3797 N   0  0  0  0  0  0  0  0  0  0  0  0
   28.1629  -19.1622  -14.2980 C   0  0  0  0  0  0  0  0  0  0  0  0
   29.2718  -19.7935  -13.5030 C   0  0  0  0  0  0  0  0  0  0  0  0
   28.7769  -21.2118  -13.2814 C   0  0  0  0  0  0  0  0  0  0  0  0
   27.2954  -21.0346  -13.2805 C   0  0  1  0  0  0  0  0  0  0  0  0
   26.8636  -20.3417  -11.9999 C   0  0  0  0  0  0  0  0  0  0  0  0
   26.8700  -19.1047  -12.0215 O   0  0  0  0  0  0  0  0  0  0  0  0
   23.6639  -20.2988  -11.1278 C   0  0  0  0  0  0  0  0  0  0  0  0
   24.2473  -20.8381   -9.8223 C   0  0  2  0  0  0  0  0  0  0  0  0
   23.4628  -20.2594   -8.7066 C   0  0  0  0  0  0  0  0  0  0  0  0
   25.7155  -20.6217   -9.7685 C   0  0  2  0  0  0  0  0  0  0  0  0
   26.4874  -21.0704  -10.8816 N   0  0  0  0  0  0  0  0  0  0  0  0
   26.4001  -20.8684   -8.4884 C   0  0  0  0  0  0  0  0  0  0  0  0
   26.6247  -22.0742   -8.0926 O   0  0  0  0  0  0  0  0  0  0  0  0
   28.8371  -19.4600   -4.3936 C   0  0  0  0  0  0  0  0  0  0  0  0
   28.2149  -19.0550   -5.7067 C   0  0  1  0  0  0  0  0  0  0  0  0
   29.2781  -18.5180   -6.6499 C   0  0  0  0  0  0  0  0  0  0  0  0
   27.4853  -20.2343   -6.3180 C   0  0  2  0  0  0  0  0  0  0  0  0
   26.8800  -19.8933   -7.5838 N   0  0  0  0  0  0  0  0  0  0  0  0
   26.5090  -20.7190   -5.3147 C   0  0  0  0  0  0  0  0  0  0  0  0
   25.3843  -20.1755   -5.2323 O   0  0  0  0  0  0  0  0  0  0  0  0
   26.8250  -21.7538   -4.4787 O   0  0  0  0  0  0  0  0  0  0  0  0
  1  5  1  0
  2  1  1  0
  3  2  1  0
  3  4  1  0
  4  5  1  0
  6  7  2  0
  5  6  1  1
  9  8  1  6
  9 11  1  0
 10  9  1  0
 11 12  1  6
 11 13  1  0
 12  6  1  0
 13 19  1  0
 14 13  2  0
 16 18  1  0
 16 15  1  1
 17 16  1  0
 18 20  1  0
 18 19  1  6
 20 21  2  0
 20 22  1  0
M  END
$$$$
