PVV.pdb
     RDKit          3D

 22 22  0  0  1  0  0  0  0  0999 V2000
   28.5572  -18.9670  -15.4828 N   0  0  0  0  0  0  0  0  0  0  0  0
   27.5770  -18.6409  -16.4934 C   0  0  0  0  0  0  0  0  0  0  0  0
   26.7092  -17.5422  -15.9456 C   0  0  0  0  0  0  0  0  0  0  0  0
   27.3759  -17.1978  -14.6256 C   0  0  0  0  0  0  0  0  0  0  0  0
   27.9986  -18.4966  -14.2361 C   0  0  1  0  0  0  0  0  0  0  0  0
   26.9186  -19.4727  -13.8034 C   0  0  0  0  0  0  0  0  0  0  0  0
   26.6966  -20.4153  -14.5735 O   0  0  0  0  0  0  0  0  0  0  0  0
   26.9647  -21.0762  -10.2293 C   0  0  0  0  0  0  0  0  0  0  0  0
   25.5971  -20.4485  -10.4958 C   0  0  2  0  0  0  0  0  0  0  0  0
   24.5811  -21.2733   -9.8011 C   0  0  0  0  0  0  0  0  0  0  0  0
   25.3842  -20.2394  -11.9506 C   0  0  2  0  0  0  0  0  0  0  0  0
   26.2320  -19.3007  -12.6109 N   0  0  0  0  0  0  0  0  0  0  0  0
   23.9968  -20.1668  -12.4386 C   0  0  0  0  0  0  0  0  0  0  0  0
   23.3529  -19.0509  -12.4049 O   0  0  0  0  0  0  0  0  0  0  0  0
   21.7028  -23.4075  -14.1998 C   0  0  0  0  0  0  0  0  0  0  0  0
   21.5989  -21.9709  -14.6482 C   0  0  1  0  0  0  0  0  0  0  0  0
   20.2225  -21.6996  -15.2315 C   0  0  0  0  0  0  0  0  0  0  0  0
   21.8936  -21.0444  -13.4856 C   0  0  2  0  0  0  0  0  0  0  0  0
   23.2339  -21.2268  -12.9805 N   0  0  0  0  0  0  0  0  0  0  0  0
   20.8470  -21.2721  -12.4621 C   0  0  0  0  0  0  0  0  0  0  0  0
   21.0594  -22.0779  -11.5279 O   0  0  0  0  0  0  0  0  0  0  0  0
   19.6522  -20.6105  -12.5286 O   0  0  0  0  0  0  0  0  0  0  0  0
  1  5  1  0
  2  1  1  0
  3  2  1  0
  3  4  1  0
  4  5  1  0
  6  7  2  0
  5  6  1  6
  9  8  1  6
  9 11  1  0
 10  9  1  0
 11 12  1  1
 11 13  1  0
 12  6  1  0
 13 19  1  0
 14 13  2  0
 16 18  1  0
 16 15  1  1
 17 16  1  0
 18 20  1  0
 18 19  1  1
 20 21  2  0
 20 22  1  0
M  END
$$$$
