PVV.pdb
     RDKit          3D

 22 22  0  0  1  0  0  0  0  0999 V2000
   17.7716  -11.9078  -17.5279 N   0  0  0  0  0  0  0  0  0  0  0  0
   16.6672  -11.0523  -17.1582 C   0  0  0  0  0  0  0  0  0  0  0  0
   16.8476   -9.7433  -17.8754 C   0  0  0  0  0  0  0  0  0  0  0  0
   18.0480   -9.9992  -18.7693 C   0  0  0  0  0  0  0  0  0  0  0  0
   18.8115  -11.0183  -17.9916 C   0  0  1  0  0  0  0  0  0  0  0  0
   19.4499  -10.3639  -16.7789 C   0  0  0  0  0  0  0  0  0  0  0  0
   18.7619  -10.3345  -15.7510 O   0  0  0  0  0  0  0  0  0  0  0  0
   22.4370  -11.6953  -15.2449 C   0  0  0  0  0  0  0  0  0  0  0  0
   22.7832  -10.2267  -15.4875 C   0  0  2  0  0  0  0  0  0  0  0  0
   23.6260   -9.7712  -14.3573 C   0  0  0  0  0  0  0  0  0  0  0  0
   21.5581   -9.4297  -15.7504 C   0  0  2  0  0  0  0  0  0  0  0  0
   20.7306   -9.8357  -16.8396 N   0  0  0  0  0  0  0  0  0  0  0  0
   21.6573   -7.9639  -15.6508 C   0  0  0  0  0  0  0  0  0  0  0  0
   22.2635   -7.2892  -16.5665 O   0  0  0  0  0  0  0  0  0  0  0  0
   20.0497   -3.5404  -14.6195 C   0  0  0  0  0  0  0  0  0  0  0  0
   19.8851   -5.0398  -14.6414 C   0  0  1  0  0  0  0  0  0  0  0  0
   19.0718   -5.4626  -15.8531 C   0  0  0  0  0  0  0  0  0  0  0  0
   21.2449   -5.7088  -14.6337 C   0  0  2  0  0  0  0  0  0  0  0  0
   21.1346   -7.1484  -14.6207 N   0  0  0  0  0  0  0  0  0  0  0  0
   21.9967   -5.1695  -13.4767 C   0  0  0  0  0  0  0  0  0  0  0  0
   21.9298   -5.7503  -12.3697 O   0  0  0  0  0  0  0  0  0  0  0  0
   22.7625   -4.0443  -13.6070 O   0  0  0  0  0  0  0  0  0  0  0  0
  1  5  1  0
  2  1  1  0
  3  2  1  0
  3  4  1  0
  4  5  1  0
  6  7  2  0
  5  6  1  1
  9  8  1  1
  9 11  1  0
 10  9  1  0
 11 12  1  6
 11 13  1  0
 12  6  1  0
 13 19  1  0
 14 13  2  0
 16 18  1  0
 16 15  1  6
 17 16  1  0
 18 20  1  0
 18 19  1  1
 20 21  2  0
 20 22  1  0
M  END
$$$$
