PVV.pdb
     RDKit          3D

 22 22  0  0  1  0  0  0  0  0999 V2000
   18.9212  -12.2585  -18.6686 N   0  0  0  0  0  0  0  0  0  0  0  0
   17.7074  -11.4981  -18.4767 C   0  0  0  0  0  0  0  0  0  0  0  0
   17.9094  -10.1523  -19.1159 C   0  0  0  0  0  0  0  0  0  0  0  0
   19.2630  -10.2876  -19.7906 C   0  0  0  0  0  0  0  0  0  0  0  0
   19.9550  -11.2804  -18.9178 C   0  0  1  0  0  0  0  0  0  0  0  0
   20.3211  -10.6311  -17.5946 C   0  0  0  0  0  0  0  0  0  0  0  0
   19.4455  -10.6456  -16.7206 O   0  0  0  0  0  0  0  0  0  0  0  0
   22.8915  -11.9395  -15.4939 C   0  0  0  0  0  0  0  0  0  0  0  0
   23.2948  -10.4738  -15.6511 C   0  0  2  0  0  0  0  0  0  0  0  0
   23.8877  -10.0309  -14.3676 C   0  0  0  0  0  0  0  0  0  0  0  0
   22.1591   -9.6631  -16.1594 C   0  0  2  0  0  0  0  0  0  0  0  0
   21.5693  -10.0604  -17.3964 N   0  0  0  0  0  0  0  0  0  0  0  0
   22.2521   -8.1984  -16.0390 C   0  0  0  0  0  0  0  0  0  0  0  0
   23.1026   -7.5401  -16.7492 O   0  0  0  0  0  0  0  0  0  0  0  0
   20.2832   -5.4733  -17.1348 C   0  0  0  0  0  0  0  0  0  0  0  0
   20.4561   -5.1876  -15.6637 C   0  0  1  0  0  0  0  0  0  0  0  0
   19.1952   -5.5614  -14.9029 C   0  0  0  0  0  0  0  0  0  0  0  0
   21.6604   -5.9370  -15.1302 C   0  0  2  0  0  0  0  0  0  0  0  0
   21.4759   -7.3675  -15.1986 N   0  0  0  0  0  0  0  0  0  0  0  0
   21.9143   -5.4454  -13.7559 C   0  0  0  0  0  0  0  0  0  0  0  0
   21.5800   -6.1481  -12.7753 O   0  0  0  0  0  0  0  0  0  0  0  0
   22.5099   -4.2321  -13.5493 O   0  0  0  0  0  0  0  0  0  0  0  0
  1  5  1  0
  2  1  1  0
  3  2  1  0
  3  4  1  0
  4  5  1  0
  6  7  2  0
  5  6  1  1
  9  8  1  1
  9 11  1  0
 10  9  1  0
 11 12  1  6
 11 13  1  0
 12  6  1  0
 13 19  1  0
 14 13  2  0
 16 18  1  0
 16 15  1  6
 17 16  1  0
 18 20  1  0
 18 19  1  1
 20 21  2  0
 20 22  1  0
M  END
$$$$
