PVV.pdb
     RDKit          3D

 22 22  0  0  1  0  0  0  0  0999 V2000
   26.7345  -20.5209  -14.2206 N   0  0  0  0  0  0  0  0  0  0  0  0
   27.6641  -19.4557  -14.5199 C   0  0  0  0  0  0  0  0  0  0  0  0
   28.9232  -19.7206  -13.7422 C   0  0  0  0  0  0  0  0  0  0  0  0
   28.6637  -21.0776  -13.1122 C   0  0  0  0  0  0  0  0  0  0  0  0
   27.1790  -21.0806  -12.9649 C   0  0  1  0  0  0  0  0  0  0  0  0
   26.7731  -20.1293  -11.8528 C   0  0  0  0  0  0  0  0  0  0  0  0
   26.1425  -19.1231  -12.2004 O   0  0  0  0  0  0  0  0  0  0  0  0
   24.1788  -20.1701  -10.7576 C   0  0  0  0  0  0  0  0  0  0  0  0
   24.8534  -20.8034   -9.5413 C   0  0  2  0  0  0  0  0  0  0  0  0
   23.9608  -20.6009   -8.3763 C   0  0  0  0  0  0  0  0  0  0  0  0
   26.2457  -20.3094   -9.3902 C   0  0  2  0  0  0  0  0  0  0  0  0
   27.0995  -20.3903  -10.5305 N   0  0  0  0  0  0  0  0  0  0  0  0
   26.9591  -20.6353   -8.1439 C   0  0  0  0  0  0  0  0  0  0  0  0
   27.2643  -21.8570   -7.8695 O   0  0  0  0  0  0  0  0  0  0  0  0
   30.1848  -18.9237   -6.6708 C   0  0  0  0  0  0  0  0  0  0  0  0
   29.1578  -19.0919   -5.5788 C   0  0  1  0  0  0  0  0  0  0  0  0
   28.4921  -17.7610   -5.2725 C   0  0  0  0  0  0  0  0  0  0  0  0
   28.1363  -20.1344   -5.9867 C   0  0  2  0  0  0  0  0  0  0  0  0
   27.3863  -19.7244   -7.1504 N   0  0  0  0  0  0  0  0  0  0  0  0
   27.2828  -20.4033   -4.8060 C   0  0  0  0  0  0  0  0  0  0  0  0
   26.0661  -20.1108   -4.8419 O   0  0  0  0  0  0  0  0  0  0  0  0
   27.8117  -20.9677   -3.6785 O   0  0  0  0  0  0  0  0  0  0  0  0
  1  5  1  0
  2  1  1  0
  3  2  1  0
  3  4  1  0
  4  5  1  0
  6  7  2  0
  5  6  1  1
  9  8  1  6
  9 11  1  0
 10  9  1  0
 11 12  1  6
 11 13  1  0
 12  6  1  0
 13 19  1  0
 14 13  2  0
 16 18  1  0
 16 15  1  6
 17 16  1  0
 18 20  1  0
 18 19  1  6
 20 21  2  0
 20 22  1  0
M  END
$$$$
