PVV.pdb
     RDKit          3D

 22 22  0  0  1  0  0  0  0  0999 V2000
   29.0127  -19.2409   -6.2357 N   0  0  0  0  0  0  0  0  0  0  0  0
   28.0010  -18.4976   -5.5198 C   0  0  0  0  0  0  0  0  0  0  0  0
   26.9763  -19.4825   -5.0298 C   0  0  0  0  0  0  0  0  0  0  0  0
   27.5764  -20.8253   -5.4068 C   0  0  0  0  0  0  0  0  0  0  0  0
   28.3828  -20.4846   -6.6151 C   0  0  1  0  0  0  0  0  0  0  0  0
   27.4572  -20.2080   -7.7869 C   0  0  0  0  0  0  0  0  0  0  0  0
   26.9323  -19.0879   -7.8133 O   0  0  0  0  0  0  0  0  0  0  0  0
   29.1914  -20.5889  -10.8593 C   0  0  0  0  0  0  0  0  0  0  0  0
   27.8577  -21.2689  -11.1661 C   0  0  2  0  0  0  0  0  0  0  0  0
   27.4839  -20.9183  -12.5563 C   0  0  0  0  0  0  0  0  0  0  0  0
   26.8502  -20.9558  -10.1209 C   0  0  2  0  0  0  0  0  0  0  0  0
   27.2261  -21.1677   -8.7609 N   0  0  0  0  0  0  0  0  0  0  0  0
   25.4533  -21.3472  -10.3736 C   0  0  0  0  0  0  0  0  0  0  0  0
   25.0554  -22.5445  -10.1101 O   0  0  0  0  0  0  0  0  0  0  0  0
   22.3496  -20.1758   -8.8992 C   0  0  0  0  0  0  0  0  0  0  0  0
   22.0560  -20.1669  -10.3788 C   0  0  1  0  0  0  0  0  0  0  0  0
   22.0359  -18.7410  -10.9031 C   0  0  0  0  0  0  0  0  0  0  0  0
   23.0814  -21.0065  -11.1139 C   0  0  2  0  0  0  0  0  0  0  0  0
   24.4254  -20.5270  -10.8931 N   0  0  0  0  0  0  0  0  0  0  0  0
   22.6949  -21.0252  -12.5439 C   0  0  0  0  0  0  0  0  0  0  0  0
   23.3977  -20.4181  -13.3834 O   0  0  0  0  0  0  0  0  0  0  0  0
   21.5784  -21.6991  -12.9548 O   0  0  0  0  0  0  0  0  0  0  0  0
  1  5  1  0
  2  1  1  0
  3  2  1  0
  3  4  1  0
  4  5  1  0
  6  7  2  0
  5  6  1  6
  9  8  1  1
  9 11  1  0
 10  9  1  0
 11 12  1  1
 11 13  1  0
 12  6  1  0
 13 19  1  0
 14 13  2  0
 16 18  1  0
 16 15  1  1
 17 16  1  0
 18 20  1  0
 18 19  1  6
 20 21  2  0
 20 22  1  0
M  END
$$$$
