PVV.pdb
     RDKit          3D

 22 22  0  0  1  0  0  0  0  0999 V2000
   28.9052  -20.3930  -15.3313 N   0  0  0  0  0  0  0  0  0  0  0  0
   28.0385  -20.1558  -16.4631 C   0  0  0  0  0  0  0  0  0  0  0  0
   27.3339  -18.8485  -16.2286 C   0  0  0  0  0  0  0  0  0  0  0  0
   27.9848  -18.3252  -14.9606 C   0  0  0  0  0  0  0  0  0  0  0  0
   28.3718  -19.5842  -14.2595 C   0  0  1  0  0  0  0  0  0  0  0  0
   27.1298  -20.2723  -13.7205 C   0  0  0  0  0  0  0  0  0  0  0  0
   26.7476  -21.2710  -14.3429 O   0  0  0  0  0  0  0  0  0  0  0  0
   26.8273  -21.1500   -9.9354 C   0  0  0  0  0  0  0  0  0  0  0  0
   25.5484  -20.4398  -10.3775 C   0  0  2  0  0  0  0  0  0  0  0  0
   24.4176  -21.0502   -9.6401 C   0  0  0  0  0  0  0  0  0  0  0  0
   25.4324  -20.4296  -11.8580 C   0  0  2  0  0  0  0  0  0  0  0  0
   26.4760  -19.7943  -12.5949 N   0  0  0  0  0  0  0  0  0  0  0  0
   24.1065  -20.1656  -12.4416 C   0  0  0  0  0  0  0  0  0  0  0  0
   23.6638  -18.9585  -12.5310 O   0  0  0  0  0  0  0  0  0  0  0  0
   22.7762  -20.9703  -15.8316 C   0  0  0  0  0  0  0  0  0  0  0  0
   21.6989  -21.4083  -14.8707 C   0  0  1  0  0  0  0  0  0  0  0  0
   21.6754  -22.9234  -14.7610 C   0  0  0  0  0  0  0  0  0  0  0  0
   21.9213  -20.7643  -13.5170 C   0  0  2  0  0  0  0  0  0  0  0  0
   23.2024  -21.1233  -12.9559 N   0  0  0  0  0  0  0  0  0  0  0  0
   20.7783  -21.1428  -12.6538 C   0  0  0  0  0  0  0  0  0  0  0  0
   20.9325  -22.0150  -11.7692 O   0  0  0  0  0  0  0  0  0  0  0  0
   19.5575  -20.5483  -12.8146 O   0  0  0  0  0  0  0  0  0  0  0  0
  1  5  1  0
  2  1  1  0
  3  2  1  0
  3  4  1  0
  4  5  1  0
  6  7  2  0
  5  6  1  6
  9  8  1  6
  9 11  1  0
 10  9  1  0
 11 12  1  6
 11 13  1  0
 12  6  1  0
 13 19  1  0
 14 13  2  0
 16 18  1  0
 16 15  1  6
 17 16  1  0
 18 20  1  0
 18 19  1  1
 20 21  2  0
 20 22  1  0
M  END
$$$$
