PVV.pdb
     RDKit          3D

 22 22  0  0  1  0  0  0  0  0999 V2000
   26.8190  -19.7085  -17.5495 N   0  0  0  0  0  0  0  0  0  0  0  0
   28.1066  -19.0524  -17.5474 C   0  0  0  0  0  0  0  0  0  0  0  0
   29.0388  -19.8854  -16.7124 C   0  0  0  0  0  0  0  0  0  0  0  0
   28.2065  -21.1111  -16.3800 C   0  0  0  0  0  0  0  0  0  0  0  0
   26.8186  -20.5633  -16.3846 C   0  0  1  0  0  0  0  0  0  0  0  0
   26.6082  -19.6921  -15.1586 C   0  0  0  0  0  0  0  0  0  0  0  0
   26.5845  -18.4710  -15.3562 O   0  0  0  0  0  0  0  0  0  0  0  0
   23.3912  -21.1317  -13.7337 C   0  0  0  0  0  0  0  0  0  0  0  0
   24.0514  -19.7841  -13.4450 C   0  0  2  0  0  0  0  0  0  0  0  0
   23.9079  -18.9445  -14.6573 C   0  0  0  0  0  0  0  0  0  0  0  0
   25.4356  -19.9693  -12.9397 C   0  0  2  0  0  0  0  0  0  0  0  0
   26.4534  -20.2513  -13.8990 N   0  0  0  0  0  0  0  0  0  0  0  0
   25.6170  -20.7437  -11.7005 C   0  0  0  0  0  0  0  0  0  0  0  0
   25.5056  -22.0277  -11.7137 O   0  0  0  0  0  0  0  0  0  0  0  0
   28.4333  -20.5390   -9.0148 C   0  0  0  0  0  0  0  0  0  0  0  0
   27.1053  -20.5833   -8.3006 C   0  0  1  0  0  0  0  0  0  0  0  0
   26.7657  -19.2148   -7.7347 C   0  0  0  0  0  0  0  0  0  0  0  0
   26.0257  -21.0680   -9.2474 C   0  0  2  0  0  0  0  0  0  0  0  0
   25.9242  -20.2306  -10.4193 N   0  0  0  0  0  0  0  0  0  0  0  0
   24.7638  -21.1487   -8.4754 C   0  0  0  0  0  0  0  0  0  0  0  0
   23.8283  -20.3579   -8.7335 O   0  0  0  0  0  0  0  0  0  0  0  0
   24.6120  -22.0785   -7.4844 O   0  0  0  0  0  0  0  0  0  0  0  0
  1  5  1  0
  2  1  1  0
  3  2  1  0
  3  4  1  0
  4  5  1  0
  6  7  2  0
  5  6  1  1
  9  8  1  6
  9 11  1  0
 10  9  1  0
 11 12  1  6
 11 13  1  0
 12  6  1  0
 13 19  1  0
 14 13  2  0
 16 18  1  0
 16 15  1  6
 17 16  1  0
 18 20  1  0
 18 19  1  6
 20 21  2  0
 20 22  1  0
M  END
$$$$
