PVV.pdb
     RDKit          3D

 22 22  0  0  1  0  0  0  0  0999 V2000
   26.3097  -21.1708   -7.8937 N   0  0  0  0  0  0  0  0  0  0  0  0
   27.3627  -20.2455   -7.5422 C   0  0  0  0  0  0  0  0  0  0  0  0
   26.8202  -18.8540   -7.7154 C   0  0  0  0  0  0  0  0  0  0  0  0
   25.3575  -19.0900   -8.0477 C   0  0  0  0  0  0  0  0  0  0  0  0
   25.3959  -20.4197   -8.7234 C   0  0  1  0  0  0  0  0  0  0  0  0
   26.0174  -20.2758  -10.1015 C   0  0  0  0  0  0  0  0  0  0  0  0
   27.2426  -20.4355  -10.1654 O   0  0  0  0  0  0  0  0  0  0  0  0
   24.0274  -21.9892  -13.3219 C   0  0  0  0  0  0  0  0  0  0  0  0
   25.4831  -21.5765  -13.1076 C   0  0  2  0  0  0  0  0  0  0  0  0
   26.1304  -22.6240  -12.2837 C   0  0  0  0  0  0  0  0  0  0  0  0
   25.5693  -20.1892  -12.5849 C   0  0  2  0  0  0  0  0  0  0  0  0
   25.2403  -19.9822  -11.2120 N   0  0  0  0  0  0  0  0  0  0  0  0
   25.0704  -19.0999  -13.4410 C   0  0  0  0  0  0  0  0  0  0  0  0
   23.9316  -18.5488  -13.1949 O   0  0  0  0  0  0  0  0  0  0  0  0
   27.0691  -15.9418  -14.6365 C   0  0  0  0  0  0  0  0  0  0  0  0
   26.2875  -16.4999  -15.7998 C   0  0  1  0  0  0  0  0  0  0  0  0
   27.2151  -17.2327  -16.7543 C   0  0  0  0  0  0  0  0  0  0  0  0
   25.1895  -17.4135  -15.2935 C   0  0  2  0  0  0  0  0  0  0  0  0
   25.7223  -18.5397  -14.5636 N   0  0  0  0  0  0  0  0  0  0  0  0
   24.3693  -17.8093  -16.4620 C   0  0  0  0  0  0  0  0  0  0  0  0
   24.4296  -18.9835  -16.8917 O   0  0  0  0  0  0  0  0  0  0  0  0
   23.5476  -16.9043  -17.0747 O   0  0  0  0  0  0  0  0  0  0  0  0
  1  5  1  0
  2  1  1  0
  3  2  1  0
  3  4  1  0
  4  5  1  0
  6  7  2  0
  5  6  1  6
  9  8  1  1
  9 11  1  0
 10  9  1  0
 11 12  1  1
 11 13  1  0
 12  6  1  0
 13 19  1  0
 14 13  2  0
 16 18  1  0
 16 15  1  1
 17 16  1  0
 18 20  1  0
 18 19  1  6
 20 21  2  0
 20 22  1  0
M  END
$$$$
