PVV.pdb
     RDKit          3D

 22 22  0  0  1  0  0  0  0  0999 V2000
   23.4340  -21.2600  -13.3651 N   0  0  0  0  0  0  0  0  0  0  0  0
   22.4520  -22.0153  -12.6211 C   0  0  0  0  0  0  0  0  0  0  0  0
   21.8933  -21.1100  -11.5587 C   0  0  0  0  0  0  0  0  0  0  0  0
   22.5370  -19.7704  -11.8696 C   0  0  0  0  0  0  0  0  0  0  0  0
   23.8294  -20.1767  -12.4947 C   0  0  1  0  0  0  0  0  0  0  0  0
   24.7578  -20.7383  -11.4321 C   0  0  0  0  0  0  0  0  0  0  0  0
   24.4647  -21.8555  -10.9887 O   0  0  0  0  0  0  0  0  0  0  0  0
   28.1881  -21.4622  -12.0584 C   0  0  0  0  0  0  0  0  0  0  0  0
   28.2665  -20.6381  -10.7738 C   0  0  2  0  0  0  0  0  0  0  0  0
   29.3112  -21.2432   -9.9149 C   0  0  0  0  0  0  0  0  0  0  0  0
   26.9234  -20.4862  -10.1586 C   0  0  2  0  0  0  0  0  0  0  0  0
   25.8647  -20.0253  -10.9968 N   0  0  0  0  0  0  0  0  0  0  0  0
   26.8481  -19.9063   -8.8072 C   0  0  0  0  0  0  0  0  0  0  0  0
   26.4592  -18.6886   -8.6426 O   0  0  0  0  0  0  0  0  0  0  0  0
   28.7032  -21.4587   -5.1928 C   0  0  0  0  0  0  0  0  0  0  0  0
   27.3350  -20.8244   -5.1598 C   0  0  1  0  0  0  0  0  0  0  0  0
   27.1131  -20.1198   -3.8322 C   0  0  0  0  0  0  0  0  0  0  0  0
   27.1830  -19.8637   -6.3220 C   0  0  2  0  0  0  0  0  0  0  0  0
   27.1591  -20.5546   -7.5897 N   0  0  0  0  0  0  0  0  0  0  0  0
   28.2754  -18.8684   -6.2191 C   0  0  0  0  0  0  0  0  0  0  0  0
   29.3175  -19.0204   -6.8959 O   0  0  0  0  0  0  0  0  0  0  0  0
   28.1557  -17.7859   -5.3923 O   0  0  0  0  0  0  0  0  0  0  0  0
  1  5  1  0
  2  1  1  0
  3  2  1  0
  3  4  1  0
  4  5  1  0
  6  7  2  0
  5  6  1  1
  9  8  1  6
  9 11  1  0
 10  9  1  0
 11 12  1  6
 11 13  1  0
 12  6  1  0
 13 19  1  0
 14 13  2  0
 16 18  1  0
 16 15  1  1
 17 16  1  0
 18 20  1  0
 18 19  1  6
 20 21  2  0
 20 22  1  0
M  END
$$$$
