PVV.pdb
     RDKit          3D

 22 22  0  0  1  0  0  0  0  0999 V2000
   27.1585  -20.4008  -14.0572 N   0  0  0  0  0  0  0  0  0  0  0  0
   28.2419  -19.4444  -14.0686 C   0  0  0  0  0  0  0  0  0  0  0  0
   29.3963  -20.0579  -13.3261 C   0  0  0  0  0  0  0  0  0  0  0  0
   28.9128  -21.4676  -13.0351 C   0  0  0  0  0  0  0  0  0  0  0  0
   27.4346  -21.2846  -12.9480 C   0  0  1  0  0  0  0  0  0  0  0  0
   27.0840  -20.5550  -11.6630 C   0  0  0  0  0  0  0  0  0  0  0  0
   27.0238  -19.3215  -11.7366 O   0  0  0  0  0  0  0  0  0  0  0  0
   23.9810  -20.5149  -10.3101 C   0  0  0  0  0  0  0  0  0  0  0  0
   24.7831  -21.0272   -9.1145 C   0  0  2  0  0  0  0  0  0  0  0  0
   24.1661  -20.4707   -7.8878 C   0  0  0  0  0  0  0  0  0  0  0  0
   26.2327  -20.7597   -9.2948 C   0  0  2  0  0  0  0  0  0  0  0  0
   26.8484  -21.2486  -10.4855 N   0  0  0  0  0  0  0  0  0  0  0  0
   27.1098  -20.9065   -8.1211 C   0  0  0  0  0  0  0  0  0  0  0  0
   27.4963  -22.0755   -7.7400 O   0  0  0  0  0  0  0  0  0  0  0  0
   28.4879  -17.7531   -5.3913 C   0  0  0  0  0  0  0  0  0  0  0  0
   29.3191  -18.9423   -5.8042 C   0  0  1  0  0  0  0  0  0  0  0  0
   30.3075  -19.3003   -4.7072 C   0  0  0  0  0  0  0  0  0  0  0  0
   28.4164  -20.1146   -6.1322 C   0  0  2  0  0  0  0  0  0  0  0  0
   27.6214  -19.8662   -7.3117 N   0  0  0  0  0  0  0  0  0  0  0  0
   27.6021  -20.3967   -4.9271 C   0  0  0  0  0  0  0  0  0  0  0  0
   26.3926  -20.0741   -4.9076 O   0  0  0  0  0  0  0  0  0  0  0  0
   28.1592  -21.0058   -3.8371 O   0  0  0  0  0  0  0  0  0  0  0  0
  1  5  1  0
  2  1  1  0
  3  2  1  0
  3  4  1  0
  4  5  1  0
  6  7  2  0
  5  6  1  1
  9  8  1  6
  9 11  1  0
 10  9  1  0
 11 12  1  6
 11 13  1  0
 12  6  1  0
 13 19  1  0
 14 13  2  0
 16 18  1  0
 16 15  1  1
 17 16  1  0
 18 20  1  0
 18 19  1  6
 20 21  2  0
 20 22  1  0
M  END
$$$$
