PVV.pdb
     RDKit          3D

 22 22  0  0  1  0  0  0  0  0999 V2000
   27.6982  -18.5892  -17.5757 N   0  0  0  0  0  0  0  0  0  0  0  0
   26.2832  -18.4378  -17.8273 C   0  0  0  0  0  0  0  0  0  0  0  0
   25.7740  -17.3549  -16.9171 C   0  0  0  0  0  0  0  0  0  0  0  0
   27.0378  -16.8325  -16.2573 C   0  0  0  0  0  0  0  0  0  0  0  0
   27.9180  -18.0373  -16.2586 C   0  0  1  0  0  0  0  0  0  0  0  0
   27.4144  -19.0402  -15.2353 C   0  0  0  0  0  0  0  0  0  0  0  0
   26.6770  -19.9348  -15.6672 O   0  0  0  0  0  0  0  0  0  0  0  0
   29.8170  -20.8952  -12.8583 C   0  0  0  0  0  0  0  0  0  0  0  0
   28.7023  -20.2767  -12.0155 C   0  0  2  0  0  0  0  0  0  0  0  0
   28.4146  -21.2068  -10.8987 C   0  0  0  0  0  0  0  0  0  0  0  0
   27.5439  -19.8981  -12.8642 C   0  0  2  0  0  0  0  0  0  0  0  0
   27.7714  -18.9423  -13.8989 N   0  0  0  0  0  0  0  0  0  0  0  0
   26.2444  -19.6942  -12.2022 C   0  0  0  0  0  0  0  0  0  0  0  0
   25.9830  -18.5786  -11.6121 O   0  0  0  0  0  0  0  0  0  0  0  0
   21.4923  -20.4887  -11.3539 C   0  0  0  0  0  0  0  0  0  0  0  0
   22.7335  -20.8185  -12.1453 C   0  0  1  0  0  0  0  0  0  0  0  0
   22.6621  -20.1859  -13.5248 C   0  0  0  0  0  0  0  0  0  0  0  0
   23.9643  -20.3544  -11.3927 C   0  0  2  0  0  0  0  0  0  0  0  0
   25.1764  -20.6181  -12.1319 N   0  0  0  0  0  0  0  0  0  0  0  0
   23.9391  -21.0025  -10.0608 C   0  0  0  0  0  0  0  0  0  0  0  0
   24.4975  -22.1116   -9.9011 O   0  0  0  0  0  0  0  0  0  0  0  0
   23.3121  -20.4007   -9.0052 O   0  0  0  0  0  0  0  0  0  0  0  0
  1  5  1  0
  2  1  1  0
  3  2  1  0
  3  4  1  0
  4  5  1  0
  6  7  2  0
  5  6  1  1
  9  8  1  6
  9 11  1  0
 10  9  1  0
 11 12  1  1
 11 13  1  0
 12  6  1  0
 13 19  1  0
 14 13  2  0
 16 18  1  0
 16 15  1  1
 17 16  1  0
 18 20  1  0
 18 19  1  6
 20 21  2  0
 20 22  1  0
M  END
$$$$
