PVV.pdb
     RDKit          3D

 22 22  0  0  1  0  0  0  0  0999 V2000
   26.8570  -19.5587  -16.2734 N   0  0  0  0  0  0  0  0  0  0  0  0
   28.0365  -18.7277  -16.1912 C   0  0  0  0  0  0  0  0  0  0  0  0
   29.0462  -19.4555  -15.3480 C   0  0  0  0  0  0  0  0  0  0  0  0
   28.3859  -20.7997  -15.0977 C   0  0  0  0  0  0  0  0  0  0  0  0
   26.9351  -20.4540  -15.1421 C   0  0  1  0  0  0  0  0  0  0  0  0
   26.5562  -19.6747  -13.8949 C   0  0  0  0  0  0  0  0  0  0  0  0
   26.2923  -18.4774  -14.0605 O   0  0  0  0  0  0  0  0  0  0  0  0
   23.7025  -21.7712  -12.3895 C   0  0  0  0  0  0  0  0  0  0  0  0
   24.0781  -20.3107  -12.1417 C   0  0  2  0  0  0  0  0  0  0  0  0
   23.7378  -19.5457  -13.3641 C   0  0  0  0  0  0  0  0  0  0  0  0
   25.4818  -20.1969  -11.6705 C   0  0  2  0  0  0  0  0  0  0  0  0
   26.5140  -20.2871  -12.6514 N   0  0  0  0  0  0  0  0  0  0  0  0
   25.8460  -20.8887  -10.4226 C   0  0  0  0  0  0  0  0  0  0  0  0
   25.9602  -22.1722  -10.3999 O   0  0  0  0  0  0  0  0  0  0  0  0
   28.6524  -20.2165   -7.6848 C   0  0  0  0  0  0  0  0  0  0  0  0
   27.3020  -20.3611   -7.0284 C   0  0  1  0  0  0  0  0  0  0  0  0
   26.7702  -19.0001   -6.6124 C   0  0  0  0  0  0  0  0  0  0  0  0
   26.3422  -21.0600   -7.9701 C   0  0  2  0  0  0  0  0  0  0  0  0
   26.1108  -20.2898   -9.1694 N   0  0  0  0  0  0  0  0  0  0  0  0
   25.1031  -21.3433   -7.2091 C   0  0  0  0  0  0  0  0  0  0  0  0
   25.1422  -22.1222   -6.2299 O   0  0  0  0  0  0  0  0  0  0  0  0
   23.9181  -20.7619   -7.5663 O   0  0  0  0  0  0  0  0  0  0  0  0
  1  5  1  0
  2  1  1  0
  3  2  1  0
  3  4  1  0
  4  5  1  0
  6  7  2  0
  5  6  1  1
  9  8  1  6
  9 11  1  0
 10  9  1  0
 11 12  1  6
 11 13  1  0
 12  6  1  0
 13 19  1  0
 14 13  2  0
 16 18  1  0
 16 15  1  6
 17 16  1  0
 18 20  1  0
 18 19  1  6
 20 21  2  0
 20 22  1  0
M  END
$$$$
