PVV.pdb
     RDKit          3D

 22 22  0  0  1  0  0  0  0  0999 V2000
   16.7912  -14.6282  -17.7319 N   0  0  0  0  0  0  0  0  0  0  0  0
   17.9925  -15.4003  -17.5100 C   0  0  0  0  0  0  0  0  0  0  0  0
   18.3130  -15.3288  -16.0429 C   0  0  0  0  0  0  0  0  0  0  0  0
   17.1240  -14.5834  -15.4631 C   0  0  0  0  0  0  0  0  0  0  0  0
   16.6983  -13.7257  -16.6075 C   0  0  1  0  0  0  0  0  0  0  0  0
   17.7065  -12.6087  -16.8127 C   0  0  0  0  0  0  0  0  0  0  0  0
   18.6065  -12.8316  -17.6320 O   0  0  0  0  0  0  0  0  0  0  0  0
   16.7312   -9.6398  -18.4554 C   0  0  0  0  0  0  0  0  0  0  0  0
   17.2156   -9.1592  -17.0880 C   0  0  2  0  0  0  0  0  0  0  0  0
   17.7432   -7.7849  -17.2558 C   0  0  0  0  0  0  0  0  0  0  0  0
   18.1443  -10.1446  -16.4781 C   0  0  2  0  0  0  0  0  0  0  0  0
   17.6077  -11.4154  -16.1132 N   0  0  0  0  0  0  0  0  0  0  0  0
   19.1154   -9.6518  -15.4870 C   0  0  0  0  0  0  0  0  0  0  0  0
   18.7255   -9.3171  -14.3050 O   0  0  0  0  0  0  0  0  0  0  0  0
   22.4746  -11.2387  -14.3266 C   0  0  0  0  0  0  0  0  0  0  0  0
   22.7076   -9.7790  -14.6278 C   0  0  1  0  0  0  0  0  0  0  0  0
   23.4225   -9.6237  -15.9593 C   0  0  0  0  0  0  0  0  0  0  0  0
   21.3879   -9.0340  -14.6243 C   0  0  2  0  0  0  0  0  0  0  0  0
   20.5084   -9.4953  -15.6724 N   0  0  0  0  0  0  0  0  0  0  0  0
   21.6961   -7.5877  -14.7142 C   0  0  0  0  0  0  0  0  0  0  0  0
   21.5895   -6.9990  -15.8139 O   0  0  0  0  0  0  0  0  0  0  0  0
   22.0955   -6.8907  -13.6078 O   0  0  0  0  0  0  0  0  0  0  0  0
  1  5  1  0
  2  1  1  0
  3  2  1  0
  3  4  1  0
  4  5  1  0
  6  7  2  0
  5  6  1  6
  9  8  1  6
  9 11  1  0
 10  9  1  0
 11 12  1  1
 11 13  1  0
 12  6  1  0
 13 19  1  0
 14 13  2  0
 16 18  1  0
 16 15  1  6
 17 16  1  0
 18 20  1  0
 18 19  1  6
 20 21  2  0
 20 22  1  0
M  END
$$$$
