PVV.pdb
     RDKit          3D

 22 22  0  0  1  0  0  0  0  0999 V2000
   40.3417   -0.7410   -4.8506 N   0  0  0  0  0  0  0  0  0  0  0  0
   41.5078   -0.7883   -5.7029 C   0  0  0  0  0  0  0  0  0  0  0  0
   41.0660   -0.4353   -7.0959 C   0  0  0  0  0  0  0  0  0  0  0  0
   39.6076   -0.0548   -6.9122 C   0  0  0  0  0  0  0  0  0  0  0  0
   39.2091   -0.8826   -5.7365 C   0  0  1  0  0  0  0  0  0  0  0  0
   39.1095   -2.3412   -6.1476 C   0  0  0  0  0  0  0  0  0  0  0  0
   40.1423   -3.0120   -6.0287 O   0  0  0  0  0  0  0  0  0  0  0  0
   36.6797   -4.6077   -4.5355 C   0  0  0  0  0  0  0  0  0  0  0  0
   36.4550   -4.7945   -6.0355 C   0  0  2  0  0  0  0  0  0  0  0  0
   36.1325   -6.2219   -6.2672 C   0  0  0  0  0  0  0  0  0  0  0  0
   37.5954   -4.2485   -6.8145 C   0  0  2  0  0  0  0  0  0  0  0  0
   37.9212   -2.8722   -6.6262 N   0  0  0  0  0  0  0  0  0  0  0  0
   37.7236   -4.6571   -8.2234 C   0  0  0  0  0  0  0  0  0  0  0  0
   36.8778   -4.2391   -9.1014 O   0  0  0  0  0  0  0  0  0  0  0  0
   39.9596   -3.9145  -10.9168 C   0  0  0  0  0  0  0  0  0  0  0  0
   39.9372   -5.4227  -10.9009 C   0  0  1  0  0  0  0  0  0  0  0  0
   41.2127   -5.9617  -10.2755 C   0  0  0  0  0  0  0  0  0  0  0  0
   38.7121   -5.9133  -10.1560 C   0  0  2  0  0  0  0  0  0  0  0  0
   38.7208   -5.4947   -8.7741 N   0  0  0  0  0  0  0  0  0  0  0  0
   38.6535   -7.3844  -10.3209 C   0  0  0  0  0  0  0  0  0  0  0  0
   38.9273   -8.1275   -9.3514 O   0  0  0  0  0  0  0  0  0  0  0  0
   38.3034   -7.9372  -11.5215 O   0  0  0  0  0  0  0  0  0  0  0  0
  1  5  1  0
  2  1  1  0
  3  2  1  0
  3  4  1  0
  4  5  1  0
  6  7  2  0
  5  6  1  6
  9  8  1  1
  9 11  1  0
 10  9  1  0
 11 12  1  6
 11 13  1  0
 12  6  1  0
 13 19  1  0
 14 13  2  0
 16 18  1  0
 16 15  1  1
 17 16  1  0
 18 20  1  0
 18 19  1  1
 20 21  2  0
 20 22  1  0
M  END
$$$$
