END.pdb
     RDKit          3D

 26 25  0  0  1  0  0  0  0  0999 V2000
   19.5100  -11.1307  -17.4689 N   0  0  0  0  0  0  0  0  0  0  0  0
   18.2665  -10.4014  -17.6251 C   0  0  1  0  0  0  0  0  0  0  0  0
   17.1250  -11.1318  -16.9459 C   0  0  0  0  0  0  0  0  0  0  0  0
   17.5250  -11.9872  -15.7988 C   0  0  0  0  0  0  0  0  0  0  0  0
   16.4481  -12.7211  -15.1566 C   0  0  0  0  0  0  0  0  0  0  0  0
   16.6468  -13.5713  -14.2581 O   0  0  0  0  0  0  0  0  0  0  0  0
   18.4082   -9.1299  -16.8320 C   0  0  0  0  0  0  0  0  0  0  0  0
   17.3802   -8.5126  -16.5589 O   0  0  0  0  0  0  0  0  0  0  0  0
   15.1352  -12.4928  -15.5317 O   0  0  0  0  0  0  0  0  0  0  0  0
   19.1566   -8.3426  -13.1080 N   0  0  0  0  0  0  0  0  0  0  0  0
   20.5173   -8.0501  -13.3165 C   0  0  0  0  0  0  0  0  0  0  0  0
   21.2822   -8.1425  -12.2863 O   0  0  0  0  0  0  0  0  0  0  0  0
   21.0889   -7.6568  -14.6119 C   0  0  0  0  0  0  0  0  0  0  0  0
   20.0586   -7.5360  -15.7119 C   0  0  2  0  0  0  0  0  0  0  0  0
   19.6536   -8.6637  -16.4197 N   0  0  0  0  0  0  0  0  0  0  0  0
   20.2580   -6.2839  -16.4493 C   0  0  0  0  0  0  0  0  0  0  0  0
   21.0320   -6.2315  -17.4717 O   0  0  0  0  0  0  0  0  0  0  0  0
   19.6275   -5.0704  -16.0993 N   0  0  0  0  0  0  0  0  0  0  0  0
   19.7859   -3.8800  -16.9279 C   0  0  1  0  0  0  0  0  0  0  0  0
   18.5364   -3.0588  -16.7445 C   0  0  0  0  0  0  0  0  0  0  0  0
   17.3996   -3.7521  -17.3688 C   0  0  0  0  0  0  0  0  0  0  0  0
   17.5620   -4.3000  -18.4864 O   0  0  0  0  0  0  0  0  0  0  0  0
   21.0300   -3.1680  -16.6100 C   0  0  0  0  0  0  0  0  0  0  0  0
   21.3893   -2.1215  -17.1859 O   0  0  0  0  0  0  0  0  0  0  0  0
   16.1783   -3.7877  -16.7170 O   0  0  0  0  0  0  0  0  0  0  0  0
   21.8480   -3.6986  -15.6069 O   0  0  0  0  0  0  0  0  0  0  0  0
  2  1  1  1
  2  7  1  0
  3  2  1  0
  4  3  1  0
  5  6  2  0
  5  4  1  0
  7  8  2  0
  9  5  1  0
 10 11  1  0
 11 13  1  0
 12 11  2  0
 14 13  1  6
 15  7  1  0
 15 14  1  0
 16 14  1  0
 16 17  2  0
 18 16  1  0
 19 18  1  0
 19 20  1  1
 21 20  1  0
 21 25  1  0
 22 21  2  0
 23 26  1  0
 23 19  1  0
 24 23  2  0
M  END
$$$$
