END.pdb
     RDKit          3D

 26 25  0  0  1  0  0  0  0  0999 V2000
   16.0454  -11.4753  -14.3609 N   0  0  0  0  0  0  0  0  0  0  0  0
   17.3996  -11.7456  -14.8037 C   0  0  1  0  0  0  0  0  0  0  0  0
   17.4077  -12.7837  -15.9083 C   0  0  0  0  0  0  0  0  0  0  0  0
   16.3771  -13.8456  -15.7755 C   0  0  0  0  0  0  0  0  0  0  0  0
   16.3719  -14.8509  -16.8243 C   0  0  0  0  0  0  0  0  0  0  0  0
   17.1787  -15.8091  -16.8509 O   0  0  0  0  0  0  0  0  0  0  0  0
   17.8924  -10.4931  -15.4775 C   0  0  0  0  0  0  0  0  0  0  0  0
   19.0195  -10.5177  -15.9688 O   0  0  0  0  0  0  0  0  0  0  0  0
   15.4475  -14.7743  -17.8520 O   0  0  0  0  0  0  0  0  0  0  0  0
   16.5323   -9.1510  -18.5942 N   0  0  0  0  0  0  0  0  0  0  0  0
   15.8943   -8.0013  -18.0925 C   0  0  0  0  0  0  0  0  0  0  0  0
   14.9528   -7.5115  -18.8195 O   0  0  0  0  0  0  0  0  0  0  0  0
   16.2401   -7.3535  -16.8196 C   0  0  0  0  0  0  0  0  0  0  0  0
   17.3311   -8.0706  -16.0569 C   0  0  2  0  0  0  0  0  0  0  0  0
   17.1070   -9.3455  -15.5457 N   0  0  0  0  0  0  0  0  0  0  0  0
   18.0822   -7.1129  -15.2383 C   0  0  0  0  0  0  0  0  0  0  0  0
   17.6021   -6.6604  -14.1375 O   0  0  0  0  0  0  0  0  0  0  0  0
   19.3605   -6.6288  -15.5905 N   0  0  0  0  0  0  0  0  0  0  0  0
   20.0656   -5.6855  -14.7292 C   0  0  1  0  0  0  0  0  0  0  0  0
   21.5359   -5.8750  -14.9966 C   0  0  0  0  0  0  0  0  0  0  0  0
   22.3119   -5.0033  -14.1018 C   0  0  0  0  0  0  0  0  0  0  0  0
   21.7457   -4.5045  -13.0987 O   0  0  0  0  0  0  0  0  0  0  0  0
   19.5854   -4.3129  -14.9324 C   0  0  0  0  0  0  0  0  0  0  0  0
   19.3715   -3.8193  -16.0577 O   0  0  0  0  0  0  0  0  0  0  0  0
   23.6446   -4.7499  -14.3802 O   0  0  0  0  0  0  0  0  0  0  0  0
   19.3583   -3.5259  -13.7984 O   0  0  0  0  0  0  0  0  0  0  0  0
  2  1  1  6
  2  7  1  0
  3  2  1  0
  4  3  1  0
  5  6  2  0
  5  4  1  0
  7  8  2  0
  9  5  1  0
 10 11  1  0
 11 13  1  0
 12 11  2  0
 14 13  1  1
 15  7  1  0
 15 14  1  0
 16 14  1  0
 16 17  2  0
 18 16  1  0
 19 18  1  0
 19 20  1  6
 21 20  1  0
 21 25  1  0
 22 21  2  0
 23 26  1  0
 23 19  1  0
 24 23  2  0
M  END
$$$$
