END.pdb
     RDKit          3D

 26 25  0  0  1  0  0  0  0  0999 V2000
   18.9714  -11.4831  -14.9542 N   0  0  0  0  0  0  0  0  0  0  0  0
   17.8422  -10.7173  -15.4454 C   0  0  1  0  0  0  0  0  0  0  0  0
   16.5531  -11.5000  -15.2913 C   0  0  0  0  0  0  0  0  0  0  0  0
   16.6320  -12.9230  -15.7110 C   0  0  0  0  0  0  0  0  0  0  0  0
   15.4418  -13.7183  -15.4629 C   0  0  0  0  0  0  0  0  0  0  0  0
   15.3053  -14.8883  -15.8896 O   0  0  0  0  0  0  0  0  0  0  0  0
   17.6727   -9.5492  -14.5112 C   0  0  0  0  0  0  0  0  0  0  0  0
   16.8294   -8.7038  -14.8053 O   0  0  0  0  0  0  0  0  0  0  0  0
   14.3965  -13.1882  -14.7261 O   0  0  0  0  0  0  0  0  0  0  0  0
   15.7878   -8.4759  -11.4921 N   0  0  0  0  0  0  0  0  0  0  0  0
   16.8195   -8.7606  -10.5782 C   0  0  0  0  0  0  0  0  0  0  0  0
   16.4551   -9.0075   -9.3695 O   0  0  0  0  0  0  0  0  0  0  0  0
   18.2470   -8.7888  -10.9260 C   0  0  0  0  0  0  0  0  0  0  0  0
   18.5204   -8.4423  -12.3722 C   0  0  2  0  0  0  0  0  0  0  0  0
   18.4389   -9.4238  -13.3555 N   0  0  0  0  0  0  0  0  0  0  0  0
   19.6068   -7.4605  -12.4551 C   0  0  0  0  0  0  0  0  0  0  0  0
   20.7840   -7.7347  -12.0236 O   0  0  0  0  0  0  0  0  0  0  0  0
   19.4441   -6.1702  -13.0040 N   0  0  0  0  0  0  0  0  0  0  0  0
   20.6017   -5.3752  -13.4000 C   0  0  1  0  0  0  0  0  0  0  0  0
   21.3743   -6.2049  -14.3918 C   0  0  0  0  0  0  0  0  0  0  0  0
   22.5524   -5.4515  -14.8470 C   0  0  0  0  0  0  0  0  0  0  0  0
   23.0504   -4.5857  -14.0868 O   0  0  0  0  0  0  0  0  0  0  0  0
   20.1987   -4.0546  -13.8996 C   0  0  0  0  0  0  0  0  0  0  0  0
   19.1162   -3.8410  -14.4813 O   0  0  0  0  0  0  0  0  0  0  0  0
   23.0876   -5.7089  -16.0980 O   0  0  0  0  0  0  0  0  0  0  0  0
   21.0813   -2.9865  -13.7077 O   0  0  0  0  0  0  0  0  0  0  0  0
  2  1  1  1
  2  7  1  0
  3  2  1  0
  4  3  1  0
  5  6  2  0
  5  4  1  0
  7  8  2  0
  9  5  1  0
 10 11  1  0
 11 13  1  0
 12 11  2  0
 14 13  1  1
 15  7  1  0
 15 14  1  0
 16 14  1  0
 16 17  2  0
 18 16  1  0
 19 18  1  0
 19 20  1  6
 21 20  1  0
 21 25  1  0
 22 21  2  0
 23 26  1  0
 23 19  1  0
 24 23  2  0
M  END
$$$$
