END.pdb
     RDKit          3D

 26 25  0  0  1  0  0  0  0  0999 V2000
   20.7734  -13.0848  -18.4207 N   0  0  0  0  0  0  0  0  0  0  0  0
   19.6844  -12.7425  -17.5264 C   0  0  1  0  0  0  0  0  0  0  0  0
   19.3381  -13.9128  -16.6272 C   0  0  0  0  0  0  0  0  0  0  0  0
   20.0562  -15.1753  -16.9402 C   0  0  0  0  0  0  0  0  0  0  0  0
   19.7734  -16.2943  -16.0579 C   0  0  0  0  0  0  0  0  0  0  0  0
   19.0363  -16.1952  -15.0497 O   0  0  0  0  0  0  0  0  0  0  0  0
   20.2142  -11.6997  -16.5790 C   0  0  0  0  0  0  0  0  0  0  0  0
   19.6758  -11.6064  -15.4773 O   0  0  0  0  0  0  0  0  0  0  0  0
   20.3272  -17.5365  -16.3164 O   0  0  0  0  0  0  0  0  0  0  0  0
   23.8184  -11.8365  -15.6681 N   0  0  0  0  0  0  0  0  0  0  0  0
   24.2518  -10.6007  -16.1834 C   0  0  0  0  0  0  0  0  0  0  0  0
   25.5221  -10.4604  -16.3295 O   0  0  0  0  0  0  0  0  0  0  0  0
   23.3528   -9.4978  -16.5510 C   0  0  0  0  0  0  0  0  0  0  0  0
   21.8941   -9.7988  -16.2905 C   0  0  2  0  0  0  0  0  0  0  0  0
   21.2741  -10.8680  -16.9301 N   0  0  0  0  0  0  0  0  0  0  0  0
   21.1444   -8.5475  -16.1375 C   0  0  0  0  0  0  0  0  0  0  0  0
   20.6973   -7.9121  -17.1591 O   0  0  0  0  0  0  0  0  0  0  0  0
   20.8631   -7.9617  -14.8843 N   0  0  0  0  0  0  0  0  0  0  0  0
   20.0302   -6.7678  -14.7877 C   0  0  1  0  0  0  0  0  0  0  0  0
   19.4436   -6.7636  -13.4002 C   0  0  0  0  0  0  0  0  0  0  0  0
   18.3549   -7.7495  -13.3266 C   0  0  0  0  0  0  0  0  0  0  0  0
   17.9724   -8.3115  -14.3817 O   0  0  0  0  0  0  0  0  0  0  0  0
   20.7882   -5.5571  -15.1280 C   0  0  0  0  0  0  0  0  0  0  0  0
   22.0342   -5.5143  -15.1648 O   0  0  0  0  0  0  0  0  0  0  0  0
   17.7751   -8.0382  -12.1026 O   0  0  0  0  0  0  0  0  0  0  0  0
   20.0661   -4.3966  -15.4255 O   0  0  0  0  0  0  0  0  0  0  0  0
  2  1  1  6
  2  7  1  0
  3  2  1  0
  4  3  1  0
  5  6  2  0
  5  4  1  0
  7  8  2  0
  9  5  1  0
 10 11  1  0
 11 13  1  0
 12 11  2  0
 14 13  1  6
 15  7  1  0
 15 14  1  0
 16 14  1  0
 16 17  2  0
 18 16  1  0
 19 18  1  0
 19 20  1  1
 21 20  1  0
 21 25  1  0
 22 21  2  0
 23 26  1  0
 23 19  1  0
 24 23  2  0
M  END
$$$$
