END.pdb
     RDKit          3D

 26 25  0  0  1  0  0  0  0  0999 V2000
   21.0424  -11.6526  -15.7669 N   0  0  0  0  0  0  0  0  0  0  0  0
   20.3782  -10.8976  -16.8118 C   0  0  1  0  0  0  0  0  0  0  0  0
   19.0205  -11.4938  -17.1266 C   0  0  0  0  0  0  0  0  0  0  0  0
   19.0347  -12.9437  -17.4509 C   0  0  0  0  0  0  0  0  0  0  0  0
   17.7379  -13.5393  -17.7235 C   0  0  0  0  0  0  0  0  0  0  0  0
   17.1030  -13.3293  -18.7830 O   0  0  0  0  0  0  0  0  0  0  0  0
   20.0567   -9.5465  -16.2315 C   0  0  0  0  0  0  0  0  0  0  0  0
   19.5476   -8.7132  -16.9790 O   0  0  0  0  0  0  0  0  0  0  0  0
   17.1528  -14.3798  -16.7920 O   0  0  0  0  0  0  0  0  0  0  0  0
   17.5271   -9.1967  -13.6172 N   0  0  0  0  0  0  0  0  0  0  0  0
   18.3764   -8.8716  -12.5431 C   0  0  0  0  0  0  0  0  0  0  0  0
   17.9524   -9.1837  -11.3694 O   0  0  0  0  0  0  0  0  0  0  0  0
   19.6822   -8.2140  -12.6920 C   0  0  0  0  0  0  0  0  0  0  0  0
   20.1373   -8.0995  -14.1294 C   0  0  2  0  0  0  0  0  0  0  0  0
   20.3234   -9.2441  -14.8988 N   0  0  0  0  0  0  0  0  0  0  0  0
   21.1040   -7.0045  -14.2627 C   0  0  0  0  0  0  0  0  0  0  0  0
   22.3445   -7.1761  -13.9820 O   0  0  0  0  0  0  0  0  0  0  0  0
   20.7516   -5.7097  -14.7008 N   0  0  0  0  0  0  0  0  0  0  0  0
   21.7629   -4.6674  -14.8413 C   0  0  1  0  0  0  0  0  0  0  0  0
   21.8703   -4.3679  -16.3136 C   0  0  0  0  0  0  0  0  0  0  0  0
   22.8308   -3.2738  -16.5213 C   0  0  0  0  0  0  0  0  0  0  0  0
   23.9786   -3.3708  -16.0226 O   0  0  0  0  0  0  0  0  0  0  0  0
   21.4483   -3.5003  -14.0076 C   0  0  0  0  0  0  0  0  0  0  0  0
   22.2087   -2.5195  -13.8835 O   0  0  0  0  0  0  0  0  0  0  0  0
   22.4543   -2.1635  -17.2582 O   0  0  0  0  0  0  0  0  0  0  0  0
   20.2293   -3.4975  -13.3213 O   0  0  0  0  0  0  0  0  0  0  0  0
  2  1  1  1
  2  7  1  0
  3  2  1  0
  4  3  1  0
  5  6  2  0
  5  4  1  0
  7  8  2  0
  9  5  1  0
 10 11  1  0
 11 13  1  0
 12 11  2  0
 14 13  1  1
 15  7  1  0
 15 14  1  0
 16 14  1  0
 16 17  2  0
 18 16  1  0
 19 18  1  0
 19 20  1  6
 21 20  1  0
 21 25  1  0
 22 21  2  0
 23 26  1  0
 23 19  1  0
 24 23  2  0
M  END
$$$$
