END.pdb
     RDKit          3D

 26 25  0  0  1  0  0  0  0  0999 V2000
   18.7659  -12.8621  -15.7967 N   0  0  0  0  0  0  0  0  0  0  0  0
   18.6448  -11.5137  -16.3161 C   0  0  1  0  0  0  0  0  0  0  0  0
   17.4264  -10.8215  -15.7379 C   0  0  0  0  0  0  0  0  0  0  0  0
   16.1222  -11.3732  -16.1873 C   0  0  0  0  0  0  0  0  0  0  0  0
   14.9444  -10.6658  -15.7150 C   0  0  0  0  0  0  0  0  0  0  0  0
   14.3383   -9.8167  -16.4087 O   0  0  0  0  0  0  0  0  0  0  0  0
   19.8052  -10.7310  -15.7623 C   0  0  0  0  0  0  0  0  0  0  0  0
   19.9015  -10.6458  -14.5394 O   0  0  0  0  0  0  0  0  0  0  0  0
   14.4461  -10.9196  -14.4486 O   0  0  0  0  0  0  0  0  0  0  0  0
   24.0664   -7.6217  -15.6686 N   0  0  0  0  0  0  0  0  0  0  0  0
   24.2600   -8.7474  -16.4907 C   0  0  0  0  0  0  0  0  0  0  0  0
   25.4759   -9.0066  -16.8214 O   0  0  0  0  0  0  0  0  0  0  0  0
   23.1760   -9.6136  -16.9746 C   0  0  0  0  0  0  0  0  0  0  0  0
   21.8326   -9.2973  -16.3569 C   0  0  2  0  0  0  0  0  0  0  0  0
   20.7386  -10.1232  -16.5977 N   0  0  0  0  0  0  0  0  0  0  0  0
   21.6200   -7.8462  -16.3366 C   0  0  0  0  0  0  0  0  0  0  0  0
   21.3102   -7.2055  -17.4046 O   0  0  0  0  0  0  0  0  0  0  0  0
   21.7362   -7.0630  -15.1680 N   0  0  0  0  0  0  0  0  0  0  0  0
   21.4380   -5.6350  -15.1929 C   0  0  1  0  0  0  0  0  0  0  0  0
   19.9618   -5.5085  -15.4646 C   0  0  0  0  0  0  0  0  0  0  0  0
   19.5847   -4.0870  -15.4649 C   0  0  0  0  0  0  0  0  0  0  0  0
   20.3108   -3.2664  -16.0772 O   0  0  0  0  0  0  0  0  0  0  0  0
   21.8856   -4.9730  -13.9610 C   0  0  0  0  0  0  0  0  0  0  0  0
   22.4743   -5.5680  -13.0362 O   0  0  0  0  0  0  0  0  0  0  0  0
   18.4429   -3.6820  -14.7941 O   0  0  0  0  0  0  0  0  0  0  0  0
   21.6346   -3.6034  -13.8274 O   0  0  0  0  0  0  0  0  0  0  0  0
  2  1  1  1
  2  7  1  0
  3  2  1  0
  4  3  1  0
  5  6  2  0
  5  4  1  0
  7  8  2  0
  9  5  1  0
 10 11  1  0
 11 13  1  0
 12 11  2  0
 14 13  1  6
 15  7  1  0
 15 14  1  0
 16 14  1  0
 16 17  2  0
 18 16  1  0
 19 18  1  0
 19 20  1  1
 21 20  1  0
 21 25  1  0
 22 21  2  0
 23 26  1  0
 23 19  1  0
 24 23  2  0
M  END
$$$$
