END.pdb
     RDKit          3D

 26 25  0  0  1  0  0  0  0  0999 V2000
   24.7370  -20.7760   -9.7422 N   0  0  0  0  0  0  0  0  0  0  0  0
   23.5331  -20.9623  -10.5288 C   0  0  1  0  0  0  0  0  0  0  0  0
   22.3772  -20.1801   -9.9372 C   0  0  0  0  0  0  0  0  0  0  0  0
   21.8727  -20.6966   -8.6386 C   0  0  0  0  0  0  0  0  0  0  0  0
   20.9561  -21.8205   -8.7227 C   0  0  0  0  0  0  0  0  0  0  0  0
   20.1709  -21.9864   -9.6848 O   0  0  0  0  0  0  0  0  0  0  0  0
   23.7782  -20.3002  -11.8581 C   0  0  0  0  0  0  0  0  0  0  0  0
   24.0806  -19.1082  -11.8524 O   0  0  0  0  0  0  0  0  0  0  0  0
   20.9259  -22.7661   -7.7120 O   0  0  0  0  0  0  0  0  0  0  0  0
   26.6946  -22.4242  -14.5998 N   0  0  0  0  0  0  0  0  0  0  0  0
   25.9818  -21.2664  -14.9630 C   0  0  0  0  0  0  0  0  0  0  0  0
   26.6324  -20.1581  -14.9072 O   0  0  0  0  0  0  0  0  0  0  0  0
   24.5754  -21.2616  -15.3892 C   0  0  0  0  0  0  0  0  0  0  0  0
   23.6462  -20.6119  -14.3889 C   0  0  2  0  0  0  0  0  0  0  0  0
   23.6682  -21.0048  -13.0540 N   0  0  0  0  0  0  0  0  0  0  0  0
   22.3478  -20.3401  -15.0147 C   0  0  0  0  0  0  0  0  0  0  0  0
   21.4216  -21.2282  -15.0350 O   0  0  0  0  0  0  0  0  0  0  0  0
   22.0258  -19.1094  -15.6266 N   0  0  0  0  0  0  0  0  0  0  0  0
   20.7067  -18.8871  -16.2090 C   0  0  1  0  0  0  0  0  0  0  0  0
   20.1879  -17.6011  -15.6207 C   0  0  0  0  0  0  0  0  0  0  0  0
   19.5297  -17.8817  -14.3359 C   0  0  0  0  0  0  0  0  0  0  0  0
   19.3667  -19.0758  -13.9851 O   0  0  0  0  0  0  0  0  0  0  0  0
   20.7595  -18.9034  -17.6763 C   0  0  0  0  0  0  0  0  0  0  0  0
   21.8212  -18.9954  -18.3246 O   0  0  0  0  0  0  0  0  0  0  0  0
   19.1041  -16.8303  -13.5413 O   0  0  0  0  0  0  0  0  0  0  0  0
   19.5509  -18.8113  -18.3744 O   0  0  0  0  0  0  0  0  0  0  0  0
  2  1  1  1
  2  7  1  0
  3  2  1  0
  4  3  1  0
  5  6  2  0
  5  4  1  0
  7  8  2  0
  9  5  1  0
 10 11  1  0
 11 13  1  0
 12 11  2  0
 14 13  1  6
 15  7  1  0
 15 14  1  0
 16 14  1  0
 16 17  2  0
 18 16  1  0
 19 18  1  0
 19 20  1  6
 21 20  1  0
 21 25  1  0
 22 21  2  0
 23 26  1  0
 23 19  1  0
 24 23  2  0
M  END
$$$$
