END.pdb
     RDKit          3D

 26 25  0  0  1  0  0  0  0  0999 V2000
   20.9795  -13.6434  -15.7045 N   0  0  0  0  0  0  0  0  0  0  0  0
   21.2971  -12.6298  -16.6918 C   0  0  1  0  0  0  0  0  0  0  0  0
   20.0361  -12.1059  -17.3502 C   0  0  0  0  0  0  0  0  0  0  0  0
   18.8612  -11.9916  -16.4480 C   0  0  0  0  0  0  0  0  0  0  0  0
   17.6349  -11.5222  -17.0697 C   0  0  0  0  0  0  0  0  0  0  0  0
   17.0056  -12.1917  -17.9214 O   0  0  0  0  0  0  0  0  0  0  0  0
   21.8333  -11.4433  -15.9365 C   0  0  0  0  0  0  0  0  0  0  0  0
   21.2466  -11.1116  -14.9079 O   0  0  0  0  0  0  0  0  0  0  0  0
   17.1141  -10.2863  -16.7265 O   0  0  0  0  0  0  0  0  0  0  0  0
   25.3002  -11.4914  -14.7211 N   0  0  0  0  0  0  0  0  0  0  0  0
   25.8512  -10.4157  -15.4420 C   0  0  0  0  0  0  0  0  0  0  0  0
   27.1356  -10.3616  -15.4880 O   0  0  0  0  0  0  0  0  0  0  0  0
   25.0565   -9.3840  -16.1230 C   0  0  0  0  0  0  0  0  0  0  0  0
   23.5648   -9.5670  -15.9569 C   0  0  2  0  0  0  0  0  0  0  0  0
   22.9515  -10.7423  -16.3802 N   0  0  0  0  0  0  0  0  0  0  0  0
   22.8747   -8.2950  -16.1956 C   0  0  0  0  0  0  0  0  0  0  0  0
   22.4567   -7.9758  -17.3663 O   0  0  0  0  0  0  0  0  0  0  0  0
   22.6229   -7.3481  -15.1793 N   0  0  0  0  0  0  0  0  0  0  0  0
   21.8884   -6.1208  -15.4669 C   0  0  1  0  0  0  0  0  0  0  0  0
   21.3499   -5.6233  -14.1510 C   0  0  0  0  0  0  0  0  0  0  0  0
   20.6000   -4.3771  -14.3693 C   0  0  0  0  0  0  0  0  0  0  0  0
   21.1714   -3.2797  -14.1580 O   0  0  0  0  0  0  0  0  0  0  0  0
   22.7262   -5.1509  -16.1836 C   0  0  0  0  0  0  0  0  0  0  0  0
   23.9386   -4.9812  -15.9444 O   0  0  0  0  0  0  0  0  0  0  0  0
   19.2855   -4.4365  -14.8009 O   0  0  0  0  0  0  0  0  0  0  0  0
   22.1242   -4.3825  -17.1855 O   0  0  0  0  0  0  0  0  0  0  0  0
  2  1  1  1
  2  7  1  0
  3  2  1  0
  4  3  1  0
  5  6  2  0
  5  4  1  0
  7  8  2  0
  9  5  1  0
 10 11  1  0
 11 13  1  0
 12 11  2  0
 14 13  1  6
 15  7  1  0
 15 14  1  0
 16 14  1  0
 16 17  2  0
 18 16  1  0
 19 18  1  0
 19 20  1  1
 21 20  1  0
 21 25  1  0
 22 21  2  0
 23 26  1  0
 23 19  1  0
 24 23  2  0
M  END
$$$$
