END.pdb
     RDKit          3D

 26 25  0  0  1  0  0  0  0  0999 V2000
   13.5516  -10.6430  -15.9557 N   0  0  0  0  0  0  0  0  0  0  0  0
   14.4271  -10.2982  -14.8524 C   0  0  1  0  0  0  0  0  0  0  0  0
   15.4150  -11.4151  -14.5798 C   0  0  0  0  0  0  0  0  0  0  0  0
   15.1905  -12.6543  -15.3681 C   0  0  0  0  0  0  0  0  0  0  0  0
   16.1328  -13.7330  -15.1251 C   0  0  0  0  0  0  0  0  0  0  0  0
   16.6734  -14.3839  -16.0491 O   0  0  0  0  0  0  0  0  0  0  0  0
   15.2884   -9.1574  -15.3239 C   0  0  0  0  0  0  0  0  0  0  0  0
   15.7127   -9.2042  -16.4772 O   0  0  0  0  0  0  0  0  0  0  0  0
   16.4683  -14.0798  -13.8276 O   0  0  0  0  0  0  0  0  0  0  0  0
   14.3046   -4.5760  -16.3991 N   0  0  0  0  0  0  0  0  0  0  0  0
   14.4138   -5.4018  -15.2647 C   0  0  0  0  0  0  0  0  0  0  0  0
   13.3499   -6.0379  -14.9210 O   0  0  0  0  0  0  0  0  0  0  0  0
   15.6444   -5.5676  -14.4787 C   0  0  0  0  0  0  0  0  0  0  0  0
   16.3134   -6.9079  -14.6847 C   0  0  2  0  0  0  0  0  0  0  0  0
   15.5977   -8.0856  -14.4907 N   0  0  0  0  0  0  0  0  0  0  0  0
   17.7027   -6.8510  -14.2180 C   0  0  0  0  0  0  0  0  0  0  0  0
   17.9899   -6.9652  -12.9724 O   0  0  0  0  0  0  0  0  0  0  0  0
   18.8034   -6.6717  -15.0834 N   0  0  0  0  0  0  0  0  0  0  0  0
   20.1704   -6.7497  -14.5796 C   0  0  1  0  0  0  0  0  0  0  0  0
   20.8222   -7.9118  -15.2823 C   0  0  0  0  0  0  0  0  0  0  0  0
   22.2042   -8.0610  -14.8020 C   0  0  0  0  0  0  0  0  0  0  0  0
   22.5919   -7.3550  -13.8393 O   0  0  0  0  0  0  0  0  0  0  0  0
   20.8748   -5.4717  -14.7425 C   0  0  0  0  0  0  0  0  0  0  0  0
   20.5264   -4.5940  -15.5574 O   0  0  0  0  0  0  0  0  0  0  0  0
   23.0474   -8.9715  -15.4165 O   0  0  0  0  0  0  0  0  0  0  0  0
   21.9934   -5.2352  -13.9365 O   0  0  0  0  0  0  0  0  0  0  0  0
  2  1  1  6
  2  7  1  0
  3  2  1  0
  4  3  1  0
  5  6  2  0
  5  4  1  0
  7  8  2  0
  9  5  1  0
 10 11  1  0
 11 13  1  0
 12 11  2  0
 14 13  1  1
 15  7  1  0
 15 14  1  0
 16 14  1  0
 16 17  2  0
 18 16  1  0
 19 18  1  0
 19 20  1  6
 21 20  1  0
 21 25  1  0
 22 21  2  0
 23 26  1  0
 23 19  1  0
 24 23  2  0
M  END
$$$$
