END.pdb
     RDKit          3D

 26 25  0  0  1  0  0  0  0  0999 V2000
   16.3684  -12.1897  -16.0087 N   0  0  0  0  0  0  0  0  0  0  0  0
   17.5017  -12.9912  -15.5893 C   0  0  1  0  0  0  0  0  0  0  0  0
   17.4020  -14.3975  -16.1464 C   0  0  0  0  0  0  0  0  0  0  0  0
   16.1589  -15.1264  -15.7845 C   0  0  0  0  0  0  0  0  0  0  0  0
   16.0263  -15.4853  -14.3830 C   0  0  0  0  0  0  0  0  0  0  0  0
   14.9484  -15.3787  -13.7533 O   0  0  0  0  0  0  0  0  0  0  0  0
   18.7144  -12.4152  -16.2700 C   0  0  0  0  0  0  0  0  0  0  0  0
   19.3974  -13.1755  -16.9539 O   0  0  0  0  0  0  0  0  0  0  0  0
   17.1202  -15.9693  -13.6860 O   0  0  0  0  0  0  0  0  0  0  0  0
   21.6698   -8.9872  -19.8196 N   0  0  0  0  0  0  0  0  0  0  0  0
   21.5627   -9.6800  -18.5993 C   0  0  0  0  0  0  0  0  0  0  0  0
   22.5849   -9.6200  -17.8207 O   0  0  0  0  0  0  0  0  0  0  0  0
   20.3782  -10.4444  -18.1842 C   0  0  0  0  0  0  0  0  0  0  0  0
   20.0387  -10.2791  -16.7201 C   0  0  2  0  0  0  0  0  0  0  0  0
   19.0565  -11.0724  -16.1346 N   0  0  0  0  0  0  0  0  0  0  0  0
   20.1046   -8.8620  -16.3478 C   0  0  0  0  0  0  0  0  0  0  0  0
   19.1611   -8.0493  -16.6584 O   0  0  0  0  0  0  0  0  0  0  0  0
   21.1848   -8.2981  -15.6352 N   0  0  0  0  0  0  0  0  0  0  0  0
   21.1588   -6.8988  -15.2229 C   0  0  1  0  0  0  0  0  0  0  0  0
   22.0040   -6.8008  -13.9798 C   0  0  0  0  0  0  0  0  0  0  0  0
   21.9681   -5.4212  -13.4716 C   0  0  0  0  0  0  0  0  0  0  0  0
   20.9047   -4.7628  -13.5771 O   0  0  0  0  0  0  0  0  0  0  0  0
   21.5815   -6.0113  -16.3136 C   0  0  0  0  0  0  0  0  0  0  0  0
   22.3255   -6.3751  -17.2463 O   0  0  0  0  0  0  0  0  0  0  0  0
   23.1008   -4.8769  -12.8899 O   0  0  0  0  0  0  0  0  0  0  0  0
   21.1198   -4.6910  -16.2973 O   0  0  0  0  0  0  0  0  0  0  0  0
  2  1  1  6
  2  7  1  0
  3  2  1  0
  4  3  1  0
  5  6  2  0
  5  4  1  0
  7  8  2  0
  9  5  1  0
 10 11  1  0
 11 13  1  0
 12 11  2  0
 14 13  1  6
 15  7  1  0
 15 14  1  0
 16 14  1  0
 16 17  2  0
 18 16  1  0
 19 18  1  0
 19 20  1  1
 21 20  1  0
 21 25  1  0
 22 21  2  0
 23 26  1  0
 23 19  1  0
 24 23  2  0
M  END
$$$$
