END.pdb
     RDKit          3D

 26 25  0  0  1  0  0  0  0  0999 V2000
   26.6832  -20.0319  -15.7685 N   0  0  0  0  0  0  0  0  0  0  0  0
   26.5956  -21.4778  -15.8357 C   0  0  1  0  0  0  0  0  0  0  0  0
   27.8725  -22.1185  -15.3289 C   0  0  0  0  0  0  0  0  0  0  0  0
   29.0961  -21.7631  -16.0931 C   0  0  0  0  0  0  0  0  0  0  0  0
   29.4637  -22.6844  -17.1546 C   0  0  0  0  0  0  0  0  0  0  0  0
   29.2386  -23.9154  -17.0940 O   0  0  0  0  0  0  0  0  0  0  0  0
   25.5553  -21.8952  -14.8311 C   0  0  0  0  0  0  0  0  0  0  0  0
   25.3847  -23.1005  -14.6567 O   0  0  0  0  0  0  0  0  0  0  0  0
   30.0907  -22.2119  -18.2948 O   0  0  0  0  0  0  0  0  0  0  0  0
   25.6826  -22.1626  -11.3139 N   0  0  0  0  0  0  0  0  0  0  0  0
   24.9282  -21.0286  -10.9596 C   0  0  0  0  0  0  0  0  0  0  0  0
   25.1535  -20.5391   -9.7915 O   0  0  0  0  0  0  0  0  0  0  0  0
   23.9276  -20.3966  -11.8308 C   0  0  0  0  0  0  0  0  0  0  0  0
   23.7931  -21.0691  -13.1783 C   0  0  2  0  0  0  0  0  0  0  0  0
   24.8098  -20.9571  -14.1220 N   0  0  0  0  0  0  0  0  0  0  0  0
   22.4026  -20.9940  -13.6387 C   0  0  0  0  0  0  0  0  0  0  0  0
   21.9862  -19.9989  -14.3341 O   0  0  0  0  0  0  0  0  0  0  0  0
   21.4398  -21.9878  -13.3594 N   0  0  0  0  0  0  0  0  0  0  0  0
   20.0794  -21.8761  -13.8749 C   0  0  1  0  0  0  0  0  0  0  0  0
   19.4651  -23.2474  -13.7685 C   0  0  0  0  0  0  0  0  0  0  0  0
   18.1051  -23.2186  -14.3274 C   0  0  0  0  0  0  0  0  0  0  0  0
   17.9125  -22.6449  -15.4270 O   0  0  0  0  0  0  0  0  0  0  0  0
   19.3291  -20.8214  -13.1816 C   0  0  0  0  0  0  0  0  0  0  0  0
   19.3972  -20.6248  -11.9517 O   0  0  0  0  0  0  0  0  0  0  0  0
   17.0681  -23.8210  -13.6349 O   0  0  0  0  0  0  0  0  0  0  0  0
   18.4978  -19.9990  -13.9492 O   0  0  0  0  0  0  0  0  0  0  0  0
  2  1  1  1
  2  7  1  0
  3  2  1  0
  4  3  1  0
  5  6  2  0
  5  4  1  0
  7  8  2  0
  9  5  1  0
 10 11  1  0
 11 13  1  0
 12 11  2  0
 14 13  1  1
 15  7  1  0
 15 14  1  0
 16 14  1  0
 16 17  2  0
 18 16  1  0
 19 18  1  0
 19 20  1  1
 21 20  1  0
 21 25  1  0
 22 21  2  0
 23 26  1  0
 23 19  1  0
 24 23  2  0
M  END
$$$$
