END.pdb
     RDKit          3D

 26 25  0  0  1  0  0  0  0  0999 V2000
   16.1831  -10.9829  -15.9228 N   0  0  0  0  0  0  0  0  0  0  0  0
   17.4291  -10.8964  -16.6596 C   0  0  1  0  0  0  0  0  0  0  0  0
   17.1850  -10.4116  -18.0750 C   0  0  0  0  0  0  0  0  0  0  0  0
   15.7674  -10.1006  -18.3933 C   0  0  0  0  0  0  0  0  0  0  0  0
   15.5093   -9.6708  -19.7568 C   0  0  0  0  0  0  0  0  0  0  0  0
   15.6051  -10.4399  -20.7412 O   0  0  0  0  0  0  0  0  0  0  0  0
   18.2289   -9.7884  -16.0282 C   0  0  0  0  0  0  0  0  0  0  0  0
   17.6099   -8.8271  -15.5756 O   0  0  0  0  0  0  0  0  0  0  0  0
   15.1392   -8.3614  -20.0114 O   0  0  0  0  0  0  0  0  0  0  0  0
   22.4488   -7.0661  -14.3905 N   0  0  0  0  0  0  0  0  0  0  0  0
   22.8645   -8.3775  -14.6869 C   0  0  0  0  0  0  0  0  0  0  0  0
   24.0698   -8.6799  -14.3543 O   0  0  0  0  0  0  0  0  0  0  0  0
   22.0163   -9.3861  -15.3371 C   0  0  0  0  0  0  0  0  0  0  0  0
   20.5823   -8.9411  -15.5156 C   0  0  2  0  0  0  0  0  0  0  0  0
   19.6183   -9.8431  -15.9559 N   0  0  0  0  0  0  0  0  0  0  0  0
   20.5446   -7.5704  -16.0362 C   0  0  0  0  0  0  0  0  0  0  0  0
   20.4386   -7.3407  -17.2944 O   0  0  0  0  0  0  0  0  0  0  0  0
   20.6191   -6.4269  -15.2119 N   0  0  0  0  0  0  0  0  0  0  0  0
   20.3577   -5.0974  -15.7531 C   0  0  1  0  0  0  0  0  0  0  0  0
   18.9036   -5.0711  -16.1458 C   0  0  0  0  0  0  0  0  0  0  0  0
   18.5406   -3.7158  -16.5863 C   0  0  0  0  0  0  0  0  0  0  0  0
   18.9149   -3.3248  -17.7188 O   0  0  0  0  0  0  0  0  0  0  0  0
   20.7474   -4.0469  -14.8042 C   0  0  0  0  0  0  0  0  0  0  0  0
   21.0080   -2.8756  -15.1447 O   0  0  0  0  0  0  0  0  0  0  0  0
   17.7973   -2.9005  -15.7493 O   0  0  0  0  0  0  0  0  0  0  0  0
   20.8272   -4.3872  -13.4497 O   0  0  0  0  0  0  0  0  0  0  0  0
  2  1  1  1
  2  7  1  0
  3  2  1  0
  4  3  1  0
  5  6  2  0
  5  4  1  0
  7  8  2  0
  9  5  1  0
 10 11  1  0
 11 13  1  0
 12 11  2  0
 14 13  1  6
 15  7  1  0
 15 14  1  0
 16 14  1  0
 16 17  2  0
 18 16  1  0
 19 18  1  0
 19 20  1  1
 21 20  1  0
 21 25  1  0
 22 21  2  0
 23 26  1  0
 23 19  1  0
 24 23  2  0
M  END
$$$$
