SSI.pdb
     RDKit          3D

 21 20  0  0  1  0  0  0  0  0999 V2000
   10.1383  -14.9334   20.0992 O   0  0  0  0  0  0  0  0  0  0  0  0
    9.1271  -14.2489   19.4318 C   0  0  0  0  0  0  0  0  0  0  0  0
    7.8576  -15.0575   19.5763 C   0  0  2  0  0  0  0  0  0  0  0  0
    6.8337  -14.3854   18.7720 N   0  0  0  0  0  0  0  0  0  0  0  0
    7.3690  -15.1056   20.9647 C   0  0  0  0  0  0  0  0  0  0  0  0
    6.9218  -14.0674   21.5639 O   0  0  0  0  0  0  0  0  0  0  0  0
    7.7579  -18.4891   23.6253 O   0  0  0  0  0  0  0  0  0  0  0  0
    6.5884  -17.7840   23.4542 C   0  0  0  0  0  0  0  0  0  0  0  0
    6.8779  -16.3260   23.1236 C   0  0  2  0  0  0  0  0  0  0  0  0
    7.3528  -16.2965   21.7493 N   0  0  0  0  0  0  0  0  0  0  0  0
    7.8711  -15.7548   24.0610 C   0  0  0  0  0  0  0  0  0  0  0  0
    9.1070  -15.7333   23.8154 O   0  0  0  0  0  0  0  0  0  0  0  0
    6.0198  -11.5751   26.2857 C   0  0  0  0  0  0  0  0  0  0  0  0
    7.0136  -12.5784   25.8003 C   0  0  0  0  0  0  0  0  0  0  0  0
    7.4926  -13.5127   26.9198 C   0  0  2  0  0  0  0  0  0  0  0  0
    8.2416  -12.7017   27.9384 C   0  0  0  0  0  0  0  0  0  0  0  0
    8.3046  -14.5802   26.2614 C   0  0  2  0  0  0  0  0  0  0  0  0
    7.4259  -15.2147   25.2714 N   0  0  0  0  0  0  0  0  0  0  0  0
    8.8249  -15.6155   27.1410 C   0  0  0  0  0  0  0  0  0  0  0  0
    8.1535  -16.8026   27.3529 O   0  0  0  0  0  0  0  0  0  0  0  0
    9.9133  -15.4414   27.7318 O   0  0  0  0  0  0  0  0  0  0  0  0
  2  1  1  0
  3  4  1  6
  3  2  1  0
  5  3  1  0
  5  6  2  0
  7  8  1  0
  9  8  1  1
  9 10  1  0
  9 11  1  0
 10  5  1  0
 11 18  1  0
 11 12  2  0
 13 14  1  0
 14 15  1  0
 15 16  1  1
 17 15  1  0
 17 18  1  6
 19 20  1  0
 19 17  1  0
 21 19  2  0
M  END
$$$$
