SSI.pdb
     RDKit          3D

 21 20  0  0  1  0  0  0  0  0999 V2000
   12.3802  -18.4681   22.7540 O   0  0  0  0  0  0  0  0  0  0  0  0
   11.4513  -18.4956   21.7182 C   0  0  0  0  0  0  0  0  0  0  0  0
   11.6028  -17.2103   20.9363 C   0  0  2  0  0  0  0  0  0  0  0  0
   13.0138  -16.8251   21.0240 N   0  0  0  0  0  0  0  0  0  0  0  0
   10.8066  -16.1059   21.4977 C   0  0  0  0  0  0  0  0  0  0  0  0
   11.3185  -15.2233   22.2696 O   0  0  0  0  0  0  0  0  0  0  0  0
    6.6211  -16.1002   21.2433 O   0  0  0  0  0  0  0  0  0  0  0  0
    7.2677  -14.8860   21.2077 C   0  0  0  0  0  0  0  0  0  0  0  0
    8.5985  -14.9587   21.9444 C   0  0  2  0  0  0  0  0  0  0  0  0
    9.4165  -15.9282   21.2330 N   0  0  0  0  0  0  0  0  0  0  0  0
    8.4022  -15.3393   23.3615 C   0  0  0  0  0  0  0  0  0  0  0  0
    8.8535  -16.4103   23.8488 O   0  0  0  0  0  0  0  0  0  0  0  0
    7.0096  -11.1030   26.4835 C   0  0  0  0  0  0  0  0  0  0  0  0
    7.6565  -12.4024   26.1325 C   0  0  0  0  0  0  0  0  0  0  0  0
    6.6587  -13.5686   26.1320 C   0  0  2  0  0  0  0  0  0  0  0  0
    6.1108  -13.7362   27.5205 C   0  0  0  0  0  0  0  0  0  0  0  0
    7.3985  -14.7580   25.6119 C   0  0  2  0  0  0  0  0  0  0  0  0
    7.6870  -14.4788   24.1999 N   0  0  0  0  0  0  0  0  0  0  0  0
    6.6944  -16.0284   25.6920 C   0  0  0  0  0  0  0  0  0  0  0  0
    6.9334  -16.9362   26.7037 O   0  0  0  0  0  0  0  0  0  0  0  0
    5.8424  -16.3238   24.8256 O   0  0  0  0  0  0  0  0  0  0  0  0
  2  1  1  0
  3  4  1  1
  3  2  1  0
  5  3  1  0
  5  6  2  0
  7  8  1  0
  9  8  1  6
  9 10  1  0
  9 11  1  0
 10  5  1  0
 11 18  1  0
 11 12  2  0
 13 14  1  0
 14 15  1  0
 15 16  1  1
 17 15  1  0
 17 18  1  6
 19 20  1  0
 19 17  1  0
 21 19  2  0
M  END
$$$$
