SSI.pdb
     RDKit          3D

 21 20  0  0  1  0  0  0  0  0999 V2000
   10.7531  -13.0800   19.6809 O   0  0  0  0  0  0  0  0  0  0  0  0
   10.2636  -14.2384   19.0849 C   0  0  0  0  0  0  0  0  0  0  0  0
    8.7654  -14.0837   18.9512 C   0  0  2  0  0  0  0  0  0  0  0  0
    8.5216  -12.7210   18.4711 N   0  0  0  0  0  0  0  0  0  0  0  0
    8.0613  -14.2330   20.2360 C   0  0  0  0  0  0  0  0  0  0  0  0
    7.8124  -13.2332   20.9945 O   0  0  0  0  0  0  0  0  0  0  0  0
    7.4319  -17.9548   22.2485 O   0  0  0  0  0  0  0  0  0  0  0  0
    6.4089  -17.0471   22.0955 C   0  0  0  0  0  0  0  0  0  0  0  0
    6.9507  -15.6255   22.0302 C   0  0  2  0  0  0  0  0  0  0  0  0
    7.6033  -15.4870   20.7379 N   0  0  0  0  0  0  0  0  0  0  0  0
    7.8835  -15.3596   23.1485 C   0  0  0  0  0  0  0  0  0  0  0  0
    9.1308  -15.5082   23.0463 O   0  0  0  0  0  0  0  0  0  0  0  0
    5.9743  -11.5146   26.0072 C   0  0  0  0  0  0  0  0  0  0  0  0
    6.9252  -12.4719   25.3674 C   0  0  0  0  0  0  0  0  0  0  0  0
    7.3656  -13.5851   26.3278 C   0  0  2  0  0  0  0  0  0  0  0  0
    8.0894  -12.9638   27.4881 C   0  0  0  0  0  0  0  0  0  0  0  0
    8.1901  -14.5365   25.5230 C   0  0  2  0  0  0  0  0  0  0  0  0
    7.3655  -14.9248   24.3723 N   0  0  0  0  0  0  0  0  0  0  0  0
    8.6151  -15.7463   26.2099 C   0  0  0  0  0  0  0  0  0  0  0  0
    9.8488  -15.8477   26.8200 O   0  0  0  0  0  0  0  0  0  0  0  0
    7.8512  -16.7353   26.2591 O   0  0  0  0  0  0  0  0  0  0  0  0
  2  1  1  0
  3  4  1  1
  3  2  1  0
  5  3  1  0
  5  6  2  0
  7  8  1  0
  9  8  1  1
  9 10  1  0
  9 11  1  0
 10  5  1  0
 11 18  1  0
 11 12  2  0
 13 14  1  0
 14 15  1  0
 15 16  1  1
 17 15  1  0
 17 18  1  6
 19 20  1  0
 19 17  1  0
 21 19  2  0
M  END
$$$$
