SSI.pdb
     RDKit          3D

 21 20  0  0  1  0  0  0  0  0999 V2000
    9.4451  -12.6593   19.9527 O   0  0  0  0  0  0  0  0  0  0  0  0
    8.2815  -12.8288   19.2083 C   0  0  0  0  0  0  0  0  0  0  0  0
    7.9591  -14.3060   19.1973 C   0  0  2  0  0  0  0  0  0  0  0  0
    6.7715  -14.4739   18.3557 N   0  0  0  0  0  0  0  0  0  0  0  0
    7.6308  -14.8265   20.5352 C   0  0  0  0  0  0  0  0  0  0  0  0
    6.5058  -14.5927   21.0979 O   0  0  0  0  0  0  0  0  0  0  0  0
    8.4149  -18.1544   23.8894 O   0  0  0  0  0  0  0  0  0  0  0  0
    8.6654  -17.5871   22.6608 C   0  0  0  0  0  0  0  0  0  0  0  0
    8.1817  -16.1436   22.6216 C   0  0  2  0  0  0  0  0  0  0  0  0
    8.5259  -15.6242   21.3075 N   0  0  0  0  0  0  0  0  0  0  0  0
    8.7973  -15.3465   23.7065 C   0  0  0  0  0  0  0  0  0  0  0  0
    9.9791  -14.9126   23.6478 O   0  0  0  0  0  0  0  0  0  0  0  0
    5.8208  -11.7716   25.8764 C   0  0  0  0  0  0  0  0  0  0  0  0
    7.0246  -12.5686   25.4946 C   0  0  0  0  0  0  0  0  0  0  0  0
    7.4317  -13.5680   26.5859 C   0  0  2  0  0  0  0  0  0  0  0  0
    7.7625  -12.8075   27.8383 C   0  0  0  0  0  0  0  0  0  0  0  0
    8.5665  -14.3641   26.0284 C   0  0  2  0  0  0  0  0  0  0  0  0
    8.0412  -15.0590   24.8470 N   0  0  0  0  0  0  0  0  0  0  0  0
    9.1460  -15.3553   26.9218 C   0  0  0  0  0  0  0  0  0  0  0  0
    8.7065  -16.6632   26.9489 O   0  0  0  0  0  0  0  0  0  0  0  0
   10.0723  -15.0295   27.6962 O   0  0  0  0  0  0  0  0  0  0  0  0
  2  1  1  0
  3  4  1  6
  3  2  1  0
  5  3  1  0
  5  6  2  0
  7  8  1  0
  9  8  1  6
  9 10  1  0
  9 11  1  0
 10  5  1  0
 11 18  1  0
 11 12  2  0
 13 14  1  0
 14 15  1  0
 15 16  1  1
 17 15  1  0
 17 18  1  6
 19 20  1  0
 19 17  1  0
 21 19  2  0
M  END
$$$$
