SSI.pdb
     RDKit          3D

 21 20  0  0  1  0  0  0  0  0999 V2000
    9.8722  -12.8072   19.9871 O   0  0  0  0  0  0  0  0  0  0  0  0
    8.7393  -12.5568   19.2187 C   0  0  0  0  0  0  0  0  0  0  0  0
    7.9722  -13.8546   19.1019 C   0  0  2  0  0  0  0  0  0  0  0  0
    6.8031  -13.5813   18.2620 N   0  0  0  0  0  0  0  0  0  0  0  0
    7.4797  -14.3430   20.4010 C   0  0  0  0  0  0  0  0  0  0  0  0
    6.4410  -13.8503   20.9625 O   0  0  0  0  0  0  0  0  0  0  0  0
    7.3174  -17.9027   23.6142 O   0  0  0  0  0  0  0  0  0  0  0  0
    7.7582  -17.3711   22.4238 C   0  0  0  0  0  0  0  0  0  0  0  0
    7.6186  -15.8547   22.4225 C   0  0  2  0  0  0  0  0  0  0  0  0
    8.1093  -15.3918   21.1341 N   0  0  0  0  0  0  0  0  0  0  0  0
    8.3692  -15.2503   23.5462 C   0  0  0  0  0  0  0  0  0  0  0  0
    9.6019  -14.9956   23.4843 O   0  0  0  0  0  0  0  0  0  0  0  0
    5.6388  -11.6895   26.0569 C   0  0  0  0  0  0  0  0  0  0  0  0
    6.8302  -12.4572   25.5864 C   0  0  0  0  0  0  0  0  0  0  0  0
    7.2585  -13.5391   26.5872 C   0  0  2  0  0  0  0  0  0  0  0  0
    7.7016  -12.8730   27.8585 C   0  0  0  0  0  0  0  0  0  0  0  0
    8.3186  -14.3456   25.9103 C   0  0  2  0  0  0  0  0  0  0  0  0
    7.6878  -14.9465   24.7288 N   0  0  0  0  0  0  0  0  0  0  0  0
    8.9097  -15.4114   26.7046 C   0  0  0  0  0  0  0  0  0  0  0  0
    8.6085  -16.7406   26.4875 O   0  0  0  0  0  0  0  0  0  0  0  0
    9.7184  -15.1327   27.6169 O   0  0  0  0  0  0  0  0  0  0  0  0
  2  1  1  0
  3  4  1  6
  3  2  1  0
  5  3  1  0
  5  6  2  0
  7  8  1  0
  9  8  1  6
  9 10  1  0
  9 11  1  0
 10  5  1  0
 11 18  1  0
 11 12  2  0
 13 14  1  0
 14 15  1  0
 15 16  1  1
 17 15  1  0
 17 18  1  6
 19 20  1  0
 19 17  1  0
 21 19  2  0
M  END
$$$$
