SSI.pdb
     RDKit          3D

 21 20  0  0  1  0  0  0  0  0999 V2000
    7.2116  -16.2027   18.4130 O   0  0  0  0  0  0  0  0  0  0  0  0
    7.7167  -14.9147   18.2625 C   0  0  0  0  0  0  0  0  0  0  0  0
    8.7292  -14.6911   19.3630 C   0  0  2  0  0  0  0  0  0  0  0  0
    9.8285  -15.6299   19.1243 N   0  0  0  0  0  0  0  0  0  0  0  0
    8.1862  -14.9763   20.7019 C   0  0  0  0  0  0  0  0  0  0  0  0
    7.2204  -14.3017   21.2011 O   0  0  0  0  0  0  0  0  0  0  0  0
    9.5640  -18.1959   22.9919 O   0  0  0  0  0  0  0  0  0  0  0  0
    8.2505  -17.7942   23.0769 C   0  0  0  0  0  0  0  0  0  0  0  0
    8.1280  -16.2919   22.8599 C   0  0  2  0  0  0  0  0  0  0  0  0
    8.6831  -16.0139   21.5447 N   0  0  0  0  0  0  0  0  0  0  0  0
    8.8324  -15.5414   23.9239 C   0  0  0  0  0  0  0  0  0  0  0  0
   10.0456  -15.2114   23.8369 O   0  0  0  0  0  0  0  0  0  0  0  0
    5.9518  -11.8191   25.8342 C   0  0  0  0  0  0  0  0  0  0  0  0
    7.0915  -12.7161   25.4786 C   0  0  0  0  0  0  0  0  0  0  0  0
    7.5976  -13.5207   26.6837 C   0  0  2  0  0  0  0  0  0  0  0  0
    8.0117  -12.5631   27.7644 C   0  0  0  0  0  0  0  0  0  0  0  0
    8.6988  -14.3941   26.1768 C   0  0  2  0  0  0  0  0  0  0  0  0
    8.1279  -15.1802   25.0764 N   0  0  0  0  0  0  0  0  0  0  0  0
    9.2758  -15.3143   27.1445 C   0  0  0  0  0  0  0  0  0  0  0  0
   10.3678  -14.9753   27.9174 O   0  0  0  0  0  0  0  0  0  0  0  0
    8.7795  -16.4524   27.2942 O   0  0  0  0  0  0  0  0  0  0  0  0
  2  1  1  0
  3  4  1  6
  3  2  1  0
  5  3  1  0
  5  6  2  0
  7  8  1  0
  9  8  1  1
  9 10  1  0
  9 11  1  0
 10  5  1  0
 11 18  1  0
 11 12  2  0
 13 14  1  0
 14 15  1  0
 15 16  1  1
 17 15  1  0
 17 18  1  6
 19 20  1  0
 19 17  1  0
 21 19  2  0
M  END
$$$$
