SSI.pdb
     RDKit          3D

 21 20  0  0  1  0  0  0  0  0999 V2000
   10.5500  -13.2585   19.7199 O   0  0  0  0  0  0  0  0  0  0  0  0
   10.0558  -14.3928   19.0828 C   0  0  0  0  0  0  0  0  0  0  0  0
    8.5577  -14.2294   18.9590 C   0  0  2  0  0  0  0  0  0  0  0  0
    8.3207  -12.8826   18.4330 N   0  0  0  0  0  0  0  0  0  0  0  0
    7.8660  -14.3266   20.2554 C   0  0  0  0  0  0  0  0  0  0  0  0
    7.5127  -13.2896   20.9163 O   0  0  0  0  0  0  0  0  0  0  0  0
    7.5611  -17.9285   22.5720 O   0  0  0  0  0  0  0  0  0  0  0  0
    6.4863  -17.0886   22.3893 C   0  0  0  0  0  0  0  0  0  0  0  0
    6.9482  -15.6494   22.2045 C   0  0  2  0  0  0  0  0  0  0  0  0
    7.5354  -15.5671   20.8765 N   0  0  0  0  0  0  0  0  0  0  0  0
    7.9135  -15.2610   23.2576 C   0  0  0  0  0  0  0  0  0  0  0  0
    9.1585  -15.2317   23.0643 O   0  0  0  0  0  0  0  0  0  0  0  0
    5.7837  -12.3572   27.4651 C   0  0  0  0  0  0  0  0  0  0  0  0
    6.3431  -13.5089   26.6966 C   0  0  0  0  0  0  0  0  0  0  0  0
    7.7476  -13.2179   26.1507 C   0  0  2  0  0  0  0  0  0  0  0  0
    7.6467  -12.1436   25.1056 C   0  0  0  0  0  0  0  0  0  0  0  0
    8.2847  -14.5190   25.6495 C   0  0  2  0  0  0  0  0  0  0  0  0
    7.4302  -14.9105   24.5219 N   0  0  0  0  0  0  0  0  0  0  0  0
    8.3022  -15.6110   26.6105 C   0  0  0  0  0  0  0  0  0  0  0  0
    9.1459  -15.6125   27.7027 O   0  0  0  0  0  0  0  0  0  0  0  0
    7.5355  -16.5870   26.4578 O   0  0  0  0  0  0  0  0  0  0  0  0
  2  1  1  0
  3  4  1  1
  3  2  1  0
  5  3  1  0
  5  6  2  0
  7  8  1  0
  9  8  1  1
  9 10  1  0
  9 11  1  0
 10  5  1  0
 11 18  1  0
 11 12  2  0
 13 14  1  0
 14 15  1  0
 15 16  1  6
 17 15  1  0
 17 18  1  6
 19 20  1  0
 19 17  1  0
 21 19  2  0
M  END
$$$$
