SSI.pdb
     RDKit          3D

 21 20  0  0  1  0  0  0  0  0999 V2000
   11.1878  -16.7561   20.5286 O   0  0  0  0  0  0  0  0  0  0  0  0
   10.5646  -16.8914   19.2917 C   0  0  0  0  0  0  0  0  0  0  0  0
    9.3257  -17.7340   19.4957 C   0  0  2  0  0  0  0  0  0  0  0  0
    8.6461  -17.8085   18.1998 N   0  0  0  0  0  0  0  0  0  0  0  0
    8.3831  -17.1360   20.4563 C   0  0  0  0  0  0  0  0  0  0  0  0
    7.1410  -16.9884   20.1872 O   0  0  0  0  0  0  0  0  0  0  0  0
    7.6503  -18.4320   23.9629 O   0  0  0  0  0  0  0  0  0  0  0  0
    7.0056  -17.6272   23.0514 C   0  0  0  0  0  0  0  0  0  0  0  0
    7.8035  -16.3567   22.7904 C   0  0  2  0  0  0  0  0  0  0  0  0
    8.7684  -16.6765   21.7503 N   0  0  0  0  0  0  0  0  0  0  0  0
    8.4648  -15.8803   24.0263 C   0  0  0  0  0  0  0  0  0  0  0  0
    9.5313  -16.3864   24.4677 O   0  0  0  0  0  0  0  0  0  0  0  0
    5.8845  -11.7785   27.0188 C   0  0  0  0  0  0  0  0  0  0  0  0
    6.4699  -12.9899   26.3708 C   0  0  0  0  0  0  0  0  0  0  0  0
    7.9135  -12.7604   25.9032 C   0  0  2  0  0  0  0  0  0  0  0  0
    7.8862  -12.0160   24.5988 C   0  0  0  0  0  0  0  0  0  0  0  0
    8.5545  -14.1082   25.8322 C   0  0  2  0  0  0  0  0  0  0  0  0
    7.8873  -14.8246   24.7384 N   0  0  0  0  0  0  0  0  0  0  0  0
    8.4599  -14.9204   27.0353 C   0  0  0  0  0  0  0  0  0  0  0  0
    9.2666  -14.7004   28.1333 O   0  0  0  0  0  0  0  0  0  0  0  0
    7.6271  -15.8514   27.0941 O   0  0  0  0  0  0  0  0  0  0  0  0
  2  1  1  0
  3  4  1  6
  3  2  1  0
  5  3  1  0
  5  6  2  0
  7  8  1  0
  9  8  1  1
  9 10  1  0
  9 11  1  0
 10  5  1  0
 11 18  1  0
 11 12  2  0
 13 14  1  0
 14 15  1  0
 15 16  1  6
 17 15  1  0
 17 18  1  6
 19 20  1  0
 19 17  1  0
 21 19  2  0
M  END
$$$$
