SSI.pdb
     RDKit          3D

 21 20  0  0  1  0  0  0  0  0999 V2000
    9.5579  -19.3999   22.6335 O   0  0  0  0  0  0  0  0  0  0  0  0
   10.8636  -19.2942   22.1637 C   0  0  0  0  0  0  0  0  0  0  0  0
   10.9235  -18.0894   21.2520 C   0  0  2  0  0  0  0  0  0  0  0  0
   12.3197  -17.9453   20.8318 N   0  0  0  0  0  0  0  0  0  0  0  0
   10.5346  -16.8421   21.9316 C   0  0  0  0  0  0  0  0  0  0  0  0
   11.3271  -16.2245   22.7236 O   0  0  0  0  0  0  0  0  0  0  0  0
    6.7902  -14.9902   21.3127 O   0  0  0  0  0  0  0  0  0  0  0  0
    7.9243  -14.2543   21.5703 C   0  0  0  0  0  0  0  0  0  0  0  0
    8.8715  -15.0201   22.4842 C   0  0  2  0  0  0  0  0  0  0  0  0
    9.2596  -16.2246   21.7675 N   0  0  0  0  0  0  0  0  0  0  0  0
    8.2244  -15.3345   23.7780 C   0  0  0  0  0  0  0  0  0  0  0  0
    7.6266  -16.4225   23.9950 O   0  0  0  0  0  0  0  0  0  0  0  0
   10.5058  -13.3385   28.2124 C   0  0  0  0  0  0  0  0  0  0  0  0
    9.6711  -14.2213   27.3441 C   0  0  0  0  0  0  0  0  0  0  0  0
    8.2943  -13.6121   27.0462 C   0  0  2  0  0  0  0  0  0  0  0  0
    7.5702  -13.3965   28.3445 C   0  0  0  0  0  0  0  0  0  0  0  0
    7.6108  -14.5507   26.1059 C   0  0  2  0  0  0  0  0  0  0  0  0
    8.2750  -14.3890   24.8069 N   0  0  0  0  0  0  0  0  0  0  0  0
    6.1841  -14.3360   25.9197 C   0  0  0  0  0  0  0  0  0  0  0  0
    5.6930  -13.4309   25.0009 O   0  0  0  0  0  0  0  0  0  0  0  0
    5.3625  -14.9833   26.6052 O   0  0  0  0  0  0  0  0  0  0  0  0
  2  1  1  0
  3  4  1  1
  3  2  1  0
  5  3  1  0
  5  6  2  0
  7  8  1  0
  9  8  1  6
  9 10  1  0
  9 11  1  0
 10  5  1  0
 11 18  1  0
 11 12  2  0
 13 14  1  0
 14 15  1  0
 15 16  1  1
 17 15  1  0
 17 18  1  6
 19 20  1  0
 19 17  1  0
 21 19  2  0
M  END
$$$$
