SSI.pdb
     RDKit          3D

 21 20  0  0  1  0  0  0  0  0999 V2000
   11.5565  -16.9237   20.4954 O   0  0  0  0  0  0  0  0  0  0  0  0
   10.7004  -16.4698   19.4966 C   0  0  0  0  0  0  0  0  0  0  0  0
    9.3738  -17.1719   19.6799 C   0  0  2  0  0  0  0  0  0  0  0  0
    8.5994  -16.9396   18.4580 N   0  0  0  0  0  0  0  0  0  0  0  0
    8.5953  -16.6314   20.8070 C   0  0  0  0  0  0  0  0  0  0  0  0
    7.9846  -15.5095   20.7348 O   0  0  0  0  0  0  0  0  0  0  0  0
    7.8062  -18.8464   24.3414 O   0  0  0  0  0  0  0  0  0  0  0  0
    6.9097  -17.9921   23.7410 C   0  0  0  0  0  0  0  0  0  0  0  0
    7.6260  -16.7920   23.1364 C   0  0  2  0  0  0  0  0  0  0  0  0
    8.4575  -17.3025   22.0579 N   0  0  0  0  0  0  0  0  0  0  0  0
    8.4265  -16.0799   24.1580 C   0  0  0  0  0  0  0  0  0  0  0  0
    9.6813  -16.1737   24.2284 O   0  0  0  0  0  0  0  0  0  0  0  0
    5.7407  -11.8476   25.9517 C   0  0  0  0  0  0  0  0  0  0  0  0
    6.8801  -12.7190   25.5361 C   0  0  0  0  0  0  0  0  0  0  0  0
    7.4213  -13.5637   26.6976 C   0  0  2  0  0  0  0  0  0  0  0  0
    7.9376  -12.6422   27.7656 C   0  0  0  0  0  0  0  0  0  0  0  0
    8.4533  -14.4732   26.1143 C   0  0  2  0  0  0  0  0  0  0  0  0
    7.7691  -15.2673   25.0867 N   0  0  0  0  0  0  0  0  0  0  0  0
    9.0941  -15.3873   27.0471 C   0  0  0  0  0  0  0  0  0  0  0  0
   10.3093  -15.1014   27.6354 O   0  0  0  0  0  0  0  0  0  0  0  0
    8.5406  -16.4708   27.3364 O   0  0  0  0  0  0  0  0  0  0  0  0
  2  1  1  0
  3  4  1  6
  3  2  1  0
  5  3  1  0
  5  6  2  0
  7  8  1  0
  9  8  1  1
  9 10  1  0
  9 11  1  0
 10  5  1  0
 11 18  1  0
 11 12  2  0
 13 14  1  0
 14 15  1  0
 15 16  1  1
 17 15  1  0
 17 18  1  6
 19 20  1  0
 19 17  1  0
 21 19  2  0
M  END
$$$$
