SSI.pdb
     RDKit          3D

 21 20  0  0  1  0  0  0  0  0999 V2000
   10.7270  -13.0404   19.7852 O   0  0  0  0  0  0  0  0  0  0  0  0
   10.3878  -13.9833   18.8195 C   0  0  0  0  0  0  0  0  0  0  0  0
    8.8865  -14.1587   18.8618 C   0  0  2  0  0  0  0  0  0  0  0  0
    8.2987  -12.8522   18.5545 N   0  0  0  0  0  0  0  0  0  0  0  0
    8.3983  -14.5621   20.1913 C   0  0  0  0  0  0  0  0  0  0  0  0
    7.7781  -13.7510   20.9623 O   0  0  0  0  0  0  0  0  0  0  0  0
    7.8016  -18.2515   23.3393 O   0  0  0  0  0  0  0  0  0  0  0  0
    8.2954  -17.7717   22.1476 C   0  0  0  0  0  0  0  0  0  0  0  0
    8.0021  -16.2849   21.9987 C   0  0  2  0  0  0  0  0  0  0  0  0
    8.5726  -15.8728   20.7259 N   0  0  0  0  0  0  0  0  0  0  0  0
    8.5676  -15.5151   23.1297 C   0  0  0  0  0  0  0  0  0  0  0  0
    9.7681  -15.1329   23.1621 O   0  0  0  0  0  0  0  0  0  0  0  0
    6.5818  -11.3536   26.9825 C   0  0  0  0  0  0  0  0  0  0  0  0
    7.5186  -12.4918   26.7438 C   0  0  0  0  0  0  0  0  0  0  0  0
    7.0543  -13.3975   25.5951 C   0  0  2  0  0  0  0  0  0  0  0  0
    5.7438  -14.0258   25.9746 C   0  0  0  0  0  0  0  0  0  0  0  0
    8.1598  -14.3729   25.3521 C   0  0  2  0  0  0  0  0  0  0  0  0
    7.7403  -15.1951   24.2106 N   0  0  0  0  0  0  0  0  0  0  0  0
    8.4797  -15.2590   26.4605 C   0  0  0  0  0  0  0  0  0  0  0  0
    8.1545  -16.6001   26.4442 O   0  0  0  0  0  0  0  0  0  0  0  0
    9.0680  -14.8083   27.4679 O   0  0  0  0  0  0  0  0  0  0  0  0
  2  1  1  0
  3  4  1  1
  3  2  1  0
  5  3  1  0
  5  6  2  0
  7  8  1  0
  9  8  1  1
  9 10  1  0
  9 11  1  0
 10  5  1  0
 11 18  1  0
 11 12  2  0
 13 14  1  0
 14 15  1  0
 15 16  1  1
 17 15  1  0
 17 18  1  6
 19 20  1  0
 19 17  1  0
 21 19  2  0
M  END
$$$$
