SSI.pdb
     RDKit          3D

 21 20  0  0  1  0  0  0  0  0999 V2000
   10.3998  -17.4744   19.9359 O   0  0  0  0  0  0  0  0  0  0  0  0
    9.8880  -16.5361   19.0447 C   0  0  0  0  0  0  0  0  0  0  0  0
    8.3801  -16.5891   19.1436 C   0  0  2  0  0  0  0  0  0  0  0  0
    7.8570  -15.6549   18.1434 N   0  0  0  0  0  0  0  0  0  0  0  0
    7.8809  -16.1547   20.4591 C   0  0  0  0  0  0  0  0  0  0  0  0
    7.8312  -14.9206   20.7932 O   0  0  0  0  0  0  0  0  0  0  0  0
    6.8764  -18.8009   23.6421 O   0  0  0  0  0  0  0  0  0  0  0  0
    6.0139  -17.8059   23.2421 C   0  0  0  0  0  0  0  0  0  0  0  0
    6.7818  -16.6128   22.6893 C   0  0  2  0  0  0  0  0  0  0  0  0
    7.4168  -17.0592   21.4593 N   0  0  0  0  0  0  0  0  0  0  0  0
    7.7726  -16.1164   23.6708 C   0  0  0  0  0  0  0  0  0  0  0  0
    9.0056  -16.3597   23.5778 O   0  0  0  0  0  0  0  0  0  0  0  0
    6.0215  -11.7234   25.9463 C   0  0  0  0  0  0  0  0  0  0  0  0
    6.9691  -12.7465   25.4119 C   0  0  0  0  0  0  0  0  0  0  0  0
    7.4234  -13.7394   26.4903 C   0  0  2  0  0  0  0  0  0  0  0  0
    8.1907  -12.9916   27.5432 C   0  0  0  0  0  0  0  0  0  0  0  0
    8.2101  -14.7973   25.7870 C   0  0  2  0  0  0  0  0  0  0  0  0
    7.3284  -15.3445   24.7487 N   0  0  0  0  0  0  0  0  0  0  0  0
    8.6778  -15.8974   26.6159 C   0  0  0  0  0  0  0  0  0  0  0  0
    9.9664  -15.9481   27.1075 O   0  0  0  0  0  0  0  0  0  0  0  0
    7.9014  -16.8350   26.9021 O   0  0  0  0  0  0  0  0  0  0  0  0
  2  1  1  0
  3  4  1  6
  3  2  1  0
  5  3  1  0
  5  6  2  0
  7  8  1  0
  9  8  1  1
  9 10  1  0
  9 11  1  0
 10  5  1  0
 11 18  1  0
 11 12  2  0
 13 14  1  0
 14 15  1  0
 15 16  1  1
 17 15  1  0
 17 18  1  6
 19 20  1  0
 19 17  1  0
 21 19  2  0
M  END
$$$$
