IKM.pdb
     RDKit          3D

 26 25  0  0  1  0  0  0  0  0999 V2000
    7.6885  -12.1228   22.8224 C   0  0  0  0  0  0  0  0  0  0  0  0
    7.4497  -13.4066   22.1142 C   0  0  0  0  0  0  0  0  0  0  0  0
    8.1123  -13.4926   20.7528 C   0  0  2  0  0  0  0  0  0  0  0  0
    7.4831  -12.5898   19.7519 C   0  0  0  0  0  0  0  0  0  0  0  0
    7.8588  -14.9457   20.3119 C   0  0  2  0  0  0  0  0  0  0  0  0
    6.3929  -15.1052   20.2323 N   0  0  0  0  0  0  0  0  0  0  0  0
    8.3132  -15.9330   21.3008 C   0  0  0  0  0  0  0  0  0  0  0  0
    7.4439  -16.5945   21.9630 O   0  0  0  0  0  0  0  0  0  0  0  0
    9.6588  -16.2537   21.6186 N   0  0  0  0  0  0  0  0  0  0  0  0
   10.0109  -17.2990   22.5590 C   0  0  1  0  0  0  0  0  0  0  0  0
   11.1962  -18.1181   22.0914 C   0  0  0  0  0  0  0  0  0  0  0  0
   10.9767  -18.5487   20.6791 C   0  0  0  0  0  0  0  0  0  0  0  0
   11.2136  -20.0157   20.5482 C   0  0  0  0  0  0  0  0  0  0  0  0
   11.1432  -20.4628   19.1258 C   0  0  0  0  0  0  0  0  0  0  0  0
   11.3667  -21.9182   19.0689 N   0  0  0  0  0  0  0  0  0  0  0  0
   10.4076  -16.6612   23.8596 C   0  0  0  0  0  0  0  0  0  0  0  0
   11.0767  -17.3533   24.6609 O   0  0  0  0  0  0  0  0  0  0  0  0
    6.4239  -11.5069   26.0029 C   0  0  0  0  0  0  0  0  0  0  0  0
    7.3757  -12.5810   27.1082 S   0  0  0  0  0  0  0  0  0  0  0  0
    7.3265  -14.2920   26.5727 C   0  0  0  0  0  0  0  0  0  0  0  0
    8.0903  -14.5954   25.3470 C   0  0  0  0  0  0  0  0  0  0  0  0
    9.4661  -15.0923   25.5529 C   0  0  2  0  0  0  0  0  0  0  0  0
   10.0641  -15.3541   24.1985 N   0  0  0  0  0  0  0  0  0  0  0  0
    9.5776  -16.3116   26.3385 C   0  0  0  0  0  0  0  0  0  0  0  0
   10.1893  -16.2770   27.5998 O   0  0  0  0  0  0  0  0  0  0  0  0
    9.1593  -17.4087   25.9626 O   0  0  0  0  0  0  0  0  0  0  0  0
  2  3  1  0
  2  1  1  0
  3  4  1  6
  5  3  1  0
  5  6  1  1
  7  9  1  0
  7  5  1  0
  8  7  2  0
 10 11  1  6
 10  9  1  0
 11 12  1  0
 12 13  1  0
 13 14  1  0
 14 15  1  0
 16 10  1  0
 16 17  2  0
 19 20  1  0
 19 18  1  0
 20 21  1  0
 22 21  1  6
 22 24  1  0
 22 23  1  0
 23 16  1  0
 24 25  1  0
 26 24  2  0
M  END
$$$$
