IKM.pdb
     RDKit          3D

 26 25  0  0  1  0  0  0  0  0999 V2000
    5.3380  -11.6407   27.3018 C   0  0  0  0  0  0  0  0  0  0  0  0
    5.2761  -13.0323   26.7856 C   0  0  0  0  0  0  0  0  0  0  0  0
    6.4626  -13.4248   25.9264 C   0  0  2  0  0  0  0  0  0  0  0  0
    6.7445  -12.4345   24.8528 C   0  0  0  0  0  0  0  0  0  0  0  0
    6.0148  -14.7382   25.2597 C   0  0  2  0  0  0  0  0  0  0  0  0
    6.0230  -15.7656   26.3205 N   0  0  0  0  0  0  0  0  0  0  0  0
    6.9578  -15.2138   24.2381 C   0  0  0  0  0  0  0  0  0  0  0  0
    7.8890  -16.0192   24.5789 O   0  0  0  0  0  0  0  0  0  0  0  0
    6.9550  -14.8724   22.8604 N   0  0  0  0  0  0  0  0  0  0  0  0
    7.9509  -15.3682   21.9313 C   0  0  1  0  0  0  0  0  0  0  0  0
    7.8251  -14.7349   20.5610 C   0  0  0  0  0  0  0  0  0  0  0  0
    8.8684  -15.2994   19.6549 C   0  0  0  0  0  0  0  0  0  0  0  0
    8.7155  -14.7341   18.2829 C   0  0  0  0  0  0  0  0  0  0  0  0
    9.6474  -15.3791   17.3116 C   0  0  0  0  0  0  0  0  0  0  0  0
    9.3432  -14.8875   15.9562 N   0  0  0  0  0  0  0  0  0  0  0  0
    9.3136  -15.0120   22.4528 C   0  0  0  0  0  0  0  0  0  0  0  0
    9.5296  -13.8093   22.7278 O   0  0  0  0  0  0  0  0  0  0  0  0
   11.3843  -15.1911   29.1986 C   0  0  0  0  0  0  0  0  0  0  0  0
   10.3141  -15.3138   27.7422 S   0  0  0  0  0  0  0  0  0  0  0  0
   11.2176  -15.8891   26.3036 C   0  0  0  0  0  0  0  0  0  0  0  0
   10.4561  -15.9018   25.0395 C   0  0  0  0  0  0  0  0  0  0  0  0
   11.2585  -15.7907   23.8042 C   0  0  2  0  0  0  0  0  0  0  0  0
   10.3243  -15.9532   22.6373 N   0  0  0  0  0  0  0  0  0  0  0  0
   12.3277  -16.7672   23.6653 C   0  0  0  0  0  0  0  0  0  0  0  0
   13.5668  -16.5393   24.2811 O   0  0  0  0  0  0  0  0  0  0  0  0
   12.2192  -17.8146   23.0242 O   0  0  0  0  0  0  0  0  0  0  0  0
  2  3  1  0
  2  1  1  0
  3  4  1  6
  5  3  1  0
  5  6  1  1
  7  9  1  0
  7  5  1  0
  8  7  2  0
 10 11  1  6
 10  9  1  0
 11 12  1  0
 12 13  1  0
 13 14  1  0
 14 15  1  0
 16 10  1  0
 16 17  2  0
 19 20  1  0
 19 18  1  0
 20 21  1  0
 22 21  1  1
 22 24  1  0
 22 23  1  0
 23 16  1  0
 24 25  1  0
 26 24  2  0
M  END
$$$$
