IKM.pdb
     RDKit          3D

 26 25  0  0  1  0  0  0  0  0999 V2000
    5.8413  -11.0646   26.3695 C   0  0  0  0  0  0  0  0  0  0  0  0
    5.5630  -12.3272   25.6380 C   0  0  0  0  0  0  0  0  0  0  0  0
    6.7895  -13.1883   25.4051 C   0  0  2  0  0  0  0  0  0  0  0  0
    7.7226  -12.5978   24.4085 C   0  0  0  0  0  0  0  0  0  0  0  0
    6.2179  -14.4892   24.8126 C   0  0  2  0  0  0  0  0  0  0  0  0
    5.3713  -15.0871   25.8645 N   0  0  0  0  0  0  0  0  0  0  0  0
    7.2533  -15.4896   24.5189 C   0  0  0  0  0  0  0  0  0  0  0  0
    7.7920  -16.1282   25.4853 O   0  0  0  0  0  0  0  0  0  0  0  0
    7.7442  -15.8468   23.2360 N   0  0  0  0  0  0  0  0  0  0  0  0
    8.8270  -16.7922   23.0500 C   0  0  1  0  0  0  0  0  0  0  0  0
    9.2975  -16.8524   21.6114 C   0  0  0  0  0  0  0  0  0  0  0  0
   10.4660  -17.7755   21.5088 C   0  0  0  0  0  0  0  0  0  0  0  0
   10.2195  -18.7983   20.4512 C   0  0  0  0  0  0  0  0  0  0  0  0
   11.3693  -19.7400   20.3133 C   0  0  0  0  0  0  0  0  0  0  0  0
   11.0697  -20.7096   19.2449 N   0  0  0  0  0  0  0  0  0  0  0  0
   10.0007  -16.3463   23.8743 C   0  0  0  0  0  0  0  0  0  0  0  0
   10.4632  -15.2043   23.6487 O   0  0  0  0  0  0  0  0  0  0  0  0
   10.3925  -13.7058   28.6076 C   0  0  0  0  0  0  0  0  0  0  0  0
   11.2754  -15.0665   29.4140 S   0  0  0  0  0  0  0  0  0  0  0  0
   12.0163  -16.1767   28.2160 C   0  0  0  0  0  0  0  0  0  0  0  0
   11.1102  -16.6653   27.1585 C   0  0  0  0  0  0  0  0  0  0  0  0
   11.6053  -16.5286   25.7735 C   0  0  2  0  0  0  0  0  0  0  0  0
   10.5806  -17.1420   24.8602 N   0  0  0  0  0  0  0  0  0  0  0  0
   12.8867  -17.1624   25.5040 C   0  0  0  0  0  0  0  0  0  0  0  0
   12.9412  -18.3216   24.7168 O   0  0  0  0  0  0  0  0  0  0  0  0
   13.9628  -16.7400   25.9321 O   0  0  0  0  0  0  0  0  0  0  0  0
  2  3  1  0
  2  1  1  0
  3  4  1  6
  5  3  1  0
  5  6  1  1
  7  9  1  0
  7  5  1  0
  8  7  2  0
 10 11  1  6
 10  9  1  0
 11 12  1  0
 12 13  1  0
 13 14  1  0
 14 15  1  0
 16 10  1  0
 16 17  2  0
 19 20  1  0
 19 18  1  0
 20 21  1  0
 22 21  1  1
 22 24  1  0
 22 23  1  0
 23 16  1  0
 24 25  1  0
 26 24  2  0
M  END
$$$$
