IKM.pdb
     RDKit          3D

 26 25  0  0  1  0  0  0  0  0999 V2000
    7.3277  -11.6590   18.7959 C   0  0  0  0  0  0  0  0  0  0  0  0
    7.8383  -13.0494   18.6821 C   0  0  0  0  0  0  0  0  0  0  0  0
    7.8049  -13.8272   19.9837 C   0  0  2  0  0  0  0  0  0  0  0  0
    8.6597  -13.2172   21.0371 C   0  0  0  0  0  0  0  0  0  0  0  0
    8.4079  -15.1937   19.6106 C   0  0  2  0  0  0  0  0  0  0  0  0
    7.4469  -15.8336   18.6899 N   0  0  0  0  0  0  0  0  0  0  0  0
    8.5241  -16.1026   20.7592 C   0  0  0  0  0  0  0  0  0  0  0  0
    7.4664  -16.6317   21.2423 O   0  0  0  0  0  0  0  0  0  0  0  0
    9.7215  -16.4799   21.4212 N   0  0  0  0  0  0  0  0  0  0  0  0
    9.7287  -17.3152   22.6058 C   0  0  1  0  0  0  0  0  0  0  0  0
   10.7180  -18.4572   22.4984 C   0  0  0  0  0  0  0  0  0  0  0  0
   10.4004  -19.2782   21.2929 C   0  0  0  0  0  0  0  0  0  0  0  0
   11.3505  -20.4236   21.1885 C   0  0  0  0  0  0  0  0  0  0  0  0
   11.0932  -21.2465   19.9701 C   0  0  0  0  0  0  0  0  0  0  0  0
   12.0748  -22.3442   19.9167 N   0  0  0  0  0  0  0  0  0  0  0  0
   10.1528  -16.4798   23.7798 C   0  0  0  0  0  0  0  0  0  0  0  0
   10.7494  -15.4055   23.5376 O   0  0  0  0  0  0  0  0  0  0  0  0
    6.8164  -11.9447   27.6490 C   0  0  0  0  0  0  0  0  0  0  0  0
    7.9566  -12.9946   26.7115 S   0  0  0  0  0  0  0  0  0  0  0  0
    7.1517  -14.4858   26.1238 C   0  0  0  0  0  0  0  0  0  0  0  0
    8.0051  -15.4013   25.3418 C   0  0  0  0  0  0  0  0  0  0  0  0
    9.2346  -15.8671   26.0151 C   0  0  2  0  0  0  0  0  0  0  0  0
    9.9106  -16.8508   25.1008 N   0  0  0  0  0  0  0  0  0  0  0  0
    9.0338  -16.5129   27.3031 C   0  0  0  0  0  0  0  0  0  0  0  0
    8.7152  -17.8774   27.3587 O   0  0  0  0  0  0  0  0  0  0  0  0
    9.1264  -15.9276   28.3841 O   0  0  0  0  0  0  0  0  0  0  0  0
  2  3  1  0
  2  1  1  0
  3  4  1  1
  5  3  1  0
  5  6  1  6
  7  9  1  0
  7  5  1  0
  8  7  2  0
 10 11  1  6
 10  9  1  0
 11 12  1  0
 12 13  1  0
 13 14  1  0
 14 15  1  0
 16 10  1  0
 16 17  2  0
 19 20  1  0
 19 18  1  0
 20 21  1  0
 22 21  1  6
 22 24  1  0
 22 23  1  0
 23 16  1  0
 24 25  1  0
 26 24  2  0
M  END
$$$$
