IKM.pdb
     RDKit          3D

 26 25  0  0  1  0  0  0  0  0999 V2000
    7.0576  -20.5695   27.8939 C   0  0  0  0  0  0  0  0  0  0  0  0
    6.4669  -20.3154   26.5548 C   0  0  0  0  0  0  0  0  0  0  0  0
    7.1303  -19.1846   25.7925 C   0  0  2  0  0  0  0  0  0  0  0  0
    6.8626  -17.8522   26.3972 C   0  0  0  0  0  0  0  0  0  0  0  0
    6.4537  -19.2269   24.4103 C   0  0  2  0  0  0  0  0  0  0  0  0
    6.6800  -20.5862   23.8792 N   0  0  0  0  0  0  0  0  0  0  0  0
    7.0723  -18.3128   23.4403 C   0  0  0  0  0  0  0  0  0  0  0  0
    8.2146  -18.6072   22.9501 O   0  0  0  0  0  0  0  0  0  0  0  0
    6.5275  -17.0926   22.9619 N   0  0  0  0  0  0  0  0  0  0  0  0
    7.3173  -16.1151   22.2397 C   0  0  1  0  0  0  0  0  0  0  0  0
    6.4718  -15.2578   21.3207 C   0  0  0  0  0  0  0  0  0  0  0  0
    7.3506  -14.3013   20.5853 C   0  0  0  0  0  0  0  0  0  0  0  0
    6.8213  -14.0735   19.2093 C   0  0  0  0  0  0  0  0  0  0  0  0
    7.7023  -13.1621   18.4213 C   0  0  0  0  0  0  0  0  0  0  0  0
    7.0724  -12.8965   17.1158 N   0  0  0  0  0  0  0  0  0  0  0  0
    7.9592  -15.1884   23.2323 C   0  0  0  0  0  0  0  0  0  0  0  0
    7.2102  -14.3982   23.8514 O   0  0  0  0  0  0  0  0  0  0  0  0
    6.5742  -11.5947   26.7519 C   0  0  0  0  0  0  0  0  0  0  0  0
    7.5350  -12.8020   27.7009 S   0  0  0  0  0  0  0  0  0  0  0  0
    8.9632  -13.3802   26.7829 C   0  0  0  0  0  0  0  0  0  0  0  0
    8.6648  -14.0607   25.5078 C   0  0  0  0  0  0  0  0  0  0  0  0
    9.8365  -14.4495   24.6966 C   0  0  2  0  0  0  0  0  0  0  0  0
    9.3297  -15.1776   23.4828 N   0  0  0  0  0  0  0  0  0  0  0  0
   10.8019  -15.3071   25.3667 C   0  0  0  0  0  0  0  0  0  0  0  0
   10.8579  -16.6731   25.0550 O   0  0  0  0  0  0  0  0  0  0  0  0
   11.5998  -14.9060   26.2165 O   0  0  0  0  0  0  0  0  0  0  0  0
  2  3  1  0
  2  1  1  0
  3  4  1  1
  5  3  1  0
  5  6  1  6
  7  9  1  0
  7  5  1  0
  8  7  2  0
 10 11  1  6
 10  9  1  0
 11 12  1  0
 12 13  1  0
 13 14  1  0
 14 15  1  0
 16 10  1  0
 16 17  2  0
 19 20  1  0
 19 18  1  0
 20 21  1  0
 22 21  1  1
 22 24  1  0
 22 23  1  0
 23 16  1  0
 24 25  1  0
 26 24  2  0
M  END
$$$$
