IKM.pdb
     RDKit          3D

 26 25  0  0  1  0  0  0  0  0999 V2000
    7.1595  -11.8233   19.3390 C   0  0  0  0  0  0  0  0  0  0  0  0
    7.4227  -13.2846   19.2941 C   0  0  0  0  0  0  0  0  0  0  0  0
    7.6898  -13.9052   20.6519 C   0  0  2  0  0  0  0  0  0  0  0  0
    8.8871  -13.3278   21.3197 C   0  0  0  0  0  0  0  0  0  0  0  0
    7.9874  -15.3808   20.3292 C   0  0  2  0  0  0  0  0  0  0  0  0
    6.7494  -15.9356   19.7458 N   0  0  0  0  0  0  0  0  0  0  0  0
    8.2585  -16.1869   21.5275 C   0  0  0  0  0  0  0  0  0  0  0  0
    7.3063  -16.4238   22.3454 O   0  0  0  0  0  0  0  0  0  0  0  0
    9.5035  -16.7592   21.8977 N   0  0  0  0  0  0  0  0  0  0  0  0
    9.6885  -17.4931   23.1339 C   0  0  1  0  0  0  0  0  0  0  0  0
   10.8458  -18.4672   23.0569 C   0  0  0  0  0  0  0  0  0  0  0  0
   10.4999  -19.5770   22.1205 C   0  0  0  0  0  0  0  0  0  0  0  0
   10.1886  -20.8172   22.8888 C   0  0  0  0  0  0  0  0  0  0  0  0
    9.9230  -21.9756   21.9858 C   0  0  0  0  0  0  0  0  0  0  0  0
    9.5893  -23.1549   22.8039 N   0  0  0  0  0  0  0  0  0  0  0  0
   10.0125  -16.5166   24.2281 C   0  0  0  0  0  0  0  0  0  0  0  0
   10.7481  -15.5460   23.9356 O   0  0  0  0  0  0  0  0  0  0  0  0
    6.2538  -12.8487   27.2243 C   0  0  0  0  0  0  0  0  0  0  0  0
    7.8954  -12.2774   27.7341 S   0  0  0  0  0  0  0  0  0  0  0  0
    9.0933  -13.6122   27.7241 C   0  0  0  0  0  0  0  0  0  0  0  0
    8.9149  -14.6169   26.6579 C   0  0  0  0  0  0  0  0  0  0  0  0
    9.9665  -15.6501   26.5652 C   0  0  2  0  0  0  0  0  0  0  0  0
    9.5333  -16.6503   25.5296 N   0  0  0  0  0  0  0  0  0  0  0  0
   10.2442  -16.3695   27.7987 C   0  0  0  0  0  0  0  0  0  0  0  0
   10.8865  -15.7155   28.8599 O   0  0  0  0  0  0  0  0  0  0  0  0
    9.9457  -17.5512   27.9840 O   0  0  0  0  0  0  0  0  0  0  0  0
  2  3  1  0
  2  1  1  0
  3  4  1  6
  5  3  1  0
  5  6  1  1
  7  9  1  0
  7  5  1  0
  8  7  2  0
 10 11  1  6
 10  9  1  0
 11 12  1  0
 12 13  1  0
 13 14  1  0
 14 15  1  0
 16 10  1  0
 16 17  2  0
 19 20  1  0
 19 18  1  0
 20 21  1  0
 22 21  1  1
 22 24  1  0
 22 23  1  0
 23 16  1  0
 24 25  1  0
 26 24  2  0
M  END
$$$$
