IKM.pdb
     RDKit          3D

 26 25  0  0  1  0  0  0  0  0999 V2000
    6.6855  -13.0288   18.2018 C   0  0  0  0  0  0  0  0  0  0  0  0
    7.8356  -13.7651   18.7866 C   0  0  0  0  0  0  0  0  0  0  0  0
    8.6925  -12.9306   19.7188 C   0  0  2  0  0  0  0  0  0  0  0  0
    9.4173  -11.8423   19.0096 C   0  0  0  0  0  0  0  0  0  0  0  0
    9.7347  -13.9300   20.2529 C   0  0  2  0  0  0  0  0  0  0  0  0
   10.1962  -14.7105   19.0874 N   0  0  0  0  0  0  0  0  0  0  0  0
    9.1639  -14.9100   21.1872 C   0  0  0  0  0  0  0  0  0  0  0  0
    8.5342  -14.4927   22.2173 O   0  0  0  0  0  0  0  0  0  0  0  0
    9.2299  -16.3234   21.0749 N   0  0  0  0  0  0  0  0  0  0  0  0
    8.8217  -17.2114   22.1452 C   0  0  1  0  0  0  0  0  0  0  0  0
    9.4529  -18.5833   22.0267 C   0  0  0  0  0  0  0  0  0  0  0  0
    8.9474  -19.4594   23.1244 C   0  0  0  0  0  0  0  0  0  0  0  0
    9.3766  -20.8693   22.8933 C   0  0  0  0  0  0  0  0  0  0  0  0
   10.7980  -21.0877   23.2934 C   0  0  0  0  0  0  0  0  0  0  0  0
   11.1376  -22.5085   23.1004 N   0  0  0  0  0  0  0  0  0  0  0  0
    9.2816  -16.6313   23.4521 C   0  0  0  0  0  0  0  0  0  0  0  0
   10.4723  -16.2501   23.5266 O   0  0  0  0  0  0  0  0  0  0  0  0
    7.1927  -11.0360   26.3999 C   0  0  0  0  0  0  0  0  0  0  0  0
    6.8519  -12.5054   27.4028 S   0  0  0  0  0  0  0  0  0  0  0  0
    8.0846  -13.7826   27.1458 C   0  0  0  0  0  0  0  0  0  0  0  0
    7.8990  -14.6095   25.9376 C   0  0  0  0  0  0  0  0  0  0  0  0
    8.9080  -15.6662   25.7201 C   0  0  2  0  0  0  0  0  0  0  0  0
    8.4472  -16.5054   24.5608 N   0  0  0  0  0  0  0  0  0  0  0  0
    9.1396  -16.5496   26.8525 C   0  0  0  0  0  0  0  0  0  0  0  0
    8.9096  -17.9269   26.7230 O   0  0  0  0  0  0  0  0  0  0  0  0
    9.5362  -16.1617   27.9534 O   0  0  0  0  0  0  0  0  0  0  0  0
  2  3  1  0
  2  1  1  0
  3  4  1  6
  5  3  1  0
  5  6  1  6
  7  9  1  0
  7  5  1  0
  8  7  2  0
 10 11  1  6
 10  9  1  0
 11 12  1  0
 12 13  1  0
 13 14  1  0
 14 15  1  0
 16 10  1  0
 16 17  2  0
 19 20  1  0
 19 18  1  0
 20 21  1  0
 22 21  1  1
 22 24  1  0
 22 23  1  0
 23 16  1  0
 24 25  1  0
 26 24  2  0
M  END
$$$$
