IKM.pdb
     RDKit          3D

 26 25  0  0  1  0  0  0  0  0999 V2000
    7.9343  -12.3101   19.3560 C   0  0  0  0  0  0  0  0  0  0  0  0
    7.6642  -13.7375   19.6666 C   0  0  0  0  0  0  0  0  0  0  0  0
    7.4822  -14.0233   21.1448 C   0  0  2  0  0  0  0  0  0  0  0  0
    8.7156  -13.7626   21.9344 C   0  0  0  0  0  0  0  0  0  0  0  0
    7.1936  -15.5347   21.1939 C   0  0  2  0  0  0  0  0  0  0  0  0
    5.8897  -15.7299   20.5286 N   0  0  0  0  0  0  0  0  0  0  0  0
    7.0220  -16.0422   22.5622 C   0  0  0  0  0  0  0  0  0  0  0  0
    6.0689  -15.5850   23.2793 O   0  0  0  0  0  0  0  0  0  0  0  0
    7.8210  -17.0221   23.2070 N   0  0  0  0  0  0  0  0  0  0  0  0
    7.7056  -17.3159   24.6217 C   0  0  1  0  0  0  0  0  0  0  0  0
    7.9892  -18.7711   24.9320 C   0  0  0  0  0  0  0  0  0  0  0  0
    7.8091  -19.0118   26.3941 C   0  0  0  0  0  0  0  0  0  0  0  0
    8.1845  -20.4154   26.7323 C   0  0  0  0  0  0  0  0  0  0  0  0
    8.0654  -20.6827   28.1959 C   0  0  0  0  0  0  0  0  0  0  0  0
    8.3577  -22.1046   28.4490 N   0  0  0  0  0  0  0  0  0  0  0  0
    8.7272  -16.5043   25.3656 C   0  0  0  0  0  0  0  0  0  0  0  0
    9.8693  -16.4112   24.8599 O   0  0  0  0  0  0  0  0  0  0  0  0
    6.0293  -11.0465   25.8364 C   0  0  0  0  0  0  0  0  0  0  0  0
    6.9576  -11.8175   27.1873 S   0  0  0  0  0  0  0  0  0  0  0  0
    8.1142  -13.0459   26.5789 C   0  0  0  0  0  0  0  0  0  0  0  0
    8.9029  -13.7422   27.6138 C   0  0  0  0  0  0  0  0  0  0  0  0
    9.5256  -15.0161   27.1994 C   0  0  2  0  0  0  0  0  0  0  0  0
    8.4543  -15.8650   26.5731 N   0  0  0  0  0  0  0  0  0  0  0  0
   10.1429  -15.7852   28.2688 C   0  0  0  0  0  0  0  0  0  0  0  0
    9.6878  -17.0814   28.5501 O   0  0  0  0  0  0  0  0  0  0  0  0
   11.0673  -15.3655   28.9681 O   0  0  0  0  0  0  0  0  0  0  0  0
  2  3  1  0
  2  1  1  0
  3  4  1  1
  5  3  1  0
  5  6  1  6
  7  9  1  0
  7  5  1  0
  8  7  2  0
 10 11  1  6
 10  9  1  0
 11 12  1  0
 12 13  1  0
 13 14  1  0
 14 15  1  0
 16 10  1  0
 16 17  2  0
 19 20  1  0
 19 18  1  0
 20 21  1  0
 22 21  1  1
 22 24  1  0
 22 23  1  0
 23 16  1  0
 24 25  1  0
 26 24  2  0
M  END
$$$$
