PLD.pdb
     RDKit          3D

 24 24  0  0  1  0  0  0  0  0999 V2000
    7.3521  -14.7971   20.4882 N   0  0  0  0  0  0  0  0  0  0  0  0
    6.5820  -13.7923   19.8369 C   0  0  0  0  0  0  0  0  0  0  0  0
    7.6419  -12.8887   19.2017 C   0  0  0  0  0  0  0  0  0  0  0  0
    8.6775  -12.8586   20.3141 C   0  0  0  0  0  0  0  0  0  0  0  0
    8.5904  -14.2755   20.8866 C   0  0  1  0  0  0  0  0  0  0  0  0
    8.9709  -14.3359   22.2837 C   0  0  0  0  0  0  0  0  0  0  0  0
   10.2057  -14.2226   22.5585 O   0  0  0  0  0  0  0  0  0  0  0  0
    8.2691  -11.8079   25.9152 C   0  0  0  0  0  0  0  0  0  0  0  0
    7.0964  -12.6166   25.3401 C   0  0  2  0  0  0  0  0  0  0  0  0
    5.8796  -12.1643   26.1087 C   0  0  0  0  0  0  0  0  0  0  0  0
    7.3075  -14.0751   25.5235 C   0  0  0  0  0  0  0  0  0  0  0  0
    8.3687  -14.7105   24.7009 C   0  0  2  0  0  0  0  0  0  0  0  0
    8.0310  -14.5121   23.3103 N   0  0  0  0  0  0  0  0  0  0  0  0
    8.7572  -16.0674   25.0467 C   0  0  0  0  0  0  0  0  0  0  0  0
    8.0071  -17.0819   24.9306 O   0  0  0  0  0  0  0  0  0  0  0  0
   10.0638  -16.3500   25.5565 N   0  0  0  0  0  0  0  0  0  0  0  0
   10.5099  -17.7255   25.7685 C   0  0  1  0  0  0  0  0  0  0  0  0
   11.9317  -17.8800   25.2441 C   0  0  0  0  0  0  0  0  0  0  0  0
   12.5251  -19.1874   25.5040 C   0  0  0  0  0  0  0  0  0  0  0  0
   11.9222  -20.2756   25.1961 O   0  0  0  0  0  0  0  0  0  0  0  0
   10.5504  -17.9337   27.2337 C   0  0  0  0  0  0  0  0  0  0  0  0
   10.7303  -19.1884   27.8077 O   0  0  0  0  0  0  0  0  0  0  0  0
   13.7537  -19.3409   26.0913 O   0  0  0  0  0  0  0  0  0  0  0  0
   10.4203  -16.9606   28.0568 O   0  0  0  0  0  0  0  0  0  0  0  0
  1  5  1  0
  1  2  1  0
  2  3  1  0
  3  4  1  0
  5  4  1  0
  5  6  1  1
  6 13  1  0
  7  6  2  0
  9  8  1  1
  9 11  1  0
 10  9  1  0
 12 11  1  1
 12 13  1  0
 12 14  1  0
 14 15  2  0
 14 16  1  0
 16 17  1  0
 17 18  1  1
 17 21  1  0
 19 23  1  0
 19 18  1  0
 20 19  2  0
 21 22  1  0
 24 21  2  0
M  END
$$$$
