PLD.pdb
     RDKit          3D

 24 24  0  0  1  0  0  0  0  0999 V2000
    7.3158  -14.8874   20.7961 N   0  0  0  0  0  0  0  0  0  0  0  0
    6.5630  -13.9471   20.0372 C   0  0  0  0  0  0  0  0  0  0  0  0
    7.6386  -13.1260   19.3216 C   0  0  0  0  0  0  0  0  0  0  0  0
    8.6655  -12.9920   20.4345 C   0  0  0  0  0  0  0  0  0  0  0  0
    8.5569  -14.3410   21.1498 C   0  0  1  0  0  0  0  0  0  0  0  0
    8.9254  -14.2604   22.5491 C   0  0  0  0  0  0  0  0  0  0  0  0
   10.1338  -13.9787   22.8199 O   0  0  0  0  0  0  0  0  0  0  0  0
    7.5196  -11.5389   25.7839 C   0  0  0  0  0  0  0  0  0  0  0  0
    6.5772  -12.6753   25.3590 C   0  0  2  0  0  0  0  0  0  0  0  0
    5.2845  -12.4233   26.0949 C   0  0  0  0  0  0  0  0  0  0  0  0
    7.1311  -14.0016   25.7325 C   0  0  0  0  0  0  0  0  0  0  0  0
    8.3309  -14.4638   24.9886 C   0  0  2  0  0  0  0  0  0  0  0  0
    8.0018  -14.4809   23.5820 N   0  0  0  0  0  0  0  0  0  0  0  0
    8.9958  -15.6613   25.4741 C   0  0  0  0  0  0  0  0  0  0  0  0
    9.2886  -15.8794   26.6873 O   0  0  0  0  0  0  0  0  0  0  0  0
    9.3715  -16.7087   24.5748 N   0  0  0  0  0  0  0  0  0  0  0  0
   10.1006  -17.8838   25.0475 C   0  0  1  0  0  0  0  0  0  0  0  0
   10.0726  -18.9605   23.9702 C   0  0  0  0  0  0  0  0  0  0  0  0
   10.8136  -20.1692   24.3149 C   0  0  0  0  0  0  0  0  0  0  0  0
   12.0937  -20.2122   24.2698 O   0  0  0  0  0  0  0  0  0  0  0  0
   11.5095  -17.4634   25.2206 C   0  0  0  0  0  0  0  0  0  0  0  0
   12.1448  -16.5911   24.3423 O   0  0  0  0  0  0  0  0  0  0  0  0
   10.1989  -21.3304   24.7044 O   0  0  0  0  0  0  0  0  0  0  0  0
   12.2237  -17.8853   26.1971 O   0  0  0  0  0  0  0  0  0  0  0  0
  1  5  1  0
  1  2  1  0
  2  3  1  0
  3  4  1  0
  5  4  1  0
  5  6  1  1
  6 13  1  0
  7  6  2  0
  9  8  1  1
  9 11  1  0
 10  9  1  0
 12 11  1  1
 12 13  1  0
 12 14  1  0
 14 15  2  0
 14 16  1  0
 16 17  1  0
 17 18  1  6
 17 21  1  0
 19 23  1  0
 19 18  1  0
 20 19  2  0
 21 22  1  0
 24 21  2  0
M  END
$$$$
