PLD.pdb
     RDKit          3D

 24 24  0  0  1  0  0  0  0  0999 V2000
    7.3474  -15.0058   19.9222 N   0  0  0  0  0  0  0  0  0  0  0  0
    6.5686  -14.1087   19.1376 C   0  0  0  0  0  0  0  0  0  0  0  0
    7.6173  -13.2010   18.4900 C   0  0  0  0  0  0  0  0  0  0  0  0
    8.5739  -13.0133   19.6565 C   0  0  0  0  0  0  0  0  0  0  0  0
    8.5264  -14.3785   20.3472 C   0  0  1  0  0  0  0  0  0  0  0  0
    8.8163  -14.2957   21.7647 C   0  0  0  0  0  0  0  0  0  0  0  0
   10.0378  -14.2491   22.1096 O   0  0  0  0  0  0  0  0  0  0  0  0
    5.8429  -12.5015   26.8105 C   0  0  0  0  0  0  0  0  0  0  0  0
    7.1161  -13.1459   26.2414 C   0  0  2  0  0  0  0  0  0  0  0  0
    8.2083  -12.1245   26.4406 C   0  0  0  0  0  0  0  0  0  0  0  0
    6.9617  -13.4585   24.7978 C   0  0  0  0  0  0  0  0  0  0  0  0
    8.0430  -14.2540   24.1618 C   0  0  2  0  0  0  0  0  0  0  0  0
    7.8052  -14.2669   22.7368 N   0  0  0  0  0  0  0  0  0  0  0  0
    8.3449  -15.5517   24.7417 C   0  0  0  0  0  0  0  0  0  0  0  0
    7.5101  -16.4971   24.8627 O   0  0  0  0  0  0  0  0  0  0  0  0
    9.6568  -15.8521   25.2272 N   0  0  0  0  0  0  0  0  0  0  0  0
   10.0316  -17.2161   25.5943 C   0  0  1  0  0  0  0  0  0  0  0  0
   11.3737  -17.5574   24.9595 C   0  0  0  0  0  0  0  0  0  0  0  0
   11.9004  -18.8631   25.3426 C   0  0  0  0  0  0  0  0  0  0  0  0
   11.1344  -19.8762   25.5141 O   0  0  0  0  0  0  0  0  0  0  0  0
   10.2195  -17.2203   27.0628 C   0  0  0  0  0  0  0  0  0  0  0  0
   10.0966  -16.0710   27.8375 O   0  0  0  0  0  0  0  0  0  0  0  0
   13.2359  -19.0937   25.5457 O   0  0  0  0  0  0  0  0  0  0  0  0
   10.5080  -18.2922   27.7024 O   0  0  0  0  0  0  0  0  0  0  0  0
  1  5  1  0
  1  2  1  0
  2  3  1  0
  3  4  1  0
  5  4  1  0
  5  6  1  1
  6 13  1  0
  7  6  2  0
  9  8  1  6
  9 11  1  0
 10  9  1  0
 12 11  1  1
 12 13  1  0
 12 14  1  0
 14 15  2  0
 14 16  1  0
 16 17  1  0
 17 18  1  6
 17 21  1  0
 19 23  1  0
 19 18  1  0
 20 19  2  0
 21 22  1  0
 24 21  2  0
M  END
$$$$
