PLD.pdb
     RDKit          3D

 24 24  0  0  1  0  0  0  0  0999 V2000
    7.2851  -15.6091   21.2618 N   0  0  0  0  0  0  0  0  0  0  0  0
    6.3157  -14.7702   20.6424 C   0  0  0  0  0  0  0  0  0  0  0  0
    7.1586  -13.8420   19.7644 C   0  0  0  0  0  0  0  0  0  0  0  0
    8.3322  -13.5779   20.6938 C   0  0  0  0  0  0  0  0  0  0  0  0
    8.4970  -14.9209   21.4095 C   0  0  1  0  0  0  0  0  0  0  0  0
    9.0785  -14.7808   22.7296 C   0  0  0  0  0  0  0  0  0  0  0  0
   10.2857  -14.3923   22.7980 O   0  0  0  0  0  0  0  0  0  0  0  0
    7.9588  -11.9102   25.8133 C   0  0  0  0  0  0  0  0  0  0  0  0
    7.0582  -13.1434   25.6457 C   0  0  2  0  0  0  0  0  0  0  0  0
    5.8516  -12.8822   26.5127 C   0  0  0  0  0  0  0  0  0  0  0  0
    7.7514  -14.3800   26.0884 C   0  0  0  0  0  0  0  0  0  0  0  0
    8.8679  -14.8671   25.2383 C   0  0  2  0  0  0  0  0  0  0  0  0
    8.3569  -15.0573   23.9005 N   0  0  0  0  0  0  0  0  0  0  0  0
    9.6630  -15.9704   25.7503 C   0  0  0  0  0  0  0  0  0  0  0  0
   10.0504  -16.0809   26.9515 O   0  0  0  0  0  0  0  0  0  0  0  0
   10.0694  -17.0422   24.8941 N   0  0  0  0  0  0  0  0  0  0  0  0
   10.9261  -18.1186   25.3873 C   0  0  1  0  0  0  0  0  0  0  0  0
   10.7521  -19.3461   24.5022 C   0  0  0  0  0  0  0  0  0  0  0  0
    9.4244  -19.9475   24.5700 C   0  0  0  0  0  0  0  0  0  0  0  0
    8.8677  -20.4725   23.5419 O   0  0  0  0  0  0  0  0  0  0  0  0
   12.3221  -17.6509   25.2308 C   0  0  0  0  0  0  0  0  0  0  0  0
   13.4063  -18.3325   25.7745 O   0  0  0  0  0  0  0  0  0  0  0  0
    8.6876  -19.9902   25.7247 O   0  0  0  0  0  0  0  0  0  0  0  0
   12.6066  -16.5841   24.5809 O   0  0  0  0  0  0  0  0  0  0  0  0
  1  5  1  0
  1  2  1  0
  2  3  1  0
  3  4  1  0
  5  4  1  0
  5  6  1  1
  6 13  1  0
  7  6  2  0
  9  8  1  1
  9 11  1  0
 10  9  1  0
 12 11  1  1
 12 13  1  0
 12 14  1  0
 14 15  2  0
 14 16  1  0
 16 17  1  0
 17 18  1  6
 17 21  1  0
 19 23  1  0
 19 18  1  0
 20 19  2  0
 21 22  1  0
 24 21  2  0
M  END
$$$$
