PLD.pdb
     RDKit          3D

 24 24  0  0  1  0  0  0  0  0999 V2000
    7.3170  -15.4862   21.0890 N   0  0  0  0  0  0  0  0  0  0  0  0
    6.4020  -14.7259   20.3069 C   0  0  0  0  0  0  0  0  0  0  0  0
    7.3132  -13.9200   19.3778 C   0  0  0  0  0  0  0  0  0  0  0  0
    8.4274  -13.5484   20.3429 C   0  0  0  0  0  0  0  0  0  0  0  0
    8.5263  -14.7920   21.2299 C   0  0  1  0  0  0  0  0  0  0  0  0
    9.0226  -14.4908   22.5578 C   0  0  0  0  0  0  0  0  0  0  0  0
   10.2153  -14.0650   22.6531 O   0  0  0  0  0  0  0  0  0  0  0  0
    7.8257  -11.3711   25.5588 C   0  0  0  0  0  0  0  0  0  0  0  0
    6.8858  -12.5639   25.3268 C   0  0  2  0  0  0  0  0  0  0  0  0
    5.6399  -12.2554   26.1196 C   0  0  0  0  0  0  0  0  0  0  0  0
    7.4971  -13.8310   25.8025 C   0  0  0  0  0  0  0  0  0  0  0  0
    8.6724  -14.3364   25.0476 C   0  0  2  0  0  0  0  0  0  0  0  0
    8.2359  -14.6551   23.7077 N   0  0  0  0  0  0  0  0  0  0  0  0
    9.4837  -15.3601   25.6845 C   0  0  0  0  0  0  0  0  0  0  0  0
    9.8946  -15.3101   26.8820 O   0  0  0  0  0  0  0  0  0  0  0  0
    9.8798  -16.5340   24.9691 N   0  0  0  0  0  0  0  0  0  0  0  0
   10.7627  -17.5268   25.5780 C   0  0  1  0  0  0  0  0  0  0  0  0
   10.0676  -18.8823   25.5840 C   0  0  0  0  0  0  0  0  0  0  0  0
    9.6098  -19.3126   26.9009 C   0  0  0  0  0  0  0  0  0  0  0  0
    9.7830  -18.5901   27.9451 O   0  0  0  0  0  0  0  0  0  0  0  0
   11.9455  -17.6366   24.6944 C   0  0  0  0  0  0  0  0  0  0  0  0
   13.0910  -18.3372   25.0590 O   0  0  0  0  0  0  0  0  0  0  0  0
    8.9721  -20.5073   27.1107 O   0  0  0  0  0  0  0  0  0  0  0  0
   11.9761  -17.0867   23.5376 O   0  0  0  0  0  0  0  0  0  0  0  0
  1  5  1  0
  1  2  1  0
  2  3  1  0
  3  4  1  0
  5  4  1  0
  5  6  1  1
  6 13  1  0
  7  6  2  0
  9  8  1  1
  9 11  1  0
 10  9  1  0
 12 11  1  1
 12 13  1  0
 12 14  1  0
 14 15  2  0
 14 16  1  0
 16 17  1  0
 17 18  1  6
 17 21  1  0
 19 23  1  0
 19 18  1  0
 20 19  2  0
 21 22  1  0
 24 21  2  0
M  END
$$$$
