PLD.pdb
     RDKit          3D

 24 24  0  0  1  0  0  0  0  0999 V2000
    7.0761  -14.9643   20.8744 N   0  0  0  0  0  0  0  0  0  0  0  0
    6.3117  -13.9126   20.2942 C   0  0  0  0  0  0  0  0  0  0  0  0
    7.3683  -13.0410   19.6109 C   0  0  0  0  0  0  0  0  0  0  0  0
    8.4723  -13.0808   20.6552 C   0  0  0  0  0  0  0  0  0  0  0  0
    8.3589  -14.5056   21.2033 C   0  0  1  0  0  0  0  0  0  0  0  0
    8.8236  -14.6144   22.5717 C   0  0  0  0  0  0  0  0  0  0  0  0
   10.0636  -14.4391   22.7833 O   0  0  0  0  0  0  0  0  0  0  0  0
    8.2749  -12.0248   26.1062 C   0  0  0  0  0  0  0  0  0  0  0  0
    7.1233  -12.8942   25.5791 C   0  0  2  0  0  0  0  0  0  0  0  0
    5.8920  -12.4184   26.3095 C   0  0  0  0  0  0  0  0  0  0  0  0
    7.3635  -14.3327   25.8594 C   0  0  0  0  0  0  0  0  0  0  0  0
    8.3724  -15.0237   25.0160 C   0  0  2  0  0  0  0  0  0  0  0  0
    7.9576  -14.9012   23.6375 N   0  0  0  0  0  0  0  0  0  0  0  0
    8.7715  -16.3623   25.4163 C   0  0  0  0  0  0  0  0  0  0  0  0
    8.0254  -17.3844   25.3528 O   0  0  0  0  0  0  0  0  0  0  0  0
   10.0850  -16.6164   25.9234 N   0  0  0  0  0  0  0  0  0  0  0  0
   10.5039  -17.9676   26.2905 C   0  0  1  0  0  0  0  0  0  0  0  0
   11.9935  -18.1255   26.0136 C   0  0  0  0  0  0  0  0  0  0  0  0
   12.3282  -18.2439   24.5983 C   0  0  0  0  0  0  0  0  0  0  0  0
   11.4240  -18.2678   23.6904 O   0  0  0  0  0  0  0  0  0  0  0  0
   10.3076  -18.0864   27.7531 C   0  0  0  0  0  0  0  0  0  0  0  0
   10.4103  -19.2994   28.4270 O   0  0  0  0  0  0  0  0  0  0  0  0
   13.6186  -18.3391   24.1468 O   0  0  0  0  0  0  0  0  0  0  0  0
   10.0301  -17.0692   28.4808 O   0  0  0  0  0  0  0  0  0  0  0  0
  1  5  1  0
  1  2  1  0
  2  3  1  0
  3  4  1  0
  5  4  1  0
  5  6  1  1
  6 13  1  0
  7  6  2  0
  9  8  1  1
  9 11  1  0
 10  9  1  0
 12 11  1  1
 12 13  1  0
 12 14  1  0
 14 15  2  0
 14 16  1  0
 16 17  1  0
 17 18  1  1
 17 21  1  0
 19 23  1  0
 19 18  1  0
 20 19  2  0
 21 22  1  0
 24 21  2  0
M  END
$$$$
