PLD.pdb
     RDKit          3D

 24 24  0  0  1  0  0  0  0  0999 V2000
    7.4971  -15.1890   21.0937 N   0  0  0  0  0  0  0  0  0  0  0  0
    6.5827  -14.4071   20.3326 C   0  0  0  0  0  0  0  0  0  0  0  0
    7.4908  -13.4317   19.5795 C   0  0  0  0  0  0  0  0  0  0  0  0
    8.4988  -13.1008   20.6682 C   0  0  0  0  0  0  0  0  0  0  0  0
    8.6332  -14.4323   21.4113 C   0  0  1  0  0  0  0  0  0  0  0  0
    9.0065  -14.2592   22.8009 C   0  0  0  0  0  0  0  0  0  0  0  0
   10.1816  -13.8428   23.0428 O   0  0  0  0  0  0  0  0  0  0  0  0
    7.8924  -11.5851   26.2543 C   0  0  0  0  0  0  0  0  0  0  0  0
    6.8688  -12.6069   25.7364 C   0  0  2  0  0  0  0  0  0  0  0  0
    5.5892  -12.3063   26.4769 C   0  0  0  0  0  0  0  0  0  0  0  0
    7.3091  -13.9977   26.0144 C   0  0  0  0  0  0  0  0  0  0  0  0
    8.4830  -14.4971   25.2535 C   0  0  2  0  0  0  0  0  0  0  0  0
    8.1224  -14.5342   23.8550 N   0  0  0  0  0  0  0  0  0  0  0  0
    9.1356  -15.6979   25.7473 C   0  0  0  0  0  0  0  0  0  0  0  0
    9.3812  -15.9327   26.9678 O   0  0  0  0  0  0  0  0  0  0  0  0
    9.5535  -16.7294   24.8482 N   0  0  0  0  0  0  0  0  0  0  0  0
   10.1587  -17.9636   25.3447 C   0  0  1  0  0  0  0  0  0  0  0  0
   10.0410  -19.0459   24.2792 C   0  0  0  0  0  0  0  0  0  0  0  0
   10.6067  -20.3327   24.6704 C   0  0  0  0  0  0  0  0  0  0  0  0
   11.3566  -21.0085   23.8809 O   0  0  0  0  0  0  0  0  0  0  0  0
   11.5993  -17.6795   25.5339 C   0  0  0  0  0  0  0  0  0  0  0  0
   12.2402  -16.6111   24.9145 O   0  0  0  0  0  0  0  0  0  0  0  0
   10.3760  -20.9029   25.8950 O   0  0  0  0  0  0  0  0  0  0  0  0
   12.3374  -18.4097   26.2845 O   0  0  0  0  0  0  0  0  0  0  0  0
  1  5  1  0
  1  2  1  0
  2  3  1  0
  3  4  1  0
  5  4  1  0
  5  6  1  1
  6 13  1  0
  7  6  2  0
  9  8  1  1
  9 11  1  0
 10  9  1  0
 12 11  1  1
 12 13  1  0
 12 14  1  0
 14 15  2  0
 14 16  1  0
 16 17  1  0
 17 18  1  6
 17 21  1  0
 19 23  1  0
 19 18  1  0
 20 19  2  0
 21 22  1  0
 24 21  2  0
M  END
$$$$
