PLD.pdb
     RDKit          3D

 24 24  0  0  1  0  0  0  0  0999 V2000
    7.1206  -15.4741   21.3896 N   0  0  0  0  0  0  0  0  0  0  0  0
    6.3952  -14.5972   20.5341 C   0  0  0  0  0  0  0  0  0  0  0  0
    7.4292  -14.1938   19.4800 C   0  0  0  0  0  0  0  0  0  0  0  0
    8.6598  -14.0225   20.3560 C   0  0  0  0  0  0  0  0  0  0  0  0
    8.4777  -15.1245   21.4026 C   0  0  1  0  0  0  0  0  0  0  0  0
    9.1177  -14.8063   22.6633 C   0  0  0  0  0  0  0  0  0  0  0  0
   10.3834  -14.7010   22.6659 O   0  0  0  0  0  0  0  0  0  0  0  0
    6.2958  -11.5962   25.5608 C   0  0  0  0  0  0  0  0  0  0  0  0
    6.8380  -13.0318   25.6331 C   0  0  2  0  0  0  0  0  0  0  0  0
    6.3211  -13.5928   26.9346 C   0  0  0  0  0  0  0  0  0  0  0  0
    8.3230  -13.0473   25.6203 C   0  0  0  0  0  0  0  0  0  0  0  0
    8.9791  -14.2839   25.1238 C   0  0  2  0  0  0  0  0  0  0  0  0
    8.3897  -14.6175   23.8477 N   0  0  0  0  0  0  0  0  0  0  0  0
    9.0943  -15.3961   26.0519 C   0  0  0  0  0  0  0  0  0  0  0  0
    9.4595  -15.2892   27.2604 O   0  0  0  0  0  0  0  0  0  0  0  0
    8.7865  -16.7313   25.6403 N   0  0  0  0  0  0  0  0  0  0  0  0
    9.0193  -17.8676   26.5293 C   0  0  1  0  0  0  0  0  0  0  0  0
    7.8521  -18.8403   26.4192 C   0  0  0  0  0  0  0  0  0  0  0  0
    7.8459  -19.8832   27.4395 C   0  0  0  0  0  0  0  0  0  0  0  0
    6.9382  -20.7873   27.4753 O   0  0  0  0  0  0  0  0  0  0  0  0
   10.2254  -18.5597   26.0210 C   0  0  0  0  0  0  0  0  0  0  0  0
   11.0783  -19.2840   26.8479 O   0  0  0  0  0  0  0  0  0  0  0  0
    8.7984  -19.9662   28.4213 O   0  0  0  0  0  0  0  0  0  0  0  0
   10.5494  -18.5268   24.7819 O   0  0  0  0  0  0  0  0  0  0  0  0
  1  5  1  0
  1  2  1  0
  2  3  1  0
  3  4  1  0
  5  4  1  0
  5  6  1  1
  6 13  1  0
  7  6  2  0
  9  8  1  1
  9 11  1  0
 10  9  1  0
 12 11  1  1
 12 13  1  0
 12 14  1  0
 14 15  2  0
 14 16  1  0
 16 17  1  0
 17 18  1  6
 17 21  1  0
 19 23  1  0
 19 18  1  0
 20 19  2  0
 21 22  1  0
 24 21  2  0
M  END
$$$$
