PLD.pdb
     RDKit          3D

 24 24  0  0  1  0  0  0  0  0999 V2000
    7.2782  -14.9985   20.7939 N   0  0  0  0  0  0  0  0  0  0  0  0
    6.4126  -14.1180   20.0850 C   0  0  0  0  0  0  0  0  0  0  0  0
    7.3787  -13.1772   19.3608 C   0  0  0  0  0  0  0  0  0  0  0  0
    8.4237  -12.9709   20.4454 C   0  0  0  0  0  0  0  0  0  0  0  0
    8.4710  -14.3415   21.1252 C   0  0  1  0  0  0  0  0  0  0  0  0
    8.8756  -14.2604   22.5144 C   0  0  0  0  0  0  0  0  0  0  0  0
   10.0894  -13.9732   22.7536 O   0  0  0  0  0  0  0  0  0  0  0  0
    7.7990  -11.5498   26.0693 C   0  0  0  0  0  0  0  0  0  0  0  0
    6.7511  -12.5185   25.5005 C   0  0  2  0  0  0  0  0  0  0  0  0
    5.4750  -12.2148   26.2457 C   0  0  0  0  0  0  0  0  0  0  0  0
    7.1503  -13.9321   25.7195 C   0  0  0  0  0  0  0  0  0  0  0  0
    8.3359  -14.4208   24.9698 C   0  0  2  0  0  0  0  0  0  0  0  0
    7.9806  -14.4861   23.5709 N   0  0  0  0  0  0  0  0  0  0  0  0
    9.0094  -15.6013   25.4838 C   0  0  0  0  0  0  0  0  0  0  0  0
    9.2499  -15.8156   26.7092 O   0  0  0  0  0  0  0  0  0  0  0  0
    9.4562  -16.6349   24.6012 N   0  0  0  0  0  0  0  0  0  0  0  0
   10.1080  -17.8373   25.1161 C   0  0  1  0  0  0  0  0  0  0  0  0
    9.8768  -18.9895   24.1468 C   0  0  0  0  0  0  0  0  0  0  0  0
   10.5503  -20.2286   24.5208 C   0  0  0  0  0  0  0  0  0  0  0  0
   11.2083  -20.3355   25.6155 O   0  0  0  0  0  0  0  0  0  0  0  0
   11.5611  -17.5541   25.1329 C   0  0  0  0  0  0  0  0  0  0  0  0
   12.1497  -16.6068   24.3010 O   0  0  0  0  0  0  0  0  0  0  0  0
   10.5285  -21.3511   23.7351 O   0  0  0  0  0  0  0  0  0  0  0  0
   12.3593  -18.1726   25.9214 O   0  0  0  0  0  0  0  0  0  0  0  0
  1  5  1  0
  1  2  1  0
  2  3  1  0
  3  4  1  0
  5  4  1  0
  5  6  1  1
  6 13  1  0
  7  6  2  0
  9  8  1  1
  9 11  1  0
 10  9  1  0
 12 11  1  1
 12 13  1  0
 12 14  1  0
 14 15  2  0
 14 16  1  0
 16 17  1  0
 17 18  1  6
 17 21  1  0
 19 23  1  0
 19 18  1  0
 20 19  2  0
 21 22  1  0
 24 21  2  0
M  END
$$$$
