PLD.pdb
     RDKit          3D

 24 24  0  0  1  0  0  0  0  0999 V2000
    7.0685  -14.7511   20.7055 N   0  0  0  0  0  0  0  0  0  0  0  0
    6.3027  -13.7031   20.1206 C   0  0  0  0  0  0  0  0  0  0  0  0
    7.3606  -12.8189   19.4556 C   0  0  0  0  0  0  0  0  0  0  0  0
    8.4511  -12.8547   20.5141 C   0  0  0  0  0  0  0  0  0  0  0  0
    8.3428  -14.2831   21.0535 C   0  0  1  0  0  0  0  0  0  0  0  0
    8.7905  -14.3950   22.4273 C   0  0  0  0  0  0  0  0  0  0  0  0
   10.0198  -14.1773   22.6608 O   0  0  0  0  0  0  0  0  0  0  0  0
    8.1739  -11.9646   26.0952 C   0  0  0  0  0  0  0  0  0  0  0  0
    7.0362  -12.8142   25.5089 C   0  0  2  0  0  0  0  0  0  0  0  0
    5.7933  -12.3919   26.2524 C   0  0  0  0  0  0  0  0  0  0  0  0
    7.2883  -14.2638   25.7106 C   0  0  0  0  0  0  0  0  0  0  0  0
    8.3247  -14.8928   24.8523 C   0  0  2  0  0  0  0  0  0  0  0  0
    7.9197  -14.7294   23.4752 N   0  0  0  0  0  0  0  0  0  0  0  0
    8.7586  -16.2339   25.2056 C   0  0  0  0  0  0  0  0  0  0  0  0
    7.9868  -17.2320   25.3223 O   0  0  0  0  0  0  0  0  0  0  0  0
   10.1393  -16.5190   25.4493 N   0  0  0  0  0  0  0  0  0  0  0  0
   10.5871  -17.8763   25.7543 C   0  0  1  0  0  0  0  0  0  0  0  0
   12.0628  -18.0107   25.4011 C   0  0  0  0  0  0  0  0  0  0  0  0
   12.6556  -19.2863   25.7888 C   0  0  0  0  0  0  0  0  0  0  0  0
   12.0861  -20.4035   25.5241 O   0  0  0  0  0  0  0  0  0  0  0  0
   10.4630  -18.0411   27.2203 C   0  0  0  0  0  0  0  0  0  0  0  0
   10.3913  -19.2893   27.8308 O   0  0  0  0  0  0  0  0  0  0  0  0
   13.8483  -19.3773   26.4576 O   0  0  0  0  0  0  0  0  0  0  0  0
   10.4145  -17.0335   28.0101 O   0  0  0  0  0  0  0  0  0  0  0  0
  1  5  1  0
  1  2  1  0
  2  3  1  0
  3  4  1  0
  5  4  1  0
  5  6  1  1
  6 13  1  0
  7  6  2  0
  9  8  1  1
  9 11  1  0
 10  9  1  0
 12 11  1  1
 12 13  1  0
 12 14  1  0
 14 15  2  0
 14 16  1  0
 16 17  1  0
 17 18  1  1
 17 21  1  0
 19 23  1  0
 19 18  1  0
 20 19  2  0
 21 22  1  0
 24 21  2  0
M  END
$$$$
