PLD.pdb
     RDKit          3D

 24 24  0  0  1  0  0  0  0  0999 V2000
    7.3664  -15.2176   21.1075 N   0  0  0  0  0  0  0  0  0  0  0  0
    6.4777  -14.4165   20.3358 C   0  0  0  0  0  0  0  0  0  0  0  0
    7.4120  -13.4359   19.6228 C   0  0  0  0  0  0  0  0  0  0  0  0
    8.3936  -13.1304   20.7426 C   0  0  0  0  0  0  0  0  0  0  0  0
    8.4992  -14.4748   21.4669 C   0  0  1  0  0  0  0  0  0  0  0  0
    8.8372  -14.3272   22.8684 C   0  0  0  0  0  0  0  0  0  0  0  0
   10.0315  -13.9995   23.1500 O   0  0  0  0  0  0  0  0  0  0  0  0
    8.0378  -11.5803   26.3288 C   0  0  0  0  0  0  0  0  0  0  0  0
    6.8950  -12.4285   25.7503 C   0  0  2  0  0  0  0  0  0  0  0  0
    5.6440  -11.9432   26.4399 C   0  0  0  0  0  0  0  0  0  0  0  0
    7.1053  -13.8729   26.0239 C   0  0  0  0  0  0  0  0  0  0  0  0
    8.2185  -14.5399   25.3010 C   0  0  2  0  0  0  0  0  0  0  0  0
    7.9000  -14.5330   23.8918 N   0  0  0  0  0  0  0  0  0  0  0  0
    8.6763  -15.8190   25.8167 C   0  0  0  0  0  0  0  0  0  0  0  0
    8.9778  -16.0399   27.0273 O   0  0  0  0  0  0  0  0  0  0  0  0
    8.8164  -16.9513   24.9535 N   0  0  0  0  0  0  0  0  0  0  0  0
    9.3159  -18.2284   25.4590 C   0  0  1  0  0  0  0  0  0  0  0  0
    8.8867  -19.3454   24.5164 C   0  0  0  0  0  0  0  0  0  0  0  0
    7.4552  -19.6268   24.5369 C   0  0  0  0  0  0  0  0  0  0  0  0
    6.6921  -19.1777   25.4635 O   0  0  0  0  0  0  0  0  0  0  0  0
   10.7936  -18.1502   25.4136 C   0  0  0  0  0  0  0  0  0  0  0  0
   11.6132  -19.0842   26.0397 O   0  0  0  0  0  0  0  0  0  0  0  0
    6.8343  -20.3846   23.5787 O   0  0  0  0  0  0  0  0  0  0  0  0
   11.4000  -17.2096   24.7900 O   0  0  0  0  0  0  0  0  0  0  0  0
  1  5  1  0
  1  2  1  0
  2  3  1  0
  3  4  1  0
  5  4  1  0
  5  6  1  1
  6 13  1  0
  7  6  2  0
  9  8  1  1
  9 11  1  0
 10  9  1  0
 12 11  1  1
 12 13  1  0
 12 14  1  0
 14 15  2  0
 14 16  1  0
 16 17  1  0
 17 18  1  6
 17 21  1  0
 19 23  1  0
 19 18  1  0
 20 19  2  0
 21 22  1  0
 24 21  2  0
M  END
$$$$
