DRG.pdb
     RDKit          3D

 24 23  0  0  1  0  0  0  0  0999 V2000
   15.0683  -17.4513   18.0054 N   0  0  0  0  0  0  0  0  0  0  0  0
   14.4264  -18.1631   19.0912 C   0  0  1  0  0  0  0  0  0  0  0  0
   15.3857  -19.1768   19.6771 C   0  0  0  0  0  0  0  0  0  0  0  0
   16.7153  -18.5508   19.8806 C   0  0  0  0  0  0  0  0  0  0  0  0
   16.9503  -17.3786   19.5281 O   0  0  0  0  0  0  0  0  0  0  0  0
   13.9832  -17.1750   20.0959 C   0  0  0  0  0  0  0  0  0  0  0  0
   14.6077  -16.0945   20.2194 O   0  0  0  0  0  0  0  0  0  0  0  0
   17.7453  -19.2706   20.4792 O   0  0  0  0  0  0  0  0  0  0  0  0
    6.9896  -12.9272   20.2376 N   0  0  0  0  0  0  0  0  0  0  0  0
    8.1857  -12.7825   19.4916 C   0  0  0  0  0  0  0  0  0  0  0  0
    8.5329  -11.6554   18.9281 N   0  0  0  0  0  0  0  0  0  0  0  0
    9.1016  -13.8686   19.3002 N   0  0  0  0  0  0  0  0  0  0  0  0
    9.4372  -14.7568   20.3579 C   0  0  0  0  0  0  0  0  0  0  0  0
   10.8970  -14.9264   20.6303 C   0  0  0  0  0  0  0  0  0  0  0  0
   11.0152  -16.0366   21.6844 C   0  0  0  0  0  0  0  0  0  0  0  0
   12.4694  -16.3903   21.9511 C   0  0  2  0  0  0  0  0  0  0  0  0
   12.8699  -17.3551   20.9617 N   0  0  0  0  0  0  0  0  0  0  0  0
   12.5399  -16.8921   23.3227 C   0  0  0  0  0  0  0  0  0  0  0  0
   11.5678  -17.5229   23.8002 O   0  0  0  0  0  0  0  0  0  0  0  0
    9.4188  -11.6795   18.3798 N   0  0  0  0  0  0  0  0  0  0  0  0
   13.6807  -16.6897   24.1404 C   0  0  0  0  0  0  0  0  0  0  0  0
   14.8157  -15.8836   23.7442 C   0  0  0  0  0  0  0  0  0  0  0  0
   15.8098  -15.7782   24.8453 O   0  0  0  0  0  0  0  0  0  0  0  0
   15.6154  -16.3588   25.9405 O   0  0  0  0  0  0  0  0  0  0  0  0
  2  1  1  6
  2  3  1  0
  3  4  1  0
  4  8  1  0
  4  5  2  0
  6  2  1  0
  6  7  2  0
  9 10  1  0
 10 11  2  0
 10 12  1  0
 12 13  1  0
 13 14  1  0
 14 15  1  0
 16 15  1  6
 16 17  1  0
 17  6  1  0
 18 16  1  0
 19 18  2  0
 20 18  1  0
 21 22  1  0
 21 20  1  0
 22 24  1  0
 23 22  2  0
M  END
$$$$
