DRG.pdb
     RDKit          3D

 24 23  0  0  1  0  0  0  0  0999 V2000
   13.1058  -15.0635   17.4922 N   0  0  0  0  0  0  0  0  0  0  0  0
   13.7219  -16.0201   18.3883 C   0  0  1  0  0  0  0  0  0  0  0  0
   15.2252  -15.8445   18.3704 C   0  0  0  0  0  0  0  0  0  0  0  0
   15.7494  -16.1417   17.0146 C   0  0  0  0  0  0  0  0  0  0  0  0
   16.9307  -16.4940   16.8297 O   0  0  0  0  0  0  0  0  0  0  0  0
   13.1572  -15.8211   19.7388 C   0  0  0  0  0  0  0  0  0  0  0  0
   13.7582  -15.0878   20.5596 O   0  0  0  0  0  0  0  0  0  0  0  0
   14.9199  -16.0319   15.9023 O   0  0  0  0  0  0  0  0  0  0  0  0
    7.4618  -12.7877   20.7824 N   0  0  0  0  0  0  0  0  0  0  0  0
    8.1880  -12.5881   19.5820 C   0  0  0  0  0  0  0  0  0  0  0  0
    8.3714  -11.4049   19.0577 N   0  0  0  0  0  0  0  0  0  0  0  0
    8.7730  -13.6759   18.8543 N   0  0  0  0  0  0  0  0  0  0  0  0
    9.1556  -14.8840   19.4980 C   0  0  0  0  0  0  0  0  0  0  0  0
    9.4188  -14.7870   20.9661 C   0  0  0  0  0  0  0  0  0  0  0  0
    9.9060  -16.1734   21.4117 C   0  0  0  0  0  0  0  0  0  0  0  0
   11.4215  -16.2153   21.5224 C   0  0  2  0  0  0  0  0  0  0  0  0
   11.9482  -16.4120   20.1981 N   0  0  0  0  0  0  0  0  0  0  0  0
   11.7499  -17.2957   22.4514 C   0  0  0  0  0  0  0  0  0  0  0  0
   11.1629  -18.3983   22.3485 O   0  0  0  0  0  0  0  0  0  0  0  0
    8.8958  -11.3871   18.1574 N   0  0  0  0  0  0  0  0  0  0  0  0
   12.7195  -17.1399   23.4744 C   0  0  0  0  0  0  0  0  0  0  0  0
   13.0086  -18.1563   24.4637 C   0  0  0  0  0  0  0  0  0  0  0  0
   14.0702  -17.7052   25.4023 O   0  0  0  0  0  0  0  0  0  0  0  0
   14.7273  -16.6615   25.1713 O   0  0  0  0  0  0  0  0  0  0  0  0
  2  1  1  6
  2  3  1  0
  3  4  1  0
  4  8  1  0
  4  5  2  0
  6  2  1  0
  6  7  2  0
  9 10  1  0
 10 11  2  0
 10 12  1  0
 12 13  1  0
 13 14  1  0
 14 15  1  0
 16 15  1  6
 16 17  1  0
 17  6  1  0
 18 16  1  0
 19 18  2  0
 20 18  1  0
 21 22  1  0
 21 20  1  0
 22 24  1  0
 23 22  2  0
M  END
$$$$
