DRG.pdb
     RDKit          3D

 24 23  0  0  1  0  0  0  0  0999 V2000
   10.6844  -18.5995   19.5866 N   0  0  0  0  0  0  0  0  0  0  0  0
   11.7543  -17.6254   19.6487 C   0  0  1  0  0  0  0  0  0  0  0  0
   12.0329  -17.0814   18.2639 C   0  0  0  0  0  0  0  0  0  0  0  0
   12.6508  -18.1372   17.4246 C   0  0  0  0  0  0  0  0  0  0  0  0
   12.2686  -19.3227   17.4734 O   0  0  0  0  0  0  0  0  0  0  0  0
   11.3580  -16.5604   20.5927 C   0  0  0  0  0  0  0  0  0  0  0  0
   12.1599  -15.6314   20.8505 O   0  0  0  0  0  0  0  0  0  0  0  0
   13.6871  -17.8216   16.5506 O   0  0  0  0  0  0  0  0  0  0  0  0
    7.7133  -14.8726   17.6806 N   0  0  0  0  0  0  0  0  0  0  0  0
    7.7023  -13.4558   17.7087 C   0  0  0  0  0  0  0  0  0  0  0  0
    7.8136  -12.7286   16.6283 N   0  0  0  0  0  0  0  0  0  0  0  0
    7.5700  -12.7180   18.9306 N   0  0  0  0  0  0  0  0  0  0  0  0
    7.5933  -13.3621   20.1974 C   0  0  0  0  0  0  0  0  0  0  0  0
    8.8125  -14.1738   20.4952 C   0  0  0  0  0  0  0  0  0  0  0  0
    8.6173  -14.7475   21.9061 C   0  0  0  0  0  0  0  0  0  0  0  0
    9.8106  -15.5895   22.3282 C   0  0  2  0  0  0  0  0  0  0  0  0
   10.1004  -16.5010   21.2534 N   0  0  0  0  0  0  0  0  0  0  0  0
    9.4414  -16.2533   23.5777 C   0  0  0  0  0  0  0  0  0  0  0  0
    8.2477  -16.5814   23.7733 O   0  0  0  0  0  0  0  0  0  0  0  0
    7.7345  -11.6990   16.7677 N   0  0  0  0  0  0  0  0  0  0  0  0
   10.3953  -16.5433   24.5861 C   0  0  0  0  0  0  0  0  0  0  0  0
   10.1176  -17.3833   25.7318 C   0  0  0  0  0  0  0  0  0  0  0  0
   11.2939  -17.4606   26.6384 O   0  0  0  0  0  0  0  0  0  0  0  0
   12.4243  -17.0748   26.2542 O   0  0  0  0  0  0  0  0  0  0  0  0
  2  1  1  6
  2  3  1  0
  3  4  1  0
  4  8  1  0
  4  5  2  0
  6  2  1  0
  6  7  2  0
  9 10  1  0
 10 11  2  0
 10 12  1  0
 12 13  1  0
 13 14  1  0
 14 15  1  0
 16 15  1  6
 16 17  1  0
 17  6  1  0
 18 16  1  0
 19 18  2  0
 20 18  1  0
 21 22  1  0
 21 20  1  0
 22 24  1  0
 23 22  2  0
M  END
$$$$
