DRG.pdb
     RDKit          3D

 24 23  0  0  1  0  0  0  0  0999 V2000
    8.9156  -19.8200   18.2471 N   0  0  0  0  0  0  0  0  0  0  0  0
    8.1716  -19.3547   19.3993 C   0  0  1  0  0  0  0  0  0  0  0  0
    8.2986  -20.3542   20.5290 C   0  0  0  0  0  0  0  0  0  0  0  0
    7.3656  -21.4859   20.3055 C   0  0  0  0  0  0  0  0  0  0  0  0
    6.6606  -21.5634   19.2804 O   0  0  0  0  0  0  0  0  0  0  0  0
    8.6869  -18.0230   19.7776 C   0  0  0  0  0  0  0  0  0  0  0  0
    9.9041  -17.7632   19.6238 O   0  0  0  0  0  0  0  0  0  0  0  0
    7.2557  -22.5016   21.2508 O   0  0  0  0  0  0  0  0  0  0  0  0
    9.3234  -14.7072   16.4296 N   0  0  0  0  0  0  0  0  0  0  0  0
    8.2758  -13.8078   16.7488 C   0  0  0  0  0  0  0  0  0  0  0  0
    7.7532  -12.9941   15.8694 N   0  0  0  0  0  0  0  0  0  0  0  0
    7.7150  -13.7261   18.0655 N   0  0  0  0  0  0  0  0  0  0  0  0
    8.5029  -13.3606   19.1906 C   0  0  0  0  0  0  0  0  0  0  0  0
    7.7830  -13.2951   20.4988 C   0  0  0  0  0  0  0  0  0  0  0  0
    7.2824  -14.7173   20.7899 C   0  0  0  0  0  0  0  0  0  0  0  0
    8.4252  -15.7193   20.7645 C   0  0  2  0  0  0  0  0  0  0  0  0
    7.8891  -16.9779   20.3189 N   0  0  0  0  0  0  0  0  0  0  0  0
    8.9815  -15.7636   22.1161 C   0  0  0  0  0  0  0  0  0  0  0  0
    8.2103  -15.7169   23.1030 O   0  0  0  0  0  0  0  0  0  0  0  0
    6.9859  -12.3828   16.2209 N   0  0  0  0  0  0  0  0  0  0  0  0
   10.3763  -15.8597   22.3531 C   0  0  0  0  0  0  0  0  0  0  0  0
   10.9622  -15.8925   23.6763 C   0  0  0  0  0  0  0  0  0  0  0  0
   12.4472  -15.8521   23.6070 O   0  0  0  0  0  0  0  0  0  0  0  0
   13.0410  -16.0061   22.5125 O   0  0  0  0  0  0  0  0  0  0  0  0
  2  1  1  6
  2  3  1  0
  3  4  1  0
  4  8  1  0
  4  5  2  0
  6  2  1  0
  6  7  2  0
  9 10  1  0
 10 11  2  0
 10 12  1  0
 12 13  1  0
 13 14  1  0
 14 15  1  0
 16 15  1  1
 16 17  1  0
 17  6  1  0
 18 16  1  0
 19 18  2  0
 20 18  1  0
 21 22  1  0
 21 20  1  0
 22 24  1  0
 23 22  2  0
M  END
$$$$
