DRG.pdb
     RDKit          3D

 24 23  0  0  1  0  0  0  0  0999 V2000
    8.6052  -17.4271   18.7945 N   0  0  0  0  0  0  0  0  0  0  0  0
    9.2890  -18.1303   19.8601 C   0  0  1  0  0  0  0  0  0  0  0  0
   10.3101  -19.0815   19.2737 C   0  0  0  0  0  0  0  0  0  0  0  0
    9.6195  -20.2350   18.6463 C   0  0  0  0  0  0  0  0  0  0  0  0
    8.4795  -20.5914   19.0029 O   0  0  0  0  0  0  0  0  0  0  0  0
    9.9116  -17.1300   20.7512 C   0  0  0  0  0  0  0  0  0  0  0  0
   10.5455  -16.1682   20.2555 O   0  0  0  0  0  0  0  0  0  0  0  0
   10.2398  -20.9557   17.6299 O   0  0  0  0  0  0  0  0  0  0  0  0
   10.4407  -16.2979   29.2129 N   0  0  0  0  0  0  0  0  0  0  0  0
   10.3226  -14.9112   28.9452 C   0  0  0  0  0  0  0  0  0  0  0  0
   10.4836  -13.9992   29.8676 N   0  0  0  0  0  0  0  0  0  0  0  0
   10.0147  -14.4101   27.6379 N   0  0  0  0  0  0  0  0  0  0  0  0
    9.5999  -15.2725   26.5869 C   0  0  0  0  0  0  0  0  0  0  0  0
   10.4274  -15.2312   25.3429 C   0  0  0  0  0  0  0  0  0  0  0  0
    9.7588  -16.1884   24.3456 C   0  0  0  0  0  0  0  0  0  0  0  0
   10.5072  -16.2162   23.0227 C   0  0  2  0  0  0  0  0  0  0  0  0
    9.8480  -17.1703   22.1711 N   0  0  0  0  0  0  0  0  0  0  0  0
   11.8951  -16.5613   23.3269 C   0  0  0  0  0  0  0  0  0  0  0  0
   12.1606  -17.6895   23.8040 O   0  0  0  0  0  0  0  0  0  0  0  0
   10.3381  -13.0147   29.5584 N   0  0  0  0  0  0  0  0  0  0  0  0
   12.9631  -15.6567   23.0983 C   0  0  0  0  0  0  0  0  0  0  0  0
   14.3582  -16.0408   23.1350 C   0  0  0  0  0  0  0  0  0  0  0  0
   14.9049  -15.9458   24.5148 O   0  0  0  0  0  0  0  0  0  0  0  0
   14.1552  -15.6706   25.4825 O   0  0  0  0  0  0  0  0  0  0  0  0
  2  1  1  6
  2  3  1  0
  3  4  1  0
  4  8  1  0
  4  5  2  0
  6  2  1  0
  6  7  2  0
  9 10  1  0
 10 11  2  0
 10 12  1  0
 12 13  1  0
 13 14  1  0
 14 15  1  0
 16 15  1  1
 16 17  1  0
 17  6  1  0
 18 16  1  0
 19 18  2  0
 20 18  1  0
 21 22  1  0
 21 20  1  0
 22 24  1  0
 23 22  2  0
M  END
$$$$
