DRG.pdb
     RDKit          3D

 24 23  0  0  1  0  0  0  0  0999 V2000
   11.8015  -16.6566   18.9839 N   0  0  0  0  0  0  0  0  0  0  0  0
   10.7443  -17.2765   19.7556 C   0  0  1  0  0  0  0  0  0  0  0  0
   10.3954  -18.6227   19.1579 C   0  0  0  0  0  0  0  0  0  0  0  0
    9.7039  -18.4316   17.8593 C   0  0  0  0  0  0  0  0  0  0  0  0
    8.4843  -18.1824   17.7950 O   0  0  0  0  0  0  0  0  0  0  0  0
   11.1995  -17.3935   21.1561 C   0  0  0  0  0  0  0  0  0  0  0  0
   12.4083  -17.6250   21.3971 O   0  0  0  0  0  0  0  0  0  0  0  0
   10.4136  -18.5281   16.6658 O   0  0  0  0  0  0  0  0  0  0  0  0
    8.9064  -12.9314   28.1336 N   0  0  0  0  0  0  0  0  0  0  0  0
    9.7623  -13.9232   28.6739 C   0  0  0  0  0  0  0  0  0  0  0  0
   10.0170  -14.0137   29.9527 N   0  0  0  0  0  0  0  0  0  0  0  0
   10.4133  -14.8999   27.8509 N   0  0  0  0  0  0  0  0  0  0  0  0
    9.7768  -15.4567   26.7086 C   0  0  0  0  0  0  0  0  0  0  0  0
   10.5595  -16.4887   25.9626 C   0  0  0  0  0  0  0  0  0  0  0  0
   10.0282  -16.4781   24.5220 C   0  0  0  0  0  0  0  0  0  0  0  0
   10.7997  -17.4494   23.6433 C   0  0  2  0  0  0  0  0  0  0  0  0
   10.3513  -17.2601   22.2893 N   0  0  0  0  0  0  0  0  0  0  0  0
   10.5421  -18.7909   24.1649 C   0  0  0  0  0  0  0  0  0  0  0  0
    9.3603  -19.1646   24.3511 O   0  0  0  0  0  0  0  0  0  0  0  0
   10.6835  -14.7661   30.2276 N   0  0  0  0  0  0  0  0  0  0  0  0
   11.5918  -19.6943   24.4699 C   0  0  0  0  0  0  0  0  0  0  0  0
   12.4750  -19.5397   25.6062 C   0  0  0  0  0  0  0  0  0  0  0  0
   13.5404  -20.5772   25.6031 O   0  0  0  0  0  0  0  0  0  0  0  0
   13.5750  -21.4560   24.7082 O   0  0  0  0  0  0  0  0  0  0  0  0
  2  1  1  6
  2  3  1  0
  3  4  1  0
  4  8  1  0
  4  5  2  0
  6  2  1  0
  6  7  2  0
  9 10  1  0
 10 11  2  0
 10 12  1  0
 12 13  1  0
 13 14  1  0
 14 15  1  0
 16 15  1  1
 16 17  1  0
 17  6  1  0
 18 16  1  0
 19 18  2  0
 20 18  1  0
 21 22  1  0
 21 20  1  0
 22 24  1  0
 23 22  2  0
M  END
$$$$
