DRG.pdb
     RDKit          3D

 24 23  0  0  1  0  0  0  0  0999 V2000
   12.9467  -16.7055   17.6368 N   0  0  0  0  0  0  0  0  0  0  0  0
   13.8205  -15.7855   18.3351 C   0  0  1  0  0  0  0  0  0  0  0  0
   14.2605  -14.6835   17.3954 C   0  0  0  0  0  0  0  0  0  0  0  0
   14.9981  -15.2668   16.2479 C   0  0  0  0  0  0  0  0  0  0  0  0
   15.1987  -16.4933   16.1510 O   0  0  0  0  0  0  0  0  0  0  0  0
   13.0949  -15.2562   19.5080 C   0  0  0  0  0  0  0  0  0  0  0  0
   13.6326  -14.3790   20.2250 O   0  0  0  0  0  0  0  0  0  0  0  0
   15.4900  -14.4440   15.2388 O   0  0  0  0  0  0  0  0  0  0  0  0
    7.8079  -13.8048   16.4986 N   0  0  0  0  0  0  0  0  0  0  0  0
    7.6586  -13.1101   17.7247 C   0  0  0  0  0  0  0  0  0  0  0  0
    8.1135  -11.8986   17.9083 N   0  0  0  0  0  0  0  0  0  0  0  0
    6.9967  -13.6918   18.8554 N   0  0  0  0  0  0  0  0  0  0  0  0
    7.6775  -14.5560   19.7553 C   0  0  0  0  0  0  0  0  0  0  0  0
    9.1380  -14.2937   19.9341 C   0  0  0  0  0  0  0  0  0  0  0  0
    9.6534  -15.3596   20.9119 C   0  0  0  0  0  0  0  0  0  0  0  0
   11.1550  -15.2397   21.1161 C   0  0  2  0  0  0  0  0  0  0  0  0
   11.7941  -15.6736   19.9023 N   0  0  0  0  0  0  0  0  0  0  0  0
   11.4919  -16.0563   22.2813 C   0  0  0  0  0  0  0  0  0  0  0  0
   11.1769  -17.2693   22.2971 O   0  0  0  0  0  0  0  0  0  0  0  0
    8.0860  -11.5506   18.8901 N   0  0  0  0  0  0  0  0  0  0  0  0
   12.1702  -15.5201   23.4054 C   0  0  0  0  0  0  0  0  0  0  0  0
   12.4665  -16.2830   24.5993 C   0  0  0  0  0  0  0  0  0  0  0  0
   13.8635  -16.7924   24.5779 O   0  0  0  0  0  0  0  0  0  0  0  0
   14.5676  -16.6859   23.5448 O   0  0  0  0  0  0  0  0  0  0  0  0
  2  1  1  6
  2  3  1  0
  3  4  1  0
  4  8  1  0
  4  5  2  0
  6  2  1  0
  6  7  2  0
  9 10  1  0
 10 11  2  0
 10 12  1  0
 12 13  1  0
 13 14  1  0
 14 15  1  0
 16 15  1  6
 16 17  1  0
 17  6  1  0
 18 16  1  0
 19 18  2  0
 20 18  1  0
 21 22  1  0
 21 20  1  0
 22 24  1  0
 23 22  2  0
M  END
$$$$
