DRG.pdb
     RDKit          3D

 24 23  0  0  1  0  0  0  0  0999 V2000
   11.2690  -18.8251   21.8733 N   0  0  0  0  0  0  0  0  0  0  0  0
   12.1372  -17.6658   21.8662 C   0  0  1  0  0  0  0  0  0  0  0  0
   12.4550  -17.2723   20.4396 C   0  0  0  0  0  0  0  0  0  0  0  0
   13.4649  -18.2013   19.8755 C   0  0  0  0  0  0  0  0  0  0  0  0
   13.9469  -19.1342   20.5472 O   0  0  0  0  0  0  0  0  0  0  0  0
   11.4639  -16.5774   22.6040 C   0  0  0  0  0  0  0  0  0  0  0  0
   12.1085  -15.5466   22.9117 O   0  0  0  0  0  0  0  0  0  0  0  0
   13.9029  -18.0486   18.5632 O   0  0  0  0  0  0  0  0  0  0  0  0
    7.5549  -11.7393   19.5113 N   0  0  0  0  0  0  0  0  0  0  0  0
    7.8578  -12.9824   18.9019 C   0  0  0  0  0  0  0  0  0  0  0  0
    8.1025  -13.0993   17.6233 N   0  0  0  0  0  0  0  0  0  0  0  0
    7.9148  -14.2045   19.6490 N   0  0  0  0  0  0  0  0  0  0  0  0
    8.0165  -14.2083   21.0667 C   0  0  0  0  0  0  0  0  0  0  0  0
    8.0822  -15.5542   21.7134 C   0  0  0  0  0  0  0  0  0  0  0  0
    8.1089  -15.3063   23.2286 C   0  0  0  0  0  0  0  0  0  0  0  0
    9.4883  -15.5775   23.8068 C   0  0  2  0  0  0  0  0  0  0  0  0
   10.1004  -16.6043   23.0060 N   0  0  0  0  0  0  0  0  0  0  0  0
    9.2953  -15.9601   25.2048 C   0  0  0  0  0  0  0  0  0  0  0  0
    8.3719  -15.4320   25.8676 O   0  0  0  0  0  0  0  0  0  0  0  0
    8.3494  -14.0578   17.2974 N   0  0  0  0  0  0  0  0  0  0  0  0
   10.1229  -16.9179   25.8441 C   0  0  0  0  0  0  0  0  0  0  0  0
    9.9725  -17.3066   27.2303 C   0  0  0  0  0  0  0  0  0  0  0  0
   11.0194  -18.2842   27.6303 O   0  0  0  0  0  0  0  0  0  0  0  0
   11.0327  -18.7699   28.7871 O   0  0  0  0  0  0  0  0  0  0  0  0
  2  1  1  6
  2  3  1  0
  3  4  1  0
  4  8  1  0
  4  5  2  0
  6  2  1  0
  6  7  2  0
  9 10  1  0
 10 11  2  0
 10 12  1  0
 12 13  1  0
 13 14  1  0
 14 15  1  0
 16 15  1  6
 16 17  1  0
 17  6  1  0
 18 16  1  0
 19 18  2  0
 20 18  1  0
 21 22  1  0
 21 20  1  0
 22 24  1  0
 23 22  2  0
M  END
$$$$
