DRG.pdb
     RDKit          3D

 24 23  0  0  1  0  0  0  0  0999 V2000
   13.1992  -16.8441   17.5753 N   0  0  0  0  0  0  0  0  0  0  0  0
   13.8421  -15.5703   17.8237 C   0  0  1  0  0  0  0  0  0  0  0  0
   13.7409  -14.6964   16.5919 C   0  0  0  0  0  0  0  0  0  0  0  0
   14.5285  -15.2944   15.4859 C   0  0  0  0  0  0  0  0  0  0  0  0
   15.5414  -15.9883   15.7011 O   0  0  0  0  0  0  0  0  0  0  0  0
   13.1994  -14.9474   18.9989 C   0  0  0  0  0  0  0  0  0  0  0  0
   13.6210  -13.8455   19.4240 O   0  0  0  0  0  0  0  0  0  0  0  0
   14.1471  -15.0902   14.1629 O   0  0  0  0  0  0  0  0  0  0  0  0
    7.3811  -12.0150   18.6924 N   0  0  0  0  0  0  0  0  0  0  0  0
    7.3467  -13.1545   17.8505 C   0  0  0  0  0  0  0  0  0  0  0  0
    7.4287  -13.0715   16.5486 N   0  0  0  0  0  0  0  0  0  0  0  0
    7.2167  -14.4839   18.3709 N   0  0  0  0  0  0  0  0  0  0  0  0
    7.9615  -14.9191   19.5005 C   0  0  0  0  0  0  0  0  0  0  0  0
    9.3902  -14.4825   19.5488 C   0  0  0  0  0  0  0  0  0  0  0  0
   10.0061  -15.1508   20.7865 C   0  0  0  0  0  0  0  0  0  0  0  0
   11.5031  -14.8975   20.8616 C   0  0  2  0  0  0  0  0  0  0  0  0
   12.1059  -15.5138   19.7097 N   0  0  0  0  0  0  0  0  0  0  0  0
   11.9647  -15.4522   22.1333 C   0  0  0  0  0  0  0  0  0  0  0  0
   11.1353  -15.6795   23.0451 O   0  0  0  0  0  0  0  0  0  0  0  0
    7.4919  -13.9800   16.0421 N   0  0  0  0  0  0  0  0  0  0  0  0
   13.3308  -15.7466   22.3744 C   0  0  0  0  0  0  0  0  0  0  0  0
   13.8823  -15.9568   23.6961 C   0  0  0  0  0  0  0  0  0  0  0  0
   15.3492  -16.1932   23.6342 O   0  0  0  0  0  0  0  0  0  0  0  0
   15.9602  -16.1402   22.5396 O   0  0  0  0  0  0  0  0  0  0  0  0
  2  1  1  6
  2  3  1  0
  3  4  1  0
  4  8  1  0
  4  5  2  0
  6  2  1  0
  6  7  2  0
  9 10  1  0
 10 11  2  0
 10 12  1  0
 12 13  1  0
 13 14  1  0
 14 15  1  0
 16 15  1  6
 16 17  1  0
 17  6  1  0
 18 16  1  0
 19 18  2  0
 20 18  1  0
 21 22  1  0
 21 20  1  0
 22 24  1  0
 23 22  2  0
M  END
$$$$
