DRG.pdb
     RDKit          3D

 24 23  0  0  1  0  0  0  0  0999 V2000
   12.6311  -17.7533   20.9461 N   0  0  0  0  0  0  0  0  0  0  0  0
   11.5749  -18.2490   21.8042 C   0  0  1  0  0  0  0  0  0  0  0  0
   12.0736  -19.4390   22.5956 C   0  0  0  0  0  0  0  0  0  0  0  0
   12.5290  -20.5037   21.6681 C   0  0  0  0  0  0  0  0  0  0  0  0
   12.5583  -20.3314   20.4339 O   0  0  0  0  0  0  0  0  0  0  0  0
   11.1340  -17.1456   22.6819 C   0  0  0  0  0  0  0  0  0  0  0  0
   11.9743  -16.3152   23.1026 O   0  0  0  0  0  0  0  0  0  0  0  0
   12.9399  -21.7376   22.1642 O   0  0  0  0  0  0  0  0  0  0  0  0
    6.7028  -13.0308   20.0238 N   0  0  0  0  0  0  0  0  0  0  0  0
    7.9676  -13.3032   19.4456 C   0  0  0  0  0  0  0  0  0  0  0  0
    8.5008  -12.5423   18.5263 N   0  0  0  0  0  0  0  0  0  0  0  0
    8.7532  -14.4392   19.8294 N   0  0  0  0  0  0  0  0  0  0  0  0
    8.4931  -15.1553   21.0293 C   0  0  0  0  0  0  0  0  0  0  0  0
    8.3292  -14.3264   22.2623 C   0  0  0  0  0  0  0  0  0  0  0  0
    8.0771  -15.3092   23.4149 C   0  0  0  0  0  0  0  0  0  0  0  0
    9.3828  -15.8631   23.9618 C   0  0  2  0  0  0  0  0  0  0  0  0
    9.7908  -16.9418   23.1015 N   0  0  0  0  0  0  0  0  0  0  0  0
    9.1245  -16.2770   25.3402 C   0  0  0  0  0  0  0  0  0  0  0  0
    8.1216  -16.9843   25.5949 O   0  0  0  0  0  0  0  0  0  0  0  0
    9.4482  -12.8273   18.1989 N   0  0  0  0  0  0  0  0  0  0  0  0
    9.9772  -15.9043   26.4103 C   0  0  0  0  0  0  0  0  0  0  0  0
    9.7353  -16.2692   27.7900 C   0  0  0  0  0  0  0  0  0  0  0  0
   10.4776  -17.5047   28.1565 O   0  0  0  0  0  0  0  0  0  0  0  0
   11.1191  -18.1464   27.2899 O   0  0  0  0  0  0  0  0  0  0  0  0
  2  1  1  6
  2  3  1  0
  3  4  1  0
  4  8  1  0
  4  5  2  0
  6  2  1  0
  6  7  2  0
  9 10  1  0
 10 11  2  0
 10 12  1  0
 12 13  1  0
 13 14  1  0
 14 15  1  0
 16 15  1  6
 16 17  1  0
 17  6  1  0
 18 16  1  0
 19 18  2  0
 20 18  1  0
 21 22  1  0
 21 20  1  0
 22 24  1  0
 23 22  2  0
M  END
$$$$
