ECS.pdb
     RDKit          3D

 22 21  0  0  1  0  0  0  0  0999 V2000
    7.1194  -16.8491   19.3141 N   0  0  0  0  0  0  0  0  0  0  0  0
    8.5653  -16.7366   19.3072 C   0  0  1  0  0  0  0  0  0  0  0  0
    8.9935  -15.9348   18.1275 C   0  0  0  0  0  0  0  0  0  0  0  0
    7.8946  -15.2472   17.3726 C   0  0  0  0  0  0  0  0  0  0  0  0
    7.9345  -15.5221   15.9353 C   0  0  0  0  0  0  0  0  0  0  0  0
    7.1852  -16.3933   15.4320 O   0  0  0  0  0  0  0  0  0  0  0  0
    8.9914  -16.1631   20.5971 C   0  0  0  0  0  0  0  0  0  0  0  0
   10.2075  -15.9503   20.8164 O   0  0  0  0  0  0  0  0  0  0  0  0
    8.7903  -14.8392   15.0900 O   0  0  0  0  0  0  0  0  0  0  0  0
    8.0880  -15.8254   21.6390 N   0  0  0  0  0  0  0  0  0  0  0  0
    8.5797  -15.3408   22.9457 C   0  0  1  0  0  0  0  0  0  0  0  0
    7.3471  -14.7727   23.6610 C   0  0  0  0  0  0  0  0  0  0  0  0
    7.7200  -13.2336   24.5138 S   0  0  0  0  0  0  0  0  0  0  0  0
    9.0519  -16.5096   23.7314 C   0  0  0  0  0  0  0  0  0  0  0  0
    8.4377  -17.6269   23.6202 O   0  0  0  0  0  0  0  0  0  0  0  0
   12.5066  -19.1854   25.3436 O   0  0  0  0  0  0  0  0  0  0  0  0
   11.8983  -18.1614   24.6535 C   0  0  0  0  0  0  0  0  0  0  0  0
   10.6162  -17.7038   25.3034 C   0  0  2  0  0  0  0  0  0  0  0  0
   10.1455  -16.4960   24.6093 N   0  0  0  0  0  0  0  0  0  0  0  0
   10.9147  -17.3873   26.7168 C   0  0  0  0  0  0  0  0  0  0  0  0
   10.8111  -16.2213   27.1531 O   0  0  0  0  0  0  0  0  0  0  0  0
   11.3136  -18.3918   27.5688 O   0  0  0  0  0  0  0  0  0  0  0  0
  2  1  1  1
  2  7  1  0
  3  4  1  0
  3  2  1  0
  5  4  1  0
  6  5  2  0
  7 10  1  0
  7  8  2  0
  9  5  1  0
 10 11  1  0
 11 14  1  0
 12 13  1  0
 11 12  1  1
 14 15  2  0
 14 19  1  0
 16 17  1  0
 18 20  1  0
 18 17  1  6
 19 18  1  0
 20 22  1  0
 21 20  2  0
M  END
$$$$
