ECS.pdb
     RDKit          3D

 22 21  0  0  1  0  0  0  0  0999 V2000
    8.1007  -14.9071   20.8309 N   0  0  0  0  0  0  0  0  0  0  0  0
    7.1969  -14.7195   21.9494 C   0  0  1  0  0  0  0  0  0  0  0  0
    6.4222  -15.9713   22.1749 C   0  0  0  0  0  0  0  0  0  0  0  0
    7.0377  -17.2263   21.6304 C   0  0  0  0  0  0  0  0  0  0  0  0
    6.2403  -18.4202   21.9158 C   0  0  0  0  0  0  0  0  0  0  0  0
    5.1606  -18.3294   22.5482 O   0  0  0  0  0  0  0  0  0  0  0  0
    7.9889  -14.2966   23.1190 C   0  0  0  0  0  0  0  0  0  0  0  0
    9.2162  -14.5492   23.1685 O   0  0  0  0  0  0  0  0  0  0  0  0
    6.6438  -19.6773   21.5033 O   0  0  0  0  0  0  0  0  0  0  0  0
    7.4371  -13.6007   24.2267 N   0  0  0  0  0  0  0  0  0  0  0  0
    8.2462  -13.3244   25.4320 C   0  0  1  0  0  0  0  0  0  0  0  0
    7.4067  -12.3552   26.2744 C   0  0  0  0  0  0  0  0  0  0  0  0
    5.7164  -12.9363   26.4751 S   0  0  0  0  0  0  0  0  0  0  0  0
    8.3808  -14.5855   26.2053 C   0  0  0  0  0  0  0  0  0  0  0  0
    7.4669  -15.4764   26.1121 O   0  0  0  0  0  0  0  0  0  0  0  0
   11.5976  -16.6232   26.7062 O   0  0  0  0  0  0  0  0  0  0  0  0
   10.3666  -17.1348   27.0493 C   0  0  0  0  0  0  0  0  0  0  0  0
    9.5211  -16.1494   27.8171 C   0  0  2  0  0  0  0  0  0  0  0  0
    9.4546  -14.8951   27.0525 N   0  0  0  0  0  0  0  0  0  0  0  0
   10.1787  -15.9097   29.1199 C   0  0  0  0  0  0  0  0  0  0  0  0
   10.4974  -14.7567   29.4799 O   0  0  0  0  0  0  0  0  0  0  0  0
   10.4455  -16.9725   29.9525 O   0  0  0  0  0  0  0  0  0  0  0  0
  2  1  1  6
  2  7  1  0
  3  4  1  0
  3  2  1  0
  5  4  1  0
  6  5  2  0
  7 10  1  0
  7  8  2  0
  9  5  1  0
 10 11  1  0
 11 14  1  0
 12 13  1  0
 11 12  1  1
 14 15  2  0
 14 19  1  0
 16 17  1  0
 18 20  1  0
 18 17  1  6
 19 18  1  0
 20 22  1  0
 21 20  2  0
M  END
$$$$
