ECS.pdb
     RDKit          3D

 22 21  0  0  1  0  0  0  0  0999 V2000
    7.3110  -12.5924   19.2891 N   0  0  0  0  0  0  0  0  0  0  0  0
    7.2916  -13.8500   20.0110 C   0  0  1  0  0  0  0  0  0  0  0  0
    7.7241  -14.9484   19.1032 C   0  0  0  0  0  0  0  0  0  0  0  0
    7.8329  -16.3073   19.7292 C   0  0  0  0  0  0  0  0  0  0  0  0
    8.3345  -17.3219   18.8009 C   0  0  0  0  0  0  0  0  0  0  0  0
    8.5827  -17.0265   17.6071 O   0  0  0  0  0  0  0  0  0  0  0  0
    8.1368  -13.7083   21.2109 C   0  0  0  0  0  0  0  0  0  0  0  0
    9.2650  -13.1682   21.1217 O   0  0  0  0  0  0  0  0  0  0  0  0
    8.5503  -18.6280   19.2017 O   0  0  0  0  0  0  0  0  0  0  0  0
    7.7459  -14.1565   22.5001 N   0  0  0  0  0  0  0  0  0  0  0  0
    8.6921  -14.1299   23.6348 C   0  0  1  0  0  0  0  0  0  0  0  0
    7.8691  -13.6630   24.8425 C   0  0  0  0  0  0  0  0  0  0  0  0
    6.2153  -14.3701   24.8373 S   0  0  0  0  0  0  0  0  0  0  0  0
    9.1351  -15.5210   23.9082 C   0  0  0  0  0  0  0  0  0  0  0  0
    8.3241  -16.4882   23.6972 O   0  0  0  0  0  0  0  0  0  0  0  0
   12.6547  -18.7598   24.3481 O   0  0  0  0  0  0  0  0  0  0  0  0
   12.2226  -17.4603   24.2083 C   0  0  0  0  0  0  0  0  0  0  0  0
   10.7887  -17.2752   24.6383 C   0  0  2  0  0  0  0  0  0  0  0  0
   10.4028  -15.8781   24.3902 N   0  0  0  0  0  0  0  0  0  0  0  0
   10.7102  -17.5689   26.0857 C   0  0  0  0  0  0  0  0  0  0  0  0
   10.4470  -16.6710   26.9133 O   0  0  0  0  0  0  0  0  0  0  0  0
   10.9300  -18.8521   26.5318 O   0  0  0  0  0  0  0  0  0  0  0  0
  2  1  1  6
  2  7  1  0
  3  4  1  0
  3  2  1  0
  5  4  1  0
  6  5  2  0
  7 10  1  0
  7  8  2  0
  9  5  1  0
 10 11  1  0
 11 14  1  0
 12 13  1  0
 11 12  1  1
 14 15  2  0
 14 19  1  0
 16 17  1  0
 18 20  1  0
 18 17  1  1
 19 18  1  0
 20 22  1  0
 21 20  2  0
M  END
$$$$
