ECS.pdb
     RDKit          3D

 22 21  0  0  1  0  0  0  0  0999 V2000
    8.1488  -12.7980   17.6830 N   0  0  0  0  0  0  0  0  0  0  0  0
    8.0705  -14.1071   18.3021 C   0  0  1  0  0  0  0  0  0  0  0  0
    8.8515  -15.0842   17.4940 C   0  0  0  0  0  0  0  0  0  0  0  0
    8.5320  -15.1218   16.0288 C   0  0  0  0  0  0  0  0  0  0  0  0
    7.8790  -16.3670   15.6216 C   0  0  0  0  0  0  0  0  0  0  0  0
    7.0566  -16.3752   14.6743 O   0  0  0  0  0  0  0  0  0  0  0  0
    8.5356  -13.9886   19.6964 C   0  0  0  0  0  0  0  0  0  0  0  0
    9.5134  -13.2527   19.9697 O   0  0  0  0  0  0  0  0  0  0  0  0
    8.1421  -17.5659   16.2593 O   0  0  0  0  0  0  0  0  0  0  0  0
    7.9308  -14.6734   20.7832 N   0  0  0  0  0  0  0  0  0  0  0  0
    8.4661  -14.5477   22.1549 C   0  0  1  0  0  0  0  0  0  0  0  0
    7.2363  -14.5052   23.0712 C   0  0  0  0  0  0  0  0  0  0  0  0
    7.6865  -14.6926   24.8025 S   0  0  0  0  0  0  0  0  0  0  0  0
    9.2207  -15.7855   22.4786 C   0  0  0  0  0  0  0  0  0  0  0  0
    8.7354  -16.9201   22.1394 O   0  0  0  0  0  0  0  0  0  0  0  0
   13.2169  -15.7912   23.2753 O   0  0  0  0  0  0  0  0  0  0  0  0
   12.5828  -16.9273   22.8259 C   0  0  0  0  0  0  0  0  0  0  0  0
   11.1881  -17.0730   23.3819 C   0  0  2  0  0  0  0  0  0  0  0  0
   10.4559  -15.8206   23.1417 N   0  0  0  0  0  0  0  0  0  0  0  0
   11.3052  -17.3160   24.8360 C   0  0  0  0  0  0  0  0  0  0  0  0
   11.9483  -18.2916   25.2778 O   0  0  0  0  0  0  0  0  0  0  0  0
   10.6968  -16.4547   25.7202 O   0  0  0  0  0  0  0  0  0  0  0  0
  2  1  1  6
  2  7  1  0
  3  4  1  0
  3  2  1  0
  5  4  1  0
  6  5  2  0
  7 10  1  0
  7  8  2  0
  9  5  1  0
 10 11  1  0
 11 14  1  0
 12 13  1  0
 11 12  1  1
 14 15  2  0
 14 19  1  0
 16 17  1  0
 18 20  1  0
 18 17  1  1
 19 18  1  0
 20 22  1  0
 21 20  2  0
M  END
$$$$
