ECS.pdb
     RDKit          3D

 22 21  0  0  1  0  0  0  0  0999 V2000
    9.3047  -15.3110   20.5492 N   0  0  0  0  0  0  0  0  0  0  0  0
    8.3746  -15.6926   21.5945 C   0  0  1  0  0  0  0  0  0  0  0  0
    8.4191  -17.1694   21.7815 C   0  0  0  0  0  0  0  0  0  0  0  0
    8.3878  -17.9872   20.5243 C   0  0  0  0  0  0  0  0  0  0  0  0
    8.4160  -19.4277   20.7829 C   0  0  0  0  0  0  0  0  0  0  0  0
    7.3484  -20.0809   20.8692 O   0  0  0  0  0  0  0  0  0  0  0  0
    8.7101  -14.9328   22.8129 C   0  0  0  0  0  0  0  0  0  0  0  0
    9.9094  -14.6968   23.0932 O   0  0  0  0  0  0  0  0  0  0  0  0
    9.6073  -20.1130   20.9397 O   0  0  0  0  0  0  0  0  0  0  0  0
    7.7353  -14.4352   23.7172 N   0  0  0  0  0  0  0  0  0  0  0  0
    8.1333  -13.7459   24.9623 C   0  0  1  0  0  0  0  0  0  0  0  0
    6.8830  -12.9883   25.4276 C   0  0  0  0  0  0  0  0  0  0  0  0
    7.0908  -12.3067   27.0790 S   0  0  0  0  0  0  0  0  0  0  0  0
    8.4397  -14.7739   25.9897 C   0  0  0  0  0  0  0  0  0  0  0  0
    7.5825  -15.6937   26.2287 O   0  0  0  0  0  0  0  0  0  0  0  0
   12.0894  -16.1015   26.9422 O   0  0  0  0  0  0  0  0  0  0  0  0
   10.9439  -16.7718   27.3075 C   0  0  0  0  0  0  0  0  0  0  0  0
    9.8527  -15.8435   27.7796 C   0  0  2  0  0  0  0  0  0  0  0  0
    9.6220  -14.8274   26.7420 N   0  0  0  0  0  0  0  0  0  0  0  0
   10.3194  -15.1945   29.0238 C   0  0  0  0  0  0  0  0  0  0  0  0
   10.3847  -13.9505   29.1179 O   0  0  0  0  0  0  0  0  0  0  0  0
   10.6888  -15.9710   30.0983 O   0  0  0  0  0  0  0  0  0  0  0  0
  2  1  1  6
  2  7  1  0
  3  4  1  0
  3  2  1  0
  5  4  1  0
  6  5  2  0
  7 10  1  0
  7  8  2  0
  9  5  1  0
 10 11  1  0
 11 14  1  0
 12 13  1  0
 11 12  1  1
 14 15  2  0
 14 19  1  0
 16 17  1  0
 18 20  1  0
 18 17  1  6
 19 18  1  0
 20 22  1  0
 21 20  2  0
M  END
$$$$
