ECS.pdb
     RDKit          3D

 22 21  0  0  1  0  0  0  0  0999 V2000
    7.8059  -12.4339   19.4628 N   0  0  0  0  0  0  0  0  0  0  0  0
    7.4392  -13.6261   20.2028 C   0  0  1  0  0  0  0  0  0  0  0  0
    7.6630  -14.8262   19.3499 C   0  0  0  0  0  0  0  0  0  0  0  0
    7.3144  -16.1446   19.9748 C   0  0  0  0  0  0  0  0  0  0  0  0
    7.6126  -17.2827   19.1037 C   0  0  0  0  0  0  0  0  0  0  0  0
    7.3713  -18.4545   19.4810 O   0  0  0  0  0  0  0  0  0  0  0  0
    8.2075  -13.6446   21.4613 C   0  0  0  0  0  0  0  0  0  0  0  0
    9.4112  -13.2933   21.4652 O   0  0  0  0  0  0  0  0  0  0  0  0
    8.1651  -17.1090   17.8475 O   0  0  0  0  0  0  0  0  0  0  0  0
    7.6575  -14.0460   22.7072 N   0  0  0  0  0  0  0  0  0  0  0  0
    8.4833  -14.0672   23.9325 C   0  0  1  0  0  0  0  0  0  0  0  0
    7.7145  -13.2242   24.9582 C   0  0  0  0  0  0  0  0  0  0  0  0
    6.0651  -13.8763   25.2570 S   0  0  0  0  0  0  0  0  0  0  0  0
    8.5269  -15.4611   24.4440 C   0  0  0  0  0  0  0  0  0  0  0  0
    7.6609  -16.3068   24.0285 O   0  0  0  0  0  0  0  0  0  0  0  0
   11.6999  -17.2287   24.1281 O   0  0  0  0  0  0  0  0  0  0  0  0
   10.4865  -17.8566   24.2959 C   0  0  0  0  0  0  0  0  0  0  0  0
    9.7504  -17.3801   25.5233 C   0  0  2  0  0  0  0  0  0  0  0  0
    9.4629  -15.9463   25.3688 N   0  0  0  0  0  0  0  0  0  0  0  0
   10.6337  -17.5928   26.6902 C   0  0  0  0  0  0  0  0  0  0  0  0
   11.0176  -18.7381   27.0091 O   0  0  0  0  0  0  0  0  0  0  0  0
   11.0420  -16.5131   27.4395 O   0  0  0  0  0  0  0  0  0  0  0  0
  2  1  1  6
  2  7  1  0
  3  4  1  0
  3  2  1  0
  5  4  1  0
  6  5  2  0
  7 10  1  0
  7  8  2  0
  9  5  1  0
 10 11  1  0
 11 14  1  0
 12 13  1  0
 11 12  1  1
 14 15  2  0
 14 19  1  0
 16 17  1  0
 18 20  1  0
 18 17  1  6
 19 18  1  0
 20 22  1  0
 21 20  2  0
M  END
$$$$
