ECS.pdb
     RDKit          3D

 22 21  0  0  1  0  0  0  0  0999 V2000
   15.3740  -16.5283   16.6697 N   0  0  0  0  0  0  0  0  0  0  0  0
   15.6974  -17.0334   17.9901 C   0  0  1  0  0  0  0  0  0  0  0  0
   16.6007  -16.0714   18.6803 C   0  0  0  0  0  0  0  0  0  0  0  0
   16.0088  -14.7282   18.9899 C   0  0  0  0  0  0  0  0  0  0  0  0
   16.9671  -13.8159   19.6162 C   0  0  0  0  0  0  0  0  0  0  0  0
   16.9553  -13.6327   20.8572 O   0  0  0  0  0  0  0  0  0  0  0  0
   14.4362  -17.2817   18.7127 C   0  0  0  0  0  0  0  0  0  0  0  0
   13.3575  -16.8263   18.2639 O   0  0  0  0  0  0  0  0  0  0  0  0
   17.9094  -13.1305   18.8708 O   0  0  0  0  0  0  0  0  0  0  0  0
   14.3600  -18.0252   19.9198 N   0  0  0  0  0  0  0  0  0  0  0  0
   13.0608  -18.2809   20.5758 C   0  0  1  0  0  0  0  0  0  0  0  0
   13.1493  -19.7154   21.1125 C   0  0  0  0  0  0  0  0  0  0  0  0
   11.8099  -20.0852   22.2546 S   0  0  0  0  0  0  0  0  0  0  0  0
   12.9401  -17.3739   21.7459 C   0  0  0  0  0  0  0  0  0  0  0  0
   14.0000  -16.9935   22.3539 O   0  0  0  0  0  0  0  0  0  0  0  0
    9.2742  -16.0995   23.3457 O   0  0  0  0  0  0  0  0  0  0  0  0
   10.3513  -15.2430   23.3795 C   0  0  0  0  0  0  0  0  0  0  0  0
   11.6721  -15.9709   23.4097 C   0  0  2  0  0  0  0  0  0  0  0  0
   11.7303  -16.8819   22.2569 N   0  0  0  0  0  0  0  0  0  0  0  0
   11.7308  -16.7471   24.6672 C   0  0  0  0  0  0  0  0  0  0  0  0
   11.6503  -17.9937   24.6609 O   0  0  0  0  0  0  0  0  0  0  0  0
   11.8768  -16.0882   25.8666 O   0  0  0  0  0  0  0  0  0  0  0  0
  2  1  1  6
  2  7  1  0
  3  4  1  0
  3  2  1  0
  5  4  1  0
  6  5  2  0
  7 10  1  0
  7  8  2  0
  9  5  1  0
 10 11  1  0
 11 14  1  0
 12 13  1  0
 11 12  1  1
 14 15  2  0
 14 19  1  0
 16 17  1  0
 18 20  1  0
 18 17  1  1
 19 18  1  0
 20 22  1  0
 21 20  2  0
M  END
$$$$
