ECS.pdb
     RDKit          3D

 22 21  0  0  1  0  0  0  0  0999 V2000
   -3.2611  -28.6242   29.1044 N   0  0  0  0  0  0  0  0  0  0  0  0
   -2.3259  -27.5322   29.2948 C   0  0  1  0  0  0  0  0  0  0  0  0
   -2.9872  -26.4432   30.0658 C   0  0  0  0  0  0  0  0  0  0  0  0
   -4.0961  -25.7230   29.3572 C   0  0  0  0  0  0  0  0  0  0  0  0
   -4.6034  -24.5770   30.1135 C   0  0  0  0  0  0  0  0  0  0  0  0
   -4.2328  -24.3788   31.2955 O   0  0  0  0  0  0  0  0  0  0  0  0
   -1.1163  -28.0668   29.9469 C   0  0  0  0  0  0  0  0  0  0  0  0
   -1.1339  -29.2128   30.4556 O   0  0  0  0  0  0  0  0  0  0  0  0
   -5.4997  -23.6814   29.5585 O   0  0  0  0  0  0  0  0  0  0  0  0
    0.1045  -27.3479   30.0396 N   0  0  0  0  0  0  0  0  0  0  0  0
    1.3314  -27.9936   30.5510 C   0  0  1  0  0  0  0  0  0  0  0  0
    1.5618  -29.2095   29.6441 C   0  0  0  0  0  0  0  0  0  0  0  0
    3.1752  -29.9543   29.9225 S   0  0  0  0  0  0  0  0  0  0  0  0
    2.4708  -27.0628   30.3468 C   0  0  0  0  0  0  0  0  0  0  0  0
    2.5343  -26.3802   29.2661 O   0  0  0  0  0  0  0  0  0  0  0  0
    5.9050  -27.1160   32.6265 O   0  0  0  0  0  0  0  0  0  0  0  0
    5.4870  -25.8622   32.2414 C   0  0  0  0  0  0  0  0  0  0  0  0
    4.5972  -25.8947   31.0239 C   0  0  2  0  0  0  0  0  0  0  0  0
    3.5133  -26.8593   31.2625 N   0  0  0  0  0  0  0  0  0  0  0  0
    5.4189  -26.3357   29.8761 C   0  0  0  0  0  0  0  0  0  0  0  0
    5.1637  -27.3975   29.2694 O   0  0  0  0  0  0  0  0  0  0  0  0
    6.4835  -25.5657   29.4665 O   0  0  0  0  0  0  0  0  0  0  0  0
  2  1  1  1
  2  7  1  0
  3  4  1  0
  3  2  1  0
  5  4  1  0
  6  5  2  0
  7 10  1  0
  7  8  2  0
  9  5  1  0
 10 11  1  0
 11 14  1  0
 12 13  1  0
 11 12  1  6
 14 15  2  0
 14 19  1  0
 16 17  1  0
 18 20  1  0
 18 17  1  1
 19 18  1  0
 20 22  1  0
 21 20  2  0
M  END
$$$$
