ECS.pdb
     RDKit          3D

 22 21  0  0  1  0  0  0  0  0999 V2000
    9.0331  -16.8059   17.2021 N   0  0  0  0  0  0  0  0  0  0  0  0
    9.1274  -17.6863   18.3507 C   0  0  1  0  0  0  0  0  0  0  0  0
   10.0766  -18.7935   18.0488 C   0  0  0  0  0  0  0  0  0  0  0  0
   11.4881  -18.3802   17.7535 C   0  0  0  0  0  0  0  0  0  0  0  0
   12.3583  -19.5148   17.4400 C   0  0  0  0  0  0  0  0  0  0  0  0
   12.2312  -20.1354   16.3572 O   0  0  0  0  0  0  0  0  0  0  0  0
    9.5151  -16.8791   19.5222 C   0  0  0  0  0  0  0  0  0  0  0  0
   10.2923  -15.9051   19.3819 O   0  0  0  0  0  0  0  0  0  0  0  0
   13.3409  -19.9387   18.3164 O   0  0  0  0  0  0  0  0  0  0  0  0
    9.0524  -17.1396   20.8389 N   0  0  0  0  0  0  0  0  0  0  0  0
    9.5253  -16.3358   21.9852 C   0  0  1  0  0  0  0  0  0  0  0  0
    8.3778  -16.3609   23.0032 C   0  0  0  0  0  0  0  0  0  0  0  0
    8.8278  -15.5370   24.5374 S   0  0  0  0  0  0  0  0  0  0  0  0
   10.6830  -17.0337   22.6010 C   0  0  0  0  0  0  0  0  0  0  0  0
   10.6925  -18.3128   22.6411 O   0  0  0  0  0  0  0  0  0  0  0  0
   14.2632  -15.9360   22.0812 O   0  0  0  0  0  0  0  0  0  0  0  0
   14.2073  -16.3629   23.3886 C   0  0  0  0  0  0  0  0  0  0  0  0
   12.9500  -17.1383   23.6937 C   0  0  2  0  0  0  0  0  0  0  0  0
   11.8004  -16.3946   23.1575 N   0  0  0  0  0  0  0  0  0  0  0  0
   12.8346  -17.2505   25.1639 C   0  0  0  0  0  0  0  0  0  0  0  0
   11.8840  -16.7228   25.7791 O   0  0  0  0  0  0  0  0  0  0  0  0
   13.7887  -17.9476   25.8693 O   0  0  0  0  0  0  0  0  0  0  0  0
  2  1  1  6
  2  7  1  0
  3  4  1  0
  3  2  1  0
  5  4  1  0
  6  5  2  0
  7 10  1  0
  7  8  2  0
  9  5  1  0
 10 11  1  0
 11 14  1  0
 12 13  1  0
 11 12  1  1
 14 15  2  0
 14 19  1  0
 16 17  1  0
 18 20  1  0
 18 17  1  1
 19 18  1  0
 20 22  1  0
 21 20  2  0
M  END
$$$$
