ECS.pdb
     RDKit          3D

 22 21  0  0  1  0  0  0  0  0999 V2000
   -1.9752  -23.6786   24.4648 N   0  0  0  0  0  0  0  0  0  0  0  0
   -3.3683  -23.9849   24.7273 C   0  0  1  0  0  0  0  0  0  0  0  0
   -3.6298  -25.4150   24.4046 C   0  0  0  0  0  0  0  0  0  0  0  0
   -2.6511  -26.4009   24.9706 C   0  0  0  0  0  0  0  0  0  0  0  0
   -2.9344  -27.7788   24.5658 C   0  0  0  0  0  0  0  0  0  0  0  0
   -2.9510  -28.0959   23.3521 O   0  0  0  0  0  0  0  0  0  0  0  0
   -3.6639  -23.6320   26.1282 C   0  0  0  0  0  0  0  0  0  0  0  0
   -2.8152  -23.8578   27.0232 O   0  0  0  0  0  0  0  0  0  0  0  0
   -3.1911  -28.7697   25.4962 O   0  0  0  0  0  0  0  0  0  0  0  0
   -4.8834  -23.0351   26.5434 N   0  0  0  0  0  0  0  0  0  0  0  0
   -5.1209  -22.6962   27.9621 C   0  0  1  0  0  0  0  0  0  0  0  0
   -5.1053  -21.1634   28.0243 C   0  0  0  0  0  0  0  0  0  0  0  0
   -5.5552  -20.5564   29.6565 S   0  0  0  0  0  0  0  0  0  0  0  0
   -6.4894  -23.1433   28.3278 C   0  0  0  0  0  0  0  0  0  0  0  0
   -7.4652  -22.8734   27.5452 O   0  0  0  0  0  0  0  0  0  0  0  0
   -7.3135  -25.0097   31.9113 O   0  0  0  0  0  0  0  0  0  0  0  0
   -8.1310  -25.3551   30.8590 C   0  0  0  0  0  0  0  0  0  0  0  0
   -8.1877  -24.2895   29.7929 C   0  0  2  0  0  0  0  0  0  0  0  0
   -6.8150  -23.8581   29.4897 N   0  0  0  0  0  0  0  0  0  0  0  0
   -8.9644  -23.1524   30.3324 C   0  0  0  0  0  0  0  0  0  0  0  0
   -8.4470  -22.0234   30.4676 O   0  0  0  0  0  0  0  0  0  0  0  0
  -10.2797  -23.3375   30.6923 O   0  0  0  0  0  0  0  0  0  0  0  0
  2  1  1  1
  2  7  1  0
  3  4  1  0
  3  2  1  0
  5  4  1  0
  6  5  2  0
  7 10  1  0
  7  8  2  0
  9  5  1  0
 10 11  1  0
 11 14  1  0
 12 13  1  0
 11 12  1  6
 14 15  2  0
 14 19  1  0
 16 17  1  0
 18 20  1  0
 18 17  1  1
 19 18  1  0
 20 22  1  0
 21 20  2  0
M  END
$$$$
