ECS.pdb
     RDKit          3D

 22 21  0  0  1  0  0  0  0  0999 V2000
    7.6940  -16.8365   16.2574 N   0  0  0  0  0  0  0  0  0  0  0  0
    8.4517  -17.4247   17.3451 C   0  0  1  0  0  0  0  0  0  0  0  0
    9.7977  -17.8262   16.8501 C   0  0  0  0  0  0  0  0  0  0  0  0
    9.8099  -18.8304   15.7357 C   0  0  0  0  0  0  0  0  0  0  0  0
   11.1636  -19.1978   15.3170 C   0  0  0  0  0  0  0  0  0  0  0  0
   11.7678  -18.5223   14.4495 O   0  0  0  0  0  0  0  0  0  0  0  0
    8.4959  -16.4558   18.4558 C   0  0  0  0  0  0  0  0  0  0  0  0
    8.2203  -15.2506   18.2465 O   0  0  0  0  0  0  0  0  0  0  0  0
   11.8179  -20.2906   15.8564 O   0  0  0  0  0  0  0  0  0  0  0  0
    8.8403  -16.8081   19.7874 N   0  0  0  0  0  0  0  0  0  0  0  0
    8.8525  -15.7957   20.8638 C   0  0  1  0  0  0  0  0  0  0  0  0
    7.3921  -15.3546   21.0267 C   0  0  0  0  0  0  0  0  0  0  0  0
    6.3092  -16.7467   21.3798 S   0  0  0  0  0  0  0  0  0  0  0  0
    9.2609  -16.4606   22.1277 C   0  0  0  0  0  0  0  0  0  0  0  0
    8.9036  -17.6708   22.3412 O   0  0  0  0  0  0  0  0  0  0  0  0
   13.5022  -16.0375   24.2658 O   0  0  0  0  0  0  0  0  0  0  0  0
   12.3262  -15.4977   23.7962 C   0  0  0  0  0  0  0  0  0  0  0  0
   11.2109  -16.5104   23.7213 C   0  0  2  0  0  0  0  0  0  0  0  0
   10.0281  -15.8609   23.1370 N   0  0  0  0  0  0  0  0  0  0  0  0
   10.9111  -16.9542   25.0999 C   0  0  0  0  0  0  0  0  0  0  0  0
    9.8415  -16.6371   25.6620 O   0  0  0  0  0  0  0  0  0  0  0  0
   11.8236  -17.7299   25.7778 O   0  0  0  0  0  0  0  0  0  0  0  0
  2  1  1  6
  2  7  1  0
  3  4  1  0
  3  2  1  0
  5  4  1  0
  6  5  2  0
  7 10  1  0
  7  8  2  0
  9  5  1  0
 10 11  1  0
 11 14  1  0
 12 13  1  0
 11 12  1  1
 14 15  2  0
 14 19  1  0
 16 17  1  0
 18 20  1  0
 18 17  1  1
 19 18  1  0
 20 22  1  0
 21 20  2  0
M  END
$$$$
