ECS.pdb
     RDKit          3D

 22 21  0  0  1  0  0  0  0  0999 V2000
    8.2539  -12.6860   18.8485 N   0  0  0  0  0  0  0  0  0  0  0  0
    7.3939  -13.4946   19.6911 C   0  0  1  0  0  0  0  0  0  0  0  0
    7.1919  -14.8272   19.0577 C   0  0  0  0  0  0  0  0  0  0  0  0
    8.4411  -15.5965   18.7446 C   0  0  0  0  0  0  0  0  0  0  0  0
    8.1688  -16.8917   18.1190 C   0  0  0  0  0  0  0  0  0  0  0  0
    6.9921  -17.2368   17.8543 O   0  0  0  0  0  0  0  0  0  0  0  0
    7.9959  -13.5648   21.0353 C   0  0  0  0  0  0  0  0  0  0  0  0
    9.2421  -13.5167   21.1664 O   0  0  0  0  0  0  0  0  0  0  0  0
    9.1874  -17.7717   17.8009 O   0  0  0  0  0  0  0  0  0  0  0  0
    7.2347  -13.6869   22.2275 N   0  0  0  0  0  0  0  0  0  0  0  0
    7.8953  -13.8451   23.5398 C   0  0  1  0  0  0  0  0  0  0  0  0
    6.8220  -13.5035   24.5815 C   0  0  0  0  0  0  0  0  0  0  0  0
    7.3863  -13.8376   26.2563 S   0  0  0  0  0  0  0  0  0  0  0  0
    8.2488  -15.2769   23.7169 C   0  0  0  0  0  0  0  0  0  0  0  0
    7.3903  -16.1752   23.4106 O   0  0  0  0  0  0  0  0  0  0  0  0
   12.1168  -17.2076   23.9682 O   0  0  0  0  0  0  0  0  0  0  0  0
   10.8814  -17.5795   23.4881 C   0  0  0  0  0  0  0  0  0  0  0  0
    9.7552  -17.1743   24.4061 C   0  0  2  0  0  0  0  0  0  0  0  0
    9.4782  -15.7444   24.2034 N   0  0  0  0  0  0  0  0  0  0  0  0
   10.2004  -17.4079   25.7969 C   0  0  0  0  0  0  0  0  0  0  0  0
   10.2421  -16.4750   26.6268 O   0  0  0  0  0  0  0  0  0  0  0  0
   10.5758  -18.6731   26.1871 O   0  0  0  0  0  0  0  0  0  0  0  0
  2  1  1  6
  2  7  1  0
  3  4  1  0
  3  2  1  0
  5  4  1  0
  6  5  2  0
  7 10  1  0
  7  8  2  0
  9  5  1  0
 10 11  1  0
 11 14  1  0
 12 13  1  0
 11 12  1  1
 14 15  2  0
 14 19  1  0
 16 17  1  0
 18 20  1  0
 18 17  1  6
 19 18  1  0
 20 22  1  0
 21 20  2  0
M  END
$$$$
