RWT.pdb
     RDKit          3D

 33 34  0  0  1  0  0  0  0  0999 V2000
   19.8358  -17.1778  -16.6518 N   0  0  0  0  0  0  0  0  0  0  0  0
   20.0862  -17.2199  -15.2406 C   0  0  0  0  0  0  0  0  0  0  0  0
   19.3799  -18.0034  -14.5149 N   0  0  0  0  0  0  0  0  0  0  0  0
   21.0901  -16.4149  -14.6517 N   0  0  0  0  0  0  0  0  0  0  0  0
   22.3908  -16.2771  -15.2456 C   0  0  0  0  0  0  0  0  0  0  0  0
   22.7750  -17.5923  -15.8754 C   0  0  0  0  0  0  0  0  0  0  0  0
   24.2699  -17.8233  -15.8307 C   0  0  0  0  0  0  0  0  0  0  0  0
   24.8360  -17.7391  -14.4525 C   0  0  2  0  0  0  0  0  0  0  0  0
   25.3286  -16.4071  -14.2207 N   0  0  0  0  0  0  0  0  0  0  0  0
   25.9229  -18.7661  -14.3342 C   0  0  0  0  0  0  0  0  0  0  0  0
   27.0654  -18.5678  -14.8201 O   0  0  0  0  0  0  0  0  0  0  0  0
   19.5584  -18.0502  -13.4933 N   0  0  0  0  0  0  0  0  0  0  0  0
   25.7251  -20.0076  -13.6744 C   0  0  2  0  0  0  0  0  0  0  0  0
   26.7202  -21.0515  -13.5571 C   0  0  0  0  0  0  0  0  0  0  0  0
   26.5762  -21.8847  -12.3510 C   0  0  0  0  0  0  0  0  0  0  0  0
   26.4415  -21.2623  -11.0585 C   0  0  0  0  0  0  0  0  0  0  0  0
   25.2706  -20.7241  -10.5244 N   0  0  0  0  0  0  0  0  0  0  0  0
   25.4974  -20.2285   -9.3102 C   0  0  0  0  0  0  0  0  0  0  0  0
   26.7930  -20.4206   -9.0154 C   0  0  0  0  0  0  0  0  0  0  0  0
   27.4876  -20.0767   -7.8776 C   0  0  0  0  0  0  0  0  0  0  0  0
   28.8251  -20.3655   -7.7746 C   0  0  0  0  0  0  0  0  0  0  0  0
   29.4446  -20.9989   -8.8231 C   0  0  0  0  0  0  0  0  0  0  0  0
   28.7339  -21.3394   -9.9617 C   0  0  0  0  0  0  0  0  0  0  0  0
   27.3914  -21.0673  -10.1043 C   0  0  0  0  0  0  0  0  0  0  0  0
   27.0498  -21.7192  -14.8272 O   0  0  0  0  0  0  0  0  0  0  0  0
   26.1268  -22.2272  -15.5501 C   0  0  0  0  0  0  0  0  0  0  0  0
   31.1346  -22.4034  -16.0745 C   0  0  2  0  0  0  0  0  0  0  0  0
   30.0923  -22.0280  -17.0725 O   0  0  0  0  0  0  0  0  0  0  0  0
   30.3984  -22.4806  -18.3247 C   0  0  1  0  0  0  0  0  0  0  0  0
   28.6995  -22.4262  -16.5995 N   0  0  0  0  0  0  0  0  0  0  0  0
   28.3846  -21.8343  -15.3270 C   0  0  0  0  0  0  0  0  0  0  0  0
   28.5873  -23.8847  -16.6623 O   0  0  0  0  0  0  0  0  0  0  0  0
   28.7555  -24.6298  -17.8145 O   0  0  0  0  0  0  0  0  0  0  0  0
  1  2  1  0
  2  4  1  0
  2  3  2  0
  4  5  1  0
  6  5  1  0
  7  6  1  0
  8  7  1  0
  8  9  1  6
 10  8  1  0
 10 11  2  0
 12 10  1  0
 13 12  1  0
 13 14  1  1
 15 16  2  0
 15 14  1  0
 17 16  1  0
 18 23  2  0
 18 17  1  0
 19 18  1  0
 20 21  1  0
 20 19  2  0
 21 22  2  0
 22 23  1  0
 23 15  1  0
 24 13  1  0
 25 24  2  0
 27 26  1  6
 27 28  1  0
 29 30  1  6
 29 27  1  0
 30 24  1  0
 31 29  1  0
 32 31  1  0
 33 31  2  0
M  END
$$$$
