RWT.pdb
     RDKit          3D

 33 34  0  0  1  0  0  0  0  0999 V2000
   26.9570  -22.2095  -20.8533 N   0  0  0  0  0  0  0  0  0  0  0  0
   25.7901  -21.5976  -20.2876 C   0  0  0  0  0  0  0  0  0  0  0  0
   24.6376  -21.9917  -20.6825 N   0  0  0  0  0  0  0  0  0  0  0  0
   25.8990  -20.5773  -19.3131 N   0  0  0  0  0  0  0  0  0  0  0  0
   27.1753  -20.1325  -18.8267 C   0  0  0  0  0  0  0  0  0  0  0  0
   27.7392  -21.1918  -17.9136 C   0  0  0  0  0  0  0  0  0  0  0  0
   26.8823  -21.3887  -16.6819 C   0  0  0  0  0  0  0  0  0  0  0  0
   27.4049  -22.4446  -15.7658 C   0  0  2  0  0  0  0  0  0  0  0  0
   27.1749  -23.7389  -16.3510 N   0  0  0  0  0  0  0  0  0  0  0  0
   26.7109  -22.2967  -14.4442 C   0  0  0  0  0  0  0  0  0  0  0  0
   25.5434  -22.7280  -14.2670 O   0  0  0  0  0  0  0  0  0  0  0  0
   23.7852  -21.5800  -20.2565 N   0  0  0  0  0  0  0  0  0  0  0  0
   27.3265  -21.6673  -13.3303 C   0  0  2  0  0  0  0  0  0  0  0  0
   26.6497  -21.3090  -12.1026 C   0  0  0  0  0  0  0  0  0  0  0  0
   27.5535  -20.8694  -11.0258 C   0  0  0  0  0  0  0  0  0  0  0  0
   27.0123  -20.4594   -9.7548 C   0  0  0  0  0  0  0  0  0  0  0  0
   25.6957  -20.0683   -9.5108 N   0  0  0  0  0  0  0  0  0  0  0  0
   25.5335  -19.7535   -8.2278 C   0  0  0  0  0  0  0  0  0  0  0  0
   26.7100  -19.9236   -7.6037 C   0  0  0  0  0  0  0  0  0  0  0  0
   27.0304  -19.7234   -6.2798 C   0  0  0  0  0  0  0  0  0  0  0  0
   28.3085  -19.9575   -5.8385 C   0  0  0  0  0  0  0  0  0  0  0  0
   29.2475  -20.3914   -6.7409 C   0  0  0  0  0  0  0  0  0  0  0  0
   28.9115  -20.5889   -8.0696 C   0  0  0  0  0  0  0  0  0  0  0  0
   27.6412  -20.3654   -8.5522 C   0  0  0  0  0  0  0  0  0  0  0  0
   25.3915  -20.5700  -12.2983 O   0  0  0  0  0  0  0  0  0  0  0  0
   25.4098  -19.3244  -12.5823 C   0  0  0  0  0  0  0  0  0  0  0  0
   22.9603  -20.3312  -14.8354 C   0  0  2  0  0  0  0  0  0  0  0  0
   22.1746  -20.7985  -13.6575 O   0  0  0  0  0  0  0  0  0  0  0  0
   21.8314  -22.1166  -13.7635 C   0  0  2  0  0  0  0  0  0  0  0  0
   22.8725  -20.4493  -12.3486 N   0  0  0  0  0  0  0  0  0  0  0  0
   24.1021  -21.1795  -12.1947 C   0  0  0  0  0  0  0  0  0  0  0  0
   21.9097  -20.5969  -11.2555 O   0  0  0  0  0  0  0  0  0  0  0  0
   20.7743  -19.8222  -11.1079 O   0  0  0  0  0  0  0  0  0  0  0  0
  1  2  1  0
  2  4  1  0
  2  3  2  0
  4  5  1  0
  6  5  1  0
  7  6  1  0
  8  7  1  0
  8  9  1  6
 10  8  1  0
 10 11  2  0
 12 10  1  0
 13 12  1  0
 13 14  1  6
 15 16  2  0
 15 14  1  0
 17 16  1  0
 18 23  2  0
 18 17  1  0
 19 18  1  0
 20 21  1  0
 20 19  2  0
 21 22  2  0
 22 23  1  0
 23 15  1  0
 24 13  1  0
 25 24  2  0
 27 26  1  6
 27 28  1  0
 29 30  1  1
 29 27  1  0
 30 24  1  0
 31 29  1  0
 32 31  1  0
 33 31  2  0
M  END
$$$$
