RWT.pdb
     RDKit          3D

 33 34  0  0  1  0  0  0  0  0999 V2000
   27.3207  -17.3763  -18.1693 N   0  0  0  0  0  0  0  0  0  0  0  0
   28.7476  -17.3218  -18.0389 C   0  0  0  0  0  0  0  0  0  0  0  0
   29.4125  -16.6038  -18.8647 N   0  0  0  0  0  0  0  0  0  0  0  0
   29.4171  -18.0440  -17.0227 N   0  0  0  0  0  0  0  0  0  0  0  0
   28.7667  -18.3886  -15.7892 C   0  0  0  0  0  0  0  0  0  0  0  0
   27.2770  -18.4183  -16.0214 C   0  0  0  0  0  0  0  0  0  0  0  0
   26.6070  -19.5289  -15.2418 C   0  0  0  0  0  0  0  0  0  0  0  0
   27.5238  -20.2053  -14.2779 C   0  0  2  0  0  0  0  0  0  0  0  0
   28.0583  -21.3955  -14.8845 N   0  0  0  0  0  0  0  0  0  0  0  0
   26.7437  -20.5130  -13.0342 C   0  0  0  0  0  0  0  0  0  0  0  0
   25.5095  -20.7484  -13.0780 O   0  0  0  0  0  0  0  0  0  0  0  0
   30.4463  -16.5585  -18.7822 N   0  0  0  0  0  0  0  0  0  0  0  0
   27.3484  -20.5548  -11.7502 C   0  0  2  0  0  0  0  0  0  0  0  0
   26.6385  -20.7607  -10.5063 C   0  0  0  0  0  0  0  0  0  0  0  0
   27.4765  -20.6068   -9.3048 C   0  0  0  0  0  0  0  0  0  0  0  0
   26.8682  -20.6055   -7.9986 C   0  0  0  0  0  0  0  0  0  0  0  0
   25.6079  -21.1111   -7.6794 N   0  0  0  0  0  0  0  0  0  0  0  0
   25.3561  -20.9496   -6.3826 C   0  0  0  0  0  0  0  0  0  0  0  0
   26.4171  -20.3472   -5.8224 C   0  0  0  0  0  0  0  0  0  0  0  0
   26.6166  -19.9763   -4.5117 C   0  0  0  0  0  0  0  0  0  0  0  0
   27.7870  -19.3634   -4.1409 C   0  0  0  0  0  0  0  0  0  0  0  0
   28.7420  -19.1328   -5.0996 C   0  0  0  0  0  0  0  0  0  0  0  0
   28.5284  -19.5113   -6.4143 C   0  0  0  0  0  0  0  0  0  0  0  0
   27.3684  -20.1283   -6.8270 C   0  0  0  0  0  0  0  0  0  0  0  0
   25.2803  -20.1929  -10.4831 O   0  0  0  0  0  0  0  0  0  0  0  0
   25.1027  -18.9485  -10.2541 C   0  0  0  0  0  0  0  0  0  0  0  0
   22.8376  -19.7686  -13.2299 C   0  0  2  0  0  0  0  0  0  0  0  0
   22.1845  -20.6259  -12.1994 O   0  0  0  0  0  0  0  0  0  0  0  0
   22.1524  -21.9392  -12.5742 C   0  0  2  0  0  0  0  0  0  0  0  0
   22.7888  -20.3960  -10.8195 N   0  0  0  0  0  0  0  0  0  0  0  0
   24.1032  -20.9706  -10.7162 C   0  0  0  0  0  0  0  0  0  0  0  0
   21.8247  -20.8399   -9.8109 O   0  0  0  0  0  0  0  0  0  0  0  0
   20.5529  -20.3178   -9.6662 O   0  0  0  0  0  0  0  0  0  0  0  0
  1  2  1  0
  2  4  1  0
  2  3  2  0
  4  5  1  0
  6  5  1  0
  7  6  1  0
  8  7  1  0
  8  9  1  6
 10  8  1  0
 10 11  2  0
 12 10  1  0
 13 12  1  0
 13 14  1  1
 15 16  2  0
 15 14  1  0
 17 16  1  0
 18 23  2  0
 18 17  1  0
 19 18  1  0
 20 21  1  0
 20 19  2  0
 21 22  2  0
 22 23  1  0
 23 15  1  0
 24 13  1  0
 25 24  2  0
 27 26  1  6
 27 28  1  0
 29 30  1  1
 29 27  1  0
 30 24  1  0
 31 29  1  0
 32 31  1  0
 33 31  2  0
M  END
$$$$
