RWT.pdb
     RDKit          3D

 33 34  0  0  1  0  0  0  0  0999 V2000
   30.4353  -26.3159  -16.3791 N   0  0  0  0  0  0  0  0  0  0  0  0
   30.5798  -25.7305  -17.6801 C   0  0  0  0  0  0  0  0  0  0  0  0
   31.4604  -26.2118  -18.4754 N   0  0  0  0  0  0  0  0  0  0  0  0
   29.7719  -24.6420  -18.0860 N   0  0  0  0  0  0  0  0  0  0  0  0
   28.7654  -24.0875  -17.2240 C   0  0  0  0  0  0  0  0  0  0  0  0
   29.4466  -23.3268  -16.1145 C   0  0  0  0  0  0  0  0  0  0  0  0
   28.5278  -23.1122  -14.9313 C   0  0  0  0  0  0  0  0  0  0  0  0
   27.4525  -22.1120  -15.1969 C   0  0  2  0  0  0  0  0  0  0  0  0
   28.0511  -20.8458  -15.5271 N   0  0  0  0  0  0  0  0  0  0  0  0
   26.5910  -22.0212  -13.9724 C   0  0  0  0  0  0  0  0  0  0  0  0
   26.0264  -23.0372  -13.4934 O   0  0  0  0  0  0  0  0  0  0  0  0
   31.5473  -25.8232  -19.4340 N   0  0  0  0  0  0  0  0  0  0  0  0
   26.3660  -20.7953  -13.2922 C   0  0  1  0  0  0  0  0  0  0  0  0
   25.4743  -20.6243  -12.1656 C   0  0  0  0  0  0  0  0  0  0  0  0
   26.0693  -19.8902  -11.0357 C   0  0  0  0  0  0  0  0  0  0  0  0
   27.1719  -20.4632  -10.3062 C   0  0  0  0  0  0  0  0  0  0  0  0
   28.2232  -21.2000  -10.8520 N   0  0  0  0  0  0  0  0  0  0  0  0
   29.0702  -21.5797   -9.8983 C   0  0  0  0  0  0  0  0  0  0  0  0
   28.6132  -21.1159   -8.7242 C   0  0  0  0  0  0  0  0  0  0  0  0
   29.1493  -21.2568   -7.4640 C   0  0  0  0  0  0  0  0  0  0  0  0
   28.5169  -20.6992   -6.3813 C   0  0  0  0  0  0  0  0  0  0  0  0
   27.3500  -20.0058   -6.5855 C   0  0  0  0  0  0  0  0  0  0  0  0
   26.8219  -19.8717   -7.8585 C   0  0  0  0  0  0  0  0  0  0  0  0
   27.4253  -20.4158   -8.9704 C   0  0  0  0  0  0  0  0  0  0  0  0
   24.0824  -20.3195  -12.5360 O   0  0  0  0  0  0  0  0  0  0  0  0
   23.7647  -19.1563  -12.9586 C   0  0  0  0  0  0  0  0  0  0  0  0
   22.0024  -21.5919  -15.2456 C   0  0  2  0  0  0  0  0  0  0  0  0
   21.2234  -21.8767  -14.0066 O   0  0  0  0  0  0  0  0  0  0  0  0
   21.2130  -23.2092  -13.7054 C   0  0  2  0  0  0  0  0  0  0  0  0
   21.6712  -20.9899  -12.8511 N   0  0  0  0  0  0  0  0  0  0  0  0
   23.0243  -21.2783  -12.4577 C   0  0  0  0  0  0  0  0  0  0  0  0
   20.6716  -21.0769  -11.7848 O   0  0  0  0  0  0  0  0  0  0  0  0
   19.3334  -20.7695  -11.9449 O   0  0  0  0  0  0  0  0  0  0  0  0
  1  2  1  0
  2  4  1  0
  2  3  2  0
  4  5  1  0
  6  5  1  0
  7  6  1  0
  8  7  1  0
  8  9  1  1
 10  8  1  0
 10 11  2  0
 12 10  1  0
 13 12  1  0
 13 14  1  1
 15 16  2  0
 15 14  1  0
 17 16  1  0
 18 23  2  0
 18 17  1  0
 19 18  1  0
 20 21  1  0
 20 19  2  0
 21 22  2  0
 22 23  1  0
 23 15  1  0
 24 13  1  0
 25 24  2  0
 27 26  1  6
 27 28  1  0
 29 30  1  1
 29 27  1  0
 30 24  1  0
 31 29  1  0
 32 31  1  0
 33 31  2  0
M  END
$$$$
