RWT.pdb
     RDKit          3D

 33 34  0  0  1  0  0  0  0  0999 V2000
   29.2560  -21.7569  -18.1430 N   0  0  0  0  0  0  0  0  0  0  0  0
   28.1276  -22.4861  -18.6440 C   0  0  0  0  0  0  0  0  0  0  0  0
   28.3075  -23.3091  -19.6083 N   0  0  0  0  0  0  0  0  0  0  0  0
   26.8371  -22.3063  -18.0920 N   0  0  0  0  0  0  0  0  0  0  0  0
   26.5979  -21.3803  -17.0201 C   0  0  0  0  0  0  0  0  0  0  0  0
   27.4641  -21.7660  -15.8475 C   0  0  0  0  0  0  0  0  0  0  0  0
   26.6595  -22.4136  -14.7413 C   0  0  0  0  0  0  0  0  0  0  0  0
   25.6184  -21.5115  -14.1673 C   0  0  2  0  0  0  0  0  0  0  0  0
   25.8637  -20.1627  -14.6047 N   0  0  0  0  0  0  0  0  0  0  0  0
   25.6718  -21.6336  -12.6733 C   0  0  0  0  0  0  0  0  0  0  0  0
   25.5439  -22.7469  -12.1033 O   0  0  0  0  0  0  0  0  0  0  0  0
   27.4931  -23.8191  -20.0010 N   0  0  0  0  0  0  0  0  0  0  0  0
   25.8668  -20.5105  -11.8267 C   0  0  1  0  0  0  0  0  0  0  0  0
   25.8881  -20.5566  -10.3807 C   0  0  0  0  0  0  0  0  0  0  0  0
   26.8430  -19.6194   -9.7647 C   0  0  0  0  0  0  0  0  0  0  0  0
   27.8402  -20.1081   -8.8466 C   0  0  0  0  0  0  0  0  0  0  0  0
   28.7819  -21.1030   -9.1104 N   0  0  0  0  0  0  0  0  0  0  0  0
   29.5509  -21.3108   -8.0443 C   0  0  0  0  0  0  0  0  0  0  0  0
   29.1484  -20.4795   -7.0699 C   0  0  0  0  0  0  0  0  0  0  0  0
   29.6399  -20.3324   -5.7923 C   0  0  0  0  0  0  0  0  0  0  0  0
   29.0789  -19.4140   -4.9411 C   0  0  0  0  0  0  0  0  0  0  0  0
   28.0276  -18.6549   -5.3915 C   0  0  0  0  0  0  0  0  0  0  0  0
   27.5433  -18.8129   -6.6791 C   0  0  0  0  0  0  0  0  0  0  0  0
   28.0781  -19.7229   -7.5637 C   0  0  0  0  0  0  0  0  0  0  0  0
   24.5613  -20.7042   -9.7600 O   0  0  0  0  0  0  0  0  0  0  0  0
   23.5249  -20.2126  -10.3229 C   0  0  0  0  0  0  0  0  0  0  0  0
   23.8474  -23.3232   -6.3773 C   0  0  2  0  0  0  0  0  0  0  0  0
   23.1596  -22.0037   -6.4721 O   0  0  0  0  0  0  0  0  0  0  0  0
   23.7135  -21.0783   -5.6335 C   0  0  2  0  0  0  0  0  0  0  0  0
   23.0515  -21.5347   -7.9180 N   0  0  0  0  0  0  0  0  0  0  0  0
   24.3474  -21.3940   -8.5258 C   0  0  0  0  0  0  0  0  0  0  0  0
   22.2031  -20.3420   -7.9568 O   0  0  0  0  0  0  0  0  0  0  0  0
   22.6339  -19.0928   -8.3629 O   0  0  0  0  0  0  0  0  0  0  0  0
  1  2  1  0
  2  4  1  0
  2  3  2  0
  4  5  1  0
  6  5  1  0
  7  6  1  0
  8  7  1  0
  8  9  1  1
 10  8  1  0
 10 11  2  0
 12 10  1  0
 13 12  1  0
 13 14  1  1
 15 16  2  0
 15 14  1  0
 17 16  1  0
 18 23  2  0
 18 17  1  0
 19 18  1  0
 20 21  1  0
 20 19  2  0
 21 22  2  0
 22 23  1  0
 23 15  1  0
 24 13  1  0
 25 24  2  0
 27 26  1  1
 27 28  1  0
 29 30  1  6
 29 27  1  0
 30 24  1  0
 31 29  1  0
 32 31  1  0
 33 31  2  0
M  END
$$$$
