RWT.pdb
     RDKit          3D

 33 34  0  0  1  0  0  0  0  0999 V2000
   30.3424  -21.2883  -17.6585 N   0  0  0  0  0  0  0  0  0  0  0  0
   30.4926  -19.9770  -18.2189 C   0  0  0  0  0  0  0  0  0  0  0  0
   31.1168  -19.8519  -19.3299 N   0  0  0  0  0  0  0  0  0  0  0  0
   29.9669  -18.8376  -17.5647 N   0  0  0  0  0  0  0  0  0  0  0  0
   29.3100  -18.9357  -16.2910 C   0  0  0  0  0  0  0  0  0  0  0  0
   27.8601  -19.2801  -16.5215 C   0  0  0  0  0  0  0  0  0  0  0  0
   27.1535  -19.6372  -15.2317 C   0  0  0  0  0  0  0  0  0  0  0  0
   27.7617  -20.8078  -14.5339 C   0  0  2  0  0  0  0  0  0  0  0  0
   27.8034  -21.9296  -15.4340 N   0  0  0  0  0  0  0  0  0  0  0  0
   26.9387  -21.0993  -13.3142 C   0  0  0  0  0  0  0  0  0  0  0  0
   25.7389  -21.4632  -13.4068 O   0  0  0  0  0  0  0  0  0  0  0  0
   31.2243  -18.9089  -19.7501 N   0  0  0  0  0  0  0  0  0  0  0  0
   27.4622  -20.9814  -11.9997 C   0  0  2  0  0  0  0  0  0  0  0  0
   26.6802  -21.0683  -10.7854 C   0  0  0  0  0  0  0  0  0  0  0  0
   27.4822  -21.0229   -9.5508 C   0  0  0  0  0  0  0  0  0  0  0  0
   26.8330  -20.8408   -8.2774 C   0  0  0  0  0  0  0  0  0  0  0  0
   25.4836  -21.0652   -8.0042 N   0  0  0  0  0  0  0  0  0  0  0  0
   25.2163  -20.7992   -6.7278 C   0  0  0  0  0  0  0  0  0  0  0  0
   26.3540  -20.4010   -6.1366 C   0  0  0  0  0  0  0  0  0  0  0  0
   26.5703  -20.0212   -4.8310 C   0  0  0  0  0  0  0  0  0  0  0  0
   27.8249  -19.6433   -4.4236 C   0  0  0  0  0  0  0  0  0  0  0  0
   28.8461  -19.6538   -5.3409 C   0  0  0  0  0  0  0  0  0  0  0  0
   28.6146  -20.0383   -6.6508 C   0  0  0  0  0  0  0  0  0  0  0  0
   27.3711  -20.4242   -7.0994 C   0  0  0  0  0  0  0  0  0  0  0  0
   25.4186  -20.3102  -10.8222 O   0  0  0  0  0  0  0  0  0  0  0  0
   25.4127  -19.0519  -10.6004 C   0  0  0  0  0  0  0  0  0  0  0  0
   23.4632  -19.1730  -13.4475 C   0  0  2  0  0  0  0  0  0  0  0  0
   22.5004  -20.0099  -12.6756 O   0  0  0  0  0  0  0  0  0  0  0  0
   22.2451  -21.1991  -13.2978 C   0  0  2  0  0  0  0  0  0  0  0  0
   22.9327  -20.1584  -11.2218 N   0  0  0  0  0  0  0  0  0  0  0  0
   24.1529  -20.9113  -11.1080 C   0  0  0  0  0  0  0  0  0  0  0  0
   21.7993  -20.6729  -10.4508 O   0  0  0  0  0  0  0  0  0  0  0  0
   20.6059  -19.9975  -10.2757 O   0  0  0  0  0  0  0  0  0  0  0  0
  1  2  1  0
  2  4  1  0
  2  3  2  0
  4  5  1  0
  6  5  1  0
  7  6  1  0
  8  7  1  0
  8  9  1  6
 10  8  1  0
 10 11  2  0
 12 10  1  0
 13 12  1  0
 13 14  1  1
 15 16  2  0
 15 14  1  0
 17 16  1  0
 18 23  2  0
 18 17  1  0
 19 18  1  0
 20 21  1  0
 20 19  2  0
 21 22  2  0
 22 23  1  0
 23 15  1  0
 24 13  1  0
 25 24  2  0
 27 26  1  6
 27 28  1  0
 29 30  1  1
 29 27  1  0
 30 24  1  0
 31 29  1  0
 32 31  1  0
 33 31  2  0
M  END
$$$$
