RWT.pdb
     RDKit          3D

 33 34  0  0  1  0  0  0  0  0999 V2000
   30.6307  -23.7954  -20.5446 N   0  0  0  0  0  0  0  0  0  0  0  0
   30.9855  -22.5738  -19.8830 C   0  0  0  0  0  0  0  0  0  0  0  0
   31.7267  -21.7332  -20.5024 N   0  0  0  0  0  0  0  0  0  0  0  0
   30.5325  -22.2938  -18.5720 N   0  0  0  0  0  0  0  0  0  0  0  0
   29.7771  -23.2525  -17.8146 C   0  0  0  0  0  0  0  0  0  0  0  0
   28.3176  -23.0991  -18.1615 C   0  0  0  0  0  0  0  0  0  0  0  0
   27.4436  -23.0790  -16.9262 C   0  0  0  0  0  0  0  0  0  0  0  0
   27.5143  -21.7897  -16.1780 C   0  0  2  0  0  0  0  0  0  0  0  0
   28.8817  -21.5222  -15.8185 N   0  0  0  0  0  0  0  0  0  0  0  0
   26.6308  -21.9049  -14.9713 C   0  0  0  0  0  0  0  0  0  0  0  0
   25.4289  -22.2596  -15.0724 O   0  0  0  0  0  0  0  0  0  0  0  0
   32.0380  -20.8719  -20.0136 N   0  0  0  0  0  0  0  0  0  0  0  0
   27.0966  -21.6221  -13.6602 C   0  0  1  0  0  0  0  0  0  0  0  0
   26.3026  -21.7368  -12.4560 C   0  0  0  0  0  0  0  0  0  0  0  0
   27.0980  -21.8571  -11.2222 C   0  0  0  0  0  0  0  0  0  0  0  0
   26.6283  -21.2524  -10.0015 C   0  0  0  0  0  0  0  0  0  0  0  0
   25.3207  -20.8443   -9.7377 N   0  0  0  0  0  0  0  0  0  0  0  0
   25.2323  -20.3265   -8.5148 C   0  0  0  0  0  0  0  0  0  0  0  0
   26.4494  -20.3767   -7.9504 C   0  0  0  0  0  0  0  0  0  0  0  0
   26.8477  -19.9589   -6.7005 C   0  0  0  0  0  0  0  0  0  0  0  0
   28.1562  -20.1008   -6.3126 C   0  0  0  0  0  0  0  0  0  0  0  0
   29.0467  -20.6636   -7.1927 C   0  0  0  0  0  0  0  0  0  0  0  0
   28.6325  -21.0797   -8.4468 C   0  0  0  0  0  0  0  0  0  0  0  0
   27.3293  -20.9550   -8.8742 C   0  0  0  0  0  0  0  0  0  0  0  0
   25.1104  -20.8732  -12.4323 O   0  0  0  0  0  0  0  0  0  0  0  0
   25.2318  -19.6044  -12.3424 C   0  0  0  0  0  0  0  0  0  0  0  0
   23.1009  -19.5049  -14.7231 C   0  0  2  0  0  0  0  0  0  0  0  0
   22.1048  -20.2709  -13.9205 O   0  0  0  0  0  0  0  0  0  0  0  0
   21.6809  -21.3947  -14.5715 C   0  0  2  0  0  0  0  0  0  0  0  0
   22.6121  -20.5345  -12.5079 N   0  0  0  0  0  0  0  0  0  0  0  0
   23.7757  -21.3798  -12.5139 C   0  0  0  0  0  0  0  0  0  0  0  0
   21.4916  -21.0086  -11.6933 O   0  0  0  0  0  0  0  0  0  0  0  0
   20.3532  -20.2700  -11.4295 O   0  0  0  0  0  0  0  0  0  0  0  0
  1  2  1  0
  2  4  1  0
  2  3  2  0
  4  5  1  0
  6  5  1  0
  7  6  1  0
  8  7  1  0
  8  9  1  1
 10  8  1  0
 10 11  2  0
 12 10  1  0
 13 12  1  0
 13 14  1  1
 15 16  2  0
 15 14  1  0
 17 16  1  0
 18 23  2  0
 18 17  1  0
 19 18  1  0
 20 21  1  0
 20 19  2  0
 21 22  2  0
 22 23  1  0
 23 15  1  0
 24 13  1  0
 25 24  2  0
 27 26  1  6
 27 28  1  0
 29 30  1  1
 29 27  1  0
 30 24  1  0
 31 29  1  0
 32 31  1  0
 33 31  2  0
M  END
$$$$
