RWT.pdb
     RDKit          3D

 33 34  0  0  1  0  0  0  0  0999 V2000
   28.9562  -16.7216  -18.3395 N   0  0  0  0  0  0  0  0  0  0  0  0
   30.0047  -17.5519  -17.8226 C   0  0  0  0  0  0  0  0  0  0  0  0
   31.0059  -17.8165  -18.5757 N   0  0  0  0  0  0  0  0  0  0  0  0
   29.9433  -18.0746  -16.5090 N   0  0  0  0  0  0  0  0  0  0  0  0
   28.8351  -17.7970  -15.6382 C   0  0  0  0  0  0  0  0  0  0  0  0
   27.6860  -18.6965  -16.0186 C   0  0  0  0  0  0  0  0  0  0  0  0
   26.9486  -19.2138  -14.8025 C   0  0  0  0  0  0  0  0  0  0  0  0
   27.4321  -20.5504  -14.3475 C   0  0  2  0  0  0  0  0  0  0  0  0
   27.2018  -21.5189  -15.3865 N   0  0  0  0  0  0  0  0  0  0  0  0
   26.7037  -20.9014  -13.0841 C   0  0  0  0  0  0  0  0  0  0  0  0
   25.5523  -21.4055  -13.1117 O   0  0  0  0  0  0  0  0  0  0  0  0
   31.7661  -18.4254  -18.2167 N   0  0  0  0  0  0  0  0  0  0  0  0
   27.2670  -20.6857  -11.7987 C   0  0  2  0  0  0  0  0  0  0  0  0
   26.5701  -20.8794  -10.5455 C   0  0  0  0  0  0  0  0  0  0  0  0
   27.4440  -20.8380   -9.3605 C   0  0  0  0  0  0  0  0  0  0  0  0
   26.8673  -20.8560   -8.0402 C   0  0  0  0  0  0  0  0  0  0  0  0
   25.6220  -21.3818   -7.6953 N   0  0  0  0  0  0  0  0  0  0  0  0
   25.3993  -21.2346   -6.3915 C   0  0  0  0  0  0  0  0  0  0  0  0
   26.4651  -20.6221   -5.8517 C   0  0  0  0  0  0  0  0  0  0  0  0
   26.6909  -20.2593   -4.5430 C   0  0  0  0  0  0  0  0  0  0  0  0
   27.8613  -19.6333   -4.1950 C   0  0  0  0  0  0  0  0  0  0  0  0
   28.7898  -19.3814   -5.1742 C   0  0  0  0  0  0  0  0  0  0  0  0
   28.5498  -19.7519   -6.4866 C   0  0  0  0  0  0  0  0  0  0  0  0
   27.3889  -20.3816   -6.8768 C   0  0  0  0  0  0  0  0  0  0  0  0
   25.2636  -20.2049  -10.4687 O   0  0  0  0  0  0  0  0  0  0  0  0
   25.1824  -18.9944  -10.0679 C   0  0  0  0  0  0  0  0  0  0  0  0
   23.0045  -19.5039  -13.3378 C   0  0  2  0  0  0  0  0  0  0  0  0
   22.1897  -20.2465  -12.3339 O   0  0  0  0  0  0  0  0  0  0  0  0
   21.9491  -21.5336  -12.7236 C   0  0  2  0  0  0  0  0  0  0  0  0
   22.7861  -20.1298  -10.9364 N   0  0  0  0  0  0  0  0  0  0  0  0
   24.0342  -20.8373  -10.8342 C   0  0  0  0  0  0  0  0  0  0  0  0
   21.7625  -20.5115   -9.9616 O   0  0  0  0  0  0  0  0  0  0  0  0
   20.5551  -19.8571   -9.8036 O   0  0  0  0  0  0  0  0  0  0  0  0
  1  2  1  0
  2  4  1  0
  2  3  2  0
  4  5  1  0
  6  5  1  0
  7  6  1  0
  8  7  1  0
  8  9  1  6
 10  8  1  0
 10 11  2  0
 12 10  1  0
 13 12  1  0
 13 14  1  1
 15 16  2  0
 15 14  1  0
 17 16  1  0
 18 23  2  0
 18 17  1  0
 19 18  1  0
 20 21  1  0
 20 19  2  0
 21 22  2  0
 22 23  1  0
 23 15  1  0
 24 13  1  0
 25 24  2  0
 27 26  1  6
 27 28  1  0
 29 30  1  1
 29 27  1  0
 30 24  1  0
 31 29  1  0
 32 31  1  0
 33 31  2  0
M  END
$$$$
