RWT.pdb
     RDKit          3D

 33 34  0  0  1  0  0  0  0  0999 V2000
   30.1321  -19.0658  -20.0407 N   0  0  0  0  0  0  0  0  0  0  0  0
   31.1114  -19.5395  -19.1066 C   0  0  0  0  0  0  0  0  0  0  0  0
   32.2956  -19.0555  -19.1603 N   0  0  0  0  0  0  0  0  0  0  0  0
   30.7864  -20.5225  -18.1419 N   0  0  0  0  0  0  0  0  0  0  0  0
   29.4277  -20.9208  -17.8995 C   0  0  0  0  0  0  0  0  0  0  0  0
   28.7318  -19.8215  -17.1372 C   0  0  0  0  0  0  0  0  0  0  0  0
   27.7178  -20.3701  -16.1568 C   0  0  0  0  0  0  0  0  0  0  0  0
   28.2641  -21.4590  -15.2948 C   0  0  2  0  0  0  0  0  0  0  0  0
   28.3071  -22.6851  -16.0469 N   0  0  0  0  0  0  0  0  0  0  0  0
   27.3868  -21.5759  -14.0838 C   0  0  0  0  0  0  0  0  0  0  0  0
   26.2636  -22.1376  -14.1419 O   0  0  0  0  0  0  0  0  0  0  0  0
   32.9958  -19.3428  -18.4499 N   0  0  0  0  0  0  0  0  0  0  0  0
   27.7708  -21.0636  -12.8165 C   0  0  2  0  0  0  0  0  0  0  0  0
   26.9530  -21.1052  -11.6235 C   0  0  0  0  0  0  0  0  0  0  0  0
   27.6917  -20.8270  -10.3799 C   0  0  0  0  0  0  0  0  0  0  0  0
   26.9728  -20.5872   -9.1544 C   0  0  0  0  0  0  0  0  0  0  0  0
   25.5908  -20.4464   -9.0273 N   0  0  0  0  0  0  0  0  0  0  0  0
   25.2592  -20.2343   -7.7560 C   0  0  0  0  0  0  0  0  0  0  0  0
   26.3856  -20.2291   -7.0254 C   0  0  0  0  0  0  0  0  0  0  0  0
   26.5436  -20.0474   -5.6698 C   0  0  0  0  0  0  0  0  0  0  0  0
   27.7975  -20.0776   -5.1134 C   0  0  0  0  0  0  0  0  0  0  0  0
   28.8771  -20.2911   -5.9340 C   0  0  0  0  0  0  0  0  0  0  0  0
   28.7038  -20.4725   -7.2958 C   0  0  0  0  0  0  0  0  0  0  0  0
   27.4630  -20.4494   -7.8929 C   0  0  0  0  0  0  0  0  0  0  0  0
   25.6160  -20.5103  -11.7850 O   0  0  0  0  0  0  0  0  0  0  0  0
   25.4842  -19.2514  -11.9587 C   0  0  0  0  0  0  0  0  0  0  0  0
   21.1482  -20.7114  -13.5578 C   0  0  2  0  0  0  0  0  0  0  0  0
   22.5039  -21.2781  -13.3048 O   0  0  0  0  0  0  0  0  0  0  0  0
   23.3158  -21.1661  -14.3978 C   0  0  1  0  0  0  0  0  0  0  0  0
   23.1136  -20.7142  -12.0271 N   0  0  0  0  0  0  0  0  0  0  0  0
   24.4104  -21.2791  -11.7667 C   0  0  0  0  0  0  0  0  0  0  0  0
   22.1360  -20.8529  -10.9459 O   0  0  0  0  0  0  0  0  0  0  0  0
   21.1516  -19.9248  -10.6623 O   0  0  0  0  0  0  0  0  0  0  0  0
  1  2  1  0
  2  4  1  0
  2  3  2  0
  4  5  1  0
  6  5  1  0
  7  6  1  0
  8  7  1  0
  8  9  1  6
 10  8  1  0
 10 11  2  0
 12 10  1  0
 13 12  1  0
 13 14  1  1
 15 16  2  0
 15 14  1  0
 17 16  1  0
 18 23  2  0
 18 17  1  0
 19 18  1  0
 20 21  1  0
 20 19  2  0
 21 22  2  0
 22 23  1  0
 23 15  1  0
 24 13  1  0
 25 24  2  0
 27 26  1  6
 27 28  1  0
 29 30  1  1
 29 27  1  0
 30 24  1  0
 31 29  1  0
 32 31  1  0
 33 31  2  0
M  END
$$$$
