RWT.pdb
     RDKit          3D

 33 34  0  0  1  0  0  0  0  0999 V2000
   23.2045  -22.9149  -16.9980 N   0  0  0  0  0  0  0  0  0  0  0  0
   23.0912  -21.8366  -17.9363 C   0  0  0  0  0  0  0  0  0  0  0  0
   22.0193  -21.7362  -18.6295 N   0  0  0  0  0  0  0  0  0  0  0  0
   24.1373  -20.8982  -18.1017 N   0  0  0  0  0  0  0  0  0  0  0  0
   25.3103  -20.9228  -17.2727 C   0  0  0  0  0  0  0  0  0  0  0  0
   26.4009  -21.6657  -18.0026 C   0  0  0  0  0  0  0  0  0  0  0  0
   27.1284  -22.6338  -17.0950 C   0  0  0  0  0  0  0  0  0  0  0  0
   27.6281  -21.9993  -15.8400 C   0  0  2  0  0  0  0  0  0  0  0  0
   28.8305  -22.6662  -15.4156 N   0  0  0  0  0  0  0  0  0  0  0  0
   26.5426  -22.0930  -14.8090 C   0  0  0  0  0  0  0  0  0  0  0  0
   26.0332  -23.1986  -14.4947 O   0  0  0  0  0  0  0  0  0  0  0  0
   21.9590  -21.0132  -19.3720 N   0  0  0  0  0  0  0  0  0  0  0  0
   26.0336  -20.9504  -14.1373 C   0  0  2  0  0  0  0  0  0  0  0  0
   25.0086  -20.9776  -13.1164 C   0  0  0  0  0  0  0  0  0  0  0  0
   25.4713  -20.5352  -11.7898 C   0  0  0  0  0  0  0  0  0  0  0  0
   26.8559  -20.6903  -11.4222 C   0  0  0  0  0  0  0  0  0  0  0  0
   27.9307  -20.8112  -12.3032 N   0  0  0  0  0  0  0  0  0  0  0  0
   29.0721  -20.9389  -11.6307 C   0  0  0  0  0  0  0  0  0  0  0  0
   28.7900  -20.9070  -10.3184 C   0  0  0  0  0  0  0  0  0  0  0  0
   29.6426  -21.0031   -9.2418 C   0  0  0  0  0  0  0  0  0  0  0  0
   29.1457  -20.9480   -7.9639 C   0  0  0  0  0  0  0  0  0  0  0  0
   27.7925  -20.7963   -7.7896 C   0  0  0  0  0  0  0  0  0  0  0  0
   26.9464  -20.7007   -8.8815 C   0  0  0  0  0  0  0  0  0  0  0  0
   27.4049  -20.7515  -10.1790 C   0  0  0  0  0  0  0  0  0  0  0  0
   23.6844  -20.5271  -13.5758 O   0  0  0  0  0  0  0  0  0  0  0  0
   23.5006  -19.3136  -13.9311 C   0  0  0  0  0  0  0  0  0  0  0  0
   20.2941  -23.2416  -13.9252 C   0  0  2  0  0  0  0  0  0  0  0  0
   20.4849  -22.0513  -14.8028 O   0  0  0  0  0  0  0  0  0  0  0  0
   19.3091  -21.6342  -15.3596 C   0  0  1  0  0  0  0  0  0  0  0  0
   21.2495  -20.9464  -14.0840 N   0  0  0  0  0  0  0  0  0  0  0  0
   22.5496  -21.3931  -13.6607 C   0  0  0  0  0  0  0  0  0  0  0  0
   20.3944  -20.4017  -13.0276 O   0  0  0  0  0  0  0  0  0  0  0  0
   19.1865  -19.7682  -13.2527 O   0  0  0  0  0  0  0  0  0  0  0  0
  1  2  1  0
  2  4  1  0
  2  3  2  0
  4  5  1  0
  6  5  1  0
  7  6  1  0
  8  7  1  0
  8  9  1  1
 10  8  1  0
 10 11  2  0
 12 10  1  0
 13 12  1  0
 13 14  1  6
 15 16  2  0
 15 14  1  0
 17 16  1  0
 18 23  2  0
 18 17  1  0
 19 18  1  0
 20 21  1  0
 20 19  2  0
 21 22  2  0
 22 23  1  0
 23 15  1  0
 24 13  1  0
 25 24  2  0
 27 26  1  6
 27 28  1  0
 29 30  1  6
 29 27  1  0
 30 24  1  0
 31 29  1  0
 32 31  1  0
 33 31  2  0
M  END
$$$$
