RWT.pdb
     RDKit          3D

 33 34  0  0  1  0  0  0  0  0999 V2000
   31.6166  -22.4487  -18.9931 N   0  0  0  0  0  0  0  0  0  0  0  0
   30.8078  -21.3175  -18.6434 C   0  0  0  0  0  0  0  0  0  0  0  0
   30.5417  -20.4502  -19.5471 N   0  0  0  0  0  0  0  0  0  0  0  0
   30.3101  -21.1527  -17.3290 N   0  0  0  0  0  0  0  0  0  0  0  0
   29.5361  -20.0019  -16.9547 C   0  0  0  0  0  0  0  0  0  0  0  0
   28.0742  -20.3246  -17.1352 C   0  0  0  0  0  0  0  0  0  0  0  0
   27.3646  -20.4864  -15.8084 C   0  0  0  0  0  0  0  0  0  0  0  0
   27.8774  -21.6346  -15.0046 C   0  0  2  0  0  0  0  0  0  0  0  0
   27.7774  -22.8417  -15.7814 N   0  0  0  0  0  0  0  0  0  0  0  0
   27.0715  -21.7133  -13.7420 C   0  0  0  0  0  0  0  0  0  0  0  0
   25.9280  -22.2357  -13.7278 O   0  0  0  0  0  0  0  0  0  0  0  0
   30.9048  -20.5901  -20.5095 N   0  0  0  0  0  0  0  0  0  0  0  0
   27.5489  -21.2070  -12.5044 C   0  0  2  0  0  0  0  0  0  0  0  0
   26.7856  -21.1669  -11.2758 C   0  0  0  0  0  0  0  0  0  0  0  0
   27.5983  -20.9188  -10.0726 C   0  0  0  0  0  0  0  0  0  0  0  0
   26.9635  -20.4954   -8.8504 C   0  0  0  0  0  0  0  0  0  0  0  0
   25.5945  -20.3088   -8.6581 N   0  0  0  0  0  0  0  0  0  0  0  0
   25.3487  -19.9148   -7.4109 C   0  0  0  0  0  0  0  0  0  0  0  0
   26.5201  -19.8319   -6.7601 C   0  0  0  0  0  0  0  0  0  0  0  0
   26.7680  -19.4668   -5.4560 C   0  0  0  0  0  0  0  0  0  0  0  0
   28.0549  -19.4459   -4.9804 C   0  0  0  0  0  0  0  0  0  0  0  0
   29.0762  -19.7946   -5.8288 C   0  0  0  0  0  0  0  0  0  0  0  0
   28.8127  -20.1601   -7.1381 C   0  0  0  0  0  0  0  0  0  0  0  0
   27.5362  -20.1938   -7.6538 C   0  0  0  0  0  0  0  0  0  0  0  0
   25.4881  -20.4807  -11.3911 O   0  0  0  0  0  0  0  0  0  0  0  0
   25.4335  -19.2058  -11.4551 C   0  0  0  0  0  0  0  0  0  0  0  0
   20.9946  -20.5584  -13.2514 C   0  0  2  0  0  0  0  0  0  0  0  0
   22.3292  -21.1654  -12.9799 O   0  0  0  0  0  0  0  0  0  0  0  0
   23.1187  -21.1813  -14.0947 C   0  0  1  0  0  0  0  0  0  0  0  0
   22.9942  -20.5281  -11.7659 N   0  0  0  0  0  0  0  0  0  0  0  0
   24.2387  -21.1741  -11.4457 C   0  0  0  0  0  0  0  0  0  0  0  0
   22.0157  -20.4686  -10.6785 O   0  0  0  0  0  0  0  0  0  0  0  0
   21.0803  -19.4621  -10.5267 O   0  0  0  0  0  0  0  0  0  0  0  0
  1  2  1  0
  2  4  1  0
  2  3  2  0
  4  5  1  0
  6  5  1  0
  7  6  1  0
  8  7  1  0
  8  9  1  6
 10  8  1  0
 10 11  2  0
 12 10  1  0
 13 12  1  0
 13 14  1  1
 15 16  2  0
 15 14  1  0
 17 16  1  0
 18 23  2  0
 18 17  1  0
 19 18  1  0
 20 21  1  0
 20 19  2  0
 21 22  2  0
 22 23  1  0
 23 15  1  0
 24 13  1  0
 25 24  2  0
 27 26  1  6
 27 28  1  0
 29 30  1  1
 29 27  1  0
 30 24  1  0
 31 29  1  0
 32 31  1  0
 33 31  2  0
M  END
$$$$
