RWT.pdb
     RDKit          3D

 33 34  0  0  1  0  0  0  0  0999 V2000
   32.0003  -23.9907  -17.3365 N   0  0  0  0  0  0  0  0  0  0  0  0
   32.3072  -24.0043  -15.9359 C   0  0  0  0  0  0  0  0  0  0  0  0
   33.4693  -24.3942  -15.5659 N   0  0  0  0  0  0  0  0  0  0  0  0
   31.3519  -23.5984  -14.9740 N   0  0  0  0  0  0  0  0  0  0  0  0
   30.0231  -23.2039  -15.3511 C   0  0  0  0  0  0  0  0  0  0  0  0
   29.9294  -21.7003  -15.2839 C   0  0  0  0  0  0  0  0  0  0  0  0
   28.6448  -21.2444  -14.6264 C   0  0  0  0  0  0  0  0  0  0  0  0
   27.6985  -22.3643  -14.3476 C   0  0  2  0  0  0  0  0  0  0  0  0
   26.8958  -22.6112  -15.5160 N   0  0  0  0  0  0  0  0  0  0  0  0
   26.8608  -21.9796  -13.1643 C   0  0  0  0  0  0  0  0  0  0  0  0
   25.6214  -21.7981  -13.2719 O   0  0  0  0  0  0  0  0  0  0  0  0
   33.6824  -24.4695  -14.5527 N   0  0  0  0  0  0  0  0  0  0  0  0
   27.4143  -21.7997  -11.8692 C   0  0  1  0  0  0  0  0  0  0  0  0
   26.6772  -21.3501  -10.7081 C   0  0  0  0  0  0  0  0  0  0  0  0
   27.5214  -21.0632   -9.5357 C   0  0  0  0  0  0  0  0  0  0  0  0
   26.9236  -20.5632   -8.3237 C   0  0  0  0  0  0  0  0  0  0  0  0
   25.5615  -20.3563   -8.1048 N   0  0  0  0  0  0  0  0  0  0  0  0
   25.3532  -19.8868   -6.8770 C   0  0  0  0  0  0  0  0  0  0  0  0
   26.5430  -19.7728   -6.2655 C   0  0  0  0  0  0  0  0  0  0  0  0
   26.8295  -19.3319   -4.9931 C   0  0  0  0  0  0  0  0  0  0  0  0
   28.1296  -19.2911   -4.5559 C   0  0  0  0  0  0  0  0  0  0  0  0
   29.1246  -19.6968   -5.4101 C   0  0  0  0  0  0  0  0  0  0  0  0
   28.8222  -20.1382   -6.6872 C   0  0  0  0  0  0  0  0  0  0  0  0
   27.5315  -20.1943   -7.1639 C   0  0  0  0  0  0  0  0  0  0  0  0
   25.5738  -20.4242  -11.0127 O   0  0  0  0  0  0  0  0  0  0  0  0
   25.8162  -19.2579  -11.4748 C   0  0  0  0  0  0  0  0  0  0  0  0
   24.5583  -19.4400  -13.3624 C   0  0  2  0  0  0  0  0  0  0  0  0
   23.2308  -19.9641  -12.9309 O   0  0  0  0  0  0  0  0  0  0  0  0
   22.9261  -21.1472  -13.5423 C   0  0  2  0  0  0  0  0  0  0  0  0
   23.1177  -20.0112  -11.4120 N   0  0  0  0  0  0  0  0  0  0  0  0
   24.1965  -20.7599  -10.8251 C   0  0  0  0  0  0  0  0  0  0  0  0
   21.7705  -20.4644  -11.0607 O   0  0  0  0  0  0  0  0  0  0  0  0
   21.4884  -21.6786  -10.4630 O   0  0  0  0  0  0  0  0  0  0  0  0
  1  2  1  0
  2  4  1  0
  2  3  2  0
  4  5  1  0
  6  5  1  0
  7  6  1  0
  8  7  1  0
  8  9  1  6
 10  8  1  0
 10 11  2  0
 12 10  1  0
 13 12  1  0
 13 14  1  1
 15 16  2  0
 15 14  1  0
 17 16  1  0
 18 23  2  0
 18 17  1  0
 19 18  1  0
 20 21  1  0
 20 19  2  0
 21 22  2  0
 22 23  1  0
 23 15  1  0
 24 13  1  0
 25 24  2  0
 27 26  1  6
 27 28  1  0
 29 30  1  1
 29 27  1  0
 30 24  1  0
 31 29  1  0
 32 31  1  0
 33 31  2  0
M  END
$$$$
