KGW.pdb
     RDKit          3D

 28 29  0  0  1  0  0  0  0  0999 V2000
    7.0182  -16.9233   20.8888 N   0  0  0  0  0  0  0  0  0  0  0  0
    8.0757  -17.3708   20.0380 C   0  0  1  0  0  0  0  0  0  0  0  0
    7.9559  -16.9117   18.6370 C   0  0  0  0  0  0  0  0  0  0  0  0
    8.0081  -15.4206   18.4957 C   0  0  0  0  0  0  0  0  0  0  0  0
    7.9449  -14.8820   17.1121 C   0  0  0  0  0  0  0  0  0  0  0  0
    7.8677  -13.3776   17.0552 C   0  0  0  0  0  0  0  0  0  0  0  0
    7.7480  -12.9944   15.6581 N   0  0  0  0  0  0  0  0  0  0  0  0
    9.4244  -16.9713   20.5844 C   0  0  0  0  0  0  0  0  0  0  0  0
   10.4783  -17.4957   20.1540 O   0  0  0  0  0  0  0  0  0  0  0  0
    9.5491  -15.9845   21.6091 N   0  0  0  0  0  0  0  0  0  0  0  0
   10.8210  -15.5815   22.1547 C   0  0  0  0  0  0  0  0  0  0  0  0
   11.0121  -15.8829   23.5757 C   0  0  0  0  0  0  0  0  0  0  0  0
   12.1094  -15.5883   24.1530 O   0  0  0  0  0  0  0  0  0  0  0  0
   10.0297  -16.5034   24.3775 N   0  0  0  0  0  0  0  0  0  0  0  0
   10.2525  -16.6882   25.8286 C   0  0  1  0  0  0  0  0  0  0  0  0
    9.7812  -15.4694   26.5358 C   0  0  0  0  0  0  0  0  0  0  0  0
    8.3724  -15.1011   26.3608 C   0  0  0  0  0  0  0  0  0  0  0  0
    7.3442  -15.9596   26.0456 C   0  0  0  0  0  0  0  0  0  0  0  0
    6.1870  -15.2850   25.9335 N   0  0  0  0  0  0  0  0  0  0  0  0
    6.4440  -13.9925   26.1724 C   0  0  0  0  0  0  0  0  0  0  0  0
    5.6587  -12.8786   26.2078 C   0  0  0  0  0  0  0  0  0  0  0  0
    6.1232  -11.6224   26.4940 C   0  0  0  0  0  0  0  0  0  0  0  0
    7.4749  -11.4774   26.7642 C   0  0  0  0  0  0  0  0  0  0  0  0
    8.2842  -12.5827   26.7342 C   0  0  0  0  0  0  0  0  0  0  0  0
    7.8019  -13.8439   26.4431 C   0  0  0  0  0  0  0  0  0  0  0  0
    9.7311  -17.9764   26.2511 C   0  0  0  0  0  0  0  0  0  0  0  0
    9.0104  -18.6509   25.4733 O   0  0  0  0  0  0  0  0  0  0  0  0
   10.0076  -18.4992   27.4977 O   0  0  0  0  0  0  0  0  0  0  0  0
  2  8  1  0
  2  1  1  1
  3  2  1  0
  4  3  1  0
  4  5  1  0
  5  6  1  0
  7  6  1  0
  8  9  2  0
 10 11  1  0
 10  8  1  0
 12 14  1  0
 12 11  1  0
 13 12  2  0
 15 14  1  0
 15 26  1  0
 15 16  1  1
 17 16  1  0
 18 17  2  0
 19 18  1  0
 20 19  1  0
 20 25  2  0
 21 20  1  0
 22 21  2  0
 22 23  1  0
 23 24  2  0
 24 25  1  0
 25 17  1  0
 26 27  2  0
 26 28  1  0
M  END
$$$$
