KGW.pdb
     RDKit          3D

 28 29  0  0  1  0  0  0  0  0999 V2000
    7.9833  -19.9791   20.9865 N   0  0  0  0  0  0  0  0  0  0  0  0
    7.5466  -19.2428   19.8421 C   0  0  1  0  0  0  0  0  0  0  0  0
    6.1086  -19.4042   19.5356 C   0  0  0  0  0  0  0  0  0  0  0  0
    5.2119  -18.9712   20.6557 C   0  0  0  0  0  0  0  0  0  0  0  0
    3.7495  -19.0479   20.4033 C   0  0  0  0  0  0  0  0  0  0  0  0
    2.9131  -18.5648   21.5607 C   0  0  0  0  0  0  0  0  0  0  0  0
    1.5160  -18.7164   21.1892 N   0  0  0  0  0  0  0  0  0  0  0  0
    7.8698  -17.7752   19.9790 C   0  0  0  0  0  0  0  0  0  0  0  0
    7.6165  -16.9676   19.0546 O   0  0  0  0  0  0  0  0  0  0  0  0
    8.4748  -17.2542   21.1630 N   0  0  0  0  0  0  0  0  0  0  0  0
    8.7174  -15.8474   21.3621 C   0  0  0  0  0  0  0  0  0  0  0  0
    9.3225  -15.4963   22.6494 C   0  0  0  0  0  0  0  0  0  0  0  0
    9.9990  -14.4230   22.7699 O   0  0  0  0  0  0  0  0  0  0  0  0
    9.2066  -16.2966   23.8065 N   0  0  0  0  0  0  0  0  0  0  0  0
   10.1394  -16.1151   24.9409 C   0  0  1  0  0  0  0  0  0  0  0  0
    9.3442  -16.0141   26.1920 C   0  0  0  0  0  0  0  0  0  0  0  0
    8.0235  -15.3842   26.0923 C   0  0  0  0  0  0  0  0  0  0  0  0
    6.8484  -16.0159   25.7554 C   0  0  0  0  0  0  0  0  0  0  0  0
    5.8327  -15.1359   25.7306 N   0  0  0  0  0  0  0  0  0  0  0  0
    6.3279  -13.9328   26.0483 C   0  0  0  0  0  0  0  0  0  0  0  0
    5.7616  -12.7005   26.1875 C   0  0  0  0  0  0  0  0  0  0  0  0
    6.4553  -11.5741   26.5427 C   0  0  0  0  0  0  0  0  0  0  0  0
    7.8162  -11.6975   26.7744 C   0  0  0  0  0  0  0  0  0  0  0  0
    8.4078  -12.9262   26.6403 C   0  0  0  0  0  0  0  0  0  0  0  0
    7.6957  -14.0537   26.2806 C   0  0  0  0  0  0  0  0  0  0  0  0
   11.2000  -17.1053   24.8751 C   0  0  0  0  0  0  0  0  0  0  0  0
   11.1556  -18.0211   24.0156 O   0  0  0  0  0  0  0  0  0  0  0  0
   12.2783  -17.0739   25.7355 O   0  0  0  0  0  0  0  0  0  0  0  0
  2  8  1  0
  2  1  1  1
  3  2  1  0
  4  3  1  0
  4  5  1  0
  5  6  1  0
  7  6  1  0
  8  9  2  0
 10 11  1  0
 10  8  1  0
 12 14  1  0
 12 11  1  0
 13 12  2  0
 15 14  1  0
 15 26  1  0
 15 16  1  1
 17 16  1  0
 18 17  2  0
 19 18  1  0
 20 19  1  0
 20 25  2  0
 21 20  1  0
 22 21  2  0
 22 23  1  0
 23 24  2  0
 24 25  1  0
 25 17  1  0
 26 27  2  0
 26 28  1  0
M  END
$$$$
