KGW.pdb
     RDKit          3D

 28 29  0  0  1  0  0  0  0  0999 V2000
    9.2110  -15.5532   18.9573 N   0  0  0  0  0  0  0  0  0  0  0  0
    8.6372  -14.7154   19.9631 C   0  0  1  0  0  0  0  0  0  0  0  0
    7.3131  -14.1633   19.6028 C   0  0  0  0  0  0  0  0  0  0  0  0
    7.3546  -13.2532   18.4128 C   0  0  0  0  0  0  0  0  0  0  0  0
    7.9731  -13.8022   17.1781 C   0  0  0  0  0  0  0  0  0  0  0  0
    7.8748  -12.8757   15.9930 C   0  0  0  0  0  0  0  0  0  0  0  0
    8.3754  -13.5912   14.8308 N   0  0  0  0  0  0  0  0  0  0  0  0
    8.5386  -15.4360   21.2853 C   0  0  0  0  0  0  0  0  0  0  0  0
    8.0560  -14.8723   22.2953 O   0  0  0  0  0  0  0  0  0  0  0  0
    8.9908  -16.7824   21.4340 N   0  0  0  0  0  0  0  0  0  0  0  0
    8.9383  -17.4898   22.6888 C   0  0  0  0  0  0  0  0  0  0  0  0
    9.6151  -16.8262   23.8060 C   0  0  0  0  0  0  0  0  0  0  0  0
   10.5680  -16.0091   23.5859 O   0  0  0  0  0  0  0  0  0  0  0  0
    9.2743  -17.0408   25.1591 N   0  0  0  0  0  0  0  0  0  0  0  0
   10.0991  -16.4600   26.2417 C   0  0  1  0  0  0  0  0  0  0  0  0
    9.1910  -15.8918   27.2715 C   0  0  0  0  0  0  0  0  0  0  0  0
    7.9900  -15.2004   26.7913 C   0  0  0  0  0  0  0  0  0  0  0  0
    6.8344  -15.7996   26.3453 C   0  0  0  0  0  0  0  0  0  0  0  0
    5.9453  -14.8711   25.9529 N   0  0  0  0  0  0  0  0  0  0  0  0
    6.5043  -13.6680   26.1369 C   0  0  0  0  0  0  0  0  0  0  0  0
    6.0630  -12.3951   25.9285 C   0  0  0  0  0  0  0  0  0  0  0  0
    6.8002  -11.2739   26.2031 C   0  0  0  0  0  0  0  0  0  0  0  0
    8.0726  -11.4469   26.7249 C   0  0  0  0  0  0  0  0  0  0  0  0
    8.5380  -12.7171   26.9428 C   0  0  0  0  0  0  0  0  0  0  0  0
    7.7835  -13.8391   26.6603 C   0  0  0  0  0  0  0  0  0  0  0  0
   11.1091  -17.4149   26.6634 C   0  0  0  0  0  0  0  0  0  0  0  0
   11.0865  -18.5922   26.2242 O   0  0  0  0  0  0  0  0  0  0  0  0
   12.1151  -17.0687   27.5420 O   0  0  0  0  0  0  0  0  0  0  0  0
  2  8  1  0
  2  1  1  6
  3  2  1  0
  4  3  1  0
  4  5  1  0
  5  6  1  0
  7  6  1  0
  8  9  2  0
 10 11  1  0
 10  8  1  0
 12 14  1  0
 12 11  1  0
 13 12  2  0
 15 14  1  0
 15 26  1  0
 15 16  1  1
 17 16  1  0
 18 17  2  0
 19 18  1  0
 20 19  1  0
 20 25  2  0
 21 20  1  0
 22 21  2  0
 22 23  1  0
 23 24  2  0
 24 25  1  0
 25 17  1  0
 26 27  2  0
 26 28  1  0
M  END
$$$$
