KGW.pdb
     RDKit          3D

 28 29  0  0  1  0  0  0  0  0999 V2000
    7.1520  -19.9941   21.7623 N   0  0  0  0  0  0  0  0  0  0  0  0
    6.6535  -19.0573   20.8050 C   0  0  1  0  0  0  0  0  0  0  0  0
    5.2749  -19.3391   20.3490 C   0  0  0  0  0  0  0  0  0  0  0  0
    5.1626  -20.5993   19.5456 C   0  0  0  0  0  0  0  0  0  0  0  0
    5.1687  -20.4474   18.0674 C   0  0  0  0  0  0  0  0  0  0  0  0
    5.0588  -21.7563   17.3277 C   0  0  0  0  0  0  0  0  0  0  0  0
    5.1591  -21.4696   15.9061 N   0  0  0  0  0  0  0  0  0  0  0  0
    6.7306  -17.6446   21.3298 C   0  0  0  0  0  0  0  0  0  0  0  0
    6.1374  -17.3118   22.3826 O   0  0  0  0  0  0  0  0  0  0  0  0
    7.4794  -16.6378   20.6479 N   0  0  0  0  0  0  0  0  0  0  0  0
    7.5664  -15.2774   21.1165 C   0  0  0  0  0  0  0  0  0  0  0  0
    8.4422  -15.0724   22.2730 C   0  0  0  0  0  0  0  0  0  0  0  0
    9.0022  -13.9435   22.4627 O   0  0  0  0  0  0  0  0  0  0  0  0
    8.7215  -16.0776   23.2241 N   0  0  0  0  0  0  0  0  0  0  0  0
    9.7346  -15.8520   24.2788 C   0  0  1  0  0  0  0  0  0  0  0  0
    9.0758  -15.9975   25.6026 C   0  0  0  0  0  0  0  0  0  0  0  0
    7.8562  -15.2149   25.8288 C   0  0  0  0  0  0  0  0  0  0  0  0
    6.5650  -15.6773   25.7173 C   0  0  0  0  0  0  0  0  0  0  0  0
    5.6891  -14.6883   25.9653 N   0  0  0  0  0  0  0  0  0  0  0  0
    6.3912  -13.5812   26.2391 C   0  0  0  0  0  0  0  0  0  0  0  0
    6.0308  -12.3088   26.5706 C   0  0  0  0  0  0  0  0  0  0  0  0
    6.9231  -11.3035   26.8334 C   0  0  0  0  0  0  0  0  0  0  0  0
    8.2748  -11.6007   26.7572 C   0  0  0  0  0  0  0  0  0  0  0  0
    8.6612  -12.8728   26.4256 C   0  0  0  0  0  0  0  0  0  0  0  0
    7.7500  -13.8768   26.1622 C   0  0  0  0  0  0  0  0  0  0  0  0
   10.9201  -16.6459   24.0067 C   0  0  0  0  0  0  0  0  0  0  0  0
   10.8913  -17.5406   23.1247 O   0  0  0  0  0  0  0  0  0  0  0  0
   12.1014  -16.4466   24.6913 O   0  0  0  0  0  0  0  0  0  0  0  0
  2  8  1  0
  2  1  1  1
  3  2  1  0
  4  3  1  0
  4  5  1  0
  5  6  1  0
  7  6  1  0
  8  9  2  0
 10 11  1  0
 10  8  1  0
 12 14  1  0
 12 11  1  0
 13 12  2  0
 15 14  1  0
 15 26  1  0
 15 16  1  1
 17 16  1  0
 18 17  2  0
 19 18  1  0
 20 19  1  0
 20 25  2  0
 21 20  1  0
 22 21  2  0
 22 23  1  0
 23 24  2  0
 24 25  1  0
 25 17  1  0
 26 27  2  0
 26 28  1  0
M  END
$$$$
