KGW.pdb
     RDKit          3D

 28 29  0  0  1  0  0  0  0  0999 V2000
    7.1090  -17.4072   20.6377 N   0  0  0  0  0  0  0  0  0  0  0  0
    8.3864  -17.6322   20.0375 C   0  0  1  0  0  0  0  0  0  0  0  0
    8.4679  -17.2135   18.6212 C   0  0  0  0  0  0  0  0  0  0  0  0
    8.5153  -15.7260   18.4450 C   0  0  0  0  0  0  0  0  0  0  0  0
    8.5099  -15.2223   17.0469 C   0  0  0  0  0  0  0  0  0  0  0  0
    8.5246  -13.7180   16.9494 C   0  0  0  0  0  0  0  0  0  0  0  0
    8.5179  -13.3671   15.5388 N   0  0  0  0  0  0  0  0  0  0  0  0
    9.4865  -16.9626   20.8238 C   0  0  0  0  0  0  0  0  0  0  0  0
   10.6873  -17.2811   20.6574 O   0  0  0  0  0  0  0  0  0  0  0  0
    9.2009  -15.9448   21.7840 N   0  0  0  0  0  0  0  0  0  0  0  0
   10.2280  -15.1472   22.4058 C   0  0  0  0  0  0  0  0  0  0  0  0
   10.4203  -15.3873   23.8383 C   0  0  0  0  0  0  0  0  0  0  0  0
   11.2749  -14.7068   24.4947 O   0  0  0  0  0  0  0  0  0  0  0  0
    9.7005  -16.3588   24.5670 N   0  0  0  0  0  0  0  0  0  0  0  0
    9.9409  -16.5405   26.0157 C   0  0  1  0  0  0  0  0  0  0  0  0
    8.6265  -16.6178   26.7045 C   0  0  0  0  0  0  0  0  0  0  0  0
    7.5858  -15.6854   26.2590 C   0  0  0  0  0  0  0  0  0  0  0  0
    6.4674  -16.0102   25.5261 C   0  0  0  0  0  0  0  0  0  0  0  0
    5.7404  -14.9098   25.2663 N   0  0  0  0  0  0  0  0  0  0  0  0
    6.3692  -13.8656   25.8213 C   0  0  0  0  0  0  0  0  0  0  0  0
    6.0840  -12.5339   25.8845 C   0  0  0  0  0  0  0  0  0  0  0  0
    6.8660  -11.6126   26.5292 C   0  0  0  0  0  0  0  0  0  0  0  0
    8.0171  -12.0646   27.1551 C   0  0  0  0  0  0  0  0  0  0  0  0
    8.3247  -13.3989   27.1048 C   0  0  0  0  0  0  0  0  0  0  0  0
    7.5269  -14.3168   26.4501 C   0  0  0  0  0  0  0  0  0  0  0  0
   10.8965  -17.6132   26.2299 C   0  0  0  0  0  0  0  0  0  0  0  0
   11.2610  -17.9098   27.3955 O   0  0  0  0  0  0  0  0  0  0  0  0
   11.4256  -18.3359   25.1803 O   0  0  0  0  0  0  0  0  0  0  0  0
  2  8  1  0
  2  1  1  1
  3  2  1  0
  4  3  1  0
  4  5  1  0
  5  6  1  0
  7  6  1  0
  8  9  2  0
 10 11  1  0
 10  8  1  0
 12 14  1  0
 12 11  1  0
 13 12  2  0
 15 14  1  0
 15 26  1  0
 15 16  1  1
 17 16  1  0
 18 17  2  0
 19 18  1  0
 20 19  1  0
 20 25  2  0
 21 20  1  0
 22 21  2  0
 22 23  1  0
 23 24  2  0
 24 25  1  0
 25 17  1  0
 26 27  2  0
 26 28  1  0
M  END
$$$$
