KGW.pdb
     RDKit          3D

 28 29  0  0  1  0  0  0  0  0999 V2000
    6.1374  -16.9166   21.4786 N   0  0  0  0  0  0  0  0  0  0  0  0
    7.4934  -16.4655   21.4874 C   0  0  1  0  0  0  0  0  0  0  0  0
    7.6380  -14.9955   21.5647 C   0  0  0  0  0  0  0  0  0  0  0  0
    7.1501  -14.2869   20.3376 C   0  0  0  0  0  0  0  0  0  0  0  0
    8.1905  -13.7313   19.4336 C   0  0  0  0  0  0  0  0  0  0  0  0
    7.6305  -12.8752   18.3263 C   0  0  0  0  0  0  0  0  0  0  0  0
    8.7488  -12.3933   17.5325 N   0  0  0  0  0  0  0  0  0  0  0  0
    8.2768  -17.1073   22.6062 C   0  0  0  0  0  0  0  0  0  0  0  0
    7.7276  -17.4062   23.6924 O   0  0  0  0  0  0  0  0  0  0  0  0
    9.6686  -17.3962   22.4690 N   0  0  0  0  0  0  0  0  0  0  0  0
   10.7002  -16.4481   22.8078 C   0  0  0  0  0  0  0  0  0  0  0  0
   10.9589  -16.2958   24.2418 C   0  0  0  0  0  0  0  0  0  0  0  0
   12.0269  -15.7296   24.6454 O   0  0  0  0  0  0  0  0  0  0  0  0
   10.0758  -16.7536   25.2436 N   0  0  0  0  0  0  0  0  0  0  0  0
   10.4199  -16.5996   26.6746 C   0  0  1  0  0  0  0  0  0  0  0  0
    9.8133  -15.3373   27.1709 C   0  0  0  0  0  0  0  0  0  0  0  0
    8.4550  -15.0265   26.7131 C   0  0  0  0  0  0  0  0  0  0  0  0
    7.4867  -15.9420   26.3702 C   0  0  0  0  0  0  0  0  0  0  0  0
    6.3685  -15.3141   25.9676 N   0  0  0  0  0  0  0  0  0  0  0  0
    6.5917  -13.9957   26.0428 C   0  0  0  0  0  0  0  0  0  0  0  0
    5.8192  -12.9044   25.7769 C   0  0  0  0  0  0  0  0  0  0  0  0
    6.2391  -11.6107   25.9379 C   0  0  0  0  0  0  0  0  0  0  0  0
    7.5290  -11.4010   26.3999 C   0  0  0  0  0  0  0  0  0  0  0  0
    8.3243  -12.4826   26.6737 C   0  0  0  0  0  0  0  0  0  0  0  0
    7.8877  -13.7822   26.5058 C   0  0  0  0  0  0  0  0  0  0  0  0
   10.1333  -17.8310   27.3896 C   0  0  0  0  0  0  0  0  0  0  0  0
   10.4545  -17.9475   28.5990 O   0  0  0  0  0  0  0  0  0  0  0  0
    9.5046  -18.8967   26.7791 O   0  0  0  0  0  0  0  0  0  0  0  0
  2  8  1  0
  2  1  1  1
  3  2  1  0
  4  3  1  0
  4  5  1  0
  5  6  1  0
  7  6  1  0
  8  9  2  0
 10 11  1  0
 10  8  1  0
 12 14  1  0
 12 11  1  0
 13 12  2  0
 15 14  1  0
 15 26  1  0
 15 16  1  1
 17 16  1  0
 18 17  2  0
 19 18  1  0
 20 19  1  0
 20 25  2  0
 21 20  1  0
 22 21  2  0
 22 23  1  0
 23 24  2  0
 24 25  1  0
 25 17  1  0
 26 27  2  0
 26 28  1  0
M  END
$$$$
