KGW.pdb
     RDKit          3D

 28 29  0  0  1  0  0  0  0  0999 V2000
   10.3603  -14.3732   18.4165 N   0  0  0  0  0  0  0  0  0  0  0  0
    9.1302  -14.1718   19.1156 C   0  0  1  0  0  0  0  0  0  0  0  0
    7.9298  -14.2453   18.2545 C   0  0  0  0  0  0  0  0  0  0  0  0
    8.1818  -13.7958   16.8472 C   0  0  0  0  0  0  0  0  0  0  0  0
    7.3603  -14.4372   15.7879 C   0  0  0  0  0  0  0  0  0  0  0  0
    7.6526  -13.9182   14.4031 C   0  0  0  0  0  0  0  0  0  0  0  0
    6.9192  -14.7444   13.4583 N   0  0  0  0  0  0  0  0  0  0  0  0
    8.9866  -15.1424   20.2621 C   0  0  0  0  0  0  0  0  0  0  0  0
    8.0487  -15.0361   21.0867 O   0  0  0  0  0  0  0  0  0  0  0  0
    9.9116  -16.2141   20.4496 N   0  0  0  0  0  0  0  0  0  0  0  0
    9.8128  -17.1491   21.5422 C   0  0  0  0  0  0  0  0  0  0  0  0
   10.2151  -16.6235   22.8493 C   0  0  0  0  0  0  0  0  0  0  0  0
   11.1251  -15.7352   22.9321 O   0  0  0  0  0  0  0  0  0  0  0  0
    9.6458  -17.0521   24.0679 N   0  0  0  0  0  0  0  0  0  0  0  0
    9.9631  -16.3511   25.3319 C   0  0  1  0  0  0  0  0  0  0  0  0
    9.5320  -14.9348   25.2053 C   0  0  0  0  0  0  0  0  0  0  0  0
    8.1329  -14.6336   25.5262 C   0  0  0  0  0  0  0  0  0  0  0  0
    7.0768  -15.5122   25.4474 C   0  0  0  0  0  0  0  0  0  0  0  0
    5.9296  -14.8990   25.7860 N   0  0  0  0  0  0  0  0  0  0  0  0
    6.2210  -13.6269   26.0869 C   0  0  0  0  0  0  0  0  0  0  0  0
    5.4636  -12.5716   26.5011 C   0  0  0  0  0  0  0  0  0  0  0  0
    5.9675  -11.3284   26.7773 C   0  0  0  0  0  0  0  0  0  0  0  0
    7.3315  -11.1339   26.6259 C   0  0  0  0  0  0  0  0  0  0  0  0
    8.1131  -12.1799   26.2104 C   0  0  0  0  0  0  0  0  0  0  0  0
    7.5909  -13.4285   25.9346 C   0  0  0  0  0  0  0  0  0  0  0  0
    9.4771  -17.1220   26.4629 C   0  0  0  0  0  0  0  0  0  0  0  0
    8.6754  -18.0725   26.2806 O   0  0  0  0  0  0  0  0  0  0  0  0
    9.8750  -16.8468   27.7551 O   0  0  0  0  0  0  0  0  0  0  0  0
  2  8  1  0
  2  1  1  6
  3  2  1  0
  4  3  1  0
  4  5  1  0
  5  6  1  0
  7  6  1  0
  8  9  2  0
 10 11  1  0
 10  8  1  0
 12 14  1  0
 12 11  1  0
 13 12  2  0
 15 14  1  0
 15 26  1  0
 15 16  1  6
 17 16  1  0
 18 17  2  0
 19 18  1  0
 20 19  1  0
 20 25  2  0
 21 20  1  0
 22 21  2  0
 22 23  1  0
 23 24  2  0
 24 25  1  0
 25 17  1  0
 26 27  2  0
 26 28  1  0
M  END
$$$$
