KGW.pdb
     RDKit          3D

 28 29  0  0  1  0  0  0  0  0999 V2000
    9.3988  -15.5122   17.4116 N   0  0  0  0  0  0  0  0  0  0  0  0
    9.0043  -14.5444   18.3864 C   0  0  1  0  0  0  0  0  0  0  0  0
    7.7622  -13.8177   18.0444 C   0  0  0  0  0  0  0  0  0  0  0  0
    7.2244  -14.1685   16.6902 C   0  0  0  0  0  0  0  0  0  0  0  0
    7.6572  -13.3062   15.5599 C   0  0  0  0  0  0  0  0  0  0  0  0
    6.8968  -13.5611   14.2834 C   0  0  0  0  0  0  0  0  0  0  0  0
    7.4208  -12.6599   13.2703 N   0  0  0  0  0  0  0  0  0  0  0  0
    8.8608  -15.1699   19.7522 C   0  0  0  0  0  0  0  0  0  0  0  0
    8.5181  -14.4857   20.7448 O   0  0  0  0  0  0  0  0  0  0  0  0
    9.1101  -16.5601   19.9634 N   0  0  0  0  0  0  0  0  0  0  0  0
    8.8531  -17.2176   21.2202 C   0  0  0  0  0  0  0  0  0  0  0  0
    9.5479  -16.6445   22.3758 C   0  0  0  0  0  0  0  0  0  0  0  0
   10.4890  -15.8020   22.2066 O   0  0  0  0  0  0  0  0  0  0  0  0
    9.2377  -16.9768   23.7123 N   0  0  0  0  0  0  0  0  0  0  0  0
    9.9475  -16.3206   24.8327 C   0  0  1  0  0  0  0  0  0  0  0  0
    9.6451  -14.8663   24.7936 C   0  0  0  0  0  0  0  0  0  0  0  0
    8.2582  -14.4676   25.0554 C   0  0  0  0  0  0  0  0  0  0  0  0
    7.1535  -15.2848   24.9841 C   0  0  0  0  0  0  0  0  0  0  0  0
    6.0363  -14.5889   25.2569 N   0  0  0  0  0  0  0  0  0  0  0  0
    6.3955  -13.3232   25.5072 C   0  0  0  0  0  0  0  0  0  0  0  0
    5.6919  -12.2061   25.8472 C   0  0  0  0  0  0  0  0  0  0  0  0
    6.2621  -10.9830   26.0810 C   0  0  0  0  0  0  0  0  0  0  0  0
    7.6392  -10.8772   25.9642 C   0  0  0  0  0  0  0  0  0  0  0  0
    8.3676  -11.9866   25.6232 C   0  0  0  0  0  0  0  0  0  0  0  0
    7.7788  -13.2140   25.3895 C   0  0  0  0  0  0  0  0  0  0  0  0
    9.7015  -17.0437   26.0681 C   0  0  0  0  0  0  0  0  0  0  0  0
    8.8454  -17.9632   26.1010 O   0  0  0  0  0  0  0  0  0  0  0  0
   10.3902  -16.7559   27.2285 O   0  0  0  0  0  0  0  0  0  0  0  0
  2  8  1  0
  2  1  1  6
  3  2  1  0
  4  3  1  0
  4  5  1  0
  5  6  1  0
  7  6  1  0
  8  9  2  0
 10 11  1  0
 10  8  1  0
 12 14  1  0
 12 11  1  0
 13 12  2  0
 15 14  1  0
 15 26  1  0
 15 16  1  1
 17 16  1  0
 18 17  2  0
 19 18  1  0
 20 19  1  0
 20 25  2  0
 21 20  1  0
 22 21  2  0
 22 23  1  0
 23 24  2  0
 24 25  1  0
 25 17  1  0
 26 27  2  0
 26 28  1  0
M  END
$$$$
