KGW.pdb
     RDKit          3D

 28 29  0  0  1  0  0  0  0  0999 V2000
    9.6016  -14.7827   18.1494 N   0  0  0  0  0  0  0  0  0  0  0  0
    8.8052  -14.0462   19.0798 C   0  0  1  0  0  0  0  0  0  0  0  0
    7.4688  -13.6747   18.5660 C   0  0  0  0  0  0  0  0  0  0  0  0
    7.4832  -13.2534   17.1278 C   0  0  0  0  0  0  0  0  0  0  0  0
    7.1585  -14.3014   16.1255 C   0  0  0  0  0  0  0  0  0  0  0  0
    6.9832  -13.7636   14.7281 C   0  0  0  0  0  0  0  0  0  0  0  0
    6.8819  -14.9000   13.8273 N   0  0  0  0  0  0  0  0  0  0  0  0
    8.6532  -14.7932   20.3822 C   0  0  0  0  0  0  0  0  0  0  0  0
    7.9821  -14.3165   21.3273 O   0  0  0  0  0  0  0  0  0  0  0  0
    9.2672  -16.0664   20.5853 N   0  0  0  0  0  0  0  0  0  0  0  0
    8.9910  -16.8923   21.7339 C   0  0  0  0  0  0  0  0  0  0  0  0
    9.7117  -16.5217   22.9545 C   0  0  0  0  0  0  0  0  0  0  0  0
   10.8036  -15.8685   22.8826 O   0  0  0  0  0  0  0  0  0  0  0  0
    9.2653  -16.8542   24.2518 N   0  0  0  0  0  0  0  0  0  0  0  0
   10.1056  -16.5580   25.4333 C   0  0  1  0  0  0  0  0  0  0  0  0
    9.7856  -15.1861   25.9060 C   0  0  0  0  0  0  0  0  0  0  0  0
    8.3662  -14.8309   26.0066 C   0  0  0  0  0  0  0  0  0  0  0  0
    7.3037  -15.6948   25.8712 C   0  0  0  0  0  0  0  0  0  0  0  0
    6.1409  -15.0316   25.9931 N   0  0  0  0  0  0  0  0  0  0  0  0
    6.4282  -13.7412   26.2078 C   0  0  0  0  0  0  0  0  0  0  0  0
    5.6550  -12.6376   26.4144 C   0  0  0  0  0  0  0  0  0  0  0  0
    6.1554  -11.3820   26.6359 C   0  0  0  0  0  0  0  0  0  0  0  0
    7.5326  -11.2268   26.6507 C   0  0  0  0  0  0  0  0  0  0  0  0
    8.3303  -12.3217   26.4451 C   0  0  0  0  0  0  0  0  0  0  0  0
    7.8117  -13.5823   26.2221 C   0  0  0  0  0  0  0  0  0  0  0  0
   10.0270  -17.6520   26.3855 C   0  0  0  0  0  0  0  0  0  0  0  0
    9.1738  -18.5618   26.2319 O   0  0  0  0  0  0  0  0  0  0  0  0
   10.8746  -17.7331   27.4713 O   0  0  0  0  0  0  0  0  0  0  0  0
  2  8  1  0
  2  1  1  6
  3  2  1  0
  4  3  1  0
  4  5  1  0
  5  6  1  0
  7  6  1  0
  8  9  2  0
 10 11  1  0
 10  8  1  0
 12 14  1  0
 12 11  1  0
 13 12  2  0
 15 14  1  0
 15 26  1  0
 15 16  1  1
 17 16  1  0
 18 17  2  0
 19 18  1  0
 20 19  1  0
 20 25  2  0
 21 20  1  0
 22 21  2  0
 22 23  1  0
 23 24  2  0
 24 25  1  0
 25 17  1  0
 26 27  2  0
 26 28  1  0
M  END
$$$$
