SEH.pdb
     RDKit          3D

 26 26  0  0  1  0  0  0  0  0999 V2000
   26.8020  -10.9470  -19.4153 O   0  0  0  0  0  0  0  0  0  0  0  0
   27.1353  -10.2497  -20.5622 C   0  0  0  0  0  0  0  0  0  0  0  0
   27.7887   -8.9128  -20.2477 C   0  0  2  0  0  0  0  0  0  0  0  0
   28.9406   -9.2223  -19.3952 N   0  0  0  0  0  0  0  0  0  0  0  0
   26.8285   -8.1570  -19.4057 C   0  0  0  0  0  0  0  0  0  0  0  0
   27.1625   -7.9416  -18.2141 O   0  0  0  0  0  0  0  0  0  0  0  0
   25.5862   -7.6746  -19.8543 N   0  0  0  0  0  0  0  0  0  0  0  0
   24.7424   -6.9253  -18.9670 C   0  0  1  0  0  0  0  0  0  0  0  0
   23.8134   -5.9887  -19.7111 C   0  0  0  0  0  0  0  0  0  0  0  0
   23.0426   -5.1016  -18.7380 C   0  0  0  0  0  0  0  0  0  0  0  0
   22.0620   -4.2520  -19.4482 C   0  0  0  0  0  0  0  0  0  0  0  0
   22.1701   -3.0207  -19.5874 O   0  0  0  0  0  0  0  0  0  0  0  0
   23.9902   -7.8171  -18.0479 C   0  0  0  0  0  0  0  0  0  0  0  0
   23.4419   -8.8254  -18.5309 O   0  0  0  0  0  0  0  0  0  0  0  0
   20.9521   -4.8838  -19.9903 O   0  0  0  0  0  0  0  0  0  0  0  0
   23.8764   -7.5650  -16.6625 N   0  0  0  0  0  0  0  0  0  0  0  0
   23.2131   -8.4214  -15.7024 C   0  0  1  0  0  0  0  0  0  0  0  0
   24.1250   -8.8149  -14.5823 C   0  0  0  0  0  0  0  0  0  0  0  0
   25.2042   -9.6785  -15.1101 C   0  0  0  0  0  0  0  0  0  0  0  0
   25.3374  -10.0930  -16.4110 C   0  0  0  0  0  0  0  0  0  0  0  0
   26.4440  -10.8571  -16.4649 N   0  0  0  0  0  0  0  0  0  0  0  0
   26.9906  -10.9224  -15.2393 C   0  0  0  0  0  0  0  0  0  0  0  0
   26.2260  -10.2007  -14.4245 N   0  0  0  0  0  0  0  0  0  0  0  0
   21.9001   -7.9100  -15.2621 C   0  0  0  0  0  0  0  0  0  0  0  0
   21.0506   -8.7541  -14.5753 O   0  0  0  0  0  0  0  0  0  0  0  0
   21.5505   -6.7469  -15.4963 O   0  0  0  0  0  0  0  0  0  0  0  0
  2  1  1  0
  3  2  1  0
  3  4  1  1
  5  7  1  0
  5  3  1  0
  6  5  2  0
  8  7  1  0
  8  9  1  6
  9 10  1  0
 10 11  1  0
 11 15  1  0
 12 11  2  0
 13  8  1  0
 14 13  2  0
 16 13  1  0
 17 16  1  0
 17 18  1  1
 19 18  1  0
 20 19  2  0
 21 22  1  0
 21 20  1  0
 22 23  2  0
 23 19  1  0
 24 17  1  0
 25 24  1  0
 26 24  2  0
M  END
$$$$
