SEH.pdb
     RDKit          3D

 26 26  0  0  1  0  0  0  0  0999 V2000
   25.6141  -22.5714  -11.7702 O   0  0  0  0  0  0  0  0  0  0  0  0
   26.7021  -21.8437  -11.3234 C   0  0  0  0  0  0  0  0  0  0  0  0
   26.3194  -20.4230  -10.9386 C   0  0  2  0  0  0  0  0  0  0  0  0
   25.1227  -20.5450  -10.1007 N   0  0  0  0  0  0  0  0  0  0  0  0
   25.8955  -19.7429  -12.1876 C   0  0  0  0  0  0  0  0  0  0  0  0
   24.6997  -19.3638  -12.2523 O   0  0  0  0  0  0  0  0  0  0  0  0
   26.7386  -19.5009  -13.2866 N   0  0  0  0  0  0  0  0  0  0  0  0
   26.2235  -18.8541  -14.4601 C   0  0  1  0  0  0  0  0  0  0  0  0
   27.3249  -18.3474  -15.3678 C   0  0  0  0  0  0  0  0  0  0  0  0
   26.7416  -17.6352  -16.5846 C   0  0  0  0  0  0  0  0  0  0  0  0
   27.8094  -17.1601  -17.4910 C   0  0  0  0  0  0  0  0  0  0  0  0
   28.4491  -16.1053  -17.3308 O   0  0  0  0  0  0  0  0  0  0  0  0
   25.2769  -19.7317  -15.1947 C   0  0  0  0  0  0  0  0  0  0  0  0
   25.5212  -20.9522  -15.2326 O   0  0  0  0  0  0  0  0  0  0  0  0
   28.1071  -17.9536  -18.5894 O   0  0  0  0  0  0  0  0  0  0  0  0
   24.1238  -19.2370  -15.8437 N   0  0  0  0  0  0  0  0  0  0  0  0
   22.7838  -19.7651  -15.6988 C   0  0  1  0  0  0  0  0  0  0  0  0
   22.3185  -19.7234  -14.2765 C   0  0  0  0  0  0  0  0  0  0  0  0
   20.9819  -20.3506  -14.1801 C   0  0  0  0  0  0  0  0  0  0  0  0
   20.2726  -20.8937  -15.2212 C   0  0  0  0  0  0  0  0  0  0  0  0
   19.1168  -21.3532  -14.7071 N   0  0  0  0  0  0  0  0  0  0  0  0
   19.0975  -21.1082  -13.3862 C   0  0  0  0  0  0  0  0  0  0  0  0
   20.2387  -20.4977  -13.0789 N   0  0  0  0  0  0  0  0  0  0  0  0
   21.8200  -19.2060  -16.6672 C   0  0  0  0  0  0  0  0  0  0  0  0
   21.0636  -20.0712  -17.4321 O   0  0  0  0  0  0  0  0  0  0  0  0
   21.6796  -17.9848  -16.8040 O   0  0  0  0  0  0  0  0  0  0  0  0
  2  1  1  0
  3  2  1  0
  3  4  1  1
  5  7  1  0
  5  3  1  0
  6  5  2  0
  8  7  1  0
  8  9  1  6
  9 10  1  0
 10 11  1  0
 11 15  1  0
 12 11  2  0
 13  8  1  0
 14 13  2  0
 16 13  1  0
 17 16  1  0
 17 18  1  1
 19 18  1  0
 20 19  2  0
 21 22  1  0
 21 20  1  0
 22 23  2  0
 23 19  1  0
 24 17  1  0
 25 24  1  0
 26 24  2  0
M  END
$$$$
