SEH.pdb
     RDKit          3D

 26 26  0  0  1  0  0  0  0  0999 V2000
   24.4823   -8.2440  -21.4813 O   0  0  0  0  0  0  0  0  0  0  0  0
   23.8762   -8.5375  -20.2733 C   0  0  0  0  0  0  0  0  0  0  0  0
   24.6145   -7.9152  -19.0983 C   0  0  2  0  0  0  0  0  0  0  0  0
   25.8507   -8.6887  -18.9488 N   0  0  0  0  0  0  0  0  0  0  0  0
   23.7962   -8.1851  -17.8900 C   0  0  0  0  0  0  0  0  0  0  0  0
   24.1776   -9.1181  -17.1404 O   0  0  0  0  0  0  0  0  0  0  0  0
   22.6373   -7.4704  -17.5387 N   0  0  0  0  0  0  0  0  0  0  0  0
   21.9276   -7.7974  -16.3345 C   0  0  1  0  0  0  0  0  0  0  0  0
   21.5740   -6.5682  -15.5236 C   0  0  0  0  0  0  0  0  0  0  0  0
   22.8175   -5.9715  -14.8711 C   0  0  0  0  0  0  0  0  0  0  0  0
   22.4644   -4.8640  -13.9565 C   0  0  0  0  0  0  0  0  0  0  0  0
   22.3178   -4.9875  -12.7275 O   0  0  0  0  0  0  0  0  0  0  0  0
   20.7263   -8.6237  -16.6175 C   0  0  0  0  0  0  0  0  0  0  0  0
   19.9727   -8.2620  -17.5406 O   0  0  0  0  0  0  0  0  0  0  0  0
   22.2881   -3.6088  -14.5207 O   0  0  0  0  0  0  0  0  0  0  0  0
   20.4124   -9.7906  -15.8857 N   0  0  0  0  0  0  0  0  0  0  0  0
   19.2614  -10.6398  -16.1077 C   0  0  1  0  0  0  0  0  0  0  0  0
   19.4307  -11.9859  -15.4749 C   0  0  0  0  0  0  0  0  0  0  0  0
   18.3247  -12.8706  -15.9026 C   0  0  0  0  0  0  0  0  0  0  0  0
   17.3216  -12.5370  -16.7769 C   0  0  0  0  0  0  0  0  0  0  0  0
   16.5292  -13.6188  -16.8915 N   0  0  0  0  0  0  0  0  0  0  0  0
   17.0159  -14.6017  -16.1157 C   0  0  0  0  0  0  0  0  0  0  0  0
   18.1087  -14.1328  -15.5196 N   0  0  0  0  0  0  0  0  0  0  0  0
   17.9750   -9.9842  -15.7999 C   0  0  0  0  0  0  0  0  0  0  0  0
   16.9275  -10.1182  -16.6891 O   0  0  0  0  0  0  0  0  0  0  0  0
   17.8207   -9.3220  -14.7668 O   0  0  0  0  0  0  0  0  0  0  0  0
  2  1  1  0
  3  2  1  0
  3  4  1  1
  5  7  1  0
  5  3  1  0
  6  5  2  0
  8  7  1  0
  8  9  1  6
  9 10  1  0
 10 11  1  0
 11 15  1  0
 12 11  2  0
 13  8  1  0
 14 13  2  0
 16 13  1  0
 17 16  1  0
 17 18  1  1
 19 18  1  0
 20 19  2  0
 21 22  1  0
 21 20  1  0
 22 23  2  0
 23 19  1  0
 24 17  1  0
 25 24  1  0
 26 24  2  0
M  END
$$$$
