SEH.pdb
     RDKit          3D

 26 26  0  0  1  0  0  0  0  0999 V2000
   15.9763  -14.0443  -17.7324 O   0  0  0  0  0  0  0  0  0  0  0  0
   16.9056  -13.1128  -17.3064 C   0  0  0  0  0  0  0  0  0  0  0  0
   18.1735  -13.7698  -16.7831 C   0  0  2  0  0  0  0  0  0  0  0  0
   17.8516  -14.2390  -15.4320 N   0  0  0  0  0  0  0  0  0  0  0  0
   19.1801  -12.6902  -16.6288 C   0  0  0  0  0  0  0  0  0  0  0  0
   19.3104  -12.1923  -15.4830 O   0  0  0  0  0  0  0  0  0  0  0  0
   19.9845  -12.1984  -17.6720 N   0  0  0  0  0  0  0  0  0  0  0  0
   20.9946  -11.2154  -17.3995 C   0  0  1  0  0  0  0  0  0  0  0  0
   22.1301  -11.2649  -18.4004 C   0  0  0  0  0  0  0  0  0  0  0  0
   23.2813  -10.3649  -17.9612 C   0  0  0  0  0  0  0  0  0  0  0  0
   24.3936  -10.4028  -18.9353 C   0  0  0  0  0  0  0  0  0  0  0  0
   24.9278   -9.3948  -19.4312 O   0  0  0  0  0  0  0  0  0  0  0  0
   20.4155   -9.8511  -17.3043 C   0  0  0  0  0  0  0  0  0  0  0  0
   19.5578   -9.5206  -18.1445 O   0  0  0  0  0  0  0  0  0  0  0  0
   24.8628  -11.6529  -19.3123 O   0  0  0  0  0  0  0  0  0  0  0  0
   20.7983   -8.9268  -16.3069 N   0  0  0  0  0  0  0  0  0  0  0  0
   20.1724   -7.6449  -16.0617 C   0  0  1  0  0  0  0  0  0  0  0  0
   18.6904   -7.7711  -15.8912 C   0  0  0  0  0  0  0  0  0  0  0  0
   18.1071   -6.4295  -15.6697 C   0  0  0  0  0  0  0  0  0  0  0  0
   17.6560   -5.9378  -14.4711 C   0  0  0  0  0  0  0  0  0  0  0  0
   17.2074   -4.6908  -14.7058 N   0  0  0  0  0  0  0  0  0  0  0  0
   17.3701   -4.4054  -16.0086 C   0  0  0  0  0  0  0  0  0  0  0  0
   17.9186   -5.4723  -16.5833 N   0  0  0  0  0  0  0  0  0  0  0  0
   20.8374   -6.8544  -15.0071 C   0  0  0  0  0  0  0  0  0  0  0  0
   20.4136   -5.5613  -14.7740 O   0  0  0  0  0  0  0  0  0  0  0  0
   21.7609   -7.3271  -14.3336 O   0  0  0  0  0  0  0  0  0  0  0  0
  2  1  1  0
  3  2  1  0
  3  4  1  1
  5  7  1  0
  5  3  1  0
  6  5  2  0
  8  7  1  0
  8  9  1  6
  9 10  1  0
 10 11  1  0
 11 15  1  0
 12 11  2  0
 13  8  1  0
 14 13  2  0
 16 13  1  0
 17 16  1  0
 17 18  1  1
 19 18  1  0
 20 19  2  0
 21 22  1  0
 21 20  1  0
 22 23  2  0
 23 19  1  0
 24 17  1  0
 25 24  1  0
 26 24  2  0
M  END
$$$$
