SEH.pdb
     RDKit          3D

 26 26  0  0  1  0  0  0  0  0999 V2000
   26.2730  -12.3923  -15.7884 O   0  0  0  0  0  0  0  0  0  0  0  0
   25.2749  -11.4792  -16.0762 C   0  0  0  0  0  0  0  0  0  0  0  0
   24.0879  -12.1305  -16.7689 C   0  0  2  0  0  0  0  0  0  0  0  0
   24.5269  -12.4037  -18.1407 N   0  0  0  0  0  0  0  0  0  0  0  0
   23.0280  -11.0958  -16.8606 C   0  0  0  0  0  0  0  0  0  0  0  0
   23.0250  -10.3728  -17.8879 O   0  0  0  0  0  0  0  0  0  0  0  0
   22.0418  -10.8790  -15.8820 N   0  0  0  0  0  0  0  0  0  0  0  0
   21.0392   -9.8712  -16.0818 C   0  0  1  0  0  0  0  0  0  0  0  0
   19.7729  -10.1573  -15.3019 C   0  0  0  0  0  0  0  0  0  0  0  0
   19.0644  -11.3923  -15.8504 C   0  0  0  0  0  0  0  0  0  0  0  0
   17.8445  -11.7006  -15.0729 C   0  0  0  0  0  0  0  0  0  0  0  0
   17.7651  -12.6007  -14.2180 O   0  0  0  0  0  0  0  0  0  0  0  0
   21.5640   -8.5141  -15.7837 C   0  0  0  0  0  0  0  0  0  0  0  0
   22.3020   -8.3784  -14.7900 O   0  0  0  0  0  0  0  0  0  0  0  0
   16.7211  -10.9262  -15.3239 O   0  0  0  0  0  0  0  0  0  0  0  0
   21.2592   -7.3861  -16.5778 N   0  0  0  0  0  0  0  0  0  0  0  0
   21.7599   -6.0450  -16.3632 C   0  0  1  0  0  0  0  0  0  0  0  0
   21.6000   -5.1883  -17.5804 C   0  0  0  0  0  0  0  0  0  0  0  0
   22.2818   -3.8937  -17.3609 C   0  0  0  0  0  0  0  0  0  0  0  0
   21.8458   -2.8855  -16.5391 C   0  0  0  0  0  0  0  0  0  0  0  0
   22.7500   -1.8926  -16.6274 N   0  0  0  0  0  0  0  0  0  0  0  0
   23.7237   -2.2619  -17.4764 C   0  0  0  0  0  0  0  0  0  0  0  0
   23.4261   -3.4818  -17.9154 N   0  0  0  0  0  0  0  0  0  0  0  0
   21.2695   -5.4232  -15.1173 C   0  0  0  0  0  0  0  0  0  0  0  0
   22.1460   -4.6812  -14.3511 O   0  0  0  0  0  0  0  0  0  0  0  0
   20.0956   -5.5547  -14.7507 O   0  0  0  0  0  0  0  0  0  0  0  0
  2  1  1  0
  3  2  1  0
  3  4  1  6
  5  7  1  0
  5  3  1  0
  6  5  2  0
  8  7  1  0
  8  9  1  1
  9 10  1  0
 10 11  1  0
 11 15  1  0
 12 11  2  0
 13  8  1  0
 14 13  2  0
 16 13  1  0
 17 16  1  0
 17 18  1  6
 19 18  1  0
 20 19  2  0
 21 22  1  0
 21 20  1  0
 22 23  2  0
 23 19  1  0
 24 17  1  0
 25 24  1  0
 26 24  2  0
M  END
$$$$
