SEH.pdb
     RDKit          3D

 26 26  0  0  1  0  0  0  0  0999 V2000
   27.2059  -32.7160   -4.5689 O   0  0  0  0  0  0  0  0  0  0  0  0
   27.0625  -33.1984   -3.2808 C   0  0  0  0  0  0  0  0  0  0  0  0
   27.8794  -34.4602   -3.0496 C   0  0  2  0  0  0  0  0  0  0  0  0
   27.0924  -35.5560   -3.6232 N   0  0  0  0  0  0  0  0  0  0  0  0
   27.9121  -34.6837   -1.5829 C   0  0  0  0  0  0  0  0  0  0  0  0
   26.8585  -35.1098   -1.0479 O   0  0  0  0  0  0  0  0  0  0  0  0
   29.0342  -34.4510   -0.7680 N   0  0  0  0  0  0  0  0  0  0  0  0
   28.9602  -34.6935    0.6449 C   0  0  1  0  0  0  0  0  0  0  0  0
   30.3263  -34.8996    1.2654 C   0  0  0  0  0  0  0  0  0  0  0  0
   30.2025  -35.2837    2.7368 C   0  0  0  0  0  0  0  0  0  0  0  0
   31.5326  -35.4611    3.3587 C   0  0  0  0  0  0  0  0  0  0  0  0
   32.6105  -35.4046    2.7403 O   0  0  0  0  0  0  0  0  0  0  0  0
   28.2044  -33.6222    1.3427 C   0  0  0  0  0  0  0  0  0  0  0  0
   28.4418  -32.4406    1.0293 O   0  0  0  0  0  0  0  0  0  0  0  0
   31.5657  -35.7062    4.7239 O   0  0  0  0  0  0  0  0  0  0  0  0
   27.2379  -33.8930    2.3368 N   0  0  0  0  0  0  0  0  0  0  0  0
   26.4571  -32.9007    3.0448 C   0  0  1  0  0  0  0  0  0  0  0  0
   25.0164  -33.2944    3.1485 C   0  0  0  0  0  0  0  0  0  0  0  0
   24.3266  -32.9652    1.8817 C   0  0  0  0  0  0  0  0  0  0  0  0
   24.0767  -33.8377    0.8530 C   0  0  0  0  0  0  0  0  0  0  0  0
   23.4342  -33.1400   -0.1019 N   0  0  0  0  0  0  0  0  0  0  0  0
   23.2840  -31.8701    0.3104 C   0  0  0  0  0  0  0  0  0  0  0  0
   23.8316  -31.7777    1.5191 N   0  0  0  0  0  0  0  0  0  0  0  0
   27.0612  -32.4746    4.3225 C   0  0  0  0  0  0  0  0  0  0  0  0
   26.6009  -31.3222    4.9276 O   0  0  0  0  0  0  0  0  0  0  0  0
   27.9659  -33.1274    4.8564 O   0  0  0  0  0  0  0  0  0  0  0  0
  2  1  1  0
  3  2  1  0
  3  4  1  6
  5  7  1  0
  5  3  1  0
  6  5  2  0
  8  7  1  0
  8  9  1  1
  9 10  1  0
 10 11  1  0
 11 15  1  0
 12 11  2  0
 13  8  1  0
 14 13  2  0
 16 13  1  0
 17 16  1  0
 17 18  1  1
 19 18  1  0
 20 19  2  0
 21 22  1  0
 21 20  1  0
 22 23  2  0
 23 19  1  0
 24 17  1  0
 25 24  1  0
 26 24  2  0
M  END
$$$$
