SEH.pdb
     RDKit          3D

 26 26  0  0  1  0  0  0  0  0999 V2000
   15.8246  -14.2400  -18.6086 O   0  0  0  0  0  0  0  0  0  0  0  0
   16.2525  -13.5703  -19.7404 C   0  0  0  0  0  0  0  0  0  0  0  0
   17.7672  -13.4434  -19.7901 C   0  0  2  0  0  0  0  0  0  0  0  0
   18.2678  -14.1792  -18.6252 N   0  0  0  0  0  0  0  0  0  0  0  0
   18.0827  -12.0123  -19.5559 C   0  0  0  0  0  0  0  0  0  0  0  0
   19.2770  -11.7284  -19.2895 O   0  0  0  0  0  0  0  0  0  0  0  0
   17.1399  -10.9707  -19.6132 N   0  0  0  0  0  0  0  0  0  0  0  0
   17.5534   -9.6131  -19.3965 C   0  0  1  0  0  0  0  0  0  0  0  0
   16.5956   -8.6149  -20.0128 C   0  0  0  0  0  0  0  0  0  0  0  0
   16.6982   -8.6319  -21.5350 C   0  0  0  0  0  0  0  0  0  0  0  0
   15.7820   -7.6443  -22.1456 C   0  0  0  0  0  0  0  0  0  0  0  0
   16.0960   -6.4734  -22.4244 O   0  0  0  0  0  0  0  0  0  0  0  0
   17.7728   -9.3342  -17.9543 C   0  0  0  0  0  0  0  0  0  0  0  0
   16.8921   -9.6915  -17.1496 O   0  0  0  0  0  0  0  0  0  0  0  0
   14.4889   -8.0655  -22.4203 O   0  0  0  0  0  0  0  0  0  0  0  0
   18.9305   -8.6860  -17.4694 N   0  0  0  0  0  0  0  0  0  0  0  0
   19.1959   -8.3608  -16.0840 C   0  0  1  0  0  0  0  0  0  0  0  0
   20.3926   -9.0910  -15.5589 C   0  0  0  0  0  0  0  0  0  0  0  0
   20.5797   -8.7599  -14.1291 C   0  0  0  0  0  0  0  0  0  0  0  0
   20.0326   -9.4380  -13.0694 C   0  0  0  0  0  0  0  0  0  0  0  0
   20.4493   -8.8150  -11.9516 N   0  0  0  0  0  0  0  0  0  0  0  0
   21.2328   -7.7788  -12.2945 C   0  0  0  0  0  0  0  0  0  0  0  0
   21.3037   -7.7569  -13.6226 N   0  0  0  0  0  0  0  0  0  0  0  0
   19.2030   -6.9106  -15.8081 C   0  0  0  0  0  0  0  0  0  0  0  0
   18.7914   -6.4646  -14.5681 O   0  0  0  0  0  0  0  0  0  0  0  0
   19.5687   -6.0944  -16.6623 O   0  0  0  0  0  0  0  0  0  0  0  0
  2  1  1  0
  3  2  1  0
  3  4  1  1
  5  7  1  0
  5  3  1  0
  6  5  2  0
  8  7  1  0
  8  9  1  1
  9 10  1  0
 10 11  1  0
 11 15  1  0
 12 11  2  0
 13  8  1  0
 14 13  2  0
 16 13  1  0
 17 16  1  0
 17 18  1  6
 19 18  1  0
 20 19  2  0
 21 22  1  0
 21 20  1  0
 22 23  2  0
 23 19  1  0
 24 17  1  0
 25 24  1  0
 26 24  2  0
M  END
$$$$
