SEH.pdb
     RDKit          3D

 26 26  0  0  1  0  0  0  0  0999 V2000
   22.1607  -14.2876  -16.7069 O   0  0  0  0  0  0  0  0  0  0  0  0
   21.6633  -13.0019  -16.8179 C   0  0  0  0  0  0  0  0  0  0  0  0
   20.1749  -12.9908  -17.1304 C   0  0  2  0  0  0  0  0  0  0  0  0
   20.0579  -13.4094  -18.5305 N   0  0  0  0  0  0  0  0  0  0  0  0
   19.7382  -11.5737  -17.0732 C   0  0  0  0  0  0  0  0  0  0  0  0
   20.0240  -10.8493  -18.0588 O   0  0  0  0  0  0  0  0  0  0  0  0
   19.0346  -11.0013  -15.9987 N   0  0  0  0  0  0  0  0  0  0  0  0
   18.7368   -9.5970  -16.0000 C   0  0  1  0  0  0  0  0  0  0  0  0
   17.6413   -9.2405  -15.0171 C   0  0  0  0  0  0  0  0  0  0  0  0
   16.3362   -9.9429  -15.3797 C   0  0  0  0  0  0  0  0  0  0  0  0
   15.3571   -9.8598  -14.2743 C   0  0  0  0  0  0  0  0  0  0  0  0
   15.0238  -10.8201  -13.5573 O   0  0  0  0  0  0  0  0  0  0  0  0
   19.9566   -8.7813  -15.7710 C   0  0  0  0  0  0  0  0  0  0  0  0
   20.7606   -9.1643  -14.9006 O   0  0  0  0  0  0  0  0  0  0  0  0
   14.7795   -8.6218  -14.0318 O   0  0  0  0  0  0  0  0  0  0  0  0
   20.2335   -7.6011  -16.4965 N   0  0  0  0  0  0  0  0  0  0  0  0
   21.3970   -6.7580  -16.3211 C   0  0  1  0  0  0  0  0  0  0  0  0
   21.9307   -6.2644  -17.6298 C   0  0  0  0  0  0  0  0  0  0  0  0
   23.1091   -5.4040  -17.3846 C   0  0  0  0  0  0  0  0  0  0  0  0
   24.4114   -5.8283  -17.3080 C   0  0  0  0  0  0  0  0  0  0  0  0
   25.1635   -4.7369  -17.0749 N   0  0  0  0  0  0  0  0  0  0  0  0
   24.3628   -3.6602  -17.0067 C   0  0  0  0  0  0  0  0  0  0  0  0
   23.1151   -4.0806  -17.1969 N   0  0  0  0  0  0  0  0  0  0  0  0
   21.2144   -5.7024  -15.3054 C   0  0  0  0  0  0  0  0  0  0  0  0
   20.1038   -4.8860  -15.3827 O   0  0  0  0  0  0  0  0  0  0  0  0
   22.0331   -5.5381  -14.3931 O   0  0  0  0  0  0  0  0  0  0  0  0
  2  1  1  0
  3  2  1  0
  3  4  1  6
  5  7  1  0
  5  3  1  0
  6  5  2  0
  8  7  1  0
  8  9  1  1
  9 10  1  0
 10 11  1  0
 11 15  1  0
 12 11  2  0
 13  8  1  0
 14 13  2  0
 16 13  1  0
 17 16  1  0
 17 18  1  6
 19 18  1  0
 20 19  2  0
 21 22  1  0
 21 20  1  0
 22 23  2  0
 23 19  1  0
 24 17  1  0
 25 24  1  0
 26 24  2  0
M  END
$$$$
