SEH.pdb
     RDKit          3D

 26 26  0  0  1  0  0  0  0  0999 V2000
   15.6613  -10.1723  -15.3070 O   0  0  0  0  0  0  0  0  0  0  0  0
   15.8757  -11.1020  -16.3082 C   0  0  0  0  0  0  0  0  0  0  0  0
   16.7548  -12.2517  -15.8408 C   0  0  2  0  0  0  0  0  0  0  0  0
   16.3133  -12.5632  -14.4779 N   0  0  0  0  0  0  0  0  0  0  0  0
   18.1337  -11.7150  -15.7280 C   0  0  0  0  0  0  0  0  0  0  0  0
   18.5543  -11.4632  -14.5715 O   0  0  0  0  0  0  0  0  0  0  0  0
   18.9851  -11.4747  -16.8210 N   0  0  0  0  0  0  0  0  0  0  0  0
   20.3112  -10.9701  -16.6028 C   0  0  1  0  0  0  0  0  0  0  0  0
   21.2922  -11.4606  -17.6472 C   0  0  0  0  0  0  0  0  0  0  0  0
   21.6526  -12.9240  -17.4093 C   0  0  0  0  0  0  0  0  0  0  0  0
   22.4542  -13.4677  -18.5272 C   0  0  0  0  0  0  0  0  0  0  0  0
   22.7992  -12.8136  -19.5274 O   0  0  0  0  0  0  0  0  0  0  0  0
   20.3209   -9.4883  -16.5041 C   0  0  0  0  0  0  0  0  0  0  0  0
   19.4655   -8.8542  -17.1499 O   0  0  0  0  0  0  0  0  0  0  0  0
   22.8403  -14.7975  -18.4413 O   0  0  0  0  0  0  0  0  0  0  0  0
   21.2543   -8.7816  -15.7135 N   0  0  0  0  0  0  0  0  0  0  0  0
   21.3496   -7.3410  -15.6088 C   0  0  1  0  0  0  0  0  0  0  0  0
   22.2217   -6.9211  -14.4668 C   0  0  0  0  0  0  0  0  0  0  0  0
   22.3513   -5.4472  -14.4659 C   0  0  0  0  0  0  0  0  0  0  0  0
   23.2892   -4.7230  -15.1570 C   0  0  0  0  0  0  0  0  0  0  0  0
   23.0584   -3.4256  -14.8835 N   0  0  0  0  0  0  0  0  0  0  0  0
   22.0102   -3.3344  -14.0480 C   0  0  0  0  0  0  0  0  0  0  0  0
   21.5896   -4.5721  -13.8021 N   0  0  0  0  0  0  0  0  0  0  0  0
   21.6656   -6.6750  -16.8879 C   0  0  0  0  0  0  0  0  0  0  0  0
   20.9392   -5.5609  -17.2581 O   0  0  0  0  0  0  0  0  0  0  0  0
   22.5632   -7.0948  -17.6280 O   0  0  0  0  0  0  0  0  0  0  0  0
  2  1  1  0
  3  2  1  0
  3  4  1  1
  5  7  1  0
  5  3  1  0
  6  5  2  0
  8  7  1  0
  8  9  1  6
  9 10  1  0
 10 11  1  0
 11 15  1  0
 12 11  2  0
 13  8  1  0
 14 13  2  0
 16 13  1  0
 17 16  1  0
 17 18  1  1
 19 18  1  0
 20 19  2  0
 21 22  1  0
 21 20  1  0
 22 23  2  0
 23 19  1  0
 24 17  1  0
 25 24  1  0
 26 24  2  0
M  END
$$$$
