SEH.pdb
     RDKit          3D

 26 26  0  0  1  0  0  0  0  0999 V2000
   24.9068  -22.5894  -16.0286 O   0  0  0  0  0  0  0  0  0  0  0  0
   25.2196  -21.3207  -16.4818 C   0  0  0  0  0  0  0  0  0  0  0  0
   25.6264  -20.3935  -15.3470 C   0  0  2  0  0  0  0  0  0  0  0  0
   26.5682  -21.1587  -14.5245 N   0  0  0  0  0  0  0  0  0  0  0  0
   24.4150  -20.1793  -14.5170 C   0  0  0  0  0  0  0  0  0  0  0  0
   24.5401  -20.3314  -13.2764 O   0  0  0  0  0  0  0  0  0  0  0  0
   23.1545  -19.8217  -15.0274 N   0  0  0  0  0  0  0  0  0  0  0  0
   22.0714  -19.5306  -14.1313 C   0  0  1  0  0  0  0  0  0  0  0  0
   21.1105  -18.5092  -14.7033 C   0  0  0  0  0  0  0  0  0  0  0  0
   20.5518  -18.9795  -16.0430 C   0  0  0  0  0  0  0  0  0  0  0  0
   19.7182  -17.9331  -16.6736 C   0  0  0  0  0  0  0  0  0  0  0  0
   19.1319  -18.0637  -17.7629 O   0  0  0  0  0  0  0  0  0  0  0  0
   21.3625  -20.7670  -13.7138 C   0  0  0  0  0  0  0  0  0  0  0  0
   21.2951  -21.7056  -14.5294 O   0  0  0  0  0  0  0  0  0  0  0  0
   19.5902  -16.7304  -15.9939 O   0  0  0  0  0  0  0  0  0  0  0  0
   20.7694  -20.9141  -12.4401 N   0  0  0  0  0  0  0  0  0  0  0  0
   20.0458  -22.0793  -11.9774 C   0  0  1  0  0  0  0  0  0  0  0  0
   20.2057  -22.2864  -10.5034 C   0  0  0  0  0  0  0  0  0  0  0  0
   19.5645  -23.5623  -10.1160 C   0  0  0  0  0  0  0  0  0  0  0  0
   19.6792  -24.7545  -10.7849 C   0  0  0  0  0  0  0  0  0  0  0  0
   18.9453  -25.6546  -10.1050 N   0  0  0  0  0  0  0  0  0  0  0  0
   18.3864  -25.0508   -9.0428 C   0  0  0  0  0  0  0  0  0  0  0  0
   18.7716  -23.7777   -9.0617 N   0  0  0  0  0  0  0  0  0  0  0  0
   18.6474  -22.1319  -12.4474 C   0  0  0  0  0  0  0  0  0  0  0  0
   17.8674  -20.9969  -12.3518 O   0  0  0  0  0  0  0  0  0  0  0  0
   18.1660  -23.1677  -12.9219 O   0  0  0  0  0  0  0  0  0  0  0  0
  2  1  1  0
  3  2  1  0
  3  4  1  1
  5  7  1  0
  5  3  1  0
  6  5  2  0
  8  7  1  0
  8  9  1  6
  9 10  1  0
 10 11  1  0
 11 15  1  0
 12 11  2  0
 13  8  1  0
 14 13  2  0
 16 13  1  0
 17 16  1  0
 17 18  1  1
 19 18  1  0
 20 19  2  0
 21 22  1  0
 21 20  1  0
 22 23  2  0
 23 19  1  0
 24 17  1  0
 25 24  1  0
 26 24  2  0
M  END
$$$$
