SEH.pdb
     RDKit          3D

 26 26  0  0  1  0  0  0  0  0999 V2000
   30.8423    2.2185   -8.3037 O   0  0  0  0  0  0  0  0  0  0  0  0
   29.8364    2.5276   -7.4063 C   0  0  0  0  0  0  0  0  0  0  0  0
   28.9130    3.6138   -7.9359 C   0  0  2  0  0  0  0  0  0  0  0  0
   29.6413    4.8747   -7.7658 N   0  0  0  0  0  0  0  0  0  0  0  0
   27.7490    3.6687   -7.0170 C   0  0  0  0  0  0  0  0  0  0  0  0
   27.9159    4.2589   -5.9207 O   0  0  0  0  0  0  0  0  0  0  0  0
   26.4896    3.1085   -7.2949 N   0  0  0  0  0  0  0  0  0  0  0  0
   25.3529    3.4591   -6.4913 C   0  0  1  0  0  0  0  0  0  0  0  0
   24.1119    3.7010   -7.3249 C   0  0  0  0  0  0  0  0  0  0  0  0
   22.9601    4.1942   -6.4543 C   0  0  0  0  0  0  0  0  0  0  0  0
   21.7166    4.3401   -7.2418 C   0  0  0  0  0  0  0  0  0  0  0  0
   21.5992    4.0133   -8.4362 O   0  0  0  0  0  0  0  0  0  0  0  0
   25.1043    2.4505   -5.4298 C   0  0  0  0  0  0  0  0  0  0  0  0
   25.3009    1.2520   -5.7051 O   0  0  0  0  0  0  0  0  0  0  0  0
   20.6153    4.8787   -6.5922 O   0  0  0  0  0  0  0  0  0  0  0  0
   24.6585    2.7984   -4.1352 N   0  0  0  0  0  0  0  0  0  0  0  0
   24.4244    1.8720   -3.0478 C   0  0  1  0  0  0  0  0  0  0  0  0
   25.6029    0.9795   -2.8118 C   0  0  0  0  0  0  0  0  0  0  0  0
   25.2813    0.0187   -1.7336 C   0  0  0  0  0  0  0  0  0  0  0  0
   24.5912   -1.1572   -1.8853 C   0  0  0  0  0  0  0  0  0  0  0  0
   24.5179   -1.7254   -0.6675 N   0  0  0  0  0  0  0  0  0  0  0  0
   25.1406   -0.9347    0.2225 C   0  0  0  0  0  0  0  0  0  0  0  0
   25.6005    0.1233   -0.4399 N   0  0  0  0  0  0  0  0  0  0  0  0
   23.8979    2.5140   -1.8272 C   0  0  0  0  0  0  0  0  0  0  0  0
   23.1267    1.7672   -0.9592 O   0  0  0  0  0  0  0  0  0  0  0  0
   24.1339    3.7007   -1.5707 O   0  0  0  0  0  0  0  0  0  0  0  0
  2  1  1  0
  3  2  1  0
  3  4  1  1
  5  7  1  0
  5  3  1  0
  6  5  2  0
  8  7  1  0
  8  9  1  6
  9 10  1  0
 10 11  1  0
 11 15  1  0
 12 11  2  0
 13  8  1  0
 14 13  2  0
 16 13  1  0
 17 16  1  0
 17 18  1  1
 19 18  1  0
 20 19  2  0
 21 22  1  0
 21 20  1  0
 22 23  2  0
 23 19  1  0
 24 17  1  0
 25 24  1  0
 26 24  2  0
M  END
$$$$
