SEH.pdb
     RDKit          3D

 26 26  0  0  1  0  0  0  0  0999 V2000
   25.2444  -13.6411  -15.1692 O   0  0  0  0  0  0  0  0  0  0  0  0
   26.5784  -13.9927  -15.0714 C   0  0  0  0  0  0  0  0  0  0  0  0
   27.0495  -14.7865  -16.2801 C   0  0  2  0  0  0  0  0  0  0  0  0
   26.5157  -14.0847  -17.4513 N   0  0  0  0  0  0  0  0  0  0  0  0
   26.3609  -16.0998  -16.2220 C   0  0  0  0  0  0  0  0  0  0  0  0
   25.3873  -16.2674  -16.9978 O   0  0  0  0  0  0  0  0  0  0  0  0
   26.7268  -17.1521  -15.3641 N   0  0  0  0  0  0  0  0  0  0  0  0
   26.0041  -18.3919  -15.3971 C   0  0  1  0  0  0  0  0  0  0  0  0
   26.7620  -19.5175  -14.7246 C   0  0  0  0  0  0  0  0  0  0  0  0
   25.9504  -20.8093  -14.7483 C   0  0  0  0  0  0  0  0  0  0  0  0
   26.5601  -21.8096  -15.6512 C   0  0  0  0  0  0  0  0  0  0  0  0
   27.6146  -21.6319  -16.2866 O   0  0  0  0  0  0  0  0  0  0  0  0
   24.6398  -18.2425  -14.8294 C   0  0  0  0  0  0  0  0  0  0  0  0
   24.4869  -17.4572  -13.8751 O   0  0  0  0  0  0  0  0  0  0  0  0
   25.9013  -23.0227  -15.7892 O   0  0  0  0  0  0  0  0  0  0  0  0
   23.5236  -18.9508  -15.3276 N   0  0  0  0  0  0  0  0  0  0  0  0
   22.1646  -18.8289  -14.8442 C   0  0  1  0  0  0  0  0  0  0  0  0
   21.5353  -17.5384  -15.2679 C   0  0  0  0  0  0  0  0  0  0  0  0
   20.1784  -17.4412  -14.6862 C   0  0  0  0  0  0  0  0  0  0  0  0
   19.0490  -18.0459  -15.1768 C   0  0  0  0  0  0  0  0  0  0  0  0
   18.0370  -17.7030  -14.3585 N   0  0  0  0  0  0  0  0  0  0  0  0
   18.5119  -16.9087  -13.3845 C   0  0  0  0  0  0  0  0  0  0  0  0
   19.8165  -16.7576  -13.5961 N   0  0  0  0  0  0  0  0  0  0  0  0
   21.3348  -20.0213  -15.1064 C   0  0  0  0  0  0  0  0  0  0  0  0
   20.3113  -20.3283  -14.2322 O   0  0  0  0  0  0  0  0  0  0  0  0
   21.5391  -20.7448  -16.0885 O   0  0  0  0  0  0  0  0  0  0  0  0
  2  1  1  0
  3  2  1  0
  3  4  1  6
  5  7  1  0
  5  3  1  0
  6  5  2  0
  8  7  1  0
  8  9  1  1
  9 10  1  0
 10 11  1  0
 11 15  1  0
 12 11  2  0
 13  8  1  0
 14 13  2  0
 16 13  1  0
 17 16  1  0
 17 18  1  6
 19 18  1  0
 20 19  2  0
 21 22  1  0
 21 20  1  0
 22 23  2  0
 23 19  1  0
 24 17  1  0
 25 24  1  0
 26 24  2  0
M  END
$$$$
