EIY.pdb
     RDKit          3D

 30 30  0  0  1  0  0  0  0  0999 V2000
    8.8682  -17.8135   18.4928 N   0  0  0  0  0  0  0  0  0  0  0  0
   10.2045  -17.5193   18.9094 C   0  0  1  0  0  0  0  0  0  0  0  0
   11.1317  -17.2031   17.7807 C   0  0  0  0  0  0  0  0  0  0  0  0
   11.9942  -18.3439   17.3729 C   0  0  0  0  0  0  0  0  0  0  0  0
   13.4040  -18.0124   17.1419 C   0  0  0  0  0  0  0  0  0  0  0  0
   13.8403  -17.5629   16.0569 O   0  0  0  0  0  0  0  0  0  0  0  0
   10.1650  -16.3367   19.8188 C   0  0  0  0  0  0  0  0  0  0  0  0
   10.4279  -15.1761   19.3523 O   0  0  0  0  0  0  0  0  0  0  0  0
   14.3368  -18.1968   18.1684 O   0  0  0  0  0  0  0  0  0  0  0  0
    7.8565  -13.0146   19.4028 C   0  0  0  0  0  0  0  0  0  0  0  0
    8.9744  -13.7913   20.0435 C   0  0  0  0  0  0  0  0  0  0  0  0
    8.5270  -14.4864   21.2668 C   0  0  2  0  0  0  0  0  0  0  0  0
    7.9172  -13.4657   22.2350 C   0  0  0  0  0  0  0  0  0  0  0  0
    9.6071  -15.2721   21.9909 C   0  0  2  0  0  0  0  0  0  0  0  0
    9.8392  -16.5054   21.1825 N   0  0  0  0  0  0  0  0  0  0  0  0
    9.2105  -15.7206   23.3423 C   0  0  0  0  0  0  0  0  0  0  0  0
    8.2381  -16.5383   23.4763 O   0  0  0  0  0  0  0  0  0  0  0  0
    5.9323  -10.7545   27.1557 O   0  0  0  0  0  0  0  0  0  0  0  0
    6.4408  -12.0184   26.8434 C   0  0  0  0  0  0  0  0  0  0  0  0
    7.7969  -12.2616   26.7875 C   0  0  0  0  0  0  0  0  0  0  0  0
    8.2958  -13.5136   26.4782 C   0  0  0  0  0  0  0  0  0  0  0  0
    7.4667  -14.5836   26.2093 C   0  0  0  0  0  0  0  0  0  0  0  0
    7.9863  -15.9323   25.8686 C   0  0  0  0  0  0  0  0  0  0  0  0
    9.4994  -15.9841   25.7983 C   0  0  2  0  0  0  0  0  0  0  0  0
    9.8416  -15.3074   24.5308 N   0  0  0  0  0  0  0  0  0  0  0  0
    9.9784  -17.3871   25.7696 C   0  0  0  0  0  0  0  0  0  0  0  0
   10.6535  -17.9049   24.6606 O   0  0  0  0  0  0  0  0  0  0  0  0
    6.1047  -14.3320   26.2673 C   0  0  0  0  0  0  0  0  0  0  0  0
    5.6079  -13.0840   26.5759 C   0  0  0  0  0  0  0  0  0  0  0  0
    9.7987  -18.1641   26.7347 O   0  0  0  0  0  0  0  0  0  0  0  0
  2  1  1  6
  2  3  1  0
  3  4  1  0
  4  5  1  0
  5  9  1  0
  6  5  2  0
  7  2  1  0
  8  7  2  0
 11 10  1  0
 12 13  1  1
 12 11  1  0
 12 14  1  0
 14 15  1  6
 15  7  1  0
 16 14  1  0
 16 17  2  0
 19 18  1  0
 20 19  2  0
 21 20  1  0
 22 21  2  0
 22 28  1  0
 24 23  1  6
 23 22  1  0
 24 25  1  0
 25 16  1  0
 26 24  1  0
 27 26  1  0
 28 29  2  0
 29 19  1  0
 30 26  2  0
M  END
$$$$
