EIY.pdb
     RDKit          3D

 30 30  0  0  1  0  0  0  0  0999 V2000
    9.2680  -18.4280   18.2469 N   0  0  0  0  0  0  0  0  0  0  0  0
    8.3559  -18.2038   19.3256 C   0  0  1  0  0  0  0  0  0  0  0  0
    8.2217  -19.3681   20.2531 C   0  0  0  0  0  0  0  0  0  0  0  0
    7.6331  -20.5777   19.6191 C   0  0  0  0  0  0  0  0  0  0  0  0
    7.5389  -21.7567   20.4862 C   0  0  0  0  0  0  0  0  0  0  0  0
    7.9484  -21.7794   21.6700 O   0  0  0  0  0  0  0  0  0  0  0  0
    8.8414  -17.0365   20.1184 C   0  0  0  0  0  0  0  0  0  0  0  0
   10.0965  -16.8066   20.1946 O   0  0  0  0  0  0  0  0  0  0  0  0
    6.9662  -22.9350   19.9946 O   0  0  0  0  0  0  0  0  0  0  0  0
    7.3388  -12.1009   19.5090 C   0  0  0  0  0  0  0  0  0  0  0  0
    8.1593  -13.3001   19.8991 C   0  0  0  0  0  0  0  0  0  0  0  0
    7.7583  -13.8327   21.2164 C   0  0  2  0  0  0  0  0  0  0  0  0
    7.9841  -12.7586   22.2870 C   0  0  0  0  0  0  0  0  0  0  0  0
    8.4684  -15.1083   21.6369 C   0  0  2  0  0  0  0  0  0  0  0  0
    7.9166  -16.1964   20.7767 N   0  0  0  0  0  0  0  0  0  0  0  0
    8.2043  -15.5012   23.0372 C   0  0  0  0  0  0  0  0  0  0  0  0
    7.0347  -15.8889   23.3745 O   0  0  0  0  0  0  0  0  0  0  0  0
    8.0612  -21.3770   29.1488 O   0  0  0  0  0  0  0  0  0  0  0  0
    8.2319  -20.4726   28.0967 C   0  0  0  0  0  0  0  0  0  0  0  0
    7.1861  -19.7143   27.6148 C   0  0  0  0  0  0  0  0  0  0  0  0
    7.3593  -18.8206   26.5738 C   0  0  0  0  0  0  0  0  0  0  0  0
    8.5835  -18.6402   25.9629 C   0  0  0  0  0  0  0  0  0  0  0  0
    8.7847  -17.6902   24.8396 C   0  0  0  0  0  0  0  0  0  0  0  0
    8.9212  -16.2517   25.2972 C   0  0  2  0  0  0  0  0  0  0  0  0
    9.1712  -15.4844   24.0601 N   0  0  0  0  0  0  0  0  0  0  0  0
   10.0657  -16.1006   26.2278 C   0  0  0  0  0  0  0  0  0  0  0  0
    9.8967  -16.1895   27.6124 O   0  0  0  0  0  0  0  0  0  0  0  0
    9.6304  -19.4057   26.4525 C   0  0  0  0  0  0  0  0  0  0  0  0
    9.4574  -20.2962   27.4902 C   0  0  0  0  0  0  0  0  0  0  0  0
   11.2276  -15.8876   25.8132 O   0  0  0  0  0  0  0  0  0  0  0  0
  2  1  1  6
  2  3  1  0
  3  4  1  0
  4  5  1  0
  5  9  1  0
  6  5  2  0
  7  2  1  0
  8  7  2  0
 11 10  1  0
 12 13  1  1
 12 11  1  0
 12 14  1  0
 14 15  1  6
 15  7  1  0
 16 14  1  0
 16 17  2  0
 19 18  1  0
 20 19  2  0
 21 20  1  0
 22 21  2  0
 22 28  1  0
 24 23  1  6
 23 22  1  0
 24 25  1  0
 25 16  1  0
 26 24  1  0
 27 26  1  0
 28 29  2  0
 29 19  1  0
 30 26  2  0
M  END
$$$$
