EIY.pdb
     RDKit          3D

 30 30  0  0  1  0  0  0  0  0999 V2000
   12.2308  -17.7838   19.5587 N   0  0  0  0  0  0  0  0  0  0  0  0
   10.8230  -17.8103   19.8103 C   0  0  1  0  0  0  0  0  0  0  0  0
   10.3596  -19.0453   20.5129 C   0  0  0  0  0  0  0  0  0  0  0  0
   11.4160  -19.7098   21.3216 C   0  0  0  0  0  0  0  0  0  0  0  0
   10.9294  -20.6447   22.3413 C   0  0  0  0  0  0  0  0  0  0  0  0
    9.7146  -20.8414   22.5763 O   0  0  0  0  0  0  0  0  0  0  0  0
   10.4745  -16.6364   20.6632 C   0  0  0  0  0  0  0  0  0  0  0  0
   11.3639  -16.1295   21.4287 O   0  0  0  0  0  0  0  0  0  0  0  0
   11.8458  -21.3711   23.1098 O   0  0  0  0  0  0  0  0  0  0  0  0
    7.1180  -12.7524   18.8286 C   0  0  0  0  0  0  0  0  0  0  0  0
    8.2491  -13.4789   19.5042 C   0  0  0  0  0  0  0  0  0  0  0  0
    7.8184  -14.1064   20.7694 C   0  0  2  0  0  0  0  0  0  0  0  0
    7.2895  -13.0236   21.7173 C   0  0  0  0  0  0  0  0  0  0  0  0
    8.8903  -14.9108   21.4851 C   0  0  2  0  0  0  0  0  0  0  0  0
    9.1710  -16.0948   20.6204 N   0  0  0  0  0  0  0  0  0  0  0  0
    8.4605  -15.4378   22.7975 C   0  0  0  0  0  0  0  0  0  0  0  0
    8.5769  -16.6856   23.0458 O   0  0  0  0  0  0  0  0  0  0  0  0
   11.2656  -15.8423   30.8386 O   0  0  0  0  0  0  0  0  0  0  0  0
   10.8675  -15.6335   29.5150 C   0  0  0  0  0  0  0  0  0  0  0  0
   10.7842  -16.6705   28.6101 C   0  0  0  0  0  0  0  0  0  0  0  0
   10.3900  -16.4596   27.3015 C   0  0  0  0  0  0  0  0  0  0  0  0
   10.0600  -15.2045   26.8321 C   0  0  0  0  0  0  0  0  0  0  0  0
    9.6416  -14.9600   25.4284 C   0  0  0  0  0  0  0  0  0  0  0  0
    8.1413  -15.0496   25.2331 C   0  0  2  0  0  0  0  0  0  0  0  0
    7.9190  -14.6480   23.8291 N   0  0  0  0  0  0  0  0  0  0  0  0
    7.4340  -14.1185   26.1450 C   0  0  0  0  0  0  0  0  0  0  0  0
    7.3970  -12.7432   25.8983 O   0  0  0  0  0  0  0  0  0  0  0  0
   10.1458  -14.1667   27.7472 C   0  0  0  0  0  0  0  0  0  0  0  0
   10.5387  -14.3775   29.0513 C   0  0  0  0  0  0  0  0  0  0  0  0
    6.8423  -14.5244   27.1709 O   0  0  0  0  0  0  0  0  0  0  0  0
  2  1  1  1
  2  3  1  0
  3  4  1  0
  4  5  1  0
  5  9  1  0
  6  5  2  0
  7  2  1  0
  8  7  2  0
 11 10  1  0
 12 13  1  1
 12 11  1  0
 12 14  1  0
 14 15  1  6
 15  7  1  0
 16 14  1  0
 16 17  2  0
 19 18  1  0
 20 19  2  0
 21 20  1  0
 22 21  2  0
 22 28  1  0
 24 23  1  1
 23 22  1  0
 24 25  1  0
 25 16  1  0
 26 24  1  0
 27 26  1  0
 28 29  2  0
 29 19  1  0
 30 26  2  0
M  END
$$$$
