EIY.pdb
     RDKit          3D

 30 30  0  0  1  0  0  0  0  0999 V2000
    6.9116  -16.1315   20.4375 N   0  0  0  0  0  0  0  0  0  0  0  0
    6.8680  -16.3929   21.8431 C   0  0  1  0  0  0  0  0  0  0  0  0
    7.3520  -17.7564   22.2177 C   0  0  0  0  0  0  0  0  0  0  0  0
    8.6302  -18.1421   21.5629 C   0  0  0  0  0  0  0  0  0  0  0  0
    9.1560  -19.4578   21.9411 C   0  0  0  0  0  0  0  0  0  0  0  0
   10.3474  -19.8034   21.7656 O   0  0  0  0  0  0  0  0  0  0  0  0
    7.7303  -15.3912   22.5357 C   0  0  0  0  0  0  0  0  0  0  0  0
    8.6916  -14.8410   21.8976 O   0  0  0  0  0  0  0  0  0  0  0  0
    8.3069  -20.4002   22.5319 O   0  0  0  0  0  0  0  0  0  0  0  0
    5.3770  -12.1380   26.1586 C   0  0  0  0  0  0  0  0  0  0  0  0
    6.2415  -12.6560   25.0416 C   0  0  0  0  0  0  0  0  0  0  0  0
    7.4574  -13.3193   25.5531 C   0  0  2  0  0  0  0  0  0  0  0  0
    8.3058  -12.2990   26.3212 C   0  0  0  0  0  0  0  0  0  0  0  0
    8.3204  -13.9840   24.4940 C   0  0  2  0  0  0  0  0  0  0  0  0
    7.4811  -15.0581   23.8853 N   0  0  0  0  0  0  0  0  0  0  0  0
    9.5247  -14.6458   25.0386 C   0  0  0  0  0  0  0  0  0  0  0  0
    9.8531  -14.4551   26.2584 O   0  0  0  0  0  0  0  0  0  0  0  0
   10.4562  -15.3425   31.2906 O   0  0  0  0  0  0  0  0  0  0  0  0
   10.5444  -15.7995   29.9726 C   0  0  0  0  0  0  0  0  0  0  0  0
   10.2228  -17.0960   29.6311 C   0  0  0  0  0  0  0  0  0  0  0  0
   10.3115  -17.5442   28.3258 C   0  0  0  0  0  0  0  0  0  0  0  0
   10.7253  -16.7212   27.2983 C   0  0  0  0  0  0  0  0  0  0  0  0
   10.8327  -17.1886   25.8929 C   0  0  0  0  0  0  0  0  0  0  0  0
   11.4872  -16.1722   24.9787 C   0  0  2  0  0  0  0  0  0  0  0  0
   10.3631  -15.4992   24.2967 N   0  0  0  0  0  0  0  0  0  0  0  0
   12.3572  -16.8420   23.9821 C   0  0  0  0  0  0  0  0  0  0  0  0
   12.0337  -16.8541   22.6224 O   0  0  0  0  0  0  0  0  0  0  0  0
   11.0469  -15.4191   27.6488 C   0  0  0  0  0  0  0  0  0  0  0  0
   10.9583  -14.9729   28.9498 C   0  0  0  0  0  0  0  0  0  0  0  0
   13.4147  -17.4230   24.3162 O   0  0  0  0  0  0  0  0  0  0  0  0
  2  1  1  6
  2  3  1  0
  3  4  1  0
  4  5  1  0
  5  9  1  0
  6  5  2  0
  7  2  1  0
  8  7  2  0
 11 10  1  0
 12 13  1  6
 12 11  1  0
 12 14  1  0
 14 15  1  1
 15  7  1  0
 16 14  1  0
 16 17  2  0
 19 18  1  0
 20 19  2  0
 21 20  1  0
 22 21  2  0
 22 28  1  0
 24 23  1  1
 23 22  1  0
 24 25  1  0
 25 16  1  0
 26 24  1  0
 27 26  1  0
 28 29  2  0
 29 19  1  0
 30 26  2  0
M  END
$$$$
