EIY.pdb
     RDKit          3D

 30 30  0  0  1  0  0  0  0  0999 V2000
    9.6890  -18.6806   17.9713 N   0  0  0  0  0  0  0  0  0  0  0  0
    9.0210  -18.4928   19.2220 C   0  0  1  0  0  0  0  0  0  0  0  0
    9.3194  -19.5551   20.2301 C   0  0  0  0  0  0  0  0  0  0  0  0
    9.8903  -20.7971   19.6443 C   0  0  0  0  0  0  0  0  0  0  0  0
   10.2975  -21.8180   20.6151 C   0  0  0  0  0  0  0  0  0  0  0  0
    9.4869  -22.4839   21.3001 O   0  0  0  0  0  0  0  0  0  0  0  0
    9.4493  -17.1822   19.7928 C   0  0  0  0  0  0  0  0  0  0  0  0
   10.5743  -16.6834   19.4470 O   0  0  0  0  0  0  0  0  0  0  0  0
   11.6569  -22.0864   20.8101 O   0  0  0  0  0  0  0  0  0  0  0  0
    6.2322  -13.1015   19.6902 C   0  0  0  0  0  0  0  0  0  0  0  0
    7.5038  -13.9050   19.7238 C   0  0  0  0  0  0  0  0  0  0  0  0
    7.9064  -14.2350   21.1054 C   0  0  2  0  0  0  0  0  0  0  0  0
    8.2294  -12.9409   21.8615 C   0  0  0  0  0  0  0  0  0  0  0  0
    9.0870  -15.1843   21.2212 C   0  0  2  0  0  0  0  0  0  0  0  0
    8.6139  -16.5036   20.7072 N   0  0  0  0  0  0  0  0  0  0  0  0
    9.5350  -15.4082   22.6119 C   0  0  0  0  0  0  0  0  0  0  0  0
    8.8646  -16.1837   23.3742 O   0  0  0  0  0  0  0  0  0  0  0  0
   10.4560  -15.9987   30.9442 O   0  0  0  0  0  0  0  0  0  0  0  0
   10.2826  -15.7597   29.5779 C   0  0  0  0  0  0  0  0  0  0  0  0
    9.8419  -16.7443   28.7192 C   0  0  0  0  0  0  0  0  0  0  0  0
    9.6716  -16.5036   27.3681 C   0  0  0  0  0  0  0  0  0  0  0  0
    9.9327  -15.2696   26.8081 C   0  0  0  0  0  0  0  0  0  0  0  0
    9.7619  -14.9967   25.3585 C   0  0  0  0  0  0  0  0  0  0  0  0
   11.0467  -15.1548   24.5702 C   0  0  2  0  0  0  0  0  0  0  0  0
   10.6800  -14.8182   23.1796 N   0  0  0  0  0  0  0  0  0  0  0  0
   11.5404  -16.5513   24.6407 C   0  0  0  0  0  0  0  0  0  0  0  0
   10.7216  -17.6324   24.3025 O   0  0  0  0  0  0  0  0  0  0  0  0
   10.3752  -14.2844   27.6772 C   0  0  0  0  0  0  0  0  0  0  0  0
   10.5447  -14.5248   29.0238 C   0  0  0  0  0  0  0  0  0  0  0  0
   12.7078  -16.8192   25.0050 O   0  0  0  0  0  0  0  0  0  0  0  0
  2  1  1  6
  2  3  1  0
  3  4  1  0
  4  5  1  0
  5  9  1  0
  6  5  2  0
  7  2  1  0
  8  7  2  0
 11 10  1  0
 12 13  1  1
 12 11  1  0
 12 14  1  0
 14 15  1  1
 15  7  1  0
 16 14  1  0
 16 17  2  0
 19 18  1  0
 20 19  2  0
 21 20  1  0
 22 21  2  0
 22 28  1  0
 24 23  1  1
 23 22  1  0
 24 25  1  0
 25 16  1  0
 26 24  1  0
 27 26  1  0
 28 29  2  0
 29 19  1  0
 30 26  2  0
M  END
$$$$
