EIY.pdb
     RDKit          3D

 30 30  0  0  1  0  0  0  0  0999 V2000
    7.2492  -14.9580   19.5933 N   0  0  0  0  0  0  0  0  0  0  0  0
    7.7618  -15.8954   20.5443 C   0  0  1  0  0  0  0  0  0  0  0  0
    8.8658  -16.7509   20.0122 C   0  0  0  0  0  0  0  0  0  0  0  0
    8.4969  -17.5205   18.7944 C   0  0  0  0  0  0  0  0  0  0  0  0
    9.5181  -18.4554   18.3107 C   0  0  0  0  0  0  0  0  0  0  0  0
    9.3676  -19.1836   17.3024 O   0  0  0  0  0  0  0  0  0  0  0  0
    8.2901  -15.1370   21.7159 C   0  0  0  0  0  0  0  0  0  0  0  0
    9.1838  -14.2414   21.5339 O   0  0  0  0  0  0  0  0  0  0  0  0
   10.7368  -18.5633   18.9899 O   0  0  0  0  0  0  0  0  0  0  0  0
    6.6181  -11.8517   24.5562 C   0  0  0  0  0  0  0  0  0  0  0  0
    6.1786  -13.2804   24.3851 C   0  0  0  0  0  0  0  0  0  0  0  0
    7.1334  -14.2241   24.9996 C   0  0  2  0  0  0  0  0  0  0  0  0
    7.6316  -13.6462   26.3296 C   0  0  0  0  0  0  0  0  0  0  0  0
    8.3307  -14.5809   24.1351 C   0  0  2  0  0  0  0  0  0  0  0  0
    7.8025  -15.4113   23.0126 N   0  0  0  0  0  0  0  0  0  0  0  0
    9.3417  -15.4045   24.8311 C   0  0  0  0  0  0  0  0  0  0  0  0
    9.0768  -16.6210   25.1176 O   0  0  0  0  0  0  0  0  0  0  0  0
   11.3534  -17.7240   32.2710 O   0  0  0  0  0  0  0  0  0  0  0  0
   11.4311  -17.0224   31.0646 C   0  0  0  0  0  0  0  0  0  0  0  0
   10.5544  -16.0026   30.7604 C   0  0  0  0  0  0  0  0  0  0  0  0
   10.6347  -15.3110   29.5656 C   0  0  0  0  0  0  0  0  0  0  0  0
   11.5928  -15.6030   28.6164 C   0  0  0  0  0  0  0  0  0  0  0  0
   11.6882  -14.8749   27.3257 C   0  0  0  0  0  0  0  0  0  0  0  0
   11.4355  -15.7634   26.1240 C   0  0  2  0  0  0  0  0  0  0  0  0
   10.6148  -14.9406   25.2124 N   0  0  0  0  0  0  0  0  0  0  0  0
   10.6890  -16.9828   26.5172 C   0  0  0  0  0  0  0  0  0  0  0  0
    9.3701  -16.9150   26.9747 O   0  0  0  0  0  0  0  0  0  0  0  0
   12.4709  -16.6293   28.9288 C   0  0  0  0  0  0  0  0  0  0  0  0
   12.3905  -17.3182   30.1198 C   0  0  0  0  0  0  0  0  0  0  0  0
   11.2077  -18.1206   26.4559 O   0  0  0  0  0  0  0  0  0  0  0  0
  2  1  1  6
  2  3  1  0
  3  4  1  0
  4  5  1  0
  5  9  1  0
  6  5  2  0
  7  2  1  0
  8  7  2  0
 11 10  1  0
 12 13  1  1
 12 11  1  0
 12 14  1  0
 14 15  1  6
 15  7  1  0
 16 14  1  0
 16 17  2  0
 19 18  1  0
 20 19  2  0
 21 20  1  0
 22 21  2  0
 22 28  1  0
 24 23  1  1
 23 22  1  0
 24 25  1  0
 25 16  1  0
 26 24  1  0
 27 26  1  0
 28 29  2  0
 29 19  1  0
 30 26  2  0
M  END
$$$$
