EIY.pdb
     RDKit          3D

 30 30  0  0  1  0  0  0  0  0999 V2000
    9.9152  -18.3987   17.8686 N   0  0  0  0  0  0  0  0  0  0  0  0
    8.8323  -18.0507   18.7359 C   0  0  1  0  0  0  0  0  0  0  0  0
    8.3254  -19.1933   19.5553 C   0  0  0  0  0  0  0  0  0  0  0  0
    9.3816  -20.1590   19.9594 C   0  0  0  0  0  0  0  0  0  0  0  0
    8.9074  -21.3324   20.7004 C   0  0  0  0  0  0  0  0  0  0  0  0
    7.7021  -21.5371   20.9744 O   0  0  0  0  0  0  0  0  0  0  0  0
    9.3004  -16.9854   19.6701 C   0  0  0  0  0  0  0  0  0  0  0  0
   10.5433  -16.9024   19.9569 O   0  0  0  0  0  0  0  0  0  0  0  0
    9.8254  -22.2932   21.1388 O   0  0  0  0  0  0  0  0  0  0  0  0
    7.1637  -12.1756   19.1316 C   0  0  0  0  0  0  0  0  0  0  0  0
    8.1417  -13.2889   19.3918 C   0  0  0  0  0  0  0  0  0  0  0  0
    8.0812  -13.7546   20.7915 C   0  0  2  0  0  0  0  0  0  0  0  0
    8.5170  -12.6173   21.7229 C   0  0  0  0  0  0  0  0  0  0  0  0
    8.9131  -14.9893   21.0944 C   0  0  2  0  0  0  0  0  0  0  0  0
    8.3727  -16.0794   20.2294 N   0  0  0  0  0  0  0  0  0  0  0  0
    8.7930  -15.4586   22.4909 C   0  0  0  0  0  0  0  0  0  0  0  0
    7.7373  -16.0754   22.8613 O   0  0  0  0  0  0  0  0  0  0  0  0
    6.0223  -11.2863   27.9432 O   0  0  0  0  0  0  0  0  0  0  0  0
    6.5012  -12.3807   27.2175 C   0  0  0  0  0  0  0  0  0  0  0  0
    5.7892  -13.5578   27.1250 C   0  0  0  0  0  0  0  0  0  0  0  0
    6.2666  -14.6382   26.4059 C   0  0  0  0  0  0  0  0  0  0  0  0
    7.4772  -14.5971   25.7446 C   0  0  0  0  0  0  0  0  0  0  0  0
    8.0074  -15.7505   24.9741 C   0  0  0  0  0  0  0  0  0  0  0  0
    9.5181  -15.7382   24.8532 C   0  0  2  0  0  0  0  0  0  0  0  0
    9.7826  -15.2767   23.4753 N   0  0  0  0  0  0  0  0  0  0  0  0
   10.0740  -17.0991   25.0478 C   0  0  0  0  0  0  0  0  0  0  0  0
    9.8693  -18.1121   24.1068 O   0  0  0  0  0  0  0  0  0  0  0  0
    8.1876  -13.4106   25.8417 C   0  0  0  0  0  0  0  0  0  0  0  0
    7.7112  -12.3341   26.5584 C   0  0  0  0  0  0  0  0  0  0  0  0
   10.7480  -17.3964   26.0601 O   0  0  0  0  0  0  0  0  0  0  0  0
  2  1  1  1
  2  3  1  0
  3  4  1  0
  4  5  1  0
  5  9  1  0
  6  5  2  0
  7  2  1  0
  8  7  2  0
 11 10  1  0
 12 13  1  1
 12 11  1  0
 12 14  1  0
 14 15  1  6
 15  7  1  0
 16 14  1  0
 16 17  2  0
 19 18  1  0
 20 19  2  0
 21 20  1  0
 22 21  2  0
 22 28  1  0
 24 23  1  6
 23 22  1  0
 24 25  1  0
 25 16  1  0
 26 24  1  0
 27 26  1  0
 28 29  2  0
 29 19  1  0
 30 26  2  0
M  END
$$$$
