EIY.pdb
     RDKit          3D

 30 30  0  0  1  0  0  0  0  0999 V2000
    9.8627  -18.3323   17.4797 N   0  0  0  0  0  0  0  0  0  0  0  0
    9.1760  -18.3534   18.7343 C   0  0  1  0  0  0  0  0  0  0  0  0
    9.4204  -19.5920   19.5343 C   0  0  0  0  0  0  0  0  0  0  0  0
   10.1653  -20.6471   18.7972 C   0  0  0  0  0  0  0  0  0  0  0  0
   10.4086  -21.8831   19.5481 C   0  0  0  0  0  0  0  0  0  0  0  0
   11.4891  -22.5161   19.5075 O   0  0  0  0  0  0  0  0  0  0  0  0
    9.6339  -17.1851   19.5419 C   0  0  0  0  0  0  0  0  0  0  0  0
   10.8298  -16.7555   19.4038 O   0  0  0  0  0  0  0  0  0  0  0  0
    9.4000  -22.4096   20.3625 O   0  0  0  0  0  0  0  0  0  0  0  0
    6.5616  -12.8696   19.9839 C   0  0  0  0  0  0  0  0  0  0  0  0
    7.7455  -13.7932   19.8893 C   0  0  0  0  0  0  0  0  0  0  0  0
    8.0962  -14.3698   21.2024 C   0  0  2  0  0  0  0  0  0  0  0  0
    8.4307  -13.2369   22.1799 C   0  0  0  0  0  0  0  0  0  0  0  0
    9.2466  -15.3621   21.1819 C   0  0  2  0  0  0  0  0  0  0  0  0
    8.7483  -16.5638   20.4497 N   0  0  0  0  0  0  0  0  0  0  0  0
    9.6561  -15.8246   22.5247 C   0  0  0  0  0  0  0  0  0  0  0  0
    8.7835  -16.3203   23.3153 O   0  0  0  0  0  0  0  0  0  0  0  0
   10.2371  -15.0644   30.7975 O   0  0  0  0  0  0  0  0  0  0  0  0
   10.2495  -14.9998   29.4012 C   0  0  0  0  0  0  0  0  0  0  0  0
    9.7600  -13.9049   28.7211 C   0  0  0  0  0  0  0  0  0  0  0  0
    9.7742  -13.8449   27.3396 C   0  0  0  0  0  0  0  0  0  0  0  0
   10.2769  -14.8740   26.5697 C   0  0  0  0  0  0  0  0  0  0  0  0
   10.2930  -14.8285   25.0855 C   0  0  0  0  0  0  0  0  0  0  0  0
   11.2042  -15.8718   24.4705 C   0  0  2  0  0  0  0  0  0  0  0  0
   10.9740  -15.7632   23.0155 N   0  0  0  0  0  0  0  0  0  0  0  0
   10.8430  -17.2309   24.9410 C   0  0  0  0  0  0  0  0  0  0  0  0
    9.5198  -17.6807   24.9249 O   0  0  0  0  0  0  0  0  0  0  0  0
   10.7674  -15.9715   27.2600 C   0  0  0  0  0  0  0  0  0  0  0  0
   10.7532  -16.0307   28.6369 C   0  0  0  0  0  0  0  0  0  0  0  0
   11.7059  -18.0296   25.3709 O   0  0  0  0  0  0  0  0  0  0  0  0
  2  1  1  6
  2  3  1  0
  3  4  1  0
  4  5  1  0
  5  9  1  0
  6  5  2  0
  7  2  1  0
  8  7  2  0
 11 10  1  0
 12 13  1  1
 12 11  1  0
 12 14  1  0
 14 15  1  6
 15  7  1  0
 16 14  1  0
 16 17  2  0
 19 18  1  0
 20 19  2  0
 21 20  1  0
 22 21  2  0
 22 28  1  0
 24 23  1  1
 23 22  1  0
 24 25  1  0
 25 16  1  0
 26 24  1  0
 27 26  1  0
 28 29  2  0
 29 19  1  0
 30 26  2  0
M  END
$$$$
