EIY.pdb
     RDKit          3D

 30 30  0  0  1  0  0  0  0  0999 V2000
    5.6147  -14.7932   20.9129 N   0  0  0  0  0  0  0  0  0  0  0  0
    6.2037  -15.7287   21.8205 C   0  0  1  0  0  0  0  0  0  0  0  0
    7.0071  -16.7954   21.1493 C   0  0  0  0  0  0  0  0  0  0  0  0
    7.5474  -17.8190   22.0830 C   0  0  0  0  0  0  0  0  0  0  0  0
    8.3887  -18.8490   21.4650 C   0  0  0  0  0  0  0  0  0  0  0  0
    8.1397  -19.3707   20.3535 O   0  0  0  0  0  0  0  0  0  0  0  0
    7.1078  -14.9834   22.7446 C   0  0  0  0  0  0  0  0  0  0  0  0
    8.0635  -14.2852   22.2617 O   0  0  0  0  0  0  0  0  0  0  0  0
    9.5382  -19.2945   22.1269 O   0  0  0  0  0  0  0  0  0  0  0  0
    6.0336  -11.3589   26.3675 C   0  0  0  0  0  0  0  0  0  0  0  0
    6.0930  -12.5932   25.5092 C   0  0  0  0  0  0  0  0  0  0  0  0
    7.0338  -13.5929   26.0526 C   0  0  2  0  0  0  0  0  0  0  0  0
    7.9698  -12.9130   27.0588 C   0  0  0  0  0  0  0  0  0  0  0  0
    7.8688  -14.3210   25.0129 C   0  0  2  0  0  0  0  0  0  0  0  0
    6.9038  -15.0530   24.1403 N   0  0  0  0  0  0  0  0  0  0  0  0
    8.7762  -15.3376   25.5856 C   0  0  0  0  0  0  0  0  0  0  0  0
    8.3663  -16.0865   26.5360 O   0  0  0  0  0  0  0  0  0  0  0  0
    7.3782  -20.8365   29.2511 O   0  0  0  0  0  0  0  0  0  0  0  0
    8.0586  -20.1257   28.2583 C   0  0  0  0  0  0  0  0  0  0  0  0
    9.3412  -19.6577   28.4506 C   0  0  0  0  0  0  0  0  0  0  0  0
   10.0108  -18.9549   27.4658 C   0  0  0  0  0  0  0  0  0  0  0  0
    9.4338  -18.6848   26.2416 C   0  0  0  0  0  0  0  0  0  0  0  0
   10.1364  -17.9255   25.1762 C   0  0  0  0  0  0  0  0  0  0  0  0
   10.8551  -16.6979   25.6991 C   0  0  2  0  0  0  0  0  0  0  0  0
   10.0972  -15.5548   25.1506 N   0  0  0  0  0  0  0  0  0  0  0  0
   12.2551  -16.6587   25.2120 C   0  0  0  0  0  0  0  0  0  0  0  0
   13.2519  -17.4479   25.7929 O   0  0  0  0  0  0  0  0  0  0  0  0
    8.1443  -19.1583   26.0550 C   0  0  0  0  0  0  0  0  0  0  0  0
    7.4774  -19.8588   27.0369 C   0  0  0  0  0  0  0  0  0  0  0  0
   12.6015  -15.9194   24.2630 O   0  0  0  0  0  0  0  0  0  0  0  0
  2  1  1  6
  2  3  1  0
  3  4  1  0
  4  5  1  0
  5  9  1  0
  6  5  2  0
  7  2  1  0
  8  7  2  0
 11 10  1  0
 12 13  1  1
 12 11  1  0
 12 14  1  0
 14 15  1  6
 15  7  1  0
 16 14  1  0
 16 17  2  0
 19 18  1  0
 20 19  2  0
 21 20  1  0
 22 21  2  0
 22 28  1  0
 24 23  1  6
 23 22  1  0
 24 25  1  0
 25 16  1  0
 26 24  1  0
 27 26  1  0
 28 29  2  0
 29 19  1  0
 30 26  2  0
M  END
$$$$
