EIY.pdb
     RDKit          3D

 30 30  0  0  1  0  0  0  0  0999 V2000
    8.5444  -18.2338   18.6929 N   0  0  0  0  0  0  0  0  0  0  0  0
    9.1723  -18.5538   19.9376 C   0  0  1  0  0  0  0  0  0  0  0  0
   10.3342  -19.4845   19.8046 C   0  0  0  0  0  0  0  0  0  0  0  0
   10.3456  -20.2547   18.5325 C   0  0  0  0  0  0  0  0  0  0  0  0
   11.4534  -21.2044   18.3850 C   0  0  0  0  0  0  0  0  0  0  0  0
   11.4754  -22.3319   18.9308 O   0  0  0  0  0  0  0  0  0  0  0  0
    9.6639  -17.2881   20.5565 C   0  0  0  0  0  0  0  0  0  0  0  0
   10.7969  -16.8139   20.2023 O   0  0  0  0  0  0  0  0  0  0  0  0
   12.5596  -20.8628   17.5993 O   0  0  0  0  0  0  0  0  0  0  0  0
    6.8208  -13.1609   19.9602 C   0  0  0  0  0  0  0  0  0  0  0  0
    7.9690  -14.1024   20.2028 C   0  0  0  0  0  0  0  0  0  0  0  0
    8.2087  -14.3133   21.6442 C   0  0  2  0  0  0  0  0  0  0  0  0
    8.4925  -12.9632   22.3133 C   0  0  0  0  0  0  0  0  0  0  0  0
    9.3367  -15.2763   21.9738 C   0  0  2  0  0  0  0  0  0  0  0  0
    8.8791  -16.6246   21.5251 N   0  0  0  0  0  0  0  0  0  0  0  0
    9.6208  -15.3858   23.4202 C   0  0  0  0  0  0  0  0  0  0  0  0
   10.3465  -14.5021   23.9899 O   0  0  0  0  0  0  0  0  0  0  0  0
    5.6032  -11.1430   25.7910 O   0  0  0  0  0  0  0  0  0  0  0  0
    6.2049  -12.3967   25.9318 C   0  0  0  0  0  0  0  0  0  0  0  0
    7.4276  -12.5494   26.5506 C   0  0  0  0  0  0  0  0  0  0  0  0
    8.0195  -13.7916   26.6878 C   0  0  0  0  0  0  0  0  0  0  0  0
    7.4210  -14.9415   26.2144 C   0  0  0  0  0  0  0  0  0  0  0  0
    8.0463  -16.2817   26.3473 C   0  0  0  0  0  0  0  0  0  0  0  0
    9.4125  -16.3654   25.6965 C   0  0  2  0  0  0  0  0  0  0  0  0
    9.1370  -16.4177   24.2463 N   0  0  0  0  0  0  0  0  0  0  0  0
   10.1251  -17.5942   26.1219 C   0  0  0  0  0  0  0  0  0  0  0  0
   10.5217  -17.7853   27.4485 O   0  0  0  0  0  0  0  0  0  0  0  0
    6.1920  -14.7806   25.5935 C   0  0  0  0  0  0  0  0  0  0  0  0
    5.6024  -13.5423   25.4571 C   0  0  0  0  0  0  0  0  0  0  0  0
   10.4004  -18.5091   25.3129 O   0  0  0  0  0  0  0  0  0  0  0  0
  2  1  1  6
  2  3  1  0
  3  4  1  0
  4  5  1  0
  5  9  1  0
  6  5  2  0
  7  2  1  0
  8  7  2  0
 11 10  1  0
 12 13  1  1
 12 11  1  0
 12 14  1  0
 14 15  1  1
 15  7  1  0
 16 14  1  0
 16 17  2  0
 19 18  1  0
 20 19  2  0
 21 20  1  0
 22 21  2  0
 22 28  1  0
 24 23  1  1
 23 22  1  0
 24 25  1  0
 25 16  1  0
 26 24  1  0
 27 26  1  0
 28 29  2  0
 29 19  1  0
 30 26  2  0
M  END
$$$$
