EIY.pdb
     RDKit          3D

 30 30  0  0  1  0  0  0  0  0999 V2000
   10.7295  -16.9306   17.5965 N   0  0  0  0  0  0  0  0  0  0  0  0
   11.1768  -17.3034   18.9029 C   0  0  1  0  0  0  0  0  0  0  0  0
   12.6539  -17.5109   18.9977 C   0  0  0  0  0  0  0  0  0  0  0  0
   13.1069  -18.8414   18.5118 C   0  0  0  0  0  0  0  0  0  0  0  0
   14.5429  -19.1040   18.6521 C   0  0  0  0  0  0  0  0  0  0  0  0
   15.0905  -19.3914   19.7416 O   0  0  0  0  0  0  0  0  0  0  0  0
   10.8015  -16.2189   19.8568 C   0  0  0  0  0  0  0  0  0  0  0  0
   11.6360  -15.2828   20.1043 O   0  0  0  0  0  0  0  0  0  0  0  0
   15.3730  -19.0379   17.5275 O   0  0  0  0  0  0  0  0  0  0  0  0
    6.5709  -13.3926   19.0006 C   0  0  0  0  0  0  0  0  0  0  0  0
    7.9293  -13.7930   19.5083 C   0  0  0  0  0  0  0  0  0  0  0  0
    7.8403  -14.5442   20.7762 C   0  0  2  0  0  0  0  0  0  0  0  0
    7.1717  -13.6651   21.8398 C   0  0  0  0  0  0  0  0  0  0  0  0
    9.1661  -15.0531   21.3161 C   0  0  2  0  0  0  0  0  0  0  0  0
    9.5332  -16.2325   20.4778 N   0  0  0  0  0  0  0  0  0  0  0  0
    9.0942  -15.5326   22.7124 C   0  0  0  0  0  0  0  0  0  0  0  0
    8.6484  -16.7049   22.9554 O   0  0  0  0  0  0  0  0  0  0  0  0
   10.9102  -16.4112   31.3386 O   0  0  0  0  0  0  0  0  0  0  0  0
   10.6640  -15.8904   30.0651 C   0  0  0  0  0  0  0  0  0  0  0  0
   10.2916  -14.5761   29.8781 C   0  0  0  0  0  0  0  0  0  0  0  0
   10.0489  -14.0648   28.6163 C   0  0  0  0  0  0  0  0  0  0  0  0
   10.1655  -14.8395   27.4802 C   0  0  0  0  0  0  0  0  0  0  0  0
    9.9017  -14.3079   26.1190 C   0  0  0  0  0  0  0  0  0  0  0  0
    9.3116  -15.3434   25.1826 C   0  0  2  0  0  0  0  0  0  0  0  0
    9.4938  -14.7768   23.8307 N   0  0  0  0  0  0  0  0  0  0  0  0
    7.8684  -15.5427   25.4586 C   0  0  0  0  0  0  0  0  0  0  0  0
    6.8994  -14.6845   24.9312 O   0  0  0  0  0  0  0  0  0  0  0  0
   10.5404  -16.1598   27.6756 C   0  0  0  0  0  0  0  0  0  0  0  0
   10.7823  -16.6688   28.9333 C   0  0  0  0  0  0  0  0  0  0  0  0
    7.4589  -16.4854   26.1735 O   0  0  0  0  0  0  0  0  0  0  0  0
  2  1  1  6
  2  3  1  0
  3  4  1  0
  4  5  1  0
  5  9  1  0
  6  5  2  0
  7  2  1  0
  8  7  2  0
 11 10  1  0
 12 13  1  1
 12 11  1  0
 12 14  1  0
 14 15  1  6
 15  7  1  0
 16 14  1  0
 16 17  2  0
 19 18  1  0
 20 19  2  0
 21 20  1  0
 22 21  2  0
 22 28  1  0
 24 23  1  1
 23 22  1  0
 24 25  1  0
 25 16  1  0
 26 24  1  0
 27 26  1  0
 28 29  2  0
 29 19  1  0
 30 26  2  0
M  END
$$$$
