EIY.pdb
     RDKit          3D

 30 30  0  0  1  0  0  0  0  0999 V2000
   10.6049  -17.9624   18.2987 N   0  0  0  0  0  0  0  0  0  0  0  0
    9.6654  -18.0805   19.3707 C   0  0  1  0  0  0  0  0  0  0  0  0
    9.9030  -19.2635   20.2527 C   0  0  0  0  0  0  0  0  0  0  0  0
    9.9840  -20.5544   19.5189 C   0  0  0  0  0  0  0  0  0  0  0  0
    9.4103  -21.7092   20.2175 C   0  0  0  0  0  0  0  0  0  0  0  0
    8.1794  -21.9300   20.2942 O   0  0  0  0  0  0  0  0  0  0  0  0
    9.7547  -16.8520   20.2131 C   0  0  0  0  0  0  0  0  0  0  0  0
   10.9022  -16.4176   20.5715 O   0  0  0  0  0  0  0  0  0  0  0  0
   10.2563  -22.6323   20.8421 O   0  0  0  0  0  0  0  0  0  0  0  0
    6.9636  -12.4130   19.3338 C   0  0  0  0  0  0  0  0  0  0  0  0
    8.0417  -13.3669   19.7711 C   0  0  0  0  0  0  0  0  0  0  0  0
    7.7382  -13.9715   21.0835 C   0  0  2  0  0  0  0  0  0  0  0  0
    7.6547  -12.8663   22.1429 C   0  0  0  0  0  0  0  0  0  0  0  0
    8.7256  -15.0289   21.5474 C   0  0  2  0  0  0  0  0  0  0  0  0
    8.5773  -16.1795   20.6079 N   0  0  0  0  0  0  0  0  0  0  0  0
    8.4450  -15.5501   22.9019 C   0  0  0  0  0  0  0  0  0  0  0  0
    7.2704  -15.9622   23.1892 O   0  0  0  0  0  0  0  0  0  0  0  0
    8.1449  -21.3763   29.1327 O   0  0  0  0  0  0  0  0  0  0  0  0
    8.3233  -20.5045   28.0547 C   0  0  0  0  0  0  0  0  0  0  0  0
    9.5359  -20.3876   27.4090 C   0  0  0  0  0  0  0  0  0  0  0  0
    9.7082  -19.5239   26.3429 C   0  0  0  0  0  0  0  0  0  0  0  0
    8.6797  -18.7349   25.8694 C   0  0  0  0  0  0  0  0  0  0  0  0
    8.8500  -17.7973   24.7305 C   0  0  0  0  0  0  0  0  0  0  0  0
    9.0598  -16.3622   25.1707 C   0  0  2  0  0  0  0  0  0  0  0  0
    9.4009  -15.6337   23.9318 N   0  0  0  0  0  0  0  0  0  0  0  0
   10.1778  -16.2658   26.1399 C   0  0  0  0  0  0  0  0  0  0  0  0
   11.4759  -15.9520   25.7273 O   0  0  0  0  0  0  0  0  0  0  0  0
    7.4634  -18.8576   26.5231 C   0  0  0  0  0  0  0  0  0  0  0  0
    7.2922  -19.7187   27.5855 C   0  0  0  0  0  0  0  0  0  0  0  0
   10.0061  -16.4608   27.3646 O   0  0  0  0  0  0  0  0  0  0  0  0
  2  1  1  6
  2  3  1  0
  3  4  1  0
  4  5  1  0
  5  9  1  0
  6  5  2  0
  7  2  1  0
  8  7  2  0
 11 10  1  0
 12 13  1  1
 12 11  1  0
 12 14  1  0
 14 15  1  6
 15  7  1  0
 16 14  1  0
 16 17  2  0
 19 18  1  0
 20 19  2  0
 21 20  1  0
 22 21  2  0
 22 28  1  0
 24 23  1  6
 23 22  1  0
 24 25  1  0
 25 16  1  0
 26 24  1  0
 27 26  1  0
 28 29  2  0
 29 19  1  0
 30 26  2  0
M  END
$$$$
