EIY.pdb
     RDKit          3D

 30 30  0  0  1  0  0  0  0  0999 V2000
    8.2892  -15.6854   20.8762 N   0  0  0  0  0  0  0  0  0  0  0  0
    7.3575  -15.9739   21.9223 C   0  0  1  0  0  0  0  0  0  0  0  0
    7.0206  -17.4248   22.0460 C   0  0  0  0  0  0  0  0  0  0  0  0
    6.4401  -18.0151   20.8107 C   0  0  0  0  0  0  0  0  0  0  0  0
    5.9973  -19.4081   20.9301 C   0  0  0  0  0  0  0  0  0  0  0  0
    6.7716  -20.3897   20.8486 O   0  0  0  0  0  0  0  0  0  0  0  0
    7.9490  -15.5260   23.2171 C   0  0  0  0  0  0  0  0  0  0  0  0
    9.2164  -15.5691   23.3775 O   0  0  0  0  0  0  0  0  0  0  0  0
    4.6438  -19.6893   21.1469 O   0  0  0  0  0  0  0  0  0  0  0  0
    5.9145  -11.2755   25.7002 C   0  0  0  0  0  0  0  0  0  0  0  0
    6.9064  -12.2930   25.2058 C   0  0  0  0  0  0  0  0  0  0  0  0
    6.9420  -13.4883   26.0718 C   0  0  2  0  0  0  0  0  0  0  0  0
    7.4799  -13.0970   27.4532 C   0  0  0  0  0  0  0  0  0  0  0  0
    7.7607  -14.6486   25.5318 C   0  0  2  0  0  0  0  0  0  0  0  0
    7.1098  -15.0594   24.2527 N   0  0  0  0  0  0  0  0  0  0  0  0
    7.7564  -15.8379   26.4095 C   0  0  0  0  0  0  0  0  0  0  0  0
    6.6670  -16.4769   26.6019 O   0  0  0  0  0  0  0  0  0  0  0  0
    7.7906  -23.8491   29.1023 O   0  0  0  0  0  0  0  0  0  0  0  0
    7.9221  -22.5738   28.5454 C   0  0  0  0  0  0  0  0  0  0  0  0
    9.1008  -22.1524   27.9673 C   0  0  0  0  0  0  0  0  0  0  0  0
    9.2267  -20.8899   27.4174 C   0  0  0  0  0  0  0  0  0  0  0  0
    8.1834  -19.9865   27.4176 C   0  0  0  0  0  0  0  0  0  0  0  0
    8.3043  -18.6248   26.8378 C   0  0  0  0  0  0  0  0  0  0  0  0
    8.7824  -17.5939   27.8408 C   0  0  2  0  0  0  0  0  0  0  0  0
    8.8945  -16.3399   27.0685 N   0  0  0  0  0  0  0  0  0  0  0  0
   10.1063  -17.9696   28.3930 C   0  0  0  0  0  0  0  0  0  0  0  0
   10.2224  -18.6722   29.5957 O   0  0  0  0  0  0  0  0  0  0  0  0
    7.0014  -20.4168   28.0003 C   0  0  0  0  0  0  0  0  0  0  0  0
    6.8765  -21.6753   28.5482 C   0  0  0  0  0  0  0  0  0  0  0  0
   11.1722  -17.6739   27.8065 O   0  0  0  0  0  0  0  0  0  0  0  0
  2  1  1  6
  2  3  1  0
  3  4  1  0
  4  5  1  0
  5  9  1  0
  6  5  2  0
  7  2  1  0
  8  7  2  0
 11 10  1  0
 12 13  1  1
 12 11  1  0
 12 14  1  0
 14 15  1  6
 15  7  1  0
 16 14  1  0
 16 17  2  0
 19 18  1  0
 20 19  2  0
 21 20  1  0
 22 21  2  0
 22 28  1  0
 24 23  1  6
 23 22  1  0
 24 25  1  0
 25 16  1  0
 26 24  1  0
 27 26  1  0
 28 29  2  0
 29 19  1  0
 30 26  2  0
M  END
$$$$
