VYQ.pdb
     RDKit          3D

 29 29  0  0  1  0  0  0  0  0999 V2000
    9.1731  -17.5560   18.7795 C   0  0  0  0  0  0  0  0  0  0  0  0
   10.0231  -17.3041   19.9785 C   0  0  2  0  0  0  0  0  0  0  0  0
   11.4994  -17.2082   19.6548 C   0  0  0  0  0  0  0  0  0  0  0  0
    9.7837  -18.2792   21.1052 C   0  0  2  0  0  0  0  0  0  0  0  0
    8.3734  -18.5491   21.1932 N   0  0  0  0  0  0  0  0  0  0  0  0
   10.2917  -17.6894   22.3958 C   0  0  0  0  0  0  0  0  0  0  0  0
   11.5078  -17.4433   22.5611 O   0  0  0  0  0  0  0  0  0  0  0  0
   10.9852  -14.2565   30.4201 O   0  0  0  0  0  0  0  0  0  0  0  0
   10.4973  -14.6779   29.1781 C   0  0  0  0  0  0  0  0  0  0  0  0
   10.5736  -13.8838   28.0479 C   0  0  0  0  0  0  0  0  0  0  0  0
   10.0810  -14.3391   26.8479 C   0  0  0  0  0  0  0  0  0  0  0  0
    9.4944  -15.5972   26.7219 C   0  0  0  0  0  0  0  0  0  0  0  0
    8.9804  -15.9706   25.3904 C   0  0  0  0  0  0  0  0  0  0  0  0
    9.9406  -16.8975   24.7188 C   0  0  2  0  0  0  0  0  0  0  0  0
    9.4113  -17.3979   23.4546 N   0  0  0  0  0  0  0  0  0  0  0  0
   10.3817  -18.0273   25.5810 C   0  0  0  0  0  0  0  0  0  0  0  0
    9.6359  -18.9942   25.8559 O   0  0  0  0  0  0  0  0  0  0  0  0
    9.4177  -16.3895   27.8476 C   0  0  0  0  0  0  0  0  0  0  0  0
    9.9158  -15.9184   29.0411 C   0  0  0  0  0  0  0  0  0  0  0  0
   16.5585  -21.0058   27.0090 N   0  0  0  0  0  0  0  0  0  0  0  0
   15.3708  -21.3043   26.2936 C   0  0  0  0  0  0  0  0  0  0  0  0
   15.4206  -21.8821   25.1936 O   0  0  0  0  0  0  0  0  0  0  0  0
   14.0647  -20.9141   26.8823 C   0  0  0  0  0  0  0  0  0  0  0  0
   13.5380  -19.6509   26.2129 C   0  0  0  0  0  0  0  0  0  0  0  0
   12.1969  -19.2541   26.7911 C   0  0  2  0  0  0  0  0  0  0  0  0
   11.6883  -18.0650   26.1423 N   0  0  0  0  0  0  0  0  0  0  0  0
   12.2649  -19.0507   28.2528 C   0  0  0  0  0  0  0  0  0  0  0  0
   12.1092  -17.8081   28.8333 O   0  0  0  0  0  0  0  0  0  0  0  0
   12.4710  -20.0408   28.9924 O   0  0  0  0  0  0  0  0  0  0  0  0
  2  1  1  6
  3  2  1  0
  4  2  1  0
  4  5  1  1
  6  4  1  0
  6  7  2  0
  8  9  1  0
  9 19  2  0
  9 10  1  0
 10 11  2  0
 11 12  1  0
 12 13  1  0
 14 13  1  1
 14 15  1  0
 15  6  1  0
 16 14  1  0
 17 16  2  0
 18 12  2  0
 19 18  1  0
 20 21  1  0
 21 23  1  0
 22 21  2  0
 23 24  1  0
 25 24  1  6
 25 26  1  0
 25 27  1  0
 26 16  1  0
 27 28  1  0
 29 27  2  0
M  END
$$$$
