VYQ.pdb
     RDKit          3D

 29 29  0  0  1  0  0  0  0  0999 V2000
    8.8926  -18.6940   18.0842 C   0  0  0  0  0  0  0  0  0  0  0  0
    8.8624  -18.0505   19.4290 C   0  0  2  0  0  0  0  0  0  0  0  0
    7.6284  -18.4040   20.2328 C   0  0  0  0  0  0  0  0  0  0  0  0
    9.0657  -16.5557   19.3889 C   0  0  2  0  0  0  0  0  0  0  0  0
   10.3105  -16.2746   18.7248 N   0  0  0  0  0  0  0  0  0  0  0  0
    9.0814  -16.0134   20.7951 C   0  0  0  0  0  0  0  0  0  0  0  0
   10.0462  -16.2305   21.5623 O   0  0  0  0  0  0  0  0  0  0  0  0
    7.1316  -12.0112   28.3184 O   0  0  0  0  0  0  0  0  0  0  0  0
    7.0753  -12.4695   26.9974 C   0  0  0  0  0  0  0  0  0  0  0  0
    7.7405  -11.8308   25.9664 C   0  0  0  0  0  0  0  0  0  0  0  0
    7.6568  -12.3167   24.6830 C   0  0  0  0  0  0  0  0  0  0  0  0
    6.9115  -13.4530   24.3725 C   0  0  0  0  0  0  0  0  0  0  0  0
    6.8757  -13.8693   22.9577 C   0  0  0  0  0  0  0  0  0  0  0  0
    8.0362  -14.7633   22.6636 C   0  0  2  0  0  0  0  0  0  0  0  0
    8.0092  -15.2455   21.2869 N   0  0  0  0  0  0  0  0  0  0  0  0
    8.1665  -15.9032   23.6112 C   0  0  0  0  0  0  0  0  0  0  0  0
    7.6324  -17.0157   23.4020 O   0  0  0  0  0  0  0  0  0  0  0  0
    6.2481  -14.0903   25.3993 C   0  0  0  0  0  0  0  0  0  0  0  0
    6.3425  -13.5906   26.6784 C   0  0  0  0  0  0  0  0  0  0  0  0
   12.0323  -18.7984   22.5819 N   0  0  0  0  0  0  0  0  0  0  0  0
   10.9496  -19.5740   23.0697 C   0  0  0  0  0  0  0  0  0  0  0  0
   10.7305  -20.7121   22.6193 O   0  0  0  0  0  0  0  0  0  0  0  0
   10.0809  -19.0019   24.1294 C   0  0  0  0  0  0  0  0  0  0  0  0
   10.5208  -17.5827   24.4664 C   0  0  0  0  0  0  0  0  0  0  0  0
    9.5491  -16.9314   25.4265 C   0  0  2  0  0  0  0  0  0  0  0  0
    8.9135  -15.7838   24.8159 N   0  0  0  0  0  0  0  0  0  0  0  0
   10.2028  -16.5414   26.6927 C   0  0  0  0  0  0  0  0  0  0  0  0
   10.1805  -15.2450   27.1662 O   0  0  0  0  0  0  0  0  0  0  0  0
   10.7986  -17.4179   27.3609 O   0  0  0  0  0  0  0  0  0  0  0  0
  2  1  1  6
  3  2  1  0
  4  2  1  0
  4  5  1  1
  6  4  1  0
  6  7  2  0
  8  9  1  0
  9 19  2  0
  9 10  1  0
 10 11  2  0
 11 12  1  0
 12 13  1  0
 14 13  1  1
 14 15  1  0
 15  6  1  0
 16 14  1  0
 17 16  2  0
 18 12  2  0
 19 18  1  0
 20 21  1  0
 21 23  1  0
 22 21  2  0
 23 24  1  0
 25 24  1  6
 25 26  1  0
 25 27  1  0
 26 16  1  0
 27 28  1  0
 29 27  2  0
M  END
$$$$
