VYQ.pdb
     RDKit          3D

 29 29  0  0  1  0  0  0  0  0999 V2000
    9.0910  -19.9108   18.5689 C   0  0  0  0  0  0  0  0  0  0  0  0
    9.1746  -18.9862   19.7358 C   0  0  2  0  0  0  0  0  0  0  0  0
    8.3103  -19.4171   20.9024 C   0  0  0  0  0  0  0  0  0  0  0  0
    8.9169  -17.5418   19.3826 C   0  0  2  0  0  0  0  0  0  0  0  0
    9.8695  -17.1308   18.3862 N   0  0  0  0  0  0  0  0  0  0  0  0
    9.0454  -16.6919   20.6207 C   0  0  0  0  0  0  0  0  0  0  0  0
   10.1657  -16.4337   21.1157 O   0  0  0  0  0  0  0  0  0  0  0  0
    7.3781  -12.1873   27.9288 O   0  0  0  0  0  0  0  0  0  0  0  0
    7.2633  -12.7726   26.6630 C   0  0  0  0  0  0  0  0  0  0  0  0
    7.9019  -12.2549   25.5505 C   0  0  0  0  0  0  0  0  0  0  0  0
    7.7606  -12.8634   24.3258 C   0  0  0  0  0  0  0  0  0  0  0  0
    6.9819  -14.0070   24.1567 C   0  0  0  0  0  0  0  0  0  0  0  0
    6.8848  -14.5604   22.7926 C   0  0  0  0  0  0  0  0  0  0  0  0
    8.0495  -15.4576   22.5264 C   0  0  2  0  0  0  0  0  0  0  0  0
    7.9069  -16.1630   21.2572 N   0  0  0  0  0  0  0  0  0  0  0  0
    8.3258  -16.4197   23.6274 C   0  0  0  0  0  0  0  0  0  0  0  0
    7.4803  -17.2564   24.0170 O   0  0  0  0  0  0  0  0  0  0  0  0
    6.3448  -14.5239   25.2647 C   0  0  0  0  0  0  0  0  0  0  0  0
    6.4970  -13.9024   26.4835 C   0  0  0  0  0  0  0  0  0  0  0  0
   13.7267  -18.9346   25.2588 N   0  0  0  0  0  0  0  0  0  0  0  0
   12.9652  -19.0358   24.0667 C   0  0  0  0  0  0  0  0  0  0  0  0
   13.4517  -19.5501   23.0444 O   0  0  0  0  0  0  0  0  0  0  0  0
   11.5743  -18.5159   24.0608 C   0  0  0  0  0  0  0  0  0  0  0  0
   11.2592  -17.8304   25.3844 C   0  0  0  0  0  0  0  0  0  0  0  0
    9.8298  -17.3339   25.4069 C   0  0  2  0  0  0  0  0  0  0  0  0
    9.5792  -16.4364   24.2999 N   0  0  0  0  0  0  0  0  0  0  0  0
    9.4948  -16.6753   26.6862 C   0  0  0  0  0  0  0  0  0  0  0  0
   10.0116  -15.4454   27.0408 O   0  0  0  0  0  0  0  0  0  0  0  0
    8.7140  -17.2529   27.4777 O   0  0  0  0  0  0  0  0  0  0  0  0
  2  1  1  6
  3  2  1  0
  4  2  1  0
  4  5  1  6
  6  4  1  0
  6  7  2  0
  8  9  1  0
  9 19  2  0
  9 10  1  0
 10 11  2  0
 11 12  1  0
 12 13  1  0
 14 13  1  1
 14 15  1  0
 15  6  1  0
 16 14  1  0
 17 16  2  0
 18 12  2  0
 19 18  1  0
 20 21  1  0
 21 23  1  0
 22 21  2  0
 23 24  1  0
 25 24  1  1
 25 26  1  0
 25 27  1  0
 26 16  1  0
 27 28  1  0
 29 27  2  0
M  END
$$$$
