VYQ.pdb
     RDKit          3D

 29 29  0  0  1  0  0  0  0  0999 V2000
    7.5726  -12.5377   21.0794 C   0  0  0  0  0  0  0  0  0  0  0  0
    8.2848  -13.2722   19.9946 C   0  0  2  0  0  0  0  0  0  0  0  0
    7.6541  -13.0821   18.6309 C   0  0  0  0  0  0  0  0  0  0  0  0
    8.4902  -14.7377   20.2905 C   0  0  2  0  0  0  0  0  0  0  0  0
    7.2272  -15.4162   20.1725 N   0  0  0  0  0  0  0  0  0  0  0  0
    9.0482  -14.8954   21.6817 C   0  0  0  0  0  0  0  0  0  0  0  0
   10.2050  -14.5088   21.9632 O   0  0  0  0  0  0  0  0  0  0  0  0
    5.9848  -10.5864   26.5265 O   0  0  0  0  0  0  0  0  0  0  0  0
    6.4298  -11.8660   26.1760 C   0  0  0  0  0  0  0  0  0  0  0  0
    7.7658  -12.2214   26.2254 C   0  0  0  0  0  0  0  0  0  0  0  0
    8.1576  -13.4908   25.8717 C   0  0  0  0  0  0  0  0  0  0  0  0
    7.2417  -14.4557   25.4558 C   0  0  0  0  0  0  0  0  0  0  0  0
    7.7792  -15.7769   25.0791 C   0  0  0  0  0  0  0  0  0  0  0  0
    8.8461  -15.6135   24.0460 C   0  0  2  0  0  0  0  0  0  0  0  0
    8.2830  -15.4831   22.7064 N   0  0  0  0  0  0  0  0  0  0  0  0
    9.8747  -16.6884   24.0751 C   0  0  0  0  0  0  0  0  0  0  0  0
    9.7962  -17.7134   23.3611 O   0  0  0  0  0  0  0  0  0  0  0  0
    5.9099  -14.1026   25.4060 C   0  0  0  0  0  0  0  0  0  0  0  0
    5.5346  -12.8275   25.7636 C   0  0  0  0  0  0  0  0  0  0  0  0
   15.9972  -16.6331   23.8864 N   0  0  0  0  0  0  0  0  0  0  0  0
   15.3549  -17.5241   22.9892 C   0  0  0  0  0  0  0  0  0  0  0  0
   15.9995  -18.0971   22.0935 O   0  0  0  0  0  0  0  0  0  0  0  0
   13.8967  -17.7610   23.1387 C   0  0  0  0  0  0  0  0  0  0  0  0
   13.3422  -16.9393   24.2956 C   0  0  0  0  0  0  0  0  0  0  0  0
   12.0843  -17.5716   24.8509 C   0  0  2  0  0  0  0  0  0  0  0  0
   11.0116  -16.6034   24.9259 N   0  0  0  0  0  0  0  0  0  0  0  0
   12.3138  -18.1853   26.1750 C   0  0  0  0  0  0  0  0  0  0  0  0
   13.0123  -19.3656   26.3305 O   0  0  0  0  0  0  0  0  0  0  0  0
   11.8585  -17.6147   27.1933 O   0  0  0  0  0  0  0  0  0  0  0  0
  2  1  1  1
  3  2  1  0
  4  2  1  0
  4  5  1  1
  6  4  1  0
  6  7  2  0
  8  9  1  0
  9 19  2  0
  9 10  1  0
 10 11  2  0
 11 12  1  0
 12 13  1  0
 14 13  1  1
 14 15  1  0
 15  6  1  0
 16 14  1  0
 17 16  2  0
 18 12  2  0
 19 18  1  0
 20 21  1  0
 21 23  1  0
 22 21  2  0
 23 24  1  0
 25 24  1  1
 25 26  1  0
 25 27  1  0
 26 16  1  0
 27 28  1  0
 29 27  2  0
M  END
$$$$
