VYQ.pdb
     RDKit          3D

 29 29  0  0  1  0  0  0  0  0999 V2000
    9.6812  -19.5579   18.1860 C   0  0  0  0  0  0  0  0  0  0  0  0
    9.7357  -18.6538   19.3706 C   0  0  2  0  0  0  0  0  0  0  0  0
    8.9677  -19.1848   20.5630 C   0  0  0  0  0  0  0  0  0  0  0  0
    9.3345  -17.2315   19.0648 C   0  0  2  0  0  0  0  0  0  0  0  0
   10.2283  -16.7010   18.0703 N   0  0  0  0  0  0  0  0  0  0  0  0
    9.3983  -16.4097   20.3267 C   0  0  0  0  0  0  0  0  0  0  0  0
   10.4882  -15.9735   20.7611 O   0  0  0  0  0  0  0  0  0  0  0  0
    7.3280  -12.1665   27.6818 O   0  0  0  0  0  0  0  0  0  0  0  0
    7.2433  -12.7769   26.4254 C   0  0  0  0  0  0  0  0  0  0  0  0
    6.7087  -14.0413   26.2545 C   0  0  0  0  0  0  0  0  0  0  0  0
    6.6455  -14.6020   25.0008 C   0  0  0  0  0  0  0  0  0  0  0  0
    7.1092  -13.9322   23.8698 C   0  0  0  0  0  0  0  0  0  0  0  0
    7.0112  -14.6409   22.5796 C   0  0  0  0  0  0  0  0  0  0  0  0
    8.3203  -15.2834   22.2544 C   0  0  2  0  0  0  0  0  0  0  0  0
    8.2318  -16.1087   21.0544 N   0  0  0  0  0  0  0  0  0  0  0  0
    8.8977  -16.0652   23.3812 C   0  0  0  0  0  0  0  0  0  0  0  0
    8.5840  -17.2563   23.6034 O   0  0  0  0  0  0  0  0  0  0  0  0
    7.6423  -12.6721   24.0390 C   0  0  0  0  0  0  0  0  0  0  0  0
    7.6980  -12.1253   25.3010 C   0  0  0  0  0  0  0  0  0  0  0  0
    7.7111  -18.5396   27.5544 N   0  0  0  0  0  0  0  0  0  0  0  0
    9.0454  -18.5353   28.0351 C   0  0  0  0  0  0  0  0  0  0  0  0
    9.3547  -19.1754   29.0552 O   0  0  0  0  0  0  0  0  0  0  0  0
   10.0683  -17.7515   27.2973 C   0  0  0  0  0  0  0  0  0  0  0  0
    9.4183  -16.9628   26.1674 C   0  0  0  0  0  0  0  0  0  0  0  0
   10.4655  -16.2716   25.3213 C   0  0  2  0  0  0  0  0  0  0  0  0
    9.8461  -15.4907   24.2724 N   0  0  0  0  0  0  0  0  0  0  0  0
   11.4295  -17.2310   24.7442 C   0  0  0  0  0  0  0  0  0  0  0  0
   12.7360  -17.3177   25.1811 O   0  0  0  0  0  0  0  0  0  0  0  0
   11.0482  -17.9933   23.8259 O   0  0  0  0  0  0  0  0  0  0  0  0
  2  1  1  6
  3  2  1  0
  4  2  1  0
  4  5  1  6
  6  4  1  0
  6  7  2  0
  8  9  1  0
  9 19  2  0
  9 10  1  0
 10 11  2  0
 11 12  1  0
 12 13  1  0
 14 13  1  1
 14 15  1  0
 15  6  1  0
 16 14  1  0
 17 16  2  0
 18 12  2  0
 19 18  1  0
 20 21  1  0
 21 23  1  0
 22 21  2  0
 23 24  1  0
 25 24  1  6
 25 26  1  0
 25 27  1  0
 26 16  1  0
 27 28  1  0
 29 27  2  0
M  END
$$$$
