VYQ.pdb
     RDKit          3D

 29 29  0  0  1  0  0  0  0  0999 V2000
    7.9938  -18.1450   20.4927 C   0  0  0  0  0  0  0  0  0  0  0  0
    6.9719  -17.0843   20.2598 C   0  0  2  0  0  0  0  0  0  0  0  0
    6.0584  -17.3818   19.0890 C   0  0  0  0  0  0  0  0  0  0  0  0
    7.5552  -15.6972   20.1455 C   0  0  2  0  0  0  0  0  0  0  0  0
    8.4481  -15.6610   19.0182 N   0  0  0  0  0  0  0  0  0  0  0  0
    8.2915  -15.3562   21.4156 C   0  0  0  0  0  0  0  0  0  0  0  0
    9.5391  -15.4346   21.4820 O   0  0  0  0  0  0  0  0  0  0  0  0
   10.2082  -14.2397   29.8409 O   0  0  0  0  0  0  0  0  0  0  0  0
    9.5222  -14.2217   28.6213 C   0  0  0  0  0  0  0  0  0  0  0  0
    8.7090  -15.2653   28.2172 C   0  0  0  0  0  0  0  0  0  0  0  0
    8.0539  -15.2045   27.0100 C   0  0  0  0  0  0  0  0  0  0  0  0
    8.1793  -14.1085   26.1580 C   0  0  0  0  0  0  0  0  0  0  0  0
    7.4477  -14.1630   24.8781 C   0  0  0  0  0  0  0  0  0  0  0  0
    8.3135  -14.7757   23.8258 C   0  0  2  0  0  0  0  0  0  0  0  0
    7.5960  -14.9390   22.5659 N   0  0  0  0  0  0  0  0  0  0  0  0
    8.9361  -16.0623   24.2399 C   0  0  0  0  0  0  0  0  0  0  0  0
    8.2952  -17.1366   24.2816 O   0  0  0  0  0  0  0  0  0  0  0  0
    8.9896  -13.0679   26.5596 C   0  0  0  0  0  0  0  0  0  0  0  0
    9.6382  -13.1448   27.7713 C   0  0  0  0  0  0  0  0  0  0  0  0
   13.8443  -18.2363   21.8217 N   0  0  0  0  0  0  0  0  0  0  0  0
   13.8473  -19.0970   22.9490 C   0  0  0  0  0  0  0  0  0  0  0  0
   14.6780  -20.0175   23.0425 O   0  0  0  0  0  0  0  0  0  0  0  0
   12.8393  -18.8790   24.0173 C   0  0  0  0  0  0  0  0  0  0  0  0
   12.0440  -17.6086   23.7443 C   0  0  0  0  0  0  0  0  0  0  0  0
   10.9723  -17.4080   24.7939 C   0  0  2  0  0  0  0  0  0  0  0  0
   10.3068  -16.1360   24.6132 N   0  0  0  0  0  0  0  0  0  0  0  0
   11.5158  -17.5117   26.1638 C   0  0  0  0  0  0  0  0  0  0  0  0
   11.7477  -18.7270   26.7758 O   0  0  0  0  0  0  0  0  0  0  0  0
   11.7754  -16.4598   26.7928 O   0  0  0  0  0  0  0  0  0  0  0  0
  2  1  1  6
  3  2  1  0
  4  2  1  0
  4  5  1  6
  6  4  1  0
  6  7  2  0
  8  9  1  0
  9 19  2  0
  9 10  1  0
 10 11  2  0
 11 12  1  0
 12 13  1  0
 14 13  1  1
 14 15  1  0
 15  6  1  0
 16 14  1  0
 17 16  2  0
 18 12  2  0
 19 18  1  0
 20 21  1  0
 21 23  1  0
 22 21  2  0
 23 24  1  0
 25 24  1  6
 25 26  1  0
 25 27  1  0
 26 16  1  0
 27 28  1  0
 29 27  2  0
M  END
$$$$
