VYQ.pdb
     RDKit          3D

 29 29  0  0  1  0  0  0  0  0999 V2000
    9.2521  -15.9920   17.1836 C   0  0  0  0  0  0  0  0  0  0  0  0
   10.3127  -17.0395   17.1490 C   0  0  2  0  0  0  0  0  0  0  0  0
   10.2692  -17.8926   15.8984 C   0  0  0  0  0  0  0  0  0  0  0  0
   10.3502  -17.9033   18.3859 C   0  0  2  0  0  0  0  0  0  0  0  0
    9.1312  -18.6639   18.4576 N   0  0  0  0  0  0  0  0  0  0  0  0
   10.5013  -17.0290   19.6042 C   0  0  0  0  0  0  0  0  0  0  0  0
   11.5352  -16.3478   19.7884 O   0  0  0  0  0  0  0  0  0  0  0  0
    7.3464  -11.8865   17.7476 O   0  0  0  0  0  0  0  0  0  0  0  0
    7.6423  -12.7352   18.8202 C   0  0  0  0  0  0  0  0  0  0  0  0
    6.9544  -13.9155   19.0380 C   0  0  0  0  0  0  0  0  0  0  0  0
    7.2795  -14.7189   20.1053 C   0  0  0  0  0  0  0  0  0  0  0  0
    8.2974  -14.3839   20.9966 C   0  0  0  0  0  0  0  0  0  0  0  0
    8.5430  -15.3106   22.1180 C   0  0  0  0  0  0  0  0  0  0  0  0
    9.7040  -16.1951   21.7987 C   0  0  2  0  0  0  0  0  0  0  0  0
    9.4821  -16.9532   20.5720 N   0  0  0  0  0  0  0  0  0  0  0  0
   10.0834  -17.1070   22.9117 C   0  0  0  0  0  0  0  0  0  0  0  0
    9.5286  -18.2144   23.0923 O   0  0  0  0  0  0  0  0  0  0  0  0
    8.9836  -13.2078   20.7805 C   0  0  0  0  0  0  0  0  0  0  0  0
    8.6455  -12.4151   19.7072 C   0  0  0  0  0  0  0  0  0  0  0  0
   14.2022  -19.2667   20.8726 N   0  0  0  0  0  0  0  0  0  0  0  0
   14.5641  -19.7995   22.1361 C   0  0  0  0  0  0  0  0  0  0  0  0
   15.4525  -20.6646   22.2293 O   0  0  0  0  0  0  0  0  0  0  0  0
   13.8623  -19.3053   23.3477 C   0  0  0  0  0  0  0  0  0  0  0  0
   12.8511  -18.2293   22.9726 C   0  0  0  0  0  0  0  0  0  0  0  0
   12.1431  -17.7033   24.2024 C   0  0  2  0  0  0  0  0  0  0  0  0
   11.1075  -16.7614   23.8366 N   0  0  0  0  0  0  0  0  0  0  0  0
   13.0844  -17.0840   25.1581 C   0  0  0  0  0  0  0  0  0  0  0  0
   13.4902  -17.7219   26.3130 O   0  0  0  0  0  0  0  0  0  0  0  0
   13.5305  -15.9394   24.9121 O   0  0  0  0  0  0  0  0  0  0  0  0
  2  1  1  1
  3  2  1  0
  4  2  1  0
  4  5  1  1
  6  4  1  0
  6  7  2  0
  8  9  1  0
  9 19  2  0
  9 10  1  0
 10 11  2  0
 11 12  1  0
 12 13  1  0
 14 13  1  1
 14 15  1  0
 15  6  1  0
 16 14  1  0
 17 16  2  0
 18 12  2  0
 19 18  1  0
 20 21  1  0
 21 23  1  0
 22 21  2  0
 23 24  1  0
 25 24  1  6
 25 26  1  0
 25 27  1  0
 26 16  1  0
 27 28  1  0
 29 27  2  0
M  END
$$$$
