VYQ.pdb
     RDKit          3D

 29 29  0  0  1  0  0  0  0  0999 V2000
    7.1199  -12.7747   19.3989 C   0  0  0  0  0  0  0  0  0  0  0  0
    8.1803  -13.5526   18.6960 C   0  0  2  0  0  0  0  0  0  0  0  0
    7.8984  -13.7493   17.2211 C   0  0  0  0  0  0  0  0  0  0  0  0
    8.5054  -14.8684   19.3596 C   0  0  2  0  0  0  0  0  0  0  0  0
    7.4217  -15.7854   19.1270 N   0  0  0  0  0  0  0  0  0  0  0  0
    8.7058  -14.6492   20.8373 C   0  0  0  0  0  0  0  0  0  0  0  0
    9.7413  -14.0997   21.2761 O   0  0  0  0  0  0  0  0  0  0  0  0
    7.6383  -13.1734   29.3219 O   0  0  0  0  0  0  0  0  0  0  0  0
    7.4014  -13.5047   27.9831 C   0  0  0  0  0  0  0  0  0  0  0  0
    7.4676  -12.5668   26.9684 C   0  0  0  0  0  0  0  0  0  0  0  0
    7.2272  -12.9378   25.6666 C   0  0  0  0  0  0  0  0  0  0  0  0
    6.9123  -14.2508   25.3207 C   0  0  0  0  0  0  0  0  0  0  0  0
    6.6521  -14.5281   23.8953 C   0  0  0  0  0  0  0  0  0  0  0  0
    7.9400  -14.8046   23.1902 C   0  0  2  0  0  0  0  0  0  0  0  0
    7.7320  -15.0569   21.7683 N   0  0  0  0  0  0  0  0  0  0  0  0
    8.7314  -15.9057   23.8031 C   0  0  0  0  0  0  0  0  0  0  0  0
    8.3362  -17.0933   23.8120 O   0  0  0  0  0  0  0  0  0  0  0  0
    6.8459  -15.1864   26.3312 C   0  0  0  0  0  0  0  0  0  0  0  0
    7.0894  -14.7982   27.6291 C   0  0  0  0  0  0  0  0  0  0  0  0
   14.6829  -15.5457   23.6780 N   0  0  0  0  0  0  0  0  0  0  0  0
   13.9029  -16.3854   22.8426 C   0  0  0  0  0  0  0  0  0  0  0  0
   14.4149  -16.9630   21.8676 O   0  0  0  0  0  0  0  0  0  0  0  0
   12.4618  -16.5630   23.1531 C   0  0  0  0  0  0  0  0  0  0  0  0
   12.2410  -16.5662   24.6606 C   0  0  0  0  0  0  0  0  0  0  0  0
   10.7734  -16.7343   24.9896 C   0  0  2  0  0  0  0  0  0  0  0  0
    9.9913  -15.6603   24.4164 N   0  0  0  0  0  0  0  0  0  0  0  0
   10.5407  -16.8164   26.4462 C   0  0  0  0  0  0  0  0  0  0  0  0
   10.1405  -15.7263   27.1924 O   0  0  0  0  0  0  0  0  0  0  0  0
   10.7125  -17.9141   27.0253 O   0  0  0  0  0  0  0  0  0  0  0  0
  2  1  1  1
  3  2  1  0
  4  2  1  0
  4  5  1  1
  6  4  1  0
  6  7  2  0
  8  9  1  0
  9 19  2  0
  9 10  1  0
 10 11  2  0
 11 12  1  0
 12 13  1  0
 14 13  1  1
 14 15  1  0
 15  6  1  0
 16 14  1  0
 17 16  2  0
 18 12  2  0
 19 18  1  0
 20 21  1  0
 21 23  1  0
 22 21  2  0
 23 24  1  0
 25 24  1  1
 25 26  1  0
 25 27  1  0
 26 16  1  0
 27 28  1  0
 29 27  2  0
M  END
$$$$
