VYQ.pdb
     RDKit          3D

 29 29  0  0  1  0  0  0  0  0999 V2000
    7.8079  -14.7454   17.3454 C   0  0  0  0  0  0  0  0  0  0  0  0
    7.9657  -14.2905   18.7567 C   0  0  2  0  0  0  0  0  0  0  0  0
    8.6268  -12.9332   18.8763 C   0  0  0  0  0  0  0  0  0  0  0  0
    8.6507  -15.3004   19.6446 C   0  0  2  0  0  0  0  0  0  0  0  0
    7.8646  -16.5049   19.6694 N   0  0  0  0  0  0  0  0  0  0  0  0
    8.7934  -14.7324   21.0334 C   0  0  0  0  0  0  0  0  0  0  0  0
    9.7505  -13.9826   21.3313 O   0  0  0  0  0  0  0  0  0  0  0  0
    6.7806  -11.0432   28.6349 O   0  0  0  0  0  0  0  0  0  0  0  0
    6.7181  -11.7656   27.4380 C   0  0  0  0  0  0  0  0  0  0  0  0
    6.9245  -11.1709   26.2062 C   0  0  0  0  0  0  0  0  0  0  0  0
    6.8533  -11.9200   25.0556 C   0  0  0  0  0  0  0  0  0  0  0  0
    6.5752  -13.2856   25.0814 C   0  0  0  0  0  0  0  0  0  0  0  0
    6.5014  -13.9828   23.7834 C   0  0  0  0  0  0  0  0  0  0  0  0
    7.8795  -14.2910   23.2954 C   0  0  2  0  0  0  0  0  0  0  0  0
    7.8527  -15.0294   22.0373 N   0  0  0  0  0  0  0  0  0  0  0  0
    8.7224  -14.9998   24.2961 C   0  0  0  0  0  0  0  0  0  0  0  0
    8.9999  -14.5057   25.4121 O   0  0  0  0  0  0  0  0  0  0  0  0
    6.3692  -13.8793   26.3085 C   0  0  0  0  0  0  0  0  0  0  0  0
    6.4441  -13.1148   27.4507 C   0  0  0  0  0  0  0  0  0  0  0  0
    6.8534  -20.0897   26.1355 N   0  0  0  0  0  0  0  0  0  0  0  0
    8.0552  -20.0917   26.8887 C   0  0  0  0  0  0  0  0  0  0  0  0
    8.2121  -20.8873   27.8313 O   0  0  0  0  0  0  0  0  0  0  0  0
    9.1244  -19.1253   26.5311 C   0  0  0  0  0  0  0  0  0  0  0  0
    8.6467  -18.1914   25.4263 C   0  0  0  0  0  0  0  0  0  0  0  0
    9.7029  -17.1574   25.1011 C   0  0  2  0  0  0  0  0  0  0  0  0
    9.2611  -16.2895   24.0309 N   0  0  0  0  0  0  0  0  0  0  0  0
   10.9966  -17.7807   24.7540 C   0  0  0  0  0  0  0  0  0  0  0  0
   11.8827  -18.2258   25.7142 O   0  0  0  0  0  0  0  0  0  0  0  0
   11.3008  -17.9102   23.5455 O   0  0  0  0  0  0  0  0  0  0  0  0
  2  1  1  6
  3  2  1  0
  4  2  1  0
  4  5  1  1
  6  4  1  0
  6  7  2  0
  8  9  1  0
  9 19  2  0
  9 10  1  0
 10 11  2  0
 11 12  1  0
 12 13  1  0
 14 13  1  1
 14 15  1  0
 15  6  1  0
 16 14  1  0
 17 16  2  0
 18 12  2  0
 19 18  1  0
 20 21  1  0
 21 23  1  0
 22 21  2  0
 23 24  1  0
 25 24  1  6
 25 26  1  0
 25 27  1  0
 26 16  1  0
 27 28  1  0
 29 27  2  0
M  END
$$$$
