VYQ.pdb
     RDKit          3D

 29 29  0  0  1  0  0  0  0  0999 V2000
    7.8341  -18.4128   18.1867 C   0  0  0  0  0  0  0  0  0  0  0  0
    8.1500  -17.8321   19.5234 C   0  0  2  0  0  0  0  0  0  0  0  0
    7.5103  -18.5879   20.6693 C   0  0  0  0  0  0  0  0  0  0  0  0
    7.8571  -16.3552   19.6257 C   0  0  2  0  0  0  0  0  0  0  0  0
    8.5582  -15.6693   18.5733 N   0  0  0  0  0  0  0  0  0  0  0  0
    8.2989  -15.8482   20.9746 C   0  0  0  0  0  0  0  0  0  0  0  0
    9.5128  -15.7394   21.2598 O   0  0  0  0  0  0  0  0  0  0  0  0
    8.5519  -12.5737   29.0914 O   0  0  0  0  0  0  0  0  0  0  0  0
    8.0993  -13.0272   27.8473 C   0  0  0  0  0  0  0  0  0  0  0  0
    7.9512  -12.1808   26.7632 C   0  0  0  0  0  0  0  0  0  0  0  0
    7.5031  -12.6705   25.5593 C   0  0  0  0  0  0  0  0  0  0  0  0
    7.1850  -14.0161   25.3835 C   0  0  0  0  0  0  0  0  0  0  0  0
    6.6923  -14.4239   24.0541 C   0  0  0  0  0  0  0  0  0  0  0  0
    7.8146  -14.9997   23.2532 C   0  0  2  0  0  0  0  0  0  0  0  0
    7.3571  -15.4818   21.9543 N   0  0  0  0  0  0  0  0  0  0  0  0
    8.5714  -16.0645   23.9657 C   0  0  0  0  0  0  0  0  0  0  0  0
    8.1583  -17.2432   24.0470 O   0  0  0  0  0  0  0  0  0  0  0  0
    7.3322  -14.8606   26.4633 C   0  0  0  0  0  0  0  0  0  0  0  0
    7.7820  -14.3541   27.6615 C   0  0  0  0  0  0  0  0  0  0  0  0
   14.4170  -17.0245   23.4140 N   0  0  0  0  0  0  0  0  0  0  0  0
   13.3458  -17.5561   22.6516 C   0  0  0  0  0  0  0  0  0  0  0  0
   13.5459  -18.0281   21.5187 O   0  0  0  0  0  0  0  0  0  0  0  0
   11.9787  -17.5391   23.2309 C   0  0  0  0  0  0  0  0  0  0  0  0
   11.9947  -16.8868   24.6077 C   0  0  0  0  0  0  0  0  0  0  0  0
   10.6029  -16.8466   25.2008 C   0  0  2  0  0  0  0  0  0  0  0  0
    9.8167  -15.7924   24.5973 N   0  0  0  0  0  0  0  0  0  0  0  0
   10.6336  -16.6861   26.6691 C   0  0  0  0  0  0  0  0  0  0  0  0
   11.2181  -17.6192   27.5016 O   0  0  0  0  0  0  0  0  0  0  0  0
   10.1107  -15.6673   27.1773 O   0  0  0  0  0  0  0  0  0  0  0  0
  2  1  1  6
  3  2  1  0
  4  2  1  0
  4  5  1  6
  6  4  1  0
  6  7  2  0
  8  9  1  0
  9 19  2  0
  9 10  1  0
 10 11  2  0
 11 12  1  0
 12 13  1  0
 14 13  1  1
 14 15  1  0
 15  6  1  0
 16 14  1  0
 17 16  2  0
 18 12  2  0
 19 18  1  0
 20 21  1  0
 21 23  1  0
 22 21  2  0
 23 24  1  0
 25 24  1  6
 25 26  1  0
 25 27  1  0
 26 16  1  0
 27 28  1  0
 29 27  2  0
M  END
$$$$
