VYQ.pdb
     RDKit          3D

 29 29  0  0  1  0  0  0  0  0999 V2000
    7.3180  -12.6336   19.2111 C   0  0  0  0  0  0  0  0  0  0  0  0
    8.2865  -13.4857   18.4631 C   0  0  2  0  0  0  0  0  0  0  0  0
    7.9330  -13.6478   16.9994 C   0  0  0  0  0  0  0  0  0  0  0  0
    8.5335  -14.8282   19.1067 C   0  0  2  0  0  0  0  0  0  0  0  0
    7.3942  -15.6735   18.8682 N   0  0  0  0  0  0  0  0  0  0  0  0
    8.7548  -14.6424   20.5860 C   0  0  0  0  0  0  0  0  0  0  0  0
    9.7839  -14.0780   21.0211 O   0  0  0  0  0  0  0  0  0  0  0  0
    7.5102  -13.1641   29.0477 O   0  0  0  0  0  0  0  0  0  0  0  0
    7.2941  -13.5006   27.7067 C   0  0  0  0  0  0  0  0  0  0  0  0
    6.9649  -14.7851   27.3125 C   0  0  0  0  0  0  0  0  0  0  0  0
    6.7615  -15.0701   25.9831 C   0  0  0  0  0  0  0  0  0  0  0  0
    6.8763  -14.0944   24.9943 C   0  0  0  0  0  0  0  0  0  0  0  0
    6.6580  -14.5204   23.5988 C   0  0  0  0  0  0  0  0  0  0  0  0
    7.9726  -14.7723   22.9350 C   0  0  2  0  0  0  0  0  0  0  0  0
    7.8087  -15.0993   21.5225 N   0  0  0  0  0  0  0  0  0  0  0  0
    8.7964  -15.8076   23.6159 C   0  0  0  0  0  0  0  0  0  0  0  0
    8.5494  -17.0312   23.5234 O   0  0  0  0  0  0  0  0  0  0  0  0
    7.2044  -12.8139   25.3859 C   0  0  0  0  0  0  0  0  0  0  0  0
    7.4047  -12.5456   26.7210 C   0  0  0  0  0  0  0  0  0  0  0  0
   14.3773  -15.4696   23.2735 N   0  0  0  0  0  0  0  0  0  0  0  0
   14.1345  -16.8623   23.3873 C   0  0  0  0  0  0  0  0  0  0  0  0
   14.8766  -17.6843   22.8217 O   0  0  0  0  0  0  0  0  0  0  0  0
   12.9767  -17.3223   24.1952 C   0  0  0  0  0  0  0  0  0  0  0  0
   12.2321  -16.1293   24.7813 C   0  0  0  0  0  0  0  0  0  0  0  0
   10.7728  -16.4622   25.0050 C   0  0  2  0  0  0  0  0  0  0  0  0
    9.9188  -15.4540   24.4153 N   0  0  0  0  0  0  0  0  0  0  0  0
   10.4579  -16.6251   26.4392 C   0  0  0  0  0  0  0  0  0  0  0  0
    9.9999  -17.8170   26.9636 O   0  0  0  0  0  0  0  0  0  0  0  0
   10.6118  -15.6473   27.2072 O   0  0  0  0  0  0  0  0  0  0  0  0
  2  1  1  1
  3  2  1  0
  4  2  1  0
  4  5  1  1
  6  4  1  0
  6  7  2  0
  8  9  1  0
  9 19  2  0
  9 10  1  0
 10 11  2  0
 11 12  1  0
 12 13  1  0
 14 13  1  1
 14 15  1  0
 15  6  1  0
 16 14  1  0
 17 16  2  0
 18 12  2  0
 19 18  1  0
 20 21  1  0
 21 23  1  0
 22 21  2  0
 23 24  1  0
 25 24  1  1
 25 26  1  0
 25 27  1  0
 26 16  1  0
 27 28  1  0
 29 27  2  0
M  END
$$$$
