VYQ.pdb
     RDKit          3D

 29 29  0  0  1  0  0  0  0  0999 V2000
    9.7314  -16.3579   19.4115 C   0  0  0  0  0  0  0  0  0  0  0  0
   10.5787  -17.5413   19.7358 C   0  0  2  0  0  0  0  0  0  0  0  0
   10.7634  -18.4828   18.5640 C   0  0  0  0  0  0  0  0  0  0  0  0
   10.1223  -18.2943   20.9614 C   0  0  2  0  0  0  0  0  0  0  0  0
    8.8757  -18.9489   20.6663 N   0  0  0  0  0  0  0  0  0  0  0  0
    9.9561  -17.3314   22.1090 C   0  0  0  0  0  0  0  0  0  0  0  0
   10.9289  -16.6833   22.5568 O   0  0  0  0  0  0  0  0  0  0  0  0
    7.4923  -12.6019   18.6923 O   0  0  0  0  0  0  0  0  0  0  0  0
    7.4666  -13.2768   19.9179 C   0  0  0  0  0  0  0  0  0  0  0  0
    6.6972  -14.4084   20.1205 C   0  0  0  0  0  0  0  0  0  0  0  0
    6.7029  -15.0393   21.3420 C   0  0  0  0  0  0  0  0  0  0  0  0
    7.4704  -14.5737   22.4082 C   0  0  0  0  0  0  0  0  0  0  0  0
    7.3803  -15.3180   23.6788 C   0  0  0  0  0  0  0  0  0  0  0  0
    8.5723  -16.2059   23.8309 C   0  0  2  0  0  0  0  0  0  0  0  0
    8.6997  -17.1328   22.7114 N   0  0  0  0  0  0  0  0  0  0  0  0
    8.6061  -16.9435   25.1228 C   0  0  0  0  0  0  0  0  0  0  0  0
    7.6794  -17.7010   25.4889 O   0  0  0  0  0  0  0  0  0  0  0  0
    8.2376  -13.4460   22.2075 C   0  0  0  0  0  0  0  0  0  0  0  0
    8.2204  -12.8265   20.9784 C   0  0  0  0  0  0  0  0  0  0  0  0
   11.3502  -21.4365   26.0771 N   0  0  0  0  0  0  0  0  0  0  0  0
   12.2576  -20.3492   26.0012 C   0  0  0  0  0  0  0  0  0  0  0  0
   13.4227  -20.5215   25.6023 O   0  0  0  0  0  0  0  0  0  0  0  0
   11.7911  -18.9992   26.4071 C   0  0  0  0  0  0  0  0  0  0  0  0
   10.3221  -19.0446   26.8083 C   0  0  0  0  0  0  0  0  0  0  0  0
    9.8242  -17.6664   27.1863 C   0  0  2  0  0  0  0  0  0  0  0  0
    9.7063  -16.8230   26.0165 N   0  0  0  0  0  0  0  0  0  0  0  0
   10.6914  -17.0243   28.1954 C   0  0  0  0  0  0  0  0  0  0  0  0
   10.8170  -17.5139   29.4798 O   0  0  0  0  0  0  0  0  0  0  0  0
   11.3360  -15.9990   27.8746 O   0  0  0  0  0  0  0  0  0  0  0  0
  2  1  1  6
  3  2  1  0
  4  2  1  0
  4  5  1  6
  6  4  1  0
  6  7  2  0
  8  9  1  0
  9 19  2  0
  9 10  1  0
 10 11  2  0
 11 12  1  0
 12 13  1  0
 14 13  1  6
 14 15  1  0
 15  6  1  0
 16 14  1  0
 17 16  2  0
 18 12  2  0
 19 18  1  0
 20 21  1  0
 21 23  1  0
 22 21  2  0
 23 24  1  0
 25 24  1  6
 25 26  1  0
 25 27  1  0
 26 16  1  0
 27 28  1  0
 29 27  2  0
M  END
$$$$
