ESL.pdb
     RDKit          3D

 24 23  0  0  1  0  0  0  0  0999 V2000
   18.1703  -11.7067  -16.0242 N   0  0  0  0  0  0  0  0  0  0  0  0
   19.3403  -10.9124  -15.9866 C   0  0  1  0  0  0  0  0  0  0  0  0
   19.8803  -10.5808  -17.3414 C   0  0  0  0  0  0  0  0  0  0  0  0
   18.9300  -10.4913  -18.4637 C   0  0  0  0  0  0  0  0  0  0  0  0
   19.4818  -10.2781  -19.8066 C   0  0  0  0  0  0  0  0  0  0  0  0
   20.6882  -10.1848  -20.0864 O   0  0  0  0  0  0  0  0  0  0  0  0
   19.1346   -9.6059  -15.2682 C   0  0  0  0  0  0  0  0  0  0  0  0
   18.2331   -8.8445  -15.7016 O   0  0  0  0  0  0  0  0  0  0  0  0
   18.5886  -10.1656  -20.8925 O   0  0  0  0  0  0  0  0  0  0  0  0
   21.4481   -8.5561  -11.9893 O   0  0  0  0  0  0  0  0  0  0  0  0
   20.1775   -8.0371  -12.0692 C   0  0  0  0  0  0  0  0  0  0  0  0
   19.7550   -7.8984  -13.5054 C   0  0  2  0  0  0  0  0  0  0  0  0
   19.8966   -9.1994  -14.1464 N   0  0  0  0  0  0  0  0  0  0  0  0
   20.5458   -6.8720  -14.2280 C   0  0  0  0  0  0  0  0  0  0  0  0
   21.5277   -7.2274  -14.9684 O   0  0  0  0  0  0  0  0  0  0  0  0
   20.3043   -2.1845  -17.7893 C   0  0  0  0  0  0  0  0  0  0  0  0
   21.2588   -2.8744  -16.8002 C   0  0  2  0  0  0  0  0  0  0  0  0
   22.4270   -3.4258  -17.5630 C   0  0  0  0  0  0  0  0  0  0  0  0
   20.4705   -3.8723  -16.0114 C   0  0  0  0  0  0  0  0  0  0  0  0
   21.1658   -4.5254  -14.8614 C   0  0  2  0  0  0  0  0  0  0  0  0
   20.3148   -5.4769  -14.1806 N   0  0  0  0  0  0  0  0  0  0  0  0
   21.6245   -3.4756  -13.8681 C   0  0  0  0  0  0  0  0  0  0  0  0
   20.9131   -3.1224  -12.8948 O   0  0  0  0  0  0  0  0  0  0  0  0
   22.8623   -2.8653  -14.0078 O   0  0  0  0  0  0  0  0  0  0  0  0
  2  1  1  6
  2  7  1  0
  3  2  1  0
  3  4  1  0
  5  4  1  0
  5  9  1  0
  6  5  2  0
  7  8  2  0
 10 11  1  0
 12 11  1  1
 12 14  1  0
 13  7  1  0
 13 12  1  0
 14 15  2  0
 17 16  1  6
 17 18  1  0
 19 17  1  0
 20 19  1  6
 20 22  1  0
 21 14  1  0
 21 20  1  0
 22 23  2  0
 22 24  1  0
M  END
$$$$
