ESL.pdb
     RDKit          3D

 24 23  0  0  1  0  0  0  0  0999 V2000
   24.0763  -20.2560  -18.7645 N   0  0  0  0  0  0  0  0  0  0  0  0
   24.5081  -19.4178  -17.7098 C   0  0  1  0  0  0  0  0  0  0  0  0
   23.4952  -18.3927  -17.3094 C   0  0  0  0  0  0  0  0  0  0  0  0
   22.0862  -18.8116  -17.2109 C   0  0  0  0  0  0  0  0  0  0  0  0
   21.5379  -19.0434  -15.8696 C   0  0  0  0  0  0  0  0  0  0  0  0
   20.8927  -20.0435  -15.5150 O   0  0  0  0  0  0  0  0  0  0  0  0
   24.8664  -20.1850  -16.4655 C   0  0  0  0  0  0  0  0  0  0  0  0
   24.0502  -21.0548  -16.0685 O   0  0  0  0  0  0  0  0  0  0  0  0
   21.7461  -18.0626  -14.8775 O   0  0  0  0  0  0  0  0  0  0  0  0
   28.3872  -21.5592  -13.4607 O   0  0  0  0  0  0  0  0  0  0  0  0
   27.9563  -20.7709  -14.5015 C   0  0  0  0  0  0  0  0  0  0  0  0
   26.4556  -20.7913  -14.5907 C   0  0  2  0  0  0  0  0  0  0  0  0
   26.0590  -19.9762  -15.7317 N   0  0  0  0  0  0  0  0  0  0  0  0
   25.8112  -20.2987  -13.3485 C   0  0  0  0  0  0  0  0  0  0  0  0
   25.7028  -19.0400  -13.1418 O   0  0  0  0  0  0  0  0  0  0  0  0
   22.2068  -19.1012  -11.3205 C   0  0  0  0  0  0  0  0  0  0  0  0
   22.3231  -20.6260  -11.4838 C   0  0  2  0  0  0  0  0  0  0  0  0
   21.0007  -21.2489  -11.1468 C   0  0  0  0  0  0  0  0  0  0  0  0
   23.4870  -21.0943  -10.6680 C   0  0  0  0  0  0  0  0  0  0  0  0
   24.8346  -20.5780  -11.0550 C   0  0  2  0  0  0  0  0  0  0  0  0
   25.2795  -21.1151  -12.3225 N   0  0  0  0  0  0  0  0  0  0  0  0
   25.8516  -20.9294   -9.9866 C   0  0  0  0  0  0  0  0  0  0  0  0
   26.6550  -21.8859  -10.1195 O   0  0  0  0  0  0  0  0  0  0  0  0
   25.9250  -20.1933   -8.8132 O   0  0  0  0  0  0  0  0  0  0  0  0
  2  1  1  6
  2  7  1  0
  3  2  1  0
  3  4  1  0
  5  4  1  0
  5  9  1  0
  6  5  2  0
  7  8  2  0
 10 11  1  0
 12 11  1  1
 12 14  1  0
 13  7  1  0
 13 12  1  0
 14 15  2  0
 17 16  1  1
 17 18  1  0
 19 17  1  0
 20 19  1  1
 20 22  1  0
 21 14  1  0
 21 20  1  0
 22 23  2  0
 22 24  1  0
M  END
$$$$
