ESL.pdb
     RDKit          3D

 24 23  0  0  1  0  0  0  0  0999 V2000
   13.0316   -8.3208   -8.7981 N   0  0  0  0  0  0  0  0  0  0  0  0
   14.3482   -8.6360   -9.2089 C   0  0  1  0  0  0  0  0  0  0  0  0
   14.4137   -9.7649  -10.1880 C   0  0  0  0  0  0  0  0  0  0  0  0
   14.0125  -11.1058   -9.7281 C   0  0  0  0  0  0  0  0  0  0  0  0
   14.1086  -12.2111  -10.6885 C   0  0  0  0  0  0  0  0  0  0  0  0
   15.0652  -12.9960  -10.7945 O   0  0  0  0  0  0  0  0  0  0  0  0
   15.0559   -7.4686   -9.8426 C   0  0  0  0  0  0  0  0  0  0  0  0
   14.4256   -6.8137  -10.7112 O   0  0  0  0  0  0  0  0  0  0  0  0
   13.0370  -12.4241  -11.5807 O   0  0  0  0  0  0  0  0  0  0  0  0
   17.8345   -3.7735   -9.6624 O   0  0  0  0  0  0  0  0  0  0  0  0
   17.1217   -4.8310   -9.1487 C   0  0  0  0  0  0  0  0  0  0  0  0
   17.0664   -5.9596  -10.1406 C   0  0  2  0  0  0  0  0  0  0  0  0
   16.3769   -7.0798   -9.5136 N   0  0  0  0  0  0  0  0  0  0  0  0
   18.4154   -6.3697  -10.6022 C   0  0  0  0  0  0  0  0  0  0  0  0
   19.1625   -7.0774   -9.8409 O   0  0  0  0  0  0  0  0  0  0  0  0
   21.8145   -8.8054  -14.7226 C   0  0  0  0  0  0  0  0  0  0  0  0
   21.9084   -7.7721  -13.5874 C   0  0  2  0  0  0  0  0  0  0  0  0
   22.8110   -8.3122  -12.5177 C   0  0  0  0  0  0  0  0  0  0  0  0
   20.5180   -7.4316  -13.1512 C   0  0  0  0  0  0  0  0  0  0  0  0
   20.3722   -6.3138  -12.1705 C   0  0  2  0  0  0  0  0  0  0  0  0
   18.9863   -6.0441  -11.8552 N   0  0  0  0  0  0  0  0  0  0  0  0
   21.0064   -5.0523  -12.7233 C   0  0  0  0  0  0  0  0  0  0  0  0
   22.2518   -4.9193  -12.8201 O   0  0  0  0  0  0  0  0  0  0  0  0
   20.2171   -3.9923  -13.1446 O   0  0  0  0  0  0  0  0  0  0  0  0
  2  1  1  6
  2  7  1  0
  3  2  1  0
  3  4  1  0
  5  4  1  0
  5  9  1  0
  6  5  2  0
  7  8  2  0
 10 11  1  0
 12 11  1  1
 12 14  1  0
 13  7  1  0
 13 12  1  0
 14 15  2  0
 17 16  1  6
 17 18  1  0
 19 17  1  0
 20 19  1  6
 20 22  1  0
 21 14  1  0
 21 20  1  0
 22 23  2  0
 22 24  1  0
M  END
$$$$
