ESL.pdb
     RDKit          3D

 24 23  0  0  1  0  0  0  0  0999 V2000
   16.6959  -10.8365  -17.8434 N   0  0  0  0  0  0  0  0  0  0  0  0
   17.3653  -10.9361  -16.6010 C   0  0  1  0  0  0  0  0  0  0  0  0
   18.6420  -11.7122  -16.6716 C   0  0  0  0  0  0  0  0  0  0  0  0
   18.5622  -13.1525  -16.9714 C   0  0  0  0  0  0  0  0  0  0  0  0
   17.7332  -13.9852  -16.0923 C   0  0  0  0  0  0  0  0  0  0  0  0
   16.6338  -14.4801  -16.3906 O   0  0  0  0  0  0  0  0  0  0  0  0
   17.7043   -9.5929  -16.0127 C   0  0  0  0  0  0  0  0  0  0  0  0
   18.1265   -8.7080  -16.7995 O   0  0  0  0  0  0  0  0  0  0  0  0
   18.1999  -14.2639  -14.7908 O   0  0  0  0  0  0  0  0  0  0  0  0
   18.1599   -8.9225  -11.9235 O   0  0  0  0  0  0  0  0  0  0  0  0
   17.4552   -7.9776  -12.6312 C   0  0  0  0  0  0  0  0  0  0  0  0
   17.8798   -7.9754  -14.0734 C   0  0  2  0  0  0  0  0  0  0  0  0
   17.5739   -9.2838  -14.6372 N   0  0  0  0  0  0  0  0  0  0  0  0
   19.3207   -7.6615  -14.2354 C   0  0  0  0  0  0  0  0  0  0  0  0
   20.1639   -8.6080  -14.4137 O   0  0  0  0  0  0  0  0  0  0  0  0
   23.1766   -5.5015  -17.7084 C   0  0  0  0  0  0  0  0  0  0  0  0
   23.0844   -5.7920  -16.2010 C   0  0  2  0  0  0  0  0  0  0  0  0
   24.0530   -6.8860  -15.8611 C   0  0  0  0  0  0  0  0  0  0  0  0
   21.6521   -6.0674  -15.8665 C   0  0  0  0  0  0  0  0  0  0  0  0
   21.2962   -6.1263  -14.4166 C   0  0  2  0  0  0  0  0  0  0  0  0
   19.8838   -6.3636  -14.2123 N   0  0  0  0  0  0  0  0  0  0  0  0
   21.6816   -4.8281  -13.7344 C   0  0  0  0  0  0  0  0  0  0  0  0
   22.8701   -4.5653  -13.4237 O   0  0  0  0  0  0  0  0  0  0  0  0
   20.7177   -3.8786  -13.4289 O   0  0  0  0  0  0  0  0  0  0  0  0
  2  1  1  6
  2  7  1  0
  3  2  1  0
  3  4  1  0
  5  4  1  0
  5  9  1  0
  6  5  2  0
  7  8  2  0
 10 11  1  0
 12 11  1  1
 12 14  1  0
 13  7  1  0
 13 12  1  0
 14 15  2  0
 17 16  1  6
 17 18  1  0
 19 17  1  0
 20 19  1  6
 20 22  1  0
 21 14  1  0
 21 20  1  0
 22 23  2  0
 22 24  1  0
M  END
$$$$
