ESL.pdb
     RDKit          3D

 24 23  0  0  1  0  0  0  0  0999 V2000
   28.3486  -29.5099  -16.3826 N   0  0  0  0  0  0  0  0  0  0  0  0
   28.6822  -28.3304  -17.0888 C   0  0  1  0  0  0  0  0  0  0  0  0
   28.5508  -28.4658  -18.5726 C   0  0  0  0  0  0  0  0  0  0  0  0
   29.4065  -29.4503  -19.2574 C   0  0  0  0  0  0  0  0  0  0  0  0
   29.2220  -29.6227  -20.7030 C   0  0  0  0  0  0  0  0  0  0  0  0
   28.2438  -29.2291  -21.3592 O   0  0  0  0  0  0  0  0  0  0  0  0
   27.8400  -27.1507  -16.6831 C   0  0  0  0  0  0  0  0  0  0  0  0
   26.7780  -27.3887  -16.0540 O   0  0  0  0  0  0  0  0  0  0  0  0
   30.2259  -30.2893  -21.4360 O   0  0  0  0  0  0  0  0  0  0  0  0
   29.2350  -23.5979  -17.5632 O   0  0  0  0  0  0  0  0  0  0  0  0
   28.2559  -23.4392  -16.6112 C   0  0  0  0  0  0  0  0  0  0  0  0
   27.3871  -24.6642  -16.5404 C   0  0  2  0  0  0  0  0  0  0  0  0
   28.1807  -25.8074  -16.9727 N   0  0  0  0  0  0  0  0  0  0  0  0
   26.1636  -24.5351  -17.3695 C   0  0  0  0  0  0  0  0  0  0  0  0
   26.2064  -24.8144  -18.6180 O   0  0  0  0  0  0  0  0  0  0  0  0
   20.1874  -25.3964  -17.1905 C   0  0  0  0  0  0  0  0  0  0  0  0
   21.3271  -24.8066  -18.0380 C   0  0  2  0  0  0  0  0  0  0  0  0
   21.4644  -25.6180  -19.2924 C   0  0  0  0  0  0  0  0  0  0  0  0
   22.5512  -24.7260  -17.1810 C   0  0  0  0  0  0  0  0  0  0  0  0
   23.7383  -24.0294  -17.7624 C   0  0  2  0  0  0  0  0  0  0  0  0
   24.8964  -24.1162  -16.8997 N   0  0  0  0  0  0  0  0  0  0  0  0
   23.4145  -22.5685  -18.0071 C   0  0  0  0  0  0  0  0  0  0  0  0
   23.7934  -21.6613  -17.2251 O   0  0  0  0  0  0  0  0  0  0  0  0
   22.6788  -22.1857  -19.1191 O   0  0  0  0  0  0  0  0  0  0  0  0
  2  1  1  1
  2  7  1  0
  3  2  1  0
  3  4  1  0
  5  4  1  0
  5  9  1  0
  6  5  2  0
  7  8  2  0
 10 11  1  0
 12 11  1  6
 12 14  1  0
 13  7  1  0
 13 12  1  0
 14 15  2  0
 17 16  1  1
 17 18  1  0
 19 17  1  0
 20 19  1  1
 20 22  1  0
 21 14  1  0
 21 20  1  0
 22 23  2  0
 22 24  1  0
M  END
$$$$
