ESL.pdb
     RDKit          3D

 24 23  0  0  1  0  0  0  0  0999 V2000
   21.2729  -12.9626  -17.4076 N   0  0  0  0  0  0  0  0  0  0  0  0
   20.6102  -11.7646  -17.7642 C   0  0  1  0  0  0  0  0  0  0  0  0
   19.2052  -11.9763  -18.2317 C   0  0  0  0  0  0  0  0  0  0  0  0
   18.4584  -13.1233  -17.6865 C   0  0  0  0  0  0  0  0  0  0  0  0
   17.0904  -13.3371  -18.1725 C   0  0  0  0  0  0  0  0  0  0  0  0
   16.7810  -13.7725  -19.2937 O   0  0  0  0  0  0  0  0  0  0  0  0
   20.5478  -10.7744  -16.6324 C   0  0  0  0  0  0  0  0  0  0  0  0
   19.6602  -10.9502  -15.7597 O   0  0  0  0  0  0  0  0  0  0  0  0
   16.0143  -13.0301  -17.3139 O   0  0  0  0  0  0  0  0  0  0  0  0
   23.8256   -9.2307  -15.2392 O   0  0  0  0  0  0  0  0  0  0  0  0
   22.6700   -9.2780  -14.4958 C   0  0  0  0  0  0  0  0  0  0  0  0
   21.4955   -8.8284  -15.3197 C   0  0  2  0  0  0  0  0  0  0  0  0
   21.4261   -9.6711  -16.5065 N   0  0  0  0  0  0  0  0  0  0  0  0
   21.5900   -7.3977  -15.7007 C   0  0  0  0  0  0  0  0  0  0  0  0
   22.2884   -7.0526  -16.7164 O   0  0  0  0  0  0  0  0  0  0  0  0
   18.6769   -2.0108  -15.2315 C   0  0  0  0  0  0  0  0  0  0  0  0
   19.9511   -2.7188  -15.7217 C   0  0  2  0  0  0  0  0  0  0  0  0
   20.0742   -2.5181  -17.2033 C   0  0  0  0  0  0  0  0  0  0  0  0
   19.8990   -4.1421  -15.2626 C   0  0  0  0  0  0  0  0  0  0  0  0
   21.1504   -4.9454  -15.4091 C   0  0  2  0  0  0  0  0  0  0  0  0
   20.9579   -6.3269  -15.0254 N   0  0  0  0  0  0  0  0  0  0  0  0
   22.2539   -4.3469  -14.5588 C   0  0  0  0  0  0  0  0  0  0  0  0
   22.4011   -4.6486  -13.3482 O   0  0  0  0  0  0  0  0  0  0  0  0
   23.1467   -3.4346  -15.1017 O   0  0  0  0  0  0  0  0  0  0  0  0
  2  1  1  1
  2  7  1  0
  3  2  1  0
  3  4  1  0
  5  4  1  0
  5  9  1  0
  6  5  2  0
  7  8  2  0
 10 11  1  0
 12 11  1  6
 12 14  1  0
 13  7  1  0
 13 12  1  0
 14 15  2  0
 17 16  1  6
 17 18  1  0
 19 17  1  0
 20 19  1  1
 20 22  1  0
 21 14  1  0
 21 20  1  0
 22 23  2  0
 22 24  1  0
M  END
$$$$
