ESL.pdb
     RDKit          3D

 24 23  0  0  1  0  0  0  0  0999 V2000
   15.2882  -10.0270  -17.1921 N   0  0  0  0  0  0  0  0  0  0  0  0
   16.0320   -9.8329  -16.0045 C   0  0  1  0  0  0  0  0  0  0  0  0
   16.9129  -10.9904  -15.6561 C   0  0  0  0  0  0  0  0  0  0  0  0
   16.2709  -12.2661  -15.2942 C   0  0  0  0  0  0  0  0  0  0  0  0
   17.1431  -13.3795  -14.9031 C   0  0  0  0  0  0  0  0  0  0  0  0
   16.7613  -14.4868  -14.4901 O   0  0  0  0  0  0  0  0  0  0  0  0
   16.9154   -8.6157  -16.0628 C   0  0  0  0  0  0  0  0  0  0  0  0
   17.6950   -8.5146  -17.0438 O   0  0  0  0  0  0  0  0  0  0  0  0
   18.5400  -13.2055  -14.9936 O   0  0  0  0  0  0  0  0  0  0  0  0
   15.7004   -5.0513  -15.5127 O   0  0  0  0  0  0  0  0  0  0  0  0
   16.7899   -5.2337  -14.6943 C   0  0  0  0  0  0  0  0  0  0  0  0
   17.6550   -6.3497  -15.2107 C   0  0  2  0  0  0  0  0  0  0  0  0
   16.9114   -7.5960  -15.0806 N   0  0  0  0  0  0  0  0  0  0  0  0
   18.9496   -6.4372  -14.4913 C   0  0  0  0  0  0  0  0  0  0  0  0
   18.9847   -6.8856  -13.2929 O   0  0  0  0  0  0  0  0  0  0  0  0
   22.3614   -8.9795  -14.8801 C   0  0  0  0  0  0  0  0  0  0  0  0
   22.4870   -7.8275  -15.8911 C   0  0  2  0  0  0  0  0  0  0  0  0
   23.6247   -8.1258  -16.8225 C   0  0  0  0  0  0  0  0  0  0  0  0
   22.5947   -6.5459  -15.1261 C   0  0  0  0  0  0  0  0  0  0  0  0
   21.4338   -6.1759  -14.2613 C   0  0  2  0  0  0  0  0  0  0  0  0
   20.2068   -6.0587  -15.0188 N   0  0  0  0  0  0  0  0  0  0  0  0
   21.7076   -4.8597  -13.5600 C   0  0  0  0  0  0  0  0  0  0  0  0
   22.6060   -4.7420  -12.6898 O   0  0  0  0  0  0  0  0  0  0  0  0
   20.9623   -3.7300  -13.8640 O   0  0  0  0  0  0  0  0  0  0  0  0
  2  1  1  6
  2  7  1  0
  3  2  1  0
  3  4  1  0
  5  4  1  0
  5  9  1  0
  6  5  2  0
  7  8  2  0
 10 11  1  0
 12 11  1  1
 12 14  1  0
 13  7  1  0
 13 12  1  0
 14 15  2  0
 17 16  1  1
 17 18  1  0
 19 17  1  0
 20 19  1  6
 20 22  1  0
 21 14  1  0
 21 20  1  0
 22 23  2  0
 22 24  1  0
M  END
$$$$
