ESL.pdb
     RDKit          3D

 24 23  0  0  1  0  0  0  0  0999 V2000
   15.2433  -10.6460  -11.7446 N   0  0  0  0  0  0  0  0  0  0  0  0
   16.1179   -9.8127  -11.0083 C   0  0  1  0  0  0  0  0  0  0  0  0
   17.3466   -9.4202  -11.7655 C   0  0  0  0  0  0  0  0  0  0  0  0
   17.3938   -9.7106  -13.2091 C   0  0  0  0  0  0  0  0  0  0  0  0
   18.6319   -9.3876  -13.9276 C   0  0  0  0  0  0  0  0  0  0  0  0
   19.6871  -10.0410  -13.8802 O   0  0  0  0  0  0  0  0  0  0  0  0
   15.4614   -8.5373  -10.5528 C   0  0  0  0  0  0  0  0  0  0  0  0
   14.6227   -8.0110  -11.3274 O   0  0  0  0  0  0  0  0  0  0  0  0
   18.6547   -8.2420  -14.7502 O   0  0  0  0  0  0  0  0  0  0  0  0
   14.2803   -7.4590   -6.8020 O   0  0  0  0  0  0  0  0  0  0  0  0
   15.1954   -6.6088   -7.3767 C   0  0  0  0  0  0  0  0  0  0  0  0
   15.1053   -6.6745   -8.8761 C   0  0  2  0  0  0  0  0  0  0  0  0
   15.7397   -7.9111   -9.3138 N   0  0  0  0  0  0  0  0  0  0  0  0
   15.7393   -5.5032   -9.5298 C   0  0  0  0  0  0  0  0  0  0  0  0
   17.0116   -5.4578   -9.6627 O   0  0  0  0  0  0  0  0  0  0  0  0
   15.7047   -2.3697  -14.4484 C   0  0  0  0  0  0  0  0  0  0  0  0
   16.1556   -2.2225  -12.9855 C   0  0  2  0  0  0  0  0  0  0  0  0
   17.6541   -2.1628  -12.9469 C   0  0  0  0  0  0  0  0  0  0  0  0
   15.5302   -3.3263  -12.1920 C   0  0  0  0  0  0  0  0  0  0  0  0
   15.7292   -3.2907  -10.7116 C   0  0  2  0  0  0  0  0  0  0  0  0
   15.0498   -4.3802  -10.0451 N   0  0  0  0  0  0  0  0  0  0  0  0
   15.2211   -1.9766  -10.1511 C   0  0  0  0  0  0  0  0  0  0  0  0
   15.9348   -0.9431  -10.1230 O   0  0  0  0  0  0  0  0  0  0  0  0
   13.9335   -1.8763   -9.6451 O   0  0  0  0  0  0  0  0  0  0  0  0
  2  1  1  6
  2  7  1  0
  3  2  1  0
  3  4  1  0
  5  4  1  0
  5  9  1  0
  6  5  2  0
  7  8  2  0
 10 11  1  0
 12 11  1  1
 12 14  1  0
 13  7  1  0
 13 12  1  0
 14 15  2  0
 17 16  1  6
 17 18  1  0
 19 17  1  0
 20 19  1  6
 20 22  1  0
 21 14  1  0
 21 20  1  0
 22 23  2  0
 22 24  1  0
M  END
$$$$
