ESL.pdb
     RDKit          3D

 24 23  0  0  1  0  0  0  0  0999 V2000
   18.7788  -11.4551  -17.8882 N   0  0  0  0  0  0  0  0  0  0  0  0
   18.0725  -10.7993  -16.8526 C   0  0  1  0  0  0  0  0  0  0  0  0
   17.2174  -11.7179  -16.0389 C   0  0  0  0  0  0  0  0  0  0  0  0
   17.0814  -13.1154  -16.4850 C   0  0  0  0  0  0  0  0  0  0  0  0
   16.2412  -14.0080  -15.6782 C   0  0  0  0  0  0  0  0  0  0  0  0
   15.0240  -14.1956  -15.8380 O   0  0  0  0  0  0  0  0  0  0  0  0
   18.9817  -10.0840  -15.8898 C   0  0  0  0  0  0  0  0  0  0  0  0
   18.4427   -9.4711  -14.9336 O   0  0  0  0  0  0  0  0  0  0  0  0
   16.8409  -14.7277  -14.6237 O   0  0  0  0  0  0  0  0  0  0  0  0
   23.5270   -9.2749  -14.3860 O   0  0  0  0  0  0  0  0  0  0  0  0
   22.6538   -9.9232  -15.2272 C   0  0  0  0  0  0  0  0  0  0  0  0
   21.2694   -9.3530  -15.0897 C   0  0  2  0  0  0  0  0  0  0  0  0
   20.3925  -10.0675  -16.0083 N   0  0  0  0  0  0  0  0  0  0  0  0
   21.2319   -7.8948  -15.3605 C   0  0  0  0  0  0  0  0  0  0  0  0
   21.1605   -7.4714  -16.5664 O   0  0  0  0  0  0  0  0  0  0  0  0
   18.3370   -3.0181  -15.0035 C   0  0  0  0  0  0  0  0  0  0  0  0
   19.8116   -3.4370  -15.1276 C   0  0  2  0  0  0  0  0  0  0  0  0
   20.3036   -3.0685  -16.4961 C   0  0  0  0  0  0  0  0  0  0  0  0
   19.9157   -4.8863  -14.7699 C   0  0  0  0  0  0  0  0  0  0  0  0
   21.2894   -5.4716  -14.7151 C   0  0  2  0  0  0  0  0  0  0  0  0
   21.2683   -6.8781  -14.3771 N   0  0  0  0  0  0  0  0  0  0  0  0
   22.1286   -4.7314  -13.6918 C   0  0  0  0  0  0  0  0  0  0  0  0
   22.5269   -3.5551  -13.8812 O   0  0  0  0  0  0  0  0  0  0  0  0
   22.4861   -5.3414  -12.4985 O   0  0  0  0  0  0  0  0  0  0  0  0
  2  1  1  6
  2  7  1  0
  3  2  1  0
  3  4  1  0
  5  4  1  0
  5  9  1  0
  6  5  2  0
  7  8  2  0
 10 11  1  0
 12 11  1  6
 12 14  1  0
 13  7  1  0
 13 12  1  0
 14 15  2  0
 17 16  1  6
 17 18  1  0
 19 17  1  0
 20 19  1  1
 20 22  1  0
 21 14  1  0
 21 20  1  0
 22 23  2  0
 22 24  1  0
M  END
$$$$
