ESL.pdb
     RDKit          3D

 24 23  0  0  1  0  0  0  0  0999 V2000
   15.6060  -10.3594  -16.0650 N   0  0  0  0  0  0  0  0  0  0  0  0
   16.5877  -10.5329  -15.0612 C   0  0  1  0  0  0  0  0  0  0  0  0
   17.7896  -11.2917  -15.5268 C   0  0  0  0  0  0  0  0  0  0  0  0
   17.6461  -12.7382  -15.7672 C   0  0  0  0  0  0  0  0  0  0  0  0
   18.8170  -13.4626  -16.2748 C   0  0  0  0  0  0  0  0  0  0  0  0
   19.9201  -12.9580  -16.5411 O   0  0  0  0  0  0  0  0  0  0  0  0
   17.0867   -9.2274  -14.5025 C   0  0  0  0  0  0  0  0  0  0  0  0
   17.3440   -8.3095  -15.3220 O   0  0  0  0  0  0  0  0  0  0  0  0
   18.7093  -14.8527  -16.4884 O   0  0  0  0  0  0  0  0  0  0  0  0
   16.3126   -7.8146  -10.6990 O   0  0  0  0  0  0  0  0  0  0  0  0
   17.6326   -7.7779  -11.0820 C   0  0  0  0  0  0  0  0  0  0  0  0
   17.7443   -7.7175  -12.5801 C   0  0  2  0  0  0  0  0  0  0  0  0
   17.2783   -8.9881  -13.1203 N   0  0  0  0  0  0  0  0  0  0  0  0
   19.1296   -7.4359  -13.0303 C   0  0  0  0  0  0  0  0  0  0  0  0
   20.0209   -8.3524  -12.9636 O   0  0  0  0  0  0  0  0  0  0  0  0
   22.4634   -5.5671  -17.4470 C   0  0  0  0  0  0  0  0  0  0  0  0
   22.5321   -5.7010  -15.9165 C   0  0  2  0  0  0  0  0  0  0  0  0
   23.5517   -6.7454  -15.5696 C   0  0  0  0  0  0  0  0  0  0  0  0
   21.1473   -5.9531  -15.4084 C   0  0  0  0  0  0  0  0  0  0  0  0
   20.9666   -5.9812  -13.9254 C   0  0  2  0  0  0  0  0  0  0  0  0
   19.5871   -6.2019  -13.5497 N   0  0  0  0  0  0  0  0  0  0  0  0
   21.4392   -4.6738  -13.3200 C   0  0  0  0  0  0  0  0  0  0  0  0
   20.6576   -3.7113  -13.1183 O   0  0  0  0  0  0  0  0  0  0  0  0
   22.7692   -4.5004  -12.9661 O   0  0  0  0  0  0  0  0  0  0  0  0
  2  1  1  6
  2  7  1  0
  3  2  1  0
  3  4  1  0
  5  4  1  0
  5  9  1  0
  6  5  2  0
  7  8  2  0
 10 11  1  0
 12 11  1  1
 12 14  1  0
 13  7  1  0
 13 12  1  0
 14 15  2  0
 17 16  1  6
 17 18  1  0
 19 17  1  0
 20 19  1  6
 20 22  1  0
 21 14  1  0
 21 20  1  0
 22 23  2  0
 22 24  1  0
M  END
$$$$
