ESL.pdb
     RDKit          3D

 24 23  0  0  1  0  0  0  0  0999 V2000
   28.1763  -20.7416  -15.6596 N   0  0  0  0  0  0  0  0  0  0  0  0
   27.7234  -20.0275  -14.5255 C   0  0  1  0  0  0  0  0  0  0  0  0
   27.2919  -18.6289  -14.8340 C   0  0  0  0  0  0  0  0  0  0  0  0
   28.2433  -17.7482  -15.5337 C   0  0  0  0  0  0  0  0  0  0  0  0
   28.5239  -18.0352  -16.9452 C   0  0  0  0  0  0  0  0  0  0  0  0
   29.6482  -18.2373  -17.4325 O   0  0  0  0  0  0  0  0  0  0  0  0
   26.5646  -20.6990  -13.8388 C   0  0  0  0  0  0  0  0  0  0  0  0
   25.8013  -21.4018  -14.5487 O   0  0  0  0  0  0  0  0  0  0  0  0
   27.4427  -18.0925  -17.8493 O   0  0  0  0  0  0  0  0  0  0  0  0
   25.3986  -19.7240   -9.9690 O   0  0  0  0  0  0  0  0  0  0  0  0
   25.3357  -21.0543  -10.3104 C   0  0  0  0  0  0  0  0  0  0  0  0
   25.1598  -21.2087  -11.7955 C   0  0  2  0  0  0  0  0  0  0  0  0
   26.2966  -20.5780  -12.4539 N   0  0  0  0  0  0  0  0  0  0  0  0
   23.8859  -20.6191  -12.2757 C   0  0  0  0  0  0  0  0  0  0  0  0
   23.8096  -19.3612  -12.5002 O   0  0  0  0  0  0  0  0  0  0  0  0
   19.6317  -21.3896  -16.3301 C   0  0  0  0  0  0  0  0  0  0  0  0
   19.9302  -20.6022  -15.0432 C   0  0  2  0  0  0  0  0  0  0  0  0
   20.0340  -19.1447  -15.3833 C   0  0  0  0  0  0  0  0  0  0  0  0
   21.1384  -21.2049  -14.3981 C   0  0  0  0  0  0  0  0  0  0  0  0
   21.4972  -20.7054  -13.0364 C   0  0  2  0  0  0  0  0  0  0  0  0
   22.6924  -21.3380  -12.5224 N   0  0  0  0  0  0  0  0  0  0  0  0
   20.3534  -20.9569  -12.0732 C   0  0  0  0  0  0  0  0  0  0  0  0
   20.2655  -22.0167  -11.4045 O   0  0  0  0  0  0  0  0  0  0  0  0
   19.3555  -20.0090  -11.9002 O   0  0  0  0  0  0  0  0  0  0  0  0
  2  1  1  6
  2  7  1  0
  3  2  1  0
  3  4  1  0
  5  4  1  0
  5  9  1  0
  6  5  2  0
  7  8  2  0
 10 11  1  0
 12 11  1  1
 12 14  1  0
 13  7  1  0
 13 12  1  0
 14 15  2  0
 17 16  1  6
 17 18  1  0
 19 17  1  0
 20 19  1  6
 20 22  1  0
 21 14  1  0
 21 20  1  0
 22 23  2  0
 22 24  1  0
M  END
$$$$
