ESL.pdb
     RDKit          3D

 24 23  0  0  1  0  0  0  0  0999 V2000
   16.1268  -11.6265  -14.8126 N   0  0  0  0  0  0  0  0  0  0  0  0
   17.3188  -11.9312  -15.5109 C   0  0  1  0  0  0  0  0  0  0  0  0
   17.0933  -12.7239  -16.7591 C   0  0  0  0  0  0  0  0  0  0  0  0
   15.7725  -12.6377  -17.4061 C   0  0  0  0  0  0  0  0  0  0  0  0
   15.5958  -13.3326  -18.6864 C   0  0  0  0  0  0  0  0  0  0  0  0
   16.4217  -14.0940  -19.2160 O   0  0  0  0  0  0  0  0  0  0  0  0
   18.0909  -10.7022  -15.9094 C   0  0  0  0  0  0  0  0  0  0  0  0
   19.2380  -10.8730  -16.3946 O   0  0  0  0  0  0  0  0  0  0  0  0
   14.3942  -13.1377  -19.3991 O   0  0  0  0  0  0  0  0  0  0  0  0
   16.4080   -7.0741  -15.3805 O   0  0  0  0  0  0  0  0  0  0  0  0
   17.2963   -7.1005  -16.4296 C   0  0  0  0  0  0  0  0  0  0  0  0
   18.3025   -8.2013  -16.2395 C   0  0  2  0  0  0  0  0  0  0  0  0
   17.5955   -9.3838  -15.7649 N   0  0  0  0  0  0  0  0  0  0  0  0
   19.3793   -7.8221  -15.2920 C   0  0  0  0  0  0  0  0  0  0  0  0
   19.1500   -7.8209  -14.0327 O   0  0  0  0  0  0  0  0  0  0  0  0
   22.7986   -9.5516  -13.2301 C   0  0  0  0  0  0  0  0  0  0  0  0
   23.0271   -9.2744  -14.7255 C   0  0  2  0  0  0  0  0  0  0  0  0
   24.2858   -9.9671  -15.1570 C   0  0  0  0  0  0  0  0  0  0  0  0
   22.9984   -7.7929  -14.9343 C   0  0  0  0  0  0  0  0  0  0  0  0
   21.7007   -7.0991  -14.6750 C   0  0  2  0  0  0  0  0  0  0  0  0
   20.6939   -7.4447  -15.6547 N   0  0  0  0  0  0  0  0  0  0  0  0
   21.9040   -5.5966  -14.6862 C   0  0  0  0  0  0  0  0  0  0  0  0
   21.4661   -4.8712  -15.6137 O   0  0  0  0  0  0  0  0  0  0  0  0
   22.5903   -4.9699  -13.6564 O   0  0  0  0  0  0  0  0  0  0  0  0
  2  1  1  6
  2  7  1  0
  3  2  1  0
  3  4  1  0
  5  4  1  0
  5  9  1  0
  6  5  2  0
  7  8  2  0
 10 11  1  0
 12 11  1  1
 12 14  1  0
 13  7  1  0
 13 12  1  0
 14 15  2  0
 17 16  1  1
 17 18  1  0
 19 17  1  0
 20 19  1  6
 20 22  1  0
 21 14  1  0
 21 20  1  0
 22 23  2  0
 22 24  1  0
M  END
$$$$
