ESL.pdb
     RDKit          3D

 24 23  0  0  1  0  0  0  0  0999 V2000
   18.4677  -15.9994  -18.3145 N   0  0  0  0  0  0  0  0  0  0  0  0
   18.8128  -15.2965  -17.1362 C   0  0  1  0  0  0  0  0  0  0  0  0
   19.6557  -16.0928  -16.1915 C   0  0  0  0  0  0  0  0  0  0  0  0
   20.2918  -17.3218  -16.6971 C   0  0  0  0  0  0  0  0  0  0  0  0
   21.1510  -18.0720  -15.7740 C   0  0  0  0  0  0  0  0  0  0  0  0
   21.2875  -17.8388  -14.5618 O   0  0  0  0  0  0  0  0  0  0  0  0
   19.5602  -14.0206  -17.4169 C   0  0  0  0  0  0  0  0  0  0  0  0
   20.5921  -14.1011  -18.1304 O   0  0  0  0  0  0  0  0  0  0  0  0
   21.8981  -19.1566  -16.2791 O   0  0  0  0  0  0  0  0  0  0  0  0
   18.1018  -10.3311  -16.1500 O   0  0  0  0  0  0  0  0  0  0  0  0
   18.7263  -10.4409  -17.3699 C   0  0  0  0  0  0  0  0  0  0  0  0
   19.7909  -11.5015  -17.3225 C   0  0  2  0  0  0  0  0  0  0  0  0
   19.1638  -12.7546  -16.9225 N   0  0  0  0  0  0  0  0  0  0  0  0
   20.8939  -11.1506  -16.3944 C   0  0  0  0  0  0  0  0  0  0  0  0
   20.8101  -11.4642  -15.1562 O   0  0  0  0  0  0  0  0  0  0  0  0
   26.9013   -9.8635  -16.3008 C   0  0  0  0  0  0  0  0  0  0  0  0
   25.6278   -9.9735  -15.4457 C   0  0  2  0  0  0  0  0  0  0  0  0
   25.8744  -10.9548  -14.3381 C   0  0  0  0  0  0  0  0  0  0  0  0
   24.4831  -10.2958  -16.3541 C   0  0  0  0  0  0  0  0  0  0  0  0
   23.1083  -10.1390  -15.7903 C   0  0  2  0  0  0  0  0  0  0  0  0
   22.0834  -10.4743  -16.7547 N   0  0  0  0  0  0  0  0  0  0  0  0
   22.8982   -8.7115  -15.3240 C   0  0  0  0  0  0  0  0  0  0  0  0
   22.9191   -8.3973  -14.1079 O   0  0  0  0  0  0  0  0  0  0  0  0
   22.6733   -7.6957  -16.2414 O   0  0  0  0  0  0  0  0  0  0  0  0
  2  1  1  6
  2  7  1  0
  3  2  1  0
  3  4  1  0
  5  4  1  0
  5  9  1  0
  6  5  2  0
  7  8  2  0
 10 11  1  0
 12 11  1  1
 12 14  1  0
 13  7  1  0
 13 12  1  0
 14 15  2  0
 17 16  1  6
 17 18  1  0
 19 17  1  0
 20 19  1  6
 20 22  1  0
 21 14  1  0
 21 20  1  0
 22 23  2  0
 22 24  1  0
M  END
$$$$
