ESL.pdb
     RDKit          3D

 24 23  0  0  1  0  0  0  0  0999 V2000
   15.5381  -11.8521  -14.0367 N   0  0  0  0  0  0  0  0  0  0  0  0
   16.3778  -11.1209  -14.9094 C   0  0  1  0  0  0  0  0  0  0  0  0
   15.7324  -10.7843  -16.2160 C   0  0  0  0  0  0  0  0  0  0  0  0
   14.9191  -11.8211  -16.8750 C   0  0  0  0  0  0  0  0  0  0  0  0
   14.3409  -11.5010  -18.1852 C   0  0  0  0  0  0  0  0  0  0  0  0
   13.7030  -10.4720  -18.4623 O   0  0  0  0  0  0  0  0  0  0  0  0
   16.8514   -9.8237  -14.3109 C   0  0  0  0  0  0  0  0  0  0  0  0
   16.0955   -9.2620  -13.4782 O   0  0  0  0  0  0  0  0  0  0  0  0
   14.5083  -12.4231  -19.2394 O   0  0  0  0  0  0  0  0  0  0  0  0
   20.4868   -8.2274  -15.3789 O   0  0  0  0  0  0  0  0  0  0  0  0
   20.0234   -7.8969  -14.1273 C   0  0  0  0  0  0  0  0  0  0  0  0
   18.5207   -7.9328  -14.0961 C   0  0  2  0  0  0  0  0  0  0  0  0
   18.0874   -9.2147  -14.6367 N   0  0  0  0  0  0  0  0  0  0  0  0
   17.9151   -6.8135  -14.8587 C   0  0  0  0  0  0  0  0  0  0  0  0
   17.7147   -6.9336  -16.1173 O   0  0  0  0  0  0  0  0  0  0  0  0
   14.7496   -1.5518  -14.0246 C   0  0  0  0  0  0  0  0  0  0  0  0
   15.4396   -2.4644  -15.0523 C   0  0  2  0  0  0  0  0  0  0  0  0
   14.4171   -2.9296  -16.0467 C   0  0  0  0  0  0  0  0  0  0  0  0
   16.1577   -3.5454  -14.3072 C   0  0  0  0  0  0  0  0  0  0  0  0
   16.9580   -4.5098  -15.1210 C   0  0  2  0  0  0  0  0  0  0  0  0
   17.5181   -5.5703  -14.3119 N   0  0  0  0  0  0  0  0  0  0  0  0
   18.0846   -3.7821  -15.8283 C   0  0  0  0  0  0  0  0  0  0  0  0
   17.8918   -3.1061  -16.8695 O   0  0  0  0  0  0  0  0  0  0  0  0
   19.3810   -3.8432  -15.3385 O   0  0  0  0  0  0  0  0  0  0  0  0
  2  1  1  1
  2  7  1  0
  3  2  1  0
  3  4  1  0
  5  4  1  0
  5  9  1  0
  6  5  2  0
  7  8  2  0
 10 11  1  0
 12 11  1  6
 12 14  1  0
 13  7  1  0
 13 12  1  0
 14 15  2  0
 17 16  1  1
 17 18  1  0
 19 17  1  0
 20 19  1  1
 20 22  1  0
 21 14  1  0
 21 20  1  0
 22 23  2  0
 22 24  1  0
M  END
$$$$
