ESL.pdb
     RDKit          3D

 24 23  0  0  1  0  0  0  0  0999 V2000
   22.2601  -21.2105  -13.1478 N   0  0  0  0  0  0  0  0  0  0  0  0
   22.7373  -20.2184  -12.2594 C   0  0  1  0  0  0  0  0  0  0  0  0
   21.6476  -19.4642  -11.5659 C   0  0  0  0  0  0  0  0  0  0  0  0
   20.6944  -18.7051  -12.3940 C   0  0  0  0  0  0  0  0  0  0  0  0
   19.5876  -19.4465  -13.0094 C   0  0  0  0  0  0  0  0  0  0  0  0
   18.6541  -19.9917  -12.3982 O   0  0  0  0  0  0  0  0  0  0  0  0
   23.6302  -20.7792  -11.1853 C   0  0  0  0  0  0  0  0  0  0  0  0
   23.1058  -21.5524  -10.3441 O   0  0  0  0  0  0  0  0  0  0  0  0
   19.5554  -19.5664  -14.4145 O   0  0  0  0  0  0  0  0  0  0  0  0
   27.7204  -20.3089  -11.4350 O   0  0  0  0  0  0  0  0  0  0  0  0
   27.1885  -21.4685  -10.9222 C   0  0  0  0  0  0  0  0  0  0  0  0
   25.9166  -21.1785  -10.1749 C   0  0  2  0  0  0  0  0  0  0  0  0
   25.0101  -20.4812  -11.0779 N   0  0  0  0  0  0  0  0  0  0  0  0
   26.1539  -20.3747   -8.9507 C   0  0  0  0  0  0  0  0  0  0  0  0
   26.0483  -19.0997   -8.9940 O   0  0  0  0  0  0  0  0  0  0  0  0
   28.2145  -18.6754   -4.6938 C   0  0  0  0  0  0  0  0  0  0  0  0
   27.9775  -20.1301   -4.2546 C   0  0  2  0  0  0  0  0  0  0  0  0
   29.2589  -20.6816   -3.7029 C   0  0  0  0  0  0  0  0  0  0  0  0
   27.3958  -20.8775   -5.4132 C   0  0  0  0  0  0  0  0  0  0  0  0
   27.1408  -20.0969   -6.6614 C   0  0  2  0  0  0  0  0  0  0  0  0
   26.5004  -20.8973   -7.6823 N   0  0  0  0  0  0  0  0  0  0  0  0
   28.4458  -19.5522   -7.2087 C   0  0  0  0  0  0  0  0  0  0  0  0
   28.8094  -18.3664   -7.0093 O   0  0  0  0  0  0  0  0  0  0  0  0
   29.2889  -20.3605   -7.9571 O   0  0  0  0  0  0  0  0  0  0  0  0
  2  1  1  1
  2  7  1  0
  3  2  1  0
  3  4  1  0
  5  4  1  0
  5  9  1  0
  6  5  2  0
  7  8  2  0
 10 11  1  0
 12 11  1  6
 12 14  1  0
 13  7  1  0
 13 12  1  0
 14 15  2  0
 17 16  1  6
 17 18  1  0
 19 17  1  0
 20 19  1  1
 20 22  1  0
 21 14  1  0
 21 20  1  0
 22 23  2  0
 22 24  1  0
M  END
$$$$
