ESL.pdb
     RDKit          3D

 24 23  0  0  1  0  0  0  0  0999 V2000
   19.3334  -14.2650  -19.5582 N   0  0  0  0  0  0  0  0  0  0  0  0
   18.7863  -13.0794  -19.0137 C   0  0  1  0  0  0  0  0  0  0  0  0
   18.0842  -13.2901  -17.7099 C   0  0  0  0  0  0  0  0  0  0  0  0
   18.8456  -13.8924  -16.6017 C   0  0  0  0  0  0  0  0  0  0  0  0
   18.1487  -14.0885  -15.3253 C   0  0  0  0  0  0  0  0  0  0  0  0
   17.7126  -13.1850  -14.5932 O   0  0  0  0  0  0  0  0  0  0  0  0
   19.8223  -12.0123  -18.7828 C   0  0  0  0  0  0  0  0  0  0  0  0
   20.9474  -12.3817  -18.3606 O   0  0  0  0  0  0  0  0  0  0  0  0
   17.9423  -15.4058  -14.8653 O   0  0  0  0  0  0  0  0  0  0  0  0
   21.0742   -7.3616  -19.4395 O   0  0  0  0  0  0  0  0  0  0  0  0
   20.1272   -8.3546  -19.5259 C   0  0  0  0  0  0  0  0  0  0  0  0
   20.6211   -9.6117  -18.8654 C   0  0  2  0  0  0  0  0  0  0  0  0
   19.5936  -10.6343  -19.0133 N   0  0  0  0  0  0  0  0  0  0  0  0
   20.9479   -9.4039  -17.4332 C   0  0  0  0  0  0  0  0  0  0  0  0
   20.0434   -9.5667  -16.5422 O   0  0  0  0  0  0  0  0  0  0  0  0
   23.8294  -11.2319  -14.3079 C   0  0  0  0  0  0  0  0  0  0  0  0
   24.5028  -10.2876  -15.3178 C   0  0  2  0  0  0  0  0  0  0  0  0
   25.9891  -10.3598  -15.1279 C   0  0  0  0  0  0  0  0  0  0  0  0
   23.8948   -8.9291  -15.1623 C   0  0  0  0  0  0  0  0  0  0  0  0
   22.4510   -8.7901  -15.5212 C   0  0  2  0  0  0  0  0  0  0  0  0
   22.2150   -9.0274  -16.9286 N   0  0  0  0  0  0  0  0  0  0  0  0
   21.9595   -7.4002  -15.1665 C   0  0  0  0  0  0  0  0  0  0  0  0
   21.7574   -6.5210  -16.0409 O   0  0  0  0  0  0  0  0  0  0  0  0
   21.7151   -7.0540  -13.8457 O   0  0  0  0  0  0  0  0  0  0  0  0
  2  1  1  1
  2  7  1  0
  3  2  1  0
  3  4  1  0
  5  4  1  0
  5  9  1  0
  6  5  2  0
  7  8  2  0
 10 11  1  0
 12 11  1  1
 12 14  1  0
 13  7  1  0
 13 12  1  0
 14 15  2  0
 17 16  1  1
 17 18  1  0
 19 17  1  0
 20 19  1  6
 20 22  1  0
 21 14  1  0
 21 20  1  0
 22 23  2  0
 22 24  1  0
M  END
$$$$
