WTQ.pdb
     RDKit          3D

 31 32  0  0  1  0  0  0  0  0999 V2000
    6.6542  -17.4050   23.2756 N   0  0  0  0  0  0  0  0  0  0  0  0
    7.8672  -16.8914   23.8755 C   0  0  1  0  0  0  0  0  0  0  0  0
    7.6421  -16.8572   25.3705 C   0  0  0  0  0  0  0  0  0  0  0  0
    6.8930  -15.6296   25.7712 C   0  0  0  0  0  0  0  0  0  0  0  0
    5.5846  -15.5803   26.2690 C   0  0  0  0  0  0  0  0  0  0  0  0
    5.2479  -14.3020   26.5175 N   0  0  0  0  0  0  0  0  0  0  0  0
    6.2777  -13.4853   26.2071 C   0  0  0  0  0  0  0  0  0  0  0  0
    6.4200  -12.1150   26.2849 C   0  0  0  0  0  0  0  0  0  0  0  0
    7.6032  -11.5203   25.8966 C   0  0  0  0  0  0  0  0  0  0  0  0
    8.6115  -12.3423   25.4381 C   0  0  0  0  0  0  0  0  0  0  0  0
    8.4756  -13.7225   25.3570 C   0  0  0  0  0  0  0  0  0  0  0  0
    7.2970  -14.3099   25.7446 C   0  0  0  0  0  0  0  0  0  0  0  0
    9.0642  -17.6402   23.4873 C   0  0  0  0  0  0  0  0  0  0  0  0
    8.9883  -18.5564   22.6011 O   0  0  0  0  0  0  0  0  0  0  0  0
   10.5803  -18.1763   21.1581 C   0  0  0  0  0  0  0  0  0  0  0  0
   11.7621  -17.8529   22.0120 C   0  0  1  0  0  0  0  0  0  0  0  0
   12.0383  -16.4762   21.7986 O   0  0  0  0  0  0  0  0  0  0  0  0
   11.5576  -18.0089   23.4679 C   0  0  2  0  0  0  0  0  0  0  0  0
   10.3587  -17.4539   24.0092 N   0  0  0  0  0  0  0  0  0  0  0  0
   12.7686  -17.6242   24.2712 C   0  0  0  0  0  0  0  0  0  0  0  0
   13.0336  -16.4190   24.4985 O   0  0  0  0  0  0  0  0  0  0  0  0
   11.0064  -18.5282   29.0457 N   0  0  0  0  0  0  0  0  0  0  0  0
   11.2456  -19.6840   28.2680 C   0  0  0  0  0  0  0  0  0  0  0  0
   10.5201  -20.6841   28.4301 O   0  0  0  0  0  0  0  0  0  0  0  0
   12.3374  -19.7201   27.2751 C   0  0  0  0  0  0  0  0  0  0  0  0
   13.1315  -18.4535   27.1670 C   0  0  0  0  0  0  0  0  0  0  0  0
   14.2085  -18.5312   26.1498 C   0  0  2  0  0  0  0  0  0  0  0  0
   13.6424  -18.6130   24.7924 N   0  0  0  0  0  0  0  0  0  0  0  0
   15.0963  -19.6707   26.4083 C   0  0  0  0  0  0  0  0  0  0  0  0
   15.0457  -20.6549   25.5919 O   0  0  0  0  0  0  0  0  0  0  0  0
   15.9956  -19.8174   27.4353 O   0  0  0  0  0  0  0  0  0  0  0  0
  2  1  1  6
  3  2  1  0
  3  4  1  0
  4  5  2  0
  5  6  1  0
  7  6  1  0
  8  7  2  0
  9  8  1  0
 10 11  1  0
 10  9  2  0
 11 12  2  0
 12  4  1  0
 12  7  1  0
 13  2  1  0
 13 19  1  0
 14 13  2  0
 16 15  1  6
 16 18  1  0
 17 16  1  0
 18 19  1  1
 20 18  1  0
 21 20  2  0
 23 22  1  0
 24 23  2  0
 25 23  1  0
 27 26  1  1
 26 25  1  0
 27 28  1  0
 28 20  1  0
 29 31  1  0
 29 27  1  0
 30 29  2  0
M  END
$$$$
