WTQ.pdb
     RDKit          3D

 31 32  0  0  1  0  0  0  0  0999 V2000
    6.5581  -17.3871   23.8804 N   0  0  0  0  0  0  0  0  0  0  0  0
    7.2979  -16.7813   22.7937 C   0  0  1  0  0  0  0  0  0  0  0  0
    7.2055  -15.2829   22.9759 C   0  0  0  0  0  0  0  0  0  0  0  0
    6.8170  -14.9367   24.3751 C   0  0  0  0  0  0  0  0  0  0  0  0
    6.1463  -15.7684   25.2810 C   0  0  0  0  0  0  0  0  0  0  0  0
    5.9679  -15.1137   26.4424 N   0  0  0  0  0  0  0  0  0  0  0  0
    6.4919  -13.8720   26.3569 C   0  0  0  0  0  0  0  0  0  0  0  0
    6.5592  -12.8378   27.2680 C   0  0  0  0  0  0  0  0  0  0  0  0
    7.1634  -11.6475   26.9183 C   0  0  0  0  0  0  0  0  0  0  0  0
    7.6837  -11.5445   25.6450 C   0  0  0  0  0  0  0  0  0  0  0  0
    7.6198  -12.5812   24.7224 C   0  0  0  0  0  0  0  0  0  0  0  0
    7.0180  -13.7637   25.0746 C   0  0  0  0  0  0  0  0  0  0  0  0
    8.6751  -17.2683   22.6918 C   0  0  0  0  0  0  0  0  0  0  0  0
    9.1418  -18.0622   23.5763 O   0  0  0  0  0  0  0  0  0  0  0  0
   10.5697  -17.9036   19.0681 C   0  0  0  0  0  0  0  0  0  0  0  0
   11.4818  -17.4712   20.1687 C   0  0  1  0  0  0  0  0  0  0  0  0
   11.8021  -16.1129   19.9050 O   0  0  0  0  0  0  0  0  0  0  0  0
   10.8984  -17.4984   21.5269 C   0  0  2  0  0  0  0  0  0  0  0  0
    9.5918  -16.9420   21.6739 N   0  0  0  0  0  0  0  0  0  0  0  0
   11.8465  -16.9938   22.5788 C   0  0  0  0  0  0  0  0  0  0  0  0
   11.7663  -15.8167   23.0059 O   0  0  0  0  0  0  0  0  0  0  0  0
   11.9601  -19.9183   26.2433 N   0  0  0  0  0  0  0  0  0  0  0  0
   12.3302  -18.7474   26.9433 C   0  0  0  0  0  0  0  0  0  0  0  0
   11.7065  -18.4364   27.9762 O   0  0  0  0  0  0  0  0  0  0  0  0
   13.4374  -17.8948   26.4674 C   0  0  0  0  0  0  0  0  0  0  0  0
   14.0560  -18.3309   25.1738 C   0  0  0  0  0  0  0  0  0  0  0  0
   13.8588  -17.3498   24.0786 C   0  0  2  0  0  0  0  0  0  0  0  0
   12.8556  -17.8347   23.1151 N   0  0  0  0  0  0  0  0  0  0  0  0
   15.1261  -17.0555   23.4000 C   0  0  0  0  0  0  0  0  0  0  0  0
   15.2298  -17.3955   22.1707 O   0  0  0  0  0  0  0  0  0  0  0  0
   16.2381  -16.4464   23.9269 O   0  0  0  0  0  0  0  0  0  0  0  0
  2  1  1  1
  3  2  1  0
  3  4  1  0
  4  5  2  0
  5  6  1  0
  7  6  1  0
  8  7  2  0
  9  8  1  0
 10 11  1  0
 10  9  2  0
 11 12  2  0
 12  4  1  0
 12  7  1  0
 13  2  1  0
 13 19  1  0
 14 13  2  0
 16 15  1  6
 16 18  1  0
 17 16  1  0
 18 19  1  6
 20 18  1  0
 21 20  2  0
 23 22  1  0
 24 23  2  0
 25 23  1  0
 27 26  1  1
 26 25  1  0
 27 28  1  0
 28 20  1  0
 29 31  1  0
 29 27  1  0
 30 29  2  0
M  END
$$$$
