WTQ.pdb
     RDKit          3D

 31 32  0  0  1  0  0  0  0  0999 V2000
    6.7687  -17.2670   23.6186 N   0  0  0  0  0  0  0  0  0  0  0  0
    7.9669  -16.4587   23.5394 C   0  0  1  0  0  0  0  0  0  0  0  0
    8.3173  -16.0462   24.9515 C   0  0  0  0  0  0  0  0  0  0  0  0
    7.2553  -15.1733   25.5333 C   0  0  0  0  0  0  0  0  0  0  0  0
    6.0121  -15.5924   26.0243 C   0  0  0  0  0  0  0  0  0  0  0  0
    5.3224  -14.5256   26.4665 N   0  0  0  0  0  0  0  0  0  0  0  0
    6.0509  -13.4017   26.2937 C   0  0  0  0  0  0  0  0  0  0  0  0
    5.7842  -12.0795   26.5845 C   0  0  0  0  0  0  0  0  0  0  0  0
    6.7217  -11.1073   26.3011 C   0  0  0  0  0  0  0  0  0  0  0  0
    7.9088  -11.5119   25.7268 C   0  0  0  0  0  0  0  0  0  0  0  0
    8.1844  -12.8410   25.4312 C   0  0  0  0  0  0  0  0  0  0  0  0
    7.2490  -13.8049   25.7150 C   0  0  0  0  0  0  0  0  0  0  0  0
    9.0675  -17.1260   22.8412 C   0  0  0  0  0  0  0  0  0  0  0  0
    9.2868  -18.3697   23.0304 O   0  0  0  0  0  0  0  0  0  0  0  0
   10.1723  -17.3651   19.1170 C   0  0  0  0  0  0  0  0  0  0  0  0
   11.3569  -17.0211   19.9589 C   0  0  1  0  0  0  0  0  0  0  0  0
   11.6499  -15.6577   19.6896 O   0  0  0  0  0  0  0  0  0  0  0  0
   11.1489  -17.1148   21.4196 C   0  0  2  0  0  0  0  0  0  0  0  0
    9.9592  -16.5183   21.9366 N   0  0  0  0  0  0  0  0  0  0  0  0
   12.3657  -16.7184   22.2084 C   0  0  0  0  0  0  0  0  0  0  0  0
   12.7204  -15.5172   22.2838 O   0  0  0  0  0  0  0  0  0  0  0  0
   14.3504  -20.0909   27.0230 N   0  0  0  0  0  0  0  0  0  0  0  0
   13.3449  -19.1009   26.9384 C   0  0  0  0  0  0  0  0  0  0  0  0
   12.5075  -19.0079   27.8564 O   0  0  0  0  0  0  0  0  0  0  0  0
   13.2753  -18.1845   25.7832 C   0  0  0  0  0  0  0  0  0  0  0  0
   14.4560  -18.2429   24.8617 C   0  0  0  0  0  0  0  0  0  0  0  0
   14.3239  -17.3371   23.6943 C   0  0  2  0  0  0  0  0  0  0  0  0
   13.1439  -17.6915   22.8870 N   0  0  0  0  0  0  0  0  0  0  0  0
   15.5381  -17.3584   22.8706 C   0  0  0  0  0  0  0  0  0  0  0  0
   16.6198  -16.9296   23.4031 O   0  0  0  0  0  0  0  0  0  0  0  0
   15.6646  -17.7917   21.5739 O   0  0  0  0  0  0  0  0  0  0  0  0
  2  1  1  1
  3  2  1  0
  3  4  1  0
  4  5  2  0
  5  6  1  0
  7  6  1  0
  8  7  2  0
  9  8  1  0
 10 11  1  0
 10  9  2  0
 11 12  2  0
 12  4  1  0
 12  7  1  0
 13  2  1  0
 13 19  1  0
 14 13  2  0
 16 15  1  6
 16 18  1  0
 17 16  1  0
 18 19  1  1
 20 18  1  0
 21 20  2  0
 23 22  1  0
 24 23  2  0
 25 23  1  0
 27 26  1  1
 26 25  1  0
 27 28  1  0
 28 20  1  0
 29 31  1  0
 29 27  1  0
 30 29  2  0
M  END
$$$$
