WTQ.pdb
     RDKit          3D

 31 32  0  0  1  0  0  0  0  0999 V2000
    6.3307  -17.5544   24.7842 N   0  0  0  0  0  0  0  0  0  0  0  0
    7.0243  -16.4983   24.0779 C   0  0  1  0  0  0  0  0  0  0  0  0
    7.9483  -15.8324   25.0728 C   0  0  0  0  0  0  0  0  0  0  0  0
    7.1979  -14.8855   25.9496 C   0  0  0  0  0  0  0  0  0  0  0  0
    6.3289  -15.2303   26.9928 C   0  0  0  0  0  0  0  0  0  0  0  0
    5.8377  -14.1114   27.5549 N   0  0  0  0  0  0  0  0  0  0  0  0
    6.3407  -13.0237   26.9324 C   0  0  0  0  0  0  0  0  0  0  0  0
    6.1448  -11.6735   27.1389 C   0  0  0  0  0  0  0  0  0  0  0  0
    6.7959  -10.7516   26.3448 C   0  0  0  0  0  0  0  0  0  0  0  0
    7.6312  -11.2339   25.3588 C   0  0  0  0  0  0  0  0  0  0  0  0
    7.8334  -12.5916   25.1449 C   0  0  0  0  0  0  0  0  0  0  0  0
    7.1839  -13.5052   25.9374 C   0  0  0  0  0  0  0  0  0  0  0  0
    7.7117  -16.9657   22.8724 C   0  0  0  0  0  0  0  0  0  0  0  0
    8.2325  -18.1312   22.8421 O   0  0  0  0  0  0  0  0  0  0  0  0
    7.2590  -15.2578   19.0805 C   0  0  0  0  0  0  0  0  0  0  0  0
    8.6240  -15.7927   19.3648 C   0  0  1  0  0  0  0  0  0  0  0  0
    9.4661  -14.6603   19.5257 O   0  0  0  0  0  0  0  0  0  0  0  0
    8.7532  -16.5795   20.6098 C   0  0  2  0  0  0  0  0  0  0  0  0
    7.8719  -16.2354   21.6791 N   0  0  0  0  0  0  0  0  0  0  0  0
   10.1775  -16.7074   21.0735 C   0  0  0  0  0  0  0  0  0  0  0  0
   10.7216  -15.7941   21.7401 O   0  0  0  0  0  0  0  0  0  0  0  0
   15.3515  -18.6725   23.8987 N   0  0  0  0  0  0  0  0  0  0  0  0
   14.3326  -19.5354   23.4346 C   0  0  0  0  0  0  0  0  0  0  0  0
   13.6779  -20.1993   24.2612 O   0  0  0  0  0  0  0  0  0  0  0  0
   14.0388  -19.6591   21.9932 C   0  0  0  0  0  0  0  0  0  0  0  0
   12.6064  -19.4226   21.6206 C   0  0  0  0  0  0  0  0  0  0  0  0
   12.3400  -18.0231   21.2067 C   0  0  2  0  0  0  0  0  0  0  0  0
   10.9425  -17.8630   20.7695 N   0  0  0  0  0  0  0  0  0  0  0  0
   13.2637  -17.6019   20.1472 C   0  0  0  0  0  0  0  0  0  0  0  0
   14.3745  -17.0782   20.5068 O   0  0  0  0  0  0  0  0  0  0  0  0
   13.0849  -17.7026   18.7896 O   0  0  0  0  0  0  0  0  0  0  0  0
  2  1  1  1
  3  2  1  0
  3  4  1  0
  4  5  2  0
  5  6  1  0
  7  6  1  0
  8  7  2  0
  9  8  1  0
 10 11  1  0
 10  9  2  0
 11 12  2  0
 12  4  1  0
 12  7  1  0
 13  2  1  0
 13 19  1  0
 14 13  2  0
 16 15  1  1
 16 18  1  0
 17 16  1  0
 18 19  1  1
 20 18  1  0
 21 20  2  0
 23 22  1  0
 24 23  2  0
 25 23  1  0
 27 26  1  6
 26 25  1  0
 27 28  1  0
 28 20  1  0
 29 31  1  0
 29 27  1  0
 30 29  2  0
M  END
$$$$
