WTQ.pdb
     RDKit          3D

 31 32  0  0  1  0  0  0  0  0999 V2000
    6.3371  -17.3950   24.9257 N   0  0  0  0  0  0  0  0  0  0  0  0
    7.0424  -16.2604   24.3685 C   0  0  1  0  0  0  0  0  0  0  0  0
    8.1139  -15.8728   25.3628 C   0  0  0  0  0  0  0  0  0  0  0  0
    7.5833  -14.9110   26.3738 C   0  0  0  0  0  0  0  0  0  0  0  0
    7.2560  -15.2011   27.7046 C   0  0  0  0  0  0  0  0  0  0  0  0
    6.8084  -14.0860   28.3090 N   0  0  0  0  0  0  0  0  0  0  0  0
    6.8204  -13.0534   27.4387 C   0  0  0  0  0  0  0  0  0  0  0  0
    6.4617  -11.7284   27.5793 C   0  0  0  0  0  0  0  0  0  0  0  0
    6.5750  -10.8649   26.5088 C   0  0  0  0  0  0  0  0  0  0  0  0
    7.0520  -11.3784   25.3209 C   0  0  0  0  0  0  0  0  0  0  0  0
    7.4151  -12.7110   25.1718 C   0  0  0  0  0  0  0  0  0  0  0  0
    7.3011  -13.5665   26.2394 C   0  0  0  0  0  0  0  0  0  0  0  0
    7.5640  -16.5098   23.0232 C   0  0  0  0  0  0  0  0  0  0  0  0
    7.7872  -17.7050   22.6331 O   0  0  0  0  0  0  0  0  0  0  0  0
    6.1165  -15.0609   19.8068 C   0  0  0  0  0  0  0  0  0  0  0  0
    7.5977  -15.1364   19.6319 C   0  0  1  0  0  0  0  0  0  0  0  0
    8.0581  -13.7937   19.5818 O   0  0  0  0  0  0  0  0  0  0  0  0
    8.3374  -15.7821   20.7372 C   0  0  2  0  0  0  0  0  0  0  0  0
    7.8635  -15.5275   22.0597 N   0  0  0  0  0  0  0  0  0  0  0  0
    9.8256  -15.5996   20.6278 C   0  0  0  0  0  0  0  0  0  0  0  0
   10.3236  -14.4595   20.4649 O   0  0  0  0  0  0  0  0  0  0  0  0
   11.6467  -15.8029   25.7575 N   0  0  0  0  0  0  0  0  0  0  0  0
   12.3554  -16.9470   25.3251 C   0  0  0  0  0  0  0  0  0  0  0  0
   13.1388  -17.5086   26.1147 O   0  0  0  0  0  0  0  0  0  0  0  0
   12.1805  -17.4787   23.9591 C   0  0  0  0  0  0  0  0  0  0  0  0
   11.4466  -16.5703   23.0197 C   0  0  0  0  0  0  0  0  0  0  0  0
   11.8690  -16.7356   21.6072 C   0  0  2  0  0  0  0  0  0  0  0  0
   10.7044  -16.7107   20.7056 N   0  0  0  0  0  0  0  0  0  0  0  0
   12.6343  -17.9746   21.4275 C   0  0  0  0  0  0  0  0  0  0  0  0
   11.9734  -19.0548   21.2432 O   0  0  0  0  0  0  0  0  0  0  0  0
   13.9990  -18.1255   21.4297 O   0  0  0  0  0  0  0  0  0  0  0  0
  2  1  1  1
  3  2  1  0
  3  4  1  0
  4  5  2  0
  5  6  1  0
  7  6  1  0
  8  7  2  0
  9  8  1  0
 10 11  1  0
 10  9  2  0
 11 12  2  0
 12  4  1  0
 12  7  1  0
 13  2  1  0
 13 19  1  0
 14 13  2  0
 16 15  1  1
 16 18  1  0
 17 16  1  0
 18 19  1  1
 20 18  1  0
 21 20  2  0
 23 22  1  0
 24 23  2  0
 25 23  1  0
 27 26  1  1
 26 25  1  0
 27 28  1  0
 28 20  1  0
 29 31  1  0
 29 27  1  0
 30 29  2  0
M  END
$$$$
