WTQ.pdb
     RDKit          3D

 31 32  0  0  1  0  0  0  0  0999 V2000
    6.0937  -17.4486   24.2939 N   0  0  0  0  0  0  0  0  0  0  0  0
    7.2156  -16.6745   23.8068 C   0  0  1  0  0  0  0  0  0  0  0  0
    7.8605  -16.0234   25.0098 C   0  0  0  0  0  0  0  0  0  0  0  0
    6.9840  -14.9550   25.5744 C   0  0  0  0  0  0  0  0  0  0  0  0
    5.8004  -15.1478   26.2984 C   0  0  0  0  0  0  0  0  0  0  0  0
    5.2857  -13.9534   26.6415 N   0  0  0  0  0  0  0  0  0  0  0  0
    6.0752  -12.9608   26.1777 C   0  0  0  0  0  0  0  0  0  0  0  0
    5.9756  -11.5876   26.2703 C   0  0  0  0  0  0  0  0  0  0  0  0
    6.9399  -10.7849   25.6958 C   0  0  0  0  0  0  0  0  0  0  0  0
    7.9822  -11.4069   25.0404 C   0  0  0  0  0  0  0  0  0  0  0  0
    8.0891  -12.7885   24.9431 C   0  0  0  0  0  0  0  0  0  0  0  0
    7.1277  -13.5833   25.5163 C   0  0  0  0  0  0  0  0  0  0  0  0
    8.1528  -17.4609   23.0023 C   0  0  0  0  0  0  0  0  0  0  0  0
    8.4059  -18.6729   23.3145 O   0  0  0  0  0  0  0  0  0  0  0  0
    9.1456  -17.5025   18.9959 C   0  0  0  0  0  0  0  0  0  0  0  0
   10.3190  -17.3476   19.9066 C   0  0  1  0  0  0  0  0  0  0  0  0
   10.7300  -15.9928   19.7937 O   0  0  0  0  0  0  0  0  0  0  0  0
   10.0456  -17.5746   21.3417 C   0  0  2  0  0  0  0  0  0  0  0  0
    8.8436  -17.0068   21.8623 N   0  0  0  0  0  0  0  0  0  0  0  0
   11.2326  -17.2779   22.2153 C   0  0  0  0  0  0  0  0  0  0  0  0
   11.4300  -16.1218   22.6614 O   0  0  0  0  0  0  0  0  0  0  0  0
   11.8660  -20.8489   25.9684 N   0  0  0  0  0  0  0  0  0  0  0  0
   11.9736  -19.5281   26.4602 C   0  0  0  0  0  0  0  0  0  0  0  0
   11.3722  -19.2206   27.5074 O   0  0  0  0  0  0  0  0  0  0  0  0
   12.7824  -18.5164   25.7520 C   0  0  0  0  0  0  0  0  0  0  0  0
   13.4447  -19.0048   24.4993 C   0  0  0  0  0  0  0  0  0  0  0  0
   13.3526  -18.0350   23.3805 C   0  0  2  0  0  0  0  0  0  0  0  0
   12.1592  -18.2963   22.5574 N   0  0  0  0  0  0  0  0  0  0  0  0
   14.5655  -18.0656   22.5552 C   0  0  0  0  0  0  0  0  0  0  0  0
   14.4609  -18.5372   21.3702 O   0  0  0  0  0  0  0  0  0  0  0  0
   15.8251  -17.6413   22.8992 O   0  0  0  0  0  0  0  0  0  0  0  0
  2  1  1  1
  3  2  1  0
  3  4  1  0
  4  5  2  0
  5  6  1  0
  7  6  1  0
  8  7  2  0
  9  8  1  0
 10 11  1  0
 10  9  2  0
 11 12  2  0
 12  4  1  0
 12  7  1  0
 13  2  1  0
 13 19  1  0
 14 13  2  0
 16 15  1  6
 16 18  1  0
 17 16  1  0
 18 19  1  1
 20 18  1  0
 21 20  2  0
 23 22  1  0
 24 23  2  0
 25 23  1  0
 27 26  1  1
 26 25  1  0
 27 28  1  0
 28 20  1  0
 29 31  1  0
 29 27  1  0
 30 29  2  0
M  END
$$$$
