WTQ.pdb
     RDKit          3D

 31 32  0  0  1  0  0  0  0  0999 V2000
    6.3895  -17.1615   24.3346 N   0  0  0  0  0  0  0  0  0  0  0  0
    6.9584  -15.9654   23.7507 C   0  0  1  0  0  0  0  0  0  0  0  0
    7.8726  -15.3565   24.7902 C   0  0  0  0  0  0  0  0  0  0  0  0
    7.0982  -14.5425   25.7732 C   0  0  0  0  0  0  0  0  0  0  0  0
    6.1667  -15.0258   26.7011 C   0  0  0  0  0  0  0  0  0  0  0  0
    5.6720  -13.9990   27.4153 N   0  0  0  0  0  0  0  0  0  0  0  0
    6.2328  -12.8405   27.0064 C   0  0  0  0  0  0  0  0  0  0  0  0
    6.0573  -11.5368   27.4232 C   0  0  0  0  0  0  0  0  0  0  0  0
    6.7713  -10.5185   26.8252 C   0  0  0  0  0  0  0  0  0  0  0  0
    7.6470  -10.8591   25.8154 C   0  0  0  0  0  0  0  0  0  0  0  0
    7.8290  -12.1692   25.3905 C   0  0  0  0  0  0  0  0  0  0  0  0
    7.1168  -13.1791   25.9883 C   0  0  0  0  0  0  0  0  0  0  0  0
    7.6215  -16.2092   22.4681 C   0  0  0  0  0  0  0  0  0  0  0  0
    8.1797  -17.3343   22.2383 O   0  0  0  0  0  0  0  0  0  0  0  0
    6.7578  -14.2218   18.9276 C   0  0  0  0  0  0  0  0  0  0  0  0
    8.1960  -14.5949   19.0786 C   0  0  1  0  0  0  0  0  0  0  0  0
    8.8968  -13.3809   19.3067 O   0  0  0  0  0  0  0  0  0  0  0  0
    8.5093  -15.4710   20.2276 C   0  0  2  0  0  0  0  0  0  0  0  0
    7.7183  -15.2934   21.4028 N   0  0  0  0  0  0  0  0  0  0  0  0
    9.9790  -15.5189   20.5404 C   0  0  0  0  0  0  0  0  0  0  0  0
   10.4455  -14.9099   21.5334 O   0  0  0  0  0  0  0  0  0  0  0  0
   13.3316  -18.6504   24.4299 N   0  0  0  0  0  0  0  0  0  0  0  0
   12.2121  -18.1123   23.7552 C   0  0  0  0  0  0  0  0  0  0  0  0
   11.0680  -18.4524   24.1129 O   0  0  0  0  0  0  0  0  0  0  0  0
   12.3819  -17.1608   22.6393 C   0  0  0  0  0  0  0  0  0  0  0  0
   12.0389  -17.7093   21.2873 C   0  0  0  0  0  0  0  0  0  0  0  0
   12.1911  -16.7094   20.2019 C   0  0  2  0  0  0  0  0  0  0  0  0
   10.8754  -16.2530   19.7217 N   0  0  0  0  0  0  0  0  0  0  0  0
   12.9854  -17.2514   19.0936 C   0  0  0  0  0  0  0  0  0  0  0  0
   14.2173  -17.5116   19.3227 O   0  0  0  0  0  0  0  0  0  0  0  0
   12.5656  -17.5230   17.8149 O   0  0  0  0  0  0  0  0  0  0  0  0
  2  1  1  1
  3  2  1  0
  3  4  1  0
  4  5  2  0
  5  6  1  0
  7  6  1  0
  8  7  2  0
  9  8  1  0
 10 11  1  0
 10  9  2  0
 11 12  2  0
 12  4  1  0
 12  7  1  0
 13  2  1  0
 13 19  1  0
 14 13  2  0
 16 15  1  1
 16 18  1  0
 17 16  1  0
 18 19  1  1
 20 18  1  0
 21 20  2  0
 23 22  1  0
 24 23  2  0
 25 23  1  0
 27 26  1  1
 26 25  1  0
 27 28  1  0
 28 20  1  0
 29 31  1  0
 29 27  1  0
 30 29  2  0
M  END
$$$$
