WTQ.pdb
     RDKit          3D

 31 32  0  0  1  0  0  0  0  0999 V2000
    6.2254  -17.6781   24.7921 N   0  0  0  0  0  0  0  0  0  0  0  0
    6.9123  -16.5810   24.1444 C   0  0  1  0  0  0  0  0  0  0  0  0
    7.7555  -15.9011   25.1997 C   0  0  0  0  0  0  0  0  0  0  0  0
    6.9849  -14.8238   25.8884 C   0  0  0  0  0  0  0  0  0  0  0  0
    5.8794  -15.0014   26.7302 C   0  0  0  0  0  0  0  0  0  0  0  0
    5.4493  -13.8029   27.1634 N   0  0  0  0  0  0  0  0  0  0  0  0
    6.2209  -12.8221   26.6474 C   0  0  0  0  0  0  0  0  0  0  0  0
    6.1830  -11.4503   26.7923 C   0  0  0  0  0  0  0  0  0  0  0  0
    7.1094  -10.6612   26.1415 C   0  0  0  0  0  0  0  0  0  0  0  0
    8.0515  -11.2951   25.3583 C   0  0  0  0  0  0  0  0  0  0  0  0
    8.0959  -12.6754   25.2077 C   0  0  0  0  0  0  0  0  0  0  0  0
    7.1725  -13.4566   25.8571 C   0  0  0  0  0  0  0  0  0  0  0  0
    7.6801  -16.9952   22.9683 C   0  0  0  0  0  0  0  0  0  0  0  0
    8.1922  -18.1638   22.9156 O   0  0  0  0  0  0  0  0  0  0  0  0
    7.4376  -15.8889   18.9968 C   0  0  0  0  0  0  0  0  0  0  0  0
    8.8222  -15.8256   19.5527 C   0  0  1  0  0  0  0  0  0  0  0  0
    9.1331  -14.4458   19.6816 O   0  0  0  0  0  0  0  0  0  0  0  0
    8.9954  -16.4121   20.8988 C   0  0  2  0  0  0  0  0  0  0  0  0
    7.9310  -16.2079   21.8281 N   0  0  0  0  0  0  0  0  0  0  0  0
   10.3367  -16.1008   21.5021 C   0  0  0  0  0  0  0  0  0  0  0  0
   10.6003  -14.9491   21.9248 O   0  0  0  0  0  0  0  0  0  0  0  0
   11.2771  -20.0185   25.6733 N   0  0  0  0  0  0  0  0  0  0  0  0
   12.2949  -19.2635   25.0471 C   0  0  0  0  0  0  0  0  0  0  0  0
   13.3952  -19.1387   25.6185 O   0  0  0  0  0  0  0  0  0  0  0  0
   12.0703  -18.6250   23.7352 C   0  0  0  0  0  0  0  0  0  0  0  0
   12.8268  -17.3493   23.5187 C   0  0  0  0  0  0  0  0  0  0  0  0
   12.6825  -16.8181   22.1411 C   0  0  2  0  0  0  0  0  0  0  0  0
   11.3382  -17.1001   21.6089 N   0  0  0  0  0  0  0  0  0  0  0  0
   13.7143  -17.3669   21.2538 C   0  0  0  0  0  0  0  0  0  0  0  0
   14.9322  -17.0698   21.5108 O   0  0  0  0  0  0  0  0  0  0  0  0
   13.5357  -18.1783   20.1607 O   0  0  0  0  0  0  0  0  0  0  0  0
  2  1  1  1
  3  2  1  0
  3  4  1  0
  4  5  2  0
  5  6  1  0
  7  6  1  0
  8  7  2  0
  9  8  1  0
 10 11  1  0
 10  9  2  0
 11 12  2  0
 12  4  1  0
 12  7  1  0
 13  2  1  0
 13 19  1  0
 14 13  2  0
 16 15  1  1
 16 18  1  0
 17 16  1  0
 18 19  1  1
 20 18  1  0
 21 20  2  0
 23 22  1  0
 24 23  2  0
 25 23  1  0
 27 26  1  1
 26 25  1  0
 27 28  1  0
 28 20  1  0
 29 31  1  0
 29 27  1  0
 30 29  2  0
M  END
$$$$
