WTQ.pdb
     RDKit          3D

 31 32  0  0  1  0  0  0  0  0999 V2000
    6.6964  -17.1525   23.6418 N   0  0  0  0  0  0  0  0  0  0  0  0
    7.8523  -16.3170   23.3946 C   0  0  1  0  0  0  0  0  0  0  0  0
    8.3244  -15.8052   24.7369 C   0  0  0  0  0  0  0  0  0  0  0  0
    7.2822  -14.9526   25.3815 C   0  0  0  0  0  0  0  0  0  0  0  0
    6.0922  -15.3983   25.9710 C   0  0  0  0  0  0  0  0  0  0  0  0
    5.4049  -14.3438   26.4452 N   0  0  0  0  0  0  0  0  0  0  0  0
    6.0838  -13.2026   26.1991 C   0  0  0  0  0  0  0  0  0  0  0  0
    5.7991  -11.8834   26.4863 C   0  0  0  0  0  0  0  0  0  0  0  0
    6.6827  -10.8898   26.1171 C   0  0  0  0  0  0  0  0  0  0  0  0
    7.8358  -11.2705   25.4627 C   0  0  0  0  0  0  0  0  0  0  0  0
    8.1292  -12.5965   25.1702 C   0  0  0  0  0  0  0  0  0  0  0  0
    7.2475  -13.5817   25.5396 C   0  0  0  0  0  0  0  0  0  0  0  0
    8.9020  -16.9960   22.6321 C   0  0  0  0  0  0  0  0  0  0  0  0
    9.0887  -18.2511   22.7749 O   0  0  0  0  0  0  0  0  0  0  0  0
   10.2951  -16.7091   18.8716 C   0  0  0  0  0  0  0  0  0  0  0  0
   11.4057  -16.6503   19.8683 C   0  0  1  0  0  0  0  0  0  0  0  0
   11.8815  -15.3122   19.8506 O   0  0  0  0  0  0  0  0  0  0  0  0
   11.0205  -16.9297   21.2681 C   0  0  2  0  0  0  0  0  0  0  0  0
    9.7757  -16.3882   21.7101 N   0  0  0  0  0  0  0  0  0  0  0  0
   12.1311  -16.6568   22.2439 C   0  0  0  0  0  0  0  0  0  0  0  0
   12.4743  -15.4808   22.5155 O   0  0  0  0  0  0  0  0  0  0  0  0
   13.1405  -20.4853   26.8535 N   0  0  0  0  0  0  0  0  0  0  0  0
   12.2374  -19.4077   26.7075 C   0  0  0  0  0  0  0  0  0  0  0  0
   11.2096  -19.3790   27.4114 O   0  0  0  0  0  0  0  0  0  0  0  0
   12.4952  -18.3256   25.7371 C   0  0  0  0  0  0  0  0  0  0  0  0
   13.7914  -18.4428   24.9938 C   0  0  0  0  0  0  0  0  0  0  0  0
   13.8963  -17.4912   23.8605 C   0  0  2  0  0  0  0  0  0  0  0  0
   12.8192  -17.7208   22.8821 N   0  0  0  0  0  0  0  0  0  0  0  0
   15.2099  -17.5851   23.2133 C   0  0  0  0  0  0  0  0  0  0  0  0
   16.2394  -17.3258   23.9278 O   0  0  0  0  0  0  0  0  0  0  0  0
   15.4811  -17.9254   21.9110 O   0  0  0  0  0  0  0  0  0  0  0  0
  2  1  1  1
  3  2  1  0
  3  4  1  0
  4  5  2  0
  5  6  1  0
  7  6  1  0
  8  7  2  0
  9  8  1  0
 10 11  1  0
 10  9  2  0
 11 12  2  0
 12  4  1  0
 12  7  1  0
 13  2  1  0
 13 19  1  0
 14 13  2  0
 16 15  1  6
 16 18  1  0
 17 16  1  0
 18 19  1  1
 20 18  1  0
 21 20  2  0
 23 22  1  0
 24 23  2  0
 25 23  1  0
 27 26  1  1
 26 25  1  0
 27 28  1  0
 28 20  1  0
 29 31  1  0
 29 27  1  0
 30 29  2  0
M  END
$$$$
