WTQ.pdb
     RDKit          3D

 31 32  0  0  1  0  0  0  0  0999 V2000
    6.4180  -16.7827   20.3275 N   0  0  0  0  0  0  0  0  0  0  0  0
    7.2540  -16.0179   21.2282 C   0  0  1  0  0  0  0  0  0  0  0  0
    6.4511  -14.8121   21.6619 C   0  0  0  0  0  0  0  0  0  0  0  0
    7.2837  -13.8800   22.4784 C   0  0  0  0  0  0  0  0  0  0  0  0
    8.2959  -13.0367   22.0024 C   0  0  0  0  0  0  0  0  0  0  0  0
    8.8240  -12.3470   23.0293 N   0  0  0  0  0  0  0  0  0  0  0  0
    8.2083  -12.6911   24.1809 C   0  0  0  0  0  0  0  0  0  0  0  0
    8.3888  -12.2681   25.4819 C   0  0  0  0  0  0  0  0  0  0  0  0
    7.6082  -12.7909   26.4928 C   0  0  0  0  0  0  0  0  0  0  0  0
    6.6625  -13.7339   26.1476 C   0  0  0  0  0  0  0  0  0  0  0  0
    6.4750  -14.1645   24.8402 C   0  0  0  0  0  0  0  0  0  0  0  0
    7.2535  -13.6416   23.8377 C   0  0  0  0  0  0  0  0  0  0  0  0
    7.7651  -16.8073   22.3507 C   0  0  0  0  0  0  0  0  0  0  0  0
    7.0803  -17.7798   22.8153 O   0  0  0  0  0  0  0  0  0  0  0  0
    9.0948  -19.3998   22.0136 C   0  0  0  0  0  0  0  0  0  0  0  0
   10.1794  -18.7652   22.8205 C   0  0  1  0  0  0  0  0  0  0  0  0
   11.1183  -18.2530   21.8861 O   0  0  0  0  0  0  0  0  0  0  0  0
    9.7640  -17.6176   23.6549 C   0  0  2  0  0  0  0  0  0  0  0  0
    8.9921  -16.6038   23.0109 N   0  0  0  0  0  0  0  0  0  0  0  0
   10.8969  -17.0387   24.4558 C   0  0  0  0  0  0  0  0  0  0  0  0
   11.5377  -16.0440   24.0380 O   0  0  0  0  0  0  0  0  0  0  0  0
   10.5881  -13.9757   29.3479 N   0  0  0  0  0  0  0  0  0  0  0  0
    9.9433  -15.2110   29.1105 C   0  0  0  0  0  0  0  0  0  0  0  0
    8.7835  -15.3801   29.5335 O   0  0  0  0  0  0  0  0  0  0  0  0
   10.6235  -16.2949   28.3746 C   0  0  0  0  0  0  0  0  0  0  0  0
   11.6069  -15.8333   27.3419 C   0  0  0  0  0  0  0  0  0  0  0  0
   12.2396  -16.9541   26.6041 C   0  0  2  0  0  0  0  0  0  0  0  0
   11.2706  -17.6018   25.7033 N   0  0  0  0  0  0  0  0  0  0  0  0
   12.8185  -17.9344   27.5300 C   0  0  0  0  0  0  0  0  0  0  0  0
   12.2968  -19.1027   27.5542 O   0  0  0  0  0  0  0  0  0  0  0  0
   13.8731  -17.7545   28.3906 O   0  0  0  0  0  0  0  0  0  0  0  0
  2  1  1  6
  3  2  1  0
  3  4  1  0
  4  5  2  0
  5  6  1  0
  7  6  1  0
  8  7  2  0
  9  8  1  0
 10 11  1  0
 10  9  2  0
 11 12  2  0
 12  4  1  0
 12  7  1  0
 13  2  1  0
 13 19  1  0
 14 13  2  0
 16 15  1  6
 16 18  1  0
 17 16  1  0
 18 19  1  6
 20 18  1  0
 21 20  2  0
 23 22  1  0
 24 23  2  0
 25 23  1  0
 27 26  1  1
 26 25  1  0
 27 28  1  0
 28 20  1  0
 29 31  1  0
 29 27  1  0
 30 29  2  0
M  END
$$$$
