AVV.pdb
     RDKit          3D

 20 19  0  0  1  0  0  0  0  0999 V2000
   10.1098  -15.8147   19.9369 C   0  0  0  0  0  0  0  0  0  0  0  0
    9.6845  -16.7191   21.0722 C   0  0  2  0  0  0  0  0  0  0  0  0
    8.3717  -17.2879   20.8401 N   0  0  0  0  0  0  0  0  0  0  0  0
    9.6256  -15.9193   22.3045 C   0  0  0  0  0  0  0  0  0  0  0  0
   10.6293  -15.1976   22.6053 O   0  0  0  0  0  0  0  0  0  0  0  0
    6.3560  -15.8136   25.3292 C   0  0  0  0  0  0  0  0  0  0  0  0
    7.1437  -14.6507   24.7979 C   0  0  1  0  0  0  0  0  0  0  0  0
    7.2301  -13.5709   25.8311 C   0  0  0  0  0  0  0  0  0  0  0  0
    8.5344  -15.0385   24.3601 C   0  0  2  0  0  0  0  0  0  0  0  0
    8.5330  -15.8818   23.1987 N   0  0  0  0  0  0  0  0  0  0  0  0
    9.2781  -15.6770   25.4993 C   0  0  0  0  0  0  0  0  0  0  0  0
    9.5053  -16.9130   25.4530 O   0  0  0  0  0  0  0  0  0  0  0  0
   11.5801  -13.4989   28.2931 C   0  0  0  0  0  0  0  0  0  0  0  0
   10.8281  -14.7018   28.8003 C   0  0  1  0  0  0  0  0  0  0  0  0
    9.6270  -14.2783   29.5787 C   0  0  0  0  0  0  0  0  0  0  0  0
   10.5085  -15.5958   27.6296 C   0  0  2  0  0  0  0  0  0  0  0  0
    9.7328  -14.9511   26.6187 N   0  0  0  0  0  0  0  0  0  0  0  0
    9.7683  -16.7777   28.1803 C   0  0  0  0  0  0  0  0  0  0  0  0
   10.3900  -17.7757   28.8847 O   0  0  0  0  0  0  0  0  0  0  0  0
    8.5267  -16.8673   27.9944 O   0  0  0  0  0  0  0  0  0  0  0  0
  2  1  1  6
  2  4  1  0
  3  2  1  0
  4  5  2  0
  7  6  1  1
  7  9  1  0
  7  8  1  0
  9 11  1  0
 10  4  1  0
  9 10  1  6
 11 12  2  0
 14 13  1  6
 14 15  1  0
 14 16  1  0
 16 18  1  0
 16 17  1  6
 17 11  1  0
 18 20  2  0
 18 19  1  0
M  END
$$$$
