AVV.pdb
     RDKit          3D

 20 19  0  0  1  0  0  0  0  0999 V2000
   12.3382  -17.8116   21.4934 C   0  0  0  0  0  0  0  0  0  0  0  0
   11.2785  -17.2116   20.5962 C   0  0  2  0  0  0  0  0  0  0  0  0
   11.8594  -16.5976   19.4186 N   0  0  0  0  0  0  0  0  0  0  0  0
   10.5671  -16.1701   21.3518 C   0  0  0  0  0  0  0  0  0  0  0  0
   11.2428  -15.2076   21.8376 O   0  0  0  0  0  0  0  0  0  0  0  0
    7.3695  -14.2507   20.0677 C   0  0  0  0  0  0  0  0  0  0  0  0
    7.2095  -14.6849   21.4963 C   0  0  1  0  0  0  0  0  0  0  0  0
    6.3137  -15.8817   21.5745 C   0  0  0  0  0  0  0  0  0  0  0  0
    8.5263  -14.9996   22.1621 C   0  0  2  0  0  0  0  0  0  0  0  0
    9.1752  -16.1446   21.5894 N   0  0  0  0  0  0  0  0  0  0  0  0
    8.3327  -15.1640   23.6434 C   0  0  0  0  0  0  0  0  0  0  0  0
    8.5765  -16.2832   24.1622 O   0  0  0  0  0  0  0  0  0  0  0  0
    8.0596  -12.0078   26.5319 C   0  0  0  0  0  0  0  0  0  0  0  0
    7.0960  -13.1642   26.5949 C   0  0  1  0  0  0  0  0  0  0  0  0
    5.7616  -12.7632   26.0597 C   0  0  0  0  0  0  0  0  0  0  0  0
    7.7097  -14.3390   25.8772 C   0  0  2  0  0  0  0  0  0  0  0  0
    7.8895  -14.1181   24.4778 N   0  0  0  0  0  0  0  0  0  0  0  0
    6.7990  -15.5076   26.1077 C   0  0  0  0  0  0  0  0  0  0  0  0
    6.8527  -16.2729   27.2434 O   0  0  0  0  0  0  0  0  0  0  0  0
    5.9476  -15.8066   25.2302 O   0  0  0  0  0  0  0  0  0  0  0  0
  2  1  1  1
  2  4  1  0
  3  2  1  0
  4  5  2  0
  7  6  1  6
  7  9  1  0
  7  8  1  0
  9 11  1  0
 10  4  1  0
  9 10  1  6
 11 12  2  0
 14 13  1  6
 14 15  1  0
 14 16  1  0
 16 18  1  0
 16 17  1  6
 17 11  1  0
 18 20  2  0
 18 19  1  0
M  END
$$$$
