AVV.pdb
     RDKit          3D

 20 19  0  0  1  0  0  0  0  0999 V2000
    9.3215  -17.7675   21.5940 C   0  0  0  0  0  0  0  0  0  0  0  0
    8.8821  -16.3587   21.2625 C   0  0  2  0  0  0  0  0  0  0  0  0
    9.7011  -15.7743   20.2191 N   0  0  0  0  0  0  0  0  0  0  0  0
    9.0225  -15.5332   22.4710 C   0  0  0  0  0  0  0  0  0  0  0  0
   10.1694  -15.0568   22.7478 O   0  0  0  0  0  0  0  0  0  0  0  0
    6.0775  -14.8969   25.8066 C   0  0  0  0  0  0  0  0  0  0  0  0
    6.9406  -13.8702   25.1313 C   0  0  1  0  0  0  0  0  0  0  0  0
    7.2863  -12.7748   26.0912 C   0  0  0  0  0  0  0  0  0  0  0  0
    8.2086  -14.4566   24.5616 C   0  0  2  0  0  0  0  0  0  0  0  0
    7.9772  -15.2175   23.3668 N   0  0  0  0  0  0  0  0  0  0  0  0
    8.9156  -15.2761   25.6042 C   0  0  0  0  0  0  0  0  0  0  0  0
    8.9019  -16.5291   25.4969 O   0  0  0  0  0  0  0  0  0  0  0  0
   11.7626  -13.6197   28.2625 C   0  0  0  0  0  0  0  0  0  0  0  0
   10.9276  -14.7720   28.7569 C   0  0  1  0  0  0  0  0  0  0  0  0
    9.8720  -14.2888   29.6950 C   0  0  0  0  0  0  0  0  0  0  0  0
   10.3848  -15.5170   27.5643 C   0  0  2  0  0  0  0  0  0  0  0  0
    9.5942  -14.7022   26.6981 N   0  0  0  0  0  0  0  0  0  0  0  0
    9.5669  -16.6527   28.1021 C   0  0  0  0  0  0  0  0  0  0  0  0
   10.1317  -17.7787   28.6422 O   0  0  0  0  0  0  0  0  0  0  0  0
    8.3110  -16.5798   28.0611 O   0  0  0  0  0  0  0  0  0  0  0  0
  2  1  1  1
  2  4  1  0
  3  2  1  0
  4  5  2  0
  7  6  1  1
  7  9  1  0
  7  8  1  0
  9 11  1  0
 10  4  1  0
  9 10  1  6
 11 12  2  0
 14 13  1  6
 14 15  1  0
 14 16  1  0
 16 18  1  0
 16 17  1  1
 17 11  1  0
 18 20  2  0
 18 19  1  0
M  END
$$$$
