AVV.pdb
     RDKit          3D

 20 19  0  0  1  0  0  0  0  0999 V2000
    6.1710  -18.4122   23.8516 C   0  0  0  0  0  0  0  0  0  0  0  0
    6.0987  -17.1027   23.0981 C   0  0  2  0  0  0  0  0  0  0  0  0
    6.5267  -17.2532   21.7214 N   0  0  0  0  0  0  0  0  0  0  0  0
    6.9964  -16.1406   23.7540 C   0  0  0  0  0  0  0  0  0  0  0  0
    8.2412  -16.2037   23.4979 O   0  0  0  0  0  0  0  0  0  0  0  0
    5.8250  -13.4234   26.9262 C   0  0  0  0  0  0  0  0  0  0  0  0
    6.8852  -13.0595   25.9269 C   0  0  1  0  0  0  0  0  0  0  0  0
    7.9331  -12.2081   26.5733 C   0  0  0  0  0  0  0  0  0  0  0  0
    7.5368  -14.2676   25.3004 C   0  0  2  0  0  0  0  0  0  0  0  0
    6.5904  -15.1353   24.6590 N   0  0  0  0  0  0  0  0  0  0  0  0
    8.3514  -15.0072   26.3241 C   0  0  0  0  0  0  0  0  0  0  0  0
    7.7620  -15.7911   27.1112 O   0  0  0  0  0  0  0  0  0  0  0  0
   12.6180  -16.8528   27.7895 C   0  0  0  0  0  0  0  0  0  0  0  0
   11.9499  -15.8501   26.8849 C   0  0  1  0  0  0  0  0  0  0  0  0
   12.1611  -16.2148   25.4530 C   0  0  0  0  0  0  0  0  0  0  0  0
   10.4982  -15.7441   27.2764 C   0  0  2  0  0  0  0  0  0  0  0  0
    9.7484  -14.8612   26.4411 N   0  0  0  0  0  0  0  0  0  0  0  0
   10.4696  -15.2671   28.6975 C   0  0  0  0  0  0  0  0  0  0  0  0
   10.2844  -13.9507   29.0312 O   0  0  0  0  0  0  0  0  0  0  0  0
   10.6206  -16.1000   29.6291 O   0  0  0  0  0  0  0  0  0  0  0  0
  2  1  1  1
  2  4  1  0
  3  2  1  0
  4  5  2  0
  7  6  1  1
  7  9  1  0
  7  8  1  0
  9 11  1  0
 10  4  1  0
  9 10  1  1
 11 12  2  0
 14 13  1  1
 14 15  1  0
 14 16  1  0
 16 18  1  0
 16 17  1  6
 17 11  1  0
 18 20  2  0
 18 19  1  0
M  END
$$$$
