AVV.pdb
     RDKit          3D

 20 19  0  0  1  0  0  0  0  0999 V2000
    6.7089  -16.3520   21.6324 C   0  0  0  0  0  0  0  0  0  0  0  0
    6.9326  -14.8628   21.4912 C   0  0  2  0  0  0  0  0  0  0  0  0
    7.7144  -14.5485   20.3117 N   0  0  0  0  0  0  0  0  0  0  0  0
    7.6737  -14.3917   22.6704 C   0  0  0  0  0  0  0  0  0  0  0  0
    8.9399  -14.5160   22.6780 O   0  0  0  0  0  0  0  0  0  0  0  0
    5.8222  -12.9792   26.3224 C   0  0  0  0  0  0  0  0  0  0  0  0
    7.1641  -12.4762   25.8736 C   0  0  1  0  0  0  0  0  0  0  0  0
    8.0279  -12.1817   27.0602 C   0  0  0  0  0  0  0  0  0  0  0  0
    7.8765  -13.4454   24.9629 C   0  0  2  0  0  0  0  0  0  0  0  0
    7.0924  -13.8031   23.8151 N   0  0  0  0  0  0  0  0  0  0  0  0
    8.3055  -14.6623   25.7335 C   0  0  0  0  0  0  0  0  0  0  0  0
    7.4733  -15.5885   25.9092 O   0  0  0  0  0  0  0  0  0  0  0  0
   11.6875  -17.8234   27.0409 C   0  0  0  0  0  0  0  0  0  0  0  0
   11.3518  -16.5290   26.3469 C   0  0  1  0  0  0  0  0  0  0  0  0
   11.4270  -16.6946   24.8655 C   0  0  0  0  0  0  0  0  0  0  0  0
   10.0070  -16.0570   26.8373 C   0  0  2  0  0  0  0  0  0  0  0  0
    9.6008  -14.8116   26.2687 N   0  0  0  0  0  0  0  0  0  0  0  0
   10.1094  -15.9405   28.3286 C   0  0  0  0  0  0  0  0  0  0  0  0
   10.0055  -17.0230   29.1628 O   0  0  0  0  0  0  0  0  0  0  0  0
   10.2983  -14.8086   28.8458 O   0  0  0  0  0  0  0  0  0  0  0  0
  2  1  1  1
  2  4  1  0
  3  2  1  0
  4  5  2  0
  7  6  1  1
  7  9  1  0
  7  8  1  0
  9 11  1  0
 10  4  1  0
  9 10  1  6
 11 12  2  0
 14 13  1  1
 14 15  1  0
 14 16  1  0
 16 18  1  0
 16 17  1  6
 17 11  1  0
 18 20  2  0
 18 19  1  0
M  END
$$$$
