AVV.pdb
     RDKit          3D

 20 19  0  0  1  0  0  0  0  0999 V2000
   11.6088  -18.6426   22.6946 C   0  0  0  0  0  0  0  0  0  0  0  0
   11.2563  -17.7608   21.5174 C   0  0  2  0  0  0  0  0  0  0  0  0
   12.4324  -17.3884   20.7565 N   0  0  0  0  0  0  0  0  0  0  0  0
   10.6340  -16.5311   22.0296 C   0  0  0  0  0  0  0  0  0  0  0  0
   11.3875  -15.6336   22.5253 O   0  0  0  0  0  0  0  0  0  0  0  0
    7.9040  -14.3459   20.1071 C   0  0  0  0  0  0  0  0  0  0  0  0
    7.5481  -14.5544   21.5510 C   0  0  1  0  0  0  0  0  0  0  0  0
    6.4674  -15.5830   21.6727 C   0  0  0  0  0  0  0  0  0  0  0  0
    8.7315  -14.9684   22.3904 C   0  0  2  0  0  0  0  0  0  0  0  0
    9.2491  -16.2546   22.0192 N   0  0  0  0  0  0  0  0  0  0  0  0
    8.3744  -14.9224   23.8495 C   0  0  0  0  0  0  0  0  0  0  0  0
    8.6347  -15.9231   24.5652 O   0  0  0  0  0  0  0  0  0  0  0  0
    6.3644  -12.7474   27.7618 C   0  0  0  0  0  0  0  0  0  0  0  0
    6.6669  -12.6065   26.2926 C   0  0  1  0  0  0  0  0  0  0  0  0
    7.3902  -11.3282   26.0274 C   0  0  0  0  0  0  0  0  0  0  0  0
    7.4155  -13.8332   25.8376 C   0  0  2  0  0  0  0  0  0  0  0  0
    7.7601  -13.8061   24.4520 N   0  0  0  0  0  0  0  0  0  0  0  0
    6.5339  -15.0094   26.1328 C   0  0  0  0  0  0  0  0  0  0  0  0
    5.5266  -15.4067   25.2925 O   0  0  0  0  0  0  0  0  0  0  0  0
    6.7171  -15.6653   27.1913 O   0  0  0  0  0  0  0  0  0  0  0  0
  2  1  1  1
  2  4  1  0
  3  2  1  0
  4  5  2  0
  7  6  1  6
  7  9  1  0
  7  8  1  0
  9 11  1  0
 10  4  1  0
  9 10  1  6
 11 12  2  0
 14 13  1  1
 14 15  1  0
 14 16  1  0
 16 18  1  0
 16 17  1  6
 17 11  1  0
 18 20  2  0
 18 19  1  0
M  END
$$$$
