AVV.pdb
     RDKit          3D

 20 19  0  0  1  0  0  0  0  0999 V2000
    7.9177  -18.6835   17.2574 C   0  0  0  0  0  0  0  0  0  0  0  0
    8.3825  -17.3141   16.8143 C   0  0  2  0  0  0  0  0  0  0  0  0
    9.5091  -17.3991   15.9063 N   0  0  0  0  0  0  0  0  0  0  0  0
    8.8089  -16.5623   18.0037 C   0  0  0  0  0  0  0  0  0  0  0  0
   10.0011  -16.7161   18.4208 O   0  0  0  0  0  0  0  0  0  0  0  0
    8.0862  -13.0095   21.4235 C   0  0  0  0  0  0  0  0  0  0  0  0
    7.6219  -13.7353   20.1936 C   0  0  1  0  0  0  0  0  0  0  0  0
    7.5332  -12.7879   19.0381 C   0  0  0  0  0  0  0  0  0  0  0  0
    8.5168  -14.8929   19.8257 C   0  0  2  0  0  0  0  0  0  0  0  0
    7.9965  -15.6689   18.7362 N   0  0  0  0  0  0  0  0  0  0  0  0
    8.7792  -15.7500   21.0320 C   0  0  0  0  0  0  0  0  0  0  0  0
    7.8515  -16.4798   21.4657 O   0  0  0  0  0  0  0  0  0  0  0  0
   12.0570  -17.8790   21.6812 C   0  0  0  0  0  0  0  0  0  0  0  0
   11.6737  -17.1129   22.9205 C   0  0  1  0  0  0  0  0  0  0  0  0
   12.6277  -15.9897   23.1574 C   0  0  0  0  0  0  0  0  0  0  0  0
   10.2385  -16.6720   22.7867 C   0  0  2  0  0  0  0  0  0  0  0  0
   10.0204  -15.7721   21.6995 N   0  0  0  0  0  0  0  0  0  0  0  0
    9.8654  -16.0214   24.0849 C   0  0  0  0  0  0  0  0  0  0  0  0
    9.5957  -16.7401   25.2205 O   0  0  0  0  0  0  0  0  0  0  0  0
    9.7940  -14.7663   24.1459 O   0  0  0  0  0  0  0  0  0  0  0  0
  2  1  1  1
  2  4  1  0
  3  2  1  0
  4  5  2  0
  7  6  1  1
  7  9  1  0
  7  8  1  0
  9 11  1  0
 10  4  1  0
  9 10  1  6
 11 12  2  0
 14 13  1  6
 14 15  1  0
 14 16  1  0
 16 18  1  0
 16 17  1  6
 17 11  1  0
 18 20  2  0
 18 19  1  0
M  END
$$$$
