AVV.pdb
     RDKit          3D

 20 19  0  0  1  0  0  0  0  0999 V2000
   12.0894  -18.7821   21.6288 C   0  0  0  0  0  0  0  0  0  0  0  0
   11.3707  -17.6209   20.9787 C   0  0  2  0  0  0  0  0  0  0  0  0
   12.2551  -16.8561   20.1220 N   0  0  0  0  0  0  0  0  0  0  0  0
   10.8766  -16.7297   22.0386 C   0  0  0  0  0  0  0  0  0  0  0  0
   11.7141  -15.9859   22.6422 O   0  0  0  0  0  0  0  0  0  0  0  0
    7.1456  -14.3677   24.3274 C   0  0  0  0  0  0  0  0  0  0  0  0
    7.6316  -15.3029   23.2577 C   0  0  1  0  0  0  0  0  0  0  0  0
    7.3640  -14.7222   21.9042 C   0  0  0  0  0  0  0  0  0  0  0  0
    9.1006  -15.6227   23.3848 C   0  0  2  0  0  0  0  0  0  0  0  0
    9.5302  -16.6257   22.4523 N   0  0  0  0  0  0  0  0  0  0  0  0
    9.4261  -16.0145   24.7987 C   0  0  0  0  0  0  0  0  0  0  0  0
    9.5189  -17.2369   25.0790 O   0  0  0  0  0  0  0  0  0  0  0  0
   10.4796  -14.9450   29.4682 C   0  0  0  0  0  0  0  0  0  0  0  0
    9.8831  -14.4347   28.1823 C   0  0  1  0  0  0  0  0  0  0  0  0
   10.4901  -13.1236   27.8078 C   0  0  0  0  0  0  0  0  0  0  0  0
   10.0384  -15.4991   27.1264 C   0  0  2  0  0  0  0  0  0  0  0  0
    9.6322  -15.0716   25.8258 N   0  0  0  0  0  0  0  0  0  0  0  0
    9.2143  -16.6700   27.5713 C   0  0  0  0  0  0  0  0  0  0  0  0
    9.7461  -17.7274   28.2625 O   0  0  0  0  0  0  0  0  0  0  0  0
    7.9843  -16.6933   27.3049 O   0  0  0  0  0  0  0  0  0  0  0  0
  2  1  1  1
  2  4  1  0
  3  2  1  0
  4  5  2  0
  7  6  1  1
  7  9  1  0
  7  8  1  0
  9 11  1  0
 10  4  1  0
  9 10  1  6
 11 12  2  0
 14 13  1  1
 14 15  1  0
 14 16  1  0
 16 18  1  0
 16 17  1  6
 17 11  1  0
 18 20  2  0
 18 19  1  0
M  END
$$$$
