WWI.pdb
     RDKit          3D

 37 40  0  0  1  0  0  0  0  0999 V2000
   25.5105  -20.6738  -13.2398 N   0  0  0  0  0  0  0  0  0  0  0  0
   24.3557  -20.2130  -12.4435 C   0  0  1  0  0  0  0  0  0  0  0  0
   23.0807  -20.5633  -13.1147 C   0  0  0  0  0  0  0  0  0  0  0  0
   22.8169  -19.8685  -14.3845 C   0  0  0  0  0  0  0  0  0  0  0  0
   23.2980  -20.1710  -15.6313 C   0  0  0  0  0  0  0  0  0  0  0  0
   22.7637  -19.3023  -16.4944 N   0  0  0  0  0  0  0  0  0  0  0  0
   21.9448  -18.4398  -15.8354 C   0  0  0  0  0  0  0  0  0  0  0  0
   21.1642  -17.3768  -16.2714 C   0  0  0  0  0  0  0  0  0  0  0  0
   20.4300  -16.6959  -15.3343 C   0  0  0  0  0  0  0  0  0  0  0  0
   20.4422  -17.0276  -13.9956 C   0  0  0  0  0  0  0  0  0  0  0  0
   21.2237  -18.0909  -13.5648 C   0  0  0  0  0  0  0  0  0  0  0  0
   21.9564  -18.7688  -14.5082 C   0  0  0  0  0  0  0  0  0  0  0  0
   24.4407  -20.9480  -11.1266 C   0  0  0  0  0  0  0  0  0  0  0  0
   24.5943  -22.1839  -11.1758 O   0  0  0  0  0  0  0  0  0  0  0  0
   24.3466  -20.2436   -9.9113 N   0  0  0  0  0  0  0  0  0  0  0  0
   24.1104  -20.8222   -8.6514 C   0  0  1  0  0  0  0  0  0  0  0  0
   24.8812  -20.1845   -7.5494 C   0  0  0  0  0  0  0  0  0  0  0  0
   26.3437  -20.3700   -7.5941 C   0  0  0  0  0  0  0  0  0  0  0  0
   27.0410  -20.9404   -8.6430 C   0  0  0  0  0  0  0  0  0  0  0  0
   28.3796  -20.9160   -8.3889 N   0  0  0  0  0  0  0  0  0  0  0  0
   28.5723  -20.3471   -7.2053 C   0  0  0  0  0  0  0  0  0  0  0  0
   29.7240  -20.1018   -6.4956 C   0  0  0  0  0  0  0  0  0  0  0  0
   29.6551  -19.5027   -5.2505 C   0  0  0  0  0  0  0  0  0  0  0  0
   28.4384  -19.1523   -4.7201 C   0  0  0  0  0  0  0  0  0  0  0  0
   27.2850  -19.4131   -5.4632 C   0  0  0  0  0  0  0  0  0  0  0  0
   27.3312  -20.0034   -6.6976 C   0  0  0  0  0  0  0  0  0  0  0  0
   22.6332  -20.8360   -8.3596 C   0  0  0  0  0  0  0  0  0  0  0  0
   21.8521  -19.8974   -8.5632 O   0  0  0  0  0  0  0  0  0  0  0  0
   18.0611  -24.8107   -8.3445 C   0  0  0  0  0  0  0  0  0  0  0  0
   18.7000  -23.6180   -7.6474 C   0  0  0  0  0  0  0  0  0  0  0  0
   20.1397  -23.4433   -8.0561 C   0  0  2  0  0  0  0  0  0  0  0  0
   20.8754  -24.7255   -7.7871 C   0  0  0  0  0  0  0  0  0  0  0  0
   20.7137  -22.2236   -7.4348 C   0  0  2  0  0  0  0  0  0  0  0  0
   22.1103  -22.0207   -7.8118 N   0  0  0  0  0  0  0  0  0  0  0  0
   20.6919  -22.3112   -5.9777 C   0  0  0  0  0  0  0  0  0  0  0  0
   21.7610  -22.4069   -5.3329 O   0  0  0  0  0  0  0  0  0  0  0  0
   19.5224  -22.2908   -5.2623 O   0  0  0  0  0  0  0  0  0  0  0  0
  2  3  1  0
  2  1  1  6
  4  3  1  0
  4  5  2  0
  6  5  1  0
  7 12  2  0
  7  6  1  0
  8  7  1  0
  9 10  1  0
  9  8  2  0
 10 11  2  0
 11 12  1  0
 12  4  1  0
 13  2  1  0
 14 13  2  0
 15 13  1  0
 16 17  1  1
 16 15  1  0
 18 17  1  0
 19 18  2  0
 20 19  1  0
 21 20  1  0
 21 26  2  0
 22 23  2  0
 22 21  1  0
 23 24  1  0
 24 25  2  0
 26 25  1  0
 26 18  1  0
 27 16  1  0
 28 27  2  0
 30 29  1  0
 31 30  1  0
 31 32  1  1
 33 31  1  0
 33 34  1  6
 34 27  1  0
 35 37  1  0
 35 33  1  0
 36 35  2  0
M  END
$$$$
