WWI.pdb
     RDKit          3D

 37 40  0  0  1  0  0  0  0  0999 V2000
   24.6265  -21.8132  -10.4184 N   0  0  0  0  0  0  0  0  0  0  0  0
   24.8498  -20.5259  -11.1061 C   0  0  1  0  0  0  0  0  0  0  0  0
   26.1248  -20.5481  -11.8628 C   0  0  0  0  0  0  0  0  0  0  0  0
   27.3357  -20.7956  -11.0645 C   0  0  0  0  0  0  0  0  0  0  0  0
   28.5609  -21.2306  -11.4970 C   0  0  0  0  0  0  0  0  0  0  0  0
   29.3743  -21.2715  -10.4378 N   0  0  0  0  0  0  0  0  0  0  0  0
   28.7039  -20.8726   -9.3242 C   0  0  0  0  0  0  0  0  0  0  0  0
   29.0953  -20.7350   -7.9985 C   0  0  0  0  0  0  0  0  0  0  0  0
   28.1605  -20.2918   -7.0984 C   0  0  0  0  0  0  0  0  0  0  0  0
   26.8661  -19.9837   -7.4616 C   0  0  0  0  0  0  0  0  0  0  0  0
   26.4798  -20.1226   -8.7876 C   0  0  0  0  0  0  0  0  0  0  0  0
   27.4207  -20.5665   -9.6842 C   0  0  0  0  0  0  0  0  0  0  0  0
   23.7014  -20.3689  -12.0747 C   0  0  0  0  0  0  0  0  0  0  0  0
   22.6114  -20.8784  -11.7495 O   0  0  0  0  0  0  0  0  0  0  0  0
   23.8818  -19.6735  -13.2854 N   0  0  0  0  0  0  0  0  0  0  0  0
   22.8538  -19.2935  -14.1667 C   0  0  1  0  0  0  0  0  0  0  0  0
   23.3180  -18.4287  -15.2856 C   0  0  0  0  0  0  0  0  0  0  0  0
   22.2603  -17.8519  -16.1364 C   0  0  0  0  0  0  0  0  0  0  0  0
   21.5097  -16.7338  -15.8232 C   0  0  0  0  0  0  0  0  0  0  0  0
   20.6551  -16.4381  -16.8427 N   0  0  0  0  0  0  0  0  0  0  0  0
   20.8281  -17.3317  -17.8086 C   0  0  0  0  0  0  0  0  0  0  0  0
   20.2060  -17.4812  -19.0255 C   0  0  0  0  0  0  0  0  0  0  0  0
   20.5595  -18.5269  -19.8595 C   0  0  0  0  0  0  0  0  0  0  0  0
   21.5306  -19.4178  -19.4750 C   0  0  0  0  0  0  0  0  0  0  0  0
   22.1459  -19.2415  -18.2337 C   0  0  0  0  0  0  0  0  0  0  0  0
   21.8122  -18.2126  -17.3943 C   0  0  0  0  0  0  0  0  0  0  0  0
   22.1309  -20.5140  -14.6720 C   0  0  0  0  0  0  0  0  0  0  0  0
   22.6698  -21.5250  -15.1411 O   0  0  0  0  0  0  0  0  0  0  0  0
   19.3684  -23.2101  -11.5124 C   0  0  0  0  0  0  0  0  0  0  0  0
   20.0758  -22.7744  -12.7878 C   0  0  0  0  0  0  0  0  0  0  0  0
   19.1209  -22.1285  -13.7580 C   0  0  2  0  0  0  0  0  0  0  0  0
   18.0042  -23.0913  -14.0473 C   0  0  0  0  0  0  0  0  0  0  0  0
   19.8517  -21.6086  -14.9407 C   0  0  2  0  0  0  0  0  0  0  0  0
   20.7270  -20.4907  -14.5974 N   0  0  0  0  0  0  0  0  0  0  0  0
   18.9291  -21.1090  -15.9557 C   0  0  0  0  0  0  0  0  0  0  0  0
   18.8824  -21.6434  -17.0872 O   0  0  0  0  0  0  0  0  0  0  0  0
   18.0862  -20.0535  -15.7204 O   0  0  0  0  0  0  0  0  0  0  0  0
  2  3  1  0
  2  1  1  6
  4  3  1  0
  4  5  2  0
  6  5  1  0
  7 12  2  0
  7  6  1  0
  8  7  1  0
  9 10  1  0
  9  8  2  0
 10 11  2  0
 11 12  1  0
 12  4  1  0
 13  2  1  0
 14 13  2  0
 15 13  1  0
 16 17  1  6
 16 15  1  0
 18 17  1  0
 19 18  2  0
 20 19  1  0
 21 20  1  0
 21 26  2  0
 22 23  2  0
 22 21  1  0
 23 24  1  0
 24 25  2  0
 26 25  1  0
 26 18  1  0
 27 16  1  0
 28 27  2  0
 30 29  1  0
 31 30  1  0
 31 32  1  6
 33 31  1  0
 33 34  1  1
 34 27  1  0
 35 37  1  0
 35 33  1  0
 36 35  2  0
M  END
$$$$
