WWI.pdb
     RDKit          3D

 37 40  0  0  1  0  0  0  0  0999 V2000
   23.9223  -18.8155  -13.2532 N   0  0  0  0  0  0  0  0  0  0  0  0
   24.0628  -20.0667  -12.4821 C   0  0  1  0  0  0  0  0  0  0  0  0
   24.2718  -21.2220  -13.3878 C   0  0  0  0  0  0  0  0  0  0  0  0
   23.1214  -21.5894  -14.2283 C   0  0  0  0  0  0  0  0  0  0  0  0
   23.0442  -21.6103  -15.5961 C   0  0  0  0  0  0  0  0  0  0  0  0
   21.8262  -22.0480  -15.9274 N   0  0  0  0  0  0  0  0  0  0  0  0
   21.1080  -22.3122  -14.8034 C   0  0  0  0  0  0  0  0  0  0  0  0
   19.8165  -22.7860  -14.6112 C   0  0  0  0  0  0  0  0  0  0  0  0
   19.3829  -22.9553  -13.3212 C   0  0  0  0  0  0  0  0  0  0  0  0
   20.1750  -22.6745  -12.2276 C   0  0  0  0  0  0  0  0  0  0  0  0
   21.4651  -22.2015  -12.4250 C   0  0  0  0  0  0  0  0  0  0  0  0
   21.8934  -22.0344  -13.7191 C   0  0  0  0  0  0  0  0  0  0  0  0
   25.2890  -19.8858  -11.6187 C   0  0  0  0  0  0  0  0  0  0  0  0
   26.2664  -19.3101  -12.1351 O   0  0  0  0  0  0  0  0  0  0  0  0
   25.3010  -20.3573  -10.2922 N   0  0  0  0  0  0  0  0  0  0  0  0
   26.4025  -20.3037   -9.4194 C   0  0  1  0  0  0  0  0  0  0  0  0
   26.0207  -20.2033   -7.9843 C   0  0  0  0  0  0  0  0  0  0  0  0
   27.0082  -19.5596   -7.0978 C   0  0  0  0  0  0  0  0  0  0  0  0
   27.5135  -18.2834   -7.2647 C   0  0  0  0  0  0  0  0  0  0  0  0
   28.3661  -17.9763   -6.2469 N   0  0  0  0  0  0  0  0  0  0  0  0
   28.4300  -19.0158   -5.4242 C   0  0  0  0  0  0  0  0  0  0  0  0
   29.1515  -19.2143   -4.2708 C   0  0  0  0  0  0  0  0  0  0  0  0
   29.0578  -20.4176   -3.5945 C   0  0  0  0  0  0  0  0  0  0  0  0
   28.2459  -21.4160   -4.0725 C   0  0  0  0  0  0  0  0  0  0  0  0
   27.5244  -21.1867   -5.2461 C   0  0  0  0  0  0  0  0  0  0  0  0
   27.6015  -20.0029   -5.9296 C   0  0  0  0  0  0  0  0  0  0  0  0
   27.3159  -21.4744   -9.6699 C   0  0  0  0  0  0  0  0  0  0  0  0
   26.9500  -22.6261   -9.9387 O   0  0  0  0  0  0  0  0  0  0  0  0
   33.4480  -22.0185  -10.7160 C   0  0  0  0  0  0  0  0  0  0  0  0
   32.0956  -22.6401  -10.3975 C   0  0  0  0  0  0  0  0  0  0  0  0
   31.0559  -21.5879  -10.1106 C   0  0  2  0  0  0  0  0  0  0  0  0
   31.5866  -20.6628   -9.0521 C   0  0  0  0  0  0  0  0  0  0  0  0
   29.7428  -22.2172   -9.8229 C   0  0  2  0  0  0  0  0  0  0  0  0
   28.6972  -21.2240   -9.5903 N   0  0  0  0  0  0  0  0  0  0  0  0
   29.8021  -23.0387   -8.6175 C   0  0  0  0  0  0  0  0  0  0  0  0
   30.4333  -24.1202   -8.6186 O   0  0  0  0  0  0  0  0  0  0  0  0
   29.1832  -22.6696   -7.4511 O   0  0  0  0  0  0  0  0  0  0  0  0
  2  3  1  0
  2  1  1  6
  4  3  1  0
  4  5  2  0
  6  5  1  0
  7 12  2  0
  7  6  1  0
  8  7  1  0
  9 10  1  0
  9  8  2  0
 10 11  2  0
 11 12  1  0
 12  4  1  0
 13  2  1  0
 14 13  2  0
 15 13  1  0
 16 17  1  1
 16 15  1  0
 18 17  1  0
 19 18  2  0
 20 19  1  0
 21 20  1  0
 21 26  2  0
 22 23  2  0
 22 21  1  0
 23 24  1  0
 24 25  2  0
 26 25  1  0
 26 18  1  0
 27 16  1  0
 28 27  2  0
 30 29  1  0
 31 30  1  0
 31 32  1  1
 33 31  1  0
 33 34  1  1
 34 27  1  0
 35 37  1  0
 35 33  1  0
 36 35  2  0
M  END
$$$$
