WWI.pdb
     RDKit          3D

 37 40  0  0  1  0  0  0  0  0999 V2000
   24.0280  -19.8024   -8.2357 N   0  0  0  0  0  0  0  0  0  0  0  0
   25.4094  -19.8524   -8.7548 C   0  0  1  0  0  0  0  0  0  0  0  0
   26.1035  -21.0759   -8.2858 C   0  0  0  0  0  0  0  0  0  0  0  0
   26.4995  -21.0806   -6.8687 C   0  0  0  0  0  0  0  0  0  0  0  0
   25.9097  -21.7469   -5.8268 C   0  0  0  0  0  0  0  0  0  0  0  0
   26.6276  -21.4986   -4.7277 N   0  0  0  0  0  0  0  0  0  0  0  0
   27.6727  -20.6837   -5.0322 C   0  0  0  0  0  0  0  0  0  0  0  0
   28.6956  -20.1497   -4.2589 C   0  0  0  0  0  0  0  0  0  0  0  0
   29.6201  -19.3525   -4.8838 C   0  0  0  0  0  0  0  0  0  0  0  0
   29.5670  -19.0690   -6.2325 C   0  0  0  0  0  0  0  0  0  0  0  0
   28.5429  -19.6053   -7.0011 C   0  0  0  0  0  0  0  0  0  0  0  0
   27.6205  -20.4031   -6.3694 C   0  0  0  0  0  0  0  0  0  0  0  0
   25.2852  -19.8992  -10.2595 C   0  0  0  0  0  0  0  0  0  0  0  0
   24.2239  -20.3556  -10.7271 O   0  0  0  0  0  0  0  0  0  0  0  0
   26.3378  -19.4417  -11.0748 N   0  0  0  0  0  0  0  0  0  0  0  0
   26.2930  -19.3316  -12.4762 C   0  0  1  0  0  0  0  0  0  0  0  0
   27.3447  -18.4403  -13.0373 C   0  0  0  0  0  0  0  0  0  0  0  0
   27.3513  -18.2954  -14.5050 C   0  0  0  0  0  0  0  0  0  0  0  0
   26.6852  -17.3097  -15.2096 C   0  0  0  0  0  0  0  0  0  0  0  0
   26.9376  -17.4301  -16.5433 N   0  0  0  0  0  0  0  0  0  0  0  0
   27.7477  -18.4654  -16.7259 C   0  0  0  0  0  0  0  0  0  0  0  0
   28.2789  -19.0081  -17.8720 C   0  0  0  0  0  0  0  0  0  0  0  0
   29.0954  -20.1223  -17.7960 C   0  0  0  0  0  0  0  0  0  0  0  0
   29.3769  -20.6893  -16.5779 C   0  0  0  0  0  0  0  0  0  0  0  0
   28.8238  -20.1170  -15.4302 C   0  0  0  0  0  0  0  0  0  0  0  0
   28.0150  -19.0137  -15.4832 C   0  0  0  0  0  0  0  0  0  0  0  0
   26.3340  -20.7005  -13.1021 C   0  0  0  0  0  0  0  0  0  0  0  0
   27.0965  -21.6184  -12.7726 O   0  0  0  0  0  0  0  0  0  0  0  0
   23.5553  -25.5163  -14.2759 C   0  0  0  0  0  0  0  0  0  0  0  0
   24.4141  -24.4757  -14.9806 C   0  0  0  0  0  0  0  0  0  0  0  0
   24.3970  -23.1573  -14.2513 C   0  0  2  0  0  0  0  0  0  0  0  0
   22.9714  -22.7037  -14.1104 C   0  0  0  0  0  0  0  0  0  0  0  0
   25.3236  -22.1931  -14.8955 C   0  0  2  0  0  0  0  0  0  0  0  0
   25.4237  -20.9434  -14.1459 N   0  0  0  0  0  0  0  0  0  0  0  0
   24.8656  -21.8319  -16.2338 C   0  0  0  0  0  0  0  0  0  0  0  0
   24.2113  -20.7801  -16.4168 O   0  0  0  0  0  0  0  0  0  0  0  0
   25.1278  -22.6116  -17.3306 O   0  0  0  0  0  0  0  0  0  0  0  0
  2  3  1  0
  2  1  1  1
  4  3  1  0
  4  5  2  0
  6  5  1  0
  7 12  2  0
  7  6  1  0
  8  7  1  0
  9 10  1  0
  9  8  2  0
 10 11  2  0
 11 12  1  0
 12  4  1  0
 13  2  1  0
 14 13  2  0
 15 13  1  0
 16 17  1  6
 16 15  1  0
 18 17  1  0
 19 18  2  0
 20 19  1  0
 21 20  1  0
 21 26  2  0
 22 23  2  0
 22 21  1  0
 23 24  1  0
 24 25  2  0
 26 25  1  0
 26 18  1  0
 27 16  1  0
 28 27  2  0
 30 29  1  0
 31 30  1  0
 31 32  1  6
 33 31  1  0
 33 34  1  1
 34 27  1  0
 35 37  1  0
 35 33  1  0
 36 35  2  0
M  END
$$$$
