WWI.pdb
     RDKit          3D

 37 40  0  0  1  0  0  0  0  0999 V2000
   27.8012  -22.3585  -16.0056 N   0  0  0  0  0  0  0  0  0  0  0  0
   26.7859  -21.3069  -15.7974 C   0  0  1  0  0  0  0  0  0  0  0  0
   25.8007  -21.3002  -16.9057 C   0  0  0  0  0  0  0  0  0  0  0  0
   26.2139  -20.5821  -18.1216 C   0  0  0  0  0  0  0  0  0  0  0  0
   26.4854  -21.1006  -19.3604 C   0  0  0  0  0  0  0  0  0  0  0  0
   26.7789  -20.0807  -20.1720 N   0  0  0  0  0  0  0  0  0  0  0  0
   26.7048  -18.9084  -19.4871 C   0  0  0  0  0  0  0  0  0  0  0  0
   26.9080  -17.5890  -19.8710 C   0  0  0  0  0  0  0  0  0  0  0  0
   26.7427  -16.6140  -18.9210 C   0  0  0  0  0  0  0  0  0  0  0  0
   26.3873  -16.8972  -17.6187 C   0  0  0  0  0  0  0  0  0  0  0  0
   26.1851  -18.2173  -17.2401 C   0  0  0  0  0  0  0  0  0  0  0  0
   26.3519  -19.1891  -18.1962 C   0  0  0  0  0  0  0  0  0  0  0  0
   26.0805  -21.6612  -14.5096 C   0  0  0  0  0  0  0  0  0  0  0  0
   25.7639  -22.8556  -14.3463 O   0  0  0  0  0  0  0  0  0  0  0  0
   25.8040  -20.6661  -13.5528 N   0  0  0  0  0  0  0  0  0  0  0  0
   24.9402  -20.8125  -12.4526 C   0  0  1  0  0  0  0  0  0  0  0  0
   25.4422  -20.1632  -11.2110 C   0  0  0  0  0  0  0  0  0  0  0  0
   26.7837  -20.5807  -10.7621 C   0  0  0  0  0  0  0  0  0  0  0  0
   27.8114  -20.9827  -11.5951 C   0  0  0  0  0  0  0  0  0  0  0  0
   28.9310  -21.2534  -10.8670 N   0  0  0  0  0  0  0  0  0  0  0  0
   28.6606  -21.0397   -9.5853 C   0  0  0  0  0  0  0  0  0  0  0  0
   29.4381  -21.1813   -8.4603 C   0  0  0  0  0  0  0  0  0  0  0  0
   28.9059  -20.9091   -7.2126 C   0  0  0  0  0  0  0  0  0  0  0  0
   27.6015  -20.4980   -7.0940 C   0  0  0  0  0  0  0  0  0  0  0  0
   26.8351  -20.3625   -8.2536 C   0  0  0  0  0  0  0  0  0  0  0  0
   27.3428  -20.6250   -9.4977 C   0  0  0  0  0  0  0  0  0  0  0  0
   23.5605  -20.3287  -12.8128 C   0  0  0  0  0  0  0  0  0  0  0  0
   23.2851  -19.2033  -13.2488 O   0  0  0  0  0  0  0  0  0  0  0  0
   20.8836  -22.2338  -16.4789 C   0  0  0  0  0  0  0  0  0  0  0  0
   21.3306  -21.3788  -15.3017 C   0  0  0  0  0  0  0  0  0  0  0  0
   20.5712  -21.7235  -14.0467 C   0  0  2  0  0  0  0  0  0  0  0  0
   19.1007  -21.5768  -14.3182 C   0  0  0  0  0  0  0  0  0  0  0  0
   21.0973  -20.9545  -12.8912 C   0  0  2  0  0  0  0  0  0  0  0  0
   22.5064  -21.2424  -12.6359 N   0  0  0  0  0  0  0  0  0  0  0  0
   20.3824  -21.2888  -11.6630 C   0  0  0  0  0  0  0  0  0  0  0  0
   20.7968  -22.2067  -10.9189 O   0  0  0  0  0  0  0  0  0  0  0  0
   19.2478  -20.6244  -11.2746 O   0  0  0  0  0  0  0  0  0  0  0  0
  2  3  1  0
  2  1  1  6
  4  3  1  0
  4  5  2  0
  6  5  1  0
  7 12  2  0
  7  6  1  0
  8  7  1  0
  9 10  1  0
  9  8  2  0
 10 11  2  0
 11 12  1  0
 12  4  1  0
 13  2  1  0
 14 13  2  0
 15 13  1  0
 16 17  1  1
 16 15  1  0
 18 17  1  0
 19 18  2  0
 20 19  1  0
 21 20  1  0
 21 26  2  0
 22 23  2  0
 22 21  1  0
 23 24  1  0
 24 25  2  0
 26 25  1  0
 26 18  1  0
 27 16  1  0
 28 27  2  0
 30 29  1  0
 31 30  1  0
 31 32  1  6
 33 31  1  0
 33 34  1  1
 34 27  1  0
 35 37  1  0
 35 33  1  0
 36 35  2  0
M  END
$$$$
