WWI.pdb
     RDKit          3D

 37 40  0  0  1  0  0  0  0  0999 V2000
   26.6125  -21.3308  -14.3932 N   0  0  0  0  0  0  0  0  0  0  0  0
   26.5511  -20.2917  -13.3460 C   0  0  1  0  0  0  0  0  0  0  0  0
   25.3462  -19.4443  -13.5159 C   0  0  0  0  0  0  0  0  0  0  0  0
   25.2689  -18.6918  -14.7780 C   0  0  0  0  0  0  0  0  0  0  0  0
   24.3952  -18.8703  -15.8182 C   0  0  0  0  0  0  0  0  0  0  0  0
   24.6606  -17.9364  -16.7360 N   0  0  0  0  0  0  0  0  0  0  0  0
   25.6896  -17.1535  -16.3153 C   0  0  0  0  0  0  0  0  0  0  0  0
   26.3270  -16.0615  -16.8904 C   0  0  0  0  0  0  0  0  0  0  0  0
   27.3493  -15.4754  -16.1890 C   0  0  0  0  0  0  0  0  0  0  0  0
   27.7577  -15.9283  -14.9519 C   0  0  0  0  0  0  0  0  0  0  0  0
   27.1174  -17.0198  -14.3812 C   0  0  0  0  0  0  0  0  0  0  0  0
   26.0942  -17.6021  -15.0885 C   0  0  0  0  0  0  0  0  0  0  0  0
   26.4549  -21.0321  -12.0328 C   0  0  0  0  0  0  0  0  0  0  0  0
   25.6691  -21.9982  -11.9826 O   0  0  0  0  0  0  0  0  0  0  0  0
   27.2295  -20.6269  -10.9292 N   0  0  0  0  0  0  0  0  0  0  0  0
   27.1092  -21.1305   -9.6216 C   0  0  1  0  0  0  0  0  0  0  0  0
   28.2724  -20.8092   -8.7505 C   0  0  0  0  0  0  0  0  0  0  0  0
   27.9809  -19.9821   -7.5646 C   0  0  0  0  0  0  0  0  0  0  0  0
   27.0902  -18.9250   -7.5321 C   0  0  0  0  0  0  0  0  0  0  0  0
   27.0188  -18.4063   -6.2740 N   0  0  0  0  0  0  0  0  0  0  0  0
   27.8374  -19.0949   -5.4884 C   0  0  0  0  0  0  0  0  0  0  0  0
   28.1373  -18.9601   -4.1535 C   0  0  0  0  0  0  0  0  0  0  0  0
   29.0576  -19.8071   -3.5621 C   0  0  0  0  0  0  0  0  0  0  0  0
   29.6738  -20.7830   -4.3053 C   0  0  0  0  0  0  0  0  0  0  0  0
   29.3498  -20.8971   -5.6590 C   0  0  0  0  0  0  0  0  0  0  0  0
   28.4409  -20.0705   -6.2631 C   0  0  0  0  0  0  0  0  0  0  0  0
   25.8132  -20.6694   -9.0091 C   0  0  0  0  0  0  0  0  0  0  0  0
   25.5215  -19.4959   -8.7441 O   0  0  0  0  0  0  0  0  0  0  0  0
   20.1085  -21.3240  -10.0427 C   0  0  0  0  0  0  0  0  0  0  0  0
   21.1141  -21.3286   -8.9001 C   0  0  0  0  0  0  0  0  0  0  0  0
   22.5227  -21.5124   -9.4026 C   0  0  2  0  0  0  0  0  0  0  0  0
   22.5834  -22.7759  -10.2136 C   0  0  0  0  0  0  0  0  0  0  0  0
   23.4925  -21.4131   -8.2833 C   0  0  2  0  0  0  0  0  0  0  0  0
   24.8633  -21.6652   -8.7207 N   0  0  0  0  0  0  0  0  0  0  0  0
   23.2064  -22.3991   -7.2455 C   0  0  0  0  0  0  0  0  0  0  0  0
   23.9931  -23.3521   -7.0431 O   0  0  0  0  0  0  0  0  0  0  0  0
   22.0859  -22.3269   -6.4587 O   0  0  0  0  0  0  0  0  0  0  0  0
  2  3  1  0
  2  1  1  6
  4  3  1  0
  4  5  2  0
  6  5  1  0
  7 12  2  0
  7  6  1  0
  8  7  1  0
  9 10  1  0
  9  8  2  0
 10 11  2  0
 11 12  1  0
 12  4  1  0
 13  2  1  0
 14 13  2  0
 15 13  1  0
 16 17  1  1
 16 15  1  0
 18 17  1  0
 19 18  2  0
 20 19  1  0
 21 20  1  0
 21 26  2  0
 22 23  2  0
 22 21  1  0
 23 24  1  0
 24 25  2  0
 26 25  1  0
 26 18  1  0
 27 16  1  0
 28 27  2  0
 30 29  1  0
 31 30  1  0
 31 32  1  1
 33 31  1  0
 33 34  1  6
 34 27  1  0
 35 37  1  0
 35 33  1  0
 36 35  2  0
M  END
$$$$
