WWI.pdb
     RDKit          3D

 37 40  0  0  1  0  0  0  0  0999 V2000
   21.5864  -16.7041  -18.0921 N   0  0  0  0  0  0  0  0  0  0  0  0
   21.3882  -18.0800  -17.5945 C   0  0  1  0  0  0  0  0  0  0  0  0
   21.5323  -19.0632  -18.6951 C   0  0  0  0  0  0  0  0  0  0  0  0
   20.4710  -19.0397  -19.7139 C   0  0  0  0  0  0  0  0  0  0  0  0
   20.4798  -18.4114  -20.9315 C   0  0  0  0  0  0  0  0  0  0  0  0
   19.3261  -18.6948  -21.5429 N   0  0  0  0  0  0  0  0  0  0  0  0
   18.5657  -19.4943  -20.7483 C   0  0  0  0  0  0  0  0  0  0  0  0
   17.3101  -20.0617  -20.9240 C   0  0  0  0  0  0  0  0  0  0  0  0
   16.8144  -20.8436  -19.9123 C   0  0  0  0  0  0  0  0  0  0  0  0
   17.5113  -21.0802  -18.7458 C   0  0  0  0  0  0  0  0  0  0  0  0
   18.7658  -20.5111  -18.5750 C   0  0  0  0  0  0  0  0  0  0  0  0
   19.2568  -19.7294  -19.5920 C   0  0  0  0  0  0  0  0  0  0  0  0
   22.4789  -18.3133  -16.5757 C   0  0  0  0  0  0  0  0  0  0  0  0
   23.6004  -17.8301  -16.8248 O   0  0  0  0  0  0  0  0  0  0  0  0
   22.2134  -19.0488  -15.4050 N   0  0  0  0  0  0  0  0  0  0  0  0
   23.1410  -19.3118  -14.3812 C   0  0  1  0  0  0  0  0  0  0  0  0
   22.5169  -19.8138  -13.1267 C   0  0  0  0  0  0  0  0  0  0  0  0
   23.4376  -20.0547  -12.0000 C   0  0  0  0  0  0  0  0  0  0  0  0
   24.7664  -19.6742  -11.9638 C   0  0  0  0  0  0  0  0  0  0  0  0
   25.3189  -20.0022  -10.7621 N   0  0  0  0  0  0  0  0  0  0  0  0
   24.3883  -20.5852  -10.0168 C   0  0  0  0  0  0  0  0  0  0  0  0
   24.4423  -21.1079   -8.7463 C   0  0  0  0  0  0  0  0  0  0  0  0
   23.3180  -21.6912   -8.1898 C   0  0  0  0  0  0  0  0  0  0  0  0
   22.1468  -21.7505   -8.9034 C   0  0  0  0  0  0  0  0  0  0  0  0
   22.1208  -21.2115  -10.1915 C   0  0  0  0  0  0  0  0  0  0  0  0
   23.2213  -20.6285  -10.7601 C   0  0  0  0  0  0  0  0  0  0  0  0
   24.2098  -20.2469  -14.8820 C   0  0  0  0  0  0  0  0  0  0  0  0
   24.0101  -21.3466  -15.4142 O   0  0  0  0  0  0  0  0  0  0  0  0
   28.1105  -17.7507  -17.4946 C   0  0  0  0  0  0  0  0  0  0  0  0
   27.1197  -18.7704  -16.9511 C   0  0  0  0  0  0  0  0  0  0  0  0
   27.7117  -19.5692  -15.8189 C   0  0  2  0  0  0  0  0  0  0  0  0
   29.0031  -20.1802  -16.2847 C   0  0  0  0  0  0  0  0  0  0  0  0
   26.7088  -20.5144  -15.2675 C   0  0  2  0  0  0  0  0  0  0  0  0
   25.5413  -19.8224  -14.7272 N   0  0  0  0  0  0  0  0  0  0  0  0
   27.2663  -21.2960  -14.1678 C   0  0  0  0  0  0  0  0  0  0  0  0
   26.8672  -21.1134  -12.9950 O   0  0  0  0  0  0  0  0  0  0  0  0
   28.2321  -22.2488  -14.3653 O   0  0  0  0  0  0  0  0  0  0  0  0
  2  3  1  0
  2  1  1  6
  4  3  1  0
  4  5  2  0
  6  5  1  0
  7 12  2  0
  7  6  1  0
  8  7  1  0
  9 10  1  0
  9  8  2  0
 10 11  2  0
 11 12  1  0
 12  4  1  0
 13  2  1  0
 14 13  2  0
 15 13  1  0
 16 17  1  1
 16 15  1  0
 18 17  1  0
 19 18  2  0
 20 19  1  0
 21 20  1  0
 21 26  2  0
 22 23  2  0
 22 21  1  0
 23 24  1  0
 24 25  2  0
 26 25  1  0
 26 18  1  0
 27 16  1  0
 28 27  2  0
 30 29  1  0
 31 30  1  0
 31 32  1  6
 33 31  1  0
 33 34  1  1
 34 27  1  0
 35 37  1  0
 35 33  1  0
 36 35  2  0
M  END
$$$$
