WWI.pdb
     RDKit          3D

 37 40  0  0  1  0  0  0  0  0999 V2000
   28.5698  -20.3368   -9.5340 N   0  0  0  0  0  0  0  0  0  0  0  0
   27.1308  -20.4960   -9.2443 C   0  0  1  0  0  0  0  0  0  0  0  0
   26.6856  -19.5079   -8.2323 C   0  0  0  0  0  0  0  0  0  0  0  0
   27.6032  -19.2956   -7.1019 C   0  0  0  0  0  0  0  0  0  0  0  0
   28.5543  -18.3203   -6.9548 C   0  0  0  0  0  0  0  0  0  0  0  0
   29.1207  -18.4831   -5.7558 N   0  0  0  0  0  0  0  0  0  0  0  0
   28.5585  -19.5448   -5.1190 C   0  0  0  0  0  0  0  0  0  0  0  0
   28.7858  -20.1120   -3.8715 C   0  0  0  0  0  0  0  0  0  0  0  0
   28.0272  -21.1972   -3.5147 C   0  0  0  0  0  0  0  0  0  0  0  0
   27.0625  -21.7343   -4.3412 C   0  0  0  0  0  0  0  0  0  0  0  0
   26.8389  -21.1637   -5.5868 C   0  0  0  0  0  0  0  0  0  0  0  0
   27.6016  -20.0769   -5.9381 C   0  0  0  0  0  0  0  0  0  0  0  0
   26.4140  -20.2284  -10.5468 C   0  0  0  0  0  0  0  0  0  0  0  0
   26.8018  -19.2522  -11.2175 O   0  0  0  0  0  0  0  0  0  0  0  0
   25.3565  -21.0606  -10.9609 N   0  0  0  0  0  0  0  0  0  0  0  0
   24.6206  -20.9106  -12.1499 C   0  0  1  0  0  0  0  0  0  0  0  0
   24.9884  -21.8930  -13.2057 C   0  0  0  0  0  0  0  0  0  0  0  0
   26.2326  -21.6094  -13.9451 C   0  0  0  0  0  0  0  0  0  0  0  0
   27.3925  -22.3579  -13.8659 C   0  0  0  0  0  0  0  0  0  0  0  0
   28.3367  -21.8562  -14.7108 N   0  0  0  0  0  0  0  0  0  0  0  0
   27.8245  -20.8034  -15.3359 C   0  0  0  0  0  0  0  0  0  0  0  0
   28.3696  -19.9483  -16.2643 C   0  0  0  0  0  0  0  0  0  0  0  0
   27.6213  -18.8943  -16.7575 C   0  0  0  0  0  0  0  0  0  0  0  0
   26.3344  -18.6987  -16.3216 C   0  0  0  0  0  0  0  0  0  0  0  0
   25.8064  -19.5829  -15.3783 C   0  0  0  0  0  0  0  0  0  0  0  0
   26.5291  -20.6330  -14.8789 C   0  0  0  0  0  0  0  0  0  0  0  0
   23.1452  -20.9443  -11.8503 C   0  0  0  0  0  0  0  0  0  0  0  0
   22.6325  -21.3890  -10.8150 O   0  0  0  0  0  0  0  0  0  0  0  0
   18.8212  -16.9137  -13.1789 C   0  0  0  0  0  0  0  0  0  0  0  0
   19.1305  -18.3666  -12.8467 C   0  0  0  0  0  0  0  0  0  0  0  0
   20.5854  -18.6886  -13.0709 C   0  0  2  0  0  0  0  0  0  0  0  0
   20.9365  -18.3628  -14.4951 C   0  0  0  0  0  0  0  0  0  0  0  0
   20.8869  -20.0732  -12.6291 C   0  0  2  0  0  0  0  0  0  0  0  0
   22.2900  -20.4224  -12.8369 N   0  0  0  0  0  0  0  0  0  0  0  0
   20.1063  -21.0509  -13.3813 C   0  0  0  0  0  0  0  0  0  0  0  0
   20.5828  -21.5875  -14.4075 O   0  0  0  0  0  0  0  0  0  0  0  0
   18.8409  -21.4208  -13.0046 O   0  0  0  0  0  0  0  0  0  0  0  0
  2  3  1  0
  2  1  1  6
  4  3  1  0
  4  5  2  0
  6  5  1  0
  7 12  2  0
  7  6  1  0
  8  7  1  0
  9 10  1  0
  9  8  2  0
 10 11  2  0
 11 12  1  0
 12  4  1  0
 13  2  1  0
 14 13  2  0
 15 13  1  0
 16 17  1  6
 16 15  1  0
 18 17  1  0
 19 18  2  0
 20 19  1  0
 21 20  1  0
 21 26  2  0
 22 23  2  0
 22 21  1  0
 23 24  1  0
 24 25  2  0
 26 25  1  0
 26 18  1  0
 27 16  1  0
 28 27  2  0
 30 29  1  0
 31 30  1  0
 31 32  1  6
 33 31  1  0
 33 34  1  6
 34 27  1  0
 35 37  1  0
 35 33  1  0
 36 35  2  0
M  END
$$$$
