WWI.pdb
     RDKit          3D

 37 40  0  0  1  0  0  0  0  0999 V2000
   28.9544  -21.0012  -14.9470 N   0  0  0  0  0  0  0  0  0  0  0  0
   28.0482  -20.3069  -14.0107 C   0  0  1  0  0  0  0  0  0  0  0  0
   26.8446  -19.8062  -14.7176 C   0  0  0  0  0  0  0  0  0  0  0  0
   27.0796  -18.7294  -15.6923 C   0  0  0  0  0  0  0  0  0  0  0  0
   27.3022  -18.8405  -17.0397 C   0  0  0  0  0  0  0  0  0  0  0  0
   27.4199  -17.6052  -17.5349 N   0  0  0  0  0  0  0  0  0  0  0  0
   27.2792  -16.6917  -16.5376 C   0  0  0  0  0  0  0  0  0  0  0  0
   27.3107  -15.3030  -16.5329 C   0  0  0  0  0  0  0  0  0  0  0  0
   27.1220  -14.6631  -15.3349 C   0  0  0  0  0  0  0  0  0  0  0  0
   26.9056  -15.3432  -14.1546 C   0  0  0  0  0  0  0  0  0  0  0  0
   26.8747  -16.7310  -14.1645 C   0  0  0  0  0  0  0  0  0  0  0  0
   27.0641  -17.3659  -15.3676 C   0  0  0  0  0  0  0  0  0  0  0  0
   27.6304  -21.3427  -12.9936 C   0  0  0  0  0  0  0  0  0  0  0  0
   27.3775  -22.4863  -13.4198 O   0  0  0  0  0  0  0  0  0  0  0  0
   27.5379  -21.0041  -11.6302 N   0  0  0  0  0  0  0  0  0  0  0  0
   26.5802  -21.5053  -10.7304 C   0  0  1  0  0  0  0  0  0  0  0  0
   27.1050  -21.7037   -9.3518 C   0  0  0  0  0  0  0  0  0  0  0  0
   27.2195  -20.4882   -8.5243 C   0  0  0  0  0  0  0  0  0  0  0  0
   26.5591  -19.2975   -8.7651 C   0  0  0  0  0  0  0  0  0  0  0  0
   26.8450  -18.3928   -7.7869 N   0  0  0  0  0  0  0  0  0  0  0  0
   27.6723  -18.9607   -6.9181 C   0  0  0  0  0  0  0  0  0  0  0  0
   28.2625  -18.4708   -5.7771 C   0  0  0  0  0  0  0  0  0  0  0  0
   29.1188  -19.2716   -5.0426 C   0  0  0  0  0  0  0  0  0  0  0  0
   29.3821  -20.5557   -5.4504 C   0  0  0  0  0  0  0  0  0  0  0  0
   28.7684  -21.0270   -6.6131 C   0  0  0  0  0  0  0  0  0  0  0  0
   27.9168  -20.2518   -7.3533 C   0  0  0  0  0  0  0  0  0  0  0  0
   25.3572  -20.6268  -10.7375 C   0  0  0  0  0  0  0  0  0  0  0  0
   25.3539  -19.3990  -10.5796 O   0  0  0  0  0  0  0  0  0  0  0  0
   21.8271  -20.8984  -15.3066 C   0  0  0  0  0  0  0  0  0  0  0  0
   21.8175  -20.5245  -13.8312 C   0  0  0  0  0  0  0  0  0  0  0  0
   22.9595  -21.1690  -13.0888 C   0  0  2  0  0  0  0  0  0  0  0  0
   22.8808  -22.6570  -13.2827 C   0  0  0  0  0  0  0  0  0  0  0  0
   22.9973  -20.6995  -11.6812 C   0  0  2  0  0  0  0  0  0  0  0  0
   24.1226  -21.2676  -10.9431 N   0  0  0  0  0  0  0  0  0  0  0  0
   21.7923  -21.0954  -10.9584 C   0  0  0  0  0  0  0  0  0  0  0  0
   21.8329  -22.0258  -10.1213 O   0  0  0  0  0  0  0  0  0  0  0  0
   20.5850  -20.4770  -11.1576 O   0  0  0  0  0  0  0  0  0  0  0  0
  2  3  1  0
  2  1  1  6
  4  3  1  0
  4  5  2  0
  6  5  1  0
  7 12  2  0
  7  6  1  0
  8  7  1  0
  9 10  1  0
  9  8  2  0
 10 11  2  0
 11 12  1  0
 12  4  1  0
 13  2  1  0
 14 13  2  0
 15 13  1  0
 16 17  1  1
 16 15  1  0
 18 17  1  0
 19 18  2  0
 20 19  1  0
 21 20  1  0
 21 26  2  0
 22 23  2  0
 22 21  1  0
 23 24  1  0
 24 25  2  0
 26 25  1  0
 26 18  1  0
 27 16  1  0
 28 27  2  0
 30 29  1  0
 31 30  1  0
 31 32  1  1
 33 31  1  0
 33 34  1  1
 34 27  1  0
 35 37  1  0
 35 33  1  0
 36 35  2  0
M  END
$$$$
