WWI.pdb
     RDKit          3D

 37 40  0  0  1  0  0  0  0  0999 V2000
   28.7954  -21.2039  -14.3681 N   0  0  0  0  0  0  0  0  0  0  0  0
   27.8240  -20.2861  -13.7403 C   0  0  1  0  0  0  0  0  0  0  0  0
   26.8029  -19.8489  -14.7226 C   0  0  0  0  0  0  0  0  0  0  0  0
   27.2775  -18.9305  -15.7695 C   0  0  0  0  0  0  0  0  0  0  0  0
   27.7740  -19.2421  -17.0080 C   0  0  0  0  0  0  0  0  0  0  0  0
   28.0393  -18.0950  -17.6395 N   0  0  0  0  0  0  0  0  0  0  0  0
   27.7264  -17.0425  -16.8375 C   0  0  0  0  0  0  0  0  0  0  0  0
   27.8083  -15.6687  -17.0264 C   0  0  0  0  0  0  0  0  0  0  0  0
   27.3961  -14.8566  -16.0012 C   0  0  0  0  0  0  0  0  0  0  0  0
   26.9113  -15.3522  -14.8089 C   0  0  0  0  0  0  0  0  0  0  0  0
   26.8312  -16.7258  -14.6250 C   0  0  0  0  0  0  0  0  0  0  0  0
   27.2452  -17.5337  -15.6556 C   0  0  0  0  0  0  0  0  0  0  0  0
   27.1507  -21.0807  -12.6461 C   0  0  0  0  0  0  0  0  0  0  0  0
   26.8163  -22.2501  -12.9181 O   0  0  0  0  0  0  0  0  0  0  0  0
   26.9221  -20.5011  -11.3837 N   0  0  0  0  0  0  0  0  0  0  0  0
   25.8102  -20.7551  -10.5608 C   0  0  1  0  0  0  0  0  0  0  0  0
   25.9857  -20.2829   -9.1603 C   0  0  0  0  0  0  0  0  0  0  0  0
   27.2403  -20.6844   -8.4969 C   0  0  0  0  0  0  0  0  0  0  0  0
   28.2534  -21.4161   -9.0884 C   0  0  0  0  0  0  0  0  0  0  0  0
   29.2914  -21.5734   -8.2196 N   0  0  0  0  0  0  0  0  0  0  0  0
   28.9820  -20.9660   -7.0808 C   0  0  0  0  0  0  0  0  0  0  0  0
   29.6758  -20.8491   -5.8997 C   0  0  0  0  0  0  0  0  0  0  0  0
   29.1159  -20.1695   -4.8327 C   0  0  0  0  0  0  0  0  0  0  0  0
   27.8674  -19.6109   -4.9494 C   0  0  0  0  0  0  0  0  0  0  0  0
   27.1856  -19.7450   -6.1609 C   0  0  0  0  0  0  0  0  0  0  0  0
   27.7223  -20.4119   -7.2293 C   0  0  0  0  0  0  0  0  0  0  0  0
   24.5650  -20.1847  -11.1868 C   0  0  0  0  0  0  0  0  0  0  0  0
   24.3738  -18.9892  -11.4448 O   0  0  0  0  0  0  0  0  0  0  0  0
   20.8259  -21.7228  -15.5863 C   0  0  0  0  0  0  0  0  0  0  0  0
   20.9236  -21.0772  -14.2113 C   0  0  0  0  0  0  0  0  0  0  0  0
   22.1991  -21.4623  -13.5077 C   0  0  2  0  0  0  0  0  0  0  0  0
   22.2870  -22.9615  -13.4569 C   0  0  0  0  0  0  0  0  0  0  0  0
   22.3071  -20.7618  -12.2035 C   0  0  2  0  0  0  0  0  0  0  0  0
   23.5428  -21.0977  -11.5006 N   0  0  0  0  0  0  0  0  0  0  0  0
   21.2141  -21.1342  -11.3103 C   0  0  0  0  0  0  0  0  0  0  0  0
   21.4321  -21.8523  -10.3079 O   0  0  0  0  0  0  0  0  0  0  0  0
   19.9242  -20.7210  -11.5228 O   0  0  0  0  0  0  0  0  0  0  0  0
  2  3  1  0
  2  1  1  6
  4  3  1  0
  4  5  2  0
  6  5  1  0
  7 12  2  0
  7  6  1  0
  8  7  1  0
  9 10  1  0
  9  8  2  0
 10 11  2  0
 11 12  1  0
 12  4  1  0
 13  2  1  0
 14 13  2  0
 15 13  1  0
 16 17  1  1
 16 15  1  0
 18 17  1  0
 19 18  2  0
 20 19  1  0
 21 20  1  0
 21 26  2  0
 22 23  2  0
 22 21  1  0
 23 24  1  0
 24 25  2  0
 26 25  1  0
 26 18  1  0
 27 16  1  0
 28 27  2  0
 30 29  1  0
 31 30  1  0
 31 32  1  1
 33 31  1  0
 33 34  1  1
 34 27  1  0
 35 37  1  0
 35 33  1  0
 36 35  2  0
M  END
$$$$
