WWI.pdb
     RDKit          3D

 37 40  0  0  1  0  0  0  0  0999 V2000
   25.1199  -20.8887  -15.3732 N   0  0  0  0  0  0  0  0  0  0  0  0
   25.2110  -20.1867  -14.0774 C   0  0  1  0  0  0  0  0  0  0  0  0
   23.8910  -20.1546  -13.4027 C   0  0  0  0  0  0  0  0  0  0  0  0
   22.7875  -19.5796  -14.1880 C   0  0  0  0  0  0  0  0  0  0  0  0
   21.5545  -20.1218  -14.4392 C   0  0  0  0  0  0  0  0  0  0  0  0
   20.8595  -19.2347  -15.1568 N   0  0  0  0  0  0  0  0  0  0  0  0
   21.6146  -18.1259  -15.3787 C   0  0  0  0  0  0  0  0  0  0  0  0
   21.3545  -16.9392  -16.0521 C   0  0  0  0  0  0  0  0  0  0  0  0
   22.3472  -15.9938  -16.0885 C   0  0  0  0  0  0  0  0  0  0  0  0
   23.5747  -16.1809  -15.4880 C   0  0  0  0  0  0  0  0  0  0  0  0
   23.8297  -17.3684  -14.8160 C   0  0  0  0  0  0  0  0  0  0  0  0
   22.8314  -18.3111  -14.7828 C   0  0  0  0  0  0  0  0  0  0  0  0
   26.1770  -20.9895  -13.2383 C   0  0  0  0  0  0  0  0  0  0  0  0
   26.1372  -22.2295  -13.3577 O   0  0  0  0  0  0  0  0  0  0  0  0
   27.0720  -20.3403  -12.3668 N   0  0  0  0  0  0  0  0  0  0  0  0
   27.9624  -20.9827  -11.4879 C   0  0  1  0  0  0  0  0  0  0  0  0
   29.0378  -20.0917  -10.9734 C   0  0  0  0  0  0  0  0  0  0  0  0
   29.7878  -20.5935   -9.8067 C   0  0  0  0  0  0  0  0  0  0  0  0
   30.7431  -21.5923   -9.8454 C   0  0  0  0  0  0  0  0  0  0  0  0
   31.2787  -21.7817   -8.6067 N   0  0  0  0  0  0  0  0  0  0  0  0
   30.6987  -20.9358   -7.7643 C   0  0  0  0  0  0  0  0  0  0  0  0
   30.8716  -20.7414   -6.4143 C   0  0  0  0  0  0  0  0  0  0  0  0
   30.1159  -19.7921   -5.7496 C   0  0  0  0  0  0  0  0  0  0  0  0
   29.1919  -19.0428   -6.4346 C   0  0  0  0  0  0  0  0  0  0  0  0
   29.0377  -19.2614   -7.8053 C   0  0  0  0  0  0  0  0  0  0  0  0
   29.7764  -20.1943   -8.4824 C   0  0  0  0  0  0  0  0  0  0  0  0
   27.1984  -21.6350  -10.3662 C   0  0  0  0  0  0  0  0  0  0  0  0
   27.3924  -22.7793   -9.9353 O   0  0  0  0  0  0  0  0  0  0  0  0
   25.9182  -20.6745   -4.8315 C   0  0  0  0  0  0  0  0  0  0  0  0
   25.2526  -21.1293   -6.1227 C   0  0  0  0  0  0  0  0  0  0  0  0
   26.0424  -20.7031   -7.3331 C   0  0  2  0  0  0  0  0  0  0  0  0
   26.2130  -19.2107   -7.2955 C   0  0  0  0  0  0  0  0  0  0  0  0
   25.4381  -21.2558   -8.5710 C   0  0  2  0  0  0  0  0  0  0  0  0
   26.1837  -20.8687   -9.7661 N   0  0  0  0  0  0  0  0  0  0  0  0
   24.0768  -20.7640   -8.7609 C   0  0  0  0  0  0  0  0  0  0  0  0
   23.8332  -19.8930   -9.6270 O   0  0  0  0  0  0  0  0  0  0  0  0
   23.0228  -21.2258   -8.0156 O   0  0  0  0  0  0  0  0  0  0  0  0
  2  3  1  0
  2  1  1  6
  4  3  1  0
  4  5  2  0
  6  5  1  0
  7 12  2  0
  7  6  1  0
  8  7  1  0
  9 10  1  0
  9  8  2  0
 10 11  2  0
 11 12  1  0
 12  4  1  0
 13  2  1  0
 14 13  2  0
 15 13  1  0
 16 17  1  1
 16 15  1  0
 18 17  1  0
 19 18  2  0
 20 19  1  0
 21 20  1  0
 21 26  2  0
 22 23  2  0
 22 21  1  0
 23 24  1  0
 24 25  2  0
 26 25  1  0
 26 18  1  0
 27 16  1  0
 28 27  2  0
 30 29  1  0
 31 30  1  0
 31 32  1  6
 33 31  1  0
 33 34  1  6
 34 27  1  0
 35 37  1  0
 35 33  1  0
 36 35  2  0
M  END
$$$$
