WWI.pdb
     RDKit          3D

 37 40  0  0  1  0  0  0  0  0999 V2000
   24.2505  -19.4439   -8.1326 N   0  0  0  0  0  0  0  0  0  0  0  0
   25.5618  -19.8502   -8.6760 C   0  0  1  0  0  0  0  0  0  0  0  0
   26.0038  -21.1336   -8.0790 C   0  0  0  0  0  0  0  0  0  0  0  0
   26.3127  -21.0948   -6.6410 C   0  0  0  0  0  0  0  0  0  0  0  0
   25.6677  -21.7397   -5.6185 C   0  0  0  0  0  0  0  0  0  0  0  0
   26.3146  -21.4526   -4.4853 N   0  0  0  0  0  0  0  0  0  0  0  0
   27.3675  -20.6334   -4.7485 C   0  0  0  0  0  0  0  0  0  0  0  0
   28.3356  -20.0658   -3.9300 C   0  0  0  0  0  0  0  0  0  0  0  0
   29.2878  -19.2745   -4.5197 C   0  0  0  0  0  0  0  0  0  0  0  0
   29.3139  -19.0285   -5.8765 C   0  0  0  0  0  0  0  0  0  0  0  0
   28.3444  -19.5983   -6.6904 C   0  0  0  0  0  0  0  0  0  0  0  0
   27.3938  -20.3900   -6.0938 C   0  0  0  0  0  0  0  0  0  0  0  0
   25.3546  -20.0395  -10.1603 C   0  0  0  0  0  0  0  0  0  0  0  0
   24.1844  -20.2147  -10.5518 O   0  0  0  0  0  0  0  0  0  0  0  0
   26.4530  -20.0157  -11.0407 N   0  0  0  0  0  0  0  0  0  0  0  0
   26.4113  -19.5971  -12.3827 C   0  0  1  0  0  0  0  0  0  0  0  0
   27.7170  -19.0946  -12.8904 C   0  0  0  0  0  0  0  0  0  0  0  0
   27.7308  -18.6372  -14.2926 C   0  0  0  0  0  0  0  0  0  0  0  0
   27.2657  -17.4121  -14.7337 C   0  0  0  0  0  0  0  0  0  0  0  0
   27.4689  -17.2851  -16.0752 N   0  0  0  0  0  0  0  0  0  0  0  0
   28.0518  -18.3921  -16.5186 C   0  0  0  0  0  0  0  0  0  0  0  0
   28.4461  -18.7637  -17.7821 C   0  0  0  0  0  0  0  0  0  0  0  0
   29.0233  -20.0037  -17.9902 C   0  0  0  0  0  0  0  0  0  0  0  0
   29.2033  -20.8660  -16.9373 C   0  0  0  0  0  0  0  0  0  0  0  0
   28.7936  -20.4621  -15.6647 C   0  0  0  0  0  0  0  0  0  0  0  0
   28.2221  -19.2390  -15.4370 C   0  0  0  0  0  0  0  0  0  0  0  0
   25.8664  -20.7009  -13.2500 C   0  0  0  0  0  0  0  0  0  0  0  0
   26.2177  -21.8872  -13.2079 O   0  0  0  0  0  0  0  0  0  0  0  0
   21.2777  -22.5872  -13.0113 C   0  0  0  0  0  0  0  0  0  0  0  0
   22.7122  -22.4006  -13.4848 C   0  0  0  0  0  0  0  0  0  0  0  0
   22.7852  -21.4975  -14.6888 C   0  0  2  0  0  0  0  0  0  0  0  0
   21.8864  -22.0489  -15.7593 C   0  0  0  0  0  0  0  0  0  0  0  0
   24.1976  -21.2672  -15.0829 C   0  0  2  0  0  0  0  0  0  0  0  0
   24.8753  -20.3403  -14.1799 N   0  0  0  0  0  0  0  0  0  0  0  0
   24.2862  -20.6783  -16.4157 C   0  0  0  0  0  0  0  0  0  0  0  0
   24.7788  -21.3302  -17.3646 O   0  0  0  0  0  0  0  0  0  0  0  0
   23.8407  -19.4099  -16.6847 O   0  0  0  0  0  0  0  0  0  0  0  0
  2  3  1  0
  2  1  1  1
  4  3  1  0
  4  5  2  0
  6  5  1  0
  7 12  2  0
  7  6  1  0
  8  7  1  0
  9 10  1  0
  9  8  2  0
 10 11  2  0
 11 12  1  0
 12  4  1  0
 13  2  1  0
 14 13  2  0
 15 13  1  0
 16 17  1  6
 16 15  1  0
 18 17  1  0
 19 18  2  0
 20 19  1  0
 21 20  1  0
 21 26  2  0
 22 23  2  0
 22 21  1  0
 23 24  1  0
 24 25  2  0
 26 25  1  0
 26 18  1  0
 27 16  1  0
 28 27  2  0
 30 29  1  0
 31 30  1  0
 31 32  1  6
 33 31  1  0
 33 34  1  1
 34 27  1  0
 35 37  1  0
 35 33  1  0
 36 35  2  0
M  END
$$$$
