WWI.pdb
     RDKit          3D

 37 40  0  0  1  0  0  0  0  0999 V2000
   27.9640  -22.1306  -15.1961 N   0  0  0  0  0  0  0  0  0  0  0  0
   27.6711  -20.9363  -14.3788 C   0  0  1  0  0  0  0  0  0  0  0  0
   26.6842  -20.0630  -15.0585 C   0  0  0  0  0  0  0  0  0  0  0  0
   27.2293  -19.1692  -16.0924 C   0  0  0  0  0  0  0  0  0  0  0  0
   27.6375  -19.4906  -17.3602 C   0  0  0  0  0  0  0  0  0  0  0  0
   28.0185  -18.3606  -17.9627 N   0  0  0  0  0  0  0  0  0  0  0  0
   27.8675  -17.3098  -17.1131 C   0  0  0  0  0  0  0  0  0  0  0  0
   28.1109  -15.9499  -17.2583 C   0  0  0  0  0  0  0  0  0  0  0  0
   27.8401  -15.1341  -16.1898 C   0  0  0  0  0  0  0  0  0  0  0  0
   27.3423  -15.6130  -14.9960 C   0  0  0  0  0  0  0  0  0  0  0  0
   27.1005  -16.9728  -14.8559 C   0  0  0  0  0  0  0  0  0  0  0  0
   27.3735  -17.7844  -15.9297 C   0  0  0  0  0  0  0  0  0  0  0  0
   27.0725  -21.4519  -13.0913 C   0  0  0  0  0  0  0  0  0  0  0  0
   26.1801  -22.3166  -13.1870 O   0  0  0  0  0  0  0  0  0  0  0  0
   27.5209  -20.9594  -11.8509 N   0  0  0  0  0  0  0  0  0  0  0  0
   26.8488  -21.1095  -10.6247 C   0  0  1  0  0  0  0  0  0  0  0  0
   27.7236  -20.9075   -9.4376 C   0  0  0  0  0  0  0  0  0  0  0  0
   27.0464  -20.9226   -8.1275 C   0  0  0  0  0  0  0  0  0  0  0  0
   25.7624  -21.3830   -7.9016 C   0  0  0  0  0  0  0  0  0  0  0  0
   25.4587  -21.3034   -6.5755 N   0  0  0  0  0  0  0  0  0  0  0  0
   26.5075  -20.8041   -5.9334 C   0  0  0  0  0  0  0  0  0  0  0  0
   26.7012  -20.5151   -4.6033 C   0  0  0  0  0  0  0  0  0  0  0  0
   27.9011  -19.9711   -4.1810 C   0  0  0  0  0  0  0  0  0  0  0  0
   28.9004  -19.7177   -5.0875 C   0  0  0  0  0  0  0  0  0  0  0  0
   28.6762  -20.0214   -6.4321 C   0  0  0  0  0  0  0  0  0  0  0  0
   27.4971  -20.5617   -6.8705 C   0  0  0  0  0  0  0  0  0  0  0  0
   25.6425  -20.2090  -10.5846 C   0  0  0  0  0  0  0  0  0  0  0  0
   25.6697  -18.9766  -10.4717 O   0  0  0  0  0  0  0  0  0  0  0  0
   21.9470  -21.5724  -14.2193 C   0  0  0  0  0  0  0  0  0  0  0  0
   22.3664  -21.5393  -12.7565 C   0  0  0  0  0  0  0  0  0  0  0  0
   22.6947  -20.1395  -12.3059 C   0  0  2  0  0  0  0  0  0  0  0  0
   23.6645  -19.5348  -13.2814 C   0  0  0  0  0  0  0  0  0  0  0  0
   23.1185  -20.1357  -10.8833 C   0  0  2  0  0  0  0  0  0  0  0  0
   24.3868  -20.8333  -10.6865 N   0  0  0  0  0  0  0  0  0  0  0  0
   22.1419  -20.8160  -10.0381 C   0  0  0  0  0  0  0  0  0  0  0  0
   22.4261  -21.9079   -9.4947 O   0  0  0  0  0  0  0  0  0  0  0  0
   20.8938  -20.2996   -9.8032 O   0  0  0  0  0  0  0  0  0  0  0  0
  2  3  1  0
  2  1  1  6
  4  3  1  0
  4  5  2  0
  6  5  1  0
  7 12  2  0
  7  6  1  0
  8  7  1  0
  9 10  1  0
  9  8  2  0
 10 11  2  0
 11 12  1  0
 12  4  1  0
 13  2  1  0
 14 13  2  0
 15 13  1  0
 16 17  1  1
 16 15  1  0
 18 17  1  0
 19 18  2  0
 20 19  1  0
 21 20  1  0
 21 26  2  0
 22 23  2  0
 22 21  1  0
 23 24  1  0
 24 25  2  0
 26 25  1  0
 26 18  1  0
 27 16  1  0
 28 27  2  0
 30 29  1  0
 31 30  1  0
 31 32  1  6
 33 31  1  0
 33 34  1  6
 34 27  1  0
 35 37  1  0
 35 33  1  0
 36 35  2  0
M  END
$$$$
