WWI.pdb
     RDKit          3D

 37 40  0  0  1  0  0  0  0  0999 V2000
   27.0353  -21.7775  -15.6228 N   0  0  0  0  0  0  0  0  0  0  0  0
   27.0513  -20.6969  -14.6168 C   0  0  1  0  0  0  0  0  0  0  0  0
   26.0056  -19.6879  -14.9121 C   0  0  0  0  0  0  0  0  0  0  0  0
   26.1729  -18.9463  -16.1718 C   0  0  0  0  0  0  0  0  0  0  0  0
   25.3916  -18.9999  -17.2962 C   0  0  0  0  0  0  0  0  0  0  0  0
   25.8888  -18.1279  -18.1779 N   0  0  0  0  0  0  0  0  0  0  0  0
   26.9782  -17.5077  -17.6512 C   0  0  0  0  0  0  0  0  0  0  0  0
   27.8308  -16.5329  -18.1535 C   0  0  0  0  0  0  0  0  0  0  0  0
   28.8550  -16.1030  -17.3492 C   0  0  0  0  0  0  0  0  0  0  0  0
   29.0617  -16.5997  -16.0792 C   0  0  0  0  0  0  0  0  0  0  0  0
   28.2068  -17.5736  -15.5816 C   0  0  0  0  0  0  0  0  0  0  0  0
   27.1830  -17.9997  -16.3919 C   0  0  0  0  0  0  0  0  0  0  0  0
   26.7429  -21.3577  -13.2940 C   0  0  0  0  0  0  0  0  0  0  0  0
   26.0054  -22.3621  -13.3200 O   0  0  0  0  0  0  0  0  0  0  0  0
   27.2773  -20.8404  -12.0986 N   0  0  0  0  0  0  0  0  0  0  0  0
   26.7719  -21.0836  -10.8089 C   0  0  1  0  0  0  0  0  0  0  0  0
   27.7514  -20.8058   -9.7233 C   0  0  0  0  0  0  0  0  0  0  0  0
   27.2148  -20.8267   -8.3497 C   0  0  0  0  0  0  0  0  0  0  0  0
   26.0425  -21.4498   -7.9636 C   0  0  0  0  0  0  0  0  0  0  0  0
   25.8607  -21.3224   -6.6191 N   0  0  0  0  0  0  0  0  0  0  0  0
   26.8802  -20.6342   -6.1205 C   0  0  0  0  0  0  0  0  0  0  0  0
   27.1567  -20.2284   -4.8363 C   0  0  0  0  0  0  0  0  0  0  0  0
   28.2967  -19.4895   -4.5745 C   0  0  0  0  0  0  0  0  0  0  0  0
   29.1538  -19.1591   -5.5946 C   0  0  0  0  0  0  0  0  0  0  0  0
   28.8480  -19.5849   -6.8891 C   0  0  0  0  0  0  0  0  0  0  0  0
   27.7263  -20.3181   -7.1694 C   0  0  0  0  0  0  0  0  0  0  0  0
   25.4885  -20.3223  -10.6064 C   0  0  0  0  0  0  0  0  0  0  0  0
   25.3962  -19.0967  -10.4586 O   0  0  0  0  0  0  0  0  0  0  0  0
   21.7857  -22.0972  -14.0202 C   0  0  0  0  0  0  0  0  0  0  0  0
   22.3263  -22.0150  -12.5997 C   0  0  0  0  0  0  0  0  0  0  0  0
   22.4941  -20.5859  -12.1525 C   0  0  2  0  0  0  0  0  0  0  0  0
   23.3514  -19.8655  -13.1544 C   0  0  0  0  0  0  0  0  0  0  0  0
   22.9582  -20.5316  -10.7436 C   0  0  2  0  0  0  0  0  0  0  0  0
   24.3035  -21.0789  -10.5874 N   0  0  0  0  0  0  0  0  0  0  0  0
   22.0925  -21.3183   -9.8702 C   0  0  0  0  0  0  0  0  0  0  0  0
   20.9162  -20.9514   -9.6472 O   0  0  0  0  0  0  0  0  0  0  0  0
   22.5189  -22.4736   -9.2676 O   0  0  0  0  0  0  0  0  0  0  0  0
  2  3  1  0
  2  1  1  6
  4  3  1  0
  4  5  2  0
  6  5  1  0
  7 12  2  0
  7  6  1  0
  8  7  1  0
  9 10  1  0
  9  8  2  0
 10 11  2  0
 11 12  1  0
 12  4  1  0
 13  2  1  0
 14 13  2  0
 15 13  1  0
 16 17  1  1
 16 15  1  0
 18 17  1  0
 19 18  2  0
 20 19  1  0
 21 20  1  0
 21 26  2  0
 22 23  2  0
 22 21  1  0
 23 24  1  0
 24 25  2  0
 26 25  1  0
 26 18  1  0
 27 16  1  0
 28 27  2  0
 30 29  1  0
 31 30  1  0
 31 32  1  6
 33 31  1  0
 33 34  1  6
 34 27  1  0
 35 37  1  0
 35 33  1  0
 36 35  2  0
M  END
$$$$
