YPC.pdb
     RDKit          3D

 26 27  0  0  1  0  0  0  0  0999 V2000
   19.1143  -22.1284  -11.7859 O   0  0  0  0  0  0  0  0  0  0  0  0
   20.2772  -22.0122  -12.5217 C   0  0  0  0  0  0  0  0  0  0  0  0
   21.0835  -20.9194  -12.3458 C   0  0  0  0  0  0  0  0  0  0  0  0
   22.2454  -20.7553  -13.0485 C   0  0  0  0  0  0  0  0  0  0  0  0
   22.6726  -21.6966  -13.9856 C   0  0  0  0  0  0  0  0  0  0  0  0
   23.9155  -21.4856  -14.7473 C   0  0  0  0  0  0  0  0  0  0  0  0
   23.7968  -20.4314  -15.8442 C   0  0  2  0  0  0  0  0  0  0  0  0
   22.6775  -20.7506  -16.6651 N   0  0  0  0  0  0  0  0  0  0  0  0
   25.0890  -20.2815  -16.4930 C   0  0  0  0  0  0  0  0  0  0  0  0
   25.1049  -20.7339  -17.7125 O   0  0  0  0  0  0  0  0  0  0  0  0
   21.8471  -22.8015  -14.1562 C   0  0  0  0  0  0  0  0  0  0  0  0
   20.6799  -22.9544  -13.4422 C   0  0  0  0  0  0  0  0  0  0  0  0
   26.2874  -19.7365  -16.0153 N   0  0  0  0  0  0  0  0  0  0  0  0
   26.4741  -19.1864  -14.6981 C   0  0  0  0  0  0  0  0  0  0  0  0
   27.5962  -18.2250  -14.8369 C   0  0  0  0  0  0  0  0  0  0  0  0
   28.0193  -18.2399  -16.2860 C   0  0  0  0  0  0  0  0  0  0  0  0
   27.5110  -19.6334  -16.7259 C   0  0  1  0  0  0  0  0  0  0  0  0
   28.5615  -20.5657  -16.3162 C   0  0  0  0  0  0  0  0  0  0  0  0
   28.8141  -20.7513  -15.1119 O   0  0  0  0  0  0  0  0  0  0  0  0
   29.3115  -21.2751  -17.2760 N   0  0  0  0  0  0  0  0  0  0  0  0
   29.4678  -22.7164  -17.2792 C   0  0  1  0  0  0  0  0  0  0  0  0
   28.1363  -23.3773  -16.8920 C   0  0  0  0  0  0  0  0  0  0  0  0
   28.3500  -25.1364  -16.5901 S   0  0  0  0  0  0  0  0  0  0  0  0
   29.9137  -23.2229  -18.5929 C   0  0  0  0  0  0  0  0  0  0  0  0
   29.3867  -22.7522  -19.7856 O   0  0  0  0  0  0  0  0  0  0  0  0
   30.7911  -24.1006  -18.6300 O   0  0  0  0  0  0  0  0  0  0  0  0
  1  2  1  0
  2  3  2  0
  3  4  1  0
  5  4  2  0
  5  6  1  0
  7  6  1  0
  7  8  1  6
  9  7  1  0
  9 13  1  0
 10  9  2  0
 11  5  1  0
 12  2  1  0
 12 11  2  0
 13 14  1  0
 14 15  1  0
 16 15  1  0
 17 13  1  0
 17 16  1  0
 17 18  1  1
 19 18  2  0
 20 18  1  0
 21 24  1  0
 21 20  1  0
 22 23  1  0
 21 22  1  6
 24 25  1  0
 26 24  2  0
M  END
$$$$
