YPC.pdb
     RDKit          3D

 26 27  0  0  1  0  0  0  0  0999 V2000
   22.2854  -16.4314  -18.2791 O   0  0  0  0  0  0  0  0  0  0  0  0
   22.7722  -17.1570  -17.2096 C   0  0  0  0  0  0  0  0  0  0  0  0
   22.0421  -18.2038  -16.7130 C   0  0  0  0  0  0  0  0  0  0  0  0
   22.4777  -18.9544  -15.6560 C   0  0  0  0  0  0  0  0  0  0  0  0
   23.6942  -18.6925  -15.0249 C   0  0  0  0  0  0  0  0  0  0  0  0
   24.1305  -19.4999  -13.8729 C   0  0  0  0  0  0  0  0  0  0  0  0
   25.0859  -20.6324  -14.2381 C   0  0  2  0  0  0  0  0  0  0  0  0
   24.3956  -21.5626  -15.0667 N   0  0  0  0  0  0  0  0  0  0  0  0
   25.7009  -21.1382  -13.0220 C   0  0  0  0  0  0  0  0  0  0  0  0
   25.0493  -22.1329  -12.4945 O   0  0  0  0  0  0  0  0  0  0  0  0
   24.4270  -17.6283  -15.5367 C   0  0  0  0  0  0  0  0  0  0  0  0
   23.9768  -16.8806  -16.6015 C   0  0  0  0  0  0  0  0  0  0  0  0
   26.8595  -20.7270  -12.3512 N   0  0  0  0  0  0  0  0  0  0  0  0
   27.7114  -19.6439  -12.7679 C   0  0  0  0  0  0  0  0  0  0  0  0
   29.0421  -19.9548  -12.1888 C   0  0  0  0  0  0  0  0  0  0  0  0
   28.9113  -21.2641  -11.4486 C   0  0  0  0  0  0  0  0  0  0  0  0
   27.3912  -21.2884  -11.1616 C   0  0  1  0  0  0  0  0  0  0  0  0
   27.2220  -20.4839   -9.9514 C   0  0  0  0  0  0  0  0  0  0  0  0
   27.1108  -19.2463  -10.0197 O   0  0  0  0  0  0  0  0  0  0  0  0
   27.1809  -21.0920   -8.6803 N   0  0  0  0  0  0  0  0  0  0  0  0
   26.7113  -20.4295   -7.4795 C   0  0  1  0  0  0  0  0  0  0  0  0
   25.7570  -21.3626   -6.7191 C   0  0  0  0  0  0  0  0  0  0  0  0
   25.4517  -20.7594   -5.0535 S   0  0  0  0  0  0  0  0  0  0  0  0
   27.8248  -20.0264   -6.5969 C   0  0  0  0  0  0  0  0  0  0  0  0
   27.7836  -18.8692   -5.8347 O   0  0  0  0  0  0  0  0  0  0  0  0
   28.8324  -20.7492   -6.5358 O   0  0  0  0  0  0  0  0  0  0  0  0
  1  2  1  0
  2  3  2  0
  3  4  1  0
  5  4  2  0
  5  6  1  0
  7  6  1  0
  7  8  1  1
  9  7  1  0
  9 13  1  0
 10  9  2  0
 11  5  1  0
 12  2  1  0
 12 11  2  0
 13 14  1  0
 14 15  1  0
 16 15  1  0
 17 13  1  0
 17 16  1  0
 17 18  1  1
 19 18  2  0
 20 18  1  0
 21 24  1  0
 21 20  1  0
 22 23  1  0
 21 22  1  1
 24 25  1  0
 26 24  2  0
M  END
$$$$
