YPC.pdb
     RDKit          3D

 26 27  0  0  1  0  0  0  0  0999 V2000
   20.9081  -13.9419  -18.7978 O   0  0  0  0  0  0  0  0  0  0  0  0
   21.3259  -14.9823  -17.9913 C   0  0  0  0  0  0  0  0  0  0  0  0
   22.5671  -14.9356  -17.4145 C   0  0  0  0  0  0  0  0  0  0  0  0
   23.0296  -15.9386  -16.6079 C   0  0  0  0  0  0  0  0  0  0  0  0
   22.2582  -17.0673  -16.3287 C   0  0  0  0  0  0  0  0  0  0  0  0
   22.7880  -18.1455  -15.4765 C   0  0  0  0  0  0  0  0  0  0  0  0
   23.6159  -19.1807  -16.2325 C   0  0  2  0  0  0  0  0  0  0  0  0
   22.7312  -20.0501  -16.9324 N   0  0  0  0  0  0  0  0  0  0  0  0
   24.5675  -19.7828  -15.3133 C   0  0  0  0  0  0  0  0  0  0  0  0
   24.1653  -20.9239  -14.8352 O   0  0  0  0  0  0  0  0  0  0  0  0
   21.0006  -17.1043  -16.9189 C   0  0  0  0  0  0  0  0  0  0  0  0
   20.5472  -16.0877  -17.7291 C   0  0  0  0  0  0  0  0  0  0  0  0
   25.8195  -19.3315  -14.8773 N   0  0  0  0  0  0  0  0  0  0  0  0
   26.4634  -18.1262  -15.3301 C   0  0  0  0  0  0  0  0  0  0  0  0
   27.9136  -18.3603  -15.1183 C   0  0  0  0  0  0  0  0  0  0  0  0
   28.0622  -19.7506  -14.5490 C   0  0  0  0  0  0  0  0  0  0  0  0
   26.6617  -19.9643  -13.9270 C   0  0  1  0  0  0  0  0  0  0  0  0
   26.7291  -19.3222  -12.6141 C   0  0  0  0  0  0  0  0  0  0  0  0
   26.5014  -18.1053  -12.4879 O   0  0  0  0  0  0  0  0  0  0  0  0
   27.0534  -20.0669  -11.4621 N   0  0  0  0  0  0  0  0  0  0  0  0
   26.1684  -20.2284  -10.3253 C   0  0  1  0  0  0  0  0  0  0  0  0
   24.8155  -20.7771  -10.8028 C   0  0  0  0  0  0  0  0  0  0  0  0
   23.7220  -21.1028   -9.4138 S   0  0  0  0  0  0  0  0  0  0  0  0
   26.7390  -21.1271   -9.3016 C   0  0  0  0  0  0  0  0  0  0  0  0
   27.2309  -22.3853   -9.6123 O   0  0  0  0  0  0  0  0  0  0  0  0
   26.7794  -20.7419   -8.1219 O   0  0  0  0  0  0  0  0  0  0  0  0
  1  2  1  0
  2  3  2  0
  3  4  1  0
  5  4  2  0
  5  6  1  0
  7  6  1  0
  7  8  1  1
  9  7  1  0
  9 13  1  0
 10  9  2  0
 11  5  1  0
 12  2  1  0
 12 11  2  0
 13 14  1  0
 14 15  1  0
 16 15  1  0
 17 13  1  0
 17 16  1  0
 17 18  1  1
 19 18  2  0
 20 18  1  0
 21 24  1  0
 21 20  1  0
 22 23  1  0
 21 22  1  6
 24 25  1  0
 26 24  2  0
M  END
$$$$
