YPC.pdb
     RDKit          3D

 26 27  0  0  1  0  0  0  0  0999 V2000
   15.7814  -15.4516  -15.9497 O   0  0  0  0  0  0  0  0  0  0  0  0
   16.6210  -14.3618  -16.0718 C   0  0  0  0  0  0  0  0  0  0  0  0
   17.6098  -14.1617  -15.1459 C   0  0  0  0  0  0  0  0  0  0  0  0
   18.4678  -13.0991  -15.2199 C   0  0  0  0  0  0  0  0  0  0  0  0
   18.3808  -12.1589  -16.2471 C   0  0  0  0  0  0  0  0  0  0  0  0
   19.3010  -11.0098  -16.2918 C   0  0  0  0  0  0  0  0  0  0  0  0
   20.2425  -11.0181  -17.4927 C   0  0  2  0  0  0  0  0  0  0  0  0
   21.0062  -12.2199  -17.4657 N   0  0  0  0  0  0  0  0  0  0  0  0
   20.9670   -9.7584  -17.5299 C   0  0  0  0  0  0  0  0  0  0  0  0
   22.2202   -9.8790  -17.2025 O   0  0  0  0  0  0  0  0  0  0  0  0
   17.3740  -12.3715  -17.1812 C   0  0  0  0  0  0  0  0  0  0  0  0
   16.5168  -13.4455  -17.0949 C   0  0  0  0  0  0  0  0  0  0  0  0
   20.5302   -8.4687  -17.8577 N   0  0  0  0  0  0  0  0  0  0  0  0
   19.2227   -8.1471  -18.3669 C   0  0  0  0  0  0  0  0  0  0  0  0
   19.4021   -6.8796  -19.1180 C   0  0  0  0  0  0  0  0  0  0  0  0
   20.8637   -6.5121  -19.0294 C   0  0  0  0  0  0  0  0  0  0  0  0
   21.2795   -7.2692  -17.7458 C   0  0  1  0  0  0  0  0  0  0  0  0
   20.8977   -6.3847  -16.6446 C   0  0  0  0  0  0  0  0  0  0  0  0
   19.7154   -6.3181  -16.2619 O   0  0  0  0  0  0  0  0  0  0  0  0
   21.8599   -5.5878  -15.9920 N   0  0  0  0  0  0  0  0  0  0  0  0
   21.6083   -4.8518  -14.7687 C   0  0  1  0  0  0  0  0  0  0  0  0
   22.1774   -5.6325  -13.5744 C   0  0  0  0  0  0  0  0  0  0  0  0
   22.0673   -4.6704  -12.0600 S   0  0  0  0  0  0  0  0  0  0  0  0
   22.1955   -3.4971  -14.8058 C   0  0  0  0  0  0  0  0  0  0  0  0
   21.5753   -2.4051  -14.2188 O   0  0  0  0  0  0  0  0  0  0  0  0
   23.2822   -3.3310  -15.3828 O   0  0  0  0  0  0  0  0  0  0  0  0
  1  2  1  0
  2  3  2  0
  3  4  1  0
  5  4  2  0
  5  6  1  0
  7  6  1  0
  7  8  1  1
  9  7  1  0
  9 13  1  0
 10  9  2  0
 11  5  1  0
 12  2  1  0
 12 11  2  0
 13 14  1  0
 14 15  1  0
 16 15  1  0
 17 13  1  0
 17 16  1  0
 17 18  1  1
 19 18  2  0
 20 18  1  0
 21 24  1  0
 21 20  1  0
 22 23  1  0
 21 22  1  1
 24 25  1  0
 26 24  2  0
M  END
$$$$
