YPC.pdb
     RDKit          3D

 26 27  0  0  1  0  0  0  0  0999 V2000
   18.1283  -23.4248  -11.3675 O   0  0  0  0  0  0  0  0  0  0  0  0
   19.2702  -22.7000  -11.6466 C   0  0  0  0  0  0  0  0  0  0  0  0
   20.1321  -23.1407  -12.6153 C   0  0  0  0  0  0  0  0  0  0  0  0
   21.2764  -22.4613  -12.9308 C   0  0  0  0  0  0  0  0  0  0  0  0
   21.6279  -21.2783  -12.2798 C   0  0  0  0  0  0  0  0  0  0  0  0
   22.8778  -20.5776  -12.6207 C   0  0  0  0  0  0  0  0  0  0  0  0
   24.1341  -21.2595  -12.0865 C   0  0  2  0  0  0  0  0  0  0  0  0
   24.1459  -21.1471  -10.6667 N   0  0  0  0  0  0  0  0  0  0  0  0
   25.2873  -20.7548  -12.8134 C   0  0  0  0  0  0  0  0  0  0  0  0
   25.9248  -19.8177  -12.1747 O   0  0  0  0  0  0  0  0  0  0  0  0
   20.7464  -20.8401  -11.2989 C   0  0  0  0  0  0  0  0  0  0  0  0
   19.5976  -21.5337  -10.9910 C   0  0  0  0  0  0  0  0  0  0  0  0
   25.8022  -21.1170  -14.0644 N   0  0  0  0  0  0  0  0  0  0  0  0
   25.2107  -22.0870  -14.9485 C   0  0  0  0  0  0  0  0  0  0  0  0
   26.3328  -22.5827  -15.7838 C   0  0  0  0  0  0  0  0  0  0  0  0
   27.5811  -21.8702  -15.3219 C   0  0  0  0  0  0  0  0  0  0  0  0
   26.9734  -20.6017  -14.6772 C   0  0  1  0  0  0  0  0  0  0  0  0
   26.7516  -19.6803  -15.7919 C   0  0  0  0  0  0  0  0  0  0  0  0
   25.7934  -19.8405  -16.5696 O   0  0  0  0  0  0  0  0  0  0  0  0
   27.6179  -18.5901  -16.0105 N   0  0  0  0  0  0  0  0  0  0  0  0
   27.2964  -17.4555  -16.8537 C   0  0  1  0  0  0  0  0  0  0  0  0
   27.7678  -16.1614  -16.1734 C   0  0  0  0  0  0  0  0  0  0  0  0
   26.8362  -15.8438  -14.6694 S   0  0  0  0  0  0  0  0  0  0  0  0
   27.9094  -17.5682  -18.1926 C   0  0  0  0  0  0  0  0  0  0  0  0
   27.5623  -16.7276  -19.2389 O   0  0  0  0  0  0  0  0  0  0  0  0
   28.7651  -18.4464  -18.3876 O   0  0  0  0  0  0  0  0  0  0  0  0
  1  2  1  0
  2  3  2  0
  3  4  1  0
  5  4  2  0
  5  6  1  0
  7  6  1  0
  7  8  1  1
  9  7  1  0
  9 13  1  0
 10  9  2  0
 11  5  1  0
 12  2  1  0
 12 11  2  0
 13 14  1  0
 14 15  1  0
 16 15  1  0
 17 13  1  0
 17 16  1  0
 17 18  1  6
 19 18  2  0
 20 18  1  0
 21 24  1  0
 21 20  1  0
 22 23  1  0
 21 22  1  1
 24 25  1  0
 26 24  2  0
M  END
$$$$
