YPC.pdb
     RDKit          3D

 26 27  0  0  1  0  0  0  0  0999 V2000
   22.2028  -17.5182  -16.7972 O   0  0  0  0  0  0  0  0  0  0  0  0
   22.6829  -18.1334  -15.6577 C   0  0  0  0  0  0  0  0  0  0  0  0
   23.9709  -17.9015  -15.2544 C   0  0  0  0  0  0  0  0  0  0  0  0
   24.4958  -18.4849  -14.1344 C   0  0  0  0  0  0  0  0  0  0  0  0
   23.7438  -19.3510  -13.3399 C   0  0  0  0  0  0  0  0  0  0  0  0
   24.3391  -19.9860  -12.1517 C   0  0  0  0  0  0  0  0  0  0  0  0
   25.1503  -21.2406  -12.4624 C   0  0  2  0  0  0  0  0  0  0  0  0
   24.2720  -22.2360  -12.9783 N   0  0  0  0  0  0  0  0  0  0  0  0
   25.9494  -21.5833  -11.2975 C   0  0  0  0  0  0  0  0  0  0  0  0
   25.3757  -22.4563  -10.5222 O   0  0  0  0  0  0  0  0  0  0  0  0
   22.4383  -19.5792  -13.7581 C   0  0  0  0  0  0  0  0  0  0  0  0
   21.9222  -18.9854  -14.8880 C   0  0  0  0  0  0  0  0  0  0  0  0
   27.2113  -21.1277  -10.8956 N   0  0  0  0  0  0  0  0  0  0  0  0
   28.0039  -20.1619  -11.6108 C   0  0  0  0  0  0  0  0  0  0  0  0
   29.4057  -20.4410  -11.2110 C   0  0  0  0  0  0  0  0  0  0  0  0
   29.3731  -21.6135  -10.2604 C   0  0  0  0  0  0  0  0  0  0  0  0
   27.9214  -21.5234   -9.7328 C   0  0  1  0  0  0  0  0  0  0  0  0
   27.9715  -20.5354   -8.6549 C   0  0  0  0  0  0  0  0  0  0  0  0
   27.8692  -19.3196   -8.9000 O   0  0  0  0  0  0  0  0  0  0  0  0
   28.1367  -20.9378   -7.3141 N   0  0  0  0  0  0  0  0  0  0  0  0
   28.0267  -20.0422   -6.1795 C   0  0  1  0  0  0  0  0  0  0  0  0
   27.1992  -20.7148   -5.0738 C   0  0  0  0  0  0  0  0  0  0  0  0
   27.3410  -19.8182   -3.5224 S   0  0  0  0  0  0  0  0  0  0  0  0
   29.3493  -19.6549   -5.6484 C   0  0  0  0  0  0  0  0  0  0  0  0
   29.5856  -18.4100   -5.0862 O   0  0  0  0  0  0  0  0  0  0  0  0
   30.2814  -20.4729   -5.7076 O   0  0  0  0  0  0  0  0  0  0  0  0
  1  2  1  0
  2  3  2  0
  3  4  1  0
  5  4  2  0
  5  6  1  0
  7  6  1  0
  7  8  1  1
  9  7  1  0
  9 13  1  0
 10  9  2  0
 11  5  1  0
 12  2  1  0
 12 11  2  0
 13 14  1  0
 14 15  1  0
 16 15  1  0
 17 13  1  0
 17 16  1  0
 17 18  1  1
 19 18  2  0
 20 18  1  0
 21 24  1  0
 21 20  1  0
 22 23  1  0
 21 22  1  1
 24 25  1  0
 26 24  2  0
M  END
$$$$
