YPC.pdb
     RDKit          3D

 26 27  0  0  1  0  0  0  0  0999 V2000
   13.6574  -18.4501  -13.2824 O   0  0  0  0  0  0  0  0  0  0  0  0
   14.4249  -17.3549  -13.6270 C   0  0  0  0  0  0  0  0  0  0  0  0
   13.8328  -16.1270  -13.7576 C   0  0  0  0  0  0  0  0  0  0  0  0
   14.5464  -15.0107  -14.0969 C   0  0  0  0  0  0  0  0  0  0  0  0
   15.9212  -15.0638  -14.3288 C   0  0  0  0  0  0  0  0  0  0  0  0
   16.6636  -13.8522  -14.7166 C   0  0  0  0  0  0  0  0  0  0  0  0
   16.7654  -13.6459  -16.2251 C   0  0  2  0  0  0  0  0  0  0  0  0
   17.3760  -14.7956  -16.8029 N   0  0  0  0  0  0  0  0  0  0  0  0
   17.3802  -12.3540  -16.4818 C   0  0  0  0  0  0  0  0  0  0  0  0
   18.6261  -12.4433  -16.8453 O   0  0  0  0  0  0  0  0  0  0  0  0
   16.5119  -16.3144  -14.1936 C   0  0  0  0  0  0  0  0  0  0  0  0
   15.7818  -17.4305  -13.8515 C   0  0  0  0  0  0  0  0  0  0  0  0
   16.8466  -11.0617  -16.3998 N   0  0  0  0  0  0  0  0  0  0  0  0
   15.4986  -10.7517  -16.0005 C   0  0  0  0  0  0  0  0  0  0  0  0
   15.2027   -9.4393  -16.6273 C   0  0  0  0  0  0  0  0  0  0  0  0
   16.4275   -9.0333  -17.4110 C   0  0  0  0  0  0  0  0  0  0  0  0
   17.5241   -9.8483  -16.6850 C   0  0  1  0  0  0  0  0  0  0  0  0
   17.8893   -9.0388  -15.5222 C   0  0  0  0  0  0  0  0  0  0  0  0
   17.4084   -9.2821  -14.4005 O   0  0  0  0  0  0  0  0  0  0  0  0
   18.7940   -7.9650  -15.6457 N   0  0  0  0  0  0  0  0  0  0  0  0
   19.7307   -7.5711  -14.6117 C   0  0  1  0  0  0  0  0  0  0  0  0
   20.7398   -8.7048  -14.3753 C   0  0  0  0  0  0  0  0  0  0  0  0
   21.9421   -8.2502  -13.1187 S   0  0  0  0  0  0  0  0  0  0  0  0
   20.4483   -6.3275  -14.9580 C   0  0  0  0  0  0  0  0  0  0  0  0
   20.7670   -5.3681  -14.0096 O   0  0  0  0  0  0  0  0  0  0  0  0
   20.7774   -6.1352  -16.1397 O   0  0  0  0  0  0  0  0  0  0  0  0
  1  2  1  0
  2  3  2  0
  3  4  1  0
  5  4  2  0
  5  6  1  0
  7  6  1  0
  7  8  1  1
  9  7  1  0
  9 13  1  0
 10  9  2  0
 11  5  1  0
 12  2  1  0
 12 11  2  0
 13 14  1  0
 14 15  1  0
 16 15  1  0
 17 13  1  0
 17 16  1  0
 17 18  1  1
 19 18  2  0
 20 18  1  0
 21 24  1  0
 21 20  1  0
 22 23  1  0
 21 22  1  6
 24 25  1  0
 26 24  2  0
M  END
$$$$
