YPC.pdb
     RDKit          3D

 26 27  0  0  1  0  0  0  0  0999 V2000
   21.0063  -18.9315  -15.0273 O   0  0  0  0  0  0  0  0  0  0  0  0
   21.0450  -17.5813  -15.3149 C   0  0  0  0  0  0  0  0  0  0  0  0
   22.0078  -17.0961  -16.1591 C   0  0  0  0  0  0  0  0  0  0  0  0
   22.0909  -15.7684  -16.4770 C   0  0  0  0  0  0  0  0  0  0  0  0
   21.1952  -14.8341  -15.9558 C   0  0  0  0  0  0  0  0  0  0  0  0
   21.3200  -13.4060  -16.2941 C   0  0  0  0  0  0  0  0  0  0  0  0
   20.3978  -12.9553  -17.4233 C   0  0  2  0  0  0  0  0  0  0  0  0
   20.7474  -13.6636  -18.6084 N   0  0  0  0  0  0  0  0  0  0  0  0
   20.3997  -11.5028  -17.4794 C   0  0  0  0  0  0  0  0  0  0  0  0
   21.2486  -11.0250  -18.3416 O   0  0  0  0  0  0  0  0  0  0  0  0
   20.2223  -15.3372  -15.1004 C   0  0  0  0  0  0  0  0  0  0  0  0
   20.1499  -16.6762  -14.7886 C   0  0  0  0  0  0  0  0  0  0  0  0
   19.6439  -10.5652  -16.7643 N   0  0  0  0  0  0  0  0  0  0  0  0
   18.6324  -10.8915  -15.7934 C   0  0  0  0  0  0  0  0  0  0  0  0
   17.7254   -9.7169  -15.7714 C   0  0  0  0  0  0  0  0  0  0  0  0
   18.2534   -8.7271  -16.7817 C   0  0  0  0  0  0  0  0  0  0  0  0
   19.7386   -9.1529  -16.8614 C   0  0  1  0  0  0  0  0  0  0  0  0
   20.3853   -8.4828  -15.7330 C   0  0  0  0  0  0  0  0  0  0  0  0
   20.3609   -8.9854  -14.5948 O   0  0  0  0  0  0  0  0  0  0  0  0
   21.0507   -7.2527  -15.9089 N   0  0  0  0  0  0  0  0  0  0  0  0
   21.7672   -6.5607  -14.8558 C   0  0  1  0  0  0  0  0  0  0  0  0
   22.6845   -5.4951  -15.4744 C   0  0  0  0  0  0  0  0  0  0  0  0
   23.5182   -4.5395  -14.2005 S   0  0  0  0  0  0  0  0  0  0  0  0
   20.8514   -5.9288  -13.8845 C   0  0  0  0  0  0  0  0  0  0  0  0
   21.1361   -5.8694  -12.5291 O   0  0  0  0  0  0  0  0  0  0  0  0
   19.7900   -5.4339  -14.2966 O   0  0  0  0  0  0  0  0  0  0  0  0
  1  2  1  0
  2  3  2  0
  3  4  1  0
  5  4  2  0
  5  6  1  0
  7  6  1  0
  7  8  1  6
  9  7  1  0
  9 13  1  0
 10  9  2  0
 11  5  1  0
 12  2  1  0
 12 11  2  0
 13 14  1  0
 14 15  1  0
 16 15  1  0
 17 13  1  0
 17 16  1  0
 17 18  1  1
 19 18  2  0
 20 18  1  0
 21 24  1  0
 21 20  1  0
 22 23  1  0
 21 22  1  6
 24 25  1  0
 26 24  2  0
M  END
$$$$
