YPC.pdb
     RDKit          3D

 26 27  0  0  1  0  0  0  0  0999 V2000
   18.0040  -22.3609  -19.2532 O   0  0  0  0  0  0  0  0  0  0  0  0
   17.9532  -21.0541  -18.8093 C   0  0  0  0  0  0  0  0  0  0  0  0
   17.4238  -20.7776  -17.5770 C   0  0  0  0  0  0  0  0  0  0  0  0
   17.3495  -19.5018  -17.0898 C   0  0  0  0  0  0  0  0  0  0  0  0
   17.8110  -18.4098  -17.8255 C   0  0  0  0  0  0  0  0  0  0  0  0
   17.6979  -17.0426  -17.2893 C   0  0  0  0  0  0  0  0  0  0  0  0
   18.9471  -16.5604  -16.5574 C   0  0  2  0  0  0  0  0  0  0  0  0
   19.2391  -17.4724  -15.5031 N   0  0  0  0  0  0  0  0  0  0  0  0
   18.7762  -15.1592  -16.2102 C   0  0  0  0  0  0  0  0  0  0  0  0
   18.4167  -14.9787  -14.9731 O   0  0  0  0  0  0  0  0  0  0  0  0
   18.3461  -18.7016  -19.0744 C   0  0  0  0  0  0  0  0  0  0  0  0
   18.4150  -19.9907  -19.5530 C   0  0  0  0  0  0  0  0  0  0  0  0
   18.9371  -14.0049  -16.9867 N   0  0  0  0  0  0  0  0  0  0  0  0
   19.3741  -13.9898  -18.3583 C   0  0  0  0  0  0  0  0  0  0  0  0
   19.9720  -12.6462  -18.5581 C   0  0  0  0  0  0  0  0  0  0  0  0
   19.8737  -11.9142  -17.2414 C   0  0  0  0  0  0  0  0  0  0  0  0
   18.6998  -12.6687  -16.5731 C   0  0  1  0  0  0  0  0  0  0  0  0
   17.4923  -12.0438  -17.1134 C   0  0  0  0  0  0  0  0  0  0  0  0
   16.9210  -12.5196  -18.1114 O   0  0  0  0  0  0  0  0  0  0  0  0
   16.9483  -10.8886  -16.5162 N   0  0  0  0  0  0  0  0  0  0  0  0
   15.5915  -10.7980  -16.0138 C   0  0  1  0  0  0  0  0  0  0  0  0
   15.3661  -11.8810  -14.9479 C   0  0  0  0  0  0  0  0  0  0  0  0
   13.7228  -12.5959  -15.0883 S   0  0  0  0  0  0  0  0  0  0  0  0
   15.2988   -9.4673  -15.4439 C   0  0  0  0  0  0  0  0  0  0  0  0
   14.0995   -8.8111  -15.6735 O   0  0  0  0  0  0  0  0  0  0  0  0
   16.1569   -8.9176  -14.7346 O   0  0  0  0  0  0  0  0  0  0  0  0
  1  2  1  0
  2  3  2  0
  3  4  1  0
  5  4  2  0
  5  6  1  0
  7  6  1  0
  7  8  1  1
  9  7  1  0
  9 13  1  0
 10  9  2  0
 11  5  1  0
 12  2  1  0
 12 11  2  0
 13 14  1  0
 14 15  1  0
 16 15  1  0
 17 13  1  0
 17 16  1  0
 17 18  1  6
 19 18  2  0
 20 18  1  0
 21 24  1  0
 21 20  1  0
 22 23  1  0
 21 22  1  1
 24 25  1  0
 26 24  2  0
M  END
$$$$
