YPC.pdb
     RDKit          3D

 26 27  0  0  1  0  0  0  0  0999 V2000
   17.1802  -16.2311  -17.3695 O   0  0  0  0  0  0  0  0  0  0  0  0
   17.9339  -15.0826  -17.2275 C   0  0  0  0  0  0  0  0  0  0  0  0
   17.5283  -13.9265  -17.8393 C   0  0  0  0  0  0  0  0  0  0  0  0
   18.2373  -12.7620  -17.7311 C   0  0  0  0  0  0  0  0  0  0  0  0
   19.4164  -12.6898  -16.9886 C   0  0  0  0  0  0  0  0  0  0  0  0
   20.1752  -11.4300  -16.9070 C   0  0  0  0  0  0  0  0  0  0  0  0
   21.0734  -11.1702  -18.1129 C   0  0  2  0  0  0  0  0  0  0  0  0
   22.0088  -12.2385  -18.2240 N   0  0  0  0  0  0  0  0  0  0  0  0
   21.6000   -9.8183  -18.0233 C   0  0  0  0  0  0  0  0  0  0  0  0
   22.8302   -9.7751  -17.6026 O   0  0  0  0  0  0  0  0  0  0  0  0
   19.8188  -13.8684  -16.3720 C   0  0  0  0  0  0  0  0  0  0  0  0
   19.0956  -15.0341  -16.4890 C   0  0  0  0  0  0  0  0  0  0  0  0
   20.9982   -8.5878  -18.3153 N   0  0  0  0  0  0  0  0  0  0  0  0
   19.6541   -8.4244  -18.8044 C   0  0  0  0  0  0  0  0  0  0  0  0
   19.6610   -7.1274  -19.5257 C   0  0  0  0  0  0  0  0  0  0  0  0
   21.0646   -6.5779  -19.4416 C   0  0  0  0  0  0  0  0  0  0  0  0
   21.5895   -7.3052  -18.1808 C   0  0  1  0  0  0  0  0  0  0  0  0
   21.1113   -6.5026  -17.0548 C   0  0  0  0  0  0  0  0  0  0  0  0
   19.9855   -6.7018  -16.5633 O   0  0  0  0  0  0  0  0  0  0  0  0
   21.9147   -5.4855  -16.5008 N   0  0  0  0  0  0  0  0  0  0  0  0
   21.7743   -4.9889  -15.1461 C   0  0  1  0  0  0  0  0  0  0  0  0
   22.2154   -6.0752  -14.1537 C   0  0  0  0  0  0  0  0  0  0  0  0
   22.2431   -5.4428  -12.4713 S   0  0  0  0  0  0  0  0  0  0  0  0
   22.5601   -3.7586  -14.9222 C   0  0  0  0  0  0  0  0  0  0  0  0
   23.8898   -3.6506  -15.2990 O   0  0  0  0  0  0  0  0  0  0  0  0
   22.0103   -2.7876  -14.3776 O   0  0  0  0  0  0  0  0  0  0  0  0
  1  2  1  0
  2  3  2  0
  3  4  1  0
  5  4  2  0
  5  6  1  0
  7  6  1  0
  7  8  1  1
  9  7  1  0
  9 13  1  0
 10  9  2  0
 11  5  1  0
 12  2  1  0
 12 11  2  0
 13 14  1  0
 14 15  1  0
 16 15  1  0
 17 13  1  0
 17 16  1  0
 17 18  1  1
 19 18  2  0
 20 18  1  0
 21 24  1  0
 21 20  1  0
 22 23  1  0
 21 22  1  1
 24 25  1  0
 26 24  2  0
M  END
$$$$
