YPC.pdb
     RDKit          3D

 26 27  0  0  1  0  0  0  0  0999 V2000
   19.9730  -14.7138  -15.1546 O   0  0  0  0  0  0  0  0  0  0  0  0
   19.9273  -15.9585  -14.5579 C   0  0  0  0  0  0  0  0  0  0  0  0
   20.1621  -16.0741  -13.2137 C   0  0  0  0  0  0  0  0  0  0  0  0
   20.1292  -17.2823  -12.5735 C   0  0  0  0  0  0  0  0  0  0  0  0
   19.8534  -18.4660  -13.2588 C   0  0  0  0  0  0  0  0  0  0  0  0
   19.8475  -19.7579  -12.5515 C   0  0  0  0  0  0  0  0  0  0  0  0
   21.2273  -20.3959  -12.4180 C   0  0  2  0  0  0  0  0  0  0  0  0
   21.6827  -20.7740  -13.7134 N   0  0  0  0  0  0  0  0  0  0  0  0
   21.1707  -21.4267  -11.3947 C   0  0  0  0  0  0  0  0  0  0  0  0
   21.1092  -22.6306  -11.8838 O   0  0  0  0  0  0  0  0  0  0  0  0
   19.6167  -18.3372  -14.6222 C   0  0  0  0  0  0  0  0  0  0  0  0
   19.6530  -17.1147  -15.2544 C   0  0  0  0  0  0  0  0  0  0  0  0
   21.1735  -21.3213   -9.9981 N   0  0  0  0  0  0  0  0  0  0  0  0
   21.1902  -20.0818   -9.2662 C   0  0  0  0  0  0  0  0  0  0  0  0
   21.7911  -20.4180   -7.9514 C   0  0  0  0  0  0  0  0  0  0  0  0
   22.1308  -21.8887   -7.9796 C   0  0  0  0  0  0  0  0  0  0  0  0
   21.1564  -22.3942   -9.0700 C   0  0  1  0  0  0  0  0  0  0  0  0
   19.8877  -22.6085   -8.3735 C   0  0  0  0  0  0  0  0  0  0  0  0
   19.1287  -21.6542   -8.1246 O   0  0  0  0  0  0  0  0  0  0  0  0
   19.4960  -23.9005   -7.9683 N   0  0  0  0  0  0  0  0  0  0  0  0
   18.1746  -24.2281   -7.4702 C   0  0  1  0  0  0  0  0  0  0  0  0
   17.6885  -25.5302   -8.1241 C   0  0  0  0  0  0  0  0  0  0  0  0
   17.8697  -25.4643   -9.9113 S   0  0  0  0  0  0  0  0  0  0  0  0
   18.1555  -24.3698   -6.0001 C   0  0  0  0  0  0  0  0  0  0  0  0
   16.9851  -24.2790   -5.2628 O   0  0  0  0  0  0  0  0  0  0  0  0
   19.2249  -24.5773   -5.4045 O   0  0  0  0  0  0  0  0  0  0  0  0
  1  2  1  0
  2  3  2  0
  3  4  1  0
  5  4  2  0
  5  6  1  0
  7  6  1  0
  7  8  1  6
  9  7  1  0
  9 13  1  0
 10  9  2  0
 11  5  1  0
 12  2  1  0
 12 11  2  0
 13 14  1  0
 14 15  1  0
 16 15  1  0
 17 13  1  0
 17 16  1  0
 17 18  1  1
 19 18  2  0
 20 18  1  0
 21 24  1  0
 21 20  1  0
 22 23  1  0
 21 22  1  6
 24 25  1  0
 26 24  2  0
M  END
$$$$
