YPC.pdb
     RDKit          3D

 26 27  0  0  1  0  0  0  0  0999 V2000
   20.6644  -16.3503  -17.4166 O   0  0  0  0  0  0  0  0  0  0  0  0
   20.6000  -17.2977  -16.4139 C   0  0  0  0  0  0  0  0  0  0  0  0
   19.9944  -18.5015  -16.6575 C   0  0  0  0  0  0  0  0  0  0  0  0
   19.9035  -19.4739  -15.7001 C   0  0  0  0  0  0  0  0  0  0  0  0
   20.4250  -19.2903  -14.4191 C   0  0  0  0  0  0  0  0  0  0  0  0
   20.2932  -20.3434  -13.3977 C   0  0  0  0  0  0  0  0  0  0  0  0
   21.6116  -21.0202  -13.0339 C   0  0  2  0  0  0  0  0  0  0  0  0
   22.1561  -21.6188  -14.2059 N   0  0  0  0  0  0  0  0  0  0  0  0
   21.3975  -21.8737  -11.8769 C   0  0  0  0  0  0  0  0  0  0  0  0
   21.3400  -23.1381  -12.1774 O   0  0  0  0  0  0  0  0  0  0  0  0
   21.0373  -18.0654  -14.1826 C   0  0  0  0  0  0  0  0  0  0  0  0
   21.1221  -17.0949  -15.1555 C   0  0  0  0  0  0  0  0  0  0  0  0
   21.2489  -21.5480  -10.5230 N   0  0  0  0  0  0  0  0  0  0  0  0
   21.1083  -20.2108  -10.0087 C   0  0  0  0  0  0  0  0  0  0  0  0
   21.5907  -20.2837   -8.6070 C   0  0  0  0  0  0  0  0  0  0  0  0
   22.0274  -21.7075   -8.3593 C   0  0  0  0  0  0  0  0  0  0  0  0
   21.2064  -22.4577   -9.4350 C   0  0  1  0  0  0  0  0  0  0  0  0
   19.8893  -22.6616   -8.8315 C   0  0  0  0  0  0  0  0  0  0  0  0
   19.0651  -21.7311   -8.7717 O   0  0  0  0  0  0  0  0  0  0  0  0
   19.5236  -23.9165   -8.3038 N   0  0  0  0  0  0  0  0  0  0  0  0
   18.1867  -24.2472   -7.8513 C   0  0  1  0  0  0  0  0  0  0  0  0
   17.8743  -25.7099   -8.2012 C   0  0  0  0  0  0  0  0  0  0  0  0
   18.2914  -26.0699   -9.9122 S   0  0  0  0  0  0  0  0  0  0  0  0
   18.0246  -24.0352   -6.3987 C   0  0  0  0  0  0  0  0  0  0  0  0
   16.7792  -23.9025   -5.8043 O   0  0  0  0  0  0  0  0  0  0  0  0
   19.0390  -23.9738   -5.6855 O   0  0  0  0  0  0  0  0  0  0  0  0
  1  2  1  0
  2  3  2  0
  3  4  1  0
  5  4  2  0
  5  6  1  0
  7  6  1  0
  7  8  1  6
  9  7  1  0
  9 13  1  0
 10  9  2  0
 11  5  1  0
 12  2  1  0
 12 11  2  0
 13 14  1  0
 14 15  1  0
 16 15  1  0
 17 13  1  0
 17 16  1  0
 17 18  1  1
 19 18  2  0
 20 18  1  0
 21 24  1  0
 21 20  1  0
 22 23  1  0
 21 22  1  1
 24 25  1  0
 26 24  2  0
M  END
$$$$
