PVK.pdb
     RDKit          3D

 24 24  0  0  1  0  0  0  0  0999 V2000
    7.9256  -16.3443   18.7218 N   0  0  0  0  0  0  0  0  0  0  0  0
    8.2456  -17.7374   18.7098 C   0  0  0  0  0  0  0  0  0  0  0  0
    7.3902  -18.3950   19.7782 C   0  0  0  0  0  0  0  0  0  0  0  0
    6.3325  -17.3487   20.0400 C   0  0  0  0  0  0  0  0  0  0  0  0
    7.1115  -16.0629   19.8610 C   0  0  1  0  0  0  0  0  0  0  0  0
    7.9097  -15.7144   21.0664 C   0  0  0  0  0  0  0  0  0  0  0  0
    9.1456  -15.9398   21.1153 O   0  0  0  0  0  0  0  0  0  0  0  0
    7.0717  -12.3605   23.3710 C   0  0  0  0  0  0  0  0  0  0  0  0
    7.2652  -13.6247   24.1211 C   0  0  2  0  0  0  0  0  0  0  0  0
    7.8693  -13.3170   25.4683 C   0  0  0  0  0  0  0  0  0  0  0  0
    8.0576  -14.7035   23.3939 C   0  0  2  0  0  0  0  0  0  0  0  0
    7.3222  -15.1186   22.2036 N   0  0  0  0  0  0  0  0  0  0  0  0
    8.4187  -15.8490   24.2370 C   0  0  0  0  0  0  0  0  0  0  0  0
    7.4939  -16.6582   24.6134 O   0  0  0  0  0  0  0  0  0  0  0  0
    9.7034  -16.1971   24.7081 N   0  0  0  0  0  0  0  0  0  0  0  0
    9.9778  -17.4720   25.3795 C   0  0  1  0  0  0  0  0  0  0  0  0
   10.8908  -18.3288   24.5775 C   0  0  0  0  0  0  0  0  0  0  0  0
   11.2362  -19.6507   25.1807 C   0  0  0  0  0  0  0  0  0  0  0  0
   12.2740  -20.4064   24.3791 C   0  0  0  0  0  0  0  0  0  0  0  0
   12.5344  -21.7762   24.9777 C   0  0  0  0  0  0  0  0  0  0  0  0
   13.3997  -22.5686   24.1352 N   0  0  0  0  0  0  0  0  0  0  0  0
   10.5733  -17.1752   26.6911 C   0  0  0  0  0  0  0  0  0  0  0  0
   10.5621  -18.1314   27.6833 O   0  0  0  0  0  0  0  0  0  0  0  0
   11.0889  -16.0674   26.9198 O   0  0  0  0  0  0  0  0  0  0  0  0
  1  2  1  0
  3  2  1  0
  4  3  1  0
  5  4  1  0
  5  1  1  0
  6 12  1  0
  5  6  1  1
  7  6  2  0
  9  8  1  6
  9 11  1  0
 10  9  1  0
 11 12  1  6
 13 14  2  0
 13 11  1  0
 15 13  1  0
 16 15  1  0
 16 17  1  6
 18 17  1  0
 19 18  1  0
 20 19  1  0
 20 21  1  0
 22 16  1  0
 23 22  1  0
 24 22  2  0
M  END
$$$$
