PVK.pdb
     RDKit          3D

 24 24  0  0  1  0  0  0  0  0999 V2000
    7.8747  -14.5872   20.4743 N   0  0  0  0  0  0  0  0  0  0  0  0
    8.3605  -15.9184   20.2864 C   0  0  0  0  0  0  0  0  0  0  0  0
    7.5458  -16.8175   21.1995 C   0  0  0  0  0  0  0  0  0  0  0  0
    6.3596  -15.9470   21.5418 C   0  0  0  0  0  0  0  0  0  0  0  0
    6.9850  -14.5691   21.5913 C   0  0  1  0  0  0  0  0  0  0  0  0
    7.6834  -14.3124   22.8789 C   0  0  0  0  0  0  0  0  0  0  0  0
    8.9199  -14.5052   22.9976 O   0  0  0  0  0  0  0  0  0  0  0  0
    6.3327  -11.3139   25.4537 C   0  0  0  0  0  0  0  0  0  0  0  0
    6.6939  -12.6038   26.0894 C   0  0  2  0  0  0  0  0  0  0  0  0
    7.2381  -12.3428   27.4715 C   0  0  0  0  0  0  0  0  0  0  0  0
    7.6347  -13.4907   25.2838 C   0  0  2  0  0  0  0  0  0  0  0  0
    6.9962  -13.8435   24.0197 N   0  0  0  0  0  0  0  0  0  0  0  0
    8.1006  -14.6790   26.0080 C   0  0  0  0  0  0  0  0  0  0  0  0
    7.3207  -15.6965   26.0972 O   0  0  0  0  0  0  0  0  0  0  0  0
    9.3472  -14.8620   26.6453 N   0  0  0  0  0  0  0  0  0  0  0  0
    9.7517  -16.1443   27.2314 C   0  0  1  0  0  0  0  0  0  0  0  0
   10.8607  -16.7719   26.4651 C   0  0  0  0  0  0  0  0  0  0  0  0
   11.3579  -18.0767   26.9951 C   0  0  0  0  0  0  0  0  0  0  0  0
   12.5572  -18.5987   26.2338 C   0  0  0  0  0  0  0  0  0  0  0  0
   13.0430  -19.9131   26.8158 C   0  0  0  0  0  0  0  0  0  0  0  0
   14.1225  -20.4729   26.0363 N   0  0  0  0  0  0  0  0  0  0  0  0
   10.1640  -15.8980   28.6215 C   0  0  0  0  0  0  0  0  0  0  0  0
   10.3493  -16.9584   29.4816 O   0  0  0  0  0  0  0  0  0  0  0  0
   10.3478  -14.7401   29.0350 O   0  0  0  0  0  0  0  0  0  0  0  0
  1  2  1  0
  3  2  1  0
  4  3  1  0
  5  4  1  0
  5  1  1  0
  6 12  1  0
  5  6  1  1
  7  6  2  0
  9  8  1  6
  9 11  1  0
 10  9  1  0
 11 12  1  6
 13 14  2  0
 13 11  1  0
 15 13  1  0
 16 15  1  0
 16 17  1  6
 18 17  1  0
 19 18  1  0
 20 19  1  0
 20 21  1  0
 22 16  1  0
 23 22  1  0
 24 22  2  0
M  END
$$$$
