PVK.pdb
     RDKit          3D

 24 24  0  0  1  0  0  0  0  0999 V2000
    7.9270  -14.4088   20.1696 N   0  0  0  0  0  0  0  0  0  0  0  0
    8.0477  -15.8014   19.8704 C   0  0  0  0  0  0  0  0  0  0  0  0
    7.0254  -16.5263   20.7279 C   0  0  0  0  0  0  0  0  0  0  0  0
    6.1080  -15.4065   21.1596 C   0  0  0  0  0  0  0  0  0  0  0  0
    7.0720  -14.2478   21.3022 C   0  0  1  0  0  0  0  0  0  0  0  0
    7.8122  -14.2851   22.5915 C   0  0  0  0  0  0  0  0  0  0  0  0
    8.9630  -14.7855   22.6663 O   0  0  0  0  0  0  0  0  0  0  0  0
    7.9305  -12.4422   27.2689 C   0  0  0  0  0  0  0  0  0  0  0  0
    7.2760  -12.6826   25.9604 C   0  0  2  0  0  0  0  0  0  0  0  0
    5.8288  -13.0420   26.1861 C   0  0  0  0  0  0  0  0  0  0  0  0
    7.9642  -13.7011   25.0607 C   0  0  2  0  0  0  0  0  0  0  0  0
    7.2620  -13.7641   23.7828 N   0  0  0  0  0  0  0  0  0  0  0  0
    8.1109  -15.0296   25.6666 C   0  0  0  0  0  0  0  0  0  0  0  0
    7.0851  -15.8017   25.7247 O   0  0  0  0  0  0  0  0  0  0  0  0
    9.2808  -15.5982   26.2158 N   0  0  0  0  0  0  0  0  0  0  0  0
    9.3280  -16.9774   26.7129 C   0  0  1  0  0  0  0  0  0  0  0  0
   10.0845  -17.8666   25.7919 C   0  0  0  0  0  0  0  0  0  0  0  0
   11.5148  -17.5003   25.5662 C   0  0  0  0  0  0  0  0  0  0  0  0
   12.2194  -18.4489   24.6205 C   0  0  0  0  0  0  0  0  0  0  0  0
   13.6438  -17.9976   24.3562 C   0  0  0  0  0  0  0  0  0  0  0  0
   14.3517  -18.9364   23.5173 N   0  0  0  0  0  0  0  0  0  0  0  0
    9.9584  -16.9596   28.0415 C   0  0  0  0  0  0  0  0  0  0  0  0
   10.4162  -15.7719   28.5693 O   0  0  0  0  0  0  0  0  0  0  0  0
   10.0864  -18.0068   28.6991 O   0  0  0  0  0  0  0  0  0  0  0  0
  1  2  1  0
  3  2  1  0
  4  3  1  0
  5  4  1  0
  5  1  1  0
  6 12  1  0
  5  6  1  1
  7  6  2  0
  9  8  1  1
  9 11  1  0
 10  9  1  0
 11 12  1  6
 13 14  2  0
 13 11  1  0
 15 13  1  0
 16 15  1  0
 16 17  1  6
 18 17  1  0
 19 18  1  0
 20 19  1  0
 20 21  1  0
 22 16  1  0
 23 22  1  0
 24 22  2  0
M  END
$$$$
