PVK.pdb
     RDKit          3D

 24 24  0  0  1  0  0  0  0  0999 V2000
    7.9797  -14.7445   20.4448 N   0  0  0  0  0  0  0  0  0  0  0  0
    8.3683  -16.1054   20.2442 C   0  0  0  0  0  0  0  0  0  0  0  0
    7.4808  -16.9532   21.1383 C   0  0  0  0  0  0  0  0  0  0  0  0
    6.3584  -16.0021   21.4811 C   0  0  0  0  0  0  0  0  0  0  0  0
    7.0827  -14.6746   21.5539 C   0  0  1  0  0  0  0  0  0  0  0  0
    7.7852  -14.4856   22.8509 C   0  0  0  0  0  0  0  0  0  0  0  0
    9.0206  -14.6925   22.9574 O   0  0  0  0  0  0  0  0  0  0  0  0
    6.6010  -11.4619   25.3769 C   0  0  0  0  0  0  0  0  0  0  0  0
    6.8663  -12.7568   26.0484 C   0  0  2  0  0  0  0  0  0  0  0  0
    7.4127  -12.4985   27.4302 C   0  0  0  0  0  0  0  0  0  0  0  0
    7.7523  -13.7261   25.2764 C   0  0  2  0  0  0  0  0  0  0  0  0
    7.1035  -14.0680   24.0147 N   0  0  0  0  0  0  0  0  0  0  0  0
    8.1297  -14.9237   26.0359 C   0  0  0  0  0  0  0  0  0  0  0  0
    7.2354  -15.8161   26.2716 O   0  0  0  0  0  0  0  0  0  0  0  0
    9.4006  -15.2410   26.5628 N   0  0  0  0  0  0  0  0  0  0  0  0
    9.6916  -16.5324   27.1946 C   0  0  1  0  0  0  0  0  0  0  0  0
   10.6924  -17.3101   26.4169 C   0  0  0  0  0  0  0  0  0  0  0  0
   11.1124  -18.6110   27.0186 C   0  0  0  0  0  0  0  0  0  0  0  0
   12.1212  -19.3509   26.1669 C   0  0  0  0  0  0  0  0  0  0  0  0
   12.4929  -20.6817   26.7941 C   0  0  0  0  0  0  0  0  0  0  0  0
   13.5698  -21.3246   26.0775 N   0  0  0  0  0  0  0  0  0  0  0  0
   10.1890  -16.2709   28.5537 C   0  0  0  0  0  0  0  0  0  0  0  0
   10.3253  -17.3107   29.4476 O   0  0  0  0  0  0  0  0  0  0  0  0
   10.4890  -15.1185   28.9107 O   0  0  0  0  0  0  0  0  0  0  0  0
  1  2  1  0
  3  2  1  0
  4  3  1  0
  5  4  1  0
  5  1  1  0
  6 12  1  0
  5  6  1  1
  7  6  2  0
  9  8  1  6
  9 11  1  0
 10  9  1  0
 11 12  1  6
 13 14  2  0
 13 11  1  0
 15 13  1  0
 16 15  1  0
 16 17  1  6
 18 17  1  0
 19 18  1  0
 20 19  1  0
 20 21  1  0
 22 16  1  0
 23 22  1  0
 24 22  2  0
M  END
$$$$
