PVK.pdb
     RDKit          3D

 24 24  0  0  1  0  0  0  0  0999 V2000
    6.5202  -15.3409   21.3142 N   0  0  0  0  0  0  0  0  0  0  0  0
    6.8441  -14.4488   20.2453 C   0  0  0  0  0  0  0  0  0  0  0  0
    8.3352  -14.5862   19.9935 C   0  0  0  0  0  0  0  0  0  0  0  0
    8.6674  -15.8813   20.6966 C   0  0  0  0  0  0  0  0  0  0  0  0
    7.7294  -15.8436   21.8843 C   0  0  1  0  0  0  0  0  0  0  0  0
    8.2462  -14.9869   22.9845 C   0  0  0  0  0  0  0  0  0  0  0  0
    9.4765  -14.7604   23.1090 O   0  0  0  0  0  0  0  0  0  0  0  0
    6.2201  -11.8542   24.7804 C   0  0  0  0  0  0  0  0  0  0  0  0
    6.7212  -12.8847   25.7214 C   0  0  2  0  0  0  0  0  0  0  0  0
    7.1328  -12.2222   27.0123 C   0  0  0  0  0  0  0  0  0  0  0  0
    7.8290  -13.7809   25.1828 C   0  0  2  0  0  0  0  0  0  0  0  0
    7.3866  -14.3922   23.9336 N   0  0  0  0  0  0  0  0  0  0  0  0
    8.3030  -14.7854   26.1418 C   0  0  0  0  0  0  0  0  0  0  0  0
    7.5084  -15.7332   26.4910 O   0  0  0  0  0  0  0  0  0  0  0  0
    9.5722  -14.8536   26.7567 N   0  0  0  0  0  0  0  0  0  0  0  0
    9.9434  -15.9310   27.6802 C   0  0  1  0  0  0  0  0  0  0  0  0
   11.0100  -16.7973   27.1119 C   0  0  0  0  0  0  0  0  0  0  0  0
   11.5083  -17.8841   28.0070 C   0  0  0  0  0  0  0  0  0  0  0  0
   12.6263  -18.6903   27.3821 C   0  0  0  0  0  0  0  0  0  0  0  0
   13.1250  -19.7611   28.3346 C   0  0  0  0  0  0  0  0  0  0  0  0
   14.0603  -20.6528   27.6891 N   0  0  0  0  0  0  0  0  0  0  0  0
   10.3977  -15.3156   28.9364 C   0  0  0  0  0  0  0  0  0  0  0  0
   10.5932  -16.0980   30.0537 O   0  0  0  0  0  0  0  0  0  0  0  0
   10.6081  -14.0924   29.0059 O   0  0  0  0  0  0  0  0  0  0  0  0
  1  2  1  0
  3  2  1  0
  4  3  1  0
  5  4  1  0
  5  1  1  0
  6 12  1  0
  5  6  1  1
  7  6  2  0
  9  8  1  6
  9 11  1  0
 10  9  1  0
 11 12  1  6
 13 14  2  0
 13 11  1  0
 15 13  1  0
 16 15  1  0
 16 17  1  6
 18 17  1  0
 19 18  1  0
 20 19  1  0
 20 21  1  0
 22 16  1  0
 23 22  1  0
 24 22  2  0
M  END
$$$$
