PVK.pdb
     RDKit          3D

 24 24  0  0  1  0  0  0  0  0999 V2000
    6.9834  -17.8408   17.4219 N   0  0  0  0  0  0  0  0  0  0  0  0
    7.4082  -17.3747   16.1391 C   0  0  0  0  0  0  0  0  0  0  0  0
    8.8855  -17.7046   16.0177 C   0  0  0  0  0  0  0  0  0  0  0  0
    9.0846  -18.7217   17.1167 C   0  0  0  0  0  0  0  0  0  0  0  0
    8.1303  -18.2245   18.1817 C   0  0  1  0  0  0  0  0  0  0  0  0
    8.7006  -17.0997   18.9698 C   0  0  0  0  0  0  0  0  0  0  0  0
    9.9348  -17.0254   19.1974 O   0  0  0  0  0  0  0  0  0  0  0  0
    6.8918  -13.3290   19.3628 C   0  0  0  0  0  0  0  0  0  0  0  0
    7.2725  -14.0077   20.6249 C   0  0  2  0  0  0  0  0  0  0  0  0
    7.6810  -12.9728   21.6432 C   0  0  0  0  0  0  0  0  0  0  0  0
    8.3286  -15.0972   20.4905 C   0  0  2  0  0  0  0  0  0  0  0  0
    7.8897  -16.0704   19.4954 N   0  0  0  0  0  0  0  0  0  0  0  0
    8.6866  -15.7409   21.7597 C   0  0  0  0  0  0  0  0  0  0  0  0
    7.7747  -16.3611   22.4196 O   0  0  0  0  0  0  0  0  0  0  0  0
    9.9556  -15.7731   22.3780 N   0  0  0  0  0  0  0  0  0  0  0  0
   10.2169  -16.5394   23.6011 C   0  0  1  0  0  0  0  0  0  0  0  0
   10.7866  -17.8790   23.2978 C   0  0  0  0  0  0  0  0  0  0  0  0
   11.0491  -18.7546   24.4790 C   0  0  0  0  0  0  0  0  0  0  0  0
   11.5692  -20.1216   24.0899 C   0  0  0  0  0  0  0  0  0  0  0  0
   11.7630  -20.9996   25.3121 C   0  0  0  0  0  0  0  0  0  0  0  0
   12.2045  -22.3261   24.9490 N   0  0  0  0  0  0  0  0  0  0  0  0
   11.1481  -15.7625   24.4331 C   0  0  0  0  0  0  0  0  0  0  0  0
   11.7877  -14.6622   23.9049 O   0  0  0  0  0  0  0  0  0  0  0  0
   11.3691  -16.0864   25.6128 O   0  0  0  0  0  0  0  0  0  0  0  0
  1  2  1  0
  3  2  1  0
  4  3  1  0
  5  4  1  0
  5  1  1  0
  6 12  1  0
  5  6  1  6
  7  6  2  0
  9  8  1  6
  9 11  1  0
 10  9  1  0
 11 12  1  6
 13 14  2  0
 13 11  1  0
 15 13  1  0
 16 15  1  0
 16 17  1  6
 18 17  1  0
 19 18  1  0
 20 19  1  0
 20 21  1  0
 22 16  1  0
 23 22  1  0
 24 22  2  0
M  END
$$$$
