PVK.pdb
     RDKit          3D

 24 24  0  0  1  0  0  0  0  0999 V2000
    7.6908  -15.4354   20.7819 N   0  0  0  0  0  0  0  0  0  0  0  0
    8.3170  -16.7163   20.6797 C   0  0  0  0  0  0  0  0  0  0  0  0
    7.7074  -17.5920   21.7602 C   0  0  0  0  0  0  0  0  0  0  0  0
    6.4601  -16.8270   22.1358 C   0  0  0  0  0  0  0  0  0  0  0  0
    6.9131  -15.3910   21.9789 C   0  0  1  0  0  0  0  0  0  0  0  0
    7.6911  -14.9133   23.1529 C   0  0  0  0  0  0  0  0  0  0  0  0
    8.9481  -14.9048   23.1400 O   0  0  0  0  0  0  0  0  0  0  0  0
    6.4608  -11.7767   25.4757 C   0  0  0  0  0  0  0  0  0  0  0  0
    6.8714  -12.9728   26.2496 C   0  0  2  0  0  0  0  0  0  0  0  0
    7.5015  -12.5340   27.5476 C   0  0  0  0  0  0  0  0  0  0  0  0
    7.7646  -13.9588   25.5075 C   0  0  2  0  0  0  0  0  0  0  0  0
    7.0598  -14.4504   24.3279 N   0  0  0  0  0  0  0  0  0  0  0  0
    8.2612  -15.0589   26.3421 C   0  0  0  0  0  0  0  0  0  0  0  0
    7.4173  -15.8941   26.8340 O   0  0  0  0  0  0  0  0  0  0  0  0
    9.6014  -15.3354   26.6897 N   0  0  0  0  0  0  0  0  0  0  0  0
    9.9923  -16.5453   27.4209 C   0  0  1  0  0  0  0  0  0  0  0  0
   11.1686  -17.2071   26.7970 C   0  0  0  0  0  0  0  0  0  0  0  0
   11.0424  -17.5160   25.3412 C   0  0  0  0  0  0  0  0  0  0  0  0
   12.2640  -18.2137   24.7830 C   0  0  0  0  0  0  0  0  0  0  0  0
   12.0481  -18.6174   23.3364 C   0  0  0  0  0  0  0  0  0  0  0  0
   13.2000  -19.3032   22.7985 N   0  0  0  0  0  0  0  0  0  0  0  0
   10.2963  -16.1595   28.8072 C   0  0  0  0  0  0  0  0  0  0  0  0
   10.3355  -14.8272   29.1570 O   0  0  0  0  0  0  0  0  0  0  0  0
   10.5211  -17.0226   29.6731 O   0  0  0  0  0  0  0  0  0  0  0  0
  1  2  1  0
  3  2  1  0
  4  3  1  0
  5  4  1  0
  5  1  1  0
  6 12  1  0
  5  6  1  1
  7  6  2  0
  9  8  1  6
  9 11  1  0
 10  9  1  0
 11 12  1  6
 13 14  2  0
 13 11  1  0
 15 13  1  0
 16 15  1  0
 16 17  1  6
 18 17  1  0
 19 18  1  0
 20 19  1  0
 20 21  1  0
 22 16  1  0
 23 22  1  0
 24 22  2  0
M  END
$$$$
