PVK.pdb
     RDKit          3D

 24 24  0  0  1  0  0  0  0  0999 V2000
    7.7945  -15.0687   20.4475 N   0  0  0  0  0  0  0  0  0  0  0  0
    8.1525  -16.4406   20.2664 C   0  0  0  0  0  0  0  0  0  0  0  0
    7.2662  -17.2532   21.1938 C   0  0  0  0  0  0  0  0  0  0  0  0
    6.1694  -16.2735   21.5391 C   0  0  0  0  0  0  0  0  0  0  0  0
    6.9207  -14.9595   21.5719 C   0  0  1  0  0  0  0  0  0  0  0  0
    7.6519  -14.7594   22.8513 C   0  0  0  0  0  0  0  0  0  0  0  0
    8.8676  -15.0608   22.9594 O   0  0  0  0  0  0  0  0  0  0  0  0
    6.7105  -11.6074   25.3625 C   0  0  0  0  0  0  0  0  0  0  0  0
    6.8934  -12.9140   26.0391 C   0  0  2  0  0  0  0  0  0  0  0  0
    7.4795  -12.6871   27.4101 C   0  0  0  0  0  0  0  0  0  0  0  0
    7.6950  -13.9489   25.2601 C   0  0  2  0  0  0  0  0  0  0  0  0
    7.0205  -14.2257   23.9958 N   0  0  0  0  0  0  0  0  0  0  0  0
    7.9695  -15.1796   26.0109 C   0  0  0  0  0  0  0  0  0  0  0  0
    6.9961  -15.9774   26.2714 O   0  0  0  0  0  0  0  0  0  0  0  0
    9.2153  -15.6244   26.5043 N   0  0  0  0  0  0  0  0  0  0  0  0
    9.3976  -16.9512   27.1026 C   0  0  1  0  0  0  0  0  0  0  0  0
    9.9463  -17.9245   26.1213 C   0  0  0  0  0  0  0  0  0  0  0  0
   10.1542  -19.3126   26.6318 C   0  0  0  0  0  0  0  0  0  0  0  0
   10.8286  -20.2134   25.6197 C   0  0  0  0  0  0  0  0  0  0  0  0
   10.8983  -21.6432   26.1229 C   0  0  0  0  0  0  0  0  0  0  0  0
   11.3885  -22.5419   25.1039 N   0  0  0  0  0  0  0  0  0  0  0  0
   10.3077  -16.8109   28.2493 C   0  0  0  0  0  0  0  0  0  0  0  0
   10.3974  -17.8202   29.1832 O   0  0  0  0  0  0  0  0  0  0  0  0
   11.0007  -15.7885   28.3902 O   0  0  0  0  0  0  0  0  0  0  0  0
  1  2  1  0
  3  2  1  0
  4  3  1  0
  5  4  1  0
  5  1  1  0
  6 12  1  0
  5  6  1  1
  7  6  2  0
  9  8  1  6
  9 11  1  0
 10  9  1  0
 11 12  1  6
 13 14  2  0
 13 11  1  0
 15 13  1  0
 16 15  1  0
 16 17  1  6
 18 17  1  0
 19 18  1  0
 20 19  1  0
 20 21  1  0
 22 16  1  0
 23 22  1  0
 24 22  2  0
M  END
$$$$
