PVK.pdb
     RDKit          3D

 24 24  0  0  1  0  0  0  0  0999 V2000
    8.6044  -14.8316   18.5660 N   0  0  0  0  0  0  0  0  0  0  0  0
    7.4150  -14.3233   17.9575 C   0  0  0  0  0  0  0  0  0  0  0  0
    7.1415  -12.9694   18.5884 C   0  0  0  0  0  0  0  0  0  0  0  0
    8.4655  -12.6368   19.2352 C   0  0  0  0  0  0  0  0  0  0  0  0
    8.9520  -14.0014   19.6749 C   0  0  1  0  0  0  0  0  0  0  0  0
    8.3185  -14.4439   20.9455 C   0  0  0  0  0  0  0  0  0  0  0  0
    8.2905  -13.6936   21.9538 O   0  0  0  0  0  0  0  0  0  0  0  0
    5.1647  -17.1476   20.7644 C   0  0  0  0  0  0  0  0  0  0  0  0
    6.1248  -17.3685   21.8724 C   0  0  2  0  0  0  0  0  0  0  0  0
    5.3870  -17.9137   23.0695 C   0  0  0  0  0  0  0  0  0  0  0  0
    6.9775  -16.1642   22.2506 C   0  0  2  0  0  0  0  0  0  0  0  0
    7.7230  -15.7171   21.0783 N   0  0  0  0  0  0  0  0  0  0  0  0
    7.8597  -16.3952   23.4004 C   0  0  0  0  0  0  0  0  0  0  0  0
    8.9372  -17.0744   23.2290 O   0  0  0  0  0  0  0  0  0  0  0  0
    7.6753  -15.9489   24.7272 N   0  0  0  0  0  0  0  0  0  0  0  0
    8.6063  -16.2876   25.8089 C   0  0  1  0  0  0  0  0  0  0  0  0
    8.6955  -15.1980   26.8168 C   0  0  0  0  0  0  0  0  0  0  0  0
    9.5429  -15.4881   28.0120 C   0  0  0  0  0  0  0  0  0  0  0  0
    9.5106  -14.3744   29.0364 C   0  0  0  0  0  0  0  0  0  0  0  0
   10.3923  -14.7026   30.2269 C   0  0  0  0  0  0  0  0  0  0  0  0
   11.7603  -14.9367   29.8266 N   0  0  0  0  0  0  0  0  0  0  0  0
    8.1375  -17.5313   26.4384 C   0  0  0  0  0  0  0  0  0  0  0  0
    9.0421  -18.3849   27.0316 O   0  0  0  0  0  0  0  0  0  0  0  0
    6.9299  -17.8265   26.4424 O   0  0  0  0  0  0  0  0  0  0  0  0
  1  2  1  0
  3  2  1  0
  4  3  1  0
  5  4  1  0
  5  1  1  0
  6 12  1  0
  5  6  1  1
  7  6  2  0
  9  8  1  6
  9 11  1  0
 10  9  1  0
 11 12  1  6
 13 14  2  0
 13 11  1  0
 15 13  1  0
 16 15  1  0
 16 17  1  1
 18 17  1  0
 19 18  1  0
 20 19  1  0
 20 21  1  0
 22 16  1  0
 23 22  1  0
 24 22  2  0
M  END
$$$$
