PVK.pdb
     RDKit          3D

 24 24  0  0  1  0  0  0  0  0999 V2000
    7.7970  -14.5228   20.3734 N   0  0  0  0  0  0  0  0  0  0  0  0
    8.2850  -15.8385   20.1015 C   0  0  0  0  0  0  0  0  0  0  0  0
    7.4891  -16.7927   20.9743 C   0  0  0  0  0  0  0  0  0  0  0  0
    6.3051  -15.9493   21.3851 C   0  0  0  0  0  0  0  0  0  0  0  0
    6.9255  -14.5734   21.5037 C   0  0  1  0  0  0  0  0  0  0  0  0
    7.6437  -14.3875   22.7926 C   0  0  0  0  0  0  0  0  0  0  0  0
    8.8885  -14.5443   22.8717 O   0  0  0  0  0  0  0  0  0  0  0  0
    6.4035  -11.5576   25.5039 C   0  0  0  0  0  0  0  0  0  0  0  0
    6.7303  -12.8732   26.1047 C   0  0  2  0  0  0  0  0  0  0  0  0
    7.3144  -12.6617   27.4790 C   0  0  0  0  0  0  0  0  0  0  0  0
    7.6190  -13.7769   25.2599 C   0  0  2  0  0  0  0  0  0  0  0  0
    6.9670  -14.0289   23.9787 N   0  0  0  0  0  0  0  0  0  0  0  0
    8.0070  -15.0250   25.9273 C   0  0  0  0  0  0  0  0  0  0  0  0
    7.1139  -15.9287   26.1205 O   0  0  0  0  0  0  0  0  0  0  0  0
    9.2873  -15.3815   26.4039 N   0  0  0  0  0  0  0  0  0  0  0  0
    9.5746  -16.6993   26.9804 C   0  0  1  0  0  0  0  0  0  0  0  0
   10.4023  -17.5294   26.0655 C   0  0  0  0  0  0  0  0  0  0  0  0
   11.8512  -17.1730   25.9990 C   0  0  0  0  0  0  0  0  0  0  0  0
   12.6115  -18.0011   24.9857 C   0  0  0  0  0  0  0  0  0  0  0  0
   14.0780  -17.6128   24.9541 C   0  0  0  0  0  0  0  0  0  0  0  0
   14.8309  -18.4529   24.0518 N   0  0  0  0  0  0  0  0  0  0  0  0
   10.2727  -16.4932   28.2583 C   0  0  0  0  0  0  0  0  0  0  0  0
   10.5532  -17.5710   29.0699 O   0  0  0  0  0  0  0  0  0  0  0  0
   10.6146  -15.3541   28.6201 O   0  0  0  0  0  0  0  0  0  0  0  0
  1  2  1  0
  3  2  1  0
  4  3  1  0
  5  4  1  0
  5  1  1  0
  6 12  1  0
  5  6  1  1
  7  6  2  0
  9  8  1  6
  9 11  1  0
 10  9  1  0
 11 12  1  6
 13 14  2  0
 13 11  1  0
 15 13  1  0
 16 15  1  0
 16 17  1  6
 18 17  1  0
 19 18  1  0
 20 19  1  0
 20 21  1  0
 22 16  1  0
 23 22  1  0
 24 22  2  0
M  END
$$$$
