PVK.pdb
     RDKit          3D

 24 24  0  0  1  0  0  0  0  0999 V2000
    7.6358  -14.4669   20.2092 N   0  0  0  0  0  0  0  0  0  0  0  0
    8.0738  -15.7757   19.8372 C   0  0  0  0  0  0  0  0  0  0  0  0
    7.3218  -16.7585   20.7173 C   0  0  0  0  0  0  0  0  0  0  0  0
    6.1894  -15.9155   21.2549 C   0  0  0  0  0  0  0  0  0  0  0  0
    6.8470  -14.5592   21.3963 C   0  0  1  0  0  0  0  0  0  0  0  0
    7.6601  -14.4529   22.6369 C   0  0  0  0  0  0  0  0  0  0  0  0
    8.9023  -14.6448   22.6185 O   0  0  0  0  0  0  0  0  0  0  0  0
    6.7459  -11.6665   25.5773 C   0  0  0  0  0  0  0  0  0  0  0  0
    7.0124  -13.0441   26.0564 C   0  0  2  0  0  0  0  0  0  0  0  0
    7.6359  -12.9824   27.4283 C   0  0  0  0  0  0  0  0  0  0  0  0
    7.8322  -13.9181   25.1159 C   0  0  2  0  0  0  0  0  0  0  0  0
    7.0800  -14.1338   23.8839 N   0  0  0  0  0  0  0  0  0  0  0  0
    8.2746  -15.1841   25.7116 C   0  0  0  0  0  0  0  0  0  0  0  0
    7.4130  -16.1211   25.8884 O   0  0  0  0  0  0  0  0  0  0  0  0
    9.5784  -15.5255   26.1324 N   0  0  0  0  0  0  0  0  0  0  0  0
    9.9345  -16.8774   26.5761 C   0  0  1  0  0  0  0  0  0  0  0  0
   11.0332  -17.4523   25.7556 C   0  0  0  0  0  0  0  0  0  0  0  0
   11.5636  -18.7709   26.2146 C   0  0  0  0  0  0  0  0  0  0  0  0
   12.7297  -19.2551   25.3800 C   0  0  0  0  0  0  0  0  0  0  0  0
   13.2907  -20.5540   25.9282 C   0  0  0  0  0  0  0  0  0  0  0  0
   14.3933  -21.0359   25.1292 N   0  0  0  0  0  0  0  0  0  0  0  0
   10.3359  -16.8005   27.9889 C   0  0  0  0  0  0  0  0  0  0  0  0
   10.3935  -17.9474   28.7505 O   0  0  0  0  0  0  0  0  0  0  0  0
   10.6246  -15.7093   28.5098 O   0  0  0  0  0  0  0  0  0  0  0  0
  1  2  1  0
  3  2  1  0
  4  3  1  0
  5  4  1  0
  5  1  1  0
  6 12  1  0
  5  6  1  1
  7  6  2  0
  9  8  1  6
  9 11  1  0
 10  9  1  0
 11 12  1  6
 13 14  2  0
 13 11  1  0
 15 13  1  0
 16 15  1  0
 16 17  1  6
 18 17  1  0
 19 18  1  0
 20 19  1  0
 20 21  1  0
 22 16  1  0
 23 22  1  0
 24 22  2  0
M  END
$$$$
