PVK.pdb
     RDKit          3D

 24 24  0  0  1  0  0  0  0  0999 V2000
    7.6245  -14.3020   20.4085 N   0  0  0  0  0  0  0  0  0  0  0  0
    7.9918  -15.6174   19.9866 C   0  0  0  0  0  0  0  0  0  0  0  0
    7.2464  -16.5913   20.8822 C   0  0  0  0  0  0  0  0  0  0  0  0
    6.1761  -15.7186   21.4944 C   0  0  0  0  0  0  0  0  0  0  0  0
    6.8926  -14.3920   21.6316 C   0  0  1  0  0  0  0  0  0  0  0  0
    7.7699  -14.3460   22.8315 C   0  0  0  0  0  0  0  0  0  0  0  0
    8.9993  -14.5948   22.7480 O   0  0  0  0  0  0  0  0  0  0  0  0
    6.0157  -13.3869   26.6986 C   0  0  0  0  0  0  0  0  0  0  0  0
    7.3719  -12.9488   26.2896 C   0  0  2  0  0  0  0  0  0  0  0  0
    7.3022  -11.5358   25.7670 C   0  0  0  0  0  0  0  0  0  0  0  0
    8.0886  -13.8663   25.3072 C   0  0  2  0  0  0  0  0  0  0  0  0
    7.2676  -14.0231   24.1109 N   0  0  0  0  0  0  0  0  0  0  0  0
    8.4751  -15.1630   25.8752 C   0  0  0  0  0  0  0  0  0  0  0  0
    7.6303  -16.1310   25.8431 O   0  0  0  0  0  0  0  0  0  0  0  0
    9.7064  -15.5043   26.4761 N   0  0  0  0  0  0  0  0  0  0  0  0
   10.0561  -16.8849   26.8268 C   0  0  1  0  0  0  0  0  0  0  0  0
   11.2513  -17.3551   26.0775 C   0  0  0  0  0  0  0  0  0  0  0  0
   11.7572  -18.7106   26.4483 C   0  0  0  0  0  0  0  0  0  0  0  0
   13.0260  -19.0831   25.7121 C   0  0  0  0  0  0  0  0  0  0  0  0
   13.5366  -20.4407   26.1577 C   0  0  0  0  0  0  0  0  0  0  0  0
   14.6385  -20.8891   25.3385 N   0  0  0  0  0  0  0  0  0  0  0  0
   10.3061  -16.9359   28.2752 C   0  0  0  0  0  0  0  0  0  0  0  0
   10.4490  -18.1528   28.9057 O   0  0  0  0  0  0  0  0  0  0  0  0
   10.3898  -15.8910   28.9436 O   0  0  0  0  0  0  0  0  0  0  0  0
  1  2  1  0
  3  2  1  0
  4  3  1  0
  5  4  1  0
  5  1  1  0
  6 12  1  0
  5  6  1  1
  7  6  2  0
  9  8  1  6
  9 11  1  0
 10  9  1  0
 11 12  1  6
 13 14  2  0
 13 11  1  0
 15 13  1  0
 16 15  1  0
 16 17  1  6
 18 17  1  0
 19 18  1  0
 20 19  1  0
 20 21  1  0
 22 16  1  0
 23 22  1  0
 24 22  2  0
M  END
$$$$
