HWD.pdb
     RDKit          3D

 33 35  0  0  1  0  0  0  0  0999 V2000
    7.0618  -15.4184   20.4813 N   0  0  0  0  0  0  0  0  0  0  0  0
    8.2262  -16.2489   20.7240 C   0  0  1  0  0  0  0  0  0  0  0  0
    9.2839  -16.0775   19.6859 C   0  0  0  0  0  0  0  0  0  0  0  0
    8.7701  -16.3180   18.3143 C   0  0  0  0  0  0  0  0  0  0  0  0
    8.3915  -17.5652   17.8385 C   0  0  0  0  0  0  0  0  0  0  0  0
    7.9744  -17.4487   16.5663 N   0  0  0  0  0  0  0  0  0  0  0  0
    8.0856  -16.1509   16.2390 C   0  0  0  0  0  0  0  0  0  0  0  0
    8.5654  -15.4799   17.2986 N   0  0  0  0  0  0  0  0  0  0  0  0
    8.8235  -15.9536   22.0678 C   0  0  0  0  0  0  0  0  0  0  0  0
    9.4900  -14.9077   22.2637 O   0  0  0  0  0  0  0  0  0  0  0  0
    8.6078  -16.8935   23.1003 N   0  0  0  0  0  0  0  0  0  0  0  0
    9.2211  -16.8002   24.4115 C   0  0  1  0  0  0  0  0  0  0  0  0
    8.2009  -16.6726   25.5035 C   0  0  0  0  0  0  0  0  0  0  0  0
    7.3139  -15.5182   25.4165 C   0  0  0  0  0  0  0  0  0  0  0  0
    5.9970  -15.5766   24.9529 C   0  0  0  0  0  0  0  0  0  0  0  0
    5.5493  -14.3142   24.9989 N   0  0  0  0  0  0  0  0  0  0  0  0
    6.4882  -13.4799   25.4561 C   0  0  0  0  0  0  0  0  0  0  0  0
    6.4755  -12.1071   25.6856 C   0  0  0  0  0  0  0  0  0  0  0  0
    7.6000  -11.4747   26.1912 C   0  0  0  0  0  0  0  0  0  0  0  0
    8.7485  -12.2011   26.4739 C   0  0  0  0  0  0  0  0  0  0  0  0
    8.7455  -13.5495   26.2423 C   0  0  0  0  0  0  0  0  0  0  0  0
    7.6394  -14.1999   25.7392 C   0  0  0  0  0  0  0  0  0  0  0  0
   10.2620  -17.7728   24.6784 C   0  0  0  0  0  0  0  0  0  0  0  0
    9.9980  -18.9959   24.4983 O   0  0  0  0  0  0  0  0  0  0  0  0
   11.5656  -17.4852   25.1276 N   0  0  0  0  0  0  0  0  0  0  0  0
   12.5609  -18.5159   25.4688 C   0  0  1  0  0  0  0  0  0  0  0  0
   13.9288  -17.9304   25.5466 C   0  0  0  0  0  0  0  0  0  0  0  0
   14.9173  -18.9671   25.8892 C   0  0  0  0  0  0  0  0  0  0  0  0
   14.7346  -20.1627   25.5646 O   0  0  0  0  0  0  0  0  0  0  0  0
   12.1444  -19.0720   26.7674 C   0  0  0  0  0  0  0  0  0  0  0  0
   12.4570  -20.3555   27.1552 O   0  0  0  0  0  0  0  0  0  0  0  0
   16.0694  -18.6417   26.5774 O   0  0  0  0  0  0  0  0  0  0  0  0
   11.4810  -18.3565   27.5530 O   0  0  0  0  0  0  0  0  0  0  0  0
  2  1  1  6
  2  3  1  0
  3  4  1  0
  4  8  1  0
  5  4  2  0
  5  6  1  0
  6  7  1  0
  8  7  2  0
  9  2  1  0
  9 10  2  0
 11  9  1  0
 12 13  1  1
 12 11  1  0
 14 13  1  0
 14 15  2  0
 16 15  1  0
 17 16  1  0
 18 17  2  0
 19 18  1  0
 20 19  2  0
 20 21  1  0
 21 22  2  0
 22 17  1  0
 22 14  1  0
 23 12  1  0
 24 23  2  0
 25 23  1  0
 26 30  1  0
 26 25  1  0
 26 27  1  1
 28 27  1  0
 28 29  2  0
 30 31  1  0
 32 28  1  0
 33 30  2  0
M  END
$$$$
