HWD.pdb
     RDKit          3D

 33 35  0  0  1  0  0  0  0  0999 V2000
    7.8601  -16.6846   20.1737 N   0  0  0  0  0  0  0  0  0  0  0  0
    8.6221  -15.4510   20.2173 C   0  0  1  0  0  0  0  0  0  0  0  0
    7.8046  -14.2547   19.8617 C   0  0  0  0  0  0  0  0  0  0  0  0
    7.6344  -14.1055   18.3948 C   0  0  0  0  0  0  0  0  0  0  0  0
    8.2017  -14.9598   17.4601 C   0  0  0  0  0  0  0  0  0  0  0  0
    7.8618  -14.5565   16.2240 N   0  0  0  0  0  0  0  0  0  0  0  0
    7.0922  -13.4655   16.3700 C   0  0  0  0  0  0  0  0  0  0  0  0
    6.9620  -13.2034   17.6806 N   0  0  0  0  0  0  0  0  0  0  0  0
    9.2158  -15.2365   21.5779 C   0  0  0  0  0  0  0  0  0  0  0  0
    9.9008  -14.2151   21.8310 O   0  0  0  0  0  0  0  0  0  0  0  0
    8.9752  -16.2237   22.5596 N   0  0  0  0  0  0  0  0  0  0  0  0
    9.5869  -16.2135   23.8747 C   0  0  1  0  0  0  0  0  0  0  0  0
    8.5795  -16.4179   24.9669 C   0  0  0  0  0  0  0  0  0  0  0  0
    7.5612  -15.3820   25.0978 C   0  0  0  0  0  0  0  0  0  0  0  0
    6.2619  -15.4945   24.5961 C   0  0  0  0  0  0  0  0  0  0  0  0
    5.6665  -14.3308   24.8916 N   0  0  0  0  0  0  0  0  0  0  0  0
    6.4978  -13.5076   25.5382 C   0  0  0  0  0  0  0  0  0  0  0  0
    6.3206  -12.2247   26.0480 C   0  0  0  0  0  0  0  0  0  0  0  0
    7.3603  -11.5862   26.7050 C   0  0  0  0  0  0  0  0  0  0  0  0
    8.5866  -12.2172   26.8617 C   0  0  0  0  0  0  0  0  0  0  0  0
    8.7452  -13.4779   26.3544 C   0  0  0  0  0  0  0  0  0  0  0  0
    7.7261  -14.1322   25.6967 C   0  0  0  0  0  0  0  0  0  0  0  0
   10.7826  -17.0218   24.0073 C   0  0  0  0  0  0  0  0  0  0  0  0
   10.6800  -18.2718   23.8488 O   0  0  0  0  0  0  0  0  0  0  0  0
   12.0745  -16.5437   24.3011 N   0  0  0  0  0  0  0  0  0  0  0  0
   13.2504  -17.4133   24.4751 C   0  0  1  0  0  0  0  0  0  0  0  0
   14.5108  -16.6200   24.4319 C   0  0  0  0  0  0  0  0  0  0  0  0
   15.6813  -17.4972   24.6042 C   0  0  0  0  0  0  0  0  0  0  0  0
   15.7144  -18.6356   24.0835 O   0  0  0  0  0  0  0  0  0  0  0  0
   13.0805  -18.0736   25.7806 C   0  0  0  0  0  0  0  0  0  0  0  0
   13.4577  -19.3790   26.0022 O   0  0  0  0  0  0  0  0  0  0  0  0
   16.7697  -17.0818   25.3456 O   0  0  0  0  0  0  0  0  0  0  0  0
   12.5749  -17.4298   26.7287 O   0  0  0  0  0  0  0  0  0  0  0  0
  2  1  1  1
  2  3  1  0
  3  4  1  0
  4  8  1  0
  5  4  2  0
  5  6  1  0
  6  7  1  0
  8  7  2  0
  9  2  1  0
  9 10  2  0
 11  9  1  0
 12 13  1  1
 12 11  1  0
 14 13  1  0
 14 15  2  0
 16 15  1  0
 17 16  1  0
 18 17  2  0
 19 18  1  0
 20 19  2  0
 20 21  1  0
 21 22  2  0
 22 17  1  0
 22 14  1  0
 23 12  1  0
 24 23  2  0
 25 23  1  0
 26 30  1  0
 26 25  1  0
 26 27  1  1
 28 27  1  0
 28 29  2  0
 30 31  1  0
 32 28  1  0
 33 30  2  0
M  END
$$$$
