HWD.pdb
     RDKit          3D

 33 35  0  0  1  0  0  0  0  0999 V2000
    8.0819  -14.7681   20.4458 N   0  0  0  0  0  0  0  0  0  0  0  0
    8.3752  -15.9719   21.2002 C   0  0  1  0  0  0  0  0  0  0  0  0
    9.1723  -16.9624   20.4194 C   0  0  0  0  0  0  0  0  0  0  0  0
    8.6007  -17.2073   19.0717 C   0  0  0  0  0  0  0  0  0  0  0  0
    7.2737  -17.5426   18.8442 C   0  0  0  0  0  0  0  0  0  0  0  0
    7.0733  -17.6975   17.5245 N   0  0  0  0  0  0  0  0  0  0  0  0
    8.2516  -17.4648   16.9234 C   0  0  0  0  0  0  0  0  0  0  0  0
    9.1635  -17.1706   17.8642 N   0  0  0  0  0  0  0  0  0  0  0  0
    9.1208  -15.6457   22.4601 C   0  0  0  0  0  0  0  0  0  0  0  0
    9.8585  -14.6322   22.5312 O   0  0  0  0  0  0  0  0  0  0  0  0
    8.9613  -16.5190   23.5592 N   0  0  0  0  0  0  0  0  0  0  0  0
    9.5957  -16.3122   24.8471 C   0  0  1  0  0  0  0  0  0  0  0  0
    8.5994  -16.2799   25.9679 C   0  0  0  0  0  0  0  0  0  0  0  0
    7.4802  -15.3600   25.8004 C   0  0  0  0  0  0  0  0  0  0  0  0
    6.2284  -15.7331   25.3040 C   0  0  0  0  0  0  0  0  0  0  0  0
    5.5077  -14.6035   25.2762 N   0  0  0  0  0  0  0  0  0  0  0  0
    6.2176  -13.5608   25.7183 C   0  0  0  0  0  0  0  0  0  0  0  0
    5.8887  -12.2181   25.8804 C   0  0  0  0  0  0  0  0  0  0  0  0
    6.8228  -11.3279   26.3858 C   0  0  0  0  0  0  0  0  0  0  0  0
    8.0934  -11.7642   26.7350 C   0  0  0  0  0  0  0  0  0  0  0  0
    8.4015  -13.0868   26.5691 C   0  0  0  0  0  0  0  0  0  0  0  0
    7.4893  -13.9902   26.0677 C   0  0  0  0  0  0  0  0  0  0  0  0
   10.7569  -17.1402   25.1050 C   0  0  0  0  0  0  0  0  0  0  0  0
   11.1516  -17.2612   26.2999 O   0  0  0  0  0  0  0  0  0  0  0  0
   11.5051  -17.8382   24.1371 N   0  0  0  0  0  0  0  0  0  0  0  0
   12.6260  -18.7377   24.4595 C   0  0  1  0  0  0  0  0  0  0  0  0
   12.9680  -19.6013   23.2945 C   0  0  0  0  0  0  0  0  0  0  0  0
   11.7456  -20.0598   22.6130 C   0  0  0  0  0  0  0  0  0  0  0  0
   10.7958  -20.5567   23.2604 O   0  0  0  0  0  0  0  0  0  0  0  0
   13.7554  -17.8671   24.8275 C   0  0  0  0  0  0  0  0  0  0  0  0
   14.9713  -18.3680   25.2352 O   0  0  0  0  0  0  0  0  0  0  0  0
   11.6207  -19.9512   21.2420 O   0  0  0  0  0  0  0  0  0  0  0  0
   13.6117  -16.6240   24.7700 O   0  0  0  0  0  0  0  0  0  0  0  0
  2  1  1  6
  2  3  1  0
  3  4  1  0
  4  8  1  0
  5  4  2  0
  5  6  1  0
  6  7  1  0
  8  7  2  0
  9  2  1  0
  9 10  2  0
 11  9  1  0
 12 13  1  1
 12 11  1  0
 14 13  1  0
 14 15  2  0
 16 15  1  0
 17 16  1  0
 18 17  2  0
 19 18  1  0
 20 19  2  0
 20 21  1  0
 21 22  2  0
 22 17  1  0
 22 14  1  0
 23 12  1  0
 24 23  2  0
 25 23  1  0
 26 30  1  0
 26 25  1  0
 26 27  1  6
 28 27  1  0
 28 29  2  0
 30 31  1  0
 32 28  1  0
 33 30  2  0
M  END
$$$$
