HWD.pdb
     RDKit          3D

 33 35  0  0  1  0  0  0  0  0999 V2000
    8.1403  -16.4223   21.0489 N   0  0  0  0  0  0  0  0  0  0  0  0
    9.2024  -15.4700   21.3123 C   0  0  1  0  0  0  0  0  0  0  0  0
    8.8552  -14.0844   20.8814 C   0  0  0  0  0  0  0  0  0  0  0  0
    8.6355  -13.9893   19.4166 C   0  0  0  0  0  0  0  0  0  0  0  0
    7.5112  -13.4166   18.8393 C   0  0  0  0  0  0  0  0  0  0  0  0
    7.6130  -13.4867   17.5011 N   0  0  0  0  0  0  0  0  0  0  0  0
    8.7809  -14.0930   17.2322 C   0  0  0  0  0  0  0  0  0  0  0  0
    9.3877  -14.3909   18.3925 N   0  0  0  0  0  0  0  0  0  0  0  0
    9.5481  -15.4438   22.7716 C   0  0  0  0  0  0  0  0  0  0  0  0
   10.3827  -14.6221   23.2240 O   0  0  0  0  0  0  0  0  0  0  0  0
    8.9007  -16.3753   23.6139 N   0  0  0  0  0  0  0  0  0  0  0  0
    9.2598  -16.5855   25.0034 C   0  0  1  0  0  0  0  0  0  0  0  0
    8.0637  -16.5443   25.9075 C   0  0  0  0  0  0  0  0  0  0  0  0
    7.2123  -15.3665   25.7859 C   0  0  0  0  0  0  0  0  0  0  0  0
    5.9884  -15.3522   25.1117 C   0  0  0  0  0  0  0  0  0  0  0  0
    5.5494  -14.0892   25.2020 N   0  0  0  0  0  0  0  0  0  0  0  0
    6.4076  -13.3216   25.8811 C   0  0  0  0  0  0  0  0  0  0  0  0
    6.3686  -11.9754   26.2324 C   0  0  0  0  0  0  0  0  0  0  0  0
    7.4004  -11.4176   26.9703 C   0  0  0  0  0  0  0  0  0  0  0  0
    8.4813  -12.1930   27.3662 C   0  0  0  0  0  0  0  0  0  0  0  0
    8.5053  -13.5144   27.0125 C   0  0  0  0  0  0  0  0  0  0  0  0
    7.4912  -14.0908   26.2785 C   0  0  0  0  0  0  0  0  0  0  0  0
   10.1555  -17.6981   25.2496 C   0  0  0  0  0  0  0  0  0  0  0  0
    9.6917  -18.8706   25.1579 O   0  0  0  0  0  0  0  0  0  0  0  0
   11.5194  -17.6014   25.5877 N   0  0  0  0  0  0  0  0  0  0  0  0
   12.3354  -18.7424   26.0367 C   0  0  1  0  0  0  0  0  0  0  0  0
   13.7860  -18.4032   26.0099 C   0  0  0  0  0  0  0  0  0  0  0  0
   14.1747  -17.8947   24.6835 C   0  0  0  0  0  0  0  0  0  0  0  0
   14.9930  -16.9536   24.5697 O   0  0  0  0  0  0  0  0  0  0  0  0
   11.8856  -19.0531   27.4043 C   0  0  0  0  0  0  0  0  0  0  0  0
   12.3759  -20.1241   28.1171 O   0  0  0  0  0  0  0  0  0  0  0  0
   13.6437  -18.4463   23.5344 O   0  0  0  0  0  0  0  0  0  0  0  0
   11.0257  -18.3203   27.9450 O   0  0  0  0  0  0  0  0  0  0  0  0
  2  1  1  1
  2  3  1  0
  3  4  1  0
  4  8  1  0
  5  4  2  0
  5  6  1  0
  6  7  1  0
  8  7  2  0
  9  2  1  0
  9 10  2  0
 11  9  1  0
 12 13  1  1
 12 11  1  0
 14 13  1  0
 14 15  2  0
 16 15  1  0
 17 16  1  0
 18 17  2  0
 19 18  1  0
 20 19  2  0
 20 21  1  0
 21 22  2  0
 22 17  1  0
 22 14  1  0
 23 12  1  0
 24 23  2  0
 25 23  1  0
 26 30  1  0
 26 25  1  0
 26 27  1  1
 28 27  1  0
 28 29  2  0
 30 31  1  0
 32 28  1  0
 33 30  2  0
M  END
$$$$
