HWD.pdb
     RDKit          3D

 33 35  0  0  1  0  0  0  0  0999 V2000
    8.7578  -17.1727   19.1435 N   0  0  0  0  0  0  0  0  0  0  0  0
    9.9572  -16.4291   19.4793 C   0  0  1  0  0  0  0  0  0  0  0  0
   10.2051  -15.2852   18.5541 C   0  0  0  0  0  0  0  0  0  0  0  0
    9.0624  -14.3389   18.5110 C   0  0  0  0  0  0  0  0  0  0  0  0
    9.1114  -13.0447   19.0085 C   0  0  0  0  0  0  0  0  0  0  0  0
    7.9215  -12.4494   18.8196 N   0  0  0  0  0  0  0  0  0  0  0  0
    7.1299  -13.3489   18.2128 C   0  0  0  0  0  0  0  0  0  0  0  0
    7.8270  -14.4823   18.0319 N   0  0  0  0  0  0  0  0  0  0  0  0
    9.8852  -15.9021   20.8818 C   0  0  0  0  0  0  0  0  0  0  0  0
   10.8057  -15.1902   21.3533 O   0  0  0  0  0  0  0  0  0  0  0  0
    8.7462  -16.2360   21.6482 N   0  0  0  0  0  0  0  0  0  0  0  0
    8.5875  -15.8819   23.0458 C   0  0  1  0  0  0  0  0  0  0  0  0
    7.1590  -15.5852   23.3937 C   0  0  0  0  0  0  0  0  0  0  0  0
    6.9125  -15.1539   24.7649 C   0  0  0  0  0  0  0  0  0  0  0  0
    6.5658  -16.0184   25.8065 C   0  0  0  0  0  0  0  0  0  0  0  0
    6.3965  -15.2315   26.8781 N   0  0  0  0  0  0  0  0  0  0  0  0
    6.6129  -13.9467   26.5790 C   0  0  0  0  0  0  0  0  0  0  0  0
    6.5700  -12.7943   27.3582 C   0  0  0  0  0  0  0  0  0  0  0  0
    6.8597  -11.5615   26.7956 C   0  0  0  0  0  0  0  0  0  0  0  0
    7.1950  -11.4625   25.4524 C   0  0  0  0  0  0  0  0  0  0  0  0
    7.2321  -12.6043   24.6996 C   0  0  0  0  0  0  0  0  0  0  0  0
    6.9471  -13.8410   25.2370 C   0  0  0  0  0  0  0  0  0  0  0  0
    9.2613  -16.7554   23.9859 C   0  0  0  0  0  0  0  0  0  0  0  0
    9.0382  -17.9976   23.9134 O   0  0  0  0  0  0  0  0  0  0  0  0
   10.1585  -16.3499   24.9931 N   0  0  0  0  0  0  0  0  0  0  0  0
   10.8892  -17.2855   25.8650 C   0  0  1  0  0  0  0  0  0  0  0  0
   12.3228  -16.8965   25.9809 C   0  0  0  0  0  0  0  0  0  0  0  0
   13.1388  -17.6258   24.9953 C   0  0  0  0  0  0  0  0  0  0  0  0
   12.6196  -18.1154   23.9663 O   0  0  0  0  0  0  0  0  0  0  0  0
   10.2155  -17.2351   27.1736 C   0  0  0  0  0  0  0  0  0  0  0  0
   10.2196  -18.2991   28.0474 O   0  0  0  0  0  0  0  0  0  0  0  0
   14.4971  -17.7854   25.1856 O   0  0  0  0  0  0  0  0  0  0  0  0
    9.6148  -16.1889   27.5108 O   0  0  0  0  0  0  0  0  0  0  0  0
  2  1  1  6
  2  3  1  0
  3  4  1  0
  4  8  1  0
  5  4  2  0
  5  6  1  0
  6  7  1  0
  8  7  2  0
  9  2  1  0
  9 10  2  0
 11  9  1  0
 12 13  1  1
 12 11  1  0
 14 13  1  0
 14 15  2  0
 16 15  1  0
 17 16  1  0
 18 17  2  0
 19 18  1  0
 20 19  2  0
 20 21  1  0
 21 22  2  0
 22 17  1  0
 22 14  1  0
 23 12  1  0
 24 23  2  0
 25 23  1  0
 26 30  1  0
 26 25  1  0
 26 27  1  1
 28 27  1  0
 28 29  2  0
 30 31  1  0
 32 28  1  0
 33 30  2  0
M  END
$$$$
