HWD.pdb
     RDKit          3D

 33 35  0  0  1  0  0  0  0  0999 V2000
    8.2422  -16.5920   20.5972 N   0  0  0  0  0  0  0  0  0  0  0  0
    9.1933  -15.5415   20.9076 C   0  0  1  0  0  0  0  0  0  0  0  0
    8.6910  -14.1835   20.5476 C   0  0  0  0  0  0  0  0  0  0  0  0
    8.4836  -14.0297   19.0860 C   0  0  0  0  0  0  0  0  0  0  0  0
    8.7343  -15.0321   18.1600 C   0  0  0  0  0  0  0  0  0  0  0  0
    8.4485  -14.5810   16.9268 N   0  0  0  0  0  0  0  0  0  0  0  0
    8.0236  -13.3146   17.0660 C   0  0  0  0  0  0  0  0  0  0  0  0
    8.0487  -12.9935   18.3696 N   0  0  0  0  0  0  0  0  0  0  0  0
    9.5433  -15.5502   22.3660 C   0  0  0  0  0  0  0  0  0  0  0  0
   10.4156  -14.7734   22.8265 O   0  0  0  0  0  0  0  0  0  0  0  0
    8.8560  -16.4620   23.1982 N   0  0  0  0  0  0  0  0  0  0  0  0
    9.1682  -16.6608   24.6007 C   0  0  1  0  0  0  0  0  0  0  0  0
    7.9462  -16.5829   25.4669 C   0  0  0  0  0  0  0  0  0  0  0  0
    7.1709  -15.3518   25.3674 C   0  0  0  0  0  0  0  0  0  0  0  0
    5.9709  -15.2380   24.6605 C   0  0  0  0  0  0  0  0  0  0  0  0
    5.6057  -13.9547   24.7873 N   0  0  0  0  0  0  0  0  0  0  0  0
    6.4875  -13.2665   25.5191 C   0  0  0  0  0  0  0  0  0  0  0  0
    6.5186  -11.9343   25.9210 C   0  0  0  0  0  0  0  0  0  0  0  0
    7.5593  -11.4680   26.7082 C   0  0  0  0  0  0  0  0  0  0  0  0
    8.5795  -12.3220   27.1038 C   0  0  0  0  0  0  0  0  0  0  0  0
    8.5350  -13.6285   26.7001 C   0  0  0  0  0  0  0  0  0  0  0  0
    7.5107  -14.1145   25.9165 C   0  0  0  0  0  0  0  0  0  0  0  0
   10.0326  -17.7880   24.8885 C   0  0  0  0  0  0  0  0  0  0  0  0
    9.7105  -18.9210   24.4294 O   0  0  0  0  0  0  0  0  0  0  0  0
   11.2203  -17.7463   25.6444 N   0  0  0  0  0  0  0  0  0  0  0  0
   12.0451  -18.9300   25.9410 C   0  0  1  0  0  0  0  0  0  0  0  0
   13.4957  -18.5922   25.9009 C   0  0  0  0  0  0  0  0  0  0  0  0
   14.3074  -19.7412   26.3367 C   0  0  0  0  0  0  0  0  0  0  0  0
   14.0776  -20.8930   25.9024 O   0  0  0  0  0  0  0  0  0  0  0  0
   11.6403  -19.3843   27.2822 C   0  0  0  0  0  0  0  0  0  0  0  0
   10.7355  -18.6911   28.0545 O   0  0  0  0  0  0  0  0  0  0  0  0
   15.3417  -19.5722   27.2359 O   0  0  0  0  0  0  0  0  0  0  0  0
   12.1332  -20.4394   27.7436 O   0  0  0  0  0  0  0  0  0  0  0  0
  2  1  1  1
  2  3  1  0
  3  4  1  0
  4  8  1  0
  5  4  2  0
  5  6  1  0
  6  7  1  0
  8  7  2  0
  9  2  1  0
  9 10  2  0
 11  9  1  0
 12 13  1  1
 12 11  1  0
 14 13  1  0
 14 15  2  0
 16 15  1  0
 17 16  1  0
 18 17  2  0
 19 18  1  0
 20 19  2  0
 20 21  1  0
 21 22  2  0
 22 17  1  0
 22 14  1  0
 23 12  1  0
 24 23  2  0
 25 23  1  0
 26 30  1  0
 26 25  1  0
 26 27  1  1
 28 27  1  0
 28 29  2  0
 30 31  1  0
 32 28  1  0
 33 30  2  0
M  END
$$$$
