HWD.pdb
     RDKit          3D

 33 35  0  0  1  0  0  0  0  0999 V2000
    7.6209  -16.2084   20.5841 N   0  0  0  0  0  0  0  0  0  0  0  0
    8.8357  -15.4192   20.6609 C   0  0  1  0  0  0  0  0  0  0  0  0
    8.6599  -14.0361   20.1300 C   0  0  0  0  0  0  0  0  0  0  0  0
    8.3636  -14.0253   18.6756 C   0  0  0  0  0  0  0  0  0  0  0  0
    8.3273  -15.1655   17.8858 C   0  0  0  0  0  0  0  0  0  0  0  0
    8.0340  -14.8215   16.6202 N   0  0  0  0  0  0  0  0  0  0  0  0
    7.8864  -13.4866   16.6055 C   0  0  0  0  0  0  0  0  0  0  0  0
    8.0869  -13.0182   17.8479 N   0  0  0  0  0  0  0  0  0  0  0  0
    9.3268  -15.3290   22.0753 C   0  0  0  0  0  0  0  0  0  0  0  0
   10.2051  -14.4938   22.4030 O   0  0  0  0  0  0  0  0  0  0  0  0
    8.7649  -16.2162   23.0206 N   0  0  0  0  0  0  0  0  0  0  0  0
    9.3127  -16.4279   24.3469 C   0  0  1  0  0  0  0  0  0  0  0  0
    8.2420  -16.4941   25.3952 C   0  0  0  0  0  0  0  0  0  0  0  0
    7.3096  -15.3732   25.4267 C   0  0  0  0  0  0  0  0  0  0  0  0
    5.9777  -15.4516   25.0112 C   0  0  0  0  0  0  0  0  0  0  0  0
    5.4853  -14.2148   25.1662 N   0  0  0  0  0  0  0  0  0  0  0  0
    6.4103  -13.3779   25.6464 C   0  0  0  0  0  0  0  0  0  0  0  0
    6.3556  -12.0266   25.9754 C   0  0  0  0  0  0  0  0  0  0  0  0
    7.4755  -11.3869   26.4821 C   0  0  0  0  0  0  0  0  0  0  0  0
    8.6611  -12.0846   26.6666 C   0  0  0  0  0  0  0  0  0  0  0  0
    8.6991  -13.4121   26.3377 C   0  0  0  0  0  0  0  0  0  0  0  0
    7.5984  -14.0692   25.8317 C   0  0  0  0  0  0  0  0  0  0  0  0
   10.3090  -17.4759   24.4449 C   0  0  0  0  0  0  0  0  0  0  0  0
    9.9606  -18.6597   24.1703 O   0  0  0  0  0  0  0  0  0  0  0  0
   11.6547  -17.3035   24.8233 N   0  0  0  0  0  0  0  0  0  0  0  0
   12.6340  -18.4015   24.8919 C   0  0  1  0  0  0  0  0  0  0  0  0
   14.0238  -17.8860   24.7419 C   0  0  0  0  0  0  0  0  0  0  0  0
   15.0008  -18.9769   24.8994 C   0  0  0  0  0  0  0  0  0  0  0  0
   15.0267  -19.9382   24.0973 O   0  0  0  0  0  0  0  0  0  0  0  0
   12.4408  -19.0396   26.2052 C   0  0  0  0  0  0  0  0  0  0  0  0
   12.5115  -20.4033   26.3809 O   0  0  0  0  0  0  0  0  0  0  0  0
   15.9111  -18.9626   25.9376 O   0  0  0  0  0  0  0  0  0  0  0  0
   12.2031  -18.3212   27.2035 O   0  0  0  0  0  0  0  0  0  0  0  0
  2  1  1  1
  2  3  1  0
  3  4  1  0
  4  8  1  0
  5  4  2  0
  5  6  1  0
  6  7  1  0
  8  7  2  0
  9  2  1  0
  9 10  2  0
 11  9  1  0
 12 13  1  1
 12 11  1  0
 14 13  1  0
 14 15  2  0
 16 15  1  0
 17 16  1  0
 18 17  2  0
 19 18  1  0
 20 19  2  0
 20 21  1  0
 21 22  2  0
 22 17  1  0
 22 14  1  0
 23 12  1  0
 24 23  2  0
 25 23  1  0
 26 30  1  0
 26 25  1  0
 26 27  1  1
 28 27  1  0
 28 29  2  0
 30 31  1  0
 32 28  1  0
 33 30  2  0
M  END
$$$$
