HWD.pdb
     RDKit          3D

 33 35  0  0  1  0  0  0  0  0999 V2000
    7.8142  -14.7395   20.0763 N   0  0  0  0  0  0  0  0  0  0  0  0
    8.2467  -15.9813   20.6889 C   0  0  1  0  0  0  0  0  0  0  0  0
    9.1475  -16.7776   19.8054 C   0  0  0  0  0  0  0  0  0  0  0  0
    8.5112  -17.1099   18.5063 C   0  0  0  0  0  0  0  0  0  0  0  0
    8.6353  -16.3326   17.3637 C   0  0  0  0  0  0  0  0  0  0  0  0
    7.9439  -16.9008   16.3611 N   0  0  0  0  0  0  0  0  0  0  0  0
    7.3901  -18.0193   16.8572 C   0  0  0  0  0  0  0  0  0  0  0  0
    7.7384  -18.1351   18.1489 N   0  0  0  0  0  0  0  0  0  0  0  0
    8.9568  -15.7203   21.9841 C   0  0  0  0  0  0  0  0  0  0  0  0
    9.6906  -14.7117   22.1277 O   0  0  0  0  0  0  0  0  0  0  0  0
    8.7683  -16.6491   23.0320 N   0  0  0  0  0  0  0  0  0  0  0  0
    9.3514  -16.4993   24.3516 C   0  0  1  0  0  0  0  0  0  0  0  0
    8.3104  -16.4980   25.4314 C   0  0  0  0  0  0  0  0  0  0  0  0
    7.3137  -15.4361   25.3555 C   0  0  0  0  0  0  0  0  0  0  0  0
    6.0400  -15.5967   24.8038 C   0  0  0  0  0  0  0  0  0  0  0  0
    5.4600  -14.3919   24.8957 N   0  0  0  0  0  0  0  0  0  0  0  0
    6.2772  -13.4989   25.4627 C   0  0  0  0  0  0  0  0  0  0  0  0
    6.1066  -12.1528   25.7725 C   0  0  0  0  0  0  0  0  0  0  0  0
    7.1265  -11.4446   26.3878 C   0  0  0  0  0  0  0  0  0  0  0  0
    8.3263  -12.0682   26.7013 C   0  0  0  0  0  0  0  0  0  0  0  0
    8.4788  -13.3916   26.3898 C   0  0  0  0  0  0  0  0  0  0  0  0
    7.4790  -14.1159   25.7772 C   0  0  0  0  0  0  0  0  0  0  0  0
   10.4924  -17.3505   24.6242 C   0  0  0  0  0  0  0  0  0  0  0  0
   10.3453  -18.6012   24.5136 O   0  0  0  0  0  0  0  0  0  0  0  0
   11.7755  -16.9142   25.0079 N   0  0  0  0  0  0  0  0  0  0  0  0
   12.8507  -17.8187   25.4497 C   0  0  1  0  0  0  0  0  0  0  0  0
   14.1470  -17.0923   25.5580 C   0  0  0  0  0  0  0  0  0  0  0  0
   14.5531  -16.5590   24.2466 C   0  0  0  0  0  0  0  0  0  0  0  0
   14.1941  -17.1183   23.1854 O   0  0  0  0  0  0  0  0  0  0  0  0
   12.4264  -18.3499   26.7562 C   0  0  0  0  0  0  0  0  0  0  0  0
   11.5883  -17.6548   27.5988 O   0  0  0  0  0  0  0  0  0  0  0  0
   15.3405  -15.4279   24.1595 O   0  0  0  0  0  0  0  0  0  0  0  0
   12.8393  -19.4750   27.1206 O   0  0  0  0  0  0  0  0  0  0  0  0
  2  1  1  6
  2  3  1  0
  3  4  1  0
  4  8  1  0
  5  4  2  0
  5  6  1  0
  6  7  1  0
  8  7  2  0
  9  2  1  0
  9 10  2  0
 11  9  1  0
 12 13  1  1
 12 11  1  0
 14 13  1  0
 14 15  2  0
 16 15  1  0
 17 16  1  0
 18 17  2  0
 19 18  1  0
 20 19  2  0
 20 21  1  0
 21 22  2  0
 22 17  1  0
 22 14  1  0
 23 12  1  0
 24 23  2  0
 25 23  1  0
 26 30  1  0
 26 25  1  0
 26 27  1  1
 28 27  1  0
 28 29  2  0
 30 31  1  0
 32 28  1  0
 33 30  2  0
M  END
$$$$
