HWD.pdb
     RDKit          3D

 33 35  0  0  1  0  0  0  0  0999 V2000
   10.5774  -16.0586   19.9092 N   0  0  0  0  0  0  0  0  0  0  0  0
    9.8629  -16.9805   20.7717 C   0  0  1  0  0  0  0  0  0  0  0  0
   10.2584  -18.4020   20.5506 C   0  0  0  0  0  0  0  0  0  0  0  0
    9.8214  -18.9079   19.2254 C   0  0  0  0  0  0  0  0  0  0  0  0
    9.0992  -18.1551   18.3105 C   0  0  0  0  0  0  0  0  0  0  0  0
    8.8598  -18.8954   17.2148 N   0  0  0  0  0  0  0  0  0  0  0  0
    9.4197  -20.0973   17.4289 C   0  0  0  0  0  0  0  0  0  0  0  0
    9.9957  -20.0933   18.6420 N   0  0  0  0  0  0  0  0  0  0  0  0
   10.0837  -16.6425   22.2162 C   0  0  0  0  0  0  0  0  0  0  0  0
   11.1340  -16.0667   22.5926 O   0  0  0  0  0  0  0  0  0  0  0  0
    9.0681  -16.9951   23.1331 N   0  0  0  0  0  0  0  0  0  0  0  0
    9.1160  -16.6730   24.5465 C   0  0  1  0  0  0  0  0  0  0  0  0
    7.7967  -16.1737   25.0562 C   0  0  0  0  0  0  0  0  0  0  0  0
    7.3837  -14.8595   24.5774 C   0  0  0  0  0  0  0  0  0  0  0  0
    7.0042  -14.5906   23.2598 C   0  0  0  0  0  0  0  0  0  0  0  0
    6.7375  -13.2776   23.2292 N   0  0  0  0  0  0  0  0  0  0  0  0
    6.9222  -12.7141   24.4272 C   0  0  0  0  0  0  0  0  0  0  0  0
    6.7581  -11.4050   24.8705 C   0  0  0  0  0  0  0  0  0  0  0  0
    7.0054  -11.0816   26.1951 C   0  0  0  0  0  0  0  0  0  0  0  0
    7.4184  -12.0570   27.0921 C   0  0  0  0  0  0  0  0  0  0  0  0
    7.5758  -13.3389   26.6409 C   0  0  0  0  0  0  0  0  0  0  0  0
    7.3366  -13.6839   25.3282 C   0  0  0  0  0  0  0  0  0  0  0  0
    9.7405  -17.6740   25.3885 C   0  0  0  0  0  0  0  0  0  0  0  0
    9.1253  -18.7614   25.5813 O   0  0  0  0  0  0  0  0  0  0  0  0
   10.9904  -17.5536   26.0265 N   0  0  0  0  0  0  0  0  0  0  0  0
   11.5725  -18.5937   26.8918 C   0  0  1  0  0  0  0  0  0  0  0  0
   13.0607  -18.5214   26.8843 C   0  0  0  0  0  0  0  0  0  0  0  0
   13.5739  -18.5519   25.5041 C   0  0  0  0  0  0  0  0  0  0  0  0
   13.2759  -19.4879   24.7274 O   0  0  0  0  0  0  0  0  0  0  0  0
   11.0337  -18.3514   28.2409 C   0  0  0  0  0  0  0  0  0  0  0  0
   10.2001  -17.2928   28.5236 O   0  0  0  0  0  0  0  0  0  0  0  0
   14.3966  -17.5464   25.0362 O   0  0  0  0  0  0  0  0  0  0  0  0
   11.3411  -19.1332   29.1701 O   0  0  0  0  0  0  0  0  0  0  0  0
  2  1  1  6
  2  3  1  0
  3  4  1  0
  4  8  1  0
  5  4  2  0
  5  6  1  0
  6  7  1  0
  8  7  2  0
  9  2  1  0
  9 10  2  0
 11  9  1  0
 12 13  1  1
 12 11  1  0
 14 13  1  0
 14 15  2  0
 16 15  1  0
 17 16  1  0
 18 17  2  0
 19 18  1  0
 20 19  2  0
 20 21  1  0
 21 22  2  0
 22 17  1  0
 22 14  1  0
 23 12  1  0
 24 23  2  0
 25 23  1  0
 26 30  1  0
 26 25  1  0
 26 27  1  1
 28 27  1  0
 28 29  2  0
 30 31  1  0
 32 28  1  0
 33 30  2  0
M  END
$$$$
