HWD.pdb
     RDKit          3D

 33 35  0  0  1  0  0  0  0  0999 V2000
    8.5118  -16.6331   20.3738 N   0  0  0  0  0  0  0  0  0  0  0  0
    9.3735  -15.5094   20.6884 C   0  0  1  0  0  0  0  0  0  0  0  0
    8.8165  -14.2065   20.2214 C   0  0  0  0  0  0  0  0  0  0  0  0
    8.6174  -14.1747   18.7509 C   0  0  0  0  0  0  0  0  0  0  0  0
    9.0526  -15.1722   17.8902 C   0  0  0  0  0  0  0  0  0  0  0  0
    8.7215  -14.8479   16.6288 N   0  0  0  0  0  0  0  0  0  0  0  0
    8.0871  -13.6655   16.6861 C   0  0  0  0  0  0  0  0  0  0  0  0
    8.0302  -13.2699   17.9681 N   0  0  0  0  0  0  0  0  0  0  0  0
    9.6204  -15.4213   22.1653 C   0  0  0  0  0  0  0  0  0  0  0  0
   10.3562  -14.5245   22.6458 O   0  0  0  0  0  0  0  0  0  0  0  0
    8.9952  -16.3821   22.9913 N   0  0  0  0  0  0  0  0  0  0  0  0
    9.2714  -16.5235   24.4083 C   0  0  1  0  0  0  0  0  0  0  0  0
    8.0194  -16.4858   25.2333 C   0  0  0  0  0  0  0  0  0  0  0  0
    7.2051  -15.2830   25.1026 C   0  0  0  0  0  0  0  0  0  0  0  0
    6.1968  -15.1208   24.1489 C   0  0  0  0  0  0  0  0  0  0  0  0
    5.7244  -13.8813   24.3406 N   0  0  0  0  0  0  0  0  0  0  0  0
    6.3627  -13.2651   25.3404 C   0  0  0  0  0  0  0  0  0  0  0  0
    6.2077  -11.9992   25.8977 C   0  0  0  0  0  0  0  0  0  0  0  0
    7.0026  -11.6040   26.9618 C   0  0  0  0  0  0  0  0  0  0  0  0
    7.9598  -12.4640   27.4823 C   0  0  0  0  0  0  0  0  0  0  0  0
    8.1005  -13.7047   26.9231 C   0  0  0  0  0  0  0  0  0  0  0  0
    7.3220  -14.1192   25.8640 C   0  0  0  0  0  0  0  0  0  0  0  0
   10.1835  -17.5946   24.7570 C   0  0  0  0  0  0  0  0  0  0  0  0
    9.9235  -18.7602   24.3423 O   0  0  0  0  0  0  0  0  0  0  0  0
   11.3551  -17.4636   25.5278 N   0  0  0  0  0  0  0  0  0  0  0  0
   12.1476  -18.6056   26.0148 C   0  0  1  0  0  0  0  0  0  0  0  0
   13.6054  -18.3014   25.9669 C   0  0  0  0  0  0  0  0  0  0  0  0
   14.0094  -17.9153   24.6042 C   0  0  0  0  0  0  0  0  0  0  0  0
   13.6256  -18.5713   23.6091 O   0  0  0  0  0  0  0  0  0  0  0  0
   11.7000  -18.8541   27.3957 C   0  0  0  0  0  0  0  0  0  0  0  0
   10.7949  -18.0382   28.0364 O   0  0  0  0  0  0  0  0  0  0  0  0
   14.8223  -16.8188   24.3947 O   0  0  0  0  0  0  0  0  0  0  0  0
   12.1553  -19.8425   28.0162 O   0  0  0  0  0  0  0  0  0  0  0  0
  2  1  1  1
  2  3  1  0
  3  4  1  0
  4  8  1  0
  5  4  2  0
  5  6  1  0
  6  7  1  0
  8  7  2  0
  9  2  1  0
  9 10  2  0
 11  9  1  0
 12 13  1  1
 12 11  1  0
 14 13  1  0
 14 15  2  0
 16 15  1  0
 17 16  1  0
 18 17  2  0
 19 18  1  0
 20 19  2  0
 20 21  1  0
 21 22  2  0
 22 17  1  0
 22 14  1  0
 23 12  1  0
 24 23  2  0
 25 23  1  0
 26 30  1  0
 26 25  1  0
 26 27  1  1
 28 27  1  0
 28 29  2  0
 30 31  1  0
 32 28  1  0
 33 30  2  0
M  END
$$$$
