HWD.pdb
     RDKit          3D

 33 35  0  0  1  0  0  0  0  0999 V2000
    8.9594  -16.4557   17.9553 N   0  0  0  0  0  0  0  0  0  0  0  0
    8.5257  -17.2097   19.1162 C   0  0  1  0  0  0  0  0  0  0  0  0
    9.0217  -18.6167   19.1089 C   0  0  0  0  0  0  0  0  0  0  0  0
    8.5773  -19.3636   17.9057 C   0  0  0  0  0  0  0  0  0  0  0  0
    7.3215  -19.9387   17.7731 C   0  0  0  0  0  0  0  0  0  0  0  0
    7.2311  -20.5398   16.5746 N   0  0  0  0  0  0  0  0  0  0  0  0
    8.4082  -20.3504   15.9561 C   0  0  0  0  0  0  0  0  0  0  0  0
    9.2105  -19.6413   16.7664 N   0  0  0  0  0  0  0  0  0  0  0  0
    8.9807  -16.5495   20.3838 C   0  0  0  0  0  0  0  0  0  0  0  0
   10.1715  -16.1789   20.5288 O   0  0  0  0  0  0  0  0  0  0  0  0
    8.0214  -16.3610   21.4039 N   0  0  0  0  0  0  0  0  0  0  0  0
    8.3274  -15.7746   22.6948 C   0  0  1  0  0  0  0  0  0  0  0  0
    7.0879  -15.4408   23.4706 C   0  0  0  0  0  0  0  0  0  0  0  0
    7.2923  -15.0369   24.8569 C   0  0  0  0  0  0  0  0  0  0  0  0
    7.5894  -15.9243   25.8946 C   0  0  0  0  0  0  0  0  0  0  0  0
    7.6628  -15.1669   26.9979 N   0  0  0  0  0  0  0  0  0  0  0  0
    7.4347  -13.8791   26.7217 C   0  0  0  0  0  0  0  0  0  0  0  0
    7.4214  -12.7464   27.5305 C   0  0  0  0  0  0  0  0  0  0  0  0
    7.1698  -11.4999   26.9799 C   0  0  0  0  0  0  0  0  0  0  0  0
    6.9290  -11.3673   25.6194 C   0  0  0  0  0  0  0  0  0  0  0  0
    6.9448  -12.4901   24.8379 C   0  0  0  0  0  0  0  0  0  0  0  0
    7.1918  -13.7401   25.3632 C   0  0  0  0  0  0  0  0  0  0  0  0
    9.3439  -16.4655   23.4629 C   0  0  0  0  0  0  0  0  0  0  0  0
    9.3011  -17.7280   23.5122 O   0  0  0  0  0  0  0  0  0  0  0  0
   10.3966  -15.8580   24.1748 N   0  0  0  0  0  0  0  0  0  0  0  0
   11.6666  -16.5323   24.4937 C   0  0  1  0  0  0  0  0  0  0  0  0
   12.8300  -15.6677   24.1491 C   0  0  0  0  0  0  0  0  0  0  0  0
   14.0958  -16.3673   24.4271 C   0  0  0  0  0  0  0  0  0  0  0  0
   14.6652  -16.2508   25.5364 O   0  0  0  0  0  0  0  0  0  0  0  0
   11.6251  -16.8197   25.9376 C   0  0  0  0  0  0  0  0  0  0  0  0
   12.5295  -17.6581   26.5497 O   0  0  0  0  0  0  0  0  0  0  0  0
   14.6830  -17.1687   23.4680 O   0  0  0  0  0  0  0  0  0  0  0  0
   10.7370  -16.2850   26.6408 O   0  0  0  0  0  0  0  0  0  0  0  0
  2  1  1  6
  2  3  1  0
  3  4  1  0
  4  8  1  0
  5  4  2  0
  5  6  1  0
  6  7  1  0
  8  7  2  0
  9  2  1  0
  9 10  2  0
 11  9  1  0
 12 13  1  1
 12 11  1  0
 14 13  1  0
 14 15  2  0
 16 15  1  0
 17 16  1  0
 18 17  2  0
 19 18  1  0
 20 19  2  0
 20 21  1  0
 21 22  2  0
 22 17  1  0
 22 14  1  0
 23 12  1  0
 24 23  2  0
 25 23  1  0
 26 30  1  0
 26 25  1  0
 26 27  1  1
 28 27  1  0
 28 29  2  0
 30 31  1  0
 32 28  1  0
 33 30  2  0
M  END
$$$$
