HWD.pdb
     RDKit          3D

 33 35  0  0  1  0  0  0  0  0999 V2000
    8.3487  -16.3981   21.5696 N   0  0  0  0  0  0  0  0  0  0  0  0
    9.5907  -15.6592   21.6958 C   0  0  1  0  0  0  0  0  0  0  0  0
    9.4702  -14.2450   21.2361 C   0  0  0  0  0  0  0  0  0  0  0  0
    8.6432  -14.1207   20.0099 C   0  0  0  0  0  0  0  0  0  0  0  0
    7.3900  -14.6973   19.8611 C   0  0  0  0  0  0  0  0  0  0  0  0
    6.9054  -14.4019   18.6429 N   0  0  0  0  0  0  0  0  0  0  0  0
    7.8337  -13.6508   18.0281 C   0  0  0  0  0  0  0  0  0  0  0  0
    8.8751  -13.4880   18.8601 N   0  0  0  0  0  0  0  0  0  0  0  0
   10.0720  -15.6602   23.1164 C   0  0  0  0  0  0  0  0  0  0  0  0
   11.1994  -15.1970   23.4177 O   0  0  0  0  0  0  0  0  0  0  0  0
    9.2111  -16.1998   24.0983 N   0  0  0  0  0  0  0  0  0  0  0  0
    9.5633  -16.3102   25.5011 C   0  0  1  0  0  0  0  0  0  0  0  0
    8.3592  -16.2356   26.3923 C   0  0  0  0  0  0  0  0  0  0  0  0
    7.3626  -15.2323   26.0357 C   0  0  0  0  0  0  0  0  0  0  0  0
    6.1930  -15.5102   25.3234 C   0  0  0  0  0  0  0  0  0  0  0  0
    5.5790  -14.3281   25.1761 N   0  0  0  0  0  0  0  0  0  0  0  0
    6.2789  -13.3407   25.7434 C   0  0  0  0  0  0  0  0  0  0  0  0
    6.0326  -11.9752   25.8537 C   0  0  0  0  0  0  0  0  0  0  0  0
    6.9293  -11.1570   26.5220 C   0  0  0  0  0  0  0  0  0  0  0  0
    8.0801  -11.6886   27.0874 C   0  0  0  0  0  0  0  0  0  0  0  0
    8.3084  -13.0324   26.9699 C   0  0  0  0  0  0  0  0  0  0  0  0
    7.4314  -13.8655   26.3093 C   0  0  0  0  0  0  0  0  0  0  0  0
   10.4803  -17.3845   25.8261 C   0  0  0  0  0  0  0  0  0  0  0  0
   10.8028  -17.5494   27.0373 O   0  0  0  0  0  0  0  0  0  0  0  0
   11.0599  -18.2820   24.9082 N   0  0  0  0  0  0  0  0  0  0  0  0
   11.8810  -19.4399   25.3011 C   0  0  1  0  0  0  0  0  0  0  0  0
   11.4682  -20.6628   24.5567 C   0  0  0  0  0  0  0  0  0  0  0  0
   12.3523  -21.7935   24.8871 C   0  0  0  0  0  0  0  0  0  0  0  0
   12.7124  -22.0050   26.0676 O   0  0  0  0  0  0  0  0  0  0  0  0
   13.2747  -19.0748   24.9957 C   0  0  0  0  0  0  0  0  0  0  0  0
   13.6045  -17.9214   24.3201 O   0  0  0  0  0  0  0  0  0  0  0  0
   12.8039  -22.6463   23.8994 O   0  0  0  0  0  0  0  0  0  0  0  0
   14.1992  -19.8369   25.3612 O   0  0  0  0  0  0  0  0  0  0  0  0
  2  1  1  1
  2  3  1  0
  3  4  1  0
  4  8  1  0
  5  4  2  0
  5  6  1  0
  6  7  1  0
  8  7  2  0
  9  2  1  0
  9 10  2  0
 11  9  1  0
 12 13  1  1
 12 11  1  0
 14 13  1  0
 14 15  2  0
 16 15  1  0
 17 16  1  0
 18 17  2  0
 19 18  1  0
 20 19  2  0
 20 21  1  0
 21 22  2  0
 22 17  1  0
 22 14  1  0
 23 12  1  0
 24 23  2  0
 25 23  1  0
 26 30  1  0
 26 25  1  0
 26 27  1  6
 28 27  1  0
 28 29  2  0
 30 31  1  0
 32 28  1  0
 33 30  2  0
M  END
$$$$
