HWD.pdb
     RDKit          3D

 33 35  0  0  1  0  0  0  0  0999 V2000
    9.7158  -13.3372   20.1217 N   0  0  0  0  0  0  0  0  0  0  0  0
    8.8665  -14.3593   20.7034 C   0  0  1  0  0  0  0  0  0  0  0  0
    8.6829  -15.5367   19.8057 C   0  0  0  0  0  0  0  0  0  0  0  0
    8.3685  -15.1372   18.4112 C   0  0  0  0  0  0  0  0  0  0  0  0
    7.4466  -14.1553   18.0777 C   0  0  0  0  0  0  0  0  0  0  0  0
    7.3916  -14.0316   16.7407 N   0  0  0  0  0  0  0  0  0  0  0  0
    8.2628  -14.9188   16.2330 C   0  0  0  0  0  0  0  0  0  0  0  0
    8.8450  -15.5785   17.2474 N   0  0  0  0  0  0  0  0  0  0  0  0
    9.4240  -14.8380   22.0110 C   0  0  0  0  0  0  0  0  0  0  0  0
   10.6095  -14.5869   22.3395 O   0  0  0  0  0  0  0  0  0  0  0  0
    8.5670  -15.5789   22.8553 N   0  0  0  0  0  0  0  0  0  0  0  0
    8.9436  -16.0357   24.1795 C   0  0  1  0  0  0  0  0  0  0  0  0
    7.7649  -16.1203   25.1032 C   0  0  0  0  0  0  0  0  0  0  0  0
    7.0170  -14.8836   25.2983 C   0  0  0  0  0  0  0  0  0  0  0  0
    5.7423  -14.6495   24.7758 C   0  0  0  0  0  0  0  0  0  0  0  0
    5.4308  -13.4006   25.1490 N   0  0  0  0  0  0  0  0  0  0  0  0
    6.4148  -12.8447   25.8628 C   0  0  0  0  0  0  0  0  0  0  0  0
    6.5317  -11.5943   26.4628 C   0  0  0  0  0  0  0  0  0  0  0  0
    7.6741  -11.2675   27.1758 C   0  0  0  0  0  0  0  0  0  0  0  0
    8.7117  -12.1811   27.2992 C   0  0  0  0  0  0  0  0  0  0  0  0
    8.5821  -13.4057   26.7031 C   0  0  0  0  0  0  0  0  0  0  0  0
    7.4558  -13.7527   25.9885 C   0  0  0  0  0  0  0  0  0  0  0  0
    9.8101  -17.1971   24.2103 C   0  0  0  0  0  0  0  0  0  0  0  0
    9.5336  -18.1697   23.4516 O   0  0  0  0  0  0  0  0  0  0  0  0
   10.9534  -17.3534   25.0180 N   0  0  0  0  0  0  0  0  0  0  0  0
   11.6620  -18.6322   25.1967 C   0  0  1  0  0  0  0  0  0  0  0  0
   13.1363  -18.4223   25.2441 C   0  0  0  0  0  0  0  0  0  0  0  0
   13.5916  -17.6758   24.0589 C   0  0  0  0  0  0  0  0  0  0  0  0
   14.1947  -16.5848   24.1782 O   0  0  0  0  0  0  0  0  0  0  0  0
   11.1637  -19.2022   26.4600 C   0  0  0  0  0  0  0  0  0  0  0  0
   11.5151  -20.4617   26.8909 O   0  0  0  0  0  0  0  0  0  0  0  0
   13.3625  -18.1645   22.7879 O   0  0  0  0  0  0  0  0  0  0  0  0
   10.3915  -18.5215   27.1738 O   0  0  0  0  0  0  0  0  0  0  0  0
  2  1  1  6
  2  3  1  0
  3  4  1  0
  4  8  1  0
  5  4  2  0
  5  6  1  0
  6  7  1  0
  8  7  2  0
  9  2  1  0
  9 10  2  0
 11  9  1  0
 12 13  1  1
 12 11  1  0
 14 13  1  0
 14 15  2  0
 16 15  1  0
 17 16  1  0
 18 17  2  0
 19 18  1  0
 20 19  2  0
 20 21  1  0
 21 22  2  0
 22 17  1  0
 22 14  1  0
 23 12  1  0
 24 23  2  0
 25 23  1  0
 26 30  1  0
 26 25  1  0
 26 27  1  1
 28 27  1  0
 28 29  2  0
 30 31  1  0
 32 28  1  0
 33 30  2  0
M  END
$$$$
