QWM.pdb
     RDKit          3D

 32 33  0  0  1  0  0  0  0  0999 V2000
    8.5779  -12.7010   17.7549 N   0  0  0  0  0  0  0  0  0  0  0  0
    8.4804  -14.0179   17.1767 C   0  0  0  0  0  0  0  0  0  0  0  0
    8.1459  -14.1680   15.9829 O   0  0  0  0  0  0  0  0  0  0  0  0
    8.7937  -15.1491   18.0509 C   0  0  0  0  0  0  0  0  0  0  0  0
    9.2313  -14.7562   19.4136 C   0  0  0  0  0  0  0  0  0  0  0  0
    9.6478  -15.8481   20.3358 C   0  0  2  0  0  0  0  0  0  0  0  0
    8.9881  -17.0951   20.2222 N   0  0  0  0  0  0  0  0  0  0  0  0
    9.6951  -15.4181   21.7549 C   0  0  0  0  0  0  0  0  0  0  0  0
   10.2420  -14.3266   22.0934 O   0  0  0  0  0  0  0  0  0  0  0  0
    9.1446  -16.1961   22.7652 N   0  0  0  0  0  0  0  0  0  0  0  0
    9.0285  -15.7028   24.1647 C   0  0  1  0  0  0  0  0  0  0  0  0
    7.7032  -16.1794   24.6194 C   0  0  0  0  0  0  0  0  0  0  0  0
    6.7353  -15.1522   25.0300 C   0  0  0  0  0  0  0  0  0  0  0  0
    5.3908  -15.3342   25.2438 C   0  0  0  0  0  0  0  0  0  0  0  0
    4.8077  -14.1730   25.5906 N   0  0  0  0  0  0  0  0  0  0  0  0
    5.7539  -13.2186   25.6097 C   0  0  0  0  0  0  0  0  0  0  0  0
    5.6520  -11.8777   25.9039 C   0  0  0  0  0  0  0  0  0  0  0  0
    6.7853  -11.1003   25.8517 C   0  0  0  0  0  0  0  0  0  0  0  0
    7.9925  -11.6677   25.5097 C   0  0  0  0  0  0  0  0  0  0  0  0
    8.0620  -13.0127   25.2209 C   0  0  0  0  0  0  0  0  0  0  0  0
    6.9544  -13.8131   25.2635 C   0  0  0  0  0  0  0  0  0  0  0  0
   10.1178  -16.3584   24.9073 C   0  0  0  0  0  0  0  0  0  0  0  0
   10.8119  -17.2262   24.2665 O   0  0  0  0  0  0  0  0  0  0  0  0
   11.4201  -16.4218   31.4971 C   0  0  0  0  0  0  0  0  0  0  0  0
   13.0101  -16.8170   30.6876 S   0  0  0  0  0  0  0  0  0  0  0  0
   12.5845  -17.4300   29.0148 C   0  0  0  0  0  0  0  0  0  0  0  0
   11.6815  -16.4785   28.3047 C   0  0  0  0  0  0  0  0  0  0  0  0
   11.4047  -16.9637   26.9061 C   0  0  2  0  0  0  0  0  0  0  0  0
   10.4373  -16.0846   26.2617 N   0  0  0  0  0  0  0  0  0  0  0  0
   10.8431  -18.3173   26.9368 C   0  0  0  0  0  0  0  0  0  0  0  0
    9.6005  -18.4726   27.1428 O   0  0  0  0  0  0  0  0  0  0  0  0
   11.6525  -19.4382   26.7376 O   0  0  0  0  0  0  0  0  0  0  0  0
  2  1  1  0
  3  2  2  0
  4  2  1  0
  5  4  1  0
  6  8  1  0
  6  5  1  0
  6  7  1  1
  8  9  2  0
 10  8  1  0
 11 12  1  1
 11 10  1  0
 13 12  1  0
 13 14  2  0
 15 14  1  0
 16 15  1  0
 17 16  2  0
 18 17  1  0
 19 18  2  0
 19 20  1  0
 20 21  2  0
 21 16  1  0
 21 13  1  0
 22 11  1  0
 23 22  2  0
 25 26  1  0
 25 24  1  0
 26 27  1  0
 28 27  1  1
 28 30  1  0
 28 29  1  0
 29 22  1  0
 30 32  1  0
 31 30  2  0
M  END
$$$$
