QWM.pdb
     RDKit          3D

 32 33  0  0  1  0  0  0  0  0999 V2000
    8.1442  -12.8194   16.2218 N   0  0  0  0  0  0  0  0  0  0  0  0
    8.1855  -14.1580   15.6887 C   0  0  0  0  0  0  0  0  0  0  0  0
    8.1218  -14.3575   14.4576 O   0  0  0  0  0  0  0  0  0  0  0  0
    8.3081  -15.2511   16.6544 C   0  0  0  0  0  0  0  0  0  0  0  0
    8.4329  -14.8011   18.0633 C   0  0  0  0  0  0  0  0  0  0  0  0
    9.2696  -15.6326   18.9715 C   0  0  2  0  0  0  0  0  0  0  0  0
    9.1092  -17.0376   18.9143 N   0  0  0  0  0  0  0  0  0  0  0  0
    9.2304  -15.1668   20.3795 C   0  0  0  0  0  0  0  0  0  0  0  0
    9.5501  -13.9805   20.6889 O   0  0  0  0  0  0  0  0  0  0  0  0
    8.8449  -16.0133   21.4109 N   0  0  0  0  0  0  0  0  0  0  0  0
    8.6603  -15.5237   22.8045 C   0  0  1  0  0  0  0  0  0  0  0  0
    7.2450  -15.8205   23.1195 C   0  0  0  0  0  0  0  0  0  0  0  0
    6.7220  -15.2847   24.3844 C   0  0  0  0  0  0  0  0  0  0  0  0
    6.0998  -15.9980   25.3797 C   0  0  0  0  0  0  0  0  0  0  0  0
    5.7338  -15.1831   26.3849 N   0  0  0  0  0  0  0  0  0  0  0  0
    6.1077  -13.9318   26.0668 C   0  0  0  0  0  0  0  0  0  0  0  0
    5.9557  -12.7577   26.7691 C   0  0  0  0  0  0  0  0  0  0  0  0
    6.4317  -11.5907   26.2189 C   0  0  0  0  0  0  0  0  0  0  0  0
    7.0469  -11.6127   24.9870 C   0  0  0  0  0  0  0  0  0  0  0  0
    7.1838  -12.8038   24.3090 C   0  0  0  0  0  0  0  0  0  0  0  0
    6.7217  -13.9812   24.8278 C   0  0  0  0  0  0  0  0  0  0  0  0
    9.5740  -16.3292   23.6314 C   0  0  0  0  0  0  0  0  0  0  0  0
    9.8547  -17.5052   23.2027 O   0  0  0  0  0  0  0  0  0  0  0  0
    9.5286  -13.7890   29.0053 C   0  0  0  0  0  0  0  0  0  0  0  0
   11.1288  -14.6090   28.6788 S   0  0  0  0  0  0  0  0  0  0  0  0
   11.2702  -14.7289   26.8564 C   0  0  0  0  0  0  0  0  0  0  0  0
   11.9678  -15.9833   26.4504 C   0  0  0  0  0  0  0  0  0  0  0  0
   11.1162  -16.7684   25.4879 C   0  0  2  0  0  0  0  0  0  0  0  0
   10.1520  -15.8830   24.8473 N   0  0  0  0  0  0  0  0  0  0  0  0
   10.3749  -17.8147   26.1980 C   0  0  0  0  0  0  0  0  0  0  0  0
   11.0121  -18.7478   26.7759 O   0  0  0  0  0  0  0  0  0  0  0  0
    8.9793  -17.7981   26.2537 O   0  0  0  0  0  0  0  0  0  0  0  0
  2  1  1  0
  3  2  2  0
  4  2  1  0
  5  4  1  0
  6  8  1  0
  6  5  1  0
  6  7  1  1
  8  9  2  0
 10  8  1  0
 11 12  1  1
 11 10  1  0
 13 12  1  0
 13 14  2  0
 15 14  1  0
 16 15  1  0
 17 16  2  0
 18 17  1  0
 19 18  2  0
 19 20  1  0
 20 21  2  0
 21 16  1  0
 21 13  1  0
 22 11  1  0
 23 22  2  0
 25 26  1  0
 25 24  1  0
 26 27  1  0
 28 27  1  1
 28 30  1  0
 28 29  1  0
 29 22  1  0
 30 32  1  0
 31 30  2  0
M  END
$$$$
