QWM.pdb
     RDKit          3D

 32 33  0  0  1  0  0  0  0  0999 V2000
    7.7873  -12.6143   17.9331 N   0  0  0  0  0  0  0  0  0  0  0  0
    8.0005  -13.8087   17.1548 C   0  0  0  0  0  0  0  0  0  0  0  0
    7.6805  -13.8505   15.9484 O   0  0  0  0  0  0  0  0  0  0  0  0
    8.6062  -14.9486   17.8449 C   0  0  0  0  0  0  0  0  0  0  0  0
    8.8495  -14.7193   19.2910 C   0  0  0  0  0  0  0  0  0  0  0  0
    9.4757  -15.8296   20.0599 C   0  0  2  0  0  0  0  0  0  0  0  0
    8.9142  -17.1221   19.9282 N   0  0  0  0  0  0  0  0  0  0  0  0
    9.6754  -15.4985   21.4922 C   0  0  0  0  0  0  0  0  0  0  0  0
   10.2602  -14.4316   21.8452 O   0  0  0  0  0  0  0  0  0  0  0  0
    9.2315  -16.3459   22.4992 N   0  0  0  0  0  0  0  0  0  0  0  0
    9.1413  -15.9041   23.9177 C   0  0  1  0  0  0  0  0  0  0  0  0
    7.8762  -16.4922   24.4117 C   0  0  0  0  0  0  0  0  0  0  0  0
    6.8201  -15.5511   24.8111 C   0  0  0  0  0  0  0  0  0  0  0  0
    5.4705  -15.7007   24.6047 C   0  0  0  0  0  0  0  0  0  0  0  0
    4.8003  -14.6372   25.0825 N   0  0  0  0  0  0  0  0  0  0  0  0
    5.6935  -13.7800   25.6061 C   0  0  0  0  0  0  0  0  0  0  0  0
    5.4983  -12.5589   26.2106 C   0  0  0  0  0  0  0  0  0  0  0  0
    6.5932  -11.8650   26.6702 C   0  0  0  0  0  0  0  0  0  0  0  0
    7.8552  -12.3956   26.5210 C   0  0  0  0  0  0  0  0  0  0  0  0
    8.0176  -13.6201   25.9117 C   0  0  0  0  0  0  0  0  0  0  0  0
    6.9505  -14.3352   25.4438 C   0  0  0  0  0  0  0  0  0  0  0  0
   10.3078  -16.4974   24.5921 C   0  0  0  0  0  0  0  0  0  0  0  0
   11.1500  -17.1173   23.8492 O   0  0  0  0  0  0  0  0  0  0  0  0
   11.1132  -15.9933   30.5808 C   0  0  0  0  0  0  0  0  0  0  0  0
   11.5144  -14.5062   29.5972 S   0  0  0  0  0  0  0  0  0  0  0  0
   12.0717  -15.1187   27.9634 C   0  0  0  0  0  0  0  0  0  0  0  0
   12.0250  -16.6082   27.9006 C   0  0  0  0  0  0  0  0  0  0  0  0
   11.7527  -17.0650   26.4916 C   0  0  2  0  0  0  0  0  0  0  0  0
   10.5479  -16.4181   25.9877 N   0  0  0  0  0  0  0  0  0  0  0  0
   11.5419  -18.5151   26.4565 C   0  0  0  0  0  0  0  0  0  0  0  0
   10.3675  -18.9781   26.5871 O   0  0  0  0  0  0  0  0  0  0  0  0
   12.6117  -19.3950   26.2762 O   0  0  0  0  0  0  0  0  0  0  0  0
  2  1  1  0
  3  2  2  0
  4  2  1  0
  5  4  1  0
  6  8  1  0
  6  5  1  0
  6  7  1  1
  8  9  2  0
 10  8  1  0
 11 12  1  1
 11 10  1  0
 13 12  1  0
 13 14  2  0
 15 14  1  0
 16 15  1  0
 17 16  2  0
 18 17  1  0
 19 18  2  0
 19 20  1  0
 20 21  2  0
 21 16  1  0
 21 13  1  0
 22 11  1  0
 23 22  2  0
 25 26  1  0
 25 24  1  0
 26 27  1  0
 28 27  1  1
 28 30  1  0
 28 29  1  0
 29 22  1  0
 30 32  1  0
 31 30  2  0
M  END
$$$$
