QWM.pdb
     RDKit          3D

 32 33  0  0  1  0  0  0  0  0999 V2000
    8.6953  -12.5096   18.0685 N   0  0  0  0  0  0  0  0  0  0  0  0
    8.2416  -13.7503   17.4917 C   0  0  0  0  0  0  0  0  0  0  0  0
    7.5541  -13.7563   16.4493 O   0  0  0  0  0  0  0  0  0  0  0  0
    8.6286  -14.9814   18.1824 C   0  0  0  0  0  0  0  0  0  0  0  0
    9.4136  -14.7573   19.4219 C   0  0  0  0  0  0  0  0  0  0  0  0
    9.9042  -15.9633   20.1439 C   0  0  2  0  0  0  0  0  0  0  0  0
    9.1879  -17.1718   19.9721 N   0  0  0  0  0  0  0  0  0  0  0  0
   10.1518  -15.7119   21.5849 C   0  0  0  0  0  0  0  0  0  0  0  0
   10.7786  -14.6822   21.9745 O   0  0  0  0  0  0  0  0  0  0  0  0
    9.7088  -16.5962   22.5599 N   0  0  0  0  0  0  0  0  0  0  0  0
    9.7751  -16.2674   24.0102 C   0  0  1  0  0  0  0  0  0  0  0  0
    8.3697  -16.3259   24.4704 C   0  0  0  0  0  0  0  0  0  0  0  0
    7.5458  -15.1315   24.2351 C   0  0  0  0  0  0  0  0  0  0  0  0
    6.8838  -14.8100   23.0754 C   0  0  0  0  0  0  0  0  0  0  0  0
    6.2442  -13.6346   23.2086 N   0  0  0  0  0  0  0  0  0  0  0  0
    6.4750  -13.1704   24.4487 C   0  0  0  0  0  0  0  0  0  0  0  0
    6.0392  -12.0144   25.0558 C   0  0  0  0  0  0  0  0  0  0  0  0
    6.4197  -11.7641   26.3535 C   0  0  0  0  0  0  0  0  0  0  0  0
    7.2221  -12.6632   27.0199 C   0  0  0  0  0  0  0  0  0  0  0  0
    7.6416  -13.8112   26.3849 C   0  0  0  0  0  0  0  0  0  0  0  0
    7.2814  -14.0899   25.0959 C   0  0  0  0  0  0  0  0  0  0  0  0
   10.5842  -17.3347   24.6215 C   0  0  0  0  0  0  0  0  0  0  0  0
   10.2483  -18.5420   24.3475 O   0  0  0  0  0  0  0  0  0  0  0  0
   10.4703  -13.3852   28.4113 C   0  0  0  0  0  0  0  0  0  0  0  0
   10.7099  -14.7853   29.5611 S   0  0  0  0  0  0  0  0  0  0  0  0
   11.6743  -16.0375   28.6353 C   0  0  0  0  0  0  0  0  0  0  0  0
   10.8009  -16.8153   27.7095 C   0  0  0  0  0  0  0  0  0  0  0  0
   11.6365  -17.6869   26.8093 C   0  0  2  0  0  0  0  0  0  0  0  0
   11.6940  -17.1050   25.4744 N   0  0  0  0  0  0  0  0  0  0  0  0
   11.0455  -19.0237   26.7005 C   0  0  0  0  0  0  0  0  0  0  0  0
    9.8943  -19.1566   26.1832 O   0  0  0  0  0  0  0  0  0  0  0  0
   11.7311  -20.1540   27.1518 O   0  0  0  0  0  0  0  0  0  0  0  0
  2  1  1  0
  3  2  2  0
  4  2  1  0
  5  4  1  0
  6  8  1  0
  6  5  1  0
  6  7  1  1
  8  9  2  0
 10  8  1  0
 11 12  1  1
 11 10  1  0
 13 12  1  0
 13 14  2  0
 15 14  1  0
 16 15  1  0
 17 16  2  0
 18 17  1  0
 19 18  2  0
 19 20  1  0
 20 21  2  0
 21 16  1  0
 21 13  1  0
 22 11  1  0
 23 22  2  0
 25 26  1  0
 25 24  1  0
 26 27  1  0
 28 27  1  1
 28 30  1  0
 28 29  1  0
 29 22  1  0
 30 32  1  0
 31 30  2  0
M  END
$$$$
