QWM.pdb
     RDKit          3D

 32 33  0  0  1  0  0  0  0  0999 V2000
   13.0278  -17.1655   15.7967 N   0  0  0  0  0  0  0  0  0  0  0  0
   11.6504  -17.1160   16.2189 C   0  0  0  0  0  0  0  0  0  0  0  0
   10.7923  -16.5250   15.5305 O   0  0  0  0  0  0  0  0  0  0  0  0
   11.3192  -17.7887   17.4759 C   0  0  0  0  0  0  0  0  0  0  0  0
   11.8019  -17.0785   18.6865 C   0  0  0  0  0  0  0  0  0  0  0  0
   11.5474  -17.7266   20.0023 C   0  0  2  0  0  0  0  0  0  0  0  0
   10.7718  -18.9105   20.0156 N   0  0  0  0  0  0  0  0  0  0  0  0
   11.0526  -16.7754   21.0277 C   0  0  0  0  0  0  0  0  0  0  0  0
   11.5785  -15.6319   21.1722 O   0  0  0  0  0  0  0  0  0  0  0  0
    9.9970  -17.1031   21.8688 N   0  0  0  0  0  0  0  0  0  0  0  0
    9.5129  -16.1721   22.9246 C   0  0  1  0  0  0  0  0  0  0  0  0
    8.0387  -16.2979   22.8851 C   0  0  0  0  0  0  0  0  0  0  0  0
    7.2652  -15.0517   22.9812 C   0  0  0  0  0  0  0  0  0  0  0  0
    6.6348  -14.3989   21.9502 C   0  0  0  0  0  0  0  0  0  0  0  0
    6.0387  -13.2790   22.3964 N   0  0  0  0  0  0  0  0  0  0  0  0
    6.2671  -13.1809   23.7173 C   0  0  0  0  0  0  0  0  0  0  0  0
    5.8663  -12.2175   24.6151 C   0  0  0  0  0  0  0  0  0  0  0  0
    6.2352  -12.3467   25.9337 C   0  0  0  0  0  0  0  0  0  0  0  0
    6.9916  -13.4259   26.3330 C   0  0  0  0  0  0  0  0  0  0  0  0
    7.3770  -14.3734   25.4104 C   0  0  0  0  0  0  0  0  0  0  0  0
    7.0272  -14.2746   24.0925 C   0  0  0  0  0  0  0  0  0  0  0  0
   10.0614  -16.6885   24.1895 C   0  0  0  0  0  0  0  0  0  0  0  0
   10.7846  -17.7454   24.1159 O   0  0  0  0  0  0  0  0  0  0  0  0
   11.2801  -13.2758   29.5119 C   0  0  0  0  0  0  0  0  0  0  0  0
   11.3016  -14.9333   30.2813 S   0  0  0  0  0  0  0  0  0  0  0  0
   11.3172  -16.1312   28.8957 C   0  0  0  0  0  0  0  0  0  0  0  0
   10.5712  -15.6030   27.7170 C   0  0  0  0  0  0  0  0  0  0  0  0
   10.6544  -16.5719   26.5671 C   0  0  2  0  0  0  0  0  0  0  0  0
    9.8423  -16.0905   25.4568 N   0  0  0  0  0  0  0  0  0  0  0  0
   10.1462  -17.8866   26.9691 C   0  0  0  0  0  0  0  0  0  0  0  0
    8.8952  -18.1004   26.9629 O   0  0  0  0  0  0  0  0  0  0  0  0
   11.0165  -18.9093   27.3534 O   0  0  0  0  0  0  0  0  0  0  0  0
  2  1  1  0
  3  2  2  0
  4  2  1  0
  5  4  1  0
  6  8  1  0
  6  5  1  0
  6  7  1  6
  8  9  2  0
 10  8  1  0
 11 12  1  1
 11 10  1  0
 13 12  1  0
 13 14  2  0
 15 14  1  0
 16 15  1  0
 17 16  2  0
 18 17  1  0
 19 18  2  0
 19 20  1  0
 20 21  2  0
 21 16  1  0
 21 13  1  0
 22 11  1  0
 23 22  2  0
 25 26  1  0
 25 24  1  0
 26 27  1  0
 28 27  1  1
 28 30  1  0
 28 29  1  0
 29 22  1  0
 30 32  1  0
 31 30  2  0
M  END
$$$$
