QWM.pdb
     RDKit          3D

 32 33  0  0  1  0  0  0  0  0999 V2000
    7.9194  -12.5008   18.1709 N   0  0  0  0  0  0  0  0  0  0  0  0
    8.4372  -13.7861   17.7737 C   0  0  0  0  0  0  0  0  0  0  0  0
    8.1880  -14.2532   16.6427 O   0  0  0  0  0  0  0  0  0  0  0  0
    9.2603  -14.4988   18.7520 C   0  0  0  0  0  0  0  0  0  0  0  0
    8.7064  -15.8125   19.1645 C   0  0  0  0  0  0  0  0  0  0  0  0
    9.5032  -16.6124   20.1348 C   0  0  2  0  0  0  0  0  0  0  0  0
    9.2271  -17.9971   20.2323 N   0  0  0  0  0  0  0  0  0  0  0  0
    9.5504  -16.0004   21.4855 C   0  0  0  0  0  0  0  0  0  0  0  0
   10.0200  -14.8375   21.6646 O   0  0  0  0  0  0  0  0  0  0  0  0
    9.0844  -16.6795   22.6039 N   0  0  0  0  0  0  0  0  0  0  0  0
    9.0445  -16.0459   23.9502 C   0  0  1  0  0  0  0  0  0  0  0  0
    7.7305  -16.4373   24.5077 C   0  0  0  0  0  0  0  0  0  0  0  0
    6.8708  -15.3518   25.0010 C   0  0  0  0  0  0  0  0  0  0  0  0
    5.5688  -15.4672   25.4228 C   0  0  0  0  0  0  0  0  0  0  0  0
    5.0841  -14.2672   25.7882 N   0  0  0  0  0  0  0  0  0  0  0  0
    6.0537  -13.3529   25.6131 C   0  0  0  0  0  0  0  0  0  0  0  0
    6.0423  -11.9961   25.8449 C   0  0  0  0  0  0  0  0  0  0  0  0
    7.1800  -11.2698   25.5813 C   0  0  0  0  0  0  0  0  0  0  0  0
    8.3020  -11.9028   25.0947 C   0  0  0  0  0  0  0  0  0  0  0  0
    8.2819  -13.2622   24.8733 C   0  0  0  0  0  0  0  0  0  0  0  0
    7.1675  -14.0130   25.1249 C   0  0  0  0  0  0  0  0  0  0  0  0
   10.1509  -16.6546   24.7072 C   0  0  0  0  0  0  0  0  0  0  0  0
   10.9299  -17.4405   24.0584 O   0  0  0  0  0  0  0  0  0  0  0  0
    9.3224  -15.1133   29.7111 C   0  0  0  0  0  0  0  0  0  0  0  0
   10.9855  -14.3666   29.5832 S   0  0  0  0  0  0  0  0  0  0  0  0
   11.6916  -14.9776   28.0073 C   0  0  0  0  0  0  0  0  0  0  0  0
   11.8500  -16.4606   28.0257 C   0  0  0  0  0  0  0  0  0  0  0  0
   11.5915  -17.0322   26.6566 C   0  0  2  0  0  0  0  0  0  0  0  0
   10.3993  -16.4202   26.0838 N   0  0  0  0  0  0  0  0  0  0  0  0
   11.3677  -18.4783   26.7407 C   0  0  0  0  0  0  0  0  0  0  0  0
   10.2161  -18.9472   26.4865 O   0  0  0  0  0  0  0  0  0  0  0  0
   12.4025  -19.3488   27.0907 O   0  0  0  0  0  0  0  0  0  0  0  0
  2  1  1  0
  3  2  2  0
  4  2  1  0
  5  4  1  0
  6  8  1  0
  6  5  1  0
  6  7  1  1
  8  9  2  0
 10  8  1  0
 11 12  1  1
 11 10  1  0
 13 12  1  0
 13 14  2  0
 15 14  1  0
 16 15  1  0
 17 16  2  0
 18 17  1  0
 19 18  2  0
 19 20  1  0
 20 21  2  0
 21 16  1  0
 21 13  1  0
 22 11  1  0
 23 22  2  0
 25 26  1  0
 25 24  1  0
 26 27  1  0
 28 27  1  1
 28 30  1  0
 28 29  1  0
 29 22  1  0
 30 32  1  0
 31 30  2  0
M  END
$$$$
