QWM.pdb
     RDKit          3D

 32 33  0  0  1  0  0  0  0  0999 V2000
    7.7870  -14.2365   14.7065 N   0  0  0  0  0  0  0  0  0  0  0  0
    8.4946  -15.3478   15.2914 C   0  0  0  0  0  0  0  0  0  0  0  0
    9.4383  -15.8952   14.6837 O   0  0  0  0  0  0  0  0  0  0  0  0
    8.0551  -15.7884   16.6162 C   0  0  0  0  0  0  0  0  0  0  0  0
    8.8192  -15.1865   17.7372 C   0  0  0  0  0  0  0  0  0  0  0  0
    9.3525  -16.1139   18.7725 C   0  0  2  0  0  0  0  0  0  0  0  0
    8.7809  -17.4059   18.8581 N   0  0  0  0  0  0  0  0  0  0  0  0
    9.4280  -15.4941   20.1182 C   0  0  0  0  0  0  0  0  0  0  0  0
    9.9088  -14.3334   20.2817 O   0  0  0  0  0  0  0  0  0  0  0  0
    8.9775  -16.1630   21.2490 N   0  0  0  0  0  0  0  0  0  0  0  0
    8.8893  -15.4953   22.5764 C   0  0  1  0  0  0  0  0  0  0  0  0
    7.4606  -15.5948   22.9497 C   0  0  0  0  0  0  0  0  0  0  0  0
    7.0776  -15.0414   24.2564 C   0  0  0  0  0  0  0  0  0  0  0  0
    6.5499  -15.7374   25.3165 C   0  0  0  0  0  0  0  0  0  0  0  0
    6.3008  -14.9092   26.3463 N   0  0  0  0  0  0  0  0  0  0  0  0
    6.6588  -13.6664   25.9804 C   0  0  0  0  0  0  0  0  0  0  0  0
    6.5970  -12.4849   26.6838 C   0  0  0  0  0  0  0  0  0  0  0  0
    7.0317  -11.3296   26.0773 C   0  0  0  0  0  0  0  0  0  0  0  0
    7.5173  -11.3706   24.7893 C   0  0  0  0  0  0  0  0  0  0  0  0
    7.5664  -12.5687   24.1117 C   0  0  0  0  0  0  0  0  0  0  0  0
    7.1422  -13.7348   24.6857 C   0  0  0  0  0  0  0  0  0  0  0  0
    9.7359  -16.2938   23.4783 C   0  0  0  0  0  0  0  0  0  0  0  0
    9.3487  -17.4920   23.7225 O   0  0  0  0  0  0  0  0  0  0  0  0
   10.7278  -14.9039   30.4423 C   0  0  0  0  0  0  0  0  0  0  0  0
   10.2392  -14.4069   28.7529 S   0  0  0  0  0  0  0  0  0  0  0  0
   10.2527  -15.9416   27.7531 C   0  0  0  0  0  0  0  0  0  0  0  0
   10.0125  -15.6483   26.3105 C   0  0  0  0  0  0  0  0  0  0  0  0
   11.1557  -16.1603   25.4744 C   0  0  2  0  0  0  0  0  0  0  0  0
   10.9331  -15.8215   24.0745 N   0  0  0  0  0  0  0  0  0  0  0  0
   11.2541  -17.6187   25.5819 C   0  0  0  0  0  0  0  0  0  0  0  0
   11.9393  -18.1303   26.5197 O   0  0  0  0  0  0  0  0  0  0  0  0
   10.6015  -18.4544   24.6725 O   0  0  0  0  0  0  0  0  0  0  0  0
  2  1  1  0
  3  2  2  0
  4  2  1  0
  5  4  1  0
  6  8  1  0
  6  5  1  0
  6  7  1  1
  8  9  2  0
 10  8  1  0
 11 12  1  1
 11 10  1  0
 13 12  1  0
 13 14  2  0
 15 14  1  0
 16 15  1  0
 17 16  2  0
 18 17  1  0
 19 18  2  0
 19 20  1  0
 20 21  2  0
 21 16  1  0
 21 13  1  0
 22 11  1  0
 23 22  2  0
 25 26  1  0
 25 24  1  0
 26 27  1  0
 28 27  1  1
 28 30  1  0
 28 29  1  0
 29 22  1  0
 30 32  1  0
 31 30  2  0
M  END
$$$$
