QWM.pdb
     RDKit          3D

 32 33  0  0  1  0  0  0  0  0999 V2000
    8.0695  -12.6266   17.4836 N   0  0  0  0  0  0  0  0  0  0  0  0
    8.3645  -13.7837   16.6761 C   0  0  0  0  0  0  0  0  0  0  0  0
    7.7995  -13.9554   15.5758 O   0  0  0  0  0  0  0  0  0  0  0  0
    9.3491  -14.7275   17.2072 C   0  0  0  0  0  0  0  0  0  0  0  0
    9.9045  -14.3412   18.5283 C   0  0  0  0  0  0  0  0  0  0  0  0
   10.2891  -15.4427   19.4530 C   0  0  2  0  0  0  0  0  0  0  0  0
    9.7646  -16.7321   19.1973 N   0  0  0  0  0  0  0  0  0  0  0  0
   10.1066  -15.0866   20.8816 C   0  0  0  0  0  0  0  0  0  0  0  0
   10.5407  -13.9912   21.3470 O   0  0  0  0  0  0  0  0  0  0  0  0
    9.4561  -15.9409   21.7625 N   0  0  0  0  0  0  0  0  0  0  0  0
    9.1244  -15.5330   23.1551 C   0  0  1  0  0  0  0  0  0  0  0  0
    7.6526  -15.6631   23.2412 C   0  0  0  0  0  0  0  0  0  0  0  0
    7.0221  -15.2312   24.4968 C   0  0  0  0  0  0  0  0  0  0  0  0
    6.2339  -15.9960   25.3216 C   0  0  0  0  0  0  0  0  0  0  0  0
    5.8107  -15.2719   26.3728 N   0  0  0  0  0  0  0  0  0  0  0  0
    6.3113  -14.0301   26.2546 C   0  0  0  0  0  0  0  0  0  0  0  0
    6.1628  -12.9348   27.0751 C   0  0  0  0  0  0  0  0  0  0  0  0
    6.7863  -11.7588   26.7289 C   0  0  0  0  0  0  0  0  0  0  0  0
    7.5418  -11.6942   25.5794 C   0  0  0  0  0  0  0  0  0  0  0  0
    7.6712  -12.8077   24.7791 C   0  0  0  0  0  0  0  0  0  0  0  0
    7.0646  -13.9916   25.0947 C   0  0  0  0  0  0  0  0  0  0  0  0
    9.8007  -16.5091   24.0254 C   0  0  0  0  0  0  0  0  0  0  0  0
   10.1858  -17.6023   23.4757 O   0  0  0  0  0  0  0  0  0  0  0  0
   10.6944  -14.9605   29.9470 C   0  0  0  0  0  0  0  0  0  0  0  0
   10.4832  -14.2631   28.2711 S   0  0  0  0  0  0  0  0  0  0  0  0
   11.6413  -15.1856   27.1925 C   0  0  0  0  0  0  0  0  0  0  0  0
   11.4633  -16.6587   27.3446 C   0  0  0  0  0  0  0  0  0  0  0  0
   10.9361  -17.2573   26.0672 C   0  0  2  0  0  0  0  0  0  0  0  0
   10.0486  -16.3082   25.4073 N   0  0  0  0  0  0  0  0  0  0  0  0
   10.1727  -18.4759   26.3512 C   0  0  0  0  0  0  0  0  0  0  0  0
    8.9189  -18.4865   26.1549 O   0  0  0  0  0  0  0  0  0  0  0  0
   10.8036  -19.6270   26.8289 O   0  0  0  0  0  0  0  0  0  0  0  0
  2  1  1  0
  3  2  2  0
  4  2  1  0
  5  4  1  0
  6  8  1  0
  6  5  1  0
  6  7  1  6
  8  9  2  0
 10  8  1  0
 11 12  1  6
 11 10  1  0
 13 12  1  0
 13 14  2  0
 15 14  1  0
 16 15  1  0
 17 16  2  0
 18 17  1  0
 19 18  2  0
 19 20  1  0
 20 21  2  0
 21 16  1  0
 21 13  1  0
 22 11  1  0
 23 22  2  0
 25 26  1  0
 25 24  1  0
 26 27  1  0
 28 27  1  1
 28 30  1  0
 28 29  1  0
 29 22  1  0
 30 32  1  0
 31 30  2  0
M  END
$$$$
