QWM.pdb
     RDKit          3D

 32 33  0  0  1  0  0  0  0  0999 V2000
    8.6297  -12.7652   16.8010 N   0  0  0  0  0  0  0  0  0  0  0  0
    8.0756  -14.0679   16.5296 C   0  0  0  0  0  0  0  0  0  0  0  0
    7.2337  -14.2272   15.6212 O   0  0  0  0  0  0  0  0  0  0  0  0
    8.5497  -15.1749   17.3616 C   0  0  0  0  0  0  0  0  0  0  0  0
    9.4954  -14.7656   18.4298 C   0  0  0  0  0  0  0  0  0  0  0  0
    9.9099  -15.8086   19.4078 C   0  0  2  0  0  0  0  0  0  0  0  0
    9.3073  -17.0852   19.3060 N   0  0  0  0  0  0  0  0  0  0  0  0
    9.8704  -15.3311   20.8118 C   0  0  0  0  0  0  0  0  0  0  0  0
   10.4576  -14.2639   21.1603 O   0  0  0  0  0  0  0  0  0  0  0  0
    9.1911  -16.0364   21.7968 N   0  0  0  0  0  0  0  0  0  0  0  0
    9.0876  -15.5356   23.1948 C   0  0  1  0  0  0  0  0  0  0  0  0
    7.7653  -16.0074   23.6629 C   0  0  0  0  0  0  0  0  0  0  0  0
    7.1069  -15.2057   24.7042 C   0  0  0  0  0  0  0  0  0  0  0  0
    6.1682  -15.6466   25.6047 C   0  0  0  0  0  0  0  0  0  0  0  0
    5.7676  -14.6382   26.3992 N   0  0  0  0  0  0  0  0  0  0  0  0
    6.4327  -13.5284   26.0348 C   0  0  0  0  0  0  0  0  0  0  0  0
    6.3688  -12.2514   26.5447 C   0  0  0  0  0  0  0  0  0  0  0  0
    7.1633  -11.2761   25.9890 C   0  0  0  0  0  0  0  0  0  0  0  0
    8.0022  -11.5870   24.9421 C   0  0  0  0  0  0  0  0  0  0  0  0
    8.0434  -12.8745   24.4542 C   0  0  0  0  0  0  0  0  0  0  0  0
    7.2667  -13.8670   24.9840 C   0  0  0  0  0  0  0  0  0  0  0  0
   10.1819  -16.1894   23.9315 C   0  0  0  0  0  0  0  0  0  0  0  0
   11.3439  -15.6551   23.8325 O   0  0  0  0  0  0  0  0  0  0  0  0
    9.2214  -13.5724   28.0627 C   0  0  0  0  0  0  0  0  0  0  0  0
   10.6098  -14.5834   28.6870 S   0  0  0  0  0  0  0  0  0  0  0  0
   11.2321  -15.5280   27.2463 C   0  0  0  0  0  0  0  0  0  0  0  0
   10.4555  -16.7861   27.0493 C   0  0  0  0  0  0  0  0  0  0  0  0
   10.9559  -17.5265   25.8371 C   0  0  2  0  0  0  0  0  0  0  0  0
   10.0230  -17.3498   24.7314 N   0  0  0  0  0  0  0  0  0  0  0  0
   11.0614  -18.9604   26.1218 C   0  0  0  0  0  0  0  0  0  0  0  0
   10.2177  -19.7609   25.6138 O   0  0  0  0  0  0  0  0  0  0  0  0
   12.0784  -19.4604   26.9384 O   0  0  0  0  0  0  0  0  0  0  0  0
  2  1  1  0
  3  2  2  0
  4  2  1  0
  5  4  1  0
  6  8  1  0
  6  5  1  0
  6  7  1  1
  8  9  2  0
 10  8  1  0
 11 12  1  1
 11 10  1  0
 13 12  1  0
 13 14  2  0
 15 14  1  0
 16 15  1  0
 17 16  2  0
 18 17  1  0
 19 18  2  0
 19 20  1  0
 20 21  2  0
 21 16  1  0
 21 13  1  0
 22 11  1  0
 23 22  2  0
 25 26  1  0
 25 24  1  0
 26 27  1  0
 28 27  1  1
 28 30  1  0
 28 29  1  0
 29 22  1  0
 30 32  1  0
 31 30  2  0
M  END
$$$$
