QWM.pdb
     RDKit          3D

 32 33  0  0  1  0  0  0  0  0999 V2000
   12.3467  -20.9506   18.6128 N   0  0  0  0  0  0  0  0  0  0  0  0
   12.4882  -19.5408   18.8780 C   0  0  0  0  0  0  0  0  0  0  0  0
   13.5442  -19.0853   19.3646 O   0  0  0  0  0  0  0  0  0  0  0  0
   11.3459  -18.6875   18.5470 C   0  0  0  0  0  0  0  0  0  0  0  0
   10.4051  -18.4735   19.6748 C   0  0  0  0  0  0  0  0  0  0  0  0
    9.5552  -17.2521   19.6295 C   0  0  2  0  0  0  0  0  0  0  0  0
    9.6969  -16.3908   18.5153 N   0  0  0  0  0  0  0  0  0  0  0  0
    9.5974  -16.4729   20.8912 C   0  0  0  0  0  0  0  0  0  0  0  0
   10.1178  -15.3186   20.9342 O   0  0  0  0  0  0  0  0  0  0  0  0
    9.0709  -16.9797   22.0723 N   0  0  0  0  0  0  0  0  0  0  0  0
    8.9963  -16.1643   23.3153 C   0  0  1  0  0  0  0  0  0  0  0  0
    7.7659  -16.6297   23.9934 C   0  0  0  0  0  0  0  0  0  0  0  0
    7.0300  -15.6345   24.7862 C   0  0  0  0  0  0  0  0  0  0  0  0
    5.8276  -15.8228   25.4228 C   0  0  0  0  0  0  0  0  0  0  0  0
    5.4380  -14.6919   26.0375 N   0  0  0  0  0  0  0  0  0  0  0  0
    6.3721  -13.7513   25.8153 C   0  0  0  0  0  0  0  0  0  0  0  0
    6.4251  -12.4411   26.2339 C   0  0  0  0  0  0  0  0  0  0  0  0
    7.5050  -11.6722   25.8677 C   0  0  0  0  0  0  0  0  0  0  0  0
    8.5069  -12.2176   25.0963 C   0  0  0  0  0  0  0  0  0  0  0  0
    8.4248  -13.5322   24.6933 C   0  0  0  0  0  0  0  0  0  0  0  0
    7.3652  -14.3234   25.0399 C   0  0  0  0  0  0  0  0  0  0  0  0
   10.1994  -16.5118   24.0896 C   0  0  0  0  0  0  0  0  0  0  0  0
   10.9045  -17.4899   23.6518 O   0  0  0  0  0  0  0  0  0  0  0  0
   11.8451  -12.6092   27.7823 C   0  0  0  0  0  0  0  0  0  0  0  0
   10.6222  -13.7339   28.5433 S   0  0  0  0  0  0  0  0  0  0  0  0
   11.2101  -15.4318   28.1873 C   0  0  0  0  0  0  0  0  0  0  0  0
   12.1909  -15.4389   27.0636 C   0  0  0  0  0  0  0  0  0  0  0  0
   11.7486  -16.3960   25.9882 C   0  0  2  0  0  0  0  0  0  0  0  0
   10.6144  -15.8351   25.2650 N   0  0  0  0  0  0  0  0  0  0  0  0
   11.3293  -17.6701   26.5792 C   0  0  0  0  0  0  0  0  0  0  0  0
   12.2097  -18.5076   26.9452 O   0  0  0  0  0  0  0  0  0  0  0  0
    9.9769  -17.9746   26.7511 O   0  0  0  0  0  0  0  0  0  0  0  0
  2  1  1  0
  3  2  2  0
  4  2  1  0
  5  4  1  0
  6  8  1  0
  6  5  1  0
  6  7  1  6
  8  9  2  0
 10  8  1  0
 11 12  1  1
 11 10  1  0
 13 12  1  0
 13 14  2  0
 15 14  1  0
 16 15  1  0
 17 16  2  0
 18 17  1  0
 19 18  2  0
 19 20  1  0
 20 21  2  0
 21 16  1  0
 21 13  1  0
 22 11  1  0
 23 22  2  0
 25 26  1  0
 25 24  1  0
 26 27  1  0
 28 27  1  1
 28 30  1  0
 28 29  1  0
 29 22  1  0
 30 32  1  0
 31 30  2  0
M  END
$$$$
