QWM.pdb
     RDKit          3D

 32 33  0  0  1  0  0  0  0  0999 V2000
   14.7395  -19.3059   20.3353 N   0  0  0  0  0  0  0  0  0  0  0  0
   14.4883  -18.8077   19.0062 C   0  0  0  0  0  0  0  0  0  0  0  0
   15.1723  -19.1992   18.0375 O   0  0  0  0  0  0  0  0  0  0  0  0
   13.4029  -17.8369   18.8577 C   0  0  0  0  0  0  0  0  0  0  0  0
   12.6888  -17.5313   20.1224 C   0  0  0  0  0  0  0  0  0  0  0  0
   11.2227  -17.2888   20.0343 C   0  0  2  0  0  0  0  0  0  0  0  0
   10.7032  -16.8274   18.8012 N   0  0  0  0  0  0  0  0  0  0  0  0
   10.7067  -16.4611   21.1522 C   0  0  0  0  0  0  0  0  0  0  0  0
   10.9864  -15.2287   21.2417 O   0  0  0  0  0  0  0  0  0  0  0  0
    9.9006  -17.0059   22.1434 N   0  0  0  0  0  0  0  0  0  0  0  0
    9.4530  -16.2114   23.3199 C   0  0  1  0  0  0  0  0  0  0  0  0
    7.9759  -16.2978   23.2880 C   0  0  0  0  0  0  0  0  0  0  0  0
    7.2484  -15.5933   24.3534 C   0  0  0  0  0  0  0  0  0  0  0  0
    6.3863  -16.1541   25.2639 C   0  0  0  0  0  0  0  0  0  0  0  0
    5.8854  -15.2107   26.0810 N   0  0  0  0  0  0  0  0  0  0  0  0
    6.4076  -14.0254   25.7218 C   0  0  0  0  0  0  0  0  0  0  0  0
    6.2037  -12.7718   26.2526 C   0  0  0  0  0  0  0  0  0  0  0  0
    6.8664  -11.7020   25.6977 C   0  0  0  0  0  0  0  0  0  0  0  0
    7.7152  -11.8977   24.6311 C   0  0  0  0  0  0  0  0  0  0  0  0
    7.8982  -13.1647   24.1226 C   0  0  0  0  0  0  0  0  0  0  0  0
    7.2547  -14.2490   24.6509 C   0  0  0  0  0  0  0  0  0  0  0  0
   10.0051  -16.9020   24.4972 C   0  0  0  0  0  0  0  0  0  0  0  0
   10.6405  -17.9948   24.2795 O   0  0  0  0  0  0  0  0  0  0  0  0
    9.9242  -12.3497   27.8462 C   0  0  0  0  0  0  0  0  0  0  0  0
    9.7434  -13.8814   28.8265 S   0  0  0  0  0  0  0  0  0  0  0  0
   10.9579  -15.0665   28.1369 C   0  0  0  0  0  0  0  0  0  0  0  0
   10.4380  -16.4636   28.1882 C   0  0  0  0  0  0  0  0  0  0  0  0
   10.6285  -17.1428   26.8576 C   0  0  2  0  0  0  0  0  0  0  0  0
    9.8794  -16.4317   25.8293 N   0  0  0  0  0  0  0  0  0  0  0  0
   10.1341  -18.5216   26.9124 C   0  0  0  0  0  0  0  0  0  0  0  0
    9.1090  -18.8440   26.2372 O   0  0  0  0  0  0  0  0  0  0  0  0
   10.7761  -19.4872   27.6912 O   0  0  0  0  0  0  0  0  0  0  0  0
  2  1  1  0
  3  2  2  0
  4  2  1  0
  5  4  1  0
  6  8  1  0
  6  5  1  0
  6  7  1  6
  8  9  2  0
 10  8  1  0
 11 12  1  1
 11 10  1  0
 13 12  1  0
 13 14  2  0
 15 14  1  0
 16 15  1  0
 17 16  2  0
 18 17  1  0
 19 18  2  0
 19 20  1  0
 20 21  2  0
 21 16  1  0
 21 13  1  0
 22 11  1  0
 23 22  2  0
 25 26  1  0
 25 24  1  0
 26 27  1  0
 28 27  1  1
 28 30  1  0
 28 29  1  0
 29 22  1  0
 30 32  1  0
 31 30  2  0
M  END
$$$$
