QWM.pdb
     RDKit          3D

 32 33  0  0  1  0  0  0  0  0999 V2000
   10.9887  -15.8522   15.7292 N   0  0  0  0  0  0  0  0  0  0  0  0
   10.1000  -16.9843   15.8094 C   0  0  0  0  0  0  0  0  0  0  0  0
    9.5003  -17.3986   14.7954 O   0  0  0  0  0  0  0  0  0  0  0  0
    9.9458  -17.6125   17.1224 C   0  0  0  0  0  0  0  0  0  0  0  0
   10.8098  -17.0266   18.1775 C   0  0  0  0  0  0  0  0  0  0  0  0
   10.6837  -17.5890   19.5501 C   0  0  2  0  0  0  0  0  0  0  0  0
    9.7845  -18.6650   19.7421 N   0  0  0  0  0  0  0  0  0  0  0  0
   10.4671  -16.5463   20.5830 C   0  0  0  0  0  0  0  0  0  0  0  0
   11.1357  -15.4703   20.5816 O   0  0  0  0  0  0  0  0  0  0  0  0
    9.5260  -16.7113   21.5911 N   0  0  0  0  0  0  0  0  0  0  0  0
    9.3341  -15.6969   22.6633 C   0  0  1  0  0  0  0  0  0  0  0  0
    7.8749  -15.4514   22.6876 C   0  0  0  0  0  0  0  0  0  0  0  0
    7.2729  -15.1680   23.9983 C   0  0  0  0  0  0  0  0  0  0  0  0
    6.7923  -16.0913   24.8945 C   0  0  0  0  0  0  0  0  0  0  0  0
    6.2942  -15.4769   25.9821 N   0  0  0  0  0  0  0  0  0  0  0  0
    6.4394  -14.1508   25.8173 C   0  0  0  0  0  0  0  0  0  0  0  0
    6.0868  -13.1123   26.6491 C   0  0  0  0  0  0  0  0  0  0  0  0
    6.3461  -11.8234   26.2455 C   0  0  0  0  0  0  0  0  0  0  0  0
    6.9482  -11.5924   25.0288 C   0  0  0  0  0  0  0  0  0  0  0  0
    7.2892  -12.6530   24.2189 C   0  0  0  0  0  0  0  0  0  0  0  0
    7.0453  -13.9459   24.5903 C   0  0  0  0  0  0  0  0  0  0  0  0
    9.7900  -16.3426   23.9054 C   0  0  0  0  0  0  0  0  0  0  0  0
    9.4075  -17.5513   24.1011 O   0  0  0  0  0  0  0  0  0  0  0  0
   11.5430  -14.2552   30.0007 C   0  0  0  0  0  0  0  0  0  0  0  0
   10.1214  -13.8059   28.9439 S   0  0  0  0  0  0  0  0  0  0  0  0
   10.4956  -14.4818   27.2831 C   0  0  0  0  0  0  0  0  0  0  0  0
   10.4181  -15.9714   27.2764 C   0  0  0  0  0  0  0  0  0  0  0  0
   11.0291  -16.5222   26.0150 C   0  0  2  0  0  0  0  0  0  0  0  0
   10.6153  -15.7159   24.8737 N   0  0  0  0  0  0  0  0  0  0  0  0
   10.5801  -17.8991   25.7889 C   0  0  0  0  0  0  0  0  0  0  0  0
    9.5234  -18.1084   25.1181 O   0  0  0  0  0  0  0  0  0  0  0  0
   11.2994  -18.9842   26.2951 O   0  0  0  0  0  0  0  0  0  0  0  0
  2  1  1  0
  3  2  2  0
  4  2  1  0
  5  4  1  0
  6  8  1  0
  6  5  1  0
  6  7  1  6
  8  9  2  0
 10  8  1  0
 11 12  1  1
 11 10  1  0
 13 12  1  0
 13 14  2  0
 15 14  1  0
 16 15  1  0
 17 16  2  0
 18 17  1  0
 19 18  2  0
 19 20  1  0
 20 21  2  0
 21 16  1  0
 21 13  1  0
 22 11  1  0
 23 22  2  0
 25 26  1  0
 25 24  1  0
 26 27  1  0
 28 27  1  1
 28 30  1  0
 28 29  1  0
 29 22  1  0
 30 32  1  0
 31 30  2  0
M  END
$$$$
