QWM.pdb
     RDKit          3D

 32 33  0  0  1  0  0  0  0  0999 V2000
    7.7263  -15.3565   15.6161 N   0  0  0  0  0  0  0  0  0  0  0  0
    8.9563  -15.7707   16.2433 C   0  0  0  0  0  0  0  0  0  0  0  0
   10.0241  -15.8019   15.5964 O   0  0  0  0  0  0  0  0  0  0  0  0
    8.8855  -16.1424   17.6572 C   0  0  0  0  0  0  0  0  0  0  0  0
   10.2042  -16.4373   18.2709 C   0  0  0  0  0  0  0  0  0  0  0  0
   10.2250  -17.3931   19.4121 C   0  0  2  0  0  0  0  0  0  0  0  0
    9.2430  -18.4121   19.4372 N   0  0  0  0  0  0  0  0  0  0  0  0
   10.2984  -16.7162   20.7302 C   0  0  0  0  0  0  0  0  0  0  0  0
   11.0656  -15.7259   20.9192 O   0  0  0  0  0  0  0  0  0  0  0  0
    9.5315  -17.1435   21.8065 N   0  0  0  0  0  0  0  0  0  0  0  0
    9.5059  -16.4044   23.0983 C   0  0  1  0  0  0  0  0  0  0  0  0
    8.1716  -16.6961   23.6684 C   0  0  0  0  0  0  0  0  0  0  0  0
    7.2941  -15.5445   23.9223 C   0  0  0  0  0  0  0  0  0  0  0  0
    6.1022  -15.2709   23.2970 C   0  0  0  0  0  0  0  0  0  0  0  0
    5.5775  -14.1243   23.7645 N   0  0  0  0  0  0  0  0  0  0  0  0
    6.4109  -13.6319   24.6970 C   0  0  0  0  0  0  0  0  0  0  0  0
    6.3117  -12.4885   25.4569 C   0  0  0  0  0  0  0  0  0  0  0  0
    7.3123  -12.2018   26.3558 C   0  0  0  0  0  0  0  0  0  0  0  0
    8.3873  -13.0532   26.4817 C   0  0  0  0  0  0  0  0  0  0  0  0
    8.4577  -14.1899   25.7070 C   0  0  0  0  0  0  0  0  0  0  0  0
    7.4801  -14.5037   24.8043 C   0  0  0  0  0  0  0  0  0  0  0  0
   10.5788  -16.9965   23.9144 C   0  0  0  0  0  0  0  0  0  0  0  0
   10.8883  -18.2158   23.6635 O   0  0  0  0  0  0  0  0  0  0  0  0
   10.6424  -12.9932   29.3985 C   0  0  0  0  0  0  0  0  0  0  0  0
   10.3036  -14.7778   29.1983 S   0  0  0  0  0  0  0  0  0  0  0  0
   11.3150  -15.3252   27.7727 C   0  0  0  0  0  0  0  0  0  0  0  0
   10.8982  -16.6781   27.3027 C   0  0  0  0  0  0  0  0  0  0  0  0
   11.7006  -17.0832   26.0943 C   0  0  2  0  0  0  0  0  0  0  0  0
   11.2766  -16.3050   24.9374 N   0  0  0  0  0  0  0  0  0  0  0  0
   11.4894  -18.5021   25.7933 C   0  0  0  0  0  0  0  0  0  0  0  0
   10.3233  -18.9119   25.5053 O   0  0  0  0  0  0  0  0  0  0  0  0
   12.5516  -19.4091   25.8129 O   0  0  0  0  0  0  0  0  0  0  0  0
  2  1  1  0
  3  2  2  0
  4  2  1  0
  5  4  1  0
  6  8  1  0
  6  5  1  0
  6  7  1  1
  8  9  2  0
 10  8  1  0
 11 12  1  1
 11 10  1  0
 13 12  1  0
 13 14  2  0
 15 14  1  0
 16 15  1  0
 17 16  2  0
 18 17  1  0
 19 18  2  0
 19 20  1  0
 20 21  2  0
 21 16  1  0
 21 13  1  0
 22 11  1  0
 23 22  2  0
 25 26  1  0
 25 24  1  0
 26 27  1  0
 28 27  1  1
 28 30  1  0
 28 29  1  0
 29 22  1  0
 30 32  1  0
 31 30  2  0
M  END
$$$$
