QWM.pdb
     RDKit          3D

 32 33  0  0  1  0  0  0  0  0999 V2000
   14.6810  -18.2361   19.0793 N   0  0  0  0  0  0  0  0  0  0  0  0
   13.3750  -18.7423   18.7388 C   0  0  0  0  0  0  0  0  0  0  0  0
   13.0447  -19.9092   19.0368 O   0  0  0  0  0  0  0  0  0  0  0  0
   12.4721  -17.8265   18.0399 C   0  0  0  0  0  0  0  0  0  0  0  0
   11.8157  -16.8326   18.9254 C   0  0  0  0  0  0  0  0  0  0  0  0
   10.5496  -17.2457   19.5908 C   0  0  2  0  0  0  0  0  0  0  0  0
    9.3852  -17.3412   18.7918 N   0  0  0  0  0  0  0  0  0  0  0  0
   10.2661  -16.4702   20.8233 C   0  0  0  0  0  0  0  0  0  0  0  0
   10.6834  -15.2822   20.9635 O   0  0  0  0  0  0  0  0  0  0  0  0
    9.5356  -17.0174   21.8702 N   0  0  0  0  0  0  0  0  0  0  0  0
    9.2432  -16.2506   23.1121 C   0  0  1  0  0  0  0  0  0  0  0  0
    7.9478  -16.7875   23.5855 C   0  0  0  0  0  0  0  0  0  0  0  0
    7.1805  -15.9436   24.5127 C   0  0  0  0  0  0  0  0  0  0  0  0
    6.0359  -16.2976   25.1843 C   0  0  0  0  0  0  0  0  0  0  0  0
    5.5920  -15.2716   25.9318 N   0  0  0  0  0  0  0  0  0  0  0  0
    6.4327  -14.2364   25.7634 C   0  0  0  0  0  0  0  0  0  0  0  0
    6.4035  -12.9748   26.3132 C   0  0  0  0  0  0  0  0  0  0  0  0
    7.3948  -12.0828   25.9768 C   0  0  0  0  0  0  0  0  0  0  0  0
    8.3915  -12.4600   25.1047 C   0  0  0  0  0  0  0  0  0  0  0  0
    8.3930  -13.7299   24.5713 C   0  0  0  0  0  0  0  0  0  0  0  0
    7.4226  -14.6404   24.8850 C   0  0  0  0  0  0  0  0  0  0  0  0
   10.3330  -16.5788   24.0459 C   0  0  0  0  0  0  0  0  0  0  0  0
   11.0756  -17.5783   23.7374 O   0  0  0  0  0  0  0  0  0  0  0  0
    9.8852  -12.3287   28.5425 C   0  0  0  0  0  0  0  0  0  0  0  0
   10.9308  -13.7064   29.1327 S   0  0  0  0  0  0  0  0  0  0  0  0
   10.6644  -15.0817   27.9525 C   0  0  0  0  0  0  0  0  0  0  0  0
   11.9219  -15.4205   27.2255 C   0  0  0  0  0  0  0  0  0  0  0  0
   11.6383  -16.3975   26.1151 C   0  0  2  0  0  0  0  0  0  0  0  0
   10.6034  -15.8622   25.2396 N   0  0  0  0  0  0  0  0  0  0  0  0
   11.1598  -17.6696   26.6640 C   0  0  0  0  0  0  0  0  0  0  0  0
    9.9141  -17.9115   26.6835 O   0  0  0  0  0  0  0  0  0  0  0  0
   12.0529  -18.6220   27.1605 O   0  0  0  0  0  0  0  0  0  0  0  0
  2  1  1  0
  3  2  2  0
  4  2  1  0
  5  4  1  0
  6  8  1  0
  6  5  1  0
  6  7  1  6
  8  9  2  0
 10  8  1  0
 11 12  1  1
 11 10  1  0
 13 12  1  0
 13 14  2  0
 15 14  1  0
 16 15  1  0
 17 16  2  0
 18 17  1  0
 19 18  2  0
 19 20  1  0
 20 21  2  0
 21 16  1  0
 21 13  1  0
 22 11  1  0
 23 22  2  0
 25 26  1  0
 25 24  1  0
 26 27  1  0
 28 27  1  1
 28 30  1  0
 28 29  1  0
 29 22  1  0
 30 32  1  0
 31 30  2  0
M  END
$$$$
