QWM.pdb
     RDKit          3D

 32 33  0  0  1  0  0  0  0  0999 V2000
    9.9823  -17.2328   15.5284 N   0  0  0  0  0  0  0  0  0  0  0  0
    9.5405  -16.5567   16.7224 C   0  0  0  0  0  0  0  0  0  0  0  0
    9.0894  -15.3935   16.6678 O   0  0  0  0  0  0  0  0  0  0  0  0
    9.6450  -17.2985   17.9798 C   0  0  0  0  0  0  0  0  0  0  0  0
   11.0057  -17.2936   18.5726 C   0  0  0  0  0  0  0  0  0  0  0  0
   11.1608  -17.8965   19.9249 C   0  0  2  0  0  0  0  0  0  0  0  0
   10.6123  -19.1834   20.1403 N   0  0  0  0  0  0  0  0  0  0  0  0
   10.7584  -16.9760   21.0166 C   0  0  0  0  0  0  0  0  0  0  0  0
   11.2244  -15.8003   21.0906 O   0  0  0  0  0  0  0  0  0  0  0  0
    9.8588  -17.3688   21.9991 N   0  0  0  0  0  0  0  0  0  0  0  0
    9.4280  -16.4478   23.0863 C   0  0  1  0  0  0  0  0  0  0  0  0
    7.9559  -16.5922   23.1357 C   0  0  0  0  0  0  0  0  0  0  0  0
    7.2545  -15.8628   24.2018 C   0  0  0  0  0  0  0  0  0  0  0  0
    6.4211  -16.4027   25.1507 C   0  0  0  0  0  0  0  0  0  0  0  0
    5.9382  -15.4401   25.9561 N   0  0  0  0  0  0  0  0  0  0  0  0
    6.4439  -14.2625   25.5510 C   0  0  0  0  0  0  0  0  0  0  0  0
    6.2483  -12.9961   26.0536 C   0  0  0  0  0  0  0  0  0  0  0  0
    6.8897  -11.9386   25.4521 C   0  0  0  0  0  0  0  0  0  0  0  0
    7.7095  -12.1590   24.3678 C   0  0  0  0  0  0  0  0  0  0  0  0
    7.8850  -13.4382   23.8883 C   0  0  0  0  0  0  0  0  0  0  0  0
    7.2621  -14.5109   24.4631 C   0  0  0  0  0  0  0  0  0  0  0  0
   10.0586  -16.9615   24.3134 C   0  0  0  0  0  0  0  0  0  0  0  0
   10.5665  -18.1378   24.2520 O   0  0  0  0  0  0  0  0  0  0  0  0
    9.3622  -12.7821   28.6408 C   0  0  0  0  0  0  0  0  0  0  0  0
   11.0619  -13.4284   28.8225 S   0  0  0  0  0  0  0  0  0  0  0  0
   11.2906  -14.6325   27.4613 C   0  0  0  0  0  0  0  0  0  0  0  0
   10.8001  -15.9864   27.8500 C   0  0  0  0  0  0  0  0  0  0  0  0
   10.7884  -16.9026   26.6548 C   0  0  2  0  0  0  0  0  0  0  0  0
   10.1376  -16.2397   25.5318 N   0  0  0  0  0  0  0  0  0  0  0  0
   10.0426  -18.1275   26.9575 C   0  0  0  0  0  0  0  0  0  0  0  0
    8.8639  -18.2673   26.5083 O   0  0  0  0  0  0  0  0  0  0  0  0
   10.6102  -19.1455   27.7274 O   0  0  0  0  0  0  0  0  0  0  0  0
  2  1  1  0
  3  2  2  0
  4  2  1  0
  5  4  1  0
  6  8  1  0
  6  5  1  0
  6  7  1  6
  8  9  2  0
 10  8  1  0
 11 12  1  1
 11 10  1  0
 13 12  1  0
 13 14  2  0
 15 14  1  0
 16 15  1  0
 17 16  2  0
 18 17  1  0
 19 18  2  0
 19 20  1  0
 20 21  2  0
 21 16  1  0
 21 13  1  0
 22 11  1  0
 23 22  2  0
 25 26  1  0
 25 24  1  0
 26 27  1  0
 28 27  1  1
 28 30  1  0
 28 29  1  0
 29 22  1  0
 30 32  1  0
 31 30  2  0
M  END
$$$$
