PVF.pdb
     RDKit          3D

 26 27  0  0  1  0  0  0  0  0999 V2000
    8.6536  -15.2529   18.4648 N   0  0  0  0  0  0  0  0  0  0  0  0
    8.4055  -14.7201   17.1566 C   0  0  0  0  0  0  0  0  0  0  0  0
    8.1504  -13.2370   17.3107 C   0  0  0  0  0  0  0  0  0  0  0  0
    7.7060  -13.1764   18.7781 C   0  0  0  0  0  0  0  0  0  0  0  0
    8.6697  -14.1622   19.4006 C   0  0  1  0  0  0  0  0  0  0  0  0
    8.2100  -14.5993   20.7615 C   0  0  0  0  0  0  0  0  0  0  0  0
    8.2265  -13.7123   21.6313 O   0  0  0  0  0  0  0  0  0  0  0  0
    5.8087  -18.2468   23.2533 C   0  0  0  0  0  0  0  0  0  0  0  0
    6.5234  -17.7484   21.9986 C   0  0  1  0  0  0  0  0  0  0  0  0
    5.3330  -17.3830   21.0718 C   0  0  0  0  0  0  0  0  0  0  0  0
    7.2431  -16.4577   22.2437 C   0  0  2  0  0  0  0  0  0  0  0  0
    7.7978  -15.8929   21.0305 N   0  0  0  0  0  0  0  0  0  0  0  0
    8.2309  -16.4008   23.2949 C   0  0  0  0  0  0  0  0  0  0  0  0
    9.4509  -16.7490   23.0021 O   0  0  0  0  0  0  0  0  0  0  0  0
    8.0101  -15.9925   24.6299 N   0  0  0  0  0  0  0  0  0  0  0  0
    9.0680  -16.0242   25.6336 C   0  0  1  0  0  0  0  0  0  0  0  0
    9.4094  -14.5687   25.8968 C   0  0  0  0  0  0  0  0  0  0  0  0
    8.2869  -13.7628   26.3761 C   0  0  0  0  0  0  0  0  0  0  0  0
    7.1966  -13.4478   25.5960 C   0  0  0  0  0  0  0  0  0  0  0  0
    6.1419  -12.6800   26.0870 C   0  0  0  0  0  0  0  0  0  0  0  0
    6.1596  -12.2071   27.3850 C   0  0  0  0  0  0  0  0  0  0  0  0
    7.2485  -12.5199   28.1687 C   0  0  0  0  0  0  0  0  0  0  0  0
    8.2981  -13.2843   27.6791 C   0  0  0  0  0  0  0  0  0  0  0  0
    8.5460  -16.7097   26.8308 C   0  0  0  0  0  0  0  0  0  0  0  0
    7.2709  -17.1932   26.9342 O   0  0  0  0  0  0  0  0  0  0  0  0
    9.3480  -16.8441   27.8064 O   0  0  0  0  0  0  0  0  0  0  0  0
  1  2  1  0
  3  2  1  0
  4  5  1  0
  4  3  1  0
  5  6  1  1
  5  1  1  0
  6  7  2  0
  9  8  1  1
  9 10  1  0
  9 11  1  0
 11 12  1  6
 12  6  1  0
 13 11  1  0
 14 13  2  0
 15 13  1  0
 16 15  1  0
 16 24  1  0
 16 17  1  1
 18 17  1  0
 19 18  2  0
 20 19  1  0
 21 22  1  0
 21 20  2  0
 22 23  2  0
 23 18  1  0
 24 25  1  0
 26 24  2  0
M  END
$$$$
