PVF.pdb
     RDKit          3D

 26 27  0  0  1  0  0  0  0  0999 V2000
    9.0043  -14.7577   19.4261 N   0  0  0  0  0  0  0  0  0  0  0  0
    8.9531  -14.0814   18.1625 C   0  0  0  0  0  0  0  0  0  0  0  0
    8.2518  -12.7592   18.3827 C   0  0  0  0  0  0  0  0  0  0  0  0
    7.4525  -13.0703   19.6550 C   0  0  0  0  0  0  0  0  0  0  0  0
    8.4686  -13.8796   20.4299 C   0  0  1  0  0  0  0  0  0  0  0  0
    7.8253  -14.6499   21.5466 C   0  0  0  0  0  0  0  0  0  0  0  0
    7.2538  -13.9545   22.4031 O   0  0  0  0  0  0  0  0  0  0  0  0
    6.2540  -19.1657   23.0332 C   0  0  0  0  0  0  0  0  0  0  0  0
    7.0630  -18.3040   22.0654 C   0  0  1  0  0  0  0  0  0  0  0  0
    6.0693  -18.1210   20.8871 C   0  0  0  0  0  0  0  0  0  0  0  0
    7.2922  -16.9258   22.6057 C   0  0  2  0  0  0  0  0  0  0  0  0
    7.8638  -16.0315   21.6197 N   0  0  0  0  0  0  0  0  0  0  0  0
    7.9995  -16.7773   23.8555 C   0  0  0  0  0  0  0  0  0  0  0  0
    9.3008  -16.7566   23.8187 O   0  0  0  0  0  0  0  0  0  0  0  0
    7.4168  -16.6424   25.1361 N   0  0  0  0  0  0  0  0  0  0  0  0
    8.2094  -16.3145   26.3158 C   0  0  1  0  0  0  0  0  0  0  0  0
    7.3067  -15.4440   27.1713 C   0  0  0  0  0  0  0  0  0  0  0  0
    7.0830  -14.1002   26.6387 C   0  0  0  0  0  0  0  0  0  0  0  0
    5.8531  -13.6537   26.2094 C   0  0  0  0  0  0  0  0  0  0  0  0
    5.6752  -12.3643   25.7106 C   0  0  0  0  0  0  0  0  0  0  0  0
    6.7392  -11.4867   25.6313 C   0  0  0  0  0  0  0  0  0  0  0  0
    7.9714  -11.9296   26.0597 C   0  0  0  0  0  0  0  0  0  0  0  0
    8.1477  -13.2134   26.5561 C   0  0  0  0  0  0  0  0  0  0  0  0
    8.5815  -17.5751   26.9851 C   0  0  0  0  0  0  0  0  0  0  0  0
    8.0336  -18.7896   26.6767 O   0  0  0  0  0  0  0  0  0  0  0  0
    9.4632  -17.4987   27.8961 O   0  0  0  0  0  0  0  0  0  0  0  0
  1  2  1  0
  3  2  1  0
  4  5  1  0
  4  3  1  0
  5  6  1  1
  5  1  1  0
  6  7  2  0
  9  8  1  1
  9 10  1  0
  9 11  1  0
 11 12  1  6
 12  6  1  0
 13 11  1  0
 14 13  2  0
 15 13  1  0
 16 15  1  0
 16 24  1  0
 16 17  1  1
 18 17  1  0
 19 18  2  0
 20 19  1  0
 21 22  1  0
 21 20  2  0
 22 23  2  0
 23 18  1  0
 24 25  1  0
 26 24  2  0
M  END
$$$$
