PVF.pdb
     RDKit          3D

 26 27  0  0  1  0  0  0  0  0999 V2000
    8.9566  -17.8310   18.2703 N   0  0  0  0  0  0  0  0  0  0  0  0
    9.0810  -17.9381   16.8457 C   0  0  0  0  0  0  0  0  0  0  0  0
   10.4458  -17.4064   16.4674 C   0  0  0  0  0  0  0  0  0  0  0  0
   10.7434  -16.5051   17.6729 C   0  0  0  0  0  0  0  0  0  0  0  0
   10.2082  -17.3621   18.7987 C   0  0  1  0  0  0  0  0  0  0  0  0
   10.0095  -16.5630   20.0542 C   0  0  0  0  0  0  0  0  0  0  0  0
   11.0330  -16.3977   20.7389 O   0  0  0  0  0  0  0  0  0  0  0  0
    6.9073  -13.5690   22.6177 C   0  0  0  0  0  0  0  0  0  0  0  0
    7.2476  -14.3871   21.3733 C   0  0  1  0  0  0  0  0  0  0  0  0
    7.7921  -13.2989   20.4096 C   0  0  0  0  0  0  0  0  0  0  0  0
    8.4000  -15.3132   21.6140 C   0  0  2  0  0  0  0  0  0  0  0  0
    8.7796  -16.0474   20.4243 N   0  0  0  0  0  0  0  0  0  0  0  0
    8.3429  -16.2173   22.7381 C   0  0  0  0  0  0  0  0  0  0  0  0
    8.0654  -17.4668   22.4995 O   0  0  0  0  0  0  0  0  0  0  0  0
    8.5678  -15.8836   24.0930 N   0  0  0  0  0  0  0  0  0  0  0  0
    8.5023  -16.8801   25.1561 C   0  0  1  0  0  0  0  0  0  0  0  0
    9.6985  -16.5915   26.0451 C   0  0  0  0  0  0  0  0  0  0  0  0
    9.5889  -15.3571   26.8221 C   0  0  0  0  0  0  0  0  0  0  0  0
    8.5977  -14.4229   26.6190 C   0  0  0  0  0  0  0  0  0  0  0  0
    8.5213  -13.2585   27.3813 C   0  0  0  0  0  0  0  0  0  0  0  0
    9.4479  -13.0045   28.3741 C   0  0  0  0  0  0  0  0  0  0  0  0
   10.4412  -13.9365   28.5804 C   0  0  0  0  0  0  0  0  0  0  0  0
   10.5166  -15.0955   27.8210 C   0  0  0  0  0  0  0  0  0  0  0  0
    7.2180  -16.7154   25.8626 C   0  0  0  0  0  0  0  0  0  0  0  0
    6.3132  -15.7311   25.5749 O   0  0  0  0  0  0  0  0  0  0  0  0
    6.9641  -17.5491   26.7865 O   0  0  0  0  0  0  0  0  0  0  0  0
  1  2  1  0
  3  2  1  0
  4  5  1  0
  4  3  1  0
  5  6  1  1
  5  1  1  0
  6  7  2  0
  9  8  1  1
  9 10  1  0
  9 11  1  0
 11 12  1  6
 12  6  1  0
 13 11  1  0
 14 13  2  0
 15 13  1  0
 16 15  1  0
 16 24  1  0
 16 17  1  1
 18 17  1  0
 19 18  2  0
 20 19  1  0
 21 22  1  0
 21 20  2  0
 22 23  2  0
 23 18  1  0
 24 25  1  0
 26 24  2  0
M  END
$$$$
