PVF.pdb
     RDKit          3D

 26 27  0  0  1  0  0  0  0  0999 V2000
    7.3573  -18.9556   20.6370 N   0  0  0  0  0  0  0  0  0  0  0  0
    6.2498  -19.6642   20.0642 C   0  0  0  0  0  0  0  0  0  0  0  0
    6.1710  -19.2799   18.6032 C   0  0  0  0  0  0  0  0  0  0  0  0
    6.9010  -17.9305   18.6249 C   0  0  0  0  0  0  0  0  0  0  0  0
    8.0273  -18.2399   19.5860 C   0  0  1  0  0  0  0  0  0  0  0  0
    8.6737  -16.9863   20.1008 C   0  0  0  0  0  0  0  0  0  0  0  0
    9.8615  -16.8340   19.7698 O   0  0  0  0  0  0  0  0  0  0  0  0
    7.9267  -12.3352   21.6162 C   0  0  0  0  0  0  0  0  0  0  0  0
    7.4450  -13.6897   21.0994 C   0  0  1  0  0  0  0  0  0  0  0  0
    7.4962  -13.4859   19.5614 C   0  0  0  0  0  0  0  0  0  0  0  0
    8.4332  -14.7783   21.3862 C   0  0  2  0  0  0  0  0  0  0  0  0
    7.9998  -16.0668   20.8856 N   0  0  0  0  0  0  0  0  0  0  0  0
    8.9305  -14.9292   22.7331 C   0  0  0  0  0  0  0  0  0  0  0  0
    9.7709  -14.0379   23.1742 O   0  0  0  0  0  0  0  0  0  0  0  0
    8.5890  -15.9571   23.6412 N   0  0  0  0  0  0  0  0  0  0  0  0
    8.9143  -15.8747   25.0606 C   0  0  1  0  0  0  0  0  0  0  0  0
    7.5833  -15.6719   25.7619 C   0  0  0  0  0  0  0  0  0  0  0  0
    7.2553  -14.2742   26.0415 C   0  0  0  0  0  0  0  0  0  0  0  0
    5.9899  -13.7516   25.8926 C   0  0  0  0  0  0  0  0  0  0  0  0
    5.7120  -12.4146   26.1721 C   0  0  0  0  0  0  0  0  0  0  0  0
    6.7089  -11.5650   26.6115 C   0  0  0  0  0  0  0  0  0  0  0  0
    7.9762  -12.0838   26.7617 C   0  0  0  0  0  0  0  0  0  0  0  0
    8.2520  -13.4150   26.4832 C   0  0  0  0  0  0  0  0  0  0  0  0
    9.5770  -17.1321   25.4546 C   0  0  0  0  0  0  0  0  0  0  0  0
    9.8684  -18.1434   24.5812 O   0  0  0  0  0  0  0  0  0  0  0  0
    9.8828  -17.2560   26.6810 O   0  0  0  0  0  0  0  0  0  0  0  0
  1  2  1  0
  3  2  1  0
  4  5  1  0
  4  3  1  0
  5  6  1  1
  5  1  1  0
  6  7  2  0
  9  8  1  1
  9 10  1  0
  9 11  1  0
 11 12  1  1
 12  6  1  0
 13 11  1  0
 14 13  2  0
 15 13  1  0
 16 15  1  0
 16 24  1  0
 16 17  1  1
 18 17  1  0
 19 18  2  0
 20 19  1  0
 21 22  1  0
 21 20  2  0
 22 23  2  0
 23 18  1  0
 24 25  1  0
 26 24  2  0
M  END
$$$$
