PVF.pdb
     RDKit          3D

 26 27  0  0  1  0  0  0  0  0999 V2000
    6.4842  -18.1518   20.6249 N   0  0  0  0  0  0  0  0  0  0  0  0
    5.4131  -18.7014   19.8456 C   0  0  0  0  0  0  0  0  0  0  0  0
    5.8869  -18.7766   18.4110 C   0  0  0  0  0  0  0  0  0  0  0  0
    6.9927  -17.7130   18.4211 C   0  0  0  0  0  0  0  0  0  0  0  0
    7.6258  -17.9839   19.7679 C   0  0  1  0  0  0  0  0  0  0  0  0
    8.4843  -16.8362   20.2153 C   0  0  0  0  0  0  0  0  0  0  0  0
    9.6548  -16.8629   19.7997 O   0  0  0  0  0  0  0  0  0  0  0  0
    7.5624  -13.3783   19.6640 C   0  0  0  0  0  0  0  0  0  0  0  0
    7.9685  -13.3748   21.1367 C   0  0  1  0  0  0  0  0  0  0  0  0
    6.5928  -13.4482   21.8518 C   0  0  0  0  0  0  0  0  0  0  0  0
    8.6805  -14.6355   21.5206 C   0  0  2  0  0  0  0  0  0  0  0  0
    8.0105  -15.8224   21.0297 N   0  0  0  0  0  0  0  0  0  0  0  0
    9.0528  -14.8312   22.9017 C   0  0  0  0  0  0  0  0  0  0  0  0
   10.0286  -14.1114   23.3760 O   0  0  0  0  0  0  0  0  0  0  0  0
    8.4537  -15.7328   23.8105 N   0  0  0  0  0  0  0  0  0  0  0  0
    8.9325  -15.8830   25.1800 C   0  0  1  0  0  0  0  0  0  0  0  0
    7.7047  -15.6953   26.0528 C   0  0  0  0  0  0  0  0  0  0  0  0
    7.3857  -14.2999   26.3534 C   0  0  0  0  0  0  0  0  0  0  0  0
    6.1397  -13.7499   26.1496 C   0  0  0  0  0  0  0  0  0  0  0  0
    5.8696  -12.4161   26.4512 C   0  0  0  0  0  0  0  0  0  0  0  0
    6.8548  -11.5976   26.9690 C   0  0  0  0  0  0  0  0  0  0  0  0
    8.1027  -12.1439   27.1742 C   0  0  0  0  0  0  0  0  0  0  0  0
    8.3707  -13.4719   26.8738 C   0  0  0  0  0  0  0  0  0  0  0  0
    9.5245  -17.2272   25.3156 C   0  0  0  0  0  0  0  0  0  0  0  0
    9.6507  -18.1100   24.2788 O   0  0  0  0  0  0  0  0  0  0  0  0
    9.9313  -17.5574   26.4726 O   0  0  0  0  0  0  0  0  0  0  0  0
  1  2  1  0
  3  2  1  0
  4  5  1  0
  4  3  1  0
  5  6  1  1
  5  1  1  0
  6  7  2  0
  9  8  1  6
  9 10  1  0
  9 11  1  0
 11 12  1  1
 12  6  1  0
 13 11  1  0
 14 13  2  0
 15 13  1  0
 16 15  1  0
 16 24  1  0
 16 17  1  1
 18 17  1  0
 19 18  2  0
 20 19  1  0
 21 22  1  0
 21 20  2  0
 22 23  2  0
 23 18  1  0
 24 25  1  0
 26 24  2  0
M  END
$$$$
