PVF.pdb
     RDKit          3D

 26 27  0  0  1  0  0  0  0  0999 V2000
    9.1984  -14.5518   18.2174 N   0  0  0  0  0  0  0  0  0  0  0  0
    8.6978  -13.8844   17.0510 C   0  0  0  0  0  0  0  0  0  0  0  0
    7.7509  -12.8011   17.5183 C   0  0  0  0  0  0  0  0  0  0  0  0
    7.3601  -13.3425   18.8998 C   0  0  0  0  0  0  0  0  0  0  0  0
    8.6942  -13.8708   19.3783 C   0  0  1  0  0  0  0  0  0  0  0  0
    8.5322  -14.8097   20.5387 C   0  0  0  0  0  0  0  0  0  0  0  0
    7.9574  -14.3268   21.5286 O   0  0  0  0  0  0  0  0  0  0  0  0
    8.9584  -19.6078   22.0149 C   0  0  0  0  0  0  0  0  0  0  0  0
    9.1619  -18.5182   20.9637 C   0  0  1  0  0  0  0  0  0  0  0  0
    7.9905  -18.7922   19.9828 C   0  0  0  0  0  0  0  0  0  0  0  0
    8.8995  -17.1524   21.5198 C   0  0  2  0  0  0  0  0  0  0  0  0
    8.9877  -16.1163   20.5111 N   0  0  0  0  0  0  0  0  0  0  0  0
    9.6145  -16.7333   22.7019 C   0  0  0  0  0  0  0  0  0  0  0  0
   10.8327  -16.2985   22.5533 O   0  0  0  0  0  0  0  0  0  0  0  0
    9.1193  -16.7390   24.0257 N   0  0  0  0  0  0  0  0  0  0  0  0
    9.8831  -16.1885   25.1397 C   0  0  1  0  0  0  0  0  0  0  0  0
    8.8600  -15.4874   26.0149 C   0  0  0  0  0  0  0  0  0  0  0  0
    9.3915  -14.9880   27.2828 C   0  0  0  0  0  0  0  0  0  0  0  0
    9.8389  -15.8128   28.2908 C   0  0  0  0  0  0  0  0  0  0  0  0
   10.3433  -15.3020   29.4856 C   0  0  0  0  0  0  0  0  0  0  0  0
   10.4098  -13.9382   29.6961 C   0  0  0  0  0  0  0  0  0  0  0  0
    9.9631  -13.1096   28.6903 C   0  0  0  0  0  0  0  0  0  0  0  0
    9.4611  -13.6190   27.5011 C   0  0  0  0  0  0  0  0  0  0  0  0
   10.5536  -17.3041   25.8337 C   0  0  0  0  0  0  0  0  0  0  0  0
    9.9731  -18.5233   26.0496 O   0  0  0  0  0  0  0  0  0  0  0  0
   11.7368  -17.0921   26.2438 O   0  0  0  0  0  0  0  0  0  0  0  0
  1  2  1  0
  3  2  1  0
  4  5  1  0
  4  3  1  0
  5  6  1  1
  5  1  1  0
  6  7  2  0
  9  8  1  1
  9 10  1  0
  9 11  1  0
 11 12  1  6
 12  6  1  0
 13 11  1  0
 14 13  2  0
 15 13  1  0
 16 15  1  0
 16 24  1  0
 16 17  1  1
 18 17  1  0
 19 18  2  0
 20 19  1  0
 21 22  1  0
 21 20  2  0
 22 23  2  0
 23 18  1  0
 24 25  1  0
 26 24  2  0
M  END
$$$$
