PVF.pdb
     RDKit          3D

 26 27  0  0  1  0  0  0  0  0999 V2000
    9.2185  -14.1516   19.4670 N   0  0  0  0  0  0  0  0  0  0  0  0
    8.9925  -13.4044   18.2640 C   0  0  0  0  0  0  0  0  0  0  0  0
    7.8372  -12.4631   18.5239 C   0  0  0  0  0  0  0  0  0  0  0  0
    7.1389  -13.1844   19.6843 C   0  0  0  0  0  0  0  0  0  0  0  0
    8.3365  -13.6477   20.4837 C   0  0  1  0  0  0  0  0  0  0  0  0
    7.9629  -14.7191   21.4670 C   0  0  0  0  0  0  0  0  0  0  0  0
    7.0456  -14.4176   22.2488 O   0  0  0  0  0  0  0  0  0  0  0  0
    8.4004  -19.5685   22.6401 C   0  0  0  0  0  0  0  0  0  0  0  0
    8.8375  -18.3719   21.7969 C   0  0  1  0  0  0  0  0  0  0  0  0
    7.9846  -18.5523   20.5126 C   0  0  0  0  0  0  0  0  0  0  0  0
    8.3830  -17.0752   22.3933 C   0  0  2  0  0  0  0  0  0  0  0  0
    8.5913  -15.9518   21.5027 N   0  0  0  0  0  0  0  0  0  0  0  0
    8.8309  -16.7249   23.7203 C   0  0  0  0  0  0  0  0  0  0  0  0
   10.0221  -16.2143   23.8448 O   0  0  0  0  0  0  0  0  0  0  0  0
    8.0960  -16.8741   24.9184 N   0  0  0  0  0  0  0  0  0  0  0  0
    8.6472  -16.4994   26.2158 C   0  0  1  0  0  0  0  0  0  0  0  0
    7.5071  -15.8166   26.9495 C   0  0  0  0  0  0  0  0  0  0  0  0
    7.3187  -14.4098   26.5961 C   0  0  0  0  0  0  0  0  0  0  0  0
    8.2933  -13.4519   26.7664 C   0  0  0  0  0  0  0  0  0  0  0  0
    8.0807  -12.1199   26.4147 C   0  0  0  0  0  0  0  0  0  0  0  0
    6.8725  -11.7172   25.8791 C   0  0  0  0  0  0  0  0  0  0  0  0
    5.8948  -12.6724   25.7072 C   0  0  0  0  0  0  0  0  0  0  0  0
    6.1074  -13.9982   26.0575 C   0  0  0  0  0  0  0  0  0  0  0  0
    9.1033  -17.7272   26.8940 C   0  0  0  0  0  0  0  0  0  0  0  0
    8.8427  -18.9894   26.4366 O   0  0  0  0  0  0  0  0  0  0  0  0
    9.7738  -17.5738   27.9617 O   0  0  0  0  0  0  0  0  0  0  0  0
  1  2  1  0
  3  2  1  0
  4  5  1  0
  4  3  1  0
  5  6  1  1
  5  1  1  0
  6  7  2  0
  9  8  1  1
  9 10  1  0
  9 11  1  0
 11 12  1  6
 12  6  1  0
 13 11  1  0
 14 13  2  0
 15 13  1  0
 16 15  1  0
 16 24  1  0
 16 17  1  1
 18 17  1  0
 19 18  2  0
 20 19  1  0
 21 22  1  0
 21 20  2  0
 22 23  2  0
 23 18  1  0
 24 25  1  0
 26 24  2  0
M  END
$$$$
