PVF.pdb
     RDKit          3D

 26 27  0  0  1  0  0  0  0  0999 V2000
    6.0498  -18.9428   20.1429 N   0  0  0  0  0  0  0  0  0  0  0  0
    5.2982  -20.0809   20.5861 C   0  0  0  0  0  0  0  0  0  0  0  0
    4.6614  -19.7179   21.9094 C   0  0  0  0  0  0  0  0  0  0  0  0
    5.5944  -18.5918   22.3739 C   0  0  0  0  0  0  0  0  0  0  0  0
    5.8244  -17.8655   21.0671 C   0  0  1  0  0  0  0  0  0  0  0  0
    7.0128  -16.9513   21.1454 C   0  0  0  0  0  0  0  0  0  0  0  0
    8.1092  -17.4962   20.9343 O   0  0  0  0  0  0  0  0  0  0  0  0
    8.7601  -12.3125   21.0335 C   0  0  0  0  0  0  0  0  0  0  0  0
    7.5983  -13.3014   20.9577 C   0  0  1  0  0  0  0  0  0  0  0  0
    7.5425  -13.6193   19.4394 C   0  0  0  0  0  0  0  0  0  0  0  0
    7.9308  -14.6026   21.6212 C   0  0  2  0  0  0  0  0  0  0  0  0
    6.8993  -15.6018   21.4309 N   0  0  0  0  0  0  0  0  0  0  0  0
    8.3399  -14.5929   23.0057 C   0  0  0  0  0  0  0  0  0  0  0  0
    7.8790  -13.6442   23.7691 O   0  0  0  0  0  0  0  0  0  0  0  0
    9.1976  -15.5258   23.6316 N   0  0  0  0  0  0  0  0  0  0  0  0
    9.5558  -15.4223   25.0417 C   0  0  1  0  0  0  0  0  0  0  0  0
    8.2408  -15.5198   25.7938 C   0  0  0  0  0  0  0  0  0  0  0  0
    7.6566  -14.2292   26.1575 C   0  0  0  0  0  0  0  0  0  0  0  0
    6.3003  -13.9904   26.1665 C   0  0  0  0  0  0  0  0  0  0  0  0
    5.7776  -12.7483   26.5226 C   0  0  0  0  0  0  0  0  0  0  0  0
    6.6140  -11.7086   26.8807 C   0  0  0  0  0  0  0  0  0  0  0  0
    7.9714  -11.9433   26.8728 C   0  0  0  0  0  0  0  0  0  0  0  0
    8.4910  -13.1803   26.5183 C   0  0  0  0  0  0  0  0  0  0  0  0
   10.4771  -16.5280   25.3647 C   0  0  0  0  0  0  0  0  0  0  0  0
   10.8442  -17.4966   24.4719 O   0  0  0  0  0  0  0  0  0  0  0  0
   10.9403  -16.5577   26.5469 O   0  0  0  0  0  0  0  0  0  0  0  0
  1  2  1  0
  3  2  1  0
  4  5  1  0
  4  3  1  0
  5  6  1  1
  5  1  1  0
  6  7  2  0
  9  8  1  6
  9 10  1  0
  9 11  1  0
 11 12  1  1
 12  6  1  0
 13 11  1  0
 14 13  2  0
 15 13  1  0
 16 15  1  0
 16 24  1  0
 16 17  1  1
 18 17  1  0
 19 18  2  0
 20 19  1  0
 21 22  1  0
 21 20  2  0
 22 23  2  0
 23 18  1  0
 24 25  1  0
 26 24  2  0
M  END
$$$$
