PVF.pdb
     RDKit          3D

 26 27  0  0  1  0  0  0  0  0999 V2000
    8.7638  -14.4845   19.5232 N   0  0  0  0  0  0  0  0  0  0  0  0
    8.4964  -13.8726   18.2540 C   0  0  0  0  0  0  0  0  0  0  0  0
    7.6743  -12.6295   18.5128 C   0  0  0  0  0  0  0  0  0  0  0  0
    7.0604  -12.9740   19.8762 C   0  0  0  0  0  0  0  0  0  0  0  0
    8.2423  -13.6302   20.5547 C   0  0  1  0  0  0  0  0  0  0  0  0
    7.8188  -14.4196   21.7596 C   0  0  0  0  0  0  0  0  0  0  0  0
    7.1777  -13.7782   22.6088 O   0  0  0  0  0  0  0  0  0  0  0  0
    6.9433  -19.0168   23.4770 C   0  0  0  0  0  0  0  0  0  0  0  0
    7.5926  -18.0958   22.4456 C   0  0  1  0  0  0  0  0  0  0  0  0
    6.5109  -18.0418   21.3337 C   0  0  0  0  0  0  0  0  0  0  0  0
    7.7101  -16.6903   22.9502 C   0  0  2  0  0  0  0  0  0  0  0  0
    8.1182  -15.7618   21.9158 N   0  0  0  0  0  0  0  0  0  0  0  0
    8.4780  -16.4429   24.1474 C   0  0  0  0  0  0  0  0  0  0  0  0
    9.7683  -16.3166   24.0266 O   0  0  0  0  0  0  0  0  0  0  0  0
    7.9661  -16.3140   25.4585 N   0  0  0  0  0  0  0  0  0  0  0  0
    8.8232  -15.9996   26.5961 C   0  0  1  0  0  0  0  0  0  0  0  0
    7.9774  -15.1207   27.4997 C   0  0  0  0  0  0  0  0  0  0  0  0
    7.5237  -13.8766   26.8785 C   0  0  0  0  0  0  0  0  0  0  0  0
    6.2546  -13.7049   26.3721 C   0  0  0  0  0  0  0  0  0  0  0  0
    5.8546  -12.5033   25.7900 C   0  0  0  0  0  0  0  0  0  0  0  0
    6.7292  -11.4374   25.7028 C   0  0  0  0  0  0  0  0  0  0  0  0
    7.9998  -11.6050   26.2081 C   0  0  0  0  0  0  0  0  0  0  0  0
    8.3972  -12.8017   26.7875 C   0  0  0  0  0  0  0  0  0  0  0  0
    9.2140  -17.2669   27.2419 C   0  0  0  0  0  0  0  0  0  0  0  0
    8.6849  -18.4835   26.9101 O   0  0  0  0  0  0  0  0  0  0  0  0
   10.0935  -17.1942   28.1552 O   0  0  0  0  0  0  0  0  0  0  0  0
  1  2  1  0
  3  2  1  0
  4  5  1  0
  4  3  1  0
  5  6  1  1
  5  1  1  0
  6  7  2  0
  9  8  1  1
  9 10  1  0
  9 11  1  0
 11 12  1  6
 12  6  1  0
 13 11  1  0
 14 13  2  0
 15 13  1  0
 16 15  1  0
 16 24  1  0
 16 17  1  1
 18 17  1  0
 19 18  2  0
 20 19  1  0
 21 22  1  0
 21 20  2  0
 22 23  2  0
 23 18  1  0
 24 25  1  0
 26 24  2  0
M  END
$$$$
