PVF.pdb
     RDKit          3D

 26 27  0  0  1  0  0  0  0  0999 V2000
    8.3105  -19.2520   20.0499 N   0  0  0  0  0  0  0  0  0  0  0  0
    7.2711  -20.2315   19.9199 C   0  0  0  0  0  0  0  0  0  0  0  0
    6.1658  -19.6142   19.0918 C   0  0  0  0  0  0  0  0  0  0  0  0
    6.4407  -18.1218   19.3188 C   0  0  0  0  0  0  0  0  0  0  0  0
    7.9521  -18.1061   19.2598 C   0  0  1  0  0  0  0  0  0  0  0  0
    8.5141  -16.8409   19.8408 C   0  0  0  0  0  0  0  0  0  0  0  0
    9.7093  -16.6275   19.5770 O   0  0  0  0  0  0  0  0  0  0  0  0
    7.7932  -12.2444   21.3543 C   0  0  0  0  0  0  0  0  0  0  0  0
    7.3846  -13.5540   20.6823 C   0  0  1  0  0  0  0  0  0  0  0  0
    7.9352  -13.3648   19.2433 C   0  0  0  0  0  0  0  0  0  0  0  0
    8.1349  -14.7239   21.2410 C   0  0  2  0  0  0  0  0  0  0  0  0
    7.7600  -15.9744   20.6130 N   0  0  0  0  0  0  0  0  0  0  0  0
    8.1813  -14.9010   22.6730 C   0  0  0  0  0  0  0  0  0  0  0  0
    7.0604  -15.1341   23.2932 O   0  0  0  0  0  0  0  0  0  0  0  0
    9.3370  -14.8543   23.4852 N   0  0  0  0  0  0  0  0  0  0  0  0
    9.2927  -15.1554   24.9117 C   0  0  1  0  0  0  0  0  0  0  0  0
    7.8172  -15.1725   25.2683 C   0  0  0  0  0  0  0  0  0  0  0  0
    7.3416  -13.9566   25.9275 C   0  0  0  0  0  0  0  0  0  0  0  0
    6.0564  -13.8071   26.3990 C   0  0  0  0  0  0  0  0  0  0  0  0
    5.6379  -12.6348   27.0263 C   0  0  0  0  0  0  0  0  0  0  0  0
    6.5099  -11.5765   27.1951 C   0  0  0  0  0  0  0  0  0  0  0  0
    7.7965  -11.7219   26.7247 C   0  0  0  0  0  0  0  0  0  0  0  0
    8.2122  -12.8894   26.1004 C   0  0  0  0  0  0  0  0  0  0  0  0
    9.9432  -16.4616   25.1267 C   0  0  0  0  0  0  0  0  0  0  0  0
   10.7403  -16.7458   26.2009 O   0  0  0  0  0  0  0  0  0  0  0  0
    9.7341  -17.3546   24.2480 O   0  0  0  0  0  0  0  0  0  0  0  0
  1  2  1  0
  3  2  1  0
  4  5  1  0
  4  3  1  0
  5  6  1  1
  5  1  1  0
  6  7  2  0
  9  8  1  1
  9 10  1  0
  9 11  1  0
 11 12  1  6
 12  6  1  0
 13 11  1  0
 14 13  2  0
 15 13  1  0
 16 15  1  0
 16 24  1  0
 16 17  1  6
 18 17  1  0
 19 18  2  0
 20 19  1  0
 21 22  1  0
 21 20  2  0
 22 23  2  0
 23 18  1  0
 24 25  1  0
 26 24  2  0
M  END
$$$$
