PVF.pdb
     RDKit          3D

 26 27  0  0  1  0  0  0  0  0999 V2000
    8.9699  -14.3730   19.5136 N   0  0  0  0  0  0  0  0  0  0  0  0
    8.8050  -13.7179   18.2485 C   0  0  0  0  0  0  0  0  0  0  0  0
    7.8080  -12.5971   18.4436 C   0  0  0  0  0  0  0  0  0  0  0  0
    7.0608  -13.0951   19.6878 C   0  0  0  0  0  0  0  0  0  0  0  0
    8.2109  -13.6512   20.4978 C   0  0  1  0  0  0  0  0  0  0  0  0
    7.7275  -14.5583   21.5923 C   0  0  0  0  0  0  0  0  0  0  0  0
    6.9688  -14.0253   22.4193 O   0  0  0  0  0  0  0  0  0  0  0  0
    7.3049  -19.3304   23.0869 C   0  0  0  0  0  0  0  0  0  0  0  0
    7.7867  -18.2860   22.0815 C   0  0  1  0  0  0  0  0  0  0  0  0
    6.6763  -18.3433   20.9984 C   0  0  0  0  0  0  0  0  0  0  0  0
    7.7182  -16.8993   22.6437 C   0  0  2  0  0  0  0  0  0  0  0  0
    8.0973  -15.8894   21.6767 N   0  0  0  0  0  0  0  0  0  0  0  0
    8.3692  -16.6262   23.9030 C   0  0  0  0  0  0  0  0  0  0  0  0
    9.6389  -16.3386   23.8811 O   0  0  0  0  0  0  0  0  0  0  0  0
    7.7603  -16.6313   25.1785 N   0  0  0  0  0  0  0  0  0  0  0  0
    8.5279  -16.4337   26.4029 C   0  0  1  0  0  0  0  0  0  0  0  0
    7.6170  -15.6359   27.3183 C   0  0  0  0  0  0  0  0  0  0  0  0
    7.3984  -14.2527   26.8959 C   0  0  0  0  0  0  0  0  0  0  0  0
    6.2620  -13.8346   26.2399 C   0  0  0  0  0  0  0  0  0  0  0  0
    6.0850  -12.5067   25.8550 C   0  0  0  0  0  0  0  0  0  0  0  0
    7.0552  -11.5604   26.1232 C   0  0  0  0  0  0  0  0  0  0  0  0
    8.1937  -11.9745   26.7792 C   0  0  0  0  0  0  0  0  0  0  0  0
    8.3690  -13.2968   27.1621 C   0  0  0  0  0  0  0  0  0  0  0  0
    8.8648  -17.7599   26.9537 C   0  0  0  0  0  0  0  0  0  0  0  0
    8.2925  -18.9270   26.5288 O   0  0  0  0  0  0  0  0  0  0  0  0
    9.7392  -17.7898   27.8745 O   0  0  0  0  0  0  0  0  0  0  0  0
  1  2  1  0
  3  2  1  0
  4  5  1  0
  4  3  1  0
  5  6  1  1
  5  1  1  0
  6  7  2  0
  9  8  1  1
  9 10  1  0
  9 11  1  0
 11 12  1  6
 12  6  1  0
 13 11  1  0
 14 13  2  0
 15 13  1  0
 16 15  1  0
 16 24  1  0
 16 17  1  1
 18 17  1  0
 19 18  2  0
 20 19  1  0
 21 22  1  0
 21 20  2  0
 22 23  2  0
 23 18  1  0
 24 25  1  0
 26 24  2  0
M  END
$$$$
