PVF.pdb
     RDKit          3D

 26 27  0  0  1  0  0  0  0  0999 V2000
    8.5430  -15.1806   18.4874 N   0  0  0  0  0  0  0  0  0  0  0  0
    8.2392  -14.6043   17.2098 C   0  0  0  0  0  0  0  0  0  0  0  0
    7.9961  -13.1267   17.4239 C   0  0  0  0  0  0  0  0  0  0  0  0
    7.6171  -13.1139   18.9107 C   0  0  0  0  0  0  0  0  0  0  0  0
    8.6040  -14.1216   19.4572 C   0  0  1  0  0  0  0  0  0  0  0  0
    8.2033  -14.6028   20.8218 C   0  0  0  0  0  0  0  0  0  0  0  0
    8.2531  -13.7430   21.7173 O   0  0  0  0  0  0  0  0  0  0  0  0
    6.1175  -18.4326   23.3498 C   0  0  0  0  0  0  0  0  0  0  0  0
    6.7102  -17.8569   22.0649 C   0  0  1  0  0  0  0  0  0  0  0  0
    5.4381  -17.5624   21.2255 C   0  0  0  0  0  0  0  0  0  0  0  0
    7.3481  -16.5214   22.2960 C   0  0  2  0  0  0  0  0  0  0  0  0
    7.8072  -15.9060   21.0675 N   0  0  0  0  0  0  0  0  0  0  0  0
    8.3757  -16.4063   23.3034 C   0  0  0  0  0  0  0  0  0  0  0  0
    9.6015  -16.6727   22.9546 O   0  0  0  0  0  0  0  0  0  0  0  0
    8.1880  -16.0209   24.6503 N   0  0  0  0  0  0  0  0  0  0  0  0
    9.2915  -15.9766   25.6031 C   0  0  1  0  0  0  0  0  0  0  0  0
    9.5900  -14.5009   25.7967 C   0  0  0  0  0  0  0  0  0  0  0  0
    8.4559  -13.7143   26.2808 C   0  0  0  0  0  0  0  0  0  0  0  0
    7.1931  -13.7974   25.7376 C   0  0  0  0  0  0  0  0  0  0  0  0
    6.1336  -13.0352   26.2269 C   0  0  0  0  0  0  0  0  0  0  0  0
    6.3213  -12.1641   27.2827 C   0  0  0  0  0  0  0  0  0  0  0  0
    7.5831  -12.0778   27.8288 C   0  0  0  0  0  0  0  0  0  0  0  0
    8.6373  -12.8371   27.3411 C   0  0  0  0  0  0  0  0  0  0  0  0
    8.8513  -16.6341   26.8479 C   0  0  0  0  0  0  0  0  0  0  0  0
    7.6081  -17.1768   27.0219 O   0  0  0  0  0  0  0  0  0  0  0  0
    9.6951  -16.6843   27.7958 O   0  0  0  0  0  0  0  0  0  0  0  0
  1  2  1  0
  3  2  1  0
  4  5  1  0
  4  3  1  0
  5  6  1  1
  5  1  1  0
  6  7  2  0
  9  8  1  1
  9 10  1  0
  9 11  1  0
 11 12  1  6
 12  6  1  0
 13 11  1  0
 14 13  2  0
 15 13  1  0
 16 15  1  0
 16 24  1  0
 16 17  1  1
 18 17  1  0
 19 18  2  0
 20 19  1  0
 21 22  1  0
 21 20  2  0
 22 23  2  0
 23 18  1  0
 24 25  1  0
 26 24  2  0
M  END
$$$$
