PVF.pdb
     RDKit          3D

 26 27  0  0  1  0  0  0  0  0999 V2000
    8.4735  -18.6314   20.1153 N   0  0  0  0  0  0  0  0  0  0  0  0
    8.7803  -19.4329   18.9664 C   0  0  0  0  0  0  0  0  0  0  0  0
   10.2833  -19.4254   18.7951 C   0  0  0  0  0  0  0  0  0  0  0  0
   10.6470  -18.1324   19.5370 C   0  0  0  0  0  0  0  0  0  0  0  0
    9.7099  -18.2191   20.7212 C   0  0  1  0  0  0  0  0  0  0  0  0
    9.5680  -16.8932   21.4112 C   0  0  0  0  0  0  0  0  0  0  0  0
   10.5047  -16.5935   22.1704 O   0  0  0  0  0  0  0  0  0  0  0  0
    7.2195  -12.4876   21.5215 C   0  0  0  0  0  0  0  0  0  0  0  0
    7.5298  -13.8318   20.8653 C   0  0  1  0  0  0  0  0  0  0  0  0
    8.6596  -13.4530   19.8705 C   0  0  0  0  0  0  0  0  0  0  0  0
    8.1585  -14.7900   21.8299 C   0  0  2  0  0  0  0  0  0  0  0  0
    8.4768  -16.0640   21.2182 N   0  0  0  0  0  0  0  0  0  0  0  0
    7.5174  -15.0160   23.1035 C   0  0  0  0  0  0  0  0  0  0  0  0
    7.0321  -16.2012   23.3379 O   0  0  0  0  0  0  0  0  0  0  0  0
    7.3654  -14.0710   24.1435 N   0  0  0  0  0  0  0  0  0  0  0  0
    6.6492  -14.3844   25.3748 C   0  0  1  0  0  0  0  0  0  0  0  0
    7.5260  -15.3897   26.0995 C   0  0  0  0  0  0  0  0  0  0  0  0
    8.4904  -14.7935   27.0236 C   0  0  0  0  0  0  0  0  0  0  0  0
    8.8457  -13.4634   26.9892 C   0  0  0  0  0  0  0  0  0  0  0  0
    9.7661  -12.9277   27.8885 C   0  0  0  0  0  0  0  0  0  0  0  0
   10.3555  -13.7240   28.8514 C   0  0  0  0  0  0  0  0  0  0  0  0
   10.0028  -15.0552   28.8891 C   0  0  0  0  0  0  0  0  0  0  0  0
    9.0864  -15.5878   27.9935 C   0  0  0  0  0  0  0  0  0  0  0  0
    6.4730  -13.1333   26.1359 C   0  0  0  0  0  0  0  0  0  0  0  0
    5.6358  -13.0088   27.2101 O   0  0  0  0  0  0  0  0  0  0  0  0
    7.1493  -12.1302   25.7491 O   0  0  0  0  0  0  0  0  0  0  0  0
  1  2  1  0
  3  2  1  0
  4  5  1  0
  4  3  1  0
  5  6  1  6
  5  1  1  0
  6  7  2  0
  9  8  1  1
  9 10  1  0
  9 11  1  0
 11 12  1  6
 12  6  1  0
 13 11  1  0
 14 13  2  0
 15 13  1  0
 16 15  1  0
 16 24  1  0
 16 17  1  1
 18 17  1  0
 19 18  2  0
 20 19  1  0
 21 22  1  0
 21 20  2  0
 22 23  2  0
 23 18  1  0
 24 25  1  0
 26 24  2  0
M  END
$$$$
