HWE.pdb
     RDKit          3D

 34 36  0  0  1  0  0  0  0  0999 V2000
    8.0108  -16.3880   20.2610 N   0  0  0  0  0  0  0  0  0  0  0  0
    8.6799  -15.0970   20.4495 C   0  0  1  0  0  0  0  0  0  0  0  0
    7.6110  -14.0534   20.0978 C   0  0  0  0  0  0  0  0  0  0  0  0
    7.4327  -14.1526   18.6192 C   0  0  0  0  0  0  0  0  0  0  0  0
    8.0534  -13.3828   17.6779 C   0  0  0  0  0  0  0  0  0  0  0  0
    7.6063  -13.8047   16.4762 N   0  0  0  0  0  0  0  0  0  0  0  0
    6.7389  -14.7980   16.6252 C   0  0  0  0  0  0  0  0  0  0  0  0
    6.6377  -15.0066   17.9567 N   0  0  0  0  0  0  0  0  0  0  0  0
    9.1262  -14.9427   21.8340 C   0  0  0  0  0  0  0  0  0  0  0  0
    9.7839  -13.9445   22.1835 O   0  0  0  0  0  0  0  0  0  0  0  0
    8.8181  -15.9179   22.7845 N   0  0  0  0  0  0  0  0  0  0  0  0
    9.4008  -15.9891   24.1109 C   0  0  1  0  0  0  0  0  0  0  0  0
    8.4260  -16.3901   25.1570 C   0  0  0  0  0  0  0  0  0  0  0  0
    7.3610  -15.3677   25.2528 C   0  0  0  0  0  0  0  0  0  0  0  0
    6.0534  -15.4627   24.8254 C   0  0  0  0  0  0  0  0  0  0  0  0
    5.4051  -14.3132   25.0852 N   0  0  0  0  0  0  0  0  0  0  0  0
    6.2766  -13.4581   25.6820 C   0  0  0  0  0  0  0  0  0  0  0  0
    6.1121  -12.1679   26.1410 C   0  0  0  0  0  0  0  0  0  0  0  0
    7.1917  -11.5240   26.7164 C   0  0  0  0  0  0  0  0  0  0  0  0
    8.4139  -12.1560   26.8318 C   0  0  0  0  0  0  0  0  0  0  0  0
    8.5659  -13.4397   26.3716 C   0  0  0  0  0  0  0  0  0  0  0  0
    7.4951  -14.1015   25.7918 C   0  0  0  0  0  0  0  0  0  0  0  0
   10.5351  -16.9199   24.0898 C   0  0  0  0  0  0  0  0  0  0  0  0
   10.3463  -18.1328   23.8570 O   0  0  0  0  0  0  0  0  0  0  0  0
   11.8542  -16.4449   24.3341 N   0  0  0  0  0  0  0  0  0  0  0  0
   13.0130  -17.3599   24.3284 C   0  0  1  0  0  0  0  0  0  0  0  0
   14.2439  -16.6199   23.8953 C   0  0  0  0  0  0  0  0  0  0  0  0
   15.4676  -17.4557   23.8685 C   0  0  0  0  0  0  0  0  0  0  0  0
   16.7044  -16.7391   23.4948 C   0  0  0  0  0  0  0  0  0  0  0  0
   17.0643  -15.7425   24.1774 O   0  0  0  0  0  0  0  0  0  0  0  0
   13.1747  -17.9587   25.6801 C   0  0  0  0  0  0  0  0  0  0  0  0
   12.7129  -17.4701   26.7342 O   0  0  0  0  0  0  0  0  0  0  0  0
   17.4747  -17.1208   22.4293 O   0  0  0  0  0  0  0  0  0  0  0  0
   13.8899  -19.1515   25.8013 O   0  0  0  0  0  0  0  0  0  0  0  0
  2  1  1  1
  2  3  1  0
  3  4  1  0
  4  5  2  0
  4  8  1  0
  5  6  1  0
  6  7  1  0
  8  7  2  0
  9 10  2  0
  9  2  1  0
 11  9  1  0
 12 13  1  1
 12 11  1  0
 13 14  1  0
 14 22  1  0
 14 15  2  0
 15 16  1  0
 17 16  1  0
 17 18  2  0
 19 18  1  0
 20 19  2  0
 21 22  2  0
 21 20  1  0
 22 17  1  0
 23 12  1  0
 24 23  2  0
 25 23  1  0
 26 25  1  0
 27 28  1  0
 26 27  1  1
 28 29  1  0
 29 33  1  0
 29 30  2  0
 31 34  1  0
 31 26  1  0
 32 31  2  0
M  END
$$$$
