HWE.pdb
     RDKit          3D

 34 36  0  0  1  0  0  0  0  0999 V2000
    8.6011  -16.4190   20.7646 N   0  0  0  0  0  0  0  0  0  0  0  0
    9.1186  -15.1119   21.1809 C   0  0  1  0  0  0  0  0  0  0  0  0
    7.9490  -14.1441   20.9555 C   0  0  0  0  0  0  0  0  0  0  0  0
    7.8069  -14.0338   19.4737 C   0  0  0  0  0  0  0  0  0  0  0  0
    8.5023  -13.1897   18.6568 C   0  0  0  0  0  0  0  0  0  0  0  0
    8.0634  -13.4170   17.4007 N   0  0  0  0  0  0  0  0  0  0  0  0
    7.1300  -14.3604   17.3979 C   0  0  0  0  0  0  0  0  0  0  0  0
    6.9778  -14.7366   18.6870 N   0  0  0  0  0  0  0  0  0  0  0  0
    9.5135  -15.1363   22.5892 C   0  0  0  0  0  0  0  0  0  0  0  0
   10.4270  -14.4002   23.0073 O   0  0  0  0  0  0  0  0  0  0  0  0
    8.8672  -15.9896   23.4857 N   0  0  0  0  0  0  0  0  0  0  0  0
    9.2549  -16.1768   24.8707 C   0  0  1  0  0  0  0  0  0  0  0  0
    8.1009  -16.4198   25.7732 C   0  0  0  0  0  0  0  0  0  0  0  0
    7.1516  -15.2897   25.6706 C   0  0  0  0  0  0  0  0  0  0  0  0
    5.8778  -15.2976   25.1425 C   0  0  0  0  0  0  0  0  0  0  0  0
    5.3431  -14.0662   25.2258 N   0  0  0  0  0  0  0  0  0  0  0  0
    6.2560  -13.2436   25.8062 C   0  0  0  0  0  0  0  0  0  0  0  0
    6.2011  -11.9005   26.1150 C   0  0  0  0  0  0  0  0  0  0  0  0
    7.2985  -11.3103   26.7138 C   0  0  0  0  0  0  0  0  0  0  0  0
    8.4309  -12.0471   26.9996 C   0  0  0  0  0  0  0  0  0  0  0  0
    8.4741  -13.3826   26.6878 C   0  0  0  0  0  0  0  0  0  0  0  0
    7.3839  -13.9919   26.0873 C   0  0  0  0  0  0  0  0  0  0  0  0
   10.2107  -17.2869   24.9580 C   0  0  0  0  0  0  0  0  0  0  0  0
    9.8147  -18.4324   25.2611 O   0  0  0  0  0  0  0  0  0  0  0  0
   11.5918  -17.0632   24.6974 N   0  0  0  0  0  0  0  0  0  0  0  0
   12.5590  -18.1785   24.6742 C   0  0  1  0  0  0  0  0  0  0  0  0
   13.8876  -17.6900   24.1777 C   0  0  0  0  0  0  0  0  0  0  0  0
   14.9338  -18.7390   24.1338 C   0  0  0  0  0  0  0  0  0  0  0  0
   16.2570  -18.2809   23.6622 C   0  0  0  0  0  0  0  0  0  0  0  0
   17.1847  -19.1237   23.5288 O   0  0  0  0  0  0  0  0  0  0  0  0
   12.6609  -18.7709   26.0346 C   0  0  0  0  0  0  0  0  0  0  0  0
   12.8446  -19.9851   26.2696 O   0  0  0  0  0  0  0  0  0  0  0  0
   16.5111  -16.9688   23.3651 O   0  0  0  0  0  0  0  0  0  0  0  0
   12.5458  -17.9274   27.1411 O   0  0  0  0  0  0  0  0  0  0  0  0
  2  1  1  1
  2  3  1  0
  3  4  1  0
  4  5  2  0
  4  8  1  0
  5  6  1  0
  6  7  1  0
  8  7  2  0
  9 10  2  0
  9  2  1  0
 11  9  1  0
 12 13  1  1
 12 11  1  0
 13 14  1  0
 14 22  1  0
 14 15  2  0
 15 16  1  0
 17 16  1  0
 17 18  2  0
 19 18  1  0
 20 19  2  0
 21 22  2  0
 21 20  1  0
 22 17  1  0
 23 12  1  0
 24 23  2  0
 25 23  1  0
 26 25  1  0
 27 28  1  0
 26 27  1  1
 28 29  1  0
 29 33  1  0
 29 30  2  0
 31 34  1  0
 31 26  1  0
 32 31  2  0
M  END
$$$$
