HWE.pdb
     RDKit          3D

 34 36  0  0  1  0  0  0  0  0999 V2000
    9.5613  -18.1212   20.6919 N   0  0  0  0  0  0  0  0  0  0  0  0
   10.3041  -16.8846   20.9541 C   0  0  1  0  0  0  0  0  0  0  0  0
    9.7395  -15.8741   19.9464 C   0  0  0  0  0  0  0  0  0  0  0  0
   10.1200  -16.4009   18.6026 C   0  0  0  0  0  0  0  0  0  0  0  0
   10.7697  -17.5747   18.3501 C   0  0  0  0  0  0  0  0  0  0  0  0
   10.9126  -17.6581   17.0106 N   0  0  0  0  0  0  0  0  0  0  0  0
   10.3837  -16.5941   16.4193 C   0  0  0  0  0  0  0  0  0  0  0  0
    9.8950  -15.8206   17.4140 N   0  0  0  0  0  0  0  0  0  0  0  0
   10.0860  -16.4312   22.3277 C   0  0  0  0  0  0  0  0  0  0  0  0
   10.5327  -15.3351   22.7150 O   0  0  0  0  0  0  0  0  0  0  0  0
    9.3704  -17.2264   23.2250 N   0  0  0  0  0  0  0  0  0  0  0  0
    9.1679  -16.9104   24.6260 C   0  0  1  0  0  0  0  0  0  0  0  0
    7.7375  -16.7365   24.9853 C   0  0  0  0  0  0  0  0  0  0  0  0
    7.2834  -15.3958   24.5555 C   0  0  0  0  0  0  0  0  0  0  0  0
    6.6961  -15.0427   23.3588 C   0  0  0  0  0  0  0  0  0  0  0  0
    6.4391  -13.7224   23.3501 N   0  0  0  0  0  0  0  0  0  0  0  0
    6.8530  -13.2000   24.5344 C   0  0  0  0  0  0  0  0  0  0  0  0
    6.8165  -11.9095   25.0197 C   0  0  0  0  0  0  0  0  0  0  0  0
    7.3177  -11.6598   26.2837 C   0  0  0  0  0  0  0  0  0  0  0  0
    7.8461  -12.6797   27.0501 C   0  0  0  0  0  0  0  0  0  0  0  0
    7.8772  -13.9597   26.5569 C   0  0  0  0  0  0  0  0  0  0  0  0
    7.3794  -14.2295   25.2920 C   0  0  0  0  0  0  0  0  0  0  0  0
    9.7745  -17.9622   25.4500 C   0  0  0  0  0  0  0  0  0  0  0  0
    9.3500  -19.1352   25.3814 O   0  0  0  0  0  0  0  0  0  0  0  0
   10.8486  -17.6506   26.3302 N   0  0  0  0  0  0  0  0  0  0  0  0
   11.4510  -18.6797   27.2008 C   0  0  1  0  0  0  0  0  0  0  0  0
   12.9360  -18.7179   26.9917 C   0  0  0  0  0  0  0  0  0  0  0  0
   13.3386  -18.8292   25.5696 C   0  0  0  0  0  0  0  0  0  0  0  0
   14.5691  -18.0945   25.2103 C   0  0  0  0  0  0  0  0  0  0  0  0
   15.2202  -17.5104   26.1178 O   0  0  0  0  0  0  0  0  0  0  0  0
   11.0993  -18.3943   28.6174 C   0  0  0  0  0  0  0  0  0  0  0  0
   11.4611  -19.0868   29.5934 O   0  0  0  0  0  0  0  0  0  0  0  0
   15.0272  -18.0254   23.9220 O   0  0  0  0  0  0  0  0  0  0  0  0
   10.3095  -17.2777   28.8978 O   0  0  0  0  0  0  0  0  0  0  0  0
  2  1  1  1
  2  3  1  0
  3  4  1  0
  4  5  2  0
  4  8  1  0
  5  6  1  0
  6  7  1  0
  8  7  2  0
  9 10  2  0
  9  2  1  0
 11  9  1  0
 12 13  1  6
 12 11  1  0
 13 14  1  0
 14 22  1  0
 14 15  2  0
 15 16  1  0
 17 16  1  0
 17 18  2  0
 19 18  1  0
 20 19  2  0
 21 22  2  0
 21 20  1  0
 22 17  1  0
 23 12  1  0
 24 23  2  0
 25 23  1  0
 26 25  1  0
 27 28  1  0
 26 27  1  1
 28 29  1  0
 29 33  1  0
 29 30  2  0
 31 34  1  0
 31 26  1  0
 32 31  2  0
M  END
$$$$
