HWE.pdb
     RDKit          3D

 34 36  0  0  1  0  0  0  0  0999 V2000
    7.4929  -14.6392   19.6821 N   0  0  0  0  0  0  0  0  0  0  0  0
    7.8937  -15.8596   20.3889 C   0  0  1  0  0  0  0  0  0  0  0  0
    8.7568  -16.6257   19.3772 C   0  0  0  0  0  0  0  0  0  0  0  0
    7.8366  -16.9716   18.2540 C   0  0  0  0  0  0  0  0  0  0  0  0
    6.6316  -17.6037   18.3633 C   0  0  0  0  0  0  0  0  0  0  0  0
    6.1384  -17.7166   17.1120 N   0  0  0  0  0  0  0  0  0  0  0  0
    6.9778  -17.1858   16.2316 C   0  0  0  0  0  0  0  0  0  0  0  0
    8.0273  -16.7267   16.9487 N   0  0  0  0  0  0  0  0  0  0  0  0
    8.6616  -15.5332   21.5905 C   0  0  0  0  0  0  0  0  0  0  0  0
    9.4079  -14.5365   21.6180 O   0  0  0  0  0  0  0  0  0  0  0  0
    8.5658  -16.3395   22.7263 N   0  0  0  0  0  0  0  0  0  0  0  0
    9.3100  -16.1269   23.9531 C   0  0  1  0  0  0  0  0  0  0  0  0
    8.4867  -16.3097   25.1754 C   0  0  0  0  0  0  0  0  0  0  0  0
    7.4198  -15.2853   25.2059 C   0  0  0  0  0  0  0  0  0  0  0  0
    6.0966  -15.4280   24.8448 C   0  0  0  0  0  0  0  0  0  0  0  0
    5.4519  -14.2589   25.0078 N   0  0  0  0  0  0  0  0  0  0  0  0
    6.3411  -13.3434   25.4747 C   0  0  0  0  0  0  0  0  0  0  0  0
    6.1868  -12.0122   25.8009 C   0  0  0  0  0  0  0  0  0  0  0  0
    7.2845  -11.3085   26.2602 C   0  0  0  0  0  0  0  0  0  0  0  0
    8.5145  -11.9219   26.3918 C   0  0  0  0  0  0  0  0  0  0  0  0
    8.6562  -13.2469   26.0642 C   0  0  0  0  0  0  0  0  0  0  0  0
    7.5673  -13.9688   25.6020 C   0  0  0  0  0  0  0  0  0  0  0  0
   10.4655  -17.0310   23.9788 C   0  0  0  0  0  0  0  0  0  0  0  0
   10.2983  -18.2649   23.8762 O   0  0  0  0  0  0  0  0  0  0  0  0
   11.7808  -16.5062   24.1205 N   0  0  0  0  0  0  0  0  0  0  0  0
   12.9621  -17.3915   24.1438 C   0  0  1  0  0  0  0  0  0  0  0  0
   14.2067  -16.5861   23.9145 C   0  0  0  0  0  0  0  0  0  0  0  0
   15.4558  -17.3811   23.9790 C   0  0  0  0  0  0  0  0  0  0  0  0
   16.6979  -16.6099   23.7659 C   0  0  0  0  0  0  0  0  0  0  0  0
   16.6225  -15.3634   23.5943 O   0  0  0  0  0  0  0  0  0  0  0  0
   13.0062  -18.1204   25.4395 C   0  0  0  0  0  0  0  0  0  0  0  0
   13.3854  -19.3038   25.5771 O   0  0  0  0  0  0  0  0  0  0  0  0
   17.9311  -17.2041   23.7474 O   0  0  0  0  0  0  0  0  0  0  0  0
   12.5991  -17.4527   26.5960 O   0  0  0  0  0  0  0  0  0  0  0  0
  2  1  1  6
  2  3  1  0
  3  4  1  0
  4  5  2  0
  4  8  1  0
  5  6  1  0
  6  7  1  0
  8  7  2  0
  9 10  2  0
  9  2  1  0
 11  9  1  0
 12 13  1  1
 12 11  1  0
 13 14  1  0
 14 22  1  0
 14 15  2  0
 15 16  1  0
 17 16  1  0
 17 18  2  0
 19 18  1  0
 20 19  2  0
 21 22  2  0
 21 20  1  0
 22 17  1  0
 23 12  1  0
 24 23  2  0
 25 23  1  0
 26 25  1  0
 27 28  1  0
 26 27  1  1
 28 29  1  0
 29 33  1  0
 29 30  2  0
 31 34  1  0
 31 26  1  0
 32 31  2  0
M  END
$$$$
