HWE.pdb
     RDKit          3D

 34 36  0  0  1  0  0  0  0  0999 V2000
    7.7937  -16.2989   20.3281 N   0  0  0  0  0  0  0  0  0  0  0  0
    8.9855  -16.9336   20.8996 C   0  0  1  0  0  0  0  0  0  0  0  0
   10.1362  -16.4844   19.9890 C   0  0  0  0  0  0  0  0  0  0  0  0
    9.9393  -17.2251   18.7081 C   0  0  0  0  0  0  0  0  0  0  0  0
    9.6656  -18.5563   18.5795 C   0  0  0  0  0  0  0  0  0  0  0  0
    9.5675  -18.8057   17.2566 N   0  0  0  0  0  0  0  0  0  0  0  0
    9.7669  -17.6950   16.5579 C   0  0  0  0  0  0  0  0  0  0  0  0
    9.9965  -16.7208   17.4661 N   0  0  0  0  0  0  0  0  0  0  0  0
    9.2012  -16.4851   22.2752 C   0  0  0  0  0  0  0  0  0  0  0  0
    9.5742  -15.3212   22.5144 O   0  0  0  0  0  0  0  0  0  0  0  0
    8.9902  -17.3615   23.3414 N   0  0  0  0  0  0  0  0  0  0  0  0
    9.1886  -17.0234   24.7379 C   0  0  1  0  0  0  0  0  0  0  0  0
    7.9248  -16.9917   25.5171 C   0  0  0  0  0  0  0  0  0  0  0  0
    7.1909  -15.7442   25.2108 C   0  0  0  0  0  0  0  0  0  0  0  0
    6.1194  -15.5782   24.3588 C   0  0  0  0  0  0  0  0  0  0  0  0
    5.7429  -14.2869   24.3475 N   0  0  0  0  0  0  0  0  0  0  0  0
    6.5594  -13.5977   25.1872 C   0  0  0  0  0  0  0  0  0  0  0  0
    6.5931  -12.2614   25.5269 C   0  0  0  0  0  0  0  0  0  0  0  0
    7.5511  -11.8272   26.4241 C   0  0  0  0  0  0  0  0  0  0  0  0
    8.4595  -12.7106   26.9729 C   0  0  0  0  0  0  0  0  0  0  0  0
    8.4164  -14.0379   26.6275 C   0  0  0  0  0  0  0  0  0  0  0  0
    7.4633  -14.4919   25.7297 C   0  0  0  0  0  0  0  0  0  0  0  0
   10.1303  -17.9770   25.3356 C   0  0  0  0  0  0  0  0  0  0  0  0
   10.0152  -19.1996   25.1053 O   0  0  0  0  0  0  0  0  0  0  0  0
   11.1782  -17.5132   26.1796 N   0  0  0  0  0  0  0  0  0  0  0  0
   12.0220  -18.4538   26.9433 C   0  0  1  0  0  0  0  0  0  0  0  0
   13.4707  -18.1409   26.7124 C   0  0  0  0  0  0  0  0  0  0  0  0
   13.8084  -17.8768   25.2936 C   0  0  0  0  0  0  0  0  0  0  0  0
   15.2297  -17.5644   25.0383 C   0  0  0  0  0  0  0  0  0  0  0  0
   15.5221  -16.5064   24.4188 O   0  0  0  0  0  0  0  0  0  0  0  0
   11.6631  -18.3791   28.3847 C   0  0  0  0  0  0  0  0  0  0  0  0
   10.8864  -17.5344   28.8813 O   0  0  0  0  0  0  0  0  0  0  0  0
   16.2428  -18.3872   25.4518 O   0  0  0  0  0  0  0  0  0  0  0  0
   12.2230  -19.3097   29.2619 O   0  0  0  0  0  0  0  0  0  0  0  0
  2  1  1  6
  2  3  1  0
  3  4  1  0
  4  5  2  0
  4  8  1  0
  5  6  1  0
  6  7  1  0
  8  7  2  0
  9 10  2  0
  9  2  1  0
 11  9  1  0
 12 13  1  1
 12 11  1  0
 13 14  1  0
 14 22  1  0
 14 15  2  0
 15 16  1  0
 17 16  1  0
 17 18  2  0
 19 18  1  0
 20 19  2  0
 21 22  2  0
 21 20  1  0
 22 17  1  0
 23 12  1  0
 24 23  2  0
 25 23  1  0
 26 25  1  0
 27 28  1  0
 26 27  1  1
 28 29  1  0
 29 33  1  0
 29 30  2  0
 31 34  1  0
 31 26  1  0
 32 31  2  0
M  END
$$$$
