HWE.pdb
     RDKit          3D

 34 36  0  0  1  0  0  0  0  0999 V2000
   11.0255  -16.1539   18.5938 N   0  0  0  0  0  0  0  0  0  0  0  0
    9.8059  -16.6162   19.2637 C   0  0  1  0  0  0  0  0  0  0  0  0
    9.8994  -18.1474   19.2219 C   0  0  0  0  0  0  0  0  0  0  0  0
    9.7464  -18.5140   17.7831 C   0  0  0  0  0  0  0  0  0  0  0  0
    8.7941  -18.0414   16.9267 C   0  0  0  0  0  0  0  0  0  0  0  0
    9.0200  -18.6299   15.7331 N   0  0  0  0  0  0  0  0  0  0  0  0
   10.0653  -19.4443   15.8066 C   0  0  0  0  0  0  0  0  0  0  0  0
   10.5089  -19.3658   17.0808 N   0  0  0  0  0  0  0  0  0  0  0  0
    9.7583  -16.1323   20.6434 C   0  0  0  0  0  0  0  0  0  0  0  0
   10.8072  -15.8969   21.2721 O   0  0  0  0  0  0  0  0  0  0  0  0
    8.5297  -15.9278   21.2744 N   0  0  0  0  0  0  0  0  0  0  0  0
    8.3715  -15.4875   22.6473 C   0  0  1  0  0  0  0  0  0  0  0  0
    6.9987  -15.0113   22.9541 C   0  0  0  0  0  0  0  0  0  0  0  0
    6.8647  -14.8085   24.4134 C   0  0  0  0  0  0  0  0  0  0  0  0
    6.4883  -15.7310   25.3667 C   0  0  0  0  0  0  0  0  0  0  0  0
    6.4784  -15.1523   26.5809 N   0  0  0  0  0  0  0  0  0  0  0  0
    6.8462  -13.8521   26.4363 C   0  0  0  0  0  0  0  0  0  0  0  0
    6.9908  -12.8410   27.3631 C   0  0  0  0  0  0  0  0  0  0  0  0
    7.3847  -11.5899   26.9264 C   0  0  0  0  0  0  0  0  0  0  0  0
    7.6301  -11.3516   25.5886 C   0  0  0  0  0  0  0  0  0  0  0  0
    7.4830  -12.3652   24.6755 C   0  0  0  0  0  0  0  0  0  0  0  0
    7.0889  -13.6261   25.0943 C   0  0  0  0  0  0  0  0  0  0  0  0
    8.7432  -16.5825   23.5506 C   0  0  0  0  0  0  0  0  0  0  0  0
    8.1912  -17.6982   23.4434 O   0  0  0  0  0  0  0  0  0  0  0  0
    9.7337  -16.3783   24.5519 N   0  0  0  0  0  0  0  0  0  0  0  0
   10.2756  -17.5053   25.3369 C   0  0  1  0  0  0  0  0  0  0  0  0
   11.6170  -17.9037   24.7967 C   0  0  0  0  0  0  0  0  0  0  0  0
   12.5859  -16.7852   24.7126 C   0  0  0  0  0  0  0  0  0  0  0  0
   13.9086  -17.1457   24.1620 C   0  0  0  0  0  0  0  0  0  0  0  0
   14.7983  -16.2571   24.0751 O   0  0  0  0  0  0  0  0  0  0  0  0
   10.3501  -17.1164   26.7705 C   0  0  0  0  0  0  0  0  0  0  0  0
   10.6131  -17.9013   27.7075 O   0  0  0  0  0  0  0  0  0  0  0  0
   14.2018  -18.4150   23.7407 O   0  0  0  0  0  0  0  0  0  0  0  0
   10.1125  -15.7845   27.1149 O   0  0  0  0  0  0  0  0  0  0  0  0
  2  1  1  1
  2  3  1  0
  3  4  1  0
  4  5  2  0
  4  8  1  0
  5  6  1  0
  6  7  1  0
  8  7  2  0
  9 10  2  0
  9  2  1  0
 11  9  1  0
 12 13  1  6
 12 11  1  0
 13 14  1  0
 14 22  1  0
 14 15  2  0
 15 16  1  0
 17 16  1  0
 17 18  2  0
 19 18  1  0
 20 19  2  0
 21 22  2  0
 21 20  1  0
 22 17  1  0
 23 12  1  0
 24 23  2  0
 25 23  1  0
 26 25  1  0
 27 28  1  0
 26 27  1  6
 28 29  1  0
 29 33  1  0
 29 30  2  0
 31 34  1  0
 31 26  1  0
 32 31  2  0
M  END
$$$$
