HWE.pdb
     RDKit          3D

 34 36  0  0  1  0  0  0  0  0999 V2000
    7.6898  -16.3559   20.9992 N   0  0  0  0  0  0  0  0  0  0  0  0
    8.8064  -15.4073   21.0560 C   0  0  1  0  0  0  0  0  0  0  0  0
    8.1958  -14.0664   20.6266 C   0  0  0  0  0  0  0  0  0  0  0  0
    7.9382  -14.1998   19.1623 C   0  0  0  0  0  0  0  0  0  0  0  0
    8.1610  -15.3113   18.4017 C   0  0  0  0  0  0  0  0  0  0  0  0
    7.7939  -14.9981   17.1411 N   0  0  0  0  0  0  0  0  0  0  0  0
    7.3544  -13.7472   17.0819 C   0  0  0  0  0  0  0  0  0  0  0  0
    7.4476  -13.2605   18.3394 N   0  0  0  0  0  0  0  0  0  0  0  0
    9.3473  -15.3253   22.4127 C   0  0  0  0  0  0  0  0  0  0  0  0
   10.2527  -14.5161   22.6894 O   0  0  0  0  0  0  0  0  0  0  0  0
    8.8519  -16.1577   23.4183 N   0  0  0  0  0  0  0  0  0  0  0  0
    9.4170  -16.2682   24.7495 C   0  0  1  0  0  0  0  0  0  0  0  0
    8.3887  -16.4169   25.8107 C   0  0  0  0  0  0  0  0  0  0  0  0
    7.4061  -15.3166   25.6989 C   0  0  0  0  0  0  0  0  0  0  0  0
    6.1265  -15.3711   25.1878 C   0  0  0  0  0  0  0  0  0  0  0  0
    5.5576  -14.1541   25.2546 N   0  0  0  0  0  0  0  0  0  0  0  0
    6.4537  -13.2947   25.8071 C   0  0  0  0  0  0  0  0  0  0  0  0
    6.3639  -11.9479   26.0908 C   0  0  0  0  0  0  0  0  0  0  0  0
    7.4513  -11.3151   26.6638 C   0  0  0  0  0  0  0  0  0  0  0  0
    8.6079  -12.0135   26.9487 C   0  0  0  0  0  0  0  0  0  0  0  0
    8.6858  -13.3531   26.6621 C   0  0  0  0  0  0  0  0  0  0  0  0
    7.6060  -14.0048   26.0876 C   0  0  0  0  0  0  0  0  0  0  0  0
   10.3505  -17.3999   24.7845 C   0  0  0  0  0  0  0  0  0  0  0  0
    9.9564  -18.5470   24.4846 O   0  0  0  0  0  0  0  0  0  0  0  0
   11.7080  -17.1955   25.1598 N   0  0  0  0  0  0  0  0  0  0  0  0
   12.6098  -18.3332   25.4286 C   0  0  1  0  0  0  0  0  0  0  0  0
   14.0365  -17.9046   25.2528 C   0  0  0  0  0  0  0  0  0  0  0  0
   14.2990  -17.2051   23.9727 C   0  0  0  0  0  0  0  0  0  0  0  0
   15.7022  -16.7924   23.7636 C   0  0  0  0  0  0  0  0  0  0  0  0
   16.2709  -17.0850   22.6775 O   0  0  0  0  0  0  0  0  0  0  0  0
   12.3533  -18.8523   26.7985 C   0  0  0  0  0  0  0  0  0  0  0  0
   11.5938  -18.3133   27.6326 O   0  0  0  0  0  0  0  0  0  0  0  0
   16.4083  -16.1021   24.7120 O   0  0  0  0  0  0  0  0  0  0  0  0
   12.9972  -20.0240   27.2005 O   0  0  0  0  0  0  0  0  0  0  0  0
  2  1  1  1
  2  3  1  0
  3  4  1  0
  4  5  2  0
  4  8  1  0
  5  6  1  0
  6  7  1  0
  8  7  2  0
  9 10  2  0
  9  2  1  0
 11  9  1  0
 12 13  1  1
 12 11  1  0
 13 14  1  0
 14 22  1  0
 14 15  2  0
 15 16  1  0
 17 16  1  0
 17 18  2  0
 19 18  1  0
 20 19  2  0
 21 22  2  0
 21 20  1  0
 22 17  1  0
 23 12  1  0
 24 23  2  0
 25 23  1  0
 26 25  1  0
 27 28  1  0
 26 27  1  1
 28 29  1  0
 29 33  1  0
 29 30  2  0
 31 34  1  0
 31 26  1  0
 32 31  2  0
M  END
$$$$
