HWE.pdb
     RDKit          3D

 34 36  0  0  1  0  0  0  0  0999 V2000
    7.8434  -16.2346   20.2240 N   0  0  0  0  0  0  0  0  0  0  0  0
    8.9305  -15.2652   20.3924 C   0  0  1  0  0  0  0  0  0  0  0  0
    8.3384  -13.9338   19.9108 C   0  0  0  0  0  0  0  0  0  0  0  0
    8.2175  -14.0676   18.4291 C   0  0  0  0  0  0  0  0  0  0  0  0
    7.1800  -14.6417   17.7525 C   0  0  0  0  0  0  0  0  0  0  0  0
    7.4765  -14.5507   16.4389 N   0  0  0  0  0  0  0  0  0  0  0  0
    8.6466  -13.9485   16.2668 C   0  0  0  0  0  0  0  0  0  0  0  0
    9.0982  -13.6528   17.5059 N   0  0  0  0  0  0  0  0  0  0  0  0
    9.3356  -15.1806   21.7955 C   0  0  0  0  0  0  0  0  0  0  0  0
   10.0994  -14.2770   22.1844 O   0  0  0  0  0  0  0  0  0  0  0  0
    8.8680  -16.1169   22.7197 N   0  0  0  0  0  0  0  0  0  0  0  0
    9.2251  -16.1368   24.1254 C   0  0  1  0  0  0  0  0  0  0  0  0
    8.0637  -16.3722   25.0204 C   0  0  0  0  0  0  0  0  0  0  0  0
    7.1745  -15.1903   24.9911 C   0  0  0  0  0  0  0  0  0  0  0  0
    5.9896  -15.0374   24.3025 C   0  0  0  0  0  0  0  0  0  0  0  0
    5.4870  -13.8104   24.5284 N   0  0  0  0  0  0  0  0  0  0  0  0
    6.3327  -13.1506   25.3627 C   0  0  0  0  0  0  0  0  0  0  0  0
    6.2760  -11.8786   25.8930 C   0  0  0  0  0  0  0  0  0  0  0  0
    7.2944  -11.4607   26.7294 C   0  0  0  0  0  0  0  0  0  0  0  0
    8.3509  -12.2970   27.0314 C   0  0  0  0  0  0  0  0  0  0  0  0
    8.3967  -13.5604   26.4979 C   0  0  0  0  0  0  0  0  0  0  0  0
    7.3850  -13.9971   25.6575 C   0  0  0  0  0  0  0  0  0  0  0  0
   10.2532  -17.1601   24.3472 C   0  0  0  0  0  0  0  0  0  0  0  0
   10.0204  -18.3543   24.0628 O   0  0  0  0  0  0  0  0  0  0  0  0
   11.5190  -16.7967   24.8866 N   0  0  0  0  0  0  0  0  0  0  0  0
   12.5653  -17.8077   25.1379 C   0  0  1  0  0  0  0  0  0  0  0  0
   13.9146  -17.1523   25.1482 C   0  0  0  0  0  0  0  0  0  0  0  0
   15.0351  -18.0909   25.3936 C   0  0  0  0  0  0  0  0  0  0  0  0
   16.3132  -17.7176   24.7532 C   0  0  0  0  0  0  0  0  0  0  0  0
   16.5039  -16.5165   24.4218 O   0  0  0  0  0  0  0  0  0  0  0  0
   12.2793  -18.5046   26.4202 C   0  0  0  0  0  0  0  0  0  0  0  0
   11.7122  -17.9803   27.4035 O   0  0  0  0  0  0  0  0  0  0  0  0
   17.2999  -18.6339   24.5059 O   0  0  0  0  0  0  0  0  0  0  0  0
   12.6637  -19.8399   26.5553 O   0  0  0  0  0  0  0  0  0  0  0  0
  2  1  1  1
  2  3  1  0
  3  4  1  0
  4  5  2  0
  4  8  1  0
  5  6  1  0
  6  7  1  0
  8  7  2  0
  9 10  2  0
  9  2  1  0
 11  9  1  0
 12 13  1  1
 12 11  1  0
 13 14  1  0
 14 22  1  0
 14 15  2  0
 15 16  1  0
 17 16  1  0
 17 18  2  0
 19 18  1  0
 20 19  2  0
 21 22  2  0
 21 20  1  0
 22 17  1  0
 23 12  1  0
 24 23  2  0
 25 23  1  0
 26 25  1  0
 27 28  1  0
 26 27  1  1
 28 29  1  0
 29 33  1  0
 29 30  2  0
 31 34  1  0
 31 26  1  0
 32 31  2  0
M  END
$$$$
