HWE.pdb
     RDKit          3D

 34 36  0  0  1  0  0  0  0  0999 V2000
    9.5247  -16.9725   19.6672 N   0  0  0  0  0  0  0  0  0  0  0  0
   10.5661  -15.9892   19.9806 C   0  0  1  0  0  0  0  0  0  0  0  0
   10.5504  -15.0184   18.7921 C   0  0  0  0  0  0  0  0  0  0  0  0
    9.1121  -14.8695   18.4219 C   0  0  0  0  0  0  0  0  0  0  0  0
    8.6146  -14.1007   17.4094 C   0  0  0  0  0  0  0  0  0  0  0  0
    7.2739  -14.2556   17.4282 N   0  0  0  0  0  0  0  0  0  0  0  0
    6.9148  -15.0824   18.4023 C   0  0  0  0  0  0  0  0  0  0  0  0
    8.0607  -15.4577   19.0127 N   0  0  0  0  0  0  0  0  0  0  0  0
   10.2604  -15.2919   21.2298 C   0  0  0  0  0  0  0  0  0  0  0  0
   11.0505  -14.4517   21.6998 O   0  0  0  0  0  0  0  0  0  0  0  0
    9.0729  -15.5617   21.9128 N   0  0  0  0  0  0  0  0  0  0  0  0
    8.6932  -14.9579   23.1757 C   0  0  1  0  0  0  0  0  0  0  0  0
    7.2226  -14.8773   23.3664 C   0  0  0  0  0  0  0  0  0  0  0  0
    6.9289  -14.5306   24.7743 C   0  0  0  0  0  0  0  0  0  0  0  0
    6.4740  -15.3628   25.7754 C   0  0  0  0  0  0  0  0  0  0  0  0
    6.3213  -14.6634   26.9141 N   0  0  0  0  0  0  0  0  0  0  0  0
    6.6727  -13.3732   26.6721 C   0  0  0  0  0  0  0  0  0  0  0  0
    6.6944  -12.2680   27.4970 C   0  0  0  0  0  0  0  0  0  0  0  0
    7.1041  -11.0557   26.9741 C   0  0  0  0  0  0  0  0  0  0  0  0
    7.4854  -10.9476   25.6514 C   0  0  0  0  0  0  0  0  0  0  0  0
    7.4598  -12.0538   24.8400 C   0  0  0  0  0  0  0  0  0  0  0  0
    7.0521  -13.2778   25.3462 C   0  0  0  0  0  0  0  0  0  0  0  0
    9.3075  -15.7118   24.2746 C   0  0  0  0  0  0  0  0  0  0  0  0
    9.2050  -15.3016   25.4502 O   0  0  0  0  0  0  0  0  0  0  0  0
   10.0219  -16.9129   24.0057 N   0  0  0  0  0  0  0  0  0  0  0  0
   10.7300  -17.6411   25.0773 C   0  0  1  0  0  0  0  0  0  0  0  0
   10.1769  -19.0300   25.2005 C   0  0  0  0  0  0  0  0  0  0  0  0
    8.7502  -19.0739   25.5999 C   0  0  0  0  0  0  0  0  0  0  0  0
    8.1643  -20.4283   25.6729 C   0  0  0  0  0  0  0  0  0  0  0  0
    8.8299  -21.3551   26.2082 O   0  0  0  0  0  0  0  0  0  0  0  0
   12.1885  -17.6507   24.7860 C   0  0  0  0  0  0  0  0  0  0  0  0
   12.7091  -17.1904   23.7467 O   0  0  0  0  0  0  0  0  0  0  0  0
    6.9201  -20.7123   25.1770 O   0  0  0  0  0  0  0  0  0  0  0  0
   13.0544  -18.2090   25.7281 O   0  0  0  0  0  0  0  0  0  0  0  0
  2  1  1  6
  2  3  1  0
  3  4  1  0
  4  5  2  0
  4  8  1  0
  5  6  1  0
  6  7  1  0
  8  7  2  0
  9 10  2  0
  9  2  1  0
 11  9  1  0
 12 13  1  1
 12 11  1  0
 13 14  1  0
 14 22  1  0
 14 15  2  0
 15 16  1  0
 17 16  1  0
 17 18  2  0
 19 18  1  0
 20 19  2  0
 21 22  2  0
 21 20  1  0
 22 17  1  0
 23 12  1  0
 24 23  2  0
 25 23  1  0
 26 25  1  0
 27 28  1  0
 26 27  1  6
 28 29  1  0
 29 33  1  0
 29 30  2  0
 31 34  1  0
 31 26  1  0
 32 31  2  0
M  END
$$$$
