HWE.pdb
     RDKit          3D

 34 36  0  0  1  0  0  0  0  0999 V2000
    7.7116  -14.3545   19.7954 N   0  0  0  0  0  0  0  0  0  0  0  0
    8.1064  -15.6889   20.2570 C   0  0  1  0  0  0  0  0  0  0  0  0
    9.0771  -16.1974   19.1826 C   0  0  0  0  0  0  0  0  0  0  0  0
    8.2416  -16.4124   17.9645 C   0  0  0  0  0  0  0  0  0  0  0  0
    6.8827  -16.5381   17.9297 C   0  0  0  0  0  0  0  0  0  0  0  0
    6.5433  -16.7184   16.6358 N   0  0  0  0  0  0  0  0  0  0  0  0
    7.6244  -16.7107   15.8659 C   0  0  0  0  0  0  0  0  0  0  0  0
    8.6721  -16.5205   16.6983 N   0  0  0  0  0  0  0  0  0  0  0  0
    8.7636  -15.6117   21.5616 C   0  0  0  0  0  0  0  0  0  0  0  0
    9.8029  -14.9421   21.7124 O   0  0  0  0  0  0  0  0  0  0  0  0
    8.2304  -16.2913   22.6586 N   0  0  0  0  0  0  0  0  0  0  0  0
    8.7997  -16.2779   23.9925 C   0  0  1  0  0  0  0  0  0  0  0  0
    7.7819  -16.4246   25.0640 C   0  0  0  0  0  0  0  0  0  0  0  0
    6.9623  -15.1950   25.1337 C   0  0  0  0  0  0  0  0  0  0  0  0
    5.6649  -15.0152   24.7025 C   0  0  0  0  0  0  0  0  0  0  0  0
    5.2796  -13.7477   24.9353 N   0  0  0  0  0  0  0  0  0  0  0  0
    6.3148  -13.0879   25.5181 C   0  0  0  0  0  0  0  0  0  0  0  0
    6.4322  -11.7830   25.9493 C   0  0  0  0  0  0  0  0  0  0  0  0
    7.6253  -11.3746   26.5159 C   0  0  0  0  0  0  0  0  0  0  0  0
    8.6827  -12.2525   26.6500 C   0  0  0  0  0  0  0  0  0  0  0  0
    8.5544  -13.5483   26.2174 C   0  0  0  0  0  0  0  0  0  0  0  0
    7.3661  -13.9762   25.6468 C   0  0  0  0  0  0  0  0  0  0  0  0
    9.8055  -17.3411   24.0982 C   0  0  0  0  0  0  0  0  0  0  0  0
    9.5506  -18.4892   23.6763 O   0  0  0  0  0  0  0  0  0  0  0  0
   11.0750  -17.0689   24.6811 N   0  0  0  0  0  0  0  0  0  0  0  0
   12.0490  -18.1483   24.9383 C   0  0  1  0  0  0  0  0  0  0  0  0
   13.4376  -17.6610   24.6479 C   0  0  0  0  0  0  0  0  0  0  0  0
   13.6564  -17.2826   23.2317 C   0  0  0  0  0  0  0  0  0  0  0  0
   15.0015  -16.7520   22.9284 C   0  0  0  0  0  0  0  0  0  0  0  0
   16.0145  -17.4082   23.2914 O   0  0  0  0  0  0  0  0  0  0  0  0
   11.9089  -18.6137   26.3439 C   0  0  0  0  0  0  0  0  0  0  0  0
   11.1585  -18.0891   27.1953 O   0  0  0  0  0  0  0  0  0  0  0  0
   15.1861  -15.5683   22.2656 O   0  0  0  0  0  0  0  0  0  0  0  0
   12.6607  -19.7134   26.7617 O   0  0  0  0  0  0  0  0  0  0  0  0
  2  1  1  6
  2  3  1  0
  3  4  1  0
  4  5  2  0
  4  8  1  0
  5  6  1  0
  6  7  1  0
  8  7  2  0
  9 10  2  0
  9  2  1  0
 11  9  1  0
 12 13  1  1
 12 11  1  0
 13 14  1  0
 14 22  1  0
 14 15  2  0
 15 16  1  0
 17 16  1  0
 17 18  2  0
 19 18  1  0
 20 19  2  0
 21 22  2  0
 21 20  1  0
 22 17  1  0
 23 12  1  0
 24 23  2  0
 25 23  1  0
 26 25  1  0
 27 28  1  0
 26 27  1  1
 28 29  1  0
 29 33  1  0
 29 30  2  0
 31 34  1  0
 31 26  1  0
 32 31  2  0
M  END
$$$$
