HWE.pdb
     RDKit          3D

 34 36  0  0  1  0  0  0  0  0999 V2000
   10.5699  -16.4609   18.5351 N   0  0  0  0  0  0  0  0  0  0  0  0
    9.6059  -17.1386   19.4075 C   0  0  1  0  0  0  0  0  0  0  0  0
   10.0900  -18.5940   19.4605 C   0  0  0  0  0  0  0  0  0  0  0  0
    9.8027  -19.1559   18.1078 C   0  0  0  0  0  0  0  0  0  0  0  0
    8.5856  -19.5683   17.6470 C   0  0  0  0  0  0  0  0  0  0  0  0
    8.7768  -20.0035   16.3837 N   0  0  0  0  0  0  0  0  0  0  0  0
   10.0523  -19.8816   16.0378 C   0  0  0  0  0  0  0  0  0  0  0  0
   10.6803  -19.3555   17.1127 N   0  0  0  0  0  0  0  0  0  0  0  0
    9.6046  -16.5388   20.7417 C   0  0  0  0  0  0  0  0  0  0  0  0
   10.6674  -16.1657   21.2731 O   0  0  0  0  0  0  0  0  0  0  0  0
    8.4055  -16.3767   21.4383 N   0  0  0  0  0  0  0  0  0  0  0  0
    8.2952  -15.8078   22.7679 C   0  0  1  0  0  0  0  0  0  0  0  0
    6.8961  -15.4957   23.1561 C   0  0  0  0  0  0  0  0  0  0  0  0
    6.8684  -15.0338   24.5613 C   0  0  0  0  0  0  0  0  0  0  0  0
    6.6954  -15.7922   25.6999 C   0  0  0  0  0  0  0  0  0  0  0  0
    6.7221  -14.9972   26.7845 N   0  0  0  0  0  0  0  0  0  0  0  0
    6.9119  -13.7170   26.3699 C   0  0  0  0  0  0  0  0  0  0  0  0
    7.0122  -12.5384   27.0792 C   0  0  0  0  0  0  0  0  0  0  0  0
    7.2079  -11.3590   26.3849 C   0  0  0  0  0  0  0  0  0  0  0  0
    7.3019  -11.3555   25.0073 C   0  0  0  0  0  0  0  0  0  0  0  0
    7.2006  -12.5342   24.3122 C   0  0  0  0  0  0  0  0  0  0  0  0
    7.0044  -13.7265   24.9907 C   0  0  0  0  0  0  0  0  0  0  0  0
    8.8982  -16.7289   23.7380 C   0  0  0  0  0  0  0  0  0  0  0  0
    8.4102  -17.8662   23.9095 O   0  0  0  0  0  0  0  0  0  0  0  0
   10.0410  -16.3309   24.4870 N   0  0  0  0  0  0  0  0  0  0  0  0
   10.7136  -17.2622   25.4144 C   0  0  1  0  0  0  0  0  0  0  0  0
   12.2003  -17.1751   25.2343 C   0  0  0  0  0  0  0  0  0  0  0  0
   12.6173  -16.8083   23.8602 C   0  0  0  0  0  0  0  0  0  0  0  0
   14.0762  -16.8190   23.6272 C   0  0  0  0  0  0  0  0  0  0  0  0
   14.7754  -15.8732   24.0804 O   0  0  0  0  0  0  0  0  0  0  0  0
   10.3063  -16.9480   26.8099 C   0  0  0  0  0  0  0  0  0  0  0  0
    9.5499  -16.0072   27.1352 O   0  0  0  0  0  0  0  0  0  0  0  0
   14.6965  -17.8231   22.9334 O   0  0  0  0  0  0  0  0  0  0  0  0
   10.7929  -17.7493   27.8445 O   0  0  0  0  0  0  0  0  0  0  0  0
  2  1  1  6
  2  3  1  0
  3  4  1  0
  4  5  2  0
  4  8  1  0
  5  6  1  0
  6  7  1  0
  8  7  2  0
  9 10  2  0
  9  2  1  0
 11  9  1  0
 12 13  1  1
 12 11  1  0
 13 14  1  0
 14 22  1  0
 14 15  2  0
 15 16  1  0
 17 16  1  0
 17 18  2  0
 19 18  1  0
 20 19  2  0
 21 22  2  0
 21 20  1  0
 22 17  1  0
 23 12  1  0
 24 23  2  0
 25 23  1  0
 26 25  1  0
 27 28  1  0
 26 27  1  1
 28 29  1  0
 29 33  1  0
 29 30  2  0
 31 34  1  0
 31 26  1  0
 32 31  2  0
M  END
$$$$
