HWE.pdb
     RDKit          3D

 34 36  0  0  1  0  0  0  0  0999 V2000
    7.6501  -15.9373   20.8210 N   0  0  0  0  0  0  0  0  0  0  0  0
    8.8935  -15.1764   20.9785 C   0  0  1  0  0  0  0  0  0  0  0  0
    8.5220  -13.7426   20.5765 C   0  0  0  0  0  0  0  0  0  0  0  0
    8.2971  -13.7910   19.1017 C   0  0  0  0  0  0  0  0  0  0  0  0
    7.1972  -13.3299   18.4374 C   0  0  0  0  0  0  0  0  0  0  0  0
    7.4067  -13.5720   17.1262 N   0  0  0  0  0  0  0  0  0  0  0  0
    8.5822  -14.1606   16.9439 C   0  0  0  0  0  0  0  0  0  0  0  0
    9.1267  -14.2921   18.1739 N   0  0  0  0  0  0  0  0  0  0  0  0
    9.3593  -15.2272   22.3643 C   0  0  0  0  0  0  0  0  0  0  0  0
   10.2976  -14.5036   22.7476 O   0  0  0  0  0  0  0  0  0  0  0  0
    8.7538  -16.0921   23.2780 N   0  0  0  0  0  0  0  0  0  0  0  0
    9.1663  -16.2522   24.6592 C   0  0  1  0  0  0  0  0  0  0  0  0
    8.0250  -16.4168   25.5950 C   0  0  0  0  0  0  0  0  0  0  0  0
    7.0892  -15.2827   25.4316 C   0  0  0  0  0  0  0  0  0  0  0  0
    5.8850  -15.2669   24.7600 C   0  0  0  0  0  0  0  0  0  0  0  0
    5.3391  -14.0398   24.8334 N   0  0  0  0  0  0  0  0  0  0  0  0
    6.1755  -13.2435   25.5498 C   0  0  0  0  0  0  0  0  0  0  0  0
    6.0797  -11.9148   25.9070 C   0  0  0  0  0  0  0  0  0  0  0  0
    7.0982  -11.3516   26.6531 C   0  0  0  0  0  0  0  0  0  0  0  0
    8.1931  -12.1008   27.0362 C   0  0  0  0  0  0  0  0  0  0  0  0
    8.2776  -13.4219   26.6750 C   0  0  0  0  0  0  0  0  0  0  0  0
    7.2665  -14.0040   25.9271 C   0  0  0  0  0  0  0  0  0  0  0  0
   10.0762  -17.3990   24.7608 C   0  0  0  0  0  0  0  0  0  0  0  0
    9.7133  -18.5245   24.3578 O   0  0  0  0  0  0  0  0  0  0  0  0
   11.3751  -17.2338   25.3183 N   0  0  0  0  0  0  0  0  0  0  0  0
   12.2190  -18.3972   25.6567 C   0  0  1  0  0  0  0  0  0  0  0  0
   13.6604  -18.0737   25.3961 C   0  0  0  0  0  0  0  0  0  0  0  0
   13.8652  -17.0652   24.3294 C   0  0  0  0  0  0  0  0  0  0  0  0
   15.2775  -16.7439   24.0376 C   0  0  0  0  0  0  0  0  0  0  0  0
   15.8111  -15.7556   24.6096 O   0  0  0  0  0  0  0  0  0  0  0  0
   11.9857  -18.7793   27.0749 C   0  0  0  0  0  0  0  0  0  0  0  0
   11.2691  -18.1395   27.8752 O   0  0  0  0  0  0  0  0  0  0  0  0
   16.0283  -17.4841   23.1642 O   0  0  0  0  0  0  0  0  0  0  0  0
   12.6021  -19.9314   27.5666 O   0  0  0  0  0  0  0  0  0  0  0  0
  2  1  1  1
  2  3  1  0
  3  4  1  0
  4  5  2  0
  4  8  1  0
  5  6  1  0
  6  7  1  0
  8  7  2  0
  9 10  2  0
  9  2  1  0
 11  9  1  0
 12 13  1  1
 12 11  1  0
 13 14  1  0
 14 22  1  0
 14 15  2  0
 15 16  1  0
 17 16  1  0
 17 18  2  0
 19 18  1  0
 20 19  2  0
 21 22  2  0
 21 20  1  0
 22 17  1  0
 23 12  1  0
 24 23  2  0
 25 23  1  0
 26 25  1  0
 27 28  1  0
 26 27  1  1
 28 29  1  0
 29 33  1  0
 29 30  2  0
 31 34  1  0
 31 26  1  0
 32 31  2  0
M  END
$$$$
