PPS.pdb
     RDKit          3D

 21 22  0  0  1  0  0  0  0  0999 V2000
    8.7058  -14.3087   21.3706 N   0  0  0  0  0  0  0  0  0  0  0  0
    8.1884  -15.4634   20.6838 C   0  0  0  0  0  0  0  0  0  0  0  0
    6.7098  -15.3512   20.8540 C   0  0  0  0  0  0  0  0  0  0  0  0
    6.6167  -14.8492   22.2977 C   0  0  0  0  0  0  0  0  0  0  0  0
    7.8278  -13.9458   22.4324 C   0  0  1  0  0  0  0  0  0  0  0  0
    8.3888  -14.0486   23.7849 C   0  0  0  0  0  0  0  0  0  0  0  0
    9.5011  -14.6616   23.9451 O   0  0  0  0  0  0  0  0  0  0  0  0
    7.7910  -13.5152   24.9569 N   0  0  0  0  0  0  0  0  0  0  0  0
    6.5261  -12.8194   24.9509 C   0  0  0  0  0  0  0  0  0  0  0  0
    6.1856  -12.4709   26.3822 C   0  0  0  0  0  0  0  0  0  0  0  0
    7.5173  -12.6340   27.1259 C   0  0  0  0  0  0  0  0  0  0  0  0
    8.3251  -13.5779   26.3084 C   0  0  1  0  0  0  0  0  0  0  0  0
    8.3618  -14.9605   26.8202 C   0  0  0  0  0  0  0  0  0  0  0  0
    7.3132  -15.6480   26.7191 O   0  0  0  0  0  0  0  0  0  0  0  0
   11.6026  -17.1512   26.7014 O   0  0  0  0  0  0  0  0  0  0  0  0
   10.3763  -17.7813   26.8788 C   0  0  0  0  0  0  0  0  0  0  0  0
    9.5682  -16.9193   27.8390 C   0  0  2  0  0  0  0  0  0  0  0  0
    9.4903  -15.5582   27.4124 N   0  0  0  0  0  0  0  0  0  0  0  0
   10.2539  -16.9707   29.1513 C   0  0  0  0  0  0  0  0  0  0  0  0
   10.4892  -18.0990   29.6518 O   0  0  0  0  0  0  0  0  0  0  0  0
   10.6373  -15.8132   29.8308 O   0  0  0  0  0  0  0  0  0  0  0  0
  1  2  1  0
  3  2  1  0
  4  5  1  0
  4  3  1  0
  5  1  1  0
  6  8  1  0
  5  6  1  1
  7  6  2  0
  8 12  1  0
  9 10  1  0
  9  8  1  0
 10 11  1  0
 11 12  1  0
 12 13  1  1
 13 14  2  0
 13 18  1  0
 15 16  1  0
 17 19  1  0
 17 16  1  6
 18 17  1  0
 19 21  1  0
 20 19  2  0
M  END
$$$$
