PPS.pdb
     RDKit          3D

 21 22  0  0  1  0  0  0  0  0999 V2000
    8.7147  -14.3548   21.3746 N   0  0  0  0  0  0  0  0  0  0  0  0
    8.1990  -15.4964   20.6653 C   0  0  0  0  0  0  0  0  0  0  0  0
    6.7199  -15.3868   20.8332 C   0  0  0  0  0  0  0  0  0  0  0  0
    6.6228  -14.9113   22.2856 C   0  0  0  0  0  0  0  0  0  0  0  0
    7.8338  -14.0111   22.4404 C   0  0  1  0  0  0  0  0  0  0  0  0
    8.3909  -14.1389   23.7923 C   0  0  0  0  0  0  0  0  0  0  0  0
    9.4762  -14.7987   23.9512 O   0  0  0  0  0  0  0  0  0  0  0  0
    7.8170  -13.5818   24.9653 N   0  0  0  0  0  0  0  0  0  0  0  0
    6.5518  -12.8865   24.9711 C   0  0  0  0  0  0  0  0  0  0  0  0
    6.2406  -12.5089   26.4017 C   0  0  0  0  0  0  0  0  0  0  0  0
    7.5874  -12.6566   27.1211 C   0  0  0  0  0  0  0  0  0  0  0  0
    8.3788  -13.6169   26.3065 C   0  0  1  0  0  0  0  0  0  0  0  0
    8.4268  -14.9887   26.8455 C   0  0  0  0  0  0  0  0  0  0  0  0
    7.3640  -15.6613   26.8245 O   0  0  0  0  0  0  0  0  0  0  0  0
   11.6884  -17.1507   26.8289 O   0  0  0  0  0  0  0  0  0  0  0  0
   10.5170  -17.8424   27.1147 C   0  0  0  0  0  0  0  0  0  0  0  0
    9.6371  -16.9076   27.9332 C   0  0  2  0  0  0  0  0  0  0  0  0
    9.5810  -15.5918   27.3801 N   0  0  0  0  0  0  0  0  0  0  0  0
   10.2280  -16.8315   29.2897 C   0  0  0  0  0  0  0  0  0  0  0  0
   10.5002  -15.6958   29.7533 O   0  0  0  0  0  0  0  0  0  0  0  0
   10.4838  -17.9740   30.0497 O   0  0  0  0  0  0  0  0  0  0  0  0
  1  2  1  0
  3  2  1  0
  4  5  1  0
  4  3  1  0
  5  1  1  0
  6  8  1  0
  5  6  1  1
  7  6  2  0
  8 12  1  0
  9 10  1  0
  9  8  1  0
 10 11  1  0
 11 12  1  0
 12 13  1  1
 13 14  2  0
 13 18  1  0
 15 16  1  0
 17 19  1  0
 17 16  1  6
 18 17  1  0
 19 21  1  0
 20 19  2  0
M  END
$$$$
