PPS.pdb
     RDKit          3D

 21 22  0  0  1  0  0  0  0  0999 V2000
    9.5976  -14.7480   15.2488 N   0  0  0  0  0  0  0  0  0  0  0  0
    9.3830  -15.9875   14.5486 C   0  0  0  0  0  0  0  0  0  0  0  0
    7.9200  -16.2396   14.7026 C   0  0  0  0  0  0  0  0  0  0  0  0
    7.6939  -15.7884   16.1485 C   0  0  0  0  0  0  0  0  0  0  0  0
    8.6478  -14.6191   16.3029 C   0  0  1  0  0  0  0  0  0  0  0  0
    9.2041  -14.5948   17.6610 C   0  0  0  0  0  0  0  0  0  0  0  0
   10.4087  -14.9892   17.8400 O   0  0  0  0  0  0  0  0  0  0  0  0
    8.5061  -14.1623   18.8191 N   0  0  0  0  0  0  0  0  0  0  0  0
    7.1373  -13.7042   18.7903 C   0  0  0  0  0  0  0  0  0  0  0  0
    6.7221  -13.4043   20.2129 C   0  0  0  0  0  0  0  0  0  0  0  0
    8.0522  -13.3172   20.9722 C   0  0  0  0  0  0  0  0  0  0  0  0
    9.0259  -14.1116   20.1766 C   0  0  1  0  0  0  0  0  0  0  0  0
    9.3027  -15.4587   20.7088 C   0  0  0  0  0  0  0  0  0  0  0  0
    8.4859  -16.3745   20.4322 O   0  0  0  0  0  0  0  0  0  0  0  0
   13.0268  -16.6276   21.7235 O   0  0  0  0  0  0  0  0  0  0  0  0
   12.0750  -17.5892   21.4043 C   0  0  0  0  0  0  0  0  0  0  0  0
   10.7444  -17.0988   21.9585 C   0  0  2  0  0  0  0  0  0  0  0  0
   10.4180  -15.7847   21.5035 N   0  0  0  0  0  0  0  0  0  0  0  0
   10.8702  -17.0765   23.4345 C   0  0  0  0  0  0  0  0  0  0  0  0
   11.2255  -18.1334   24.0138 O   0  0  0  0  0  0  0  0  0  0  0  0
   10.6072  -15.9270   24.1814 O   0  0  0  0  0  0  0  0  0  0  0  0
  1  2  1  0
  3  2  1  0
  4  5  1  0
  4  3  1  0
  5  1  1  0
  6  8  1  0
  5  6  1  1
  7  6  2  0
  8 12  1  0
  9 10  1  0
  9  8  1  0
 10 11  1  0
 11 12  1  0
 12 13  1  1
 13 14  2  0
 13 18  1  0
 15 16  1  0
 17 19  1  0
 17 16  1  6
 18 17  1  0
 19 21  1  0
 20 19  2  0
M  END
$$$$
