PPS.pdb
     RDKit          3D

 21 22  0  0  1  0  0  0  0  0999 V2000
    6.8622  -17.9898   18.2333 N   0  0  0  0  0  0  0  0  0  0  0  0
    6.4469  -18.9744   19.1980 C   0  0  0  0  0  0  0  0  0  0  0  0
    5.4933  -18.2367   20.0779 C   0  0  0  0  0  0  0  0  0  0  0  0
    6.1860  -16.8753   20.1869 C   0  0  0  0  0  0  0  0  0  0  0  0
    6.8126  -16.6914   18.8177 C   0  0  1  0  0  0  0  0  0  0  0  0
    8.1009  -15.9987   18.9388 C   0  0  0  0  0  0  0  0  0  0  0  0
    9.1784  -16.6867   18.8739 O   0  0  0  0  0  0  0  0  0  0  0  0
    8.2589  -14.6003   19.1262 N   0  0  0  0  0  0  0  0  0  0  0  0
    7.1461  -13.6842   19.2062 C   0  0  0  0  0  0  0  0  0  0  0  0
    7.7032  -12.3059   19.4822 C   0  0  0  0  0  0  0  0  0  0  0  0
    9.1912  -12.4354   19.1325 C   0  0  0  0  0  0  0  0  0  0  0  0
    9.5151  -13.8807   19.2675 C   0  0  1  0  0  0  0  0  0  0  0  0
   10.2167  -14.2410   20.5135 C   0  0  0  0  0  0  0  0  0  0  0  0
   11.4334  -13.9360   20.6072 O   0  0  0  0  0  0  0  0  0  0  0  0
    8.1382  -15.9083   23.6547 O   0  0  0  0  0  0  0  0  0  0  0  0
    9.0676  -14.9307   23.9909 C   0  0  0  0  0  0  0  0  0  0  0  0
   10.1524  -14.9626   22.9231 C   0  0  2  0  0  0  0  0  0  0  0  0
    9.6147  -14.9020   21.6010 N   0  0  0  0  0  0  0  0  0  0  0  0
   10.8833  -16.2412   23.0841 C   0  0  0  0  0  0  0  0  0  0  0  0
   11.5136  -16.4313   24.1543 O   0  0  0  0  0  0  0  0  0  0  0  0
   10.8861  -17.2212   22.0901 O   0  0  0  0  0  0  0  0  0  0  0  0
  1  2  1  0
  3  2  1  0
  4  5  1  0
  4  3  1  0
  5  1  1  0
  6  8  1  0
  5  6  1  1
  7  6  2  0
  8 12  1  0
  9 10  1  0
  9  8  1  0
 10 11  1  0
 11 12  1  0
 12 13  1  1
 13 14  2  0
 13 18  1  0
 15 16  1  0
 17 19  1  0
 17 16  1  1
 18 17  1  0
 19 21  1  0
 20 19  2  0
M  END
$$$$
