PPS.pdb
     RDKit          3D

 21 22  0  0  1  0  0  0  0  0999 V2000
    8.7865  -14.1629   21.2884 N   0  0  0  0  0  0  0  0  0  0  0  0
    8.2074  -15.1564   20.4223 C   0  0  0  0  0  0  0  0  0  0  0  0
    6.7406  -14.8910   20.4998 C   0  0  0  0  0  0  0  0  0  0  0  0
    6.5794  -14.5599   21.9863 C   0  0  0  0  0  0  0  0  0  0  0  0
    7.8655  -13.8296   22.3232 C   0  0  1  0  0  0  0  0  0  0  0  0
    8.2942  -14.1612   23.6872 C   0  0  0  0  0  0  0  0  0  0  0  0
    9.3048  -14.9309   23.8451 O   0  0  0  0  0  0  0  0  0  0  0  0
    7.6709  -13.6918   24.8732 N   0  0  0  0  0  0  0  0  0  0  0  0
    6.4668  -12.8954   24.8697 C   0  0  0  0  0  0  0  0  0  0  0  0
    6.0694  -12.6551   26.3086 C   0  0  0  0  0  0  0  0  0  0  0  0
    7.3374  -12.9976   27.1010 C   0  0  0  0  0  0  0  0  0  0  0  0
    8.1166  -13.9250   26.2380 C   0  0  1  0  0  0  0  0  0  0  0  0
    8.0145  -15.3476   26.6129 C   0  0  0  0  0  0  0  0  0  0  0  0
    6.9065  -15.9180   26.4419 O   0  0  0  0  0  0  0  0  0  0  0  0
   10.9308  -17.8635   26.2231 O   0  0  0  0  0  0  0  0  0  0  0  0
    9.6616  -18.3819   26.4523 C   0  0  0  0  0  0  0  0  0  0  0  0
    8.9981  -17.4899   27.4925 C   0  0  2  0  0  0  0  0  0  0  0  0
    9.0732  -16.1056   27.1480 N   0  0  0  0  0  0  0  0  0  0  0  0
    9.7162  -17.7044   28.7705 C   0  0  0  0  0  0  0  0  0  0  0  0
   10.2523  -16.7106   29.3216 O   0  0  0  0  0  0  0  0  0  0  0  0
    9.8078  -18.9643   29.3644 O   0  0  0  0  0  0  0  0  0  0  0  0
  1  2  1  0
  3  2  1  0
  4  5  1  0
  4  3  1  0
  5  1  1  0
  6  8  1  0
  5  6  1  1
  7  6  2  0
  8 12  1  0
  9 10  1  0
  9  8  1  0
 10 11  1  0
 11 12  1  0
 12 13  1  1
 13 14  2  0
 13 18  1  0
 15 16  1  0
 17 19  1  0
 17 16  1  6
 18 17  1  0
 19 21  1  0
 20 19  2  0
M  END
$$$$
