PPS.pdb
     RDKit          3D

 21 22  0  0  1  0  0  0  0  0999 V2000
    8.6711  -14.1661   21.2853 N   0  0  0  0  0  0  0  0  0  0  0  0
    8.1424  -15.2757   20.5358 C   0  0  0  0  0  0  0  0  0  0  0  0
    6.6696  -15.1958   20.7645 C   0  0  0  0  0  0  0  0  0  0  0  0
    6.6221  -14.7993   22.2428 C   0  0  0  0  0  0  0  0  0  0  0  0
    7.8273  -13.8917   22.4001 C   0  0  1  0  0  0  0  0  0  0  0  0
    8.4369  -14.0830   23.7215 C   0  0  0  0  0  0  0  0  0  0  0  0
    9.5564  -14.6989   23.7998 O   0  0  0  0  0  0  0  0  0  0  0  0
    7.8797  -13.6344   24.9478 N   0  0  0  0  0  0  0  0  0  0  0  0
    6.6271  -12.9216   25.0314 C   0  0  0  0  0  0  0  0  0  0  0  0
    6.3308  -12.6814   26.4945 C   0  0  0  0  0  0  0  0  0  0  0  0
    7.6789  -12.9220   27.1857 C   0  0  0  0  0  0  0  0  0  0  0  0
    8.4485  -13.8108   26.2749 C   0  0  1  0  0  0  0  0  0  0  0  0
    8.4753  -15.2296   26.6760 C   0  0  0  0  0  0  0  0  0  0  0  0
    7.4211  -15.8989   26.5242 O   0  0  0  0  0  0  0  0  0  0  0  0
   11.7126  -17.3430   26.5349 O   0  0  0  0  0  0  0  0  0  0  0  0
   10.5573  -18.0880   26.7413 C   0  0  0  0  0  0  0  0  0  0  0  0
    9.6393  -17.2503   27.6209 C   0  0  2  0  0  0  0  0  0  0  0  0
    9.6005  -15.8809   27.2160 N   0  0  0  0  0  0  0  0  0  0  0  0
   10.1720  -17.3260   29.0012 C   0  0  0  0  0  0  0  0  0  0  0  0
   10.4672  -16.2511   29.5810 O   0  0  0  0  0  0  0  0  0  0  0  0
   10.3494  -18.5442   29.6593 O   0  0  0  0  0  0  0  0  0  0  0  0
  1  2  1  0
  3  2  1  0
  4  5  1  0
  4  3  1  0
  5  1  1  0
  6  8  1  0
  5  6  1  1
  7  6  2  0
  8 12  1  0
  9 10  1  0
  9  8  1  0
 10 11  1  0
 11 12  1  0
 12 13  1  1
 13 14  2  0
 13 18  1  0
 15 16  1  0
 17 19  1  0
 17 16  1  6
 18 17  1  0
 19 21  1  0
 20 19  2  0
M  END
$$$$
