PPS.pdb
     RDKit          3D

 21 22  0  0  1  0  0  0  0  0999 V2000
    8.6432  -14.2495   21.3108 N   0  0  0  0  0  0  0  0  0  0  0  0
    8.1958  -15.4077   20.5822 C   0  0  0  0  0  0  0  0  0  0  0  0
    6.7157  -15.4046   20.7745 C   0  0  0  0  0  0  0  0  0  0  0  0
    6.6098  -14.9702   22.2391 C   0  0  0  0  0  0  0  0  0  0  0  0
    7.7583  -13.9920   22.3974 C   0  0  1  0  0  0  0  0  0  0  0  0
    8.3450  -14.1117   23.7375 C   0  0  0  0  0  0  0  0  0  0  0  0
    9.4614  -14.7241   23.8685 O   0  0  0  0  0  0  0  0  0  0  0  0
    7.7682  -13.5956   24.9277 N   0  0  0  0  0  0  0  0  0  0  0  0
    6.4650  -12.9758   24.9686 C   0  0  0  0  0  0  0  0  0  0  0  0
    6.1670  -12.6249   26.4089 C   0  0  0  0  0  0  0  0  0  0  0  0
    7.5373  -12.6973   27.0947 C   0  0  0  0  0  0  0  0  0  0  0  0
    8.3635  -13.6050   26.2548 C   0  0  1  0  0  0  0  0  0  0  0  0
    8.5047  -14.9745   26.7831 C   0  0  0  0  0  0  0  0  0  0  0  0
    7.4980  -15.7269   26.7306 O   0  0  0  0  0  0  0  0  0  0  0  0
   11.9923  -16.8593   26.8742 O   0  0  0  0  0  0  0  0  0  0  0  0
   10.8406  -17.6289   26.9913 C   0  0  0  0  0  0  0  0  0  0  0  0
    9.8522  -16.8259   27.8258 C   0  0  2  0  0  0  0  0  0  0  0  0
    9.6893  -15.4924   27.3402 N   0  0  0  0  0  0  0  0  0  0  0  0
   10.3920  -16.7703   29.2044 C   0  0  0  0  0  0  0  0  0  0  0  0
   10.5842  -15.6404   29.7192 O   0  0  0  0  0  0  0  0  0  0  0  0
   10.6858  -17.9259   29.9302 O   0  0  0  0  0  0  0  0  0  0  0  0
  1  2  1  0
  3  2  1  0
  4  5  1  0
  4  3  1  0
  5  1  1  0
  6  8  1  0
  5  6  1  1
  7  6  2  0
  8 12  1  0
  9 10  1  0
  9  8  1  0
 10 11  1  0
 11 12  1  0
 12 13  1  1
 13 14  2  0
 13 18  1  0
 15 16  1  0
 17 19  1  0
 17 16  1  6
 18 17  1  0
 19 21  1  0
 20 19  2  0
M  END
$$$$
