PPS.pdb
     RDKit          3D

 21 22  0  0  1  0  0  0  0  0999 V2000
    8.7656  -14.3194   21.3253 N   0  0  0  0  0  0  0  0  0  0  0  0
    8.1649  -15.3710   20.5470 C   0  0  0  0  0  0  0  0  0  0  0  0
    6.7005  -15.0984   20.6424 C   0  0  0  0  0  0  0  0  0  0  0  0
    6.5769  -14.6622   22.1052 C   0  0  0  0  0  0  0  0  0  0  0  0
    7.8710  -13.9119   22.3567 C   0  0  1  0  0  0  0  0  0  0  0  0
    8.3342  -14.1462   23.7296 C   0  0  0  0  0  0  0  0  0  0  0  0
    9.3780  -14.8640   23.9132 O   0  0  0  0  0  0  0  0  0  0  0  0
    7.7103  -13.6345   24.8977 N   0  0  0  0  0  0  0  0  0  0  0  0
    6.4537  -12.9242   24.8745 C   0  0  0  0  0  0  0  0  0  0  0  0
    6.0779  -12.6065   26.3042 C   0  0  0  0  0  0  0  0  0  0  0  0
    7.3869  -12.8029   27.0794 C   0  0  0  0  0  0  0  0  0  0  0  0
    8.2065  -13.7360   26.2613 C   0  0  1  0  0  0  0  0  0  0  0  0
    8.2141  -15.1308   26.7399 C   0  0  0  0  0  0  0  0  0  0  0  0
    7.1524  -15.7947   26.6199 O   0  0  0  0  0  0  0  0  0  0  0  0
   11.3396  -17.4914   26.5637 O   0  0  0  0  0  0  0  0  0  0  0  0
   10.0784  -18.0356   26.7774 C   0  0  0  0  0  0  0  0  0  0  0  0
    9.3614  -17.1229   27.7627 C   0  0  2  0  0  0  0  0  0  0  0  0
    9.3289  -15.7650   27.3202 N   0  0  0  0  0  0  0  0  0  0  0  0
   10.1074  -17.1917   29.0408 C   0  0  0  0  0  0  0  0  0  0  0  0
   10.5342  -16.1183   29.5351 O   0  0  0  0  0  0  0  0  0  0  0  0
   10.3416  -18.4020   29.6957 O   0  0  0  0  0  0  0  0  0  0  0  0
  1  2  1  0
  3  2  1  0
  4  5  1  0
  4  3  1  0
  5  1  1  0
  6  8  1  0
  5  6  1  1
  7  6  2  0
  8 12  1  0
  9 10  1  0
  9  8  1  0
 10 11  1  0
 11 12  1  0
 12 13  1  1
 13 14  2  0
 13 18  1  0
 15 16  1  0
 17 19  1  0
 17 16  1  6
 18 17  1  0
 19 21  1  0
 20 19  2  0
M  END
$$$$
