PPS.pdb
     RDKit          3D

 21 22  0  0  1  0  0  0  0  0999 V2000
    8.6748  -14.7093   20.2119 N   0  0  0  0  0  0  0  0  0  0  0  0
    8.1489  -15.8176   19.4584 C   0  0  0  0  0  0  0  0  0  0  0  0
    6.6801  -15.7657   19.7189 C   0  0  0  0  0  0  0  0  0  0  0  0
    6.6574  -15.3898   21.2033 C   0  0  0  0  0  0  0  0  0  0  0  0
    7.8503  -14.4641   21.3478 C   0  0  1  0  0  0  0  0  0  0  0  0
    8.4909  -14.6628   22.6534 C   0  0  0  0  0  0  0  0  0  0  0  0
    9.6235  -15.2574   22.6994 O   0  0  0  0  0  0  0  0  0  0  0  0
    7.9506  -14.2435   23.8975 N   0  0  0  0  0  0  0  0  0  0  0  0
    6.6626  -13.6036   24.0229 C   0  0  0  0  0  0  0  0  0  0  0  0
    6.4025  -13.3767   25.4950 C   0  0  0  0  0  0  0  0  0  0  0  0
    7.7849  -13.5377   26.1403 C   0  0  0  0  0  0  0  0  0  0  0  0
    8.5730  -14.3834   25.2047 C   0  0  1  0  0  0  0  0  0  0  0  0
    8.6948  -15.7972   25.6059 C   0  0  0  0  0  0  0  0  0  0  0  0
    7.7133  -16.5526   25.3863 O   0  0  0  0  0  0  0  0  0  0  0  0
   12.1568  -17.5376   25.5815 O   0  0  0  0  0  0  0  0  0  0  0  0
   11.0585  -18.3893   25.6076 C   0  0  0  0  0  0  0  0  0  0  0  0
   10.0144  -17.7410   26.5062 C   0  0  2  0  0  0  0  0  0  0  0  0
    9.8346  -16.3539   26.2165 N   0  0  0  0  0  0  0  0  0  0  0  0
   10.4947  -17.8800   27.9008 C   0  0  0  0  0  0  0  0  0  0  0  0
   10.7205  -16.8318   28.5558 O   0  0  0  0  0  0  0  0  0  0  0  0
   10.6978  -19.1283   28.4917 O   0  0  0  0  0  0  0  0  0  0  0  0
  1  2  1  0
  3  2  1  0
  4  5  1  0
  4  3  1  0
  5  1  1  0
  6  8  1  0
  5  6  1  1
  7  6  2  0
  8 12  1  0
  9 10  1  0
  9  8  1  0
 10 11  1  0
 11 12  1  0
 12 13  1  1
 13 14  2  0
 13 18  1  0
 15 16  1  0
 17 19  1  0
 17 16  1  6
 18 17  1  0
 19 21  1  0
 20 19  2  0
M  END
$$$$
