PPS.pdb
     RDKit          3D

 21 22  0  0  1  0  0  0  0  0999 V2000
    8.7509  -14.2429   21.3047 N   0  0  0  0  0  0  0  0  0  0  0  0
    8.1390  -15.2702   20.5030 C   0  0  0  0  0  0  0  0  0  0  0  0
    6.6766  -14.9955   20.6202 C   0  0  0  0  0  0  0  0  0  0  0  0
    6.5685  -14.6001   22.0957 C   0  0  0  0  0  0  0  0  0  0  0  0
    7.8677  -13.8615   22.3557 C   0  0  1  0  0  0  0  0  0  0  0  0
    8.3431  -14.1359   23.7170 C   0  0  0  0  0  0  0  0  0  0  0  0
    9.3855  -14.8627   23.8704 O   0  0  0  0  0  0  0  0  0  0  0  0
    7.7328  -13.6543   24.9049 N   0  0  0  0  0  0  0  0  0  0  0  0
    6.5271  -12.8603   24.9067 C   0  0  0  0  0  0  0  0  0  0  0  0
    6.1463  -12.6045   26.3474 C   0  0  0  0  0  0  0  0  0  0  0  0
    7.4243  -12.9357   27.1286 C   0  0  0  0  0  0  0  0  0  0  0  0
    8.1950  -13.8713   26.2669 C   0  0  1  0  0  0  0  0  0  0  0  0
    8.1003  -15.2897   26.6590 C   0  0  0  0  0  0  0  0  0  0  0  0
    6.9837  -15.8557   26.5360 O   0  0  0  0  0  0  0  0  0  0  0  0
   11.0615  -17.8212   26.3035 O   0  0  0  0  0  0  0  0  0  0  0  0
    9.7859  -18.3328   26.5120 C   0  0  0  0  0  0  0  0  0  0  0  0
    9.1042  -17.4268   27.5282 C   0  0  2  0  0  0  0  0  0  0  0  0
    9.1750  -16.0484   27.1602 N   0  0  0  0  0  0  0  0  0  0  0  0
    9.8077  -17.6143   28.8184 C   0  0  0  0  0  0  0  0  0  0  0  0
   10.3564  -16.6133   29.3437 O   0  0  0  0  0  0  0  0  0  0  0  0
    9.8726  -18.8567   29.4513 O   0  0  0  0  0  0  0  0  0  0  0  0
  1  2  1  0
  3  2  1  0
  4  5  1  0
  4  3  1  0
  5  1  1  0
  6  8  1  0
  5  6  1  1
  7  6  2  0
  8 12  1  0
  9 10  1  0
  9  8  1  0
 10 11  1  0
 11 12  1  0
 12 13  1  1
 13 14  2  0
 13 18  1  0
 15 16  1  0
 17 19  1  0
 17 16  1  6
 18 17  1  0
 19 21  1  0
 20 19  2  0
M  END
$$$$
