PPS.pdb
     RDKit          3D

 21 22  0  0  1  0  0  0  0  0999 V2000
    9.0325  -16.7081   18.8281 N   0  0  0  0  0  0  0  0  0  0  0  0
    8.3754  -17.9201   18.4135 C   0  0  0  0  0  0  0  0  0  0  0  0
    6.9364  -17.6741   18.7242 C   0  0  0  0  0  0  0  0  0  0  0  0
    7.0459  -16.9338   20.0603 C   0  0  0  0  0  0  0  0  0  0  0  0
    8.3103  -16.1111   19.9014 C   0  0  1  0  0  0  0  0  0  0  0  0
    9.0253  -16.0284   21.1807 C   0  0  0  0  0  0  0  0  0  0  0  0
   10.1147  -16.6857   21.3208 O   0  0  0  0  0  0  0  0  0  0  0  0
    8.6034  -15.2655   22.3012 N   0  0  0  0  0  0  0  0  0  0  0  0
    7.4162  -14.4442   22.2948 C   0  0  0  0  0  0  0  0  0  0  0  0
    7.2579  -13.8528   23.6773 C   0  0  0  0  0  0  0  0  0  0  0  0
    8.6370  -14.0489   24.3198 C   0  0  0  0  0  0  0  0  0  0  0  0
    9.2641  -15.1859   23.5946 C   0  0  1  0  0  0  0  0  0  0  0  0
    9.2214  -16.4732   24.3126 C   0  0  0  0  0  0  0  0  0  0  0  0
    8.1008  -17.0281   24.4497 O   0  0  0  0  0  0  0  0  0  0  0  0
   12.1411  -19.0560   24.1696 O   0  0  0  0  0  0  0  0  0  0  0  0
   10.9039  -19.4966   24.6252 C   0  0  0  0  0  0  0  0  0  0  0  0
   10.3337  -18.3908   25.5027 C   0  0  2  0  0  0  0  0  0  0  0  0
   10.3498  -17.1190   24.8526 N   0  0  0  0  0  0  0  0  0  0  0  0
   11.1808  -18.3185   26.7160 C   0  0  0  0  0  0  0  0  0  0  0  0
   11.2918  -19.3519   27.4223 O   0  0  0  0  0  0  0  0  0  0  0  0
   11.8463  -17.1481   27.0842 O   0  0  0  0  0  0  0  0  0  0  0  0
  1  2  1  0
  3  2  1  0
  4  5  1  0
  4  3  1  0
  5  1  1  0
  6  8  1  0
  5  6  1  1
  7  6  2  0
  8 12  1  0
  9 10  1  0
  9  8  1  0
 10 11  1  0
 11 12  1  0
 12 13  1  1
 13 14  2  0
 13 18  1  0
 15 16  1  0
 17 19  1  0
 17 16  1  6
 18 17  1  0
 19 21  1  0
 20 19  2  0
M  END
$$$$
