PPS.pdb
     RDKit          3D

 21 22  0  0  1  0  0  0  0  0999 V2000
    8.7555  -14.2489   21.2899 N   0  0  0  0  0  0  0  0  0  0  0  0
    8.2356  -15.3372   20.5039 C   0  0  0  0  0  0  0  0  0  0  0  0
    6.7551  -15.1689   20.5904 C   0  0  0  0  0  0  0  0  0  0  0  0
    6.5914  -14.7481   22.0537 C   0  0  0  0  0  0  0  0  0  0  0  0
    7.8278  -13.9095   22.3165 C   0  0  1  0  0  0  0  0  0  0  0  0
    8.2973  -14.1159   23.6918 C   0  0  0  0  0  0  0  0  0  0  0  0
    9.3502  -14.8180   23.8841 O   0  0  0  0  0  0  0  0  0  0  0  0
    7.6704  -13.5928   24.8532 N   0  0  0  0  0  0  0  0  0  0  0  0
    6.4387  -12.8409   24.8142 C   0  0  0  0  0  0  0  0  0  0  0  0
    6.0486  -12.5220   26.2398 C   0  0  0  0  0  0  0  0  0  0  0  0
    7.3365  -12.7681   27.0360 C   0  0  0  0  0  0  0  0  0  0  0  0
    8.1388  -13.7217   26.2242 C   0  0  1  0  0  0  0  0  0  0  0  0
    8.0916  -15.1197   26.6911 C   0  0  0  0  0  0  0  0  0  0  0  0
    6.9858  -15.7166   26.6347 O   0  0  0  0  0  0  0  0  0  0  0  0
   11.1269  -17.5938   26.3317 O   0  0  0  0  0  0  0  0  0  0  0  0
    9.8523  -18.1021   26.5538 C   0  0  0  0  0  0  0  0  0  0  0  0
    9.1876  -17.2005   27.5851 C   0  0  2  0  0  0  0  0  0  0  0  0
    9.2002  -15.8267   27.1939 N   0  0  0  0  0  0  0  0  0  0  0  0
    9.9517  -17.3458   28.8461 C   0  0  0  0  0  0  0  0  0  0  0  0
   10.0935  -18.5000   29.3221 O   0  0  0  0  0  0  0  0  0  0  0  0
   10.5075  -16.2474   29.5043 O   0  0  0  0  0  0  0  0  0  0  0  0
  1  2  1  0
  3  2  1  0
  4  5  1  0
  4  3  1  0
  5  1  1  0
  6  8  1  0
  5  6  1  1
  7  6  2  0
  8 12  1  0
  9 10  1  0
  9  8  1  0
 10 11  1  0
 11 12  1  0
 12 13  1  1
 13 14  2  0
 13 18  1  0
 15 16  1  0
 17 19  1  0
 17 16  1  6
 18 17  1  0
 19 21  1  0
 20 19  2  0
M  END
$$$$
