PPS.pdb
     RDKit          3D

 21 22  0  0  1  0  0  0  0  0999 V2000
    9.3544  -13.8779   16.9883 N   0  0  0  0  0  0  0  0  0  0  0  0
    9.0632  -14.8949   16.0118 C   0  0  0  0  0  0  0  0  0  0  0  0
    7.6128  -15.1835   16.2138 C   0  0  0  0  0  0  0  0  0  0  0  0
    7.5103  -15.1225   17.7406 C   0  0  0  0  0  0  0  0  0  0  0  0
    8.4937  -14.0295   18.1135 C   0  0  1  0  0  0  0  0  0  0  0  0
    9.1565  -14.3553   19.3820 C   0  0  0  0  0  0  0  0  0  0  0  0
   10.4018  -14.6512   19.3678 O   0  0  0  0  0  0  0  0  0  0  0  0
    8.5215  -14.3713   20.6517 N   0  0  0  0  0  0  0  0  0  0  0  0
    7.1224  -14.0680   20.8381 C   0  0  0  0  0  0  0  0  0  0  0  0
    6.8005  -14.2617   22.3027 C   0  0  0  0  0  0  0  0  0  0  0  0
    8.1761  -14.2764   22.9815 C   0  0  0  0  0  0  0  0  0  0  0  0
    9.1433  -14.6858   21.9285 C   0  0  1  0  0  0  0  0  0  0  0  0
    9.5699  -16.0957   21.9984 C   0  0  0  0  0  0  0  0  0  0  0  0
    8.7954  -16.9641   21.5203 O   0  0  0  0  0  0  0  0  0  0  0  0
   13.4152  -17.0882   22.3332 O   0  0  0  0  0  0  0  0  0  0  0  0
   12.5553  -18.0813   21.8785 C   0  0  0  0  0  0  0  0  0  0  0  0
   11.2299  -17.8874   22.6024 C   0  0  2  0  0  0  0  0  0  0  0  0
   10.7835  -16.5310   22.5636 N   0  0  0  0  0  0  0  0  0  0  0  0
   11.4446  -18.2801   24.0147 C   0  0  0  0  0  0  0  0  0  0  0  0
   11.8444  -19.4479   24.2496 O   0  0  0  0  0  0  0  0  0  0  0  0
   11.2163  -17.3960   25.0706 O   0  0  0  0  0  0  0  0  0  0  0  0
  1  2  1  0
  3  2  1  0
  4  5  1  0
  4  3  1  0
  5  1  1  0
  6  8  1  0
  5  6  1  1
  7  6  2  0
  8 12  1  0
  9 10  1  0
  9  8  1  0
 10 11  1  0
 11 12  1  0
 12 13  1  6
 13 14  2  0
 13 18  1  0
 15 16  1  0
 17 19  1  0
 17 16  1  6
 18 17  1  0
 19 21  1  0
 20 19  2  0
M  END
$$$$
