WWF.pdb
     RDKit          3D

 40 44  0  0  1  0  0  0  0  0999 V2000
    8.7312  -17.4683   21.2916 N   0  0  0  0  0  0  0  0  0  0  0  0
    8.7924  -16.0408   21.5280 C   0  0  1  0  0  0  0  0  0  0  0  0
    7.4969  -15.3331   21.2294 C   0  0  0  0  0  0  0  0  0  0  0  0
    7.4491  -15.0291   19.7716 C   0  0  0  0  0  0  0  0  0  0  0  0
    6.8538  -15.7990   18.7814 C   0  0  0  0  0  0  0  0  0  0  0  0
    7.0197  -15.1926   17.5964 N   0  0  0  0  0  0  0  0  0  0  0  0
    7.7126  -14.0273   17.7469 C   0  0  0  0  0  0  0  0  0  0  0  0
    8.1288  -13.0649   16.8565 C   0  0  0  0  0  0  0  0  0  0  0  0
    8.8258  -11.9752   17.3147 C   0  0  0  0  0  0  0  0  0  0  0  0
    9.0821  -11.8942   18.6767 C   0  0  0  0  0  0  0  0  0  0  0  0
    8.6751  -12.8437   19.5770 C   0  0  0  0  0  0  0  0  0  0  0  0
    7.9719  -13.9406   19.1055 C   0  0  0  0  0  0  0  0  0  0  0  0
    9.1436  -15.8467   22.9801 C   0  0  0  0  0  0  0  0  0  0  0  0
    9.5480  -14.7190   23.4113 O   0  0  0  0  0  0  0  0  0  0  0  0
    9.0312  -16.9184   23.9043 N   0  0  0  0  0  0  0  0  0  0  0  0
    9.3222  -16.7698   25.3357 C   0  0  1  0  0  0  0  0  0  0  0  0
    8.0459  -16.9594   26.0663 C   0  0  0  0  0  0  0  0  0  0  0  0
    6.9620  -16.0346   25.7849 C   0  0  0  0  0  0  0  0  0  0  0  0
    5.6758  -16.3253   25.4265 C   0  0  0  0  0  0  0  0  0  0  0  0
    5.0032  -15.1790   25.2405 N   0  0  0  0  0  0  0  0  0  0  0  0
    5.8214  -14.1297   25.4695 C   0  0  0  0  0  0  0  0  0  0  0  0
    5.6797  -12.7636   25.4330 C   0  0  0  0  0  0  0  0  0  0  0  0
    6.7038  -11.8966   25.7206 C   0  0  0  0  0  0  0  0  0  0  0  0
    7.9366  -12.4120   26.0639 C   0  0  0  0  0  0  0  0  0  0  0  0
    8.0970  -13.7791   26.1051 C   0  0  0  0  0  0  0  0  0  0  0  0
    7.0554  -14.6552   25.8125 C   0  0  0  0  0  0  0  0  0  0  0  0
   10.4559  -17.6011   25.7306 C   0  0  0  0  0  0  0  0  0  0  0  0
   11.1189  -18.2114   24.8172 O   0  0  0  0  0  0  0  0  0  0  0  0
   10.9315  -17.8227   27.0402 N   0  0  0  0  0  0  0  0  0  0  0  0
   12.3128  -18.1965   27.3388 C   0  0  1  0  0  0  0  0  0  0  0  0
   12.8805  -17.3482   28.4311 C   0  0  0  0  0  0  0  0  0  0  0  0
   12.1123  -16.1103   28.6568 C   0  0  0  0  0  0  0  0  0  0  0  0
   12.1159  -15.0204   27.8135 C   0  0  0  0  0  0  0  0  0  0  0  0
   11.3787  -13.8752   28.0570 C   0  0  0  0  0  0  0  0  0  0  0  0
   10.5949  -13.7892   29.1867 C   0  0  0  0  0  0  0  0  0  0  0  0
   10.5739  -14.8744   30.0532 C   0  0  0  0  0  0  0  0  0  0  0  0
   11.3193  -16.0027   29.7837 C   0  0  0  0  0  0  0  0  0  0  0  0
   12.4494  -19.6225   27.6330 C   0  0  0  0  0  0  0  0  0  0  0  0
   11.4138  -20.5069   27.7630 O   0  0  0  0  0  0  0  0  0  0  0  0
   13.6359  -20.0746   27.7826 O   0  0  0  0  0  0  0  0  0  0  0  0
  2  3  1  0
  2  1  1  1
  4  3  1  0
  4  5  2  0
  6  5  1  0
  7  6  1  0
  8  7  2  0
  9  8  1  0
 10  9  2  0
 10 11  1  0
 11 12  2  0
 12  7  1  0
 12  4  1  0
 13  2  1  0
 14 13  2  0
 15 13  1  0
 16 27  1  0
 16 15  1  0
 16 17  1  1
 18 17  1  0
 18 26  1  0
 19 20  1  0
 19 18  2  0
 20 21  1  0
 21 26  2  0
 21 22  1  0
 22 23  2  0
 23 24  1  0
 25 24  2  0
 26 25  1  0
 27 28  2  0
 29 27  1  0
 30 29  1  0
 30 31  1  1
 32 31  1  0
 33 32  2  0
 34 33  1  0
 35 34  2  0
 35 36  1  0
 36 37  2  0
 37 32  1  0
 38 30  1  0
 39 38  1  0
 40 38  2  0
M  END
$$$$
