WWF.pdb
     RDKit          3D

 40 44  0  0  1  0  0  0  0  0999 V2000
    6.3762  -17.3211   23.5483 N   0  0  0  0  0  0  0  0  0  0  0  0
    7.6976  -16.8363   23.2074 C   0  0  1  0  0  0  0  0  0  0  0  0
    8.2895  -15.9356   24.2594 C   0  0  0  0  0  0  0  0  0  0  0  0
    7.1824  -15.1885   24.9198 C   0  0  0  0  0  0  0  0  0  0  0  0
    6.1714  -15.7247   25.7058 C   0  0  0  0  0  0  0  0  0  0  0  0
    5.3675  -14.7342   26.1207 N   0  0  0  0  0  0  0  0  0  0  0  0
    5.7998  -13.5328   25.6406 C   0  0  0  0  0  0  0  0  0  0  0  0
    5.3304  -12.2471   25.7778 C   0  0  0  0  0  0  0  0  0  0  0  0
    5.9933  -11.2154   25.1618 C   0  0  0  0  0  0  0  0  0  0  0  0
    7.1241  -11.5228   24.4175 C   0  0  0  0  0  0  0  0  0  0  0  0
    7.6050  -12.7975   24.2705 C   0  0  0  0  0  0  0  0  0  0  0  0
    6.9293  -13.8331   24.8960 C   0  0  0  0  0  0  0  0  0  0  0  0
    8.5807  -18.0439   23.0303 C   0  0  0  0  0  0  0  0  0  0  0  0
    8.1198  -19.2207   23.1836 O   0  0  0  0  0  0  0  0  0  0  0  0
    9.9505  -17.8981   22.6869 N   0  0  0  0  0  0  0  0  0  0  0  0
   10.7535  -16.7366   23.0893 C   0  0  1  0  0  0  0  0  0  0  0  0
    9.9112  -15.5316   22.8972 C   0  0  0  0  0  0  0  0  0  0  0  0
    9.5079  -15.1975   21.5425 C   0  0  0  0  0  0  0  0  0  0  0  0
    9.8582  -15.8225   20.3789 C   0  0  0  0  0  0  0  0  0  0  0  0
    9.2834  -15.1834   19.3483 N   0  0  0  0  0  0  0  0  0  0  0  0
    8.5559  -14.1428   19.8075 C   0  0  0  0  0  0  0  0  0  0  0  0
    7.7771  -13.1722   19.2251 C   0  0  0  0  0  0  0  0  0  0  0  0
    7.1258  -12.2027   19.9454 C   0  0  0  0  0  0  0  0  0  0  0  0
    7.2531  -12.1947   21.3192 C   0  0  0  0  0  0  0  0  0  0  0  0
    8.0303  -13.1598   21.9199 C   0  0  0  0  0  0  0  0  0  0  0  0
    8.6893  -14.1417   21.1854 C   0  0  0  0  0  0  0  0  0  0  0  0
   11.3493  -16.9407   24.4068 C   0  0  0  0  0  0  0  0  0  0  0  0
   12.4392  -16.3263   24.6908 O   0  0  0  0  0  0  0  0  0  0  0  0
   10.8554  -17.7582   25.4451 N   0  0  0  0  0  0  0  0  0  0  0  0
   11.5887  -18.0107   26.6841 C   0  0  1  0  0  0  0  0  0  0  0  0
   10.8230  -17.5313   27.8753 C   0  0  0  0  0  0  0  0  0  0  0  0
   10.6259  -16.0703   27.8830 C   0  0  0  0  0  0  0  0  0  0  0  0
   11.4983  -15.1642   28.4461 C   0  0  0  0  0  0  0  0  0  0  0  0
   11.2811  -13.7979   28.4314 C   0  0  0  0  0  0  0  0  0  0  0  0
   10.1493  -13.2880   27.8342 C   0  0  0  0  0  0  0  0  0  0  0  0
    9.2537  -14.1803   27.2593 C   0  0  0  0  0  0  0  0  0  0  0  0
    9.4973  -15.5371   27.2893 C   0  0  0  0  0  0  0  0  0  0  0  0
   11.9805  -19.4131   26.8198 C   0  0  0  0  0  0  0  0  0  0  0  0
   11.6154  -20.4228   25.9719 O   0  0  0  0  0  0  0  0  0  0  0  0
   12.7233  -19.7160   27.8154 O   0  0  0  0  0  0  0  0  0  0  0  0
  2  3  1  0
  2  1  1  1
  4  3  1  0
  4  5  2  0
  6  5  1  0
  7  6  1  0
  8  7  2  0
  9  8  1  0
 10  9  2  0
 10 11  1  0
 11 12  2  0
 12  7  1  0
 12  4  1  0
 13  2  1  0
 14 13  2  0
 15 13  1  0
 16 27  1  0
 16 15  1  0
 16 17  1  1
 18 17  1  0
 18 26  1  0
 19 20  1  0
 19 18  2  0
 20 21  1  0
 21 26  2  0
 21 22  1  0
 22 23  2  0
 23 24  1  0
 25 24  2  0
 26 25  1  0
 27 28  2  0
 29 27  1  0
 30 29  1  0
 30 31  1  1
 32 31  1  0
 33 32  2  0
 34 33  1  0
 35 34  2  0
 35 36  1  0
 36 37  2  0
 37 32  1  0
 38 30  1  0
 39 38  1  0
 40 38  2  0
M  END
$$$$
