WWF.pdb
     RDKit          3D

 40 44  0  0  1  0  0  0  0  0999 V2000
    9.9700  -19.0184   20.9914 N   0  0  0  0  0  0  0  0  0  0  0  0
   10.5399  -17.7809   20.5003 C   0  0  1  0  0  0  0  0  0  0  0  0
    9.9464  -17.3320   19.1909 C   0  0  0  0  0  0  0  0  0  0  0  0
   10.1208  -18.4247   18.1932 C   0  0  0  0  0  0  0  0  0  0  0  0
    9.1319  -19.2653   17.7004 C   0  0  0  0  0  0  0  0  0  0  0  0
    9.6796  -20.1163   16.8198 N   0  0  0  0  0  0  0  0  0  0  0  0
   11.0175  -19.8820   16.6951 C   0  0  0  0  0  0  0  0  0  0  0  0
   12.0033  -20.4701   15.9370 C   0  0  0  0  0  0  0  0  0  0  0  0
   13.2920  -20.0065   16.0253 C   0  0  0  0  0  0  0  0  0  0  0  0
   13.5438  -18.9492   16.8891 C   0  0  0  0  0  0  0  0  0  0  0  0
   12.5740  -18.3524   17.6512 C   0  0  0  0  0  0  0  0  0  0  0  0
   11.2756  -18.8270   17.5557 C   0  0  0  0  0  0  0  0  0  0  0  0
   10.2869  -16.7295   21.5492 C   0  0  0  0  0  0  0  0  0  0  0  0
   10.5260  -15.5008   21.3163 O   0  0  0  0  0  0  0  0  0  0  0  0
    9.7742  -17.0843   22.8247 N   0  0  0  0  0  0  0  0  0  0  0  0
    9.4737  -16.0938   23.8660 C   0  0  1  0  0  0  0  0  0  0  0  0
    8.0055  -15.8866   23.8656 C   0  0  0  0  0  0  0  0  0  0  0  0
    7.5132  -14.5372   23.6513 C   0  0  0  0  0  0  0  0  0  0  0  0
    7.3149  -13.8892   22.4646 C   0  0  0  0  0  0  0  0  0  0  0  0
    6.8685  -12.6482   22.7125 N   0  0  0  0  0  0  0  0  0  0  0  0
    6.7664  -12.4596   24.0456 C   0  0  0  0  0  0  0  0  0  0  0  0
    6.3743  -11.4174   24.8502 C   0  0  0  0  0  0  0  0  0  0  0  0
    6.3630  -11.4923   26.2204 C   0  0  0  0  0  0  0  0  0  0  0  0
    6.7622  -12.6655   26.8268 C   0  0  0  0  0  0  0  0  0  0  0  0
    7.1589  -13.7206   26.0358 C   0  0  0  0  0  0  0  0  0  0  0  0
    7.1689  -13.6403   24.6461 C   0  0  0  0  0  0  0  0  0  0  0  0
   10.1040  -16.4553   25.1326 C   0  0  0  0  0  0  0  0  0  0  0  0
   10.1088  -15.5954   26.0849 O   0  0  0  0  0  0  0  0  0  0  0  0
   10.7296  -17.6789   25.4515 N   0  0  0  0  0  0  0  0  0  0  0  0
   11.8804  -17.7814   26.3470 C   0  0  1  0  0  0  0  0  0  0  0  0
   11.4757  -17.5952   27.7741 C   0  0  0  0  0  0  0  0  0  0  0  0
   10.7606  -16.3275   28.0090 C   0  0  0  0  0  0  0  0  0  0  0  0
    9.3910  -16.2049   28.0999 C   0  0  0  0  0  0  0  0  0  0  0  0
    8.7546  -14.9971   28.3243 C   0  0  0  0  0  0  0  0  0  0  0  0
    9.4964  -13.8451   28.4675 C   0  0  0  0  0  0  0  0  0  0  0  0
   10.8792  -13.9416   28.3799 C   0  0  0  0  0  0  0  0  0  0  0  0
   11.4852  -15.1597   28.1557 C   0  0  0  0  0  0  0  0  0  0  0  0
   12.6248  -19.0250   26.1522 C   0  0  0  0  0  0  0  0  0  0  0  0
   12.2885  -20.0201   25.2758 O   0  0  0  0  0  0  0  0  0  0  0  0
   13.6740  -19.1925   26.8634 O   0  0  0  0  0  0  0  0  0  0  0  0
  2  3  1  0
  2  1  1  1
  4  3  1  0
  4  5  2  0
  6  5  1  0
  7  6  1  0
  8  7  2  0
  9  8  1  0
 10  9  2  0
 10 11  1  0
 11 12  2  0
 12  7  1  0
 12  4  1  0
 13  2  1  0
 14 13  2  0
 15 13  1  0
 16 27  1  0
 16 15  1  0
 16 17  1  1
 18 17  1  0
 18 26  1  0
 19 20  1  0
 19 18  2  0
 20 21  1  0
 21 26  2  0
 21 22  1  0
 22 23  2  0
 23 24  1  0
 25 24  2  0
 26 25  1  0
 27 28  2  0
 29 27  1  0
 30 29  1  0
 30 31  1  1
 32 31  1  0
 33 32  2  0
 34 33  1  0
 35 34  2  0
 35 36  1  0
 36 37  2  0
 37 32  1  0
 38 30  1  0
 39 38  1  0
 40 38  2  0
M  END
$$$$
