WWF.pdb
     RDKit          3D

 40 44  0  0  1  0  0  0  0  0999 V2000
    7.2792  -17.5118   20.1402 N   0  0  0  0  0  0  0  0  0  0  0  0
    8.3113  -17.4779   21.1556 C   0  0  1  0  0  0  0  0  0  0  0  0
    9.0301  -16.1564   21.2280 C   0  0  0  0  0  0  0  0  0  0  0  0
    8.2376  -15.1450   20.4738 C   0  0  0  0  0  0  0  0  0  0  0  0
    6.8565  -15.0038   20.4731 C   0  0  0  0  0  0  0  0  0  0  0  0
    6.5216  -13.9799   19.6738 N   0  0  0  0  0  0  0  0  0  0  0  0
    7.6357  -13.4146   19.1263 C   0  0  0  0  0  0  0  0  0  0  0  0
    7.8212  -12.3617   18.2607 C   0  0  0  0  0  0  0  0  0  0  0  0
    9.0930  -12.0165   17.8778 C   0  0  0  0  0  0  0  0  0  0  0  0
   10.1491  -12.7579   18.3902 C   0  0  0  0  0  0  0  0  0  0  0  0
    9.9819  -13.8093   19.2528 C   0  0  0  0  0  0  0  0  0  0  0  0
    8.6942  -14.1509   19.6340 C   0  0  0  0  0  0  0  0  0  0  0  0
    7.6424  -17.7549   22.4768 C   0  0  0  0  0  0  0  0  0  0  0  0
    6.3883  -17.9636   22.5452 O   0  0  0  0  0  0  0  0  0  0  0  0
    8.3961  -17.7905   23.6794 N   0  0  0  0  0  0  0  0  0  0  0  0
    9.0792  -16.6116   24.2266 C   0  0  1  0  0  0  0  0  0  0  0  0
    8.6670  -16.4833   25.6452 C   0  0  0  0  0  0  0  0  0  0  0  0
    7.4036  -15.8241   25.9252 C   0  0  0  0  0  0  0  0  0  0  0  0
    6.2179  -16.3937   26.2954 C   0  0  0  0  0  0  0  0  0  0  0  0
    5.2940  -15.4305   26.4352 N   0  0  0  0  0  0  0  0  0  0  0  0
    5.8460  -14.2285   26.1640 C   0  0  0  0  0  0  0  0  0  0  0  0
    5.3888  -12.9330   26.1481 C   0  0  0  0  0  0  0  0  0  0  0  0
    6.1848  -11.8619   25.8285 C   0  0  0  0  0  0  0  0  0  0  0  0
    7.5075  -12.0871   25.5071 C   0  0  0  0  0  0  0  0  0  0  0  0
    7.9828  -13.3795   25.5174 C   0  0  0  0  0  0  0  0  0  0  0  0
    7.1719  -14.4633   25.8422 C   0  0  0  0  0  0  0  0  0  0  0  0
   10.5105  -16.6537   23.9407 C   0  0  0  0  0  0  0  0  0  0  0  0
   10.9233  -17.3890   22.9736 O   0  0  0  0  0  0  0  0  0  0  0  0
   11.5333  -15.9586   24.6197 N   0  0  0  0  0  0  0  0  0  0  0  0
   12.4131  -16.5872   25.6033 C   0  0  1  0  0  0  0  0  0  0  0  0
   11.6809  -16.8908   26.8709 C   0  0  0  0  0  0  0  0  0  0  0  0
   11.4258  -15.6915   27.6895 C   0  0  0  0  0  0  0  0  0  0  0  0
   10.7506  -15.6911   28.8909 C   0  0  0  0  0  0  0  0  0  0  0  0
   10.5325  -14.5445   29.6338 C   0  0  0  0  0  0  0  0  0  0  0  0
   10.9991  -13.3310   29.1784 C   0  0  0  0  0  0  0  0  0  0  0  0
   11.6829  -13.3042   27.9698 C   0  0  0  0  0  0  0  0  0  0  0  0
   11.8852  -14.4636   27.2516 C   0  0  0  0  0  0  0  0  0  0  0  0
   13.0853  -17.7708   25.0685 C   0  0  0  0  0  0  0  0  0  0  0  0
   12.8389  -18.3376   23.8481 O   0  0  0  0  0  0  0  0  0  0  0  0
   13.9737  -18.3188   25.8070 O   0  0  0  0  0  0  0  0  0  0  0  0
  2  3  1  0
  2  1  1  6
  4  3  1  0
  4  5  2  0
  6  5  1  0
  7  6  1  0
  8  7  2  0
  9  8  1  0
 10  9  2  0
 10 11  1  0
 11 12  2  0
 12  7  1  0
 12  4  1  0
 13  2  1  0
 14 13  2  0
 15 13  1  0
 16 27  1  0
 16 15  1  0
 16 17  1  1
 18 17  1  0
 18 26  1  0
 19 20  1  0
 19 18  2  0
 20 21  1  0
 21 26  2  0
 21 22  1  0
 22 23  2  0
 23 24  1  0
 25 24  2  0
 26 25  1  0
 27 28  2  0
 29 27  1  0
 30 29  1  0
 30 31  1  1
 32 31  1  0
 33 32  2  0
 34 33  1  0
 35 34  2  0
 35 36  1  0
 36 37  2  0
 37 32  1  0
 38 30  1  0
 39 38  1  0
 40 38  2  0
M  END
$$$$
