WWF.pdb
     RDKit          3D

 40 44  0  0  1  0  0  0  0  0999 V2000
   10.5326  -19.0596   21.3764 N   0  0  0  0  0  0  0  0  0  0  0  0
   11.5240  -18.0284   21.1502 C   0  0  1  0  0  0  0  0  0  0  0  0
   11.7135  -17.6958   19.6936 C   0  0  0  0  0  0  0  0  0  0  0  0
   12.2515  -18.8995   18.9997 C   0  0  0  0  0  0  0  0  0  0  0  0
   11.5364  -19.7973   18.2188 C   0  0  0  0  0  0  0  0  0  0  0  0
   12.3707  -20.7454   17.7665 N   0  0  0  0  0  0  0  0  0  0  0  0
   13.6391  -20.5221   18.2160 C   0  0  0  0  0  0  0  0  0  0  0  0
   14.8266  -21.1927   18.0364 C   0  0  0  0  0  0  0  0  0  0  0  0
   15.9690  -20.7164   18.6292 C   0  0  0  0  0  0  0  0  0  0  0  0
   15.8706  -19.5622   19.3944 C   0  0  0  0  0  0  0  0  0  0  0  0
   14.6961  -18.8824   19.5837 C   0  0  0  0  0  0  0  0  0  0  0  0
   13.5476  -19.3705   18.9813 C   0  0  0  0  0  0  0  0  0  0  0  0
   11.0602  -16.7986   21.8865 C   0  0  0  0  0  0  0  0  0  0  0  0
   11.6753  -15.6906   21.7637 O   0  0  0  0  0  0  0  0  0  0  0  0
    9.9237  -16.8457   22.7359 N   0  0  0  0  0  0  0  0  0  0  0  0
    9.4193  -15.6707   23.4575 C   0  0  1  0  0  0  0  0  0  0  0  0
    7.9493  -15.6347   23.2667 C   0  0  0  0  0  0  0  0  0  0  0  0
    7.4464  -15.2528   21.9588 C   0  0  0  0  0  0  0  0  0  0  0  0
    6.7136  -16.0041   21.0836 C   0  0  0  0  0  0  0  0  0  0  0  0
    6.4721  -15.2797   19.9801 N   0  0  0  0  0  0  0  0  0  0  0  0
    7.0325  -14.0579   20.1068 C   0  0  0  0  0  0  0  0  0  0  0  0
    7.1034  -12.9369   19.3157 C   0  0  0  0  0  0  0  0  0  0  0  0
    7.7551  -11.7910   19.6972 C   0  0  0  0  0  0  0  0  0  0  0  0
    8.3704  -11.7540   20.9315 C   0  0  0  0  0  0  0  0  0  0  0  0
    8.3099  -12.8689   21.7376 C   0  0  0  0  0  0  0  0  0  0  0  0
    7.6477  -14.0293   21.3467 C   0  0  0  0  0  0  0  0  0  0  0  0
    9.9230  -15.6393   24.8277 C   0  0  0  0  0  0  0  0  0  0  0  0
   10.8252  -14.7793   25.1319 O   0  0  0  0  0  0  0  0  0  0  0  0
    9.5242  -16.4667   25.8986 N   0  0  0  0  0  0  0  0  0  0  0  0
    9.9523  -16.2521   27.2797 C   0  0  1  0  0  0  0  0  0  0  0  0
    8.7954  -15.8965   28.1574 C   0  0  0  0  0  0  0  0  0  0  0  0
    8.0473  -14.7211   27.6756 C   0  0  0  0  0  0  0  0  0  0  0  0
    8.5053  -13.4226   27.7326 C   0  0  0  0  0  0  0  0  0  0  0  0
    7.7752  -12.3436   27.2671 C   0  0  0  0  0  0  0  0  0  0  0  0
    6.5286  -12.5433   26.7156 C   0  0  0  0  0  0  0  0  0  0  0  0
    6.0439  -13.8430   26.6464 C   0  0  0  0  0  0  0  0  0  0  0  0
    6.7949  -14.8986   27.1185 C   0  0  0  0  0  0  0  0  0  0  0  0
   10.7054  -17.3885   27.8090 C   0  0  0  0  0  0  0  0  0  0  0  0
   10.8430  -18.6026   27.1940 O   0  0  0  0  0  0  0  0  0  0  0  0
   11.2784  -17.2302   28.9410 O   0  0  0  0  0  0  0  0  0  0  0  0
  2  3  1  0
  2  1  1  6
  4  3  1  0
  4  5  2  0
  6  5  1  0
  7  6  1  0
  8  7  2  0
  9  8  1  0
 10  9  2  0
 10 11  1  0
 11 12  2  0
 12  7  1  0
 12  4  1  0
 13  2  1  0
 14 13  2  0
 15 13  1  0
 16 27  1  0
 16 15  1  0
 16 17  1  1
 18 17  1  0
 18 26  1  0
 19 20  1  0
 19 18  2  0
 20 21  1  0
 21 26  2  0
 21 22  1  0
 22 23  2  0
 23 24  1  0
 25 24  2  0
 26 25  1  0
 27 28  2  0
 29 27  1  0
 30 29  1  0
 30 31  1  1
 32 31  1  0
 33 32  2  0
 34 33  1  0
 35 34  2  0
 35 36  1  0
 36 37  2  0
 37 32  1  0
 38 30  1  0
 39 38  1  0
 40 38  2  0
M  END
$$$$
