WWF.pdb
     RDKit          3D

 40 44  0  0  1  0  0  0  0  0999 V2000
    8.0623  -18.3959   19.7651 N   0  0  0  0  0  0  0  0  0  0  0  0
    8.7917  -17.2268   19.3194 C   0  0  1  0  0  0  0  0  0  0  0  0
    8.0266  -16.3923   18.3262 C   0  0  0  0  0  0  0  0  0  0  0  0
    7.6410  -17.2594   17.1775 C   0  0  0  0  0  0  0  0  0  0  0  0
    6.3614  -17.6907   16.8550 C   0  0  0  0  0  0  0  0  0  0  0  0
    6.4211  -18.4517   15.7519 N   0  0  0  0  0  0  0  0  0  0  0  0
    7.7072  -18.5540   15.3089 C   0  0  0  0  0  0  0  0  0  0  0  0
    8.2798  -19.2072   14.2423 C   0  0  0  0  0  0  0  0  0  0  0  0
    9.6357  -19.1250   14.0472 C   0  0  0  0  0  0  0  0  0  0  0  0
   10.3772  -18.3748   14.9498 C   0  0  0  0  0  0  0  0  0  0  0  0
    9.8229  -17.7183   16.0172 C   0  0  0  0  0  0  0  0  0  0  0  0
    8.4530  -17.8068   16.2065 C   0  0  0  0  0  0  0  0  0  0  0  0
    9.0906  -16.3983   20.5417 C   0  0  0  0  0  0  0  0  0  0  0  0
    9.6062  -15.2389   20.4372 O   0  0  0  0  0  0  0  0  0  0  0  0
    8.8032  -16.8913   21.8416 N   0  0  0  0  0  0  0  0  0  0  0  0
    9.3312  -16.2714   23.0634 C   0  0  1  0  0  0  0  0  0  0  0  0
    8.4951  -16.7438   24.1932 C   0  0  0  0  0  0  0  0  0  0  0  0
    7.4060  -15.8891   24.6320 C   0  0  0  0  0  0  0  0  0  0  0  0
    6.1876  -16.2610   25.1266 C   0  0  0  0  0  0  0  0  0  0  0  0
    5.4682  -15.1598   25.3926 N   0  0  0  0  0  0  0  0  0  0  0  0
    6.1885  -14.0606   25.0828 C   0  0  0  0  0  0  0  0  0  0  0  0
    5.9665  -12.7062   25.1464 C   0  0  0  0  0  0  0  0  0  0  0  0
    6.8972  -11.7758   24.7575 C   0  0  0  0  0  0  0  0  0  0  0  0
    8.1157  -12.2118   24.2794 C   0  0  0  0  0  0  0  0  0  0  0  0
    8.3554  -13.5660   24.2083 C   0  0  0  0  0  0  0  0  0  0  0  0
    7.4084  -14.5066   24.6038 C   0  0  0  0  0  0  0  0  0  0  0  0
   10.7753  -16.4608   23.1670 C   0  0  0  0  0  0  0  0  0  0  0  0
   11.5267  -15.9788   22.2454 O   0  0  0  0  0  0  0  0  0  0  0  0
   11.4727  -17.1309   24.1941 N   0  0  0  0  0  0  0  0  0  0  0  0
   11.5886  -16.6113   25.5554 C   0  0  1  0  0  0  0  0  0  0  0  0
   10.2824  -16.0720   26.0435 C   0  0  0  0  0  0  0  0  0  0  0  0
   10.4099  -15.2963   27.2907 C   0  0  0  0  0  0  0  0  0  0  0  0
   10.3168  -13.9239   27.3737 C   0  0  0  0  0  0  0  0  0  0  0  0
   10.4390  -13.2297   28.5642 C   0  0  0  0  0  0  0  0  0  0  0  0
   10.6649  -13.9132   29.7387 C   0  0  0  0  0  0  0  0  0  0  0  0
   10.7630  -15.2975   29.6822 C   0  0  0  0  0  0  0  0  0  0  0  0
   10.6366  -15.9619   28.4807 C   0  0  0  0  0  0  0  0  0  0  0  0
   12.1472  -17.5978   26.4792 C   0  0  0  0  0  0  0  0  0  0  0  0
   11.4219  -18.5036   27.2037 O   0  0  0  0  0  0  0  0  0  0  0  0
   13.4179  -17.6092   26.6197 O   0  0  0  0  0  0  0  0  0  0  0  0
  2  3  1  0
  2  1  1  1
  4  3  1  0
  4  5  2  0
  6  5  1  0
  7  6  1  0
  8  7  2  0
  9  8  1  0
 10  9  2  0
 10 11  1  0
 11 12  2  0
 12  7  1  0
 12  4  1  0
 13  2  1  0
 14 13  2  0
 15 13  1  0
 16 27  1  0
 16 15  1  0
 16 17  1  1
 18 17  1  0
 18 26  1  0
 19 20  1  0
 19 18  2  0
 20 21  1  0
 21 26  2  0
 21 22  1  0
 22 23  2  0
 23 24  1  0
 25 24  2  0
 26 25  1  0
 27 28  2  0
 29 27  1  0
 30 29  1  0
 30 31  1  1
 32 31  1  0
 33 32  2  0
 34 33  1  0
 35 34  2  0
 35 36  1  0
 36 37  2  0
 37 32  1  0
 38 30  1  0
 39 38  1  0
 40 38  2  0
M  END
$$$$
