WWF.pdb
     RDKit          3D

 40 44  0  0  1  0  0  0  0  0999 V2000
    5.7619  -19.6290   23.6974 N   0  0  0  0  0  0  0  0  0  0  0  0
    6.6361  -18.4746   23.6775 C   0  0  1  0  0  0  0  0  0  0  0  0
    7.1725  -18.1121   25.0373 C   0  0  0  0  0  0  0  0  0  0  0  0
    6.5285  -16.8423   25.4766 C   0  0  0  0  0  0  0  0  0  0  0  0
    5.2825  -16.7059   26.0735 C   0  0  0  0  0  0  0  0  0  0  0  0
    5.0565  -15.4074   26.3231 N   0  0  0  0  0  0  0  0  0  0  0  0
    6.1140  -14.6493   25.9137 C   0  0  0  0  0  0  0  0  0  0  0  0
    6.3639  -13.2970   25.9469 C   0  0  0  0  0  0  0  0  0  0  0  0
    7.5479  -12.8152   25.4477 C   0  0  0  0  0  0  0  0  0  0  0  0
    8.4520  -13.7297   24.9245 C   0  0  0  0  0  0  0  0  0  0  0  0
    8.2189  -15.0793   24.8835 C   0  0  0  0  0  0  0  0  0  0  0  0
    7.0207  -15.5570   25.3898 C   0  0  0  0  0  0  0  0  0  0  0  0
    7.7847  -18.8043   22.7599 C   0  0  0  0  0  0  0  0  0  0  0  0
    8.5250  -19.8175   22.9750 O   0  0  0  0  0  0  0  0  0  0  0  0
    8.0691  -17.9918   21.6310 N   0  0  0  0  0  0  0  0  0  0  0  0
    9.4366  -17.6556   21.2157 C   0  0  1  0  0  0  0  0  0  0  0  0
    9.3317  -16.7780   20.0251 C   0  0  0  0  0  0  0  0  0  0  0  0
    8.3391  -15.7183   20.0516 C   0  0  0  0  0  0  0  0  0  0  0  0
    6.9863  -15.8243   19.8896 C   0  0  0  0  0  0  0  0  0  0  0  0
    6.4390  -14.6013   19.9648 N   0  0  0  0  0  0  0  0  0  0  0  0
    7.4061  -13.6827   20.1744 C   0  0  0  0  0  0  0  0  0  0  0  0
    7.4297  -12.3178   20.3301 C   0  0  0  0  0  0  0  0  0  0  0  0
    8.5853  -11.6078   20.5390 C   0  0  0  0  0  0  0  0  0  0  0  0
    9.7841  -12.2883   20.5970 C   0  0  0  0  0  0  0  0  0  0  0  0
    9.7794  -13.6566   20.4425 C   0  0  0  0  0  0  0  0  0  0  0  0
    8.6048  -14.3731   20.2308 C   0  0  0  0  0  0  0  0  0  0  0  0
   10.2243  -17.1697   22.3451 C   0  0  0  0  0  0  0  0  0  0  0  0
   11.4300  -16.7850   22.1341 O   0  0  0  0  0  0  0  0  0  0  0  0
    9.8077  -17.0649   23.6890 N   0  0  0  0  0  0  0  0  0  0  0  0
   10.5656  -16.3427   24.7091 C   0  0  1  0  0  0  0  0  0  0  0  0
    9.6564  -15.6936   25.7027 C   0  0  0  0  0  0  0  0  0  0  0  0
   10.3838  -14.9807   26.7686 C   0  0  0  0  0  0  0  0  0  0  0  0
   10.8632  -13.6928   26.6647 C   0  0  0  0  0  0  0  0  0  0  0  0
   11.5397  -13.0544   27.6888 C   0  0  0  0  0  0  0  0  0  0  0  0
   11.7608  -13.7097   28.8803 C   0  0  0  0  0  0  0  0  0  0  0  0
   11.2877  -15.0090   29.0105 C   0  0  0  0  0  0  0  0  0  0  0  0
   10.6165  -15.6192   27.9721 C   0  0  0  0  0  0  0  0  0  0  0  0
   11.5644  -17.1895   25.3602 C   0  0  0  0  0  0  0  0  0  0  0  0
   11.6387  -18.5513   25.2532 O   0  0  0  0  0  0  0  0  0  0  0  0
   12.4360  -16.6048   26.0904 O   0  0  0  0  0  0  0  0  0  0  0  0
  2  3  1  0
  2  1  1  1
  4  3  1  0
  4  5  2  0
  6  5  1  0
  7  6  1  0
  8  7  2  0
  9  8  1  0
 10  9  2  0
 10 11  1  0
 11 12  2  0
 12  7  1  0
 12  4  1  0
 13  2  1  0
 14 13  2  0
 15 13  1  0
 16 27  1  0
 16 15  1  0
 16 17  1  6
 18 17  1  0
 18 26  1  0
 19 20  1  0
 19 18  2  0
 20 21  1  0
 21 26  2  0
 21 22  1  0
 22 23  2  0
 23 24  1  0
 25 24  2  0
 26 25  1  0
 27 28  2  0
 29 27  1  0
 30 29  1  0
 30 31  1  1
 32 31  1  0
 33 32  2  0
 34 33  1  0
 35 34  2  0
 35 36  1  0
 36 37  2  0
 37 32  1  0
 38 30  1  0
 39 38  1  0
 40 38  2  0
M  END
$$$$
