WWF.pdb
     RDKit          3D

 40 44  0  0  1  0  0  0  0  0999 V2000
   10.5004  -19.1219   21.1743 N   0  0  0  0  0  0  0  0  0  0  0  0
   11.3766  -17.9687   21.1757 C   0  0  1  0  0  0  0  0  0  0  0  0
   11.5841  -17.3788   19.8055 C   0  0  0  0  0  0  0  0  0  0  0  0
   12.1639  -18.4286   18.9214 C   0  0  0  0  0  0  0  0  0  0  0  0
   11.5297  -19.0682   17.8650 C   0  0  0  0  0  0  0  0  0  0  0  0
   12.3789  -19.9473   17.3121 N   0  0  0  0  0  0  0  0  0  0  0  0
   13.5787  -19.9279   17.9608 C   0  0  0  0  0  0  0  0  0  0  0  0
   14.7502  -20.6262   17.7816 C   0  0  0  0  0  0  0  0  0  0  0  0
   15.8158  -20.3846   18.6119 C   0  0  0  0  0  0  0  0  0  0  0  0
   15.6586  -19.4319   19.6095 C   0  0  0  0  0  0  0  0  0  0  0  0
   14.4990  -18.7278   19.8018 C   0  0  0  0  0  0  0  0  0  0  0  0
   13.4282  -18.9782   18.9587 C   0  0  0  0  0  0  0  0  0  0  0  0
   10.7477  -16.9353   22.0736 C   0  0  0  0  0  0  0  0  0  0  0  0
   11.1821  -15.7388   22.1001 O   0  0  0  0  0  0  0  0  0  0  0  0
    9.6531  -17.2715   22.9129 N   0  0  0  0  0  0  0  0  0  0  0  0
    9.1044  -16.3487   23.9144 C   0  0  1  0  0  0  0  0  0  0  0  0
    7.6395  -16.2815   23.6949 C   0  0  0  0  0  0  0  0  0  0  0  0
    7.1689  -15.7246   22.4388 C   0  0  0  0  0  0  0  0  0  0  0  0
    6.4335  -16.3400   21.4653 C   0  0  0  0  0  0  0  0  0  0  0  0
    6.2289  -15.4761   20.4589 N   0  0  0  0  0  0  0  0  0  0  0  0
    6.8165  -14.2951   20.7472 C   0  0  0  0  0  0  0  0  0  0  0  0
    6.9283  -13.0855   20.1054 C   0  0  0  0  0  0  0  0  0  0  0  0
    7.6009  -12.0145   20.6381 C   0  0  0  0  0  0  0  0  0  0  0  0
    8.1953  -12.1497   21.8757 C   0  0  0  0  0  0  0  0  0  0  0  0
    8.0937  -13.3553   22.5334 C   0  0  0  0  0  0  0  0  0  0  0  0
    7.4105  -14.4393   21.9894 C   0  0  0  0  0  0  0  0  0  0  0  0
    9.5710  -16.6903   25.2552 C   0  0  0  0  0  0  0  0  0  0  0  0
    9.3441  -17.8709   25.7034 O   0  0  0  0  0  0  0  0  0  0  0  0
   10.2683  -15.8526   26.1511 N   0  0  0  0  0  0  0  0  0  0  0  0
   10.0280  -15.8447   27.5929 C   0  0  1  0  0  0  0  0  0  0  0  0
    8.6763  -15.2929   27.9148 C   0  0  0  0  0  0  0  0  0  0  0  0
    8.4589  -13.9435   27.3620 C   0  0  0  0  0  0  0  0  0  0  0  0
    9.4167  -12.9541   27.3091 C   0  0  0  0  0  0  0  0  0  0  0  0
    9.1766  -11.6986   26.7796 C   0  0  0  0  0  0  0  0  0  0  0  0
    7.9323  -11.3921   26.2739 C   0  0  0  0  0  0  0  0  0  0  0  0
    6.9491  -12.3722   26.3155 C   0  0  0  0  0  0  0  0  0  0  0  0
    7.2182  -13.6147   26.8493 C   0  0  0  0  0  0  0  0  0  0  0  0
   10.2340  -17.1610   28.1960 C   0  0  0  0  0  0  0  0  0  0  0  0
   10.4809  -18.3172   27.5078 O   0  0  0  0  0  0  0  0  0  0  0  0
   10.1750  -17.2323   29.4712 O   0  0  0  0  0  0  0  0  0  0  0  0
  2  3  1  0
  2  1  1  6
  4  3  1  0
  4  5  2  0
  6  5  1  0
  7  6  1  0
  8  7  2  0
  9  8  1  0
 10  9  2  0
 10 11  1  0
 11 12  2  0
 12  7  1  0
 12  4  1  0
 13  2  1  0
 14 13  2  0
 15 13  1  0
 16 27  1  0
 16 15  1  0
 16 17  1  1
 18 17  1  0
 18 26  1  0
 19 20  1  0
 19 18  2  0
 20 21  1  0
 21 26  2  0
 21 22  1  0
 22 23  2  0
 23 24  1  0
 25 24  2  0
 26 25  1  0
 27 28  2  0
 29 27  1  0
 30 29  1  0
 30 31  1  6
 32 31  1  0
 33 32  2  0
 34 33  1  0
 35 34  2  0
 35 36  1  0
 36 37  2  0
 37 32  1  0
 38 30  1  0
 39 38  1  0
 40 38  2  0
M  END
$$$$
