WWF.pdb
     RDKit          3D

 40 44  0  0  1  0  0  0  0  0999 V2000
    6.1325  -17.3573   23.6358 N   0  0  0  0  0  0  0  0  0  0  0  0
    7.0959  -16.2856   23.7798 C   0  0  1  0  0  0  0  0  0  0  0  0
    7.4280  -15.9743   25.2154 C   0  0  0  0  0  0  0  0  0  0  0  0
    6.4532  -14.9660   25.7184 C   0  0  0  0  0  0  0  0  0  0  0  0
    5.2446  -15.2227   26.3516 C   0  0  0  0  0  0  0  0  0  0  0  0
    4.6535  -14.0575   26.6554 N   0  0  0  0  0  0  0  0  0  0  0  0
    5.4241  -13.0083   26.2480 C   0  0  0  0  0  0  0  0  0  0  0  0
    5.2636  -11.6443   26.3256 C   0  0  0  0  0  0  0  0  0  0  0  0
    6.2335  -10.8187   25.8149 C   0  0  0  0  0  0  0  0  0  0  0  0
    7.3485  -11.4083   25.2348 C   0  0  0  0  0  0  0  0  0  0  0  0
    7.5240  -12.7646   25.1491 C   0  0  0  0  0  0  0  0  0  0  0  0
    6.5395  -13.5906   25.6674 C   0  0  0  0  0  0  0  0  0  0  0  0
    8.3478  -16.7155   23.0602 C   0  0  0  0  0  0  0  0  0  0  0  0
    8.6103  -17.9485   22.8819 O   0  0  0  0  0  0  0  0  0  0  0  0
    9.2660  -15.7541   22.5622 N   0  0  0  0  0  0  0  0  0  0  0  0
   10.5017  -16.1218   21.8597 C   0  0  1  0  0  0  0  0  0  0  0  0
   10.8097  -15.0269   20.9085 C   0  0  0  0  0  0  0  0  0  0  0  0
    9.7004  -14.4193   20.1947 C   0  0  0  0  0  0  0  0  0  0  0  0
    9.0522  -13.2503   20.4792 C   0  0  0  0  0  0  0  0  0  0  0  0
    8.0717  -13.0637   19.5822 N   0  0  0  0  0  0  0  0  0  0  0  0
    8.0569  -14.0900   18.7049 C   0  0  0  0  0  0  0  0  0  0  0  0
    7.2956  -14.4180   17.6093 C   0  0  0  0  0  0  0  0  0  0  0  0
    7.4987  -15.5561   16.8699 C   0  0  0  0  0  0  0  0  0  0  0  0
    8.5129  -16.4167   17.2366 C   0  0  0  0  0  0  0  0  0  0  0  0
    9.2857  -16.1040   18.3326 C   0  0  0  0  0  0  0  0  0  0  0  0
    9.0763  -14.9483   19.0799 C   0  0  0  0  0  0  0  0  0  0  0  0
   11.5466  -16.5105   22.8028 C   0  0  0  0  0  0  0  0  0  0  0  0
   12.7464  -16.1081   22.5918 O   0  0  0  0  0  0  0  0  0  0  0  0
   11.3940  -17.3011   23.9613 N   0  0  0  0  0  0  0  0  0  0  0  0
   12.4860  -17.5766   24.8932 C   0  0  1  0  0  0  0  0  0  0  0  0
   12.9983  -16.3178   25.5162 C   0  0  0  0  0  0  0  0  0  0  0  0
   12.0597  -15.7353   26.4926 C   0  0  0  0  0  0  0  0  0  0  0  0
   10.9563  -14.9779   26.1641 C   0  0  0  0  0  0  0  0  0  0  0  0
   10.0950  -14.4495   27.1091 C   0  0  0  0  0  0  0  0  0  0  0  0
   10.3239  -14.6726   28.4492 C   0  0  0  0  0  0  0  0  0  0  0  0
   11.4297  -15.4330   28.8068 C   0  0  0  0  0  0  0  0  0  0  0  0
   12.2703  -15.9468   27.8421 C   0  0  0  0  0  0  0  0  0  0  0  0
   12.1165  -18.5693   25.9015 C   0  0  0  0  0  0  0  0  0  0  0  0
   10.8731  -19.1193   26.0527 O   0  0  0  0  0  0  0  0  0  0  0  0
   13.0336  -18.9494   26.7072 O   0  0  0  0  0  0  0  0  0  0  0  0
  2  3  1  0
  2  1  1  1
  4  3  1  0
  4  5  2  0
  6  5  1  0
  7  6  1  0
  8  7  2  0
  9  8  1  0
 10  9  2  0
 10 11  1  0
 11 12  2  0
 12  7  1  0
 12  4  1  0
 13  2  1  0
 14 13  2  0
 15 13  1  0
 16 27  1  0
 16 15  1  0
 16 17  1  1
 18 17  1  0
 18 26  1  0
 19 20  1  0
 19 18  2  0
 20 21  1  0
 21 26  2  0
 21 22  1  0
 22 23  2  0
 23 24  1  0
 25 24  2  0
 26 25  1  0
 27 28  2  0
 29 27  1  0
 30 29  1  0
 30 31  1  1
 32 31  1  0
 33 32  2  0
 34 33  1  0
 35 34  2  0
 35 36  1  0
 36 37  2  0
 37 32  1  0
 38 30  1  0
 39 38  1  0
 40 38  2  0
M  END
$$$$
