ATL.pdb
     RDKit          3D

 21 20  0  0  1  0  0  0  0  0999 V2000
   13.3839  -15.3108   20.6654 C   0  0  0  0  0  0  0  0  0  0  0  0
   12.1452  -15.2696   19.7992 C   0  0  2  0  0  0  0  0  0  0  0  0
   12.3763  -14.6466   18.5268 N   0  0  0  0  0  0  0  0  0  0  0  0
   11.0693  -14.5383   20.4940 C   0  0  0  0  0  0  0  0  0  0  0  0
   11.0542  -13.2641   20.5402 O   0  0  0  0  0  0  0  0  0  0  0  0
    7.6228  -14.3067   19.7696 C   0  0  0  0  0  0  0  0  0  0  0  0
    7.6456  -14.9567   21.1438 C   0  0  1  0  0  0  0  0  0  0  0  0
    7.5091  -16.3307   21.0025 O   0  0  0  0  0  0  0  0  0  0  0  0
    8.9716  -14.5796   21.7753 C   0  0  2  0  0  0  0  0  0  0  0  0
   10.0409  -15.2733   21.1167 N   0  0  0  0  0  0  0  0  0  0  0  0
    8.9824  -14.8782   23.2329 C   0  0  0  0  0  0  0  0  0  0  0  0
    9.8637  -15.6512   23.6796 O   0  0  0  0  0  0  0  0  0  0  0  0
    7.9325  -11.6460   26.7923 C   0  0  0  0  0  0  0  0  0  0  0  0
    6.8583  -12.4284   26.1368 C   0  0  2  0  0  0  0  0  0  0  0  0
    5.5064  -11.9838   26.7279 C   0  0  0  0  0  0  0  0  0  0  0  0
    6.8992  -13.9015   26.2561 C   0  0  0  0  0  0  0  0  0  0  0  0
    7.9407  -14.6458   25.5109 C   0  0  2  0  0  0  0  0  0  0  0  0
    8.0239  -14.3133   24.1320 N   0  0  0  0  0  0  0  0  0  0  0  0
    7.7512  -16.0979   25.7597 C   0  0  0  0  0  0  0  0  0  0  0  0
    8.1872  -16.5821   26.9851 O   0  0  0  0  0  0  0  0  0  0  0  0
    7.2375  -16.8882   24.9553 O   0  0  0  0  0  0  0  0  0  0  0  0
  2  1  1  1
  3  2  1  0
  4  2  1  0
  4  5  2  0
  7  6  1  6
  7  9  1  0
  8  7  1  0
  9 10  1  6
 10  4  1  0
 11  9  1  0
 12 11  2  0
 14 13  1  1
 14 15  1  0
 16 14  1  0
 17 18  1  0
 17 16  1  6
 18 11  1  0
 19 17  1  0
 20 19  1  0
 21 19  2  0
M  END
$$$$
