ATL.pdb
     RDKit          3D

 21 20  0  0  1  0  0  0  0  0999 V2000
   13.1858  -14.2810   20.2658 C   0  0  0  0  0  0  0  0  0  0  0  0
   12.3773  -15.3476   19.5622 C   0  0  2  0  0  0  0  0  0  0  0  0
   12.4657  -15.2602   18.1322 N   0  0  0  0  0  0  0  0  0  0  0  0
   10.9593  -15.2450   19.9544 C   0  0  0  0  0  0  0  0  0  0  0  0
   10.1451  -14.5008   19.3147 O   0  0  0  0  0  0  0  0  0  0  0  0
    8.3465  -17.4171   19.8966 C   0  0  0  0  0  0  0  0  0  0  0  0
    8.3876  -17.1077   21.3845 C   0  0  1  0  0  0  0  0  0  0  0  0
    8.9997  -18.1584   22.0538 O   0  0  0  0  0  0  0  0  0  0  0  0
    9.1618  -15.8123   21.5326 C   0  0  2  0  0  0  0  0  0  0  0  0
   10.5051  -15.9896   21.0611 N   0  0  0  0  0  0  0  0  0  0  0  0
    9.1674  -15.3423   22.9443 C   0  0  0  0  0  0  0  0  0  0  0  0
   10.1789  -15.5748   23.6491 O   0  0  0  0  0  0  0  0  0  0  0  0
    5.4227  -12.2089   26.9390 C   0  0  0  0  0  0  0  0  0  0  0  0
    6.7288  -12.7951   26.5567 C   0  0  2  0  0  0  0  0  0  0  0  0
    7.8209  -11.7312   26.7812 C   0  0  0  0  0  0  0  0  0  0  0  0
    6.8961  -13.2751   25.1683 C   0  0  0  0  0  0  0  0  0  0  0  0
    8.0189  -14.1920   24.8643 C   0  0  2  0  0  0  0  0  0  0  0  0
    8.0610  -14.6386   23.5160 N   0  0  0  0  0  0  0  0  0  0  0  0
    8.0049  -15.2988   25.8547 C   0  0  0  0  0  0  0  0  0  0  0  0
    8.9012  -15.2020   26.9099 O   0  0  0  0  0  0  0  0  0  0  0  0
    7.2561  -16.2846   25.7975 O   0  0  0  0  0  0  0  0  0  0  0  0
  2  1  1  1
  3  2  1  0
  4  2  1  0
  4  5  2  0
  7  6  1  6
  7  9  1  0
  8  7  1  0
  9 10  1  1
 10  4  1  0
 11  9  1  0
 12 11  2  0
 14 13  1  6
 14 15  1  0
 16 14  1  0
 17 18  1  0
 17 16  1  6
 18 11  1  0
 19 17  1  0
 20 19  1  0
 21 19  2  0
M  END
$$$$
