ATL.pdb
     RDKit          3D

 21 20  0  0  1  0  0  0  0  0999 V2000
    8.7268  -12.2264   18.8324 C   0  0  0  0  0  0  0  0  0  0  0  0
    8.7096  -13.7006   18.4965 C   0  0  2  0  0  0  0  0  0  0  0  0
    7.9793  -13.9892   17.2950 N   0  0  0  0  0  0  0  0  0  0  0  0
    8.1100  -14.4629   19.6076 C   0  0  0  0  0  0  0  0  0  0  0  0
    6.8468  -14.6017   19.7128 O   0  0  0  0  0  0  0  0  0  0  0  0
    8.6080  -17.8407   20.4295 C   0  0  0  0  0  0  0  0  0  0  0  0
    8.9785  -17.1605   21.7377 C   0  0  1  0  0  0  0  0  0  0  0  0
   10.3601  -17.1415   21.8684 O   0  0  0  0  0  0  0  0  0  0  0  0
    8.3948  -15.7623   21.6750 C   0  0  2  0  0  0  0  0  0  0  0  0
    8.9604  -15.0463   20.5679 N   0  0  0  0  0  0  0  0  0  0  0  0
    8.6276  -15.0203   22.9434 C   0  0  0  0  0  0  0  0  0  0  0  0
    9.6795  -14.3463   23.0589 O   0  0  0  0  0  0  0  0  0  0  0  0
    5.5275  -12.3227   27.5483 C   0  0  0  0  0  0  0  0  0  0  0  0
    6.7894  -12.8681   26.9954 C   0  0  2  0  0  0  0  0  0  0  0  0
    7.8009  -11.7125   26.8674 C   0  0  0  0  0  0  0  0  0  0  0  0
    6.7418  -13.5264   25.6723 C   0  0  0  0  0  0  0  0  0  0  0  0
    7.8856  -14.3714   25.2579 C   0  0  2  0  0  0  0  0  0  0  0  0
    7.6934  -15.0533   24.0262 N   0  0  0  0  0  0  0  0  0  0  0  0
    8.2386  -15.2723   26.3849 C   0  0  0  0  0  0  0  0  0  0  0  0
    7.9857  -16.6248   26.2040 O   0  0  0  0  0  0  0  0  0  0  0  0
    8.7356  -14.8971   27.4563 O   0  0  0  0  0  0  0  0  0  0  0  0
  2  1  1  1
  3  2  1  0
  4  2  1  0
  4  5  2  0
  7  6  1  6
  7  9  1  0
  8  7  1  0
  9 10  1  6
 10  4  1  0
 11  9  1  0
 12 11  2  0
 14 13  1  6
 14 15  1  0
 16 14  1  0
 17 18  1  0
 17 16  1  1
 18 11  1  0
 19 17  1  0
 20 19  1  0
 21 19  2  0
M  END
$$$$
