ATL.pdb
     RDKit          3D

 21 20  0  0  1  0  0  0  0  0999 V2000
    0.0031  -27.2416   30.0861 C   0  0  0  0  0  0  0  0  0  0  0  0
   -0.4705  -27.6222   28.7014 C   0  0  2  0  0  0  0  0  0  0  0  0
    0.6113  -27.9062   27.8017 N   0  0  0  0  0  0  0  0  0  0  0  0
   -1.2849  -26.5330   28.1310 C   0  0  0  0  0  0  0  0  0  0  0  0
   -0.7567  -25.5992   27.4417 O   0  0  0  0  0  0  0  0  0  0  0  0
   -3.8666  -26.8738   25.7366 C   0  0  0  0  0  0  0  0  0  0  0  0
   -4.5754  -26.2036   26.9027 C   0  0  1  0  0  0  0  0  0  0  0  0
   -5.2725  -27.1613   27.6261 O   0  0  0  0  0  0  0  0  0  0  0  0
   -3.4972  -25.5369   27.7347 C   0  0  2  0  0  0  0  0  0  0  0  0
   -2.6755  -26.5339   28.3586 N   0  0  0  0  0  0  0  0  0  0  0  0
   -4.0850  -24.6351   28.7619 C   0  0  0  0  0  0  0  0  0  0  0  0
   -4.1487  -25.0390   29.9480 O   0  0  0  0  0  0  0  0  0  0  0  0
   -3.2629  -20.7123   31.2261 C   0  0  0  0  0  0  0  0  0  0  0  0
   -3.5010  -20.6213   29.7664 C   0  0  2  0  0  0  0  0  0  0  0  0
   -3.3189  -19.1525   29.3372 C   0  0  0  0  0  0  0  0  0  0  0  0
   -4.8198  -21.0445   29.2492 C   0  0  0  0  0  0  0  0  0  0  0  0
   -5.2078  -22.4686   29.3735 C   0  0  2  0  0  0  0  0  0  0  0  0
   -4.5756  -23.3310   28.4379 N   0  0  0  0  0  0  0  0  0  0  0  0
   -6.6904  -22.5567   29.3525 C   0  0  0  0  0  0  0  0  0  0  0  0
   -7.3613  -22.0288   30.4467 O   0  0  0  0  0  0  0  0  0  0  0  0
   -7.3520  -23.0630   28.4352 O   0  0  0  0  0  0  0  0  0  0  0  0
  2  1  1  1
  3  2  1  0
  4  2  1  0
  4  5  2  0
  7  6  1  6
  7  9  1  0
  8  7  1  0
  9 10  1  1
 10  4  1  0
 11  9  1  0
 12 11  2  0
 14 13  1  1
 14 15  1  0
 16 14  1  0
 17 18  1  0
 17 16  1  6
 18 11  1  0
 19 17  1  0
 20 19  1  0
 21 19  2  0
M  END
$$$$
