ATL.pdb
     RDKit          3D

 21 20  0  0  1  0  0  0  0  0999 V2000
    6.2921  -19.8679   24.1108 C   0  0  0  0  0  0  0  0  0  0  0  0
    6.4785  -19.4249   22.6771 C   0  0  2  0  0  0  0  0  0  0  0  0
    6.8099  -20.5101   21.7979 N   0  0  0  0  0  0  0  0  0  0  0  0
    7.5467  -18.4110   22.5985 C   0  0  0  0  0  0  0  0  0  0  0  0
    8.7775  -18.7350   22.6765 O   0  0  0  0  0  0  0  0  0  0  0  0
    7.7887  -15.7842   19.8480 C   0  0  0  0  0  0  0  0  0  0  0  0
    7.7545  -15.0667   21.1880 C   0  0  1  0  0  0  0  0  0  0  0  0
    6.4649  -14.6159   21.4329 O   0  0  0  0  0  0  0  0  0  0  0  0
    8.2109  -16.0736   22.2259 C   0  0  2  0  0  0  0  0  0  0  0  0
    7.1884  -17.0583   22.4337 N   0  0  0  0  0  0  0  0  0  0  0  0
    8.5565  -15.4084   23.5112 C   0  0  0  0  0  0  0  0  0  0  0  0
    8.7331  -14.1664   23.5145 O   0  0  0  0  0  0  0  0  0  0  0  0
    8.3654  -12.4066   26.6666 C   0  0  0  0  0  0  0  0  0  0  0  0
    7.4253  -13.3568   26.0271 C   0  0  2  0  0  0  0  0  0  0  0  0
    5.9879  -12.9214   26.3721 C   0  0  0  0  0  0  0  0  0  0  0  0
    7.5251  -14.7860   26.3926 C   0  0  0  0  0  0  0  0  0  0  0  0
    8.7485  -15.5315   26.0165 C   0  0  2  0  0  0  0  0  0  0  0  0
    8.6921  -16.1393   24.7334 N   0  0  0  0  0  0  0  0  0  0  0  0
    9.0748  -16.4835   27.1090 C   0  0  0  0  0  0  0  0  0  0  0  0
    9.5424  -15.9344   28.2947 O   0  0  0  0  0  0  0  0  0  0  0  0
    8.9573  -17.7144   27.0279 O   0  0  0  0  0  0  0  0  0  0  0  0
  2  1  1  1
  3  2  1  0
  4  2  1  0
  4  5  2  0
  7  6  1  6
  7  9  1  0
  8  7  1  0
  9 10  1  1
 10  4  1  0
 11  9  1  0
 12 11  2  0
 14 13  1  1
 14 15  1  0
 16 14  1  0
 17 18  1  0
 17 16  1  1
 18 11  1  0
 19 17  1  0
 20 19  1  0
 21 19  2  0
M  END
$$$$
