ATL.pdb
     RDKit          3D

 21 20  0  0  1  0  0  0  0  0999 V2000
    8.4432  -12.2568   18.9697 C   0  0  0  0  0  0  0  0  0  0  0  0
    8.5959  -13.7267   18.6495 C   0  0  2  0  0  0  0  0  0  0  0  0
    7.8656  -14.1198   17.4780 N   0  0  0  0  0  0  0  0  0  0  0  0
    8.1333  -14.5408   19.7890 C   0  0  0  0  0  0  0  0  0  0  0  0
    6.9070  -14.8647   19.9199 O   0  0  0  0  0  0  0  0  0  0  0  0
    9.0592  -17.7657   20.5029 C   0  0  0  0  0  0  0  0  0  0  0  0
    9.3944  -17.1016   21.8288 C   0  0  1  0  0  0  0  0  0  0  0  0
   10.7682  -16.9248   21.9177 O   0  0  0  0  0  0  0  0  0  0  0  0
    8.6495  -15.7809   21.8479 C   0  0  2  0  0  0  0  0  0  0  0  0
    9.0751  -14.9643   20.7478 N   0  0  0  0  0  0  0  0  0  0  0  0
    8.8536  -15.0619   23.1344 C   0  0  0  0  0  0  0  0  0  0  0  0
    9.6527  -14.0951   23.1602 O   0  0  0  0  0  0  0  0  0  0  0  0
    5.5414  -12.3160   27.1484 C   0  0  0  0  0  0  0  0  0  0  0  0
    6.8429  -12.9804   26.9025 C   0  0  2  0  0  0  0  0  0  0  0  0
    7.9431  -11.9013   26.8944 C   0  0  0  0  0  0  0  0  0  0  0  0
    7.0058  -13.7486   25.6498 C   0  0  0  0  0  0  0  0  0  0  0  0
    8.1671  -14.6590   25.5208 C   0  0  2  0  0  0  0  0  0  0  0  0
    8.1701  -15.4390   24.3331 N   0  0  0  0  0  0  0  0  0  0  0  0
    8.2710  -15.4689   26.7616 C   0  0  0  0  0  0  0  0  0  0  0  0
    8.0000  -16.8250   26.6450 O   0  0  0  0  0  0  0  0  0  0  0  0
    8.5791  -15.0162   27.8733 O   0  0  0  0  0  0  0  0  0  0  0  0
  2  1  1  1
  3  2  1  0
  4  2  1  0
  4  5  2  0
  7  6  1  6
  7  9  1  0
  8  7  1  0
  9 10  1  6
 10  4  1  0
 11  9  1  0
 12 11  2  0
 14 13  1  6
 14 15  1  0
 16 14  1  0
 17 18  1  0
 17 16  1  1
 18 11  1  0
 19 17  1  0
 20 19  1  0
 21 19  2  0
M  END
$$$$
