ATL.pdb
     RDKit          3D

 21 20  0  0  1  0  0  0  0  0999 V2000
    8.8308  -12.3468   20.0627 C   0  0  0  0  0  0  0  0  0  0  0  0
    8.5545  -13.7834   19.6804 C   0  0  2  0  0  0  0  0  0  0  0  0
    7.4982  -13.9096   18.7166 N   0  0  0  0  0  0  0  0  0  0  0  0
    8.1946  -14.5630   20.8794 C   0  0  0  0  0  0  0  0  0  0  0  0
    7.0047  -14.5661   21.3377 O   0  0  0  0  0  0  0  0  0  0  0  0
    7.8891  -17.8127   21.1204 C   0  0  0  0  0  0  0  0  0  0  0  0
    8.9276  -17.6177   22.2134 C   0  0  1  0  0  0  0  0  0  0  0  0
   10.1817  -17.9454   21.7170 O   0  0  0  0  0  0  0  0  0  0  0  0
    8.8445  -16.1620   22.6300 C   0  0  2  0  0  0  0  0  0  0  0  0
    9.1949  -15.3171   21.5248 N   0  0  0  0  0  0  0  0  0  0  0  0
    9.7255  -15.8804   23.7954 C   0  0  0  0  0  0  0  0  0  0  0  0
   10.8792  -15.4366   23.5809 O   0  0  0  0  0  0  0  0  0  0  0  0
    9.1356  -13.9526   29.4386 C   0  0  0  0  0  0  0  0  0  0  0  0
    9.8793  -14.3568   28.2224 C   0  0  2  0  0  0  0  0  0  0  0  0
    9.7799  -13.2148   27.1925 C   0  0  0  0  0  0  0  0  0  0  0  0
    9.4508  -15.5862   27.5217 C   0  0  0  0  0  0  0  0  0  0  0  0
   10.1487  -15.9723   26.2735 C   0  0  2  0  0  0  0  0  0  0  0  0
    9.2978  -16.0997   25.1427 N   0  0  0  0  0  0  0  0  0  0  0  0
   10.9605  -17.1864   26.5438 C   0  0  0  0  0  0  0  0  0  0  0  0
   10.4122  -18.4013   26.1569 O   0  0  0  0  0  0  0  0  0  0  0  0
   12.0761  -17.1810   27.0833 O   0  0  0  0  0  0  0  0  0  0  0  0
  2  1  1  1
  3  2  1  0
  4  2  1  0
  4  5  2  0
  7  6  1  6
  7  9  1  0
  8  7  1  0
  9 10  1  6
 10  4  1  0
 11  9  1  0
 12 11  2  0
 14 13  1  1
 14 15  1  0
 16 14  1  0
 17 18  1  0
 17 16  1  1
 18 11  1  0
 19 17  1  0
 20 19  1  0
 21 19  2  0
M  END
$$$$
