ATL.pdb
     RDKit          3D

 21 20  0  0  1  0  0  0  0  0999 V2000
    8.3985  -12.0411   19.7032 C   0  0  0  0  0  0  0  0  0  0  0  0
    8.5963  -13.4423   19.1702 C   0  0  2  0  0  0  0  0  0  0  0  0
    7.8721  -13.6826   17.9544 N   0  0  0  0  0  0  0  0  0  0  0  0
    8.1666  -14.4295   20.1782 C   0  0  0  0  0  0  0  0  0  0  0  0
    6.9636  -14.8495   20.2264 O   0  0  0  0  0  0  0  0  0  0  0  0
    8.8424  -18.1233   22.9531 C   0  0  0  0  0  0  0  0  0  0  0  0
    9.3644  -17.1886   21.8736 C   0  0  1  0  0  0  0  0  0  0  0  0
    9.0453  -17.7068   20.6261 O   0  0  0  0  0  0  0  0  0  0  0  0
    8.7066  -15.8439   22.1150 C   0  0  2  0  0  0  0  0  0  0  0  0
    9.1139  -14.9123   21.1029 N   0  0  0  0  0  0  0  0  0  0  0  0
    9.0345  -15.3148   23.4665 C   0  0  0  0  0  0  0  0  0  0  0  0
   10.2119  -14.9478   23.6967 O   0  0  0  0  0  0  0  0  0  0  0  0
    7.7376  -11.6317   26.0270 C   0  0  0  0  0  0  0  0  0  0  0  0
    6.8178  -12.7895   25.9303 C   0  0  2  0  0  0  0  0  0  0  0  0
    5.5017  -12.4228   26.6431 C   0  0  0  0  0  0  0  0  0  0  0  0
    7.2579  -14.0774   26.5080 C   0  0  0  0  0  0  0  0  0  0  0  0
    8.3479  -14.8218   25.8359 C   0  0  2  0  0  0  0  0  0  0  0  0
    8.0531  -15.2136   24.5023 N   0  0  0  0  0  0  0  0  0  0  0  0
    8.7548  -15.9522   26.7093 C   0  0  0  0  0  0  0  0  0  0  0  0
    9.4404  -15.6263   27.8711 O   0  0  0  0  0  0  0  0  0  0  0  0
    8.5239  -17.1456   26.4684 O   0  0  0  0  0  0  0  0  0  0  0  0
  2  1  1  1
  3  2  1  0
  4  2  1  0
  4  5  2  0
  7  6  1  1
  7  9  1  0
  8  7  1  0
  9 10  1  6
 10  4  1  0
 11  9  1  0
 12 11  2  0
 14 13  1  1
 14 15  1  0
 16 14  1  0
 17 18  1  0
 17 16  1  1
 18 11  1  0
 19 17  1  0
 20 19  1  0
 21 19  2  0
M  END
$$$$
