ATL.pdb
     RDKit          3D

 21 20  0  0  1  0  0  0  0  0999 V2000
    9.3210  -19.3395   19.9199 C   0  0  0  0  0  0  0  0  0  0  0  0
    9.3060  -18.8917   21.3641 C   0  0  2  0  0  0  0  0  0  0  0  0
    8.1025  -19.2666   22.0506 N   0  0  0  0  0  0  0  0  0  0  0  0
    9.4544  -17.4262   21.4382 C   0  0  0  0  0  0  0  0  0  0  0  0
   10.4916  -16.8395   20.9842 O   0  0  0  0  0  0  0  0  0  0  0  0
    7.2238  -14.6759   20.0388 C   0  0  0  0  0  0  0  0  0  0  0  0
    7.1942  -14.6398   21.5584 C   0  0  1  0  0  0  0  0  0  0  0  0
    6.1019  -15.3662   22.0122 O   0  0  0  0  0  0  0  0  0  0  0  0
    8.5071  -15.2357   22.0279 C   0  0  2  0  0  0  0  0  0  0  0  0
    8.4220  -16.6678   22.0252 N   0  0  0  0  0  0  0  0  0  0  0  0
    8.8726  -14.7423   23.3831 C   0  0  0  0  0  0  0  0  0  0  0  0
    9.1435  -13.5255   23.5248 O   0  0  0  0  0  0  0  0  0  0  0  0
    8.4544  -12.1630   26.8060 C   0  0  0  0  0  0  0  0  0  0  0  0
    7.4976  -13.0286   26.0772 C   0  0  2  0  0  0  0  0  0  0  0  0
    6.0705  -12.6539   26.5220 C   0  0  0  0  0  0  0  0  0  0  0  0
    7.6147  -14.4925   26.2481 C   0  0  0  0  0  0  0  0  0  0  0  0
    8.8841  -15.1529   25.8650 C   0  0  2  0  0  0  0  0  0  0  0  0
    8.9236  -15.6091   24.5199 N   0  0  0  0  0  0  0  0  0  0  0  0
    9.1815  -16.2151   26.8597 C   0  0  0  0  0  0  0  0  0  0  0  0
    9.3648  -17.4986   26.3646 O   0  0  0  0  0  0  0  0  0  0  0  0
    9.2743  -16.0288   28.0813 O   0  0  0  0  0  0  0  0  0  0  0  0
  2  1  1  6
  3  2  1  0
  4  2  1  0
  4  5  2  0
  7  6  1  6
  7  9  1  0
  8  7  1  0
  9 10  1  1
 10  4  1  0
 11  9  1  0
 12 11  2  0
 14 13  1  1
 14 15  1  0
 16 14  1  0
 17 18  1  0
 17 16  1  1
 18 11  1  0
 19 17  1  0
 20 19  1  0
 21 19  2  0
M  END
$$$$
