ATL.pdb
     RDKit          3D

 21 20  0  0  1  0  0  0  0  0999 V2000
    8.7016  -12.2441   19.1297 C   0  0  0  0  0  0  0  0  0  0  0  0
    8.7083  -13.7291   18.8450 C   0  0  2  0  0  0  0  0  0  0  0  0
    7.9966  -14.0691   17.6458 N   0  0  0  0  0  0  0  0  0  0  0  0
    8.1057  -14.4609   19.9748 C   0  0  0  0  0  0  0  0  0  0  0  0
    6.8467  -14.6494   20.0487 O   0  0  0  0  0  0  0  0  0  0  0  0
    8.2092  -17.6815   20.5939 C   0  0  0  0  0  0  0  0  0  0  0  0
    8.8136  -17.1920   21.9002 C   0  0  1  0  0  0  0  0  0  0  0  0
   10.1938  -17.3281   21.8453 O   0  0  0  0  0  0  0  0  0  0  0  0
    8.3915  -15.7435   22.0525 C   0  0  2  0  0  0  0  0  0  0  0  0
    8.9483  -14.9582   20.9888 N   0  0  0  0  0  0  0  0  0  0  0  0
    8.8053  -15.1940   23.3718 C   0  0  0  0  0  0  0  0  0  0  0  0
    9.9660  -14.7332   23.4914 O   0  0  0  0  0  0  0  0  0  0  0  0
    8.0077  -11.5688   26.0888 C   0  0  0  0  0  0  0  0  0  0  0  0
    6.9708  -12.6242   26.0076 C   0  0  2  0  0  0  0  0  0  0  0  0
    5.7359  -12.1512   26.7988 C   0  0  0  0  0  0  0  0  0  0  0  0
    7.3049  -13.9686   26.5244 C   0  0  0  0  0  0  0  0  0  0  0  0
    8.3170  -14.7751   25.8038 C   0  0  2  0  0  0  0  0  0  0  0  0
    7.9242  -15.1764   24.4985 N   0  0  0  0  0  0  0  0  0  0  0  0
    8.7239  -15.9078   26.6743 C   0  0  0  0  0  0  0  0  0  0  0  0
    9.3803  -15.5829   27.8531 O   0  0  0  0  0  0  0  0  0  0  0  0
    8.5170  -17.1022   26.4172 O   0  0  0  0  0  0  0  0  0  0  0  0
  2  1  1  1
  3  2  1  0
  4  2  1  0
  4  5  2  0
  7  6  1  6
  7  9  1  0
  8  7  1  0
  9 10  1  6
 10  4  1  0
 11  9  1  0
 12 11  2  0
 14 13  1  1
 14 15  1  0
 16 14  1  0
 17 18  1  0
 17 16  1  1
 18 11  1  0
 19 17  1  0
 20 19  1  0
 21 19  2  0
M  END
$$$$
