ATL.pdb
     RDKit          3D

 21 20  0  0  1  0  0  0  0  0999 V2000
   11.9085  -18.9072   21.7431 C   0  0  0  0  0  0  0  0  0  0  0  0
   11.4198  -17.9193   20.7078 C   0  0  2  0  0  0  0  0  0  0  0  0
   12.4586  -17.4887   19.8156 N   0  0  0  0  0  0  0  0  0  0  0  0
   10.8483  -16.7339   21.3736 C   0  0  0  0  0  0  0  0  0  0  0  0
   11.5939  -15.8249   21.8673 O   0  0  0  0  0  0  0  0  0  0  0  0
    7.0104  -13.8666   21.9407 C   0  0  0  0  0  0  0  0  0  0  0  0
    7.4368  -15.2767   21.5650 C   0  0  1  0  0  0  0  0  0  0  0  0
    7.3178  -15.4403   20.1918 O   0  0  0  0  0  0  0  0  0  0  0  0
    8.8708  -15.4308   22.0330 C   0  0  2  0  0  0  0  0  0  0  0  0
    9.4471  -16.6132   21.4604 N   0  0  0  0  0  0  0  0  0  0  0  0
    8.9540  -15.4823   23.5177 C   0  0  0  0  0  0  0  0  0  0  0  0
    9.8900  -16.1318   24.0431 O   0  0  0  0  0  0  0  0  0  0  0  0
    8.2210  -11.7562   26.6859 C   0  0  0  0  0  0  0  0  0  0  0  0
    7.0742  -12.5349   26.1623 C   0  0  2  0  0  0  0  0  0  0  0  0
    5.7793  -11.9498   26.7588 C   0  0  0  0  0  0  0  0  0  0  0  0
    7.0375  -13.9876   26.4352 C   0  0  0  0  0  0  0  0  0  0  0  0
    8.0372  -14.8595   25.7761 C   0  0  2  0  0  0  0  0  0  0  0  0
    8.0046  -14.8176   24.3562 N   0  0  0  0  0  0  0  0  0  0  0  0
    7.9055  -16.2308   26.3314 C   0  0  0  0  0  0  0  0  0  0  0  0
    8.6409  -16.5135   27.4740 O   0  0  0  0  0  0  0  0  0  0  0  0
    7.1928  -17.1208   25.8461 O   0  0  0  0  0  0  0  0  0  0  0  0
  2  1  1  1
  3  2  1  0
  4  2  1  0
  4  5  2  0
  7  6  1  6
  7  9  1  0
  8  7  1  0
  9 10  1  6
 10  4  1  0
 11  9  1  0
 12 11  2  0
 14 13  1  1
 14 15  1  0
 16 14  1  0
 17 18  1  0
 17 16  1  1
 18 11  1  0
 19 17  1  0
 20 19  1  0
 21 19  2  0
M  END
$$$$
