ATL.pdb
     RDKit          3D

 21 20  0  0  1  0  0  0  0  0999 V2000
    6.5023  -19.1955   25.2423 C   0  0  0  0  0  0  0  0  0  0  0  0
    7.0674  -19.7051   23.9356 C   0  0  2  0  0  0  0  0  0  0  0  0
    7.7145  -20.9795   24.0684 N   0  0  0  0  0  0  0  0  0  0  0  0
    8.0396  -18.7363   23.3959 C   0  0  0  0  0  0  0  0  0  0  0  0
    9.2883  -18.8479   23.6291 O   0  0  0  0  0  0  0  0  0  0  0  0
    7.8519  -17.3550   19.7796 C   0  0  0  0  0  0  0  0  0  0  0  0
    7.9527  -16.1818   20.7413 C   0  0  1  0  0  0  0  0  0  0  0  0
    6.6958  -15.6169   20.9073 O   0  0  0  0  0  0  0  0  0  0  0  0
    8.5016  -16.7378   22.0409 C   0  0  2  0  0  0  0  0  0  0  0  0
    7.5678  -17.6684   22.6069 N   0  0  0  0  0  0  0  0  0  0  0  0
    8.8009  -15.6510   23.0120 C   0  0  0  0  0  0  0  0  0  0  0  0
    9.6284  -14.7665   22.6851 O   0  0  0  0  0  0  0  0  0  0  0  0
    7.3818  -12.8322   27.7455 C   0  0  0  0  0  0  0  0  0  0  0  0
    7.3540  -12.4725   26.3082 C   0  0  2  0  0  0  0  0  0  0  0  0
    6.1322  -11.5669   26.0597 C   0  0  0  0  0  0  0  0  0  0  0  0
    7.2669  -13.5678   25.3189 C   0  0  0  0  0  0  0  0  0  0  0  0
    8.3870  -14.5327   25.2272 C   0  0  2  0  0  0  0  0  0  0  0  0
    8.1768  -15.5866   24.2976 N   0  0  0  0  0  0  0  0  0  0  0  0
    8.7138  -15.0069   26.5963 C   0  0  0  0  0  0  0  0  0  0  0  0
    9.5795  -14.2166   27.3393 O   0  0  0  0  0  0  0  0  0  0  0  0
    8.2690  -16.0452   27.1060 O   0  0  0  0  0  0  0  0  0  0  0  0
  2  1  1  1
  3  2  1  0
  4  2  1  0
  4  5  2  0
  7  6  1  6
  7  9  1  0
  8  7  1  0
  9 10  1  1
 10  4  1  0
 11  9  1  0
 12 11  2  0
 14 13  1  1
 14 15  1  0
 16 14  1  0
 17 18  1  0
 17 16  1  1
 18 11  1  0
 19 17  1  0
 20 19  1  0
 21 19  2  0
M  END
$$$$
