ATL.pdb
     RDKit          3D

 21 20  0  0  1  0  0  0  0  0999 V2000
    8.9007  -12.3260   18.7000 C   0  0  0  0  0  0  0  0  0  0  0  0
    8.6602  -13.7928   18.4225 C   0  0  2  0  0  0  0  0  0  0  0  0
    7.7140  -14.0114   17.3654 N   0  0  0  0  0  0  0  0  0  0  0  0
    8.1685  -14.4617   19.6414 C   0  0  0  0  0  0  0  0  0  0  0  0
    6.9243  -14.5121   19.9159 O   0  0  0  0  0  0  0  0  0  0  0  0
    8.7720  -18.0239   22.7239 C   0  0  0  0  0  0  0  0  0  0  0  0
    9.3451  -17.2131   21.5727 C   0  0  1  0  0  0  0  0  0  0  0  0
    9.1263  -17.8913   20.3816 O   0  0  0  0  0  0  0  0  0  0  0  0
    8.6399  -15.8710   21.5998 C   0  0  2  0  0  0  0  0  0  0  0  0
    9.1022  -15.0544   20.5146 N   0  0  0  0  0  0  0  0  0  0  0  0
    8.8506  -15.1739   22.8973 C   0  0  0  0  0  0  0  0  0  0  0  0
   10.0023  -14.7614   23.1757 O   0  0  0  0  0  0  0  0  0  0  0  0
    5.5574  -12.3126   27.3927 C   0  0  0  0  0  0  0  0  0  0  0  0
    6.8242  -12.8053   26.8027 C   0  0  2  0  0  0  0  0  0  0  0  0
    7.7435  -11.5945   26.5501 C   0  0  0  0  0  0  0  0  0  0  0  0
    6.7543  -13.5470   25.5255 C   0  0  0  0  0  0  0  0  0  0  0  0
    7.9462  -14.3038   25.0776 C   0  0  2  0  0  0  0  0  0  0  0  0
    7.7858  -14.9624   23.8288 N   0  0  0  0  0  0  0  0  0  0  0  0
    8.3688  -15.2104   26.1756 C   0  0  0  0  0  0  0  0  0  0  0  0
    7.7415  -16.4468   26.2388 O   0  0  0  0  0  0  0  0  0  0  0  0
    9.2307  -14.9356   27.0224 O   0  0  0  0  0  0  0  0  0  0  0  0
  2  1  1  1
  3  2  1  0
  4  2  1  0
  4  5  2  0
  7  6  1  1
  7  9  1  0
  8  7  1  0
  9 10  1  6
 10  4  1  0
 11  9  1  0
 12 11  2  0
 14 13  1  6
 14 15  1  0
 16 14  1  0
 17 18  1  0
 17 16  1  1
 18 11  1  0
 19 17  1  0
 20 19  1  0
 21 19  2  0
M  END
$$$$
