HSL.pdb
     RDKit          3D

 25 25  0  0  1  0  0  0  0  0999 V2000
    8.4514  -18.7668   18.6986 N   0  0  0  0  0  0  0  0  0  0  0  0
    9.2067  -17.9501   19.6236 C   0  0  1  0  0  0  0  0  0  0  0  0
    9.8971  -16.8411   18.8532 C   0  0  0  0  0  0  0  0  0  0  0  0
   11.2195  -17.3074   18.3849 C   0  0  0  0  0  0  0  0  0  0  0  0
   12.1934  -17.9264   19.1574 C   0  0  0  0  0  0  0  0  0  0  0  0
   13.2689  -18.1903   18.3633 N   0  0  0  0  0  0  0  0  0  0  0  0
   12.9687  -17.7494   17.1441 C   0  0  0  0  0  0  0  0  0  0  0  0
   11.7329  -17.2150   17.1489 N   0  0  0  0  0  0  0  0  0  0  0  0
    8.4196  -17.3916   20.7237 C   0  0  0  0  0  0  0  0  0  0  0  0
    7.4040  -16.6888   20.3686 O   0  0  0  0  0  0  0  0  0  0  0  0
    7.7721  -19.0125   24.2268 O   0  0  0  0  0  0  0  0  0  0  0  0
    6.8957  -18.1221   23.6074 C   0  0  0  0  0  0  0  0  0  0  0  0
    7.7225  -16.9738   23.0558 C   0  0  2  0  0  0  0  0  0  0  0  0
    8.6442  -17.5344   22.0972 N   0  0  0  0  0  0  0  0  0  0  0  0
    8.4114  -16.2259   24.1135 C   0  0  0  0  0  0  0  0  0  0  0  0
    9.6680  -16.3748   24.3301 O   0  0  0  0  0  0  0  0  0  0  0  0
    7.7156  -12.2045   24.7980 C   0  0  0  0  0  0  0  0  0  0  0  0
    7.6336  -12.3370   26.3045 C   0  0  1  0  0  0  0  0  0  0  0  0
    6.4359  -11.5160   26.7714 C   0  0  0  0  0  0  0  0  0  0  0  0
    7.4187  -13.7315   26.7775 C   0  0  0  0  0  0  0  0  0  0  0  0
    8.3176  -14.7576   26.1512 C   0  0  2  0  0  0  0  0  0  0  0  0
    7.7133  -15.3091   24.9391 N   0  0  0  0  0  0  0  0  0  0  0  0
    8.7046  -15.8578   27.0797 C   0  0  0  0  0  0  0  0  0  0  0  0
    9.7920  -15.8037   27.9258 O   0  0  0  0  0  0  0  0  0  0  0  0
    8.0056  -16.9281   27.1157 O   0  0  0  0  0  0  0  0  0  0  0  0
  2  1  1  6
  3  2  1  0
  4  3  1  0
  5  4  2  0
  6  5  1  0
  7  6  1  0
  7  8  2  0
  8  4  1  0
  9  2  1  0
  9 10  2  0
 12 11  1  0
 13 12  1  1
 13 14  1  0
 14  9  1  0
 15 13  1  0
 16 15  2  0
 18 19  1  6
 18 17  1  0
 20 18  1  0
 21 22  1  0
 21 20  1  1
 22 15  1  0
 23 21  1  0
 24 23  1  0
 25 23  2  0
M  END
$$$$
