HSL.pdb
     RDKit          3D

 25 25  0  0  1  0  0  0  0  0999 V2000
    8.0223  -18.4846   18.5293 N   0  0  0  0  0  0  0  0  0  0  0  0
    8.7829  -17.6304   19.4153 C   0  0  1  0  0  0  0  0  0  0  0  0
    9.2438  -16.4069   18.6465 C   0  0  0  0  0  0  0  0  0  0  0  0
   10.3248  -16.7835   17.7111 C   0  0  0  0  0  0  0  0  0  0  0  0
   11.6539  -17.0138   18.0411 C   0  0  0  0  0  0  0  0  0  0  0  0
   12.3325  -17.3248   16.9011 N   0  0  0  0  0  0  0  0  0  0  0  0
   11.4528  -17.2874   15.9032 C   0  0  0  0  0  0  0  0  0  0  0  0
   10.2382  -16.9614   16.3842 N   0  0  0  0  0  0  0  0  0  0  0  0
    8.0732  -17.2299   20.6308 C   0  0  0  0  0  0  0  0  0  0  0  0
    6.8646  -16.8310   20.4529 O   0  0  0  0  0  0  0  0  0  0  0  0
    8.1204  -18.9560   24.0145 O   0  0  0  0  0  0  0  0  0  0  0  0
    7.0791  -18.1331   23.5866 C   0  0  0  0  0  0  0  0  0  0  0  0
    7.6970  -16.8567   23.0429 C   0  0  2  0  0  0  0  0  0  0  0  0
    8.5542  -17.2326   21.9446 N   0  0  0  0  0  0  0  0  0  0  0  0
    8.4185  -16.1042   24.0754 C   0  0  0  0  0  0  0  0  0  0  0  0
    9.6998  -16.1294   24.1507 O   0  0  0  0  0  0  0  0  0  0  0  0
    5.9119  -11.7465   26.6631 C   0  0  0  0  0  0  0  0  0  0  0  0
    6.8601  -12.6785   25.9377 C   0  0  1  0  0  0  0  0  0  0  0  0
    7.9626  -11.8219   25.3232 C   0  0  0  0  0  0  0  0  0  0  0  0
    7.5227  -13.6747   26.8226 C   0  0  0  0  0  0  0  0  0  0  0  0
    8.4304  -14.6411   26.1189 C   0  0  2  0  0  0  0  0  0  0  0  0
    7.7261  -15.3199   25.0317 N   0  0  0  0  0  0  0  0  0  0  0  0
    9.0576  -15.6412   27.0292 C   0  0  0  0  0  0  0  0  0  0  0  0
   10.1927  -15.3986   27.7735 O   0  0  0  0  0  0  0  0  0  0  0  0
    8.5345  -16.8022   27.1472 O   0  0  0  0  0  0  0  0  0  0  0  0
  2  1  1  6
  3  2  1  0
  4  3  1  0
  5  4  2  0
  6  5  1  0
  7  6  1  0
  7  8  2  0
  8  4  1  0
  9  2  1  0
  9 10  2  0
 12 11  1  0
 13 12  1  1
 13 14  1  0
 14  9  1  0
 15 13  1  0
 16 15  2  0
 18 19  1  1
 18 17  1  0
 20 18  1  0
 21 22  1  0
 21 20  1  1
 22 15  1  0
 23 21  1  0
 24 23  1  0
 25 23  2  0
M  END
$$$$
