HSL.pdb
     RDKit          3D

 25 25  0  0  1  0  0  0  0  0999 V2000
    8.5856  -17.5597   18.2996 N   0  0  0  0  0  0  0  0  0  0  0  0
    8.6882  -16.5302   19.3109 C   0  0  1  0  0  0  0  0  0  0  0  0
    7.7582  -15.3880   18.9490 C   0  0  0  0  0  0  0  0  0  0  0  0
    8.4970  -14.1086   18.9974 C   0  0  0  0  0  0  0  0  0  0  0  0
    9.8430  -13.9478   19.2992 C   0  0  0  0  0  0  0  0  0  0  0  0
   10.1389  -12.6185   19.2505 N   0  0  0  0  0  0  0  0  0  0  0  0
    9.0149  -11.9821   18.9302 C   0  0  0  0  0  0  0  0  0  0  0  0
    8.0190  -12.8748   18.7756 N   0  0  0  0  0  0  0  0  0  0  0  0
    8.4230  -16.9895   20.6748 C   0  0  0  0  0  0  0  0  0  0  0  0
    7.1970  -17.2821   20.9254 O   0  0  0  0  0  0  0  0  0  0  0  0
   10.9917  -18.2730   23.5402 O   0  0  0  0  0  0  0  0  0  0  0  0
    9.6267  -18.5437   23.6290 C   0  0  0  0  0  0  0  0  0  0  0  0
    8.8835  -17.3404   23.0757 C   0  0  2  0  0  0  0  0  0  0  0  0
    9.3395  -17.1443   21.7206 N   0  0  0  0  0  0  0  0  0  0  0  0
    9.0716  -16.1423   23.9015 C   0  0  0  0  0  0  0  0  0  0  0  0
   10.0646  -15.3501   23.7167 O   0  0  0  0  0  0  0  0  0  0  0  0
    8.4605  -11.5888   26.3349 C   0  0  0  0  0  0  0  0  0  0  0  0
    7.4133  -12.5861   26.7853 C   0  0  1  0  0  0  0  0  0  0  0  0
    6.0733  -11.8581   26.8197 C   0  0  0  0  0  0  0  0  0  0  0  0
    7.2551  -13.7500   25.8716 C   0  0  0  0  0  0  0  0  0  0  0  0
    8.4147  -14.7029   25.8542 C   0  0  2  0  0  0  0  0  0  0  0  0
    8.1620  -15.8142   24.9379 N   0  0  0  0  0  0  0  0  0  0  0  0
    8.7810  -15.2212   27.2031 C   0  0  0  0  0  0  0  0  0  0  0  0
    9.6299  -14.5701   28.0731 O   0  0  0  0  0  0  0  0  0  0  0  0
    8.2949  -16.3338   27.6048 O   0  0  0  0  0  0  0  0  0  0  0  0
  2  1  1  6
  3  2  1  0
  4  3  1  0
  5  4  2  0
  6  5  1  0
  7  6  1  0
  7  8  2  0
  8  4  1  0
  9  2  1  0
  9 10  2  0
 12 11  1  0
 13 12  1  1
 13 14  1  0
 14  9  1  0
 15 13  1  0
 16 15  2  0
 18 19  1  6
 18 17  1  0
 20 18  1  0
 21 22  1  0
 21 20  1  1
 22 15  1  0
 23 21  1  0
 24 23  1  0
 25 23  2  0
M  END
$$$$
