HSL.pdb
     RDKit          3D

 25 25  0  0  1  0  0  0  0  0999 V2000
   11.6667  -16.3920   18.3386 N   0  0  0  0  0  0  0  0  0  0  0  0
   11.9024  -15.9028   19.6796 C   0  0  1  0  0  0  0  0  0  0  0  0
   12.3819  -14.4659   19.6040 C   0  0  0  0  0  0  0  0  0  0  0  0
   13.8299  -14.4382   19.3080 C   0  0  0  0  0  0  0  0  0  0  0  0
   14.8512  -14.8319   20.1627 C   0  0  0  0  0  0  0  0  0  0  0  0
   16.0413  -14.6436   19.5264 N   0  0  0  0  0  0  0  0  0  0  0  0
   15.7638  -14.1509   18.3217 C   0  0  0  0  0  0  0  0  0  0  0  0
   14.4307  -14.0240   18.1821 N   0  0  0  0  0  0  0  0  0  0  0  0
   10.7505  -16.0082   20.5762 C   0  0  0  0  0  0  0  0  0  0  0  0
    9.7353  -15.2909   20.2499 O   0  0  0  0  0  0  0  0  0  0  0  0
   10.2908  -18.5567   23.7732 O   0  0  0  0  0  0  0  0  0  0  0  0
    9.1901  -18.2111   22.9898 C   0  0  0  0  0  0  0  0  0  0  0  0
    9.4071  -16.7920   22.4945 C   0  0  2  0  0  0  0  0  0  0  0  0
   10.6313  -16.7899   21.7303 N   0  0  0  0  0  0  0  0  0  0  0  0
    9.4384  -15.8185   23.5918 C   0  0  0  0  0  0  0  0  0  0  0  0
   10.5434  -15.4596   24.1381 O   0  0  0  0  0  0  0  0  0  0  0  0
    7.8190  -11.5779   26.6117 C   0  0  0  0  0  0  0  0  0  0  0  0
    6.8546  -12.7456   26.5915 C   0  0  1  0  0  0  0  0  0  0  0  0
    5.4413  -12.1717   26.5994 C   0  0  0  0  0  0  0  0  0  0  0  0
    6.9709  -13.6042   25.3817 C   0  0  0  0  0  0  0  0  0  0  0  0
    8.2527  -14.3781   25.2759 C   0  0  2  0  0  0  0  0  0  0  0  0
    8.2466  -15.2368   24.0922 N   0  0  0  0  0  0  0  0  0  0  0  0
    8.5669  -15.1807   26.4922 C   0  0  0  0  0  0  0  0  0  0  0  0
    8.0448  -16.4317   26.7445 O   0  0  0  0  0  0  0  0  0  0  0  0
    9.3647  -14.7067   27.3721 O   0  0  0  0  0  0  0  0  0  0  0  0
  2  1  1  6
  3  2  1  0
  4  3  1  0
  5  4  2  0
  6  5  1  0
  7  6  1  0
  7  8  2  0
  8  4  1  0
  9  2  1  0
  9 10  2  0
 12 11  1  0
 13 12  1  1
 13 14  1  0
 14  9  1  0
 15 13  1  0
 16 15  2  0
 18 19  1  6
 18 17  1  0
 20 18  1  0
 21 22  1  0
 21 20  1  1
 22 15  1  0
 23 21  1  0
 24 23  1  0
 25 23  2  0
M  END
$$$$
