HSL.pdb
     RDKit          3D

 25 25  0  0  1  0  0  0  0  0999 V2000
    7.4006  -17.3720   19.7717 N   0  0  0  0  0  0  0  0  0  0  0  0
    7.9340  -16.2956   20.5779 C   0  0  1  0  0  0  0  0  0  0  0  0
    7.1234  -15.0393   20.3230 C   0  0  0  0  0  0  0  0  0  0  0  0
    7.6822  -14.3117   19.1640 C   0  0  0  0  0  0  0  0  0  0  0  0
    8.7807  -14.6943   18.4053 C   0  0  0  0  0  0  0  0  0  0  0  0
    8.9837  -13.7557   17.4385 N   0  0  0  0  0  0  0  0  0  0  0  0
    8.0436  -12.8270   17.5956 C   0  0  0  0  0  0  0  0  0  0  0  0
    7.2538  -13.1555   18.6353 N   0  0  0  0  0  0  0  0  0  0  0  0
    7.9917  -16.5815   22.0121 C   0  0  0  0  0  0  0  0  0  0  0  0
    6.8527  -16.7479   22.5835 O   0  0  0  0  0  0  0  0  0  0  0  0
   11.1409  -17.9435   24.1712 O   0  0  0  0  0  0  0  0  0  0  0  0
    9.8183  -18.2078   24.5257 C   0  0  0  0  0  0  0  0  0  0  0  0
    9.0063  -16.9585   24.2319 C   0  0  2  0  0  0  0  0  0  0  0  0
    9.1293  -16.6930   22.8187 N   0  0  0  0  0  0  0  0  0  0  0  0
    9.4291  -15.8152   25.0484 C   0  0  0  0  0  0  0  0  0  0  0  0
   10.4026  -15.0590   24.6897 O   0  0  0  0  0  0  0  0  0  0  0  0
    5.9722  -12.3414   27.1386 C   0  0  0  0  0  0  0  0  0  0  0  0
    7.2041  -13.0340   26.5941 C   0  0  1  0  0  0  0  0  0  0  0  0
    8.0225  -11.9883   25.8434 C   0  0  0  0  0  0  0  0  0  0  0  0
    8.0877  -13.6091   27.6443 C   0  0  0  0  0  0  0  0  0  0  0  0
    9.2438  -14.4146   27.1270 C   0  0  2  0  0  0  0  0  0  0  0  0
    8.7778  -15.5024   26.2679 N   0  0  0  0  0  0  0  0  0  0  0  0
   10.1261  -14.9504   28.2026 C   0  0  0  0  0  0  0  0  0  0  0  0
   10.3585  -16.2938   28.4091 O   0  0  0  0  0  0  0  0  0  0  0  0
   10.7159  -14.1400   28.9969 O   0  0  0  0  0  0  0  0  0  0  0  0
  2  1  1  6
  3  2  1  0
  4  3  1  0
  5  4  2  0
  6  5  1  0
  7  6  1  0
  7  8  2  0
  8  4  1  0
  9  2  1  0
  9 10  2  0
 12 11  1  0
 13 12  1  1
 13 14  1  0
 14  9  1  0
 15 13  1  0
 16 15  2  0
 18 19  1  1
 18 17  1  0
 20 18  1  0
 21 22  1  0
 21 20  1  1
 22 15  1  0
 23 21  1  0
 24 23  1  0
 25 23  2  0
M  END
$$$$
