HSL.pdb
     RDKit          3D

 25 25  0  0  1  0  0  0  0  0999 V2000
    8.1229  -17.3510   18.5689 N   0  0  0  0  0  0  0  0  0  0  0  0
    8.2802  -16.2100   19.4444 C   0  0  1  0  0  0  0  0  0  0  0  0
    7.3301  -15.1136   19.0021 C   0  0  0  0  0  0  0  0  0  0  0  0
    7.7974  -14.5338   17.7251 C   0  0  0  0  0  0  0  0  0  0  0  0
    8.9624  -14.8692   17.0478 C   0  0  0  0  0  0  0  0  0  0  0  0
    9.0399  -14.1064   15.9213 N   0  0  0  0  0  0  0  0  0  0  0  0
    7.9607  -13.3280   15.9046 C   0  0  0  0  0  0  0  0  0  0  0  0
    7.2054  -13.5801   16.9903 N   0  0  0  0  0  0  0  0  0  0  0  0
    8.0915  -16.5038   20.8656 C   0  0  0  0  0  0  0  0  0  0  0  0
    6.8680  -16.5798   21.2513 O   0  0  0  0  0  0  0  0  0  0  0  0
   10.7176  -18.2368   23.2783 O   0  0  0  0  0  0  0  0  0  0  0  0
    9.3547  -18.3370   23.5558 C   0  0  0  0  0  0  0  0  0  0  0  0
    8.7154  -17.0057   23.2018 C   0  0  2  0  0  0  0  0  0  0  0  0
    9.0775  -16.7088   21.8368 N   0  0  0  0  0  0  0  0  0  0  0  0
    9.1113  -15.9357   24.1244 C   0  0  0  0  0  0  0  0  0  0  0  0
   10.1962  -15.2709   23.9537 O   0  0  0  0  0  0  0  0  0  0  0  0
    5.7856  -12.1707   26.4533 C   0  0  0  0  0  0  0  0  0  0  0  0
    6.9614  -12.9229   25.8656 C   0  0  1  0  0  0  0  0  0  0  0  0
    8.0123  -11.8910   25.4686 C   0  0  0  0  0  0  0  0  0  0  0  0
    7.6116  -13.8655   26.8160 C   0  0  0  0  0  0  0  0  0  0  0  0
    8.7666  -14.6388   26.2495 C   0  0  2  0  0  0  0  0  0  0  0  0
    8.3091  -15.5954   25.2424 N   0  0  0  0  0  0  0  0  0  0  0  0
    9.5846  -15.3330   27.2846 C   0  0  0  0  0  0  0  0  0  0  0  0
   10.5156  -14.7006   28.0811 O   0  0  0  0  0  0  0  0  0  0  0  0
    9.4362  -16.5900   27.4673 O   0  0  0  0  0  0  0  0  0  0  0  0
  2  1  1  6
  3  2  1  0
  4  3  1  0
  5  4  2  0
  6  5  1  0
  7  6  1  0
  7  8  2  0
  8  4  1  0
  9  2  1  0
  9 10  2  0
 12 11  1  0
 13 12  1  1
 13 14  1  0
 14  9  1  0
 15 13  1  0
 16 15  2  0
 18 19  1  1
 18 17  1  0
 20 18  1  0
 21 22  1  0
 21 20  1  1
 22 15  1  0
 23 21  1  0
 24 23  1  0
 25 23  2  0
M  END
$$$$
