HSL.pdb
     RDKit          3D

 25 25  0  0  1  0  0  0  0  0999 V2000
    6.7821  -16.3377   20.0694 N   0  0  0  0  0  0  0  0  0  0  0  0
    8.0176  -15.9245   20.6986 C   0  0  1  0  0  0  0  0  0  0  0  0
    8.0777  -14.4091   20.7209 C   0  0  0  0  0  0  0  0  0  0  0  0
    8.0900  -13.8900   19.3369 C   0  0  0  0  0  0  0  0  0  0  0  0
    7.0940  -13.1326   18.7343 C   0  0  0  0  0  0  0  0  0  0  0  0
    7.4743  -12.8624   17.4540 N   0  0  0  0  0  0  0  0  0  0  0  0
    8.6629  -13.4331   17.2734 C   0  0  0  0  0  0  0  0  0  0  0  0
    9.0416  -14.0554   18.4056 N   0  0  0  0  0  0  0  0  0  0  0  0
    8.2236  -16.4616   22.0443 C   0  0  0  0  0  0  0  0  0  0  0  0
    7.2393  -16.3006   22.8547 O   0  0  0  0  0  0  0  0  0  0  0  0
   11.2541  -19.0034   23.5578 O   0  0  0  0  0  0  0  0  0  0  0  0
    9.8863  -19.0575   23.8243 C   0  0  0  0  0  0  0  0  0  0  0  0
    9.3752  -17.6290   23.8909 C   0  0  2  0  0  0  0  0  0  0  0  0
    9.3535  -17.1209   22.5404 N   0  0  0  0  0  0  0  0  0  0  0  0
   10.1822  -16.7904   24.7845 C   0  0  0  0  0  0  0  0  0  0  0  0
   10.8212  -15.7665   24.3470 O   0  0  0  0  0  0  0  0  0  0  0  0
   10.5518  -13.0093   27.8073 C   0  0  0  0  0  0  0  0  0  0  0  0
    9.2905  -13.8447   27.8785 C   0  0  1  0  0  0  0  0  0  0  0  0
    8.1215  -12.9415   27.4985 C   0  0  0  0  0  0  0  0  0  0  0  0
    9.2757  -14.9978   26.9378 C   0  0  0  0  0  0  0  0  0  0  0  0
   10.3525  -16.0174   27.1699 C   0  0  2  0  0  0  0  0  0  0  0  0
   10.2877  -17.0806   26.1679 N   0  0  0  0  0  0  0  0  0  0  0  0
   10.3356  -16.6012   28.5415 C   0  0  0  0  0  0  0  0  0  0  0  0
   11.3524  -16.4401   29.4588 O   0  0  0  0  0  0  0  0  0  0  0  0
    9.3316  -17.2980   28.9182 O   0  0  0  0  0  0  0  0  0  0  0  0
  2  1  1  1
  3  2  1  0
  4  3  1  0
  5  4  2  0
  6  5  1  0
  7  6  1  0
  7  8  2  0
  8  4  1  0
  9  2  1  0
  9 10  2  0
 12 11  1  0
 13 12  1  6
 13 14  1  0
 14  9  1  0
 15 13  1  0
 16 15  2  0
 18 19  1  6
 18 17  1  0
 20 18  1  0
 21 22  1  0
 21 20  1  1
 22 15  1  0
 23 21  1  0
 24 23  1  0
 25 23  2  0
M  END
$$$$
