HSL.pdb
     RDKit          3D

 25 25  0  0  1  0  0  0  0  0999 V2000
   10.9642  -16.2831   18.3821 N   0  0  0  0  0  0  0  0  0  0  0  0
   11.3232  -15.7886   19.6934 C   0  0  1  0  0  0  0  0  0  0  0  0
   11.8894  -14.3884   19.5552 C   0  0  0  0  0  0  0  0  0  0  0  0
   13.3462  -14.4608   19.3153 C   0  0  0  0  0  0  0  0  0  0  0  0
   14.2920  -15.0212   20.1639 C   0  0  0  0  0  0  0  0  0  0  0  0
   15.5207  -14.8798   19.5919 N   0  0  0  0  0  0  0  0  0  0  0  0
   15.3390  -14.2541   18.4315 C   0  0  0  0  0  0  0  0  0  0  0  0
   14.0288  -13.9978   18.2571 N   0  0  0  0  0  0  0  0  0  0  0  0
   10.2314  -15.8020   20.6679 C   0  0  0  0  0  0  0  0  0  0  0  0
    9.1544  -15.2106   20.2915 O   0  0  0  0  0  0  0  0  0  0  0  0
    9.5276  -18.5812   23.3448 O   0  0  0  0  0  0  0  0  0  0  0  0
    8.5126  -17.7830   22.8182 C   0  0  0  0  0  0  0  0  0  0  0  0
    9.0351  -16.3585   22.7555 C   0  0  2  0  0  0  0  0  0  0  0  0
   10.2277  -16.3775   21.9431 N   0  0  0  0  0  0  0  0  0  0  0  0
    9.2826  -15.7975   24.0885 C   0  0  0  0  0  0  0  0  0  0  0  0
   10.4722  -15.6851   24.5579 O   0  0  0  0  0  0  0  0  0  0  0  0
    5.6331  -12.2012   26.4083 C   0  0  0  0  0  0  0  0  0  0  0  0
    6.9210  -12.8729   25.9792 C   0  0  1  0  0  0  0  0  0  0  0  0
    8.0527  -11.8738   26.1972 C   0  0  0  0  0  0  0  0  0  0  0  0
    7.2570  -14.0919   26.7638 C   0  0  0  0  0  0  0  0  0  0  0  0
    8.4479  -14.8573   26.2647 C   0  0  2  0  0  0  0  0  0  0  0  0
    8.2148  -15.3583   24.9107 N   0  0  0  0  0  0  0  0  0  0  0  0
    8.8585  -15.9739   27.1629 C   0  0  0  0  0  0  0  0  0  0  0  0
    9.6784  -15.8166   28.2604 O   0  0  0  0  0  0  0  0  0  0  0  0
    8.4417  -17.1596   26.9266 O   0  0  0  0  0  0  0  0  0  0  0  0
  2  1  1  6
  3  2  1  0
  4  3  1  0
  5  4  2  0
  6  5  1  0
  7  6  1  0
  7  8  2  0
  8  4  1  0
  9  2  1  0
  9 10  2  0
 12 11  1  0
 13 12  1  1
 13 14  1  0
 14  9  1  0
 15 13  1  0
 16 15  2  0
 18 19  1  1
 18 17  1  0
 20 18  1  0
 21 22  1  0
 21 20  1  1
 22 15  1  0
 23 21  1  0
 24 23  1  0
 25 23  2  0
M  END
$$$$
