HSL.pdb
     RDKit          3D

 25 25  0  0  1  0  0  0  0  0999 V2000
   11.7075  -16.5684   18.4298 N   0  0  0  0  0  0  0  0  0  0  0  0
   11.9165  -15.9235   19.7079 C   0  0  1  0  0  0  0  0  0  0  0  0
   12.3076  -14.4771   19.4730 C   0  0  0  0  0  0  0  0  0  0  0  0
   13.7185  -14.4063   19.0373 C   0  0  0  0  0  0  0  0  0  0  0  0
   14.8371  -14.5364   19.8500 C   0  0  0  0  0  0  0  0  0  0  0  0
   15.9498  -14.3992   19.0754 N   0  0  0  0  0  0  0  0  0  0  0  0
   15.5320  -14.1917   17.8291 C   0  0  0  0  0  0  0  0  0  0  0  0
   14.1860  -14.1946   17.7977 N   0  0  0  0  0  0  0  0  0  0  0  0
   10.7753  -16.0000   20.6209 C   0  0  0  0  0  0  0  0  0  0  0  0
    9.7126  -15.3984   20.2208 O   0  0  0  0  0  0  0  0  0  0  0  0
   10.3826  -18.5101   23.7858 O   0  0  0  0  0  0  0  0  0  0  0  0
    9.2673  -18.1309   23.0393 C   0  0  0  0  0  0  0  0  0  0  0  0
    9.4750  -16.6910   22.6036 C   0  0  2  0  0  0  0  0  0  0  0  0
   10.7115  -16.6448   21.8610 N   0  0  0  0  0  0  0  0  0  0  0  0
    9.4761  -15.7610   23.7383 C   0  0  0  0  0  0  0  0  0  0  0  0
   10.5668  -15.4152   24.3204 O   0  0  0  0  0  0  0  0  0  0  0  0
    7.6666  -11.6988   26.9757 C   0  0  0  0  0  0  0  0  0  0  0  0
    6.7839  -12.9255   26.8766 C   0  0  1  0  0  0  0  0  0  0  0  0
    5.3349  -12.4523   26.9354 C   0  0  0  0  0  0  0  0  0  0  0  0
    6.9446  -13.6843   25.6066 C   0  0  0  0  0  0  0  0  0  0  0  0
    8.2369  -14.4370   25.4786 C   0  0  2  0  0  0  0  0  0  0  0  0
    8.2696  -15.2085   24.2366 N   0  0  0  0  0  0  0  0  0  0  0  0
    8.5294  -15.3221   26.6420 C   0  0  0  0  0  0  0  0  0  0  0  0
    9.3940  -14.9895   27.6634 O   0  0  0  0  0  0  0  0  0  0  0  0
    7.9598  -16.4641   26.7248 O   0  0  0  0  0  0  0  0  0  0  0  0
  2  1  1  6
  3  2  1  0
  4  3  1  0
  5  4  2  0
  6  5  1  0
  7  6  1  0
  7  8  2  0
  8  4  1  0
  9  2  1  0
  9 10  2  0
 12 11  1  0
 13 12  1  1
 13 14  1  0
 14  9  1  0
 15 13  1  0
 16 15  2  0
 18 19  1  6
 18 17  1  0
 20 18  1  0
 21 22  1  0
 21 20  1  1
 22 15  1  0
 23 21  1  0
 24 23  1  0
 25 23  2  0
M  END
$$$$
