HSL.pdb
     RDKit          3D

 25 25  0  0  1  0  0  0  0  0999 V2000
    7.2242  -16.5032   18.5054 N   0  0  0  0  0  0  0  0  0  0  0  0
    8.2080  -15.8463   19.3383 C   0  0  1  0  0  0  0  0  0  0  0  0
    8.0454  -14.3444   19.2036 C   0  0  0  0  0  0  0  0  0  0  0  0
    8.3285  -13.9349   17.8117 C   0  0  0  0  0  0  0  0  0  0  0  0
    7.4417  -13.3153   16.9408 C   0  0  0  0  0  0  0  0  0  0  0  0
    8.0767  -13.1132   15.7521 N   0  0  0  0  0  0  0  0  0  0  0  0
    9.3114  -13.5914   15.8854 C   0  0  0  0  0  0  0  0  0  0  0  0
    9.4714  -14.0891   17.1261 N   0  0  0  0  0  0  0  0  0  0  0  0
    8.1696  -16.2376   20.7479 C   0  0  0  0  0  0  0  0  0  0  0  0
    7.0143  -16.1628   21.3057 O   0  0  0  0  0  0  0  0  0  0  0  0
   11.3105  -17.5083   23.1478 O   0  0  0  0  0  0  0  0  0  0  0  0
   10.0461  -18.0781   23.2938 C   0  0  0  0  0  0  0  0  0  0  0  0
    9.0208  -17.0182   22.9309 C   0  0  2  0  0  0  0  0  0  0  0  0
    9.2322  -16.6779   21.5445 N   0  0  0  0  0  0  0  0  0  0  0  0
    9.1004  -15.8441   23.8071 C   0  0  0  0  0  0  0  0  0  0  0  0
    9.9224  -14.8865   23.5715 O   0  0  0  0  0  0  0  0  0  0  0  0
    7.6500  -11.5520   26.5617 C   0  0  0  0  0  0  0  0  0  0  0  0
    6.9353  -12.8182   26.9860 C   0  0  1  0  0  0  0  0  0  0  0  0
    5.4626  -12.4700   27.1773 C   0  0  0  0  0  0  0  0  0  0  0  0
    6.9985  -13.9134   25.9805 C   0  0  0  0  0  0  0  0  0  0  0  0
    8.3462  -14.5568   25.8297 C   0  0  2  0  0  0  0  0  0  0  0  0
    8.2712  -15.7229   24.9504 N   0  0  0  0  0  0  0  0  0  0  0  0
    8.9771  -14.9308   27.1276 C   0  0  0  0  0  0  0  0  0  0  0  0
    9.1592  -16.2313   27.5480 O   0  0  0  0  0  0  0  0  0  0  0  0
    9.3833  -14.0124   27.9194 O   0  0  0  0  0  0  0  0  0  0  0  0
  2  1  1  6
  3  2  1  0
  4  3  1  0
  5  4  2  0
  6  5  1  0
  7  6  1  0
  7  8  2  0
  8  4  1  0
  9  2  1  0
  9 10  2  0
 12 11  1  0
 13 12  1  1
 13 14  1  0
 14  9  1  0
 15 13  1  0
 16 15  2  0
 18 19  1  6
 18 17  1  0
 20 18  1  0
 21 22  1  0
 21 20  1  1
 22 15  1  0
 23 21  1  0
 24 23  1  0
 25 23  2  0
M  END
$$$$
