HSL.pdb
     RDKit          3D

 25 25  0  0  1  0  0  0  0  0999 V2000
   11.4338  -16.6558   18.1689 N   0  0  0  0  0  0  0  0  0  0  0  0
   11.6563  -16.0278   19.4532 C   0  0  1  0  0  0  0  0  0  0  0  0
   12.0508  -14.5800   19.2332 C   0  0  0  0  0  0  0  0  0  0  0  0
   13.4986  -14.4954   18.9467 C   0  0  0  0  0  0  0  0  0  0  0  0
   14.5153  -15.1154   19.6612 C   0  0  0  0  0  0  0  0  0  0  0  0
   15.7070  -14.7824   19.0904 N   0  0  0  0  0  0  0  0  0  0  0  0
   15.4347  -13.9851   18.0602 C   0  0  0  0  0  0  0  0  0  0  0  0
   14.1034  -13.8071   17.9667 N   0  0  0  0  0  0  0  0  0  0  0  0
   10.5229  -16.1118   20.3752 C   0  0  0  0  0  0  0  0  0  0  0  0
    9.3942  -15.7332   19.8914 O   0  0  0  0  0  0  0  0  0  0  0  0
   10.1168  -18.6008   23.4538 O   0  0  0  0  0  0  0  0  0  0  0  0
    9.0365  -18.1040   22.7252 C   0  0  0  0  0  0  0  0  0  0  0  0
    9.3015  -16.6328   22.4575 C   0  0  2  0  0  0  0  0  0  0  0  0
   10.5292  -16.5514   21.7034 N   0  0  0  0  0  0  0  0  0  0  0  0
    9.3578  -15.8438   23.6932 C   0  0  0  0  0  0  0  0  0  0  0  0
   10.4705  -15.6122   24.2903 O   0  0  0  0  0  0  0  0  0  0  0  0
    7.8114  -11.8561   27.1001 C   0  0  0  0  0  0  0  0  0  0  0  0
    6.9079  -13.0711   27.0637 C   0  0  1  0  0  0  0  0  0  0  0  0
    5.4740  -12.5801   27.2357 C   0  0  0  0  0  0  0  0  0  0  0  0
    6.9608  -13.8252   25.7819 C   0  0  0  0  0  0  0  0  0  0  0  0
    8.2133  -14.6247   25.5695 C   0  0  2  0  0  0  0  0  0  0  0  0
    8.1827  -15.3070   24.2763 N   0  0  0  0  0  0  0  0  0  0  0  0
    8.4891  -15.6022   26.6607 C   0  0  0  0  0  0  0  0  0  0  0  0
    9.4099  -15.3938   27.6657 O   0  0  0  0  0  0  0  0  0  0  0  0
    7.8494  -16.7091   26.6926 O   0  0  0  0  0  0  0  0  0  0  0  0
  2  1  1  6
  3  2  1  0
  4  3  1  0
  5  4  2  0
  6  5  1  0
  7  6  1  0
  7  8  2  0
  8  4  1  0
  9  2  1  0
  9 10  2  0
 12 11  1  0
 13 12  1  1
 13 14  1  0
 14  9  1  0
 15 13  1  0
 16 15  2  0
 18 19  1  6
 18 17  1  0
 20 18  1  0
 21 22  1  0
 21 20  1  1
 22 15  1  0
 23 21  1  0
 24 23  1  0
 25 23  2  0
M  END
$$$$
