HSL.pdb
     RDKit          3D

 25 25  0  0  1  0  0  0  0  0999 V2000
    6.9637  -17.0451   19.5313 N   0  0  0  0  0  0  0  0  0  0  0  0
    7.9365  -16.3935   20.3811 C   0  0  1  0  0  0  0  0  0  0  0  0
    7.5793  -14.9246   20.5044 C   0  0  0  0  0  0  0  0  0  0  0  0
    7.8568  -14.2349   19.2267 C   0  0  0  0  0  0  0  0  0  0  0  0
    8.4024  -14.8075   18.0852 C   0  0  0  0  0  0  0  0  0  0  0  0
    8.5106  -13.8423   17.1294 N   0  0  0  0  0  0  0  0  0  0  0  0
    8.0482  -12.7142   17.6628 C   0  0  0  0  0  0  0  0  0  0  0  0
    7.6514  -12.9429   18.9289 N   0  0  0  0  0  0  0  0  0  0  0  0
    8.0841  -16.9941   21.7074 C   0  0  0  0  0  0  0  0  0  0  0  0
    7.0201  -16.9986   22.4280 O   0  0  0  0  0  0  0  0  0  0  0  0
   11.0724  -19.4301   23.0865 O   0  0  0  0  0  0  0  0  0  0  0  0
    9.7556  -19.5061   23.5392 C   0  0  0  0  0  0  0  0  0  0  0  0
    9.2129  -18.0895   23.6114 C   0  0  2  0  0  0  0  0  0  0  0  0
    9.2350  -17.5560   22.2707 N   0  0  0  0  0  0  0  0  0  0  0  0
    9.9659  -17.2526   24.5523 C   0  0  0  0  0  0  0  0  0  0  0  0
   10.9551  -16.5319   24.1646 O   0  0  0  0  0  0  0  0  0  0  0  0
   11.0439  -13.5209   27.9149 C   0  0  0  0  0  0  0  0  0  0  0  0
   10.3219  -14.6429   28.6316 C   0  0  1  0  0  0  0  0  0  0  0  0
    9.2976  -14.0051   29.5648 C   0  0  0  0  0  0  0  0  0  0  0  0
    9.5769  -15.5581   27.7250 C   0  0  0  0  0  0  0  0  0  0  0  0
   10.4380  -16.4610   26.8905 C   0  0  2  0  0  0  0  0  0  0  0  0
    9.6293  -17.2089   25.9285 N   0  0  0  0  0  0  0  0  0  0  0  0
   11.2767  -17.3953   27.6941 C   0  0  0  0  0  0  0  0  0  0  0  0
   12.6279  -17.2243   27.9098 O   0  0  0  0  0  0  0  0  0  0  0  0
   10.7391  -18.4259   28.2273 O   0  0  0  0  0  0  0  0  0  0  0  0
  2  1  1  1
  3  2  1  0
  4  3  1  0
  5  4  2  0
  6  5  1  0
  7  6  1  0
  7  8  2  0
  8  4  1  0
  9  2  1  0
  9 10  2  0
 12 11  1  0
 13 12  1  6
 13 14  1  0
 14  9  1  0
 15 13  1  0
 16 15  2  0
 18 19  1  1
 18 17  1  0
 20 18  1  0
 21 22  1  0
 21 20  1  1
 22 15  1  0
 23 21  1  0
 24 23  1  0
 25 23  2  0
M  END
$$$$
