HSL.pdb
     RDKit          3D

 25 25  0  0  1  0  0  0  0  0999 V2000
    7.8370  -18.2485   19.4777 N   0  0  0  0  0  0  0  0  0  0  0  0
    8.5773  -18.4727   20.7003 C   0  0  1  0  0  0  0  0  0  0  0  0
   10.0139  -18.0313   20.4957 C   0  0  0  0  0  0  0  0  0  0  0  0
   10.7311  -19.0311   19.6765 C   0  0  0  0  0  0  0  0  0  0  0  0
   11.3541  -18.8001   18.4571 C   0  0  0  0  0  0  0  0  0  0  0  0
   11.8893  -19.9739   18.0182 N   0  0  0  0  0  0  0  0  0  0  0  0
   11.6062  -20.8963   18.9347 C   0  0  0  0  0  0  0  0  0  0  0  0
   10.9072  -20.3349   19.9392 N   0  0  0  0  0  0  0  0  0  0  0  0
    8.0092  -17.8236   21.8825 C   0  0  0  0  0  0  0  0  0  0  0  0
    7.6369  -16.6055   21.7126 O   0  0  0  0  0  0  0  0  0  0  0  0
    7.6241  -19.2676   25.8091 O   0  0  0  0  0  0  0  0  0  0  0  0
    6.5747  -18.6069   25.1713 C   0  0  0  0  0  0  0  0  0  0  0  0
    7.1829  -17.6104   24.2000 C   0  0  2  0  0  0  0  0  0  0  0  0
    7.8278  -18.3713   23.1571 N   0  0  0  0  0  0  0  0  0  0  0  0
    8.1081  -16.6831   24.8609 C   0  0  0  0  0  0  0  0  0  0  0  0
    9.3724  -16.7283   24.6425 O   0  0  0  0  0  0  0  0  0  0  0  0
    5.9718  -11.9506   26.8317 C   0  0  0  0  0  0  0  0  0  0  0  0
    6.8569  -12.9738   26.1508 C   0  0  1  0  0  0  0  0  0  0  0  0
    7.6751  -12.2394   25.0935 C   0  0  0  0  0  0  0  0  0  0  0  0
    7.8228  -13.6411   27.0654 C   0  0  0  0  0  0  0  0  0  0  0  0
    8.5599  -14.8040   26.4677 C   0  0  2  0  0  0  0  0  0  0  0  0
    7.6398  -15.7003   25.7686 N   0  0  0  0  0  0  0  0  0  0  0  0
    9.3704  -15.5689   27.4579 C   0  0  0  0  0  0  0  0  0  0  0  0
    9.1577  -16.8962   27.7650 O   0  0  0  0  0  0  0  0  0  0  0  0
   10.3266  -14.9859   28.0753 O   0  0  0  0  0  0  0  0  0  0  0  0
  2  1  1  6
  3  2  1  0
  4  3  1  0
  5  4  2  0
  6  5  1  0
  7  6  1  0
  7  8  2  0
  8  4  1  0
  9  2  1  0
  9 10  2  0
 12 11  1  0
 13 12  1  1
 13 14  1  0
 14  9  1  0
 15 13  1  0
 16 15  2  0
 18 19  1  6
 18 17  1  0
 20 18  1  0
 21 22  1  0
 21 20  1  1
 22 15  1  0
 23 21  1  0
 24 23  1  0
 25 23  2  0
M  END
$$$$
