HSL.pdb
     RDKit          3D

 25 25  0  0  1  0  0  0  0  0999 V2000
    8.6209  -16.6826   19.1209 N   0  0  0  0  0  0  0  0  0  0  0  0
    8.3534  -15.5310   19.9547 C   0  0  1  0  0  0  0  0  0  0  0  0
    7.2241  -14.7272   19.3392 C   0  0  0  0  0  0  0  0  0  0  0  0
    7.5967  -14.3104   17.9707 C   0  0  0  0  0  0  0  0  0  0  0  0
    8.4796  -13.2930   17.6332 C   0  0  0  0  0  0  0  0  0  0  0  0
    8.5449  -13.2133   16.2744 N   0  0  0  0  0  0  0  0  0  0  0  0
    7.7308  -14.1485   15.7911 C   0  0  0  0  0  0  0  0  0  0  0  0
    7.1545  -14.8153   16.8090 N   0  0  0  0  0  0  0  0  0  0  0  0
    8.0495  -15.8488   21.3506 C   0  0  0  0  0  0  0  0  0  0  0  0
    6.8475  -15.5874   21.7225 O   0  0  0  0  0  0  0  0  0  0  0  0
   10.2725  -18.1354   23.8109 O   0  0  0  0  0  0  0  0  0  0  0  0
    8.8909  -18.0855   23.9938 C   0  0  0  0  0  0  0  0  0  0  0  0
    8.4324  -16.6806   23.6442 C   0  0  2  0  0  0  0  0  0  0  0  0
    8.9065  -16.3971   22.3110 N   0  0  0  0  0  0  0  0  0  0  0  0
    8.8944  -15.6859   24.6188 C   0  0  0  0  0  0  0  0  0  0  0  0
   10.0420  -15.1212   24.5073 O   0  0  0  0  0  0  0  0  0  0  0  0
    7.6481  -12.1000   25.2542 C   0  0  0  0  0  0  0  0  0  0  0  0
    7.3560  -12.1822   26.7380 C   0  0  1  0  0  0  0  0  0  0  0  0
    5.9195  -11.7141   26.9480 C   0  0  0  0  0  0  0  0  0  0  0  0
    7.4537  -13.5576   27.2977 C   0  0  0  0  0  0  0  0  0  0  0  0
    8.5772  -14.3865   26.7466 C   0  0  2  0  0  0  0  0  0  0  0  0
    8.0896  -15.3107   25.7236 N   0  0  0  0  0  0  0  0  0  0  0  0
    9.3379  -15.1298   27.7912 C   0  0  0  0  0  0  0  0  0  0  0  0
    9.3922  -16.5054   27.8707 O   0  0  0  0  0  0  0  0  0  0  0  0
    9.9883  -14.4802   28.6802 O   0  0  0  0  0  0  0  0  0  0  0  0
  2  1  1  6
  3  2  1  0
  4  3  1  0
  5  4  2  0
  6  5  1  0
  7  6  1  0
  7  8  2  0
  8  4  1  0
  9  2  1  0
  9 10  2  0
 12 11  1  0
 13 12  1  1
 13 14  1  0
 14  9  1  0
 15 13  1  0
 16 15  2  0
 18 19  1  6
 18 17  1  0
 20 18  1  0
 21 22  1  0
 21 20  1  1
 22 15  1  0
 23 21  1  0
 24 23  1  0
 25 23  2  0
M  END
$$$$
