HSL.pdb
     RDKit          3D

 25 25  0  0  1  0  0  0  0  0999 V2000
   12.0601  -13.4904   20.0475 N   0  0  0  0  0  0  0  0  0  0  0  0
   10.7322  -14.0586   20.1299 C   0  0  1  0  0  0  0  0  0  0  0  0
   10.6480  -15.2540   19.2003 C   0  0  0  0  0  0  0  0  0  0  0  0
    9.8685  -14.8958   17.9964 C   0  0  0  0  0  0  0  0  0  0  0  0
    9.3061  -13.6564   17.7202 C   0  0  0  0  0  0  0  0  0  0  0  0
    8.6605  -13.7343   16.5227 N   0  0  0  0  0  0  0  0  0  0  0  0
    8.8191  -14.9779   16.0763 C   0  0  0  0  0  0  0  0  0  0  0  0
    9.5474  -15.6854   16.9604 N   0  0  0  0  0  0  0  0  0  0  0  0
   10.3149  -14.4347   21.4813 C   0  0  0  0  0  0  0  0  0  0  0  0
   11.0678  -14.0001   22.4277 O   0  0  0  0  0  0  0  0  0  0  0  0
    7.9077  -17.5509   22.6949 O   0  0  0  0  0  0  0  0  0  0  0  0
    7.6707  -16.3159   23.2977 C   0  0  0  0  0  0  0  0  0  0  0  0
    8.9638  -15.5216   23.2398 C   0  0  2  0  0  0  0  0  0  0  0  0
    9.2055  -15.2016   21.8535 N   0  0  0  0  0  0  0  0  0  0  0  0
   10.0882  -16.2442   23.8450 C   0  0  0  0  0  0  0  0  0  0  0  0
   11.2703  -16.1815   23.3482 O   0  0  0  0  0  0  0  0  0  0  0  0
   10.4854  -13.4342   28.3465 C   0  0  0  0  0  0  0  0  0  0  0  0
   10.8191  -14.8635   27.9726 C   0  0  1  0  0  0  0  0  0  0  0  0
   10.3453  -15.7574   29.1141 C   0  0  0  0  0  0  0  0  0  0  0  0
   10.1417  -15.3382   26.7356 C   0  0  0  0  0  0  0  0  0  0  0  0
   10.5572  -16.7037   26.2710 C   0  0  2  0  0  0  0  0  0  0  0  0
    9.9110  -17.0416   25.0034 N   0  0  0  0  0  0  0  0  0  0  0  0
   10.3105  -17.7764   27.2763 C   0  0  0  0  0  0  0  0  0  0  0  0
   11.3040  -18.3760   28.0212 O   0  0  0  0  0  0  0  0  0  0  0  0
    9.1165  -18.1860   27.4818 O   0  0  0  0  0  0  0  0  0  0  0  0
  2  1  1  1
  3  2  1  0
  4  3  1  0
  5  4  2  0
  6  5  1  0
  7  6  1  0
  7  8  2  0
  8  4  1  0
  9  2  1  0
  9 10  2  0
 12 11  1  0
 13 12  1  6
 13 14  1  0
 14  9  1  0
 15 13  1  0
 16 15  2  0
 18 19  1  1
 18 17  1  0
 20 18  1  0
 21 22  1  0
 21 20  1  1
 22 15  1  0
 23 21  1  0
 24 23  1  0
 25 23  2  0
M  END
$$$$
