FAM.pdb
     RDKit          3D

 25 25  0  0  1  0  0  0  0  0999 V2000
    5.6748  -18.2398   24.9332 N   0  0  0  0  0  0  0  0  0  0  0  0
    6.1529  -16.8739   24.8715 C   0  0  1  0  0  0  0  0  0  0  0  0
    6.5609  -16.3786   26.2286 C   0  0  0  0  0  0  0  0  0  0  0  0
    6.6496  -14.8961   26.1960 C   0  0  0  0  0  0  0  0  0  0  0  0
    5.4746  -14.1733   26.2288 C   0  0  0  0  0  0  0  0  0  0  0  0
    5.5591  -12.7788   26.1978 C   0  0  0  0  0  0  0  0  0  0  0  0
    6.7887  -12.1590   26.1363 C   0  0  0  0  0  0  0  0  0  0  0  0
    7.9534  -12.9015   26.1042 C   0  0  0  0  0  0  0  0  0  0  0  0
    7.8831  -14.2793   26.1344 C   0  0  0  0  0  0  0  0  0  0  0  0
    7.2066  -16.6987   23.8495 C   0  0  0  0  0  0  0  0  0  0  0  0
    8.1153  -17.5692   23.7587 O   0  0  0  0  0  0  0  0  0  0  0  0
    7.8916  -14.2124   21.1306 C   0  0  0  0  0  0  0  0  0  0  0  0
    8.1958  -15.5102   21.8602 C   0  0  2  0  0  0  0  0  0  0  0  0
    7.2489  -15.5945   22.9590 N   0  0  0  0  0  0  0  0  0  0  0  0
    9.5883  -15.4403   22.3211 C   0  0  0  0  0  0  0  0  0  0  0  0
   10.5712  -15.5091   21.5056 O   0  0  0  0  0  0  0  0  0  0  0  0
   10.9969  -14.9226   29.8033 C   0  0  0  0  0  0  0  0  0  0  0  0
   11.1555  -14.0739   28.2497 S   0  0  0  0  0  0  0  0  0  0  0  0
   11.0922  -15.1210   26.8133 C   0  0  0  0  0  0  0  0  0  0  0  0
   11.2766  -14.4712   25.4979 C   0  0  0  0  0  0  0  0  0  0  0  0
   11.1602  -15.3151   24.2866 C   0  0  2  0  0  0  0  0  0  0  0  0
    9.8359  -15.2925   23.7141 N   0  0  0  0  0  0  0  0  0  0  0  0
   11.7069  -16.6780   24.4376 C   0  0  0  0  0  0  0  0  0  0  0  0
   12.9245  -16.9441   24.6034 O   0  0  0  0  0  0  0  0  0  0  0  0
   10.8414  -17.7613   24.3980 O   0  0  0  0  0  0  0  0  0  0  0  0
  2  1  1  1
  2 10  1  0
  3  2  1  0
  3  4  1  0
  4  9  2  0
  4  5  1  0
  5  6  2  0
  6  7  1  0
  8  7  2  0
  9  8  1  0
 10 14  1  0
 10 11  2  0
 13 12  1  1
 13 15  1  0
 14 13  1  0
 15 16  2  0
 18 17  1  0
 19 18  1  0
 20 19  1  0
 21 20  1  1
 21 23  1  0
 22 21  1  0
 22 15  1  0
 23 25  1  0
 24 23  2  0
M  END
$$$$
