FAM.pdb
     RDKit          3D

 25 25  0  0  1  0  0  0  0  0999 V2000
    7.4288  -16.7126   25.9436 N   0  0  0  0  0  0  0  0  0  0  0  0
    6.9631  -16.8453   24.5784 C   0  0  1  0  0  0  0  0  0  0  0  0
    5.8724  -15.8588   24.2775 C   0  0  0  0  0  0  0  0  0  0  0  0
    6.2874  -14.5164   24.7599 C   0  0  0  0  0  0  0  0  0  0  0  0
    5.7723  -14.0682   25.9590 C   0  0  0  0  0  0  0  0  0  0  0  0
    6.1630  -12.8053   26.4117 C   0  0  0  0  0  0  0  0  0  0  0  0
    7.0386  -12.0420   25.6695 C   0  0  0  0  0  0  0  0  0  0  0  0
    7.5428  -12.5097   24.4712 C   0  0  0  0  0  0  0  0  0  0  0  0
    7.1645  -13.7553   24.0135 C   0  0  0  0  0  0  0  0  0  0  0  0
    8.0740  -16.7963   23.6042 C   0  0  0  0  0  0  0  0  0  0  0  0
    7.9512  -17.4148   22.5115 O   0  0  0  0  0  0  0  0  0  0  0  0
   10.7614  -15.0172   22.3093 C   0  0  0  0  0  0  0  0  0  0  0  0
   10.4852  -16.3107   23.0573 C   0  0  2  0  0  0  0  0  0  0  0  0
    9.2796  -16.0845   23.8362 N   0  0  0  0  0  0  0  0  0  0  0  0
   11.6551  -16.5910   23.8994 C   0  0  0  0  0  0  0  0  0  0  0  0
   12.7620  -15.9699   23.7416 O   0  0  0  0  0  0  0  0  0  0  0  0
    9.3274  -13.4824   27.7121 C   0  0  0  0  0  0  0  0  0  0  0  0
   10.7517  -14.0158   28.6316 S   0  0  0  0  0  0  0  0  0  0  0  0
   11.4090  -15.5958   28.1465 C   0  0  0  0  0  0  0  0  0  0  0  0
   11.2494  -15.9848   26.7289 C   0  0  0  0  0  0  0  0  0  0  0  0
   11.7648  -17.3092   26.3122 C   0  0  2  0  0  0  0  0  0  0  0  0
   11.5402  -17.5821   24.9133 N   0  0  0  0  0  0  0  0  0  0  0  0
   11.3675  -18.4238   27.1949 C   0  0  0  0  0  0  0  0  0  0  0  0
   11.8943  -18.6748   28.3086 O   0  0  0  0  0  0  0  0  0  0  0  0
   10.3445  -19.2707   26.7946 O   0  0  0  0  0  0  0  0  0  0  0  0
  2  1  1  1
  2 10  1  0
  3  2  1  0
  3  4  1  0
  4  9  2  0
  4  5  1  0
  5  6  2  0
  6  7  1  0
  8  7  2  0
  9  8  1  0
 10 14  1  0
 10 11  2  0
 13 12  1  1
 13 15  1  0
 14 13  1  0
 15 16  2  0
 18 17  1  0
 19 18  1  0
 20 19  1  0
 21 20  1  1
 21 23  1  0
 22 21  1  0
 22 15  1  0
 23 25  1  0
 24 23  2  0
M  END
$$$$
