FAM.pdb
     RDKit          3D

 25 25  0  0  1  0  0  0  0  0999 V2000
    8.3172  -15.0834   25.5933 N   0  0  0  0  0  0  0  0  0  0  0  0
    7.3868  -15.7529   24.7078 C   0  0  1  0  0  0  0  0  0  0  0  0
    6.3184  -14.8130   24.2299 C   0  0  0  0  0  0  0  0  0  0  0  0
    6.4245  -13.5368   24.9830 C   0  0  0  0  0  0  0  0  0  0  0  0
    7.3369  -12.5981   24.5467 C   0  0  0  0  0  0  0  0  0  0  0  0
    7.4362  -11.3981   25.2560 C   0  0  0  0  0  0  0  0  0  0  0  0
    6.6381  -11.1747   26.3575 C   0  0  0  0  0  0  0  0  0  0  0  0
    5.7308  -12.1281   26.7777 C   0  0  0  0  0  0  0  0  0  0  0  0
    5.6234  -13.3171   26.0856 C   0  0  0  0  0  0  0  0  0  0  0  0
    8.0759  -16.4562   23.6050 C   0  0  0  0  0  0  0  0  0  0  0  0
    7.5799  -17.5298   23.1656 O   0  0  0  0  0  0  0  0  0  0  0  0
   10.9563  -16.1025   21.3305 C   0  0  0  0  0  0  0  0  0  0  0  0
   10.2753  -16.8736   22.4490 C   0  0  2  0  0  0  0  0  0  0  0  0
    9.2746  -15.9827   23.0110 N   0  0  0  0  0  0  0  0  0  0  0  0
   11.3105  -17.2432   23.4227 C   0  0  0  0  0  0  0  0  0  0  0  0
   12.4296  -17.7434   23.0578 O   0  0  0  0  0  0  0  0  0  0  0  0
    9.1850  -13.4624   28.6167 C   0  0  0  0  0  0  0  0  0  0  0  0
   10.3365  -14.8123   28.7195 S   0  0  0  0  0  0  0  0  0  0  0  0
   10.9434  -15.4012   27.1547 C   0  0  0  0  0  0  0  0  0  0  0  0
   11.6287  -16.7115   27.1484 C   0  0  0  0  0  0  0  0  0  0  0  0
   12.0239  -17.2797   25.8392 C   0  0  2  0  0  0  0  0  0  0  0  0
   11.0481  -17.0341   24.8051 N   0  0  0  0  0  0  0  0  0  0  0  0
   12.4739  -18.6846   25.8945 C   0  0  0  0  0  0  0  0  0  0  0  0
   11.7846  -19.6697   25.5266 O   0  0  0  0  0  0  0  0  0  0  0  0
   13.7411  -18.9693   26.3817 O   0  0  0  0  0  0  0  0  0  0  0  0
  2  1  1  6
  2 10  1  0
  3  2  1  0
  3  4  1  0
  4  9  2  0
  4  5  1  0
  5  6  2  0
  6  7  1  0
  8  7  2  0
  9  8  1  0
 10 14  1  0
 10 11  2  0
 13 12  1  6
 13 15  1  0
 14 13  1  0
 15 16  2  0
 18 17  1  0
 19 18  1  0
 20 19  1  0
 21 20  1  1
 21 23  1  0
 22 21  1  0
 22 15  1  0
 23 25  1  0
 24 23  2  0
M  END
$$$$
