FAM.pdb
     RDKit          3D

 25 25  0  0  1  0  0  0  0  0999 V2000
    5.9855  -16.4502   25.3411 N   0  0  0  0  0  0  0  0  0  0  0  0
    7.0942  -15.7423   24.7346 C   0  0  1  0  0  0  0  0  0  0  0  0
    7.7404  -14.8039   25.7119 C   0  0  0  0  0  0  0  0  0  0  0  0
    7.0838  -13.4749   25.6132 C   0  0  0  0  0  0  0  0  0  0  0  0
    6.0512  -13.1933   26.4842 C   0  0  0  0  0  0  0  0  0  0  0  0
    5.4340  -11.9431   26.3903 C   0  0  0  0  0  0  0  0  0  0  0  0
    5.8568  -11.0291   25.4490 C   0  0  0  0  0  0  0  0  0  0  0  0
    6.8927  -11.3312   24.5863 C   0  0  0  0  0  0  0  0  0  0  0  0
    7.5102  -12.5625   24.6692 C   0  0  0  0  0  0  0  0  0  0  0  0
    8.0563  -16.6618   24.0909 C   0  0  0  0  0  0  0  0  0  0  0  0
    8.3293  -17.7527   24.6627 O   0  0  0  0  0  0  0  0  0  0  0  0
   10.1484  -16.6302   20.9877 C   0  0  0  0  0  0  0  0  0  0  0  0
    9.9109  -17.0474   22.4295 C   0  0  2  0  0  0  0  0  0  0  0  0
    8.6929  -16.3789   22.8545 N   0  0  0  0  0  0  0  0  0  0  0  0
   11.0837  -16.6290   23.2079 C   0  0  0  0  0  0  0  0  0  0  0  0
   11.5049  -15.4214   23.1934 O   0  0  0  0  0  0  0  0  0  0  0  0
    9.8200  -14.3052   28.3040 C   0  0  0  0  0  0  0  0  0  0  0  0
   10.4676  -15.8998   28.7477 S   0  0  0  0  0  0  0  0  0  0  0  0
   11.7007  -16.5433   27.6391 C   0  0  0  0  0  0  0  0  0  0  0  0
   11.2819  -16.8058   26.2454 C   0  0  0  0  0  0  0  0  0  0  0  0
   12.2997  -17.3238   25.3026 C   0  0  2  0  0  0  0  0  0  0  0  0
   11.7596  -17.6029   23.9941 N   0  0  0  0  0  0  0  0  0  0  0  0
   13.1250  -18.4238   25.8396 C   0  0  0  0  0  0  0  0  0  0  0  0
   12.8225  -19.6422   25.7705 O   0  0  0  0  0  0  0  0  0  0  0  0
   14.3236  -18.1233   26.4699 O   0  0  0  0  0  0  0  0  0  0  0  0
  2  1  1  1
  2 10  1  0
  3  2  1  0
  3  4  1  0
  4  9  2  0
  4  5  1  0
  5  6  2  0
  6  7  1  0
  8  7  2  0
  9  8  1  0
 10 14  1  0
 10 11  2  0
 13 12  1  6
 13 15  1  0
 14 13  1  0
 15 16  2  0
 18 17  1  0
 19 18  1  0
 20 19  1  0
 21 20  1  1
 21 23  1  0
 22 21  1  0
 22 15  1  0
 23 25  1  0
 24 23  2  0
M  END
$$$$
