FAM.pdb
     RDKit          3D

 25 25  0  0  1  0  0  0  0  0999 V2000
    5.7075  -16.8399   24.2591 N   0  0  0  0  0  0  0  0  0  0  0  0
    7.0538  -16.3336   24.0877 C   0  0  1  0  0  0  0  0  0  0  0  0
    7.6199  -15.8425   25.3884 C   0  0  0  0  0  0  0  0  0  0  0  0
    7.1240  -14.4655   25.6429 C   0  0  0  0  0  0  0  0  0  0  0  0
    7.7821  -13.4148   25.0370 C   0  0  0  0  0  0  0  0  0  0  0  0
    7.3149  -12.1199   25.2772 C   0  0  0  0  0  0  0  0  0  0  0  0
    6.2268  -11.9156   26.0984 C   0  0  0  0  0  0  0  0  0  0  0  0
    5.5821  -12.9818   26.6955 C   0  0  0  0  0  0  0  0  0  0  0  0
    6.0340  -14.2653   26.4659 C   0  0  0  0  0  0  0  0  0  0  0  0
    7.9316  -17.3069   23.4039 C   0  0  0  0  0  0  0  0  0  0  0  0
    7.4315  -18.0654   22.5286 O   0  0  0  0  0  0  0  0  0  0  0  0
    9.6648  -16.4520   21.5422 C   0  0  0  0  0  0  0  0  0  0  0  0
   10.3430  -17.1931   22.6824 C   0  0  2  0  0  0  0  0  0  0  0  0
    9.3173  -17.4329   23.6831 N   0  0  0  0  0  0  0  0  0  0  0  0
   11.4268  -16.3369   23.1811 C   0  0  0  0  0  0  0  0  0  0  0  0
   12.5252  -16.2000   22.5402 O   0  0  0  0  0  0  0  0  0  0  0  0
   10.5777  -14.1381   29.6311 C   0  0  0  0  0  0  0  0  0  0  0  0
    9.7900  -13.5695   28.1428 S   0  0  0  0  0  0  0  0  0  0  0  0
   10.4028  -14.3029   26.6427 C   0  0  0  0  0  0  0  0  0  0  0  0
   11.6803  -15.0426   26.7280 C   0  0  0  0  0  0  0  0  0  0  0  0
   12.1795  -15.7057   25.5015 C   0  0  2  0  0  0  0  0  0  0  0  0
   11.2366  -15.6478   24.4109 N   0  0  0  0  0  0  0  0  0  0  0  0
   12.7351  -17.0557   25.7208 C   0  0  0  0  0  0  0  0  0  0  0  0
   13.9425  -17.3658   25.5567 O   0  0  0  0  0  0  0  0  0  0  0  0
   11.8906  -18.0743   26.1374 O   0  0  0  0  0  0  0  0  0  0  0  0
  2  1  1  1
  2 10  1  0
  3  2  1  0
  3  4  1  0
  4  9  2  0
  4  5  1  0
  5  6  2  0
  6  7  1  0
  8  7  2  0
  9  8  1  0
 10 14  1  0
 10 11  2  0
 13 12  1  6
 13 15  1  0
 14 13  1  0
 15 16  2  0
 18 17  1  0
 19 18  1  0
 20 19  1  0
 21 20  1  1
 21 23  1  0
 22 21  1  0
 22 15  1  0
 23 25  1  0
 24 23  2  0
M  END
$$$$
