FAM.pdb
     RDKit          3D

 25 25  0  0  1  0  0  0  0  0999 V2000
    5.6926  -17.9507   24.3250 N   0  0  0  0  0  0  0  0  0  0  0  0
    6.5228  -16.7663   24.4027 C   0  0  1  0  0  0  0  0  0  0  0  0
    6.6135  -16.2571   25.8119 C   0  0  0  0  0  0  0  0  0  0  0  0
    6.6741  -14.7729   25.7871 C   0  0  0  0  0  0  0  0  0  0  0  0
    7.7481  -14.1762   25.1590 C   0  0  0  0  0  0  0  0  0  0  0  0
    7.8043  -12.7801   25.1365 C   0  0  0  0  0  0  0  0  0  0  0  0
    6.8074  -12.0356   25.7296 C   0  0  0  0  0  0  0  0  0  0  0  0
    5.7404  -12.6530   26.3535 C   0  0  0  0  0  0  0  0  0  0  0  0
    5.6736  -14.0310   26.3823 C   0  0  0  0  0  0  0  0  0  0  0  0
    7.8450  -16.9712   23.7741 C   0  0  0  0  0  0  0  0  0  0  0  0
    8.4488  -18.0613   23.9711 O   0  0  0  0  0  0  0  0  0  0  0  0
   10.0454  -14.9898   21.4777 C   0  0  0  0  0  0  0  0  0  0  0  0
    9.7542  -16.2298   22.3065 C   0  0  2  0  0  0  0  0  0  0  0  0
    8.4746  -15.9985   22.9546 N   0  0  0  0  0  0  0  0  0  0  0  0
   10.8527  -16.3845   23.2686 C   0  0  0  0  0  0  0  0  0  0  0  0
   12.0756  -16.4111   22.8949 O   0  0  0  0  0  0  0  0  0  0  0  0
    8.7919  -13.3159   28.5590 C   0  0  0  0  0  0  0  0  0  0  0  0
   10.4850  -13.8536   28.5024 S   0  0  0  0  0  0  0  0  0  0  0  0
   10.9845  -14.5978   26.9660 C   0  0  0  0  0  0  0  0  0  0  0  0
   11.1717  -16.0646   26.9580 C   0  0  0  0  0  0  0  0  0  0  0  0
   11.5295  -16.7098   25.6739 C   0  0  2  0  0  0  0  0  0  0  0  0
   10.5338  -16.5072   24.6494 N   0  0  0  0  0  0  0  0  0  0  0  0
   11.9616  -18.1160   25.7971 C   0  0  0  0  0  0  0  0  0  0  0  0
   11.4259  -19.0824   25.1971 O   0  0  0  0  0  0  0  0  0  0  0  0
   13.0307  -18.4240   26.6255 O   0  0  0  0  0  0  0  0  0  0  0  0
  2  1  1  1
  2 10  1  0
  3  2  1  0
  3  4  1  0
  4  9  2  0
  4  5  1  0
  5  6  2  0
  6  7  1  0
  8  7  2  0
  9  8  1  0
 10 14  1  0
 10 11  2  0
 13 12  1  6
 13 15  1  0
 14 13  1  0
 15 16  2  0
 18 17  1  0
 19 18  1  0
 20 19  1  0
 21 20  1  1
 21 23  1  0
 22 21  1  0
 22 15  1  0
 23 25  1  0
 24 23  2  0
M  END
$$$$
