FAM.pdb
     RDKit          3D

 25 25  0  0  1  0  0  0  0  0999 V2000
    5.4553  -17.8516   23.9847 N   0  0  0  0  0  0  0  0  0  0  0  0
    6.4636  -16.8174   24.0931 C   0  0  1  0  0  0  0  0  0  0  0  0
    6.6465  -16.3832   25.5184 C   0  0  0  0  0  0  0  0  0  0  0  0
    7.0283  -14.9477   25.5417 C   0  0  0  0  0  0  0  0  0  0  0  0
    6.2016  -14.0656   26.2070 C   0  0  0  0  0  0  0  0  0  0  0  0
    6.5614  -12.7154   26.2281 C   0  0  0  0  0  0  0  0  0  0  0  0
    7.7123  -12.2938   25.5974 C   0  0  0  0  0  0  0  0  0  0  0  0
    8.5262  -13.1937   24.9367 C   0  0  0  0  0  0  0  0  0  0  0  0
    8.1816  -14.5296   24.9088 C   0  0  0  0  0  0  0  0  0  0  0  0
    7.7309  -17.2049   23.4379 C   0  0  0  0  0  0  0  0  0  0  0  0
    8.2695  -18.3002   23.7571 O   0  0  0  0  0  0  0  0  0  0  0  0
   10.0081  -15.6646   20.8926 C   0  0  0  0  0  0  0  0  0  0  0  0
    9.7247  -16.6757   21.9910 C   0  0  2  0  0  0  0  0  0  0  0  0
    8.3773  -16.4031   22.4615 N   0  0  0  0  0  0  0  0  0  0  0  0
   10.7362  -16.4838   23.0380 C   0  0  0  0  0  0  0  0  0  0  0  0
   11.9861  -16.6079   22.7968 O   0  0  0  0  0  0  0  0  0  0  0  0
    9.1587  -13.3164   28.8986 C   0  0  0  0  0  0  0  0  0  0  0  0
   10.4930  -14.4310   29.2672 S   0  0  0  0  0  0  0  0  0  0  0  0
   11.3350  -15.0891   27.8453 C   0  0  0  0  0  0  0  0  0  0  0  0
   10.5158  -15.3639   26.6453 C   0  0  0  0  0  0  0  0  0  0  0  0
   11.2085  -15.8548   25.4319 C   0  0  2  0  0  0  0  0  0  0  0  0
   10.3003  -16.1516   24.3507 N   0  0  0  0  0  0  0  0  0  0  0  0
   12.1887  -16.9300   25.6818 C   0  0  0  0  0  0  0  0  0  0  0  0
   13.4210  -16.7470   25.8516 O   0  0  0  0  0  0  0  0  0  0  0  0
   11.7495  -18.2446   25.7388 O   0  0  0  0  0  0  0  0  0  0  0  0
  2  1  1  1
  2 10  1  0
  3  2  1  0
  3  4  1  0
  4  9  2  0
  4  5  1  0
  5  6  2  0
  6  7  1  0
  8  7  2  0
  9  8  1  0
 10 14  1  0
 10 11  2  0
 13 12  1  6
 13 15  1  0
 14 13  1  0
 15 16  2  0
 18 17  1  0
 19 18  1  0
 20 19  1  0
 21 20  1  1
 21 23  1  0
 22 21  1  0
 22 15  1  0
 23 25  1  0
 24 23  2  0
M  END
$$$$
