FAM.pdb
     RDKit          3D

 25 25  0  0  1  0  0  0  0  0999 V2000
    5.4429  -17.9656   24.8321 N   0  0  0  0  0  0  0  0  0  0  0  0
    6.0976  -16.6748   24.7739 C   0  0  1  0  0  0  0  0  0  0  0  0
    6.5591  -16.2372   26.1336 C   0  0  0  0  0  0  0  0  0  0  0  0
    6.6287  -14.7536   26.1666 C   0  0  0  0  0  0  0  0  0  0  0  0
    5.5199  -14.0600   26.6065 C   0  0  0  0  0  0  0  0  0  0  0  0
    5.5863  -12.6645   26.6369 C   0  0  0  0  0  0  0  0  0  0  0  0
    6.7341  -12.0153   26.2355 C   0  0  0  0  0  0  0  0  0  0  0  0
    7.8334  -12.7288   25.7983 C   0  0  0  0  0  0  0  0  0  0  0  0
    7.7801  -14.1073   25.7637 C   0  0  0  0  0  0  0  0  0  0  0  0
    7.1714  -16.6407   23.7583 C   0  0  0  0  0  0  0  0  0  0  0  0
    7.9569  -17.6242   23.6719 O   0  0  0  0  0  0  0  0  0  0  0  0
    8.1931  -14.2792   21.0358 C   0  0  0  0  0  0  0  0  0  0  0  0
    8.3876  -15.5558   21.8368 C   0  0  2  0  0  0  0  0  0  0  0  0
    7.3656  -15.5515   22.8696 N   0  0  0  0  0  0  0  0  0  0  0  0
    9.7474  -15.5256   22.3903 C   0  0  0  0  0  0  0  0  0  0  0  0
   10.7810  -15.5627   21.6379 O   0  0  0  0  0  0  0  0  0  0  0  0
   10.0332  -13.2074   28.3847 C   0  0  0  0  0  0  0  0  0  0  0  0
   10.6546  -14.8670   28.5214 S   0  0  0  0  0  0  0  0  0  0  0  0
   11.0145  -15.6630   26.9720 C   0  0  0  0  0  0  0  0  0  0  0  0
   11.1555  -14.7927   25.7848 C   0  0  0  0  0  0  0  0  0  0  0  0
   11.1921  -15.4393   24.4530 C   0  0  2  0  0  0  0  0  0  0  0  0
    9.9044  -15.4533   23.8023 N   0  0  0  0  0  0  0  0  0  0  0  0
   11.8716  -16.7497   24.4294 C   0  0  0  0  0  0  0  0  0  0  0  0
   11.2910  -17.8517   24.2581 O   0  0  0  0  0  0  0  0  0  0  0  0
   13.2466  -16.8008   24.6056 O   0  0  0  0  0  0  0  0  0  0  0  0
  2  1  1  1
  2 10  1  0
  3  2  1  0
  3  4  1  0
  4  9  2  0
  4  5  1  0
  5  6  2  0
  6  7  1  0
  8  7  2  0
  9  8  1  0
 10 14  1  0
 10 11  2  0
 13 12  1  6
 13 15  1  0
 14 13  1  0
 15 16  2  0
 18 17  1  0
 19 18  1  0
 20 19  1  0
 21 20  1  1
 21 23  1  0
 22 21  1  0
 22 15  1  0
 23 25  1  0
 24 23  2  0
M  END
$$$$
