FAM.pdb
     RDKit          3D

 25 25  0  0  1  0  0  0  0  0999 V2000
    6.9868  -17.8346   19.8474 N   0  0  0  0  0  0  0  0  0  0  0  0
    7.5623  -16.6156   20.3775 C   0  0  1  0  0  0  0  0  0  0  0  0
    6.5174  -15.5522   20.5526 C   0  0  0  0  0  0  0  0  0  0  0  0
    7.1813  -14.2803   20.9379 C   0  0  0  0  0  0  0  0  0  0  0  0
    7.7923  -13.5394   19.9470 C   0  0  0  0  0  0  0  0  0  0  0  0
    8.4168  -12.3433   20.3105 C   0  0  0  0  0  0  0  0  0  0  0  0
    8.4134  -11.9301   21.6255 C   0  0  0  0  0  0  0  0  0  0  0  0
    7.7958  -12.6871   22.6024 C   0  0  0  0  0  0  0  0  0  0  0  0
    7.1756  -13.8701   22.2560 C   0  0  0  0  0  0  0  0  0  0  0  0
    8.3518  -16.8601   21.6032 C   0  0  0  0  0  0  0  0  0  0  0  0
    7.7571  -17.2724   22.6365 O   0  0  0  0  0  0  0  0  0  0  0  0
   11.9857  -17.1345   22.3519 C   0  0  0  0  0  0  0  0  0  0  0  0
   10.5448  -17.0564   22.8282 C   0  0  2  0  0  0  0  0  0  0  0  0
    9.7539  -16.6537   21.6779 N   0  0  0  0  0  0  0  0  0  0  0  0
   10.4939  -16.0738   23.9183 C   0  0  0  0  0  0  0  0  0  0  0  0
   10.3576  -14.8226   23.6904 O   0  0  0  0  0  0  0  0  0  0  0  0
    5.6347  -13.5003   26.9295 C   0  0  0  0  0  0  0  0  0  0  0  0
    7.3212  -13.2297   27.4206 S   0  0  0  0  0  0  0  0  0  0  0  0
    8.2858  -14.7084   27.6368 C   0  0  0  0  0  0  0  0  0  0  0  0
    8.8183  -15.3494   26.4152 C   0  0  0  0  0  0  0  0  0  0  0  0
   10.2479  -15.7358   26.4032 C   0  0  2  0  0  0  0  0  0  0  0  0
   10.6005  -16.5397   25.2581 N   0  0  0  0  0  0  0  0  0  0  0  0
   10.7407  -16.2907   27.6793 C   0  0  0  0  0  0  0  0  0  0  0  0
   11.4891  -15.6777   28.4824 O   0  0  0  0  0  0  0  0  0  0  0  0
   10.3692  -17.5761   28.0452 O   0  0  0  0  0  0  0  0  0  0  0  0
  2  1  1  1
  2 10  1  0
  3  2  1  0
  3  4  1  0
  4  9  2  0
  4  5  1  0
  5  6  2  0
  6  7  1  0
  8  7  2  0
  9  8  1  0
 10 14  1  0
 10 11  2  0
 13 12  1  6
 13 15  1  0
 14 13  1  0
 15 16  2  0
 18 17  1  0
 19 18  1  0
 20 19  1  0
 21 20  1  1
 21 23  1  0
 22 21  1  0
 22 15  1  0
 23 25  1  0
 24 23  2  0
M  END
$$$$
