FAM.pdb
     RDKit          3D

 25 25  0  0  1  0  0  0  0  0999 V2000
   11.0820  -16.5452   20.8442 N   0  0  0  0  0  0  0  0  0  0  0  0
    9.8416  -16.0159   21.3728 C   0  0  1  0  0  0  0  0  0  0  0  0
    8.7301  -16.1311   20.3704 C   0  0  0  0  0  0  0  0  0  0  0  0
    8.1495  -14.7841   20.1349 C   0  0  0  0  0  0  0  0  0  0  0  0
    6.9853  -14.4528   20.7975 C   0  0  0  0  0  0  0  0  0  0  0  0
    6.4397  -13.1856   20.5750 C   0  0  0  0  0  0  0  0  0  0  0  0
    7.0594  -12.3042   19.7153 C   0  0  0  0  0  0  0  0  0  0  0  0
    8.2247  -12.6559   19.0617 C   0  0  0  0  0  0  0  0  0  0  0  0
    8.7732  -13.9044   19.2731 C   0  0  0  0  0  0  0  0  0  0  0  0
    9.5009  -16.6029   22.6862 C   0  0  0  0  0  0  0  0  0  0  0  0
   10.2820  -17.4551   23.1914 O   0  0  0  0  0  0  0  0  0  0  0  0
    7.0808  -17.9065   24.5835 C   0  0  0  0  0  0  0  0  0  0  0  0
    8.0622  -16.7582   24.7488 C   0  0  2  0  0  0  0  0  0  0  0  0
    8.3329  -16.2547   23.4131 N   0  0  0  0  0  0  0  0  0  0  0  0
    9.2627  -17.2955   25.4019 C   0  0  0  0  0  0  0  0  0  0  0  0
    9.9988  -18.1760   24.8373 O   0  0  0  0  0  0  0  0  0  0  0  0
    9.2591  -13.4275   27.3829 C   0  0  0  0  0  0  0  0  0  0  0  0
   10.3749  -13.6993   28.7394 S   0  0  0  0  0  0  0  0  0  0  0  0
   10.6699  -15.4077   29.1369 C   0  0  0  0  0  0  0  0  0  0  0  0
   11.4496  -16.2008   28.1624 C   0  0  0  0  0  0  0  0  0  0  0  0
   10.7506  -17.2853   27.4355 C   0  0  2  0  0  0  0  0  0  0  0  0
    9.6039  -16.8151   26.6967 N   0  0  0  0  0  0  0  0  0  0  0  0
   10.4678  -18.4828   28.2511 C   0  0  0  0  0  0  0  0  0  0  0  0
    9.3155  -18.8806   28.5592 O   0  0  0  0  0  0  0  0  0  0  0  0
   11.5270  -19.2429   28.7251 O   0  0  0  0  0  0  0  0  0  0  0  0
  2  1  1  6
  2 10  1  0
  3  2  1  0
  3  4  1  0
  4  9  2  0
  4  5  1  0
  5  6  2  0
  6  7  1  0
  8  7  2  0
  9  8  1  0
 10 14  1  0
 10 11  2  0
 13 12  1  6
 13 15  1  0
 14 13  1  0
 15 16  2  0
 18 17  1  0
 19 18  1  0
 20 19  1  0
 21 20  1  1
 21 23  1  0
 22 21  1  0
 22 15  1  0
 23 25  1  0
 24 23  2  0
M  END
$$$$
