FAM.pdb
     RDKit          3D

 25 25  0  0  1  0  0  0  0  0999 V2000
    9.1557  -14.7233   24.6186 N   0  0  0  0  0  0  0  0  0  0  0  0
    8.1306  -15.7195   24.3840 C   0  0  1  0  0  0  0  0  0  0  0  0
    6.8461  -15.0835   23.9380 C   0  0  0  0  0  0  0  0  0  0  0  0
    6.6357  -13.8286   24.7048 C   0  0  0  0  0  0  0  0  0  0  0  0
    5.8674  -13.8869   25.8496 C   0  0  0  0  0  0  0  0  0  0  0  0
    5.6698  -12.7059   26.5699 C   0  0  0  0  0  0  0  0  0  0  0  0
    6.2333  -11.5253   26.1356 C   0  0  0  0  0  0  0  0  0  0  0  0
    6.9994  -11.4887   24.9864 C   0  0  0  0  0  0  0  0  0  0  0  0
    7.2018  -12.6484   24.2663 C   0  0  0  0  0  0  0  0  0  0  0  0
    8.5930  -16.7907   23.4762 C   0  0  0  0  0  0  0  0  0  0  0  0
    7.8720  -17.8156   23.3295 O   0  0  0  0  0  0  0  0  0  0  0  0
   11.8333  -17.4884   21.7528 C   0  0  0  0  0  0  0  0  0  0  0  0
   10.8604  -17.7238   22.8960 C   0  0  2  0  0  0  0  0  0  0  0  0
    9.8142  -16.7253   22.7563 N   0  0  0  0  0  0  0  0  0  0  0  0
   11.6112  -17.5808   24.1499 C   0  0  0  0  0  0  0  0  0  0  0  0
   12.8624  -17.3158   24.1584 O   0  0  0  0  0  0  0  0  0  0  0  0
    9.6310  -14.3700   29.4069 C   0  0  0  0  0  0  0  0  0  0  0  0
    9.9965  -13.9756   27.7129 S   0  0  0  0  0  0  0  0  0  0  0  0
   10.5785  -15.3416   26.7337 C   0  0  0  0  0  0  0  0  0  0  0  0
   11.1438  -16.4985   27.4606 C   0  0  0  0  0  0  0  0  0  0  0  0
   11.5641  -17.6763   26.6674 C   0  0  2  0  0  0  0  0  0  0  0  0
   10.9160  -17.7442   25.3801 N   0  0  0  0  0  0  0  0  0  0  0  0
   11.5283  -18.9539   27.4063 C   0  0  0  0  0  0  0  0  0  0  0  0
   10.8088  -19.9374   27.0966 O   0  0  0  0  0  0  0  0  0  0  0  0
   12.3336  -19.1101   28.5249 O   0  0  0  0  0  0  0  0  0  0  0  0
  2  1  1  6
  2 10  1  0
  3  2  1  0
  3  4  1  0
  4  9  2  0
  4  5  1  0
  5  6  2  0
  6  7  1  0
  8  7  2  0
  9  8  1  0
 10 14  1  0
 10 11  2  0
 13 12  1  6
 13 15  1  0
 14 13  1  0
 15 16  2  0
 18 17  1  0
 19 18  1  0
 20 19  1  0
 21 20  1  1
 21 23  1  0
 22 21  1  0
 22 15  1  0
 23 25  1  0
 24 23  2  0
M  END
$$$$
