FAM.pdb
     RDKit          3D

 25 25  0  0  1  0  0  0  0  0999 V2000
    6.7821  -18.1382   19.4965 N   0  0  0  0  0  0  0  0  0  0  0  0
    7.2896  -16.9134   20.0798 C   0  0  1  0  0  0  0  0  0  0  0  0
    6.2444  -15.8358   20.0771 C   0  0  0  0  0  0  0  0  0  0  0  0
    6.8487  -14.5745   20.5780 C   0  0  0  0  0  0  0  0  0  0  0  0
    7.6078  -13.8246   19.7031 C   0  0  0  0  0  0  0  0  0  0  0  0
    8.1760  -12.6385   20.1753 C   0  0  0  0  0  0  0  0  0  0  0  0
    7.9740  -12.2435   21.4804 C   0  0  0  0  0  0  0  0  0  0  0  0
    7.2104  -13.0092   22.3402 C   0  0  0  0  0  0  0  0  0  0  0  0
    6.6440  -14.1825   21.8857 C   0  0  0  0  0  0  0  0  0  0  0  0
    7.8874  -17.1379   21.4131 C   0  0  0  0  0  0  0  0  0  0  0  0
    7.1295  -17.4395   22.3755 O   0  0  0  0  0  0  0  0  0  0  0  0
   11.2733  -17.9178   22.6189 C   0  0  0  0  0  0  0  0  0  0  0  0
    9.8751  -17.4147   22.9365 C   0  0  2  0  0  0  0  0  0  0  0  0
    9.2794  -17.0311   21.6681 N   0  0  0  0  0  0  0  0  0  0  0  0
   10.0141  -16.2807   23.8591 C   0  0  0  0  0  0  0  0  0  0  0  0
   10.7355  -15.2644   23.5721 O   0  0  0  0  0  0  0  0  0  0  0  0
    6.8667  -11.5435   27.1077 C   0  0  0  0  0  0  0  0  0  0  0  0
    6.2860  -12.9178   26.1418 S   0  0  0  0  0  0  0  0  0  0  0  0
    7.5548  -14.0344   25.5879 C   0  0  0  0  0  0  0  0  0  0  0  0
    8.3891  -14.6746   26.6275 C   0  0  0  0  0  0  0  0  0  0  0  0
    9.5924  -15.4181   26.1888 C   0  0  2  0  0  0  0  0  0  0  0  0
    9.3226  -16.3273   25.1014 N   0  0  0  0  0  0  0  0  0  0  0  0
   10.3628  -16.0345   27.2868 C   0  0  0  0  0  0  0  0  0  0  0  0
   11.4293  -15.5666   27.7607 O   0  0  0  0  0  0  0  0  0  0  0  0
    9.9030  -17.2130   27.8559 O   0  0  0  0  0  0  0  0  0  0  0  0
  2  1  1  1
  2 10  1  0
  3  2  1  0
  3  4  1  0
  4  9  2  0
  4  5  1  0
  5  6  2  0
  6  7  1  0
  8  7  2  0
  9  8  1  0
 10 14  1  0
 10 11  2  0
 13 12  1  6
 13 15  1  0
 14 13  1  0
 15 16  2  0
 18 17  1  0
 19 18  1  0
 20 19  1  0
 21 20  1  1
 21 23  1  0
 22 21  1  0
 22 15  1  0
 23 25  1  0
 24 23  2  0
M  END
$$$$
