DYE.pdb
     RDKit          3D

 30 30  0  0  1  0  0  0  0  0999 V2000
    9.1300  -16.1614   18.2723 N   0  0  0  0  0  0  0  0  0  0  0  0
    9.3424  -17.1579   19.3673 C   0  0  1  0  0  0  0  0  0  0  0  0
   10.5337  -17.9625   18.9443 C   0  0  0  0  0  0  0  0  0  0  0  0
   10.5173  -18.2273   17.5096 C   0  0  0  0  0  0  0  0  0  0  0  0
   11.4924  -18.7163   16.9185 O   0  0  0  0  0  0  0  0  0  0  0  0
    9.5330  -16.3756   20.6058 C   0  0  0  0  0  0  0  0  0  0  0  0
   10.6629  -16.2029   21.1024 O   0  0  0  0  0  0  0  0  0  0  0  0
    9.3873  -17.9341   16.7482 O   0  0  0  0  0  0  0  0  0  0  0  0
    6.5625  -11.9969   27.8944 O   0  0  0  0  0  0  0  0  0  0  0  0
    6.7395  -12.5312   26.6198 C   0  0  0  0  0  0  0  0  0  0  0  0
    6.2247  -13.7651   26.3079 C   0  0  0  0  0  0  0  0  0  0  0  0
    6.3930  -14.3041   25.0516 C   0  0  0  0  0  0  0  0  0  0  0  0
    7.0884  -13.6328   24.0382 C   0  0  0  0  0  0  0  0  0  0  0  0
    7.2607  -14.2776   22.7360 C   0  0  0  0  0  0  0  0  0  0  0  0
    8.5113  -15.0733   22.5339 C   0  0  2  0  0  0  0  0  0  0  0  0
    8.4006  -15.8081   21.2434 N   0  0  0  0  0  0  0  0  0  0  0  0
    8.7992  -16.0554   23.5712 C   0  0  0  0  0  0  0  0  0  0  0  0
    8.1561  -17.1705   23.5485 O   0  0  0  0  0  0  0  0  0  0  0  0
    7.5867  -12.4012   24.3937 C   0  0  0  0  0  0  0  0  0  0  0  0
    7.4308  -11.8418   25.6442 C   0  0  0  0  0  0  0  0  0  0  0  0
    9.7218  -15.9562   24.6330 N   0  0  0  0  0  0  0  0  0  0  0  0
    9.9472  -17.0258   25.5913 C   0  0  1  0  0  0  0  0  0  0  0  0
   11.1633  -17.8078   25.0927 C   0  0  0  0  0  0  0  0  0  0  0  0
   12.4296  -17.0364   25.1147 C   0  0  0  0  0  0  0  0  0  0  0  0
   13.5899  -17.6667   24.4833 C   0  0  0  0  0  0  0  0  0  0  0  0
   14.2765  -18.5945   24.9860 O   0  0  0  0  0  0  0  0  0  0  0  0
   10.1481  -16.5833   26.9718 C   0  0  0  0  0  0  0  0  0  0  0  0
   10.1906  -15.3592   27.2276 O   0  0  0  0  0  0  0  0  0  0  0  0
   13.9995  -17.2330   23.2238 O   0  0  0  0  0  0  0  0  0  0  0  0
   10.2901  -17.4902   27.9898 O   0  0  0  0  0  0  0  0  0  0  0  0
  2  1  1  6
  2  3  1  0
  4  5  2  0
  4  3  1  0
  6  7  2  0
  6  2  1  0
  8  4  1  0
  9 10  1  0
 10 11  2  0
 11 12  1  0
 13 12  2  0
 13 14  1  0
 15 14  1  1
 15 16  1  0
 16  6  1  0
 17 15  1  0
 17 18  2  0
 19 13  1  0
 20 10  1  0
 20 19  2  0
 21 17  1  0
 22 21  1  0
 22 23  1  6
 24 23  1  0
 25 24  1  0
 26 25  2  0
 27 22  1  0
 28 27  2  0
 29 25  1  0
 30 27  1  0
M  END
$$$$
