DYE.pdb
     RDKit          3D

 30 30  0  0  1  0  0  0  0  0999 V2000
    7.3257  -17.7590   19.2792 N   0  0  0  0  0  0  0  0  0  0  0  0
    8.8142  -17.6124   19.2771 C   0  0  1  0  0  0  0  0  0  0  0  0
    9.1624  -17.1321   17.9010 C   0  0  0  0  0  0  0  0  0  0  0  0
   10.5947  -17.2402   17.6441 C   0  0  0  0  0  0  0  0  0  0  0  0
   11.3302  -17.9815   18.3141 O   0  0  0  0  0  0  0  0  0  0  0  0
    9.1370  -16.6640   20.3627 C   0  0  0  0  0  0  0  0  0  0  0  0
   10.2849  -16.2005   20.5059 O   0  0  0  0  0  0  0  0  0  0  0  0
   11.1886  -16.5020   16.6219 O   0  0  0  0  0  0  0  0  0  0  0  0
    7.0986  -12.0488   27.8686 O   0  0  0  0  0  0  0  0  0  0  0  0
    7.0949  -12.7499   26.6646 C   0  0  0  0  0  0  0  0  0  0  0  0
    7.5356  -12.1493   25.5114 C   0  0  0  0  0  0  0  0  0  0  0  0
    7.5368  -12.8318   24.3150 C   0  0  0  0  0  0  0  0  0  0  0  0
    7.0949  -14.1566   24.2108 C   0  0  0  0  0  0  0  0  0  0  0  0
    7.0901  -14.8118   22.9024 C   0  0  0  0  0  0  0  0  0  0  0  0
    8.3873  -15.3859   22.4271 C   0  0  2  0  0  0  0  0  0  0  0  0
    8.1133  -16.2728   21.2628 N   0  0  0  0  0  0  0  0  0  0  0  0
    9.1182  -16.1729   23.4118 C   0  0  0  0  0  0  0  0  0  0  0  0
    8.6917  -17.3572   23.6821 O   0  0  0  0  0  0  0  0  0  0  0  0
    6.6626  -14.7188   25.3891 C   0  0  0  0  0  0  0  0  0  0  0  0
    6.6522  -14.0556   26.5978 C   0  0  0  0  0  0  0  0  0  0  0  0
   10.2739  -15.8097   24.1336 N   0  0  0  0  0  0  0  0  0  0  0  0
   10.9861  -16.7284   25.0064 C   0  0  1  0  0  0  0  0  0  0  0  0
   12.4770  -16.5113   24.7433 C   0  0  0  0  0  0  0  0  0  0  0  0
   13.3674  -17.3680   25.5633 C   0  0  0  0  0  0  0  0  0  0  0  0
   14.8068  -17.1997   25.3580 C   0  0  0  0  0  0  0  0  0  0  0  0
   15.3561  -16.1820   24.8605 O   0  0  0  0  0  0  0  0  0  0  0  0
   10.6863  -16.5813   26.4314 C   0  0  0  0  0  0  0  0  0  0  0  0
   10.2217  -15.4998   26.8559 O   0  0  0  0  0  0  0  0  0  0  0  0
   15.6727  -18.2262   25.7304 O   0  0  0  0  0  0  0  0  0  0  0  0
   10.9063  -17.6112   27.3087 O   0  0  0  0  0  0  0  0  0  0  0  0
  2  1  1  6
  2  3  1  0
  4  5  2  0
  4  3  1  0
  6  7  2  0
  6  2  1  0
  8  4  1  0
  9 10  1  0
 10 11  2  0
 11 12  1  0
 13 12  2  0
 13 14  1  0
 15 14  1  1
 15 16  1  0
 16  6  1  0
 17 15  1  0
 17 18  2  0
 19 13  1  0
 20 10  1  0
 20 19  2  0
 21 17  1  0
 22 21  1  0
 22 23  1  1
 24 23  1  0
 25 24  1  0
 26 25  2  0
 27 22  1  0
 28 27  2  0
 29 25  1  0
 30 27  1  0
M  END
$$$$
