DYE.pdb
     RDKit          3D

 30 30  0  0  1  0  0  0  0  0999 V2000
    7.6583  -17.2431   18.9236 N   0  0  0  0  0  0  0  0  0  0  0  0
    9.1426  -17.1033   19.0430 C   0  0  1  0  0  0  0  0  0  0  0  0
    9.5887  -16.5000   17.7458 C   0  0  0  0  0  0  0  0  0  0  0  0
    9.0981  -17.2652   16.6043 C   0  0  0  0  0  0  0  0  0  0  0  0
    9.3665  -18.4670   16.4522 O   0  0  0  0  0  0  0  0  0  0  0  0
    9.3834  -16.2600   20.2317 C   0  0  0  0  0  0  0  0  0  0  0  0
   10.5075  -15.7810   20.4765 O   0  0  0  0  0  0  0  0  0  0  0  0
    8.3006  -16.6590   15.6353 O   0  0  0  0  0  0  0  0  0  0  0  0
    6.8829  -12.3230   27.9788 O   0  0  0  0  0  0  0  0  0  0  0  0
    6.9493  -12.9414   26.7320 C   0  0  0  0  0  0  0  0  0  0  0  0
    7.3778  -12.2401   25.6324 C   0  0  0  0  0  0  0  0  0  0  0  0
    7.4478  -12.8401   24.3946 C   0  0  0  0  0  0  0  0  0  0  0  0
    7.0909  -14.1792   24.1928 C   0  0  0  0  0  0  0  0  0  0  0  0
    7.1557  -14.7450   22.8449 C   0  0  0  0  0  0  0  0  0  0  0  0
    8.4955  -15.2100   22.3688 C   0  0  2  0  0  0  0  0  0  0  0  0
    8.3069  -15.9903   21.1145 N   0  0  0  0  0  0  0  0  0  0  0  0
    9.2291  -16.0555   23.3016 C   0  0  0  0  0  0  0  0  0  0  0  0
    8.8449  -17.2755   23.4484 O   0  0  0  0  0  0  0  0  0  0  0  0
    6.6679  -14.8435   25.3202 C   0  0  0  0  0  0  0  0  0  0  0  0
    6.5896  -14.2640   26.5688 C   0  0  0  0  0  0  0  0  0  0  0  0
   10.3465  -15.7157   24.0919 N   0  0  0  0  0  0  0  0  0  0  0  0
   11.1173  -16.6953   24.8397 C   0  0  1  0  0  0  0  0  0  0  0  0
   12.5866  -16.4493   24.4935 C   0  0  0  0  0  0  0  0  0  0  0  0
   13.5337  -17.3417   25.2047 C   0  0  0  0  0  0  0  0  0  0  0  0
   14.9571  -17.1287   24.9390 C   0  0  0  0  0  0  0  0  0  0  0  0
   15.8071  -18.0396   24.7577 O   0  0  0  0  0  0  0  0  0  0  0  0
   10.9155  -16.6614   26.2890 C   0  0  0  0  0  0  0  0  0  0  0  0
   10.4821  -15.6185   26.8275 O   0  0  0  0  0  0  0  0  0  0  0  0
   15.4507  -15.8271   24.8735 O   0  0  0  0  0  0  0  0  0  0  0  0
   11.1939  -17.7559   27.0658 O   0  0  0  0  0  0  0  0  0  0  0  0
  2  1  1  6
  2  3  1  0
  4  5  2  0
  4  3  1  0
  6  7  2  0
  6  2  1  0
  8  4  1  0
  9 10  1  0
 10 11  2  0
 11 12  1  0
 13 12  2  0
 13 14  1  0
 15 14  1  1
 15 16  1  0
 16  6  1  0
 17 15  1  0
 17 18  2  0
 19 13  1  0
 20 10  1  0
 20 19  2  0
 21 17  1  0
 22 21  1  0
 22 23  1  1
 24 23  1  0
 25 24  1  0
 26 25  2  0
 27 22  1  0
 28 27  2  0
 29 25  1  0
 30 27  1  0
M  END
$$$$
