DYE.pdb
     RDKit          3D

 30 30  0  0  1  0  0  0  0  0999 V2000
   10.8635  -17.7095   17.8551 N   0  0  0  0  0  0  0  0  0  0  0  0
   12.0816  -16.8420   17.8778 C   0  0  1  0  0  0  0  0  0  0  0  0
   12.0024  -16.0160   16.6299 C   0  0  0  0  0  0  0  0  0  0  0  0
   12.3598  -16.7960   15.4497 C   0  0  0  0  0  0  0  0  0  0  0  0
   12.6264  -18.0059   15.5153 O   0  0  0  0  0  0  0  0  0  0  0  0
   12.0149  -16.0697   19.1353 C   0  0  0  0  0  0  0  0  0  0  0  0
   12.8453  -15.1790   19.4002 O   0  0  0  0  0  0  0  0  0  0  0  0
   12.4133  -16.1950   14.1932 O   0  0  0  0  0  0  0  0  0  0  0  0
    6.8604  -11.8805   17.8884 O   0  0  0  0  0  0  0  0  0  0  0  0
    7.4654  -12.7498   18.7937 C   0  0  0  0  0  0  0  0  0  0  0  0
    8.3073  -12.2648   19.7636 C   0  0  0  0  0  0  0  0  0  0  0  0
    8.9113  -13.1139   20.6643 C   0  0  0  0  0  0  0  0  0  0  0  0
    8.7028  -14.4986   20.6405 C   0  0  0  0  0  0  0  0  0  0  0  0
    9.4031  -15.3475   21.6049 C   0  0  0  0  0  0  0  0  0  0  0  0
   10.8532  -15.6108   21.3483 C   0  0  2  0  0  0  0  0  0  0  0  0
   10.9790  -16.3507   20.0621 N   0  0  0  0  0  0  0  0  0  0  0  0
   11.5343  -16.3950   22.3704 C   0  0  0  0  0  0  0  0  0  0  0  0
   11.2791  -17.6549   22.4410 O   0  0  0  0  0  0  0  0  0  0  0  0
    7.8532  -14.9408   19.6537 C   0  0  0  0  0  0  0  0  0  0  0  0
    7.2375  -14.1102   18.7415 C   0  0  0  0  0  0  0  0  0  0  0  0
   12.4734  -15.9539   23.3253 N   0  0  0  0  0  0  0  0  0  0  0  0
   13.1173  -16.8452   24.2761 C   0  0  1  0  0  0  0  0  0  0  0  0
   14.5851  -16.4208   24.3454 C   0  0  0  0  0  0  0  0  0  0  0  0
   15.2507  -16.3256   23.0236 C   0  0  0  0  0  0  0  0  0  0  0  0
   16.6819  -16.0196   23.0332 C   0  0  0  0  0  0  0  0  0  0  0  0
   17.2556  -15.2512   23.8489 O   0  0  0  0  0  0  0  0  0  0  0  0
   12.5192  -16.8564   25.6119 C   0  0  0  0  0  0  0  0  0  0  0  0
   11.5759  -16.0768   25.8723 O   0  0  0  0  0  0  0  0  0  0  0  0
   17.5104  -16.6063   22.0785 O   0  0  0  0  0  0  0  0  0  0  0  0
   12.9770  -17.7090   26.5826 O   0  0  0  0  0  0  0  0  0  0  0  0
  2  1  1  1
  2  3  1  0
  4  5  2  0
  4  3  1  0
  6  7  2  0
  6  2  1  0
  8  4  1  0
  9 10  1  0
 10 11  2  0
 11 12  1  0
 13 12  2  0
 13 14  1  0
 15 14  1  1
 15 16  1  0
 16  6  1  0
 17 15  1  0
 17 18  2  0
 19 13  1  0
 20 10  1  0
 20 19  2  0
 21 17  1  0
 22 21  1  0
 22 23  1  1
 24 23  1  0
 25 24  1  0
 26 25  2  0
 27 22  1  0
 28 27  2  0
 29 25  1  0
 30 27  1  0
M  END
$$$$
