DYE.pdb
     RDKit          3D

 30 30  0  0  1  0  0  0  0  0999 V2000
    9.8722  -17.1729   18.9670 N   0  0  0  0  0  0  0  0  0  0  0  0
    9.7911  -17.7053   20.3623 C   0  0  1  0  0  0  0  0  0  0  0  0
   10.9501  -18.6460   20.4947 C   0  0  0  0  0  0  0  0  0  0  0  0
   10.9144  -19.6848   19.4707 C   0  0  0  0  0  0  0  0  0  0  0  0
   11.9416  -20.0838   18.9007 O   0  0  0  0  0  0  0  0  0  0  0  0
    9.8438  -16.5302   21.2560 C   0  0  0  0  0  0  0  0  0  0  0  0
   10.8739  -15.8374   21.3648 O   0  0  0  0  0  0  0  0  0  0  0  0
    9.7056  -20.2692   19.0965 O   0  0  0  0  0  0  0  0  0  0  0  0
    6.3810  -10.9939   27.4810 O   0  0  0  0  0  0  0  0  0  0  0  0
    6.6068  -11.8540   26.4083 C   0  0  0  0  0  0  0  0  0  0  0  0
    6.2406  -13.1746   26.4897 C   0  0  0  0  0  0  0  0  0  0  0  0
    6.4586  -14.0347   25.4362 C   0  0  0  0  0  0  0  0  0  0  0  0
    7.0569  -13.6153   24.2415 C   0  0  0  0  0  0  0  0  0  0  0  0
    7.2909  -14.5889   23.1744 C   0  0  0  0  0  0  0  0  0  0  0  0
    8.6984  -15.0577   22.9815 C   0  0  2  0  0  0  0  0  0  0  0  0
    8.6921  -16.1842   22.0076 N   0  0  0  0  0  0  0  0  0  0  0  0
    9.3692  -15.5275   24.1867 C   0  0  0  0  0  0  0  0  0  0  0  0
    9.7008  -14.6582   25.0766 O   0  0  0  0  0  0  0  0  0  0  0  0
    7.4074  -12.2860   24.2031 C   0  0  0  0  0  0  0  0  0  0  0  0
    7.1993  -11.4068   25.2446 C   0  0  0  0  0  0  0  0  0  0  0  0
    9.7142  -16.8503   24.5325 N   0  0  0  0  0  0  0  0  0  0  0  0
   10.3955  -17.1956   25.7692 C   0  0  1  0  0  0  0  0  0  0  0  0
    9.7046  -18.4476   26.3119 C   0  0  0  0  0  0  0  0  0  0  0  0
   10.2449  -18.9233   27.6084 C   0  0  0  0  0  0  0  0  0  0  0  0
    9.6331  -20.1292   28.1684 C   0  0  0  0  0  0  0  0  0  0  0  0
    9.1703  -20.2353   29.3344 O   0  0  0  0  0  0  0  0  0  0  0  0
   11.8363  -17.4169   25.6375 C   0  0  0  0  0  0  0  0  0  0  0  0
   12.2846  -17.9658   24.6063 O   0  0  0  0  0  0  0  0  0  0  0  0
    9.5361  -21.2735   27.3789 O   0  0  0  0  0  0  0  0  0  0  0  0
   12.7027  -17.0312   26.6271 O   0  0  0  0  0  0  0  0  0  0  0  0
  2  1  1  6
  2  3  1  0
  4  5  2  0
  4  3  1  0
  6  7  2  0
  6  2  1  0
  8  4  1  0
  9 10  1  0
 10 11  2  0
 11 12  1  0
 13 12  2  0
 13 14  1  0
 15 14  1  1
 15 16  1  0
 16  6  1  0
 17 15  1  0
 17 18  2  0
 19 13  1  0
 20 10  1  0
 20 19  2  0
 21 17  1  0
 22 21  1  0
 22 23  1  6
 24 23  1  0
 25 24  1  0
 26 25  2  0
 27 22  1  0
 28 27  2  0
 29 25  1  0
 30 27  1  0
M  END
$$$$
