DYE.pdb
     RDKit          3D

 30 30  0  0  1  0  0  0  0  0999 V2000
    8.9387  -18.1142   20.4627 N   0  0  0  0  0  0  0  0  0  0  0  0
   10.3053  -17.5072   20.4897 C   0  0  1  0  0  0  0  0  0  0  0  0
   10.5588  -17.0407   19.0883 C   0  0  0  0  0  0  0  0  0  0  0  0
   11.0201  -18.1325   18.2372 C   0  0  0  0  0  0  0  0  0  0  0  0
   10.7579  -19.3191   18.4875 O   0  0  0  0  0  0  0  0  0  0  0  0
   10.2589  -16.4308   21.5004 C   0  0  0  0  0  0  0  0  0  0  0  0
   11.2521  -15.7181   21.7424 O   0  0  0  0  0  0  0  0  0  0  0  0
   11.7812  -17.8704   17.0994 O   0  0  0  0  0  0  0  0  0  0  0  0
    6.0289  -11.2903   27.5908 O   0  0  0  0  0  0  0  0  0  0  0  0
    6.3853  -12.1114   26.5230 C   0  0  0  0  0  0  0  0  0  0  0  0
    6.0927  -13.4525   26.5522 C   0  0  0  0  0  0  0  0  0  0  0  0
    6.4397  -14.2745   25.5030 C   0  0  0  0  0  0  0  0  0  0  0  0
    7.1005  -13.7945   24.3653 C   0  0  0  0  0  0  0  0  0  0  0  0
    7.4713  -14.7286   23.3018 C   0  0  0  0  0  0  0  0  0  0  0  0
    8.9174  -15.0973   23.1974 C   0  0  2  0  0  0  0  0  0  0  0  0
    9.0528  -16.2050   22.2113 N   0  0  0  0  0  0  0  0  0  0  0  0
    9.5383  -15.5409   24.4388 C   0  0  0  0  0  0  0  0  0  0  0  0
   10.1861  -14.6755   25.1381 O   0  0  0  0  0  0  0  0  0  0  0  0
    7.3738  -12.4467   24.3781 C   0  0  0  0  0  0  0  0  0  0  0  0
    7.0363  -11.6047   25.4164 C   0  0  0  0  0  0  0  0  0  0  0  0
    9.5245  -16.8312   25.0074 N   0  0  0  0  0  0  0  0  0  0  0  0
   10.2076  -17.1594   26.2478 C   0  0  1  0  0  0  0  0  0  0  0  0
    9.4244  -18.3081   26.8853 C   0  0  0  0  0  0  0  0  0  0  0  0
   10.0293  -18.8341   28.1329 C   0  0  0  0  0  0  0  0  0  0  0  0
    9.3959  -20.0166   28.7182 C   0  0  0  0  0  0  0  0  0  0  0  0
    8.3970  -20.6171   28.2421 O   0  0  0  0  0  0  0  0  0  0  0  0
   11.6188  -17.5174   26.0974 C   0  0  0  0  0  0  0  0  0  0  0  0
   12.0266  -17.9747   25.0065 O   0  0  0  0  0  0  0  0  0  0  0  0
    9.9103  -20.5516   29.8977 O   0  0  0  0  0  0  0  0  0  0  0  0
   12.5012  -17.3588   27.1343 O   0  0  0  0  0  0  0  0  0  0  0  0
  2  1  1  6
  2  3  1  0
  4  5  2  0
  4  3  1  0
  6  7  2  0
  6  2  1  0
  8  4  1  0
  9 10  1  0
 10 11  2  0
 11 12  1  0
 13 12  2  0
 13 14  1  0
 15 14  1  1
 15 16  1  0
 16  6  1  0
 17 15  1  0
 17 18  2  0
 19 13  1  0
 20 10  1  0
 20 19  2  0
 21 17  1  0
 22 21  1  0
 22 23  1  6
 24 23  1  0
 25 24  1  0
 26 25  2  0
 27 22  1  0
 28 27  2  0
 29 25  1  0
 30 27  1  0
M  END
$$$$
