DYE.pdb
     RDKit          3D

 30 30  0  0  1  0  0  0  0  0999 V2000
    8.9967  -15.4394   19.1769 N   0  0  0  0  0  0  0  0  0  0  0  0
    8.4138  -16.1446   20.3601 C   0  0  1  0  0  0  0  0  0  0  0  0
    8.6042  -17.6050   20.0835 C   0  0  0  0  0  0  0  0  0  0  0  0
    7.8976  -18.0163   18.8749 C   0  0  0  0  0  0  0  0  0  0  0  0
    8.0615  -19.1351   18.3643 O   0  0  0  0  0  0  0  0  0  0  0  0
    9.1423  -15.6393   21.5417 C   0  0  0  0  0  0  0  0  0  0  0  0
   10.3231  -15.2487   21.4639 O   0  0  0  0  0  0  0  0  0  0  0  0
    7.0032  -17.1504   18.2482 O   0  0  0  0  0  0  0  0  0  0  0  0
   10.0862  -14.4164   30.4110 O   0  0  0  0  0  0  0  0  0  0  0  0
    9.6161  -14.4896   29.1014 C   0  0  0  0  0  0  0  0  0  0  0  0
    9.1816  -15.6859   28.5867 C   0  0  0  0  0  0  0  0  0  0  0  0
    8.7147  -15.7711   27.2937 C   0  0  0  0  0  0  0  0  0  0  0  0
    8.6582  -14.6581   26.4454 C   0  0  0  0  0  0  0  0  0  0  0  0
    8.1837  -14.8251   25.0713 C   0  0  0  0  0  0  0  0  0  0  0  0
    9.1945  -15.2447   24.0515 C   0  0  2  0  0  0  0  0  0  0  0  0
    8.4790  -15.5986   22.7944 N   0  0  0  0  0  0  0  0  0  0  0  0
   10.0154  -16.3900   24.4227 C   0  0  0  0  0  0  0  0  0  0  0  0
    9.4629  -17.5527   24.4455 O   0  0  0  0  0  0  0  0  0  0  0  0
    9.1027  -13.4814   27.0013 C   0  0  0  0  0  0  0  0  0  0  0  0
    9.5742  -13.3720   28.2923 C   0  0  0  0  0  0  0  0  0  0  0  0
   11.3826  -16.4069   24.7676 N   0  0  0  0  0  0  0  0  0  0  0  0
   12.1021  -17.6250   25.1015 C   0  0  1  0  0  0  0  0  0  0  0  0
   13.2755  -17.7190   24.1249 C   0  0  0  0  0  0  0  0  0  0  0  0
   14.1752  -16.5403   24.1445 C   0  0  0  0  0  0  0  0  0  0  0  0
   15.2506  -16.5225   23.1520 C   0  0  0  0  0  0  0  0  0  0  0  0
   16.4218  -16.1080   23.3562 O   0  0  0  0  0  0  0  0  0  0  0  0
   12.5740  -17.7019   26.4848 C   0  0  0  0  0  0  0  0  0  0  0  0
   13.1330  -18.7458   26.8891 O   0  0  0  0  0  0  0  0  0  0  0  0
   14.9979  -16.9941   21.8652 O   0  0  0  0  0  0  0  0  0  0  0  0
   12.4131  -16.6468   27.3448 O   0  0  0  0  0  0  0  0  0  0  0  0
  2  1  1  6
  2  3  1  0
  4  5  2  0
  4  3  1  0
  6  7  2  0
  6  2  1  0
  8  4  1  0
  9 10  1  0
 10 11  2  0
 11 12  1  0
 13 12  2  0
 13 14  1  0
 15 14  1  1
 15 16  1  0
 16  6  1  0
 17 15  1  0
 17 18  2  0
 19 13  1  0
 20 10  1  0
 20 19  2  0
 21 17  1  0
 22 21  1  0
 22 23  1  6
 24 23  1  0
 25 24  1  0
 26 25  2  0
 27 22  1  0
 28 27  2  0
 29 25  1  0
 30 27  1  0
M  END
$$$$
