DYE.pdb
     RDKit          3D

 30 30  0  0  1  0  0  0  0  0999 V2000
   10.1411  -16.7561   18.5859 N   0  0  0  0  0  0  0  0  0  0  0  0
    9.1205  -17.2027   19.5838 C   0  0  1  0  0  0  0  0  0  0  0  0
    9.3825  -18.6637   19.7907 C   0  0  0  0  0  0  0  0  0  0  0  0
    9.0233  -19.4430   18.6105 C   0  0  0  0  0  0  0  0  0  0  0  0
    7.8676  -19.4610   18.1594 O   0  0  0  0  0  0  0  0  0  0  0  0
    9.3207  -16.3632   20.7827 C   0  0  0  0  0  0  0  0  0  0  0  0
   10.4419  -15.9102   21.0837 O   0  0  0  0  0  0  0  0  0  0  0  0
    9.9834  -20.2025   17.9443 O   0  0  0  0  0  0  0  0  0  0  0  0
    6.4925  -12.2001   28.2620 O   0  0  0  0  0  0  0  0  0  0  0  0
    6.6135  -12.7834   27.0024 C   0  0  0  0  0  0  0  0  0  0  0  0
    6.2422  -14.0903   26.8052 C   0  0  0  0  0  0  0  0  0  0  0  0
    6.3570  -14.6782   25.5649 C   0  0  0  0  0  0  0  0  0  0  0  0
    6.8516  -13.9850   24.4530 C   0  0  0  0  0  0  0  0  0  0  0  0
    6.9801  -14.6799   23.1717 C   0  0  0  0  0  0  0  0  0  0  0  0
    8.3344  -15.2098   22.8210 C   0  0  2  0  0  0  0  0  0  0  0  0
    8.2076  -16.0669   21.6098 N   0  0  0  0  0  0  0  0  0  0  0  0
    8.9774  -16.0097   23.8553 C   0  0  0  0  0  0  0  0  0  0  0  0
    8.4506  -17.1434   24.1631 O   0  0  0  0  0  0  0  0  0  0  0  0
    7.2113  -12.6799   24.6954 C   0  0  0  0  0  0  0  0  0  0  0  0
    7.1053  -12.0705   25.9277 C   0  0  0  0  0  0  0  0  0  0  0  0
   10.1426  -15.7095   24.5906 N   0  0  0  0  0  0  0  0  0  0  0  0
   10.6488  -16.5575   25.6572 C   0  0  1  0  0  0  0  0  0  0  0  0
   12.1441  -16.7422   25.3940 C   0  0  0  0  0  0  0  0  0  0  0  0
   12.5007  -16.8191   23.9566 C   0  0  0  0  0  0  0  0  0  0  0  0
   13.9228  -16.9648   23.6430 C   0  0  0  0  0  0  0  0  0  0  0  0
   14.7570  -16.0230   23.5955 O   0  0  0  0  0  0  0  0  0  0  0  0
   10.4217  -16.0471   27.0100 C   0  0  0  0  0  0  0  0  0  0  0  0
    9.9863  -14.8844   27.1659 O   0  0  0  0  0  0  0  0  0  0  0  0
   14.4338  -18.2321   23.3691 O   0  0  0  0  0  0  0  0  0  0  0  0
   10.6784  -16.8241   28.1096 O   0  0  0  0  0  0  0  0  0  0  0  0
  2  1  1  6
  2  3  1  0
  4  5  2  0
  4  3  1  0
  6  7  2  0
  6  2  1  0
  8  4  1  0
  9 10  1  0
 10 11  2  0
 11 12  1  0
 13 12  2  0
 13 14  1  0
 15 14  1  1
 15 16  1  0
 16  6  1  0
 17 15  1  0
 17 18  2  0
 19 13  1  0
 20 10  1  0
 20 19  2  0
 21 17  1  0
 22 21  1  0
 22 23  1  6
 24 23  1  0
 25 24  1  0
 26 25  2  0
 27 22  1  0
 28 27  2  0
 29 25  1  0
 30 27  1  0
M  END
$$$$
