DYE.pdb
     RDKit          3D

 30 30  0  0  1  0  0  0  0  0999 V2000
    9.8736  -18.5550   20.5303 N   0  0  0  0  0  0  0  0  0  0  0  0
   11.1363  -17.8040   20.8106 C   0  0  1  0  0  0  0  0  0  0  0  0
   11.4661  -17.0939   19.5328 C   0  0  0  0  0  0  0  0  0  0  0  0
   12.1118  -17.9872   18.5767 C   0  0  0  0  0  0  0  0  0  0  0  0
   12.4869  -19.1276   18.8898 O   0  0  0  0  0  0  0  0  0  0  0  0
   10.8428  -16.9152   21.9534 C   0  0  0  0  0  0  0  0  0  0  0  0
   11.6751  -16.0845   22.3661 O   0  0  0  0  0  0  0  0  0  0  0  0
   12.3298  -17.5792   17.2619 O   0  0  0  0  0  0  0  0  0  0  0  0
    7.0628  -12.2899   18.9614 O   0  0  0  0  0  0  0  0  0  0  0  0
    7.2798  -13.0792   20.0889 C   0  0  0  0  0  0  0  0  0  0  0  0
    6.8109  -14.3688   20.1329 C   0  0  0  0  0  0  0  0  0  0  0  0
    7.0189  -15.1590   21.2417 C   0  0  0  0  0  0  0  0  0  0  0  0
    7.7103  -14.6971   22.3686 C   0  0  0  0  0  0  0  0  0  0  0  0
    7.8660  -15.5773   23.5271 C   0  0  0  0  0  0  0  0  0  0  0  0
    9.2256  -16.1561   23.7606 C   0  0  2  0  0  0  0  0  0  0  0  0
    9.5818  -17.0116   22.5950 N   0  0  0  0  0  0  0  0  0  0  0  0
    9.3564  -16.9754   24.9585 C   0  0  0  0  0  0  0  0  0  0  0  0
    8.5936  -18.0058   25.0771 O   0  0  0  0  0  0  0  0  0  0  0  0
    8.1621  -13.4011   22.2817 C   0  0  0  0  0  0  0  0  0  0  0  0
    7.9658  -12.5917   21.1829 C   0  0  0  0  0  0  0  0  0  0  0  0
   10.2379  -16.7965   26.0445 N   0  0  0  0  0  0  0  0  0  0  0  0
   10.5355  -17.8449   27.0064 C   0  0  1  0  0  0  0  0  0  0  0  0
   11.9011  -18.4152   26.6201 C   0  0  0  0  0  0  0  0  0  0  0  0
   12.3429  -19.5520   27.4636 C   0  0  0  0  0  0  0  0  0  0  0  0
   13.6315  -20.1566   27.1228 C   0  0  0  0  0  0  0  0  0  0  0  0
   14.6206  -20.2449   27.8966 O   0  0  0  0  0  0  0  0  0  0  0  0
   10.5322  -17.4157   28.4057 C   0  0  0  0  0  0  0  0  0  0  0  0
   10.2656  -18.2441   29.3047 O   0  0  0  0  0  0  0  0  0  0  0  0
   13.8184  -20.6890   25.8485 O   0  0  0  0  0  0  0  0  0  0  0  0
   10.8173  -16.1190   28.7466 O   0  0  0  0  0  0  0  0  0  0  0  0
  2  1  1  6
  2  3  1  0
  4  5  2  0
  4  3  1  0
  6  7  2  0
  6  2  1  0
  8  4  1  0
  9 10  1  0
 10 11  2  0
 11 12  1  0
 13 12  2  0
 13 14  1  0
 15 14  1  6
 15 16  1  0
 16  6  1  0
 17 15  1  0
 17 18  2  0
 19 13  1  0
 20 10  1  0
 20 19  2  0
 21 17  1  0
 22 21  1  0
 22 23  1  6
 24 23  1  0
 25 24  1  0
 26 25  2  0
 27 22  1  0
 28 27  2  0
 29 25  1  0
 30 27  1  0
M  END
$$$$
