DYE.pdb
     RDKit          3D

 30 30  0  0  1  0  0  0  0  0999 V2000
   10.3454  -16.7316   18.5960 N   0  0  0  0  0  0  0  0  0  0  0  0
    9.2456  -17.1124   19.5353 C   0  0  1  0  0  0  0  0  0  0  0  0
    9.3558  -18.5988   19.6914 C   0  0  0  0  0  0  0  0  0  0  0  0
    8.9086  -19.2965   18.4905 C   0  0  0  0  0  0  0  0  0  0  0  0
    8.0861  -18.7982   17.7065 O   0  0  0  0  0  0  0  0  0  0  0  0
    9.4761  -16.3422   20.7745 C   0  0  0  0  0  0  0  0  0  0  0  0
   10.6261  -16.0827   21.1786 O   0  0  0  0  0  0  0  0  0  0  0  0
    9.4001  -20.5641   18.1834 O   0  0  0  0  0  0  0  0  0  0  0  0
    6.8520  -11.4202   27.8822 O   0  0  0  0  0  0  0  0  0  0  0  0
    6.9423  -12.1622   26.7064 C   0  0  0  0  0  0  0  0  0  0  0  0
    7.6208  -11.6632   25.6222 C   0  0  0  0  0  0  0  0  0  0  0  0
    7.7171  -12.3869   24.4543 C   0  0  0  0  0  0  0  0  0  0  0  0
    7.1366  -13.6533   24.3108 C   0  0  0  0  0  0  0  0  0  0  0  0
    7.2470  -14.3537   23.0307 C   0  0  0  0  0  0  0  0  0  0  0  0
    8.5195  -15.0966   22.7723 C   0  0  2  0  0  0  0  0  0  0  0  0
    8.3592  -15.8877   21.5209 N   0  0  0  0  0  0  0  0  0  0  0  0
    8.9255  -16.0209   23.8231 C   0  0  0  0  0  0  0  0  0  0  0  0
    8.2302  -17.0909   23.9942 O   0  0  0  0  0  0  0  0  0  0  0  0
    6.4673  -14.1143   25.4202 C   0  0  0  0  0  0  0  0  0  0  0  0
    6.3577  -13.4080   26.5993 C   0  0  0  0  0  0  0  0  0  0  0  0
   10.0171  -15.9084   24.7086 N   0  0  0  0  0  0  0  0  0  0  0  0
   10.3283  -16.9088   25.7163 C   0  0  1  0  0  0  0  0  0  0  0  0
   11.8091  -17.2517   25.5465 C   0  0  0  0  0  0  0  0  0  0  0  0
   12.2275  -17.4468   24.1372 C   0  0  0  0  0  0  0  0  0  0  0  0
   13.6232  -17.8281   23.9167 C   0  0  0  0  0  0  0  0  0  0  0  0
   14.0120  -18.7635   23.1691 O   0  0  0  0  0  0  0  0  0  0  0  0
   10.0468  -16.5031   27.0941 C   0  0  0  0  0  0  0  0  0  0  0  0
    9.7092  -15.3222   27.3330 O   0  0  0  0  0  0  0  0  0  0  0  0
   14.6332  -17.1231   24.5687 O   0  0  0  0  0  0  0  0  0  0  0  0
   10.1469  -17.3980   28.1275 O   0  0  0  0  0  0  0  0  0  0  0  0
  2  1  1  6
  2  3  1  0
  4  5  2  0
  4  3  1  0
  6  7  2  0
  6  2  1  0
  8  4  1  0
  9 10  1  0
 10 11  2  0
 11 12  1  0
 13 12  2  0
 13 14  1  0
 15 14  1  1
 15 16  1  0
 16  6  1  0
 17 15  1  0
 17 18  2  0
 19 13  1  0
 20 10  1  0
 20 19  2  0
 21 17  1  0
 22 21  1  0
 22 23  1  1
 24 23  1  0
 25 24  1  0
 26 25  2  0
 27 22  1  0
 28 27  2  0
 29 25  1  0
 30 27  1  0
M  END
$$$$
