DYE.pdb
     RDKit          3D

 30 30  0  0  1  0  0  0  0  0999 V2000
    9.5395  -18.3679   21.0254 N   0  0  0  0  0  0  0  0  0  0  0  0
   10.8507  -17.6484   21.0331 C   0  0  1  0  0  0  0  0  0  0  0  0
   11.0377  -17.1520   19.6315 C   0  0  0  0  0  0  0  0  0  0  0  0
   12.0338  -17.9407   18.9140 C   0  0  0  0  0  0  0  0  0  0  0  0
   12.5324  -18.9692   19.3967 O   0  0  0  0  0  0  0  0  0  0  0  0
   10.7331  -16.5872   22.0539 C   0  0  0  0  0  0  0  0  0  0  0  0
   11.7335  -15.9838   22.4877 O   0  0  0  0  0  0  0  0  0  0  0  0
   12.4615  -17.5559   17.6446 O   0  0  0  0  0  0  0  0  0  0  0  0
    6.1139  -10.9725   27.4121 O   0  0  0  0  0  0  0  0  0  0  0  0
    6.5307  -11.9031   26.4625 C   0  0  0  0  0  0  0  0  0  0  0  0
    7.3882  -11.5309   25.4571 C   0  0  0  0  0  0  0  0  0  0  0  0
    7.8074  -12.4414   24.5125 C   0  0  0  0  0  0  0  0  0  0  0  0
    7.3880  -13.7776   24.5257 C   0  0  0  0  0  0  0  0  0  0  0  0
    7.8441  -14.6845   23.4718 C   0  0  0  0  0  0  0  0  0  0  0  0
    9.2558  -15.1714   23.5608 C   0  0  2  0  0  0  0  0  0  0  0  0
    9.4488  -16.2485   22.5508 N   0  0  0  0  0  0  0  0  0  0  0  0
    9.6474  -15.7130   24.8556 C   0  0  0  0  0  0  0  0  0  0  0  0
    9.9205  -14.8858   25.8036 O   0  0  0  0  0  0  0  0  0  0  0  0
    6.5304  -14.1067   25.5492 C   0  0  0  0  0  0  0  0  0  0  0  0
    6.0974  -13.2129   26.5055 C   0  0  0  0  0  0  0  0  0  0  0  0
    9.7683  -17.0661   25.2336 N   0  0  0  0  0  0  0  0  0  0  0  0
   10.0903  -17.4865   26.5873 C   0  0  1  0  0  0  0  0  0  0  0  0
    9.4437  -18.8588   26.7823 C   0  0  0  0  0  0  0  0  0  0  0  0
    9.7440  -19.4890   28.0907 C   0  0  0  0  0  0  0  0  0  0  0  0
    9.2535  -20.8540   28.2865 C   0  0  0  0  0  0  0  0  0  0  0  0
    8.5743  -21.2483   29.2705 O   0  0  0  0  0  0  0  0  0  0  0  0
   11.5210  -17.5418   26.8910 C   0  0  0  0  0  0  0  0  0  0  0  0
   11.9122  -17.3298   28.0605 O   0  0  0  0  0  0  0  0  0  0  0  0
    9.5403  -21.8249   27.3288 O   0  0  0  0  0  0  0  0  0  0  0  0
   12.4395  -17.8227   25.9132 O   0  0  0  0  0  0  0  0  0  0  0  0
  2  1  1  6
  2  3  1  0
  4  5  2  0
  4  3  1  0
  6  7  2  0
  6  2  1  0
  8  4  1  0
  9 10  1  0
 10 11  2  0
 11 12  1  0
 13 12  2  0
 13 14  1  0
 15 14  1  1
 15 16  1  0
 16  6  1  0
 17 15  1  0
 17 18  2  0
 19 13  1  0
 20 10  1  0
 20 19  2  0
 21 17  1  0
 22 21  1  0
 22 23  1  6
 24 23  1  0
 25 24  1  0
 26 25  2  0
 27 22  1  0
 28 27  2  0
 29 25  1  0
 30 27  1  0
M  END
$$$$
