DYE.pdb
     RDKit          3D

 30 30  0  0  1  0  0  0  0  0999 V2000
    9.4089  -17.0192   18.0364 N   0  0  0  0  0  0  0  0  0  0  0  0
    8.4025  -17.3046   19.1054 C   0  0  1  0  0  0  0  0  0  0  0  0
    8.4251  -18.7925   19.2828 C   0  0  0  0  0  0  0  0  0  0  0  0
    7.3260  -19.4324   18.5676 C   0  0  0  0  0  0  0  0  0  0  0  0
    6.9899  -19.0817   17.4260 O   0  0  0  0  0  0  0  0  0  0  0  0
    8.8301  -16.5343   20.2911 C   0  0  0  0  0  0  0  0  0  0  0  0
   10.0347  -16.3805   20.5710 O   0  0  0  0  0  0  0  0  0  0  0  0
    6.6096  -20.4736   19.1553 O   0  0  0  0  0  0  0  0  0  0  0  0
    7.3434  -12.1087   28.0001 O   0  0  0  0  0  0  0  0  0  0  0  0
    7.2595  -12.6684   26.7269 C   0  0  0  0  0  0  0  0  0  0  0  0
    6.6073  -13.8613   26.5358 C   0  0  0  0  0  0  0  0  0  0  0  0
    6.5176  -14.4248   25.2822 C   0  0  0  0  0  0  0  0  0  0  0  0
    7.0787  -13.8206   24.1501 C   0  0  0  0  0  0  0  0  0  0  0  0
    6.9770  -14.4904   22.8531 C   0  0  0  0  0  0  0  0  0  0  0  0
    8.2041  -15.1824   22.3497 C   0  0  2  0  0  0  0  0  0  0  0  0
    7.8434  -15.9565   21.1298 N   0  0  0  0  0  0  0  0  0  0  0  0
    8.8248  -16.1099   23.2866 C   0  0  0  0  0  0  0  0  0  0  0  0
    8.2531  -17.2461   23.4867 O   0  0  0  0  0  0  0  0  0  0  0  0
    7.7219  -12.6284   24.3871 C   0  0  0  0  0  0  0  0  0  0  0  0
    7.8244  -12.0455   25.6323 C   0  0  0  0  0  0  0  0  0  0  0  0
   10.0111  -15.9355   24.0286 N   0  0  0  0  0  0  0  0  0  0  0  0
   10.5586  -16.9597   24.9027 C   0  0  1  0  0  0  0  0  0  0  0  0
   12.0724  -16.9549   24.6841 C   0  0  0  0  0  0  0  0  0  0  0  0
   12.8014  -17.9760   25.4747 C   0  0  0  0  0  0  0  0  0  0  0  0
   14.2459  -18.0630   25.2560 C   0  0  0  0  0  0  0  0  0  0  0  0
   15.0419  -18.7691   25.9290 O   0  0  0  0  0  0  0  0  0  0  0  0
   10.2411  -16.7923   26.3216 C   0  0  0  0  0  0  0  0  0  0  0  0
   10.0951  -15.6411   26.7897 O   0  0  0  0  0  0  0  0  0  0  0  0
   14.8256  -17.3196   24.2297 O   0  0  0  0  0  0  0  0  0  0  0  0
   10.1008  -17.8783   27.1461 O   0  0  0  0  0  0  0  0  0  0  0  0
  2  1  1  6
  2  3  1  0
  4  5  2  0
  4  3  1  0
  6  7  2  0
  6  2  1  0
  8  4  1  0
  9 10  1  0
 10 11  2  0
 11 12  1  0
 13 12  2  0
 13 14  1  0
 15 14  1  1
 15 16  1  0
 16  6  1  0
 17 15  1  0
 17 18  2  0
 19 13  1  0
 20 10  1  0
 20 19  2  0
 21 17  1  0
 22 21  1  0
 22 23  1  1
 24 23  1  0
 25 24  1  0
 26 25  2  0
 27 22  1  0
 28 27  2  0
 29 25  1  0
 30 27  1  0
M  END
$$$$
