DYE.pdb
     RDKit          3D

 30 30  0  0  1  0  0  0  0  0999 V2000
    9.2518  -17.9870   20.5948 N   0  0  0  0  0  0  0  0  0  0  0  0
   10.6390  -17.4604   20.7828 C   0  0  1  0  0  0  0  0  0  0  0  0
   11.0523  -16.9454   19.4375 C   0  0  0  0  0  0  0  0  0  0  0  0
   11.2148  -18.0315   18.4768 C   0  0  0  0  0  0  0  0  0  0  0  0
   11.1618  -19.2240   18.8151 O   0  0  0  0  0  0  0  0  0  0  0  0
   10.5499  -16.4305   21.8380 C   0  0  0  0  0  0  0  0  0  0  0  0
   11.5536  -15.7993   22.2218 O   0  0  0  0  0  0  0  0  0  0  0  0
   11.4381  -17.7571   17.1287 O   0  0  0  0  0  0  0  0  0  0  0  0
    6.1164  -11.0083   27.5286 O   0  0  0  0  0  0  0  0  0  0  0  0
    6.4923  -11.9337   26.5572 C   0  0  0  0  0  0  0  0  0  0  0  0
    7.3040  -11.5553   25.5166 C   0  0  0  0  0  0  0  0  0  0  0  0
    7.6826  -12.4607   24.5502 C   0  0  0  0  0  0  0  0  0  0  0  0
    7.2662  -13.7976   24.5755 C   0  0  0  0  0  0  0  0  0  0  0  0
    7.6767  -14.6987   23.4982 C   0  0  0  0  0  0  0  0  0  0  0  0
    9.1191  -15.0935   23.4575 C   0  0  2  0  0  0  0  0  0  0  0  0
    9.2898  -16.1550   22.4272 N   0  0  0  0  0  0  0  0  0  0  0  0
    9.6591  -15.6099   24.7085 C   0  0  0  0  0  0  0  0  0  0  0  0
   10.1022  -14.7661   25.5742 O   0  0  0  0  0  0  0  0  0  0  0  0
    6.4551  -14.1331   25.6343 C   0  0  0  0  0  0  0  0  0  0  0  0
    6.0633  -13.2445   26.6130 C   0  0  0  0  0  0  0  0  0  0  0  0
    9.7633  -16.9534   25.1239 N   0  0  0  0  0  0  0  0  0  0  0  0
   10.2825  -17.3444   26.4241 C   0  0  1  0  0  0  0  0  0  0  0  0
    9.4507  -18.5433   26.8823 C   0  0  0  0  0  0  0  0  0  0  0  0
    9.8467  -19.0848   28.2049 C   0  0  0  0  0  0  0  0  0  0  0  0
    9.1527  -20.2939   28.6503 C   0  0  0  0  0  0  0  0  0  0  0  0
    8.1123  -20.7703   28.1253 O   0  0  0  0  0  0  0  0  0  0  0  0
   11.7098  -17.6677   26.4453 C   0  0  0  0  0  0  0  0  0  0  0  0
   12.3253  -17.6728   27.5347 O   0  0  0  0  0  0  0  0  0  0  0  0
    9.6526  -21.0039   29.7404 O   0  0  0  0  0  0  0  0  0  0  0  0
   12.3830  -17.9656   25.2891 O   0  0  0  0  0  0  0  0  0  0  0  0
  2  1  1  6
  2  3  1  0
  4  5  2  0
  4  3  1  0
  6  7  2  0
  6  2  1  0
  8  4  1  0
  9 10  1  0
 10 11  2  0
 11 12  1  0
 13 12  2  0
 13 14  1  0
 15 14  1  1
 15 16  1  0
 16  6  1  0
 17 15  1  0
 17 18  2  0
 19 13  1  0
 20 10  1  0
 20 19  2  0
 21 17  1  0
 22 21  1  0
 22 23  1  6
 24 23  1  0
 25 24  1  0
 26 25  2  0
 27 22  1  0
 28 27  2  0
 29 25  1  0
 30 27  1  0
M  END
$$$$
