VTS.pdb
     RDKit          3D

 21 20  0  0  1  0  0  0  0  0999 V2000
   12.9305   -8.9952  -11.2557 C   0  0  0  0  0  0  0  0  0  0  0  0
   13.5970   -9.8834  -10.2508 C   0  0  2  0  0  0  0  0  0  0  0  0
   12.9296   -9.7792   -8.8794 C   0  0  0  0  0  0  0  0  0  0  0  0
   15.0545   -9.5591  -10.0369 C   0  0  2  0  0  0  0  0  0  0  0  0
   15.1334   -8.2552   -9.4321 N   0  0  0  0  0  0  0  0  0  0  0  0
   15.8202   -9.5282  -11.3065 C   0  0  0  0  0  0  0  0  0  0  0  0
   16.0118  -10.5721  -11.9809 O   0  0  0  0  0  0  0  0  0  0  0  0
   15.0273   -8.0048  -14.5048 C   0  0  0  0  0  0  0  0  0  0  0  0
   16.2279   -7.2898  -13.9579 C   0  0  1  0  0  0  0  0  0  0  0  0
   15.7539   -6.2091  -13.1899 O   0  0  0  0  0  0  0  0  0  0  0  0
   17.0657   -8.2220  -13.0714 C   0  0  2  0  0  0  0  0  0  0  0  0
   16.3695   -8.3033  -11.8089 N   0  0  0  0  0  0  0  0  0  0  0  0
   18.4341   -7.6967  -12.8993 C   0  0  0  0  0  0  0  0  0  0  0  0
   18.6774   -7.0128  -11.8736 O   0  0  0  0  0  0  0  0  0  0  0  0
   23.0718   -7.7528  -14.1525 O   0  0  0  0  0  0  0  0  0  0  0  0
   21.8037   -8.3010  -14.2633 C   0  0  0  0  0  0  0  0  0  0  0  0
   20.7798   -7.4001  -13.6110 C   0  0  2  0  0  0  0  0  0  0  0  0
   19.4591   -7.9442  -13.8508 N   0  0  0  0  0  0  0  0  0  0  0  0
   20.8278   -6.0248  -14.1697 C   0  0  0  0  0  0  0  0  0  0  0  0
   21.6515   -5.0486  -13.6497 O   0  0  0  0  0  0  0  0  0  0  0  0
   20.0839   -5.7515  -15.1552 O   0  0  0  0  0  0  0  0  0  0  0  0
  2  1  1  6
  2  3  1  0
  4  6  1  0
  4  2  1  0
  4  5  1  6
  6 12  1  0
  7  6  2  0
  9  8  1  1
  9 11  1  0
 10  9  1  0
 11 13  1  0
 11 12  1  1
 13 14  2  0
 13 18  1  0
 16 15  1  0
 17 19  1  0
 17 16  1  6
 18 17  1  0
 19 20  1  0
 21 19  2  0
M  END
$$$$
