VTS.pdb
     RDKit          3D

 21 20  0  0  1  0  0  0  0  0999 V2000
   28.5333  -18.1888  -16.9594 C   0  0  0  0  0  0  0  0  0  0  0  0
   27.4297  -19.0489  -16.4253 C   0  0  2  0  0  0  0  0  0  0  0  0
   26.2582  -18.2080  -15.9177 C   0  0  0  0  0  0  0  0  0  0  0  0
   27.8546  -19.9217  -15.2709 C   0  0  2  0  0  0  0  0  0  0  0  0
   28.9314  -20.7624  -15.7248 N   0  0  0  0  0  0  0  0  0  0  0  0
   26.7578  -20.7945  -14.7868 C   0  0  0  0  0  0  0  0  0  0  0  0
   26.4519  -21.8556  -15.3881 O   0  0  0  0  0  0  0  0  0  0  0  0
   26.4609  -21.5298  -11.0434 C   0  0  0  0  0  0  0  0  0  0  0  0
   25.0902  -21.1682  -11.5354 C   0  0  1  0  0  0  0  0  0  0  0  0
   24.8638  -19.8236  -11.1844 O   0  0  0  0  0  0  0  0  0  0  0  0
   24.9948  -21.3246  -13.0596 C   0  0  2  0  0  0  0  0  0  0  0  0
   26.0072  -20.4565  -13.6133 N   0  0  0  0  0  0  0  0  0  0  0  0
   23.6491  -20.9603  -13.5438 C   0  0  0  0  0  0  0  0  0  0  0  0
   23.3778  -19.7394  -13.6653 O   0  0  0  0  0  0  0  0  0  0  0  0
   20.7889  -23.8100  -14.5098 O   0  0  0  0  0  0  0  0  0  0  0  0
   20.7769  -22.6033  -15.1916 C   0  0  0  0  0  0  0  0  0  0  0  0
   21.3765  -21.5086  -14.3386 C   0  0  2  0  0  0  0  0  0  0  0  0
   22.6758  -21.9425  -13.8680 N   0  0  0  0  0  0  0  0  0  0  0  0
   20.5271  -21.2096  -13.1575 C   0  0  0  0  0  0  0  0  0  0  0  0
   19.2475  -20.7101  -13.2802 O   0  0  0  0  0  0  0  0  0  0  0  0
   21.0039  -21.4242  -12.0061 O   0  0  0  0  0  0  0  0  0  0  0  0
  2  1  1  1
  2  3  1  0
  4  6  1  0
  4  2  1  0
  4  5  1  6
  6 12  1  0
  7  6  2  0
  9  8  1  6
  9 11  1  0
 10  9  1  0
 11 13  1  0
 11 12  1  6
 13 14  2  0
 13 18  1  0
 16 15  1  0
 17 19  1  0
 17 16  1  1
 18 17  1  0
 19 20  1  0
 21 19  2  0
M  END
$$$$
