VTS.pdb
     RDKit          3D

 21 20  0  0  1  0  0  0  0  0999 V2000
   20.2836  -13.5285  -16.7900 C   0  0  0  0  0  0  0  0  0  0  0  0
   18.8884  -12.9844  -16.7681 C   0  0  2  0  0  0  0  0  0  0  0  0
   18.0562  -13.5265  -17.9303 C   0  0  0  0  0  0  0  0  0  0  0  0
   18.8292  -11.4808  -16.8715 C   0  0  2  0  0  0  0  0  0  0  0  0
   19.3808  -11.1030  -18.1464 N   0  0  0  0  0  0  0  0  0  0  0  0
   19.6153  -10.8085  -15.8089 C   0  0  0  0  0  0  0  0  0  0  0  0
   19.2925  -10.9023  -14.5973 O   0  0  0  0  0  0  0  0  0  0  0  0
   23.0980  -11.1830  -14.7235 C   0  0  0  0  0  0  0  0  0  0  0  0
   22.9663   -9.7793  -15.2372 C   0  0  1  0  0  0  0  0  0  0  0  0
   23.3632   -9.7920  -16.5880 O   0  0  0  0  0  0  0  0  0  0  0  0
   21.5150   -9.2899  -15.1325 C   0  0  2  0  0  0  0  0  0  0  0  0
   20.7733  -10.0265  -16.1287 N   0  0  0  0  0  0  0  0  0  0  0  0
   21.4311   -7.8349  -15.3647 C   0  0  0  0  0  0  0  0  0  0  0  0
   20.9802   -7.4402  -16.4692 O   0  0  0  0  0  0  0  0  0  0  0  0
   19.9494   -3.8528  -14.9855 O   0  0  0  0  0  0  0  0  0  0  0  0
   20.1776   -5.2108  -14.8280 C   0  0  0  0  0  0  0  0  0  0  0  0
   21.6544   -5.4815  -14.6517 C   0  0  2  0  0  0  0  0  0  0  0  0
   21.8417   -6.8927  -14.3846 N   0  0  0  0  0  0  0  0  0  0  0  0
   22.2187   -4.7111  -13.5142 C   0  0  0  0  0  0  0  0  0  0  0  0
   22.5384   -3.3736  -13.6191 O   0  0  0  0  0  0  0  0  0  0  0  0
   22.4080   -5.3122  -12.4178 O   0  0  0  0  0  0  0  0  0  0  0  0
  2  1  1  6
  2  3  1  0
  4  6  1  0
  4  2  1  0
  4  5  1  6
  6 12  1  0
  7  6  2  0
  9  8  1  6
  9 11  1  0
 10  9  1  0
 11 13  1  0
 11 12  1  6
 13 14  2  0
 13 18  1  0
 16 15  1  0
 17 19  1  0
 17 16  1  1
 18 17  1  0
 19 20  1  0
 21 19  2  0
M  END
$$$$
