VTS.pdb
     RDKit          3D

 21 20  0  0  1  0  0  0  0  0999 V2000
   15.7840   -9.8753  -10.1416 C   0  0  0  0  0  0  0  0  0  0  0  0
   14.5251   -9.7448  -10.9423 C   0  0  2  0  0  0  0  0  0  0  0  0
   13.2841   -9.9656  -10.0773 C   0  0  0  0  0  0  0  0  0  0  0  0
   14.4306  -10.7342  -12.0768 C   0  0  2  0  0  0  0  0  0  0  0  0
   14.4449  -12.0581  -11.5116 N   0  0  0  0  0  0  0  0  0  0  0  0
   15.5671  -10.6219  -13.0227 C   0  0  0  0  0  0  0  0  0  0  0  0
   16.4605  -11.5050  -13.0803 O   0  0  0  0  0  0  0  0  0  0  0  0
   17.3144   -8.3885  -17.0585 C   0  0  0  0  0  0  0  0  0  0  0  0
   16.2269   -8.8386  -16.1276 C   0  0  1  0  0  0  0  0  0  0  0  0
   15.5527   -9.9013  -16.7590 O   0  0  0  0  0  0  0  0  0  0  0  0
   16.8114   -9.3215  -14.7928 C   0  0  2  0  0  0  0  0  0  0  0  0
   15.6858   -9.4992  -13.9060 N   0  0  0  0  0  0  0  0  0  0  0  0
   17.7732   -8.3410  -14.2529 C   0  0  0  0  0  0  0  0  0  0  0  0
   17.3188   -7.2667  -13.7854 O   0  0  0  0  0  0  0  0  0  0  0  0
   21.9071   -8.7519  -14.6819 O   0  0  0  0  0  0  0  0  0  0  0  0
   21.4271   -8.1323  -13.5387 C   0  0  0  0  0  0  0  0  0  0  0  0
   20.0620   -7.5354  -13.7950 C   0  0  2  0  0  0  0  0  0  0  0  0
   19.1726   -8.5835  -14.2518 N   0  0  0  0  0  0  0  0  0  0  0  0
   20.1149   -6.4793  -14.8379 C   0  0  0  0  0  0  0  0  0  0  0  0
   20.5528   -5.2000  -14.5666 O   0  0  0  0  0  0  0  0  0  0  0  0
   19.7434   -6.7746  -16.0100 O   0  0  0  0  0  0  0  0  0  0  0  0
  2  1  1  1
  2  3  1  0
  4  6  1  0
  4  2  1  0
  4  5  1  1
  6 12  1  0
  7  6  2  0
  9  8  1  6
  9 11  1  0
 10  9  1  0
 11 13  1  0
 11 12  1  1
 13 14  2  0
 13 18  1  0
 16 15  1  0
 17 19  1  0
 17 16  1  6
 18 17  1  0
 19 20  1  0
 21 19  2  0
M  END
$$$$
