VTS.pdb
     RDKit          3D

 21 20  0  0  1  0  0  0  0  0999 V2000
   21.9408  -12.5015  -18.4420 C   0  0  0  0  0  0  0  0  0  0  0  0
   21.4688  -11.1773  -17.9255 C   0  0  2  0  0  0  0  0  0  0  0  0
   22.6139  -10.3756  -17.3066 C   0  0  0  0  0  0  0  0  0  0  0  0
   20.4092  -11.2929  -16.8583 C   0  0  2  0  0  0  0  0  0  0  0  0
   19.2798  -11.9795  -17.4289 N   0  0  0  0  0  0  0  0  0  0  0  0
   19.9494   -9.9701  -16.3708 C   0  0  0  0  0  0  0  0  0  0  0  0
   19.4102   -9.1386  -17.1447 O   0  0  0  0  0  0  0  0  0  0  0  0
   18.6044   -7.3475  -12.4325 C   0  0  0  0  0  0  0  0  0  0  0  0
   19.0132   -8.6169  -13.1204 C   0  0  1  0  0  0  0  0  0  0  0  0
   17.8466   -9.3827  -13.3074 O   0  0  0  0  0  0  0  0  0  0  0  0
   19.6575   -8.3209  -14.4820 C   0  0  2  0  0  0  0  0  0  0  0  0
   20.1048   -9.5938  -14.9964 N   0  0  0  0  0  0  0  0  0  0  0  0
   20.7795   -7.3729  -14.3395 C   0  0  0  0  0  0  0  0  0  0  0  0
   21.8284   -7.7820  -13.7814 O   0  0  0  0  0  0  0  0  0  0  0  0
   23.2977   -3.7233  -15.8510 O   0  0  0  0  0  0  0  0  0  0  0  0
   22.2494   -4.6197  -15.9868 C   0  0  0  0  0  0  0  0  0  0  0  0
   21.8410   -5.1634  -14.6366 C   0  0  2  0  0  0  0  0  0  0  0  0
   20.6979   -6.0357  -14.8110 N   0  0  0  0  0  0  0  0  0  0  0  0
   21.4598   -4.0739  -13.7019 C   0  0  0  0  0  0  0  0  0  0  0  0
   22.3800   -3.4509  -12.8852 O   0  0  0  0  0  0  0  0  0  0  0  0
   20.2481   -3.7141  -13.6624 O   0  0  0  0  0  0  0  0  0  0  0  0
  2  1  1  1
  2  3  1  0
  4  6  1  0
  4  2  1  0
  4  5  1  6
  6 12  1  0
  7  6  2  0
  9  8  1  6
  9 11  1  0
 10  9  1  0
 11 13  1  0
 11 12  1  1
 13 14  2  0
 13 18  1  0
 16 15  1  0
 17 19  1  0
 17 16  1  6
 18 17  1  0
 19 20  1  0
 21 19  2  0
M  END
$$$$
