VTS.pdb
     RDKit          3D

 21 20  0  0  1  0  0  0  0  0999 V2000
   18.2241  -12.3592  -18.1500 C   0  0  0  0  0  0  0  0  0  0  0  0
   18.6891  -13.0004  -16.8789 C   0  0  2  0  0  0  0  0  0  0  0  0
   17.6507  -13.9798  -16.3316 C   0  0  0  0  0  0  0  0  0  0  0  0
   18.9612  -12.0115  -15.7730 C   0  0  2  0  0  0  0  0  0  0  0  0
   17.6942  -11.5231  -15.2947 N   0  0  0  0  0  0  0  0  0  0  0  0
   19.7608  -10.8511  -16.2345 C   0  0  0  0  0  0  0  0  0  0  0  0
   20.9534  -10.9857  -16.6096 O   0  0  0  0  0  0  0  0  0  0  0  0
   19.1302   -8.6275  -19.0652 C   0  0  0  0  0  0  0  0  0  0  0  0
   19.1208   -7.7524  -17.8462 C   0  0  1  0  0  0  0  0  0  0  0  0
   17.7796   -7.6236  -17.4374 O   0  0  0  0  0  0  0  0  0  0  0  0
   19.9455   -8.3795  -16.7134 C   0  0  2  0  0  0  0  0  0  0  0  0
   19.1991   -9.5328  -16.2685 N   0  0  0  0  0  0  0  0  0  0  0  0
   20.1523   -7.4152  -15.6156 C   0  0  0  0  0  0  0  0  0  0  0  0
   19.5874   -7.6443  -14.5167 O   0  0  0  0  0  0  0  0  0  0  0  0
   22.2699   -5.4152  -12.4960 O   0  0  0  0  0  0  0  0  0  0  0  0
   21.8979   -6.2252  -13.5574 C   0  0  0  0  0  0  0  0  0  0  0  0
   21.2003   -5.4115  -14.6236 C   0  0  2  0  0  0  0  0  0  0  0  0
   20.9602   -6.2579  -15.7742 N   0  0  0  0  0  0  0  0  0  0  0  0
   22.0269   -4.2562  -15.0570 C   0  0  0  0  0  0  0  0  0  0  0  0
   22.0539   -3.0682  -14.3571 O   0  0  0  0  0  0  0  0  0  0  0  0
   22.7252   -4.3777  -16.1044 O   0  0  0  0  0  0  0  0  0  0  0  0
  2  1  1  6
  2  3  1  0
  4  6  1  0
  4  2  1  0
  4  5  1  6
  6 12  1  0
  7  6  2  0
  9  8  1  6
  9 11  1  0
 10  9  1  0
 11 13  1  0
 11 12  1  1
 13 14  2  0
 13 18  1  0
 16 15  1  0
 17 19  1  0
 17 16  1  1
 18 17  1  0
 19 20  1  0
 21 19  2  0
M  END
$$$$
