VTS.pdb
     RDKit          3D

 21 20  0  0  1  0  0  0  0  0999 V2000
   20.1996  -13.4802  -16.4820 C   0  0  0  0  0  0  0  0  0  0  0  0
   18.8217  -12.9011  -16.3863 C   0  0  2  0  0  0  0  0  0  0  0  0
   17.9071  -13.4441  -17.4843 C   0  0  0  0  0  0  0  0  0  0  0  0
   18.7921  -11.3988  -16.5165 C   0  0  2  0  0  0  0  0  0  0  0  0
   19.2674  -11.0593  -17.8323 N   0  0  0  0  0  0  0  0  0  0  0  0
   19.6625  -10.7266  -15.5217 C   0  0  0  0  0  0  0  0  0  0  0  0
   19.4590  -10.8469  -14.2867 O   0  0  0  0  0  0  0  0  0  0  0  0
   23.3410  -10.8431  -14.8871 C   0  0  0  0  0  0  0  0  0  0  0  0
   23.0108   -9.4375  -15.2956 C   0  0  1  0  0  0  0  0  0  0  0  0
   23.2571   -9.3376  -16.6783 O   0  0  0  0  0  0  0  0  0  0  0  0
   21.5371   -9.1147  -15.0115 C   0  0  2  0  0  0  0  0  0  0  0  0
   20.7686   -9.9144  -15.9361 N   0  0  0  0  0  0  0  0  0  0  0  0
   21.2684   -7.6749  -15.1920 C   0  0  0  0  0  0  0  0  0  0  0  0
   20.6084   -7.3212  -16.2012 O   0  0  0  0  0  0  0  0  0  0  0  0
   19.6242   -3.7518  -14.4457 O   0  0  0  0  0  0  0  0  0  0  0  0
   19.9391   -5.0972  -14.3367 C   0  0  0  0  0  0  0  0  0  0  0  0
   21.4263   -5.3073  -14.5089 C   0  0  2  0  0  0  0  0  0  0  0  0
   21.7317   -6.7022  -14.2665 N   0  0  0  0  0  0  0  0  0  0  0  0
   22.2085   -4.4839  -13.5517 C   0  0  0  0  0  0  0  0  0  0  0  0
   22.4631   -3.1463  -13.7702 O   0  0  0  0  0  0  0  0  0  0  0  0
   22.6506   -5.0389  -12.5050 O   0  0  0  0  0  0  0  0  0  0  0  0
  2  1  1  6
  2  3  1  0
  4  6  1  0
  4  2  1  0
  4  5  1  6
  6 12  1  0
  7  6  2  0
  9  8  1  6
  9 11  1  0
 10  9  1  0
 11 13  1  0
 11 12  1  6
 13 14  2  0
 13 18  1  0
 16 15  1  0
 17 19  1  0
 17 16  1  1
 18 17  1  0
 19 20  1  0
 21 19  2  0
M  END
$$$$
