VTS.pdb
     RDKit          3D

 21 20  0  0  1  0  0  0  0  0999 V2000
   20.2670  -13.7416  -16.4627 C   0  0  0  0  0  0  0  0  0  0  0  0
   18.9694  -13.0744  -16.8003 C   0  0  2  0  0  0  0  0  0  0  0  0
   18.3301  -13.6878  -18.0461 C   0  0  0  0  0  0  0  0  0  0  0  0
   19.1087  -11.5988  -17.0800 C   0  0  2  0  0  0  0  0  0  0  0  0
   19.8985  -11.4475  -18.2741 N   0  0  0  0  0  0  0  0  0  0  0  0
   19.7896  -10.8752  -15.9792 C   0  0  0  0  0  0  0  0  0  0  0  0
   19.3295  -10.8810  -14.8090 O   0  0  0  0  0  0  0  0  0  0  0  0
   23.4144  -11.0975  -14.8826 C   0  0  0  0  0  0  0  0  0  0  0  0
   23.1421   -9.6783  -15.2871 C   0  0  1  0  0  0  0  0  0  0  0  0
   23.5671   -9.5378  -16.6221 O   0  0  0  0  0  0  0  0  0  0  0  0
   21.6444   -9.3566  -15.1879 C   0  0  2  0  0  0  0  0  0  0  0  0
   20.9992  -10.1425  -16.2132 N   0  0  0  0  0  0  0  0  0  0  0  0
   21.4010   -7.9140  -15.3818 C   0  0  0  0  0  0  0  0  0  0  0  0
   21.2665   -7.4926  -16.5580 O   0  0  0  0  0  0  0  0  0  0  0  0
   19.6217   -3.8181  -14.6200 O   0  0  0  0  0  0  0  0  0  0  0  0
   19.7585   -5.1835  -14.4246 C   0  0  0  0  0  0  0  0  0  0  0  0
   21.2073   -5.5938  -14.5592 C   0  0  2  0  0  0  0  0  0  0  0  0
   21.3178   -7.0123  -14.2876 N   0  0  0  0  0  0  0  0  0  0  0  0
   22.0730   -4.8645  -13.5977 C   0  0  0  0  0  0  0  0  0  0  0  0
   22.6505   -5.4866  -12.5107 O   0  0  0  0  0  0  0  0  0  0  0  0
   22.2803   -3.6323  -13.7924 O   0  0  0  0  0  0  0  0  0  0  0  0
  2  1  1  6
  2  3  1  0
  4  6  1  0
  4  2  1  0
  4  5  1  6
  6 12  1  0
  7  6  2  0
  9  8  1  6
  9 11  1  0
 10  9  1  0
 11 13  1  0
 11 12  1  6
 13 14  2  0
 13 18  1  0
 16 15  1  0
 17 19  1  0
 17 16  1  1
 18 17  1  0
 19 20  1  0
 21 19  2  0
M  END
$$$$
