VTS.pdb
     RDKit          3D

 21 20  0  0  1  0  0  0  0  0999 V2000
   17.3889   -9.2820  -16.5406 C   0  0  0  0  0  0  0  0  0  0  0  0
   17.7527  -10.6755  -16.1301 C   0  0  2  0  0  0  0  0  0  0  0  0
   18.0294  -10.7645  -14.6292 C   0  0  0  0  0  0  0  0  0  0  0  0
   18.9875  -11.2007  -16.8189 C   0  0  2  0  0  0  0  0  0  0  0  0
   19.2111  -12.5469  -16.3605 N   0  0  0  0  0  0  0  0  0  0  0  0
   20.1949  -10.3984  -16.5069 C   0  0  0  0  0  0  0  0  0  0  0  0
   20.8745  -10.6142  -15.4711 O   0  0  0  0  0  0  0  0  0  0  0  0
   23.6590   -7.3745  -18.2794 C   0  0  0  0  0  0  0  0  0  0  0  0
   22.4675   -8.2720  -18.4422 C   0  0  1  0  0  0  0  0  0  0  0  0
   22.9346   -9.4917  -18.9682 O   0  0  0  0  0  0  0  0  0  0  0  0
   21.7809   -8.5237  -17.0924 C   0  0  2  0  0  0  0  0  0  0  0  0
   20.6293   -9.3465  -17.3784 N   0  0  0  0  0  0  0  0  0  0  0  0
   21.3894   -7.2517  -16.4547 C   0  0  0  0  0  0  0  0  0  0  0  0
   20.3817   -6.6523  -16.9068 O   0  0  0  0  0  0  0  0  0  0  0  0
   22.1489   -6.2944  -12.6335 O   0  0  0  0  0  0  0  0  0  0  0  0
   22.3857   -5.2253  -13.4832 C   0  0  0  0  0  0  0  0  0  0  0  0
   21.6862   -5.4372  -14.8065 C   0  0  2  0  0  0  0  0  0  0  0  0
   22.1144   -6.7040  -15.3632 N   0  0  0  0  0  0  0  0  0  0  0  0
   22.0177   -4.3635  -15.7775 C   0  0  0  0  0  0  0  0  0  0  0  0
   21.3487   -3.1577  -15.7966 O   0  0  0  0  0  0  0  0  0  0  0  0
   22.9464   -4.5733  -16.6098 O   0  0  0  0  0  0  0  0  0  0  0  0
  2  1  1  6
  2  3  1  0
  4  6  1  0
  4  2  1  0
  4  5  1  1
  6 12  1  0
  7  6  2  0
  9  8  1  1
  9 11  1  0
 10  9  1  0
 11 13  1  0
 11 12  1  6
 13 14  2  0
 13 18  1  0
 16 15  1  0
 17 19  1  0
 17 16  1  1
 18 17  1  0
 19 20  1  0
 21 19  2  0
M  END
$$$$
