VTS.pdb
     RDKit          3D

 21 20  0  0  1  0  0  0  0  0999 V2000
   17.3705  -12.8875  -18.4182 C   0  0  0  0  0  0  0  0  0  0  0  0
   17.9754  -12.0722  -17.3171 C   0  0  2  0  0  0  0  0  0  0  0  0
   17.8986  -10.5757  -17.6194 C   0  0  0  0  0  0  0  0  0  0  0  0
   19.4319  -12.3797  -17.0738 C   0  0  2  0  0  0  0  0  0  0  0  0
   19.5294  -13.7517  -16.6489 N   0  0  0  0  0  0  0  0  0  0  0  0
   20.0226  -11.5240  -16.0165 C   0  0  0  0  0  0  0  0  0  0  0  0
   19.6340  -11.5963  -14.8228 O   0  0  0  0  0  0  0  0  0  0  0  0
   23.3891  -11.6168  -14.9642 C   0  0  0  0  0  0  0  0  0  0  0  0
   23.1985  -10.1810  -15.3566 C   0  0  1  0  0  0  0  0  0  0  0  0
   23.6785  -10.0425  -16.6730 O   0  0  0  0  0  0  0  0  0  0  0  0
   21.7147   -9.7903  -15.3069 C   0  0  2  0  0  0  0  0  0  0  0  0
   21.0598  -10.5827  -16.3210 N   0  0  0  0  0  0  0  0  0  0  0  0
   21.5411   -8.3461  -15.5559 C   0  0  0  0  0  0  0  0  0  0  0  0
   21.0063   -7.9954  -16.6376 O   0  0  0  0  0  0  0  0  0  0  0  0
   19.8389   -4.4545  -15.0649 O   0  0  0  0  0  0  0  0  0  0  0  0
   20.1642   -5.7973  -14.9553 C   0  0  0  0  0  0  0  0  0  0  0  0
   21.6640   -5.9733  -14.8837 C   0  0  2  0  0  0  0  0  0  0  0  0
   21.9582   -7.3661  -14.6163 N   0  0  0  0  0  0  0  0  0  0  0  0
   22.2588   -5.1528  -13.7980 C   0  0  0  0  0  0  0  0  0  0  0  0
   22.6228   -3.8361  -13.9872 O   0  0  0  0  0  0  0  0  0  0  0  0
   22.4325   -5.6901  -12.6665 O   0  0  0  0  0  0  0  0  0  0  0  0
  2  1  1  6
  2  3  1  0
  4  6  1  0
  4  2  1  0
  4  5  1  1
  6 12  1  0
  7  6  2  0
  9  8  1  6
  9 11  1  0
 10  9  1  0
 11 13  1  0
 11 12  1  6
 13 14  2  0
 13 18  1  0
 16 15  1  0
 17 19  1  0
 17 16  1  1
 18 17  1  0
 19 20  1  0
 21 19  2  0
M  END
$$$$
