VTS.pdb
     RDKit          3D

 21 20  0  0  1  0  0  0  0  0999 V2000
   20.4116  -35.6914  -11.0153 C   0  0  0  0  0  0  0  0  0  0  0  0
   21.7898  -35.8243  -10.4446 C   0  0  2  0  0  0  0  0  0  0  0  0
   21.7501  -36.1784   -8.9580 C   0  0  0  0  0  0  0  0  0  0  0  0
   22.6095  -34.5631  -10.5565 C   0  0  2  0  0  0  0  0  0  0  0  0
   22.8349  -34.3045  -11.9546 N   0  0  0  0  0  0  0  0  0  0  0  0
   23.9282  -34.6833   -9.8890 C   0  0  0  0  0  0  0  0  0  0  0  0
   24.8413  -35.4027  -10.3684 O   0  0  0  0  0  0  0  0  0  0  0  0
   26.2903  -31.9834   -9.1523 C   0  0  0  0  0  0  0  0  0  0  0  0
   25.9562  -32.6046   -7.8278 C   0  0  1  0  0  0  0  0  0  0  0  0
   24.9203  -31.8390   -7.2591 O   0  0  0  0  0  0  0  0  0  0  0  0
   25.4858  -34.0551   -8.0044 C   0  0  2  0  0  0  0  0  0  0  0  0
   24.2070  -33.9810   -8.6709 N   0  0  0  0  0  0  0  0  0  0  0  0
   25.3748  -34.7359   -6.6997 C   0  0  0  0  0  0  0  0  0  0  0  0
   24.2395  -34.8026   -6.1652 O   0  0  0  0  0  0  0  0  0  0  0  0
   27.4161  -37.5196   -3.3213 O   0  0  0  0  0  0  0  0  0  0  0  0
   27.5891  -36.7484   -4.4599 C   0  0  0  0  0  0  0  0  0  0  0  0
   26.3012  -36.0442   -4.8216 C   0  0  2  0  0  0  0  0  0  0  0  0
   26.5027  -35.3050   -6.0507 N   0  0  0  0  0  0  0  0  0  0  0  0
   25.8858  -35.0883   -3.7635 C   0  0  0  0  0  0  0  0  0  0  0  0
   25.1935  -35.4903   -2.6406 O   0  0  0  0  0  0  0  0  0  0  0  0
   26.1824  -33.8675   -3.9081 O   0  0  0  0  0  0  0  0  0  0  0  0
  2  1  1  1
  2  3  1  0
  4  6  1  0
  4  2  1  0
  4  5  1  6
  6 12  1  0
  7  6  2  0
  9  8  1  6
  9 11  1  0
 10  9  1  0
 11 13  1  0
 11 12  1  1
 13 14  2  0
 13 18  1  0
 16 15  1  0
 17 19  1  0
 17 16  1  1
 18 17  1  0
 19 20  1  0
 21 19  2  0
M  END
$$$$
