VTS.pdb
     RDKit          3D

 21 20  0  0  1  0  0  0  0  0999 V2000
   16.1340  -12.5646  -16.0443 C   0  0  0  0  0  0  0  0  0  0  0  0
   17.1361  -12.8681  -17.1153 C   0  0  2  0  0  0  0  0  0  0  0  0
   16.7078  -14.0672  -17.9613 C   0  0  0  0  0  0  0  0  0  0  0  0
   18.5065  -13.1979  -16.5784 C   0  0  2  0  0  0  0  0  0  0  0  0
   18.4076  -14.4298  -15.8401 N   0  0  0  0  0  0  0  0  0  0  0  0
   19.0243  -12.1506  -15.6651 C   0  0  0  0  0  0  0  0  0  0  0  0
   18.9323  -12.2672  -14.4165 O   0  0  0  0  0  0  0  0  0  0  0  0
   21.9466   -8.2696  -15.0270 C   0  0  0  0  0  0  0  0  0  0  0  0
   21.4607   -9.4754  -15.7764 C   0  0  1  0  0  0  0  0  0  0  0  0
   22.3521  -10.5279  -15.4931 O   0  0  0  0  0  0  0  0  0  0  0  0
   20.0451   -9.8664  -15.3294 C   0  0  2  0  0  0  0  0  0  0  0  0
   19.6492  -10.9665  -16.1769 N   0  0  0  0  0  0  0  0  0  0  0  0
   19.1176   -8.7258  -15.4585 C   0  0  0  0  0  0  0  0  0  0  0  0
   18.8523   -8.3108  -16.6146 O   0  0  0  0  0  0  0  0  0  0  0  0
   16.0351   -7.8791  -12.9673 O   0  0  0  0  0  0  0  0  0  0  0  0
   16.8282   -6.7796  -13.2554 C   0  0  0  0  0  0  0  0  0  0  0  0
   17.6047   -7.0083  -14.5322 C   0  0  2  0  0  0  0  0  0  0  0  0
   18.5317   -8.1017  -14.3252 N   0  0  0  0  0  0  0  0  0  0  0  0
   18.3814   -5.8039  -14.9221 C   0  0  0  0  0  0  0  0  0  0  0  0
   17.7832   -4.6908  -15.4746 O   0  0  0  0  0  0  0  0  0  0  0  0
   19.6322   -5.8109  -14.7366 O   0  0  0  0  0  0  0  0  0  0  0  0
  2  1  1  1
  2  3  1  0
  4  6  1  0
  4  2  1  0
  4  5  1  1
  6 12  1  0
  7  6  2  0
  9  8  1  1
  9 11  1  0
 10  9  1  0
 11 13  1  0
 11 12  1  6
 13 14  2  0
 13 18  1  0
 16 15  1  0
 17 19  1  0
 17 16  1  1
 18 17  1  0
 19 20  1  0
 21 19  2  0
M  END
$$$$
