VTS.pdb
     RDKit          3D

 21 20  0  0  1  0  0  0  0  0999 V2000
   22.6601   -6.6594  -21.7085 C   0  0  0  0  0  0  0  0  0  0  0  0
   22.4624   -7.2086  -20.3293 C   0  0  2  0  0  0  0  0  0  0  0  0
   20.9835   -7.2380  -19.9433 C   0  0  0  0  0  0  0  0  0  0  0  0
   23.1623   -6.4086  -19.2591 C   0  0  2  0  0  0  0  0  0  0  0  0
   24.5811   -6.5585  -19.4515 N   0  0  0  0  0  0  0  0  0  0  0  0
   22.8280   -6.8764  -17.8923 C   0  0  0  0  0  0  0  0  0  0  0  0
   23.2300   -7.9883  -17.4644 O   0  0  0  0  0  0  0  0  0  0  0  0
   23.5681   -5.0491  -14.7849 C   0  0  0  0  0  0  0  0  0  0  0  0
   22.0879   -5.2949  -14.7617 C   0  0  1  0  0  0  0  0  0  0  0  0
   21.4649   -4.1259  -15.2390 O   0  0  0  0  0  0  0  0  0  0  0  0
   21.7139   -6.4809  -15.6618 C   0  0  2  0  0  0  0  0  0  0  0  0
   22.0327   -6.0739  -17.0101 N   0  0  0  0  0  0  0  0  0  0  0  0
   20.2834   -6.8166  -15.5243 C   0  0  0  0  0  0  0  0  0  0  0  0
   19.4595   -6.1828  -16.2304 O   0  0  0  0  0  0  0  0  0  0  0  0
   16.8825   -9.8510  -14.0097 O   0  0  0  0  0  0  0  0  0  0  0  0
   18.2301   -9.5444  -14.1141 C   0  0  0  0  0  0  0  0  0  0  0  0
   18.4129   -8.1139  -14.5676 C   0  0  2  0  0  0  0  0  0  0  0  0
   19.8301   -7.8210  -14.6282 N   0  0  0  0  0  0  0  0  0  0  0  0
   17.7773   -7.1572  -13.6261 C   0  0  0  0  0  0  0  0  0  0  0  0
   16.4539   -6.7856  -13.7379 O   0  0  0  0  0  0  0  0  0  0  0  0
   18.4830   -6.6736  -12.6948 O   0  0  0  0  0  0  0  0  0  0  0  0
  2  1  1  6
  2  3  1  0
  4  6  1  0
  4  2  1  0
  4  5  1  6
  6 12  1  0
  7  6  2  0
  9  8  1  6
  9 11  1  0
 10  9  1  0
 11 13  1  0
 11 12  1  6
 13 14  2  0
 13 18  1  0
 16 15  1  0
 17 19  1  0
 17 16  1  1
 18 17  1  0
 19 20  1  0
 21 19  2  0
M  END
$$$$
