VTS.pdb
     RDKit          3D

 21 20  0  0  1  0  0  0  0  0999 V2000
   20.3103  -11.0209  -19.2739 C   0  0  0  0  0  0  0  0  0  0  0  0
   20.9007  -11.7212  -18.0890 C   0  0  2  0  0  0  0  0  0  0  0  0
   21.2499  -13.1740  -18.4119 C   0  0  0  0  0  0  0  0  0  0  0  0
   19.9783  -11.7636  -16.8964 C   0  0  2  0  0  0  0  0  0  0  0  0
   18.8419  -12.5760  -17.2447 N   0  0  0  0  0  0  0  0  0  0  0  0
   19.4860  -10.4185  -16.5126 C   0  0  0  0  0  0  0  0  0  0  0  0
   18.7339   -9.7556  -17.2716 O   0  0  0  0  0  0  0  0  0  0  0  0
   17.3494   -9.1367  -13.9674 C   0  0  0  0  0  0  0  0  0  0  0  0
   18.6757   -8.4998  -13.6723 C   0  0  1  0  0  0  0  0  0  0  0  0
   19.3041   -9.2854  -12.6872 O   0  0  0  0  0  0  0  0  0  0  0  0
   19.5545   -8.4529  -14.9301 C   0  0  2  0  0  0  0  0  0  0  0  0
   19.8525   -9.8269  -15.2595 N   0  0  0  0  0  0  0  0  0  0  0  0
   20.7863   -7.6784  -14.6840 C   0  0  0  0  0  0  0  0  0  0  0  0
   21.8611   -8.3128  -14.5373 O   0  0  0  0  0  0  0  0  0  0  0  0
   23.7589   -4.4072  -15.5488 O   0  0  0  0  0  0  0  0  0  0  0  0
   22.6066   -5.1568  -15.7260 C   0  0  0  0  0  0  0  0  0  0  0  0
   22.0327   -5.5673  -14.3890 C   0  0  2  0  0  0  0  0  0  0  0  0
   20.7803   -6.2600  -14.6115 N   0  0  0  0  0  0  0  0  0  0  0  0
   21.7686   -4.3897  -13.5234 C   0  0  0  0  0  0  0  0  0  0  0  0
   22.7696   -3.7600  -12.8138 O   0  0  0  0  0  0  0  0  0  0  0  0
   20.5825   -3.9590  -13.4421 O   0  0  0  0  0  0  0  0  0  0  0  0
  2  1  1  6
  2  3  1  0
  4  6  1  0
  4  2  1  0
  4  5  1  6
  6 12  1  0
  7  6  2  0
  9  8  1  6
  9 11  1  0
 10  9  1  0
 11 13  1  0
 11 12  1  1
 13 14  2  0
 13 18  1  0
 16 15  1  0
 17 19  1  0
 17 16  1  6
 18 17  1  0
 19 20  1  0
 21 19  2  0
M  END
$$$$
