WRP.pdb
     RDKit          3D

 33 35  0  0  1  0  0  0  0  0999 V2000
   28.1720  -20.7514  -11.0354 N   0  0  0  0  0  0  0  0  0  0  0  0
   26.8833  -21.0278  -10.4328 C   0  0  1  0  0  0  0  0  0  0  0  0
   26.8159  -20.2934   -9.1063 C   0  0  0  0  0  0  0  0  0  0  0  0
   27.9942  -20.6080   -8.2569 C   0  0  0  0  0  0  0  0  0  0  0  0
   29.1732  -21.2497   -8.6061 C   0  0  0  0  0  0  0  0  0  0  0  0
   29.9681  -21.3237   -7.5231 N   0  0  0  0  0  0  0  0  0  0  0  0
   29.3461  -20.7531   -6.4853 C   0  0  0  0  0  0  0  0  0  0  0  0
   29.7420  -20.5804   -5.1760 C   0  0  0  0  0  0  0  0  0  0  0  0
   28.8914  -19.9489   -4.3049 C   0  0  0  0  0  0  0  0  0  0  0  0
   27.6639  -19.4937   -4.7240 C   0  0  0  0  0  0  0  0  0  0  0  0
   27.2841  -19.6749   -6.0373 C   0  0  0  0  0  0  0  0  0  0  0  0
   28.1191  -20.3017   -6.9180 C   0  0  0  0  0  0  0  0  0  0  0  0
   25.7605  -20.6195  -11.2984 C   0  0  0  0  0  0  0  0  0  0  0  0
   25.4681  -19.3963  -11.4031 O   0  0  0  0  0  0  0  0  0  0  0  0
   23.7341  -17.0108  -16.7265 N   0  0  0  0  0  0  0  0  0  0  0  0
   23.2920  -18.0876  -17.5103 C   0  0  0  0  0  0  0  0  0  0  0  0
   23.2189  -17.9636  -18.7757 N   0  0  0  0  0  0  0  0  0  0  0  0
   22.9182  -19.3372  -16.8953 N   0  0  0  0  0  0  0  0  0  0  0  0
   23.7664  -19.9367  -15.9155 C   0  0  0  0  0  0  0  0  0  0  0  0
   23.2565  -21.2465  -15.3712 C   0  0  0  0  0  0  0  0  0  0  0  0
   24.1902  -21.7003  -14.2611 C   0  0  0  0  0  0  0  0  0  0  0  0
   23.8721  -21.0710  -12.9332 C   0  0  2  0  0  0  0  0  0  0  0  0
   24.9778  -21.5282  -12.0305 N   0  0  0  0  0  0  0  0  0  0  0  0
   22.5784  -21.4445  -12.3667 C   0  0  0  0  0  0  0  0  0  0  0  0
   22.4284  -22.7550  -12.3060 O   0  0  0  0  0  0  0  0  0  0  0  0
   22.7810  -18.6783  -19.3708 N   0  0  0  0  0  0  0  0  0  0  0  0
   21.5009  -20.7358  -11.8950 C   0  0  0  0  0  0  0  0  0  0  0  0
   21.6962  -19.3073  -11.4632 C   0  0  0  0  0  0  0  0  0  0  0  0
   20.5881  -18.6623  -12.2542 C   0  0  0  0  0  0  0  0  0  0  0  0
   19.4998  -19.6931  -12.3421 C   0  0  2  0  0  0  0  0  0  0  0  0
   20.1489  -20.9487  -11.6393 C   0  0  0  0  0  0  0  0  0  0  0  0
   19.4146  -22.1089  -12.0881 O   0  0  0  0  0  0  0  0  0  0  0  0
   19.5434  -22.7407  -13.2704 O   0  0  0  0  0  0  0  0  0  0  0  0
  2  1  1  6
  2 13  1  0
  2  3  1  0
  3  4  1  0
  4  5  2  0
  6  5  1  0
  7  6  1  0
  8  7  2  0
  9  8  1  0
 10  9  2  0
 10 11  1  0
 11 12  2  0
 12  7  1  0
 12  4  1  0
 13 14  2  0
 16 17  2  0
 16 15  1  0
 18 16  1  0
 19 18  1  0
 19 20  1  0
 20 21  1  0
 22 21  1  6
 22 24  1  0
 23 13  1  0
 23 22  1  0
 24 25  2  0
 26 24  1  0
 26 27  1  0
 27 28  1  0
 29 28  1  0
 30 26  1  0
 30 29  1  0
 30 31  1  6
 32 31  1  0
 33 31  2  0
M  END
$$$$
