WRP.pdb
     RDKit          3D

 33 35  0  0  1  0  0  0  0  0999 V2000
   24.8829  -21.0061   -8.7148 N   0  0  0  0  0  0  0  0  0  0  0  0
   25.9656  -20.2493   -9.3107 C   0  0  1  0  0  0  0  0  0  0  0  0
   27.2306  -20.5356   -8.5225 C   0  0  0  0  0  0  0  0  0  0  0  0
   27.1040  -20.0734   -7.1157 C   0  0  0  0  0  0  0  0  0  0  0  0
   26.0168  -19.4849   -6.4867 C   0  0  0  0  0  0  0  0  0  0  0  0
   26.3399  -19.2258   -5.2066 N   0  0  0  0  0  0  0  0  0  0  0  0
   27.5970  -19.6253   -4.9842 C   0  0  0  0  0  0  0  0  0  0  0  0
   28.3746  -19.5767   -3.8467 C   0  0  0  0  0  0  0  0  0  0  0  0
   29.6548  -20.0659   -3.8984 C   0  0  0  0  0  0  0  0  0  0  0  0
   30.1598  -20.5969   -5.0615 C   0  0  0  0  0  0  0  0  0  0  0  0
   29.3681  -20.6376   -6.1899 C   0  0  0  0  0  0  0  0  0  0  0  0
   28.0909  -20.1546   -6.1557 C   0  0  0  0  0  0  0  0  0  0  0  0
   26.1660  -20.5828  -10.7338 C   0  0  0  0  0  0  0  0  0  0  0  0
   27.0504  -21.4228  -11.0577 O   0  0  0  0  0  0  0  0  0  0  0  0
   25.2678  -25.7221  -14.8060 N   0  0  0  0  0  0  0  0  0  0  0  0
   23.9813  -25.1734  -14.6904 C   0  0  0  0  0  0  0  0  0  0  0  0
   22.9663  -25.9409  -14.6395 N   0  0  0  0  0  0  0  0  0  0  0  0
   23.7965  -23.7446  -14.6287 N   0  0  0  0  0  0  0  0  0  0  0  0
   24.7536  -22.8708  -15.2281 C   0  0  0  0  0  0  0  0  0  0  0  0
   24.4055  -21.4076  -15.1291 C   0  0  0  0  0  0  0  0  0  0  0  0
   24.3873  -21.0176  -13.6602 C   0  0  0  0  0  0  0  0  0  0  0  0
   25.6633  -20.3610  -13.2118 C   0  0  2  0  0  0  0  0  0  0  0  0
   25.4166  -20.0106  -11.7756 N   0  0  0  0  0  0  0  0  0  0  0  0
   26.0382  -19.1638  -13.9605 C   0  0  0  0  0  0  0  0  0  0  0  0
   25.0646  -18.2720  -13.9809 O   0  0  0  0  0  0  0  0  0  0  0  0
   22.0100  -25.5770  -14.5405 N   0  0  0  0  0  0  0  0  0  0  0  0
   27.1666  -18.7754  -14.6397 C   0  0  0  0  0  0  0  0  0  0  0  0
   28.5137  -19.2189  -14.1357 C   0  0  0  0  0  0  0  0  0  0  0  0
   29.0737  -19.7890  -15.4128 C   0  0  0  0  0  0  0  0  0  0  0  0
   28.4795  -18.9656  -16.5190 C   0  0  2  0  0  0  0  0  0  0  0  0
   27.4967  -18.0003  -15.7483 C   0  0  0  0  0  0  0  0  0  0  0  0
   26.5353  -17.5199  -16.7134 O   0  0  0  0  0  0  0  0  0  0  0  0
   26.6167  -16.3916  -17.4441 O   0  0  0  0  0  0  0  0  0  0  0  0
  2  1  1  1
  2 13  1  0
  2  3  1  0
  3  4  1  0
  4  5  2  0
  6  5  1  0
  7  6  1  0
  8  7  2  0
  9  8  1  0
 10  9  2  0
 10 11  1  0
 11 12  2  0
 12  7  1  0
 12  4  1  0
 13 14  2  0
 16 17  2  0
 16 15  1  0
 18 16  1  0
 19 18  1  0
 19 20  1  0
 20 21  1  0
 22 21  1  6
 22 24  1  0
 23 13  1  0
 23 22  1  0
 24 25  2  0
 26 24  1  0
 26 27  1  0
 27 28  1  0
 29 28  1  0
 30 26  1  0
 30 29  1  0
 30 31  1  6
 32 31  1  0
 33 31  2  0
M  END
$$$$
