WRP.pdb
     RDKit          3D

 33 35  0  0  1  0  0  0  0  0999 V2000
   20.0265  -21.0255  -12.5890 N   0  0  0  0  0  0  0  0  0  0  0  0
   20.7745  -20.2831  -13.5838 C   0  0  1  0  0  0  0  0  0  0  0  0
   20.4672  -18.8082  -13.4009 C   0  0  0  0  0  0  0  0  0  0  0  0
   19.9966  -18.1953  -14.6705 C   0  0  0  0  0  0  0  0  0  0  0  0
   18.7333  -18.2363  -15.2416 C   0  0  0  0  0  0  0  0  0  0  0  0
   18.7526  -17.5453  -16.3959 N   0  0  0  0  0  0  0  0  0  0  0  0
   19.9830  -17.0585  -16.5926 C   0  0  0  0  0  0  0  0  0  0  0  0
   20.5013  -16.2946  -17.6166 C   0  0  0  0  0  0  0  0  0  0  0  0
   21.8217  -15.9274  -17.5658 C   0  0  0  0  0  0  0  0  0  0  0  0
   22.6199  -16.3114  -16.5145 C   0  0  0  0  0  0  0  0  0  0  0  0
   22.0849  -17.0754  -15.4988 C   0  0  0  0  0  0  0  0  0  0  0  0
   20.7718  -17.4497  -15.5337 C   0  0  0  0  0  0  0  0  0  0  0  0
   22.2277  -20.5168  -13.4824 C   0  0  0  0  0  0  0  0  0  0  0  0
   22.8082  -20.3552  -12.3735 O   0  0  0  0  0  0  0  0  0  0  0  0
   26.3186  -27.0613  -16.6247 N   0  0  0  0  0  0  0  0  0  0  0  0
   25.3448  -26.0703  -16.8223 C   0  0  0  0  0  0  0  0  0  0  0  0
   24.4635  -26.2184  -17.7296 N   0  0  0  0  0  0  0  0  0  0  0  0
   25.3321  -24.8818  -16.0056 N   0  0  0  0  0  0  0  0  0  0  0  0
   26.4331  -23.9735  -16.0435 C   0  0  0  0  0  0  0  0  0  0  0  0
   26.2608  -22.7530  -15.1760 C   0  0  0  0  0  0  0  0  0  0  0  0
   24.7798  -22.4180  -15.1088 C   0  0  0  0  0  0  0  0  0  0  0  0
   24.5061  -21.1017  -14.4359 C   0  0  2  0  0  0  0  0  0  0  0  0
   23.0246  -20.9172  -14.5682 N   0  0  0  0  0  0  0  0  0  0  0  0
   25.2054  -19.9560  -15.0125 C   0  0  0  0  0  0  0  0  0  0  0  0
   24.7141  -19.6232  -16.1921 O   0  0  0  0  0  0  0  0  0  0  0  0
   23.6790  -25.5638  -17.8421 N   0  0  0  0  0  0  0  0  0  0  0  0
   26.2498  -19.1663  -14.5987 C   0  0  0  0  0  0  0  0  0  0  0  0
   26.6317  -19.1609  -13.1430 C   0  0  0  0  0  0  0  0  0  0  0  0
   28.1087  -19.4244  -13.2798 C   0  0  0  0  0  0  0  0  0  0  0  0
   28.5173  -18.7797  -14.5729 C   0  0  2  0  0  0  0  0  0  0  0  0
   27.1456  -18.2550  -15.1516 C   0  0  0  0  0  0  0  0  0  0  0  0
   27.3324  -18.0655  -16.5713 O   0  0  0  0  0  0  0  0  0  0  0  0
   27.6548  -16.9186  -17.1993 O   0  0  0  0  0  0  0  0  0  0  0  0
  2  1  1  1
  2 13  1  0
  2  3  1  0
  3  4  1  0
  4  5  2  0
  6  5  1  0
  7  6  1  0
  8  7  2  0
  9  8  1  0
 10  9  2  0
 10 11  1  0
 11 12  2  0
 12  7  1  0
 12  4  1  0
 13 14  2  0
 16 17  2  0
 16 15  1  0
 18 16  1  0
 19 18  1  0
 19 20  1  0
 20 21  1  0
 22 21  1  6
 22 24  1  0
 23 13  1  0
 23 22  1  0
 24 25  2  0
 26 24  1  0
 26 27  1  0
 27 28  1  0
 29 28  1  0
 30 26  1  0
 30 29  1  0
 30 31  1  6
 32 31  1  0
 33 31  2  0
M  END
$$$$
