WRP.pdb
     RDKit          3D

 33 35  0  0  1  0  0  0  0  0999 V2000
   22.6643  -18.5778  -18.0068 N   0  0  0  0  0  0  0  0  0  0  0  0
   21.7755  -18.2528  -16.9093 C   0  0  1  0  0  0  0  0  0  0  0  0
   20.4303  -17.8607  -17.4924 C   0  0  0  0  0  0  0  0  0  0  0  0
   20.5044  -16.5443  -18.1783 C   0  0  0  0  0  0  0  0  0  0  0  0
   20.7685  -16.2709  -19.5123 C   0  0  0  0  0  0  0  0  0  0  0  0
   20.7386  -14.9390  -19.6999 N   0  0  0  0  0  0  0  0  0  0  0  0
   20.4645  -14.3402  -18.5355 C   0  0  0  0  0  0  0  0  0  0  0  0
   20.3280  -13.0067  -18.2133 C   0  0  0  0  0  0  0  0  0  0  0  0
   20.0396  -12.6649  -16.9167 C   0  0  0  0  0  0  0  0  0  0  0  0
   19.8881  -13.6308  -15.9504 C   0  0  0  0  0  0  0  0  0  0  0  0
   20.0281  -14.9600  -16.2904 C   0  0  0  0  0  0  0  0  0  0  0  0
   20.3152  -15.3177  -17.5769 C   0  0  0  0  0  0  0  0  0  0  0  0
   21.6139  -19.3764  -15.9669 C   0  0  0  0  0  0  0  0  0  0  0  0
   21.6335  -20.5610  -16.4016 O   0  0  0  0  0  0  0  0  0  0  0  0
   25.6680  -20.4475   -9.2095 N   0  0  0  0  0  0  0  0  0  0  0  0
   25.5630  -20.8994  -10.5340 C   0  0  0  0  0  0  0  0  0  0  0  0
   26.6139  -21.2023  -11.1864 N   0  0  0  0  0  0  0  0  0  0  0  0
   24.2728  -21.0243  -11.1659 N   0  0  0  0  0  0  0  0  0  0  0  0
   23.0816  -20.7655  -10.4222 C   0  0  0  0  0  0  0  0  0  0  0  0
   21.8114  -20.8807  -11.2254 C   0  0  0  0  0  0  0  0  0  0  0  0
   21.8525  -19.8463  -12.3382 C   0  0  0  0  0  0  0  0  0  0  0  0
   21.3404  -20.3746  -13.6493 C   0  0  2  0  0  0  0  0  0  0  0  0
   21.4352  -19.2065  -14.5836 N   0  0  0  0  0  0  0  0  0  0  0  0
   19.9700  -20.8797  -13.6190 C   0  0  0  0  0  0  0  0  0  0  0  0
   19.1502  -20.0402  -13.0134 O   0  0  0  0  0  0  0  0  0  0  0  0
   26.5764  -21.5480  -12.1538 N   0  0  0  0  0  0  0  0  0  0  0  0
   19.3626  -22.0238  -14.0746 C   0  0  0  0  0  0  0  0  0  0  0  0
   20.1017  -22.9104  -15.0405 C   0  0  0  0  0  0  0  0  0  0  0  0
   19.9449  -24.2281  -14.3273 C   0  0  0  0  0  0  0  0  0  0  0  0
   18.6193  -24.1540  -13.6258 C   0  0  2  0  0  0  0  0  0  0  0  0
   18.1432  -22.6803  -13.9312 C   0  0  0  0  0  0  0  0  0  0  0  0
   17.1556  -22.3414  -12.9330 O   0  0  0  0  0  0  0  0  0  0  0  0
   15.8403  -22.6286  -12.9656 O   0  0  0  0  0  0  0  0  0  0  0  0
  2  1  1  6
  2 13  1  0
  2  3  1  0
  3  4  1  0
  4  5  2  0
  6  5  1  0
  7  6  1  0
  8  7  2  0
  9  8  1  0
 10  9  2  0
 10 11  1  0
 11 12  2  0
 12  7  1  0
 12  4  1  0
 13 14  2  0
 16 17  2  0
 16 15  1  0
 18 16  1  0
 19 18  1  0
 19 20  1  0
 20 21  1  0
 22 21  1  1
 22 24  1  0
 23 13  1  0
 23 22  1  0
 24 25  2  0
 26 24  1  0
 26 27  1  0
 27 28  1  0
 29 28  1  0
 30 26  1  0
 30 29  1  0
 30 31  1  1
 32 31  1  0
 33 31  2  0
M  END
$$$$
