WRP.pdb
     RDKit          3D

 33 35  0  0  1  0  0  0  0  0999 V2000
   28.2025  -22.8888  -16.6536 N   0  0  0  0  0  0  0  0  0  0  0  0
   27.3849  -21.7333  -16.3429 C   0  0  1  0  0  0  0  0  0  0  0  0
   26.8599  -21.1627  -17.6476 C   0  0  0  0  0  0  0  0  0  0  0  0
   27.8286  -20.2070  -18.2452 C   0  0  0  0  0  0  0  0  0  0  0  0
   28.7306  -20.4130  -19.2786 C   0  0  0  0  0  0  0  0  0  0  0  0
   29.4134  -19.2744  -19.4963 N   0  0  0  0  0  0  0  0  0  0  0  0
   28.9860  -18.3387  -18.6412 C   0  0  0  0  0  0  0  0  0  0  0  0
   29.3697  -17.0256  -18.4700 C   0  0  0  0  0  0  0  0  0  0  0  0
   28.7541  -16.2770  -17.4996 C   0  0  0  0  0  0  0  0  0  0  0  0
   27.7706  -16.8210  -16.7080 C   0  0  0  0  0  0  0  0  0  0  0  0
   27.3993  -18.1361  -16.8930 C   0  0  0  0  0  0  0  0  0  0  0  0
   28.0022  -18.8957  -17.8549 C   0  0  0  0  0  0  0  0  0  0  0  0
   26.2628  -22.0656  -15.4445 C   0  0  0  0  0  0  0  0  0  0  0  0
   25.6171  -23.1349  -15.6243 O   0  0  0  0  0  0  0  0  0  0  0  0
   26.6850  -20.8404   -7.9934 N   0  0  0  0  0  0  0  0  0  0  0  0
   27.8524  -21.2098   -8.6792 C   0  0  0  0  0  0  0  0  0  0  0  0
   28.7953  -21.7972   -8.0564 N   0  0  0  0  0  0  0  0  0  0  0  0
   27.9956  -20.9299  -10.0865 N   0  0  0  0  0  0  0  0  0  0  0  0
   26.8836  -20.4424  -10.8379 C   0  0  0  0  0  0  0  0  0  0  0  0
   25.9884  -21.5210  -11.3919 C   0  0  0  0  0  0  0  0  0  0  0  0
   24.9103  -20.8621  -12.2367 C   0  0  0  0  0  0  0  0  0  0  0  0
   24.6629  -21.5785  -13.5352 C   0  0  2  0  0  0  0  0  0  0  0  0
   25.8583  -21.2471  -14.3764 N   0  0  0  0  0  0  0  0  0  0  0  0
   23.4390  -21.1899  -14.2317 C   0  0  0  0  0  0  0  0  0  0  0  0
   23.4119  -19.8958  -14.4927 O   0  0  0  0  0  0  0  0  0  0  0  0
   29.6414  -22.1318   -8.5347 N   0  0  0  0  0  0  0  0  0  0  0  0
   22.3271  -21.8707  -14.6627 C   0  0  0  0  0  0  0  0  0  0  0  0
   22.4649  -23.3117  -15.0748 C   0  0  0  0  0  0  0  0  0  0  0  0
   21.3583  -23.9073  -14.2439 C   0  0  0  0  0  0  0  0  0  0  0  0
   20.3063  -22.8403  -14.1453 C   0  0  2  0  0  0  0  0  0  0  0  0
   20.9763  -21.6182  -14.8863 C   0  0  0  0  0  0  0  0  0  0  0  0
   20.2919  -20.4276  -14.4384 O   0  0  0  0  0  0  0  0  0  0  0  0
   19.1553  -19.9097  -14.9418 O   0  0  0  0  0  0  0  0  0  0  0  0
  2  1  1  6
  2 13  1  0
  2  3  1  0
  3  4  1  0
  4  5  2  0
  6  5  1  0
  7  6  1  0
  8  7  2  0
  9  8  1  0
 10  9  2  0
 10 11  1  0
 11 12  2  0
 12  7  1  0
 12  4  1  0
 13 14  2  0
 16 17  2  0
 16 15  1  0
 18 16  1  0
 19 18  1  0
 19 20  1  0
 20 21  1  0
 22 21  1  1
 22 24  1  0
 23 13  1  0
 23 22  1  0
 24 25  2  0
 26 24  1  0
 26 27  1  0
 27 28  1  0
 29 28  1  0
 30 26  1  0
 30 29  1  0
 30 31  1  1
 32 31  1  0
 33 31  2  0
M  END
$$$$
