WRP.pdb
     RDKit          3D

 33 35  0  0  1  0  0  0  0  0999 V2000
   25.9601  -18.6955  -18.9400 N   0  0  0  0  0  0  0  0  0  0  0  0
   25.8258  -18.2187  -17.5780 C   0  0  1  0  0  0  0  0  0  0  0  0
   24.4862  -17.5162  -17.4544 C   0  0  0  0  0  0  0  0  0  0  0  0
   24.5482  -16.1383  -18.0079 C   0  0  0  0  0  0  0  0  0  0  0  0
   24.0049  -15.6478  -19.1861 C   0  0  0  0  0  0  0  0  0  0  0  0
   24.3047  -14.3407  -19.2948 N   0  0  0  0  0  0  0  0  0  0  0  0
   25.0224  -13.9674  -18.2295 C   0  0  0  0  0  0  0  0  0  0  0  0
   25.5605  -12.7462  -17.8832 C   0  0  0  0  0  0  0  0  0  0  0  0
   26.2652  -12.6414  -16.7112 C   0  0  0  0  0  0  0  0  0  0  0  0
   26.4354  -13.7319  -15.8916 C   0  0  0  0  0  0  0  0  0  0  0  0
   25.8903  -14.9458  -16.2535 C   0  0  0  0  0  0  0  0  0  0  0  0
   25.1857  -15.0674  -17.4173 C   0  0  0  0  0  0  0  0  0  0  0  0
   25.9215  -19.3101  -16.5899 C   0  0  0  0  0  0  0  0  0  0  0  0
   25.5050  -20.4622  -16.8927 O   0  0  0  0  0  0  0  0  0  0  0  0
   24.6651  -21.8600   -8.7656 N   0  0  0  0  0  0  0  0  0  0  0  0
   25.6872  -20.9474   -9.0688 C   0  0  0  0  0  0  0  0  0  0  0  0
   26.5734  -20.6741   -8.1959 N   0  0  0  0  0  0  0  0  0  0  0  0
   25.7442  -20.3138  -10.3629 N   0  0  0  0  0  0  0  0  0  0  0  0
   26.1083  -21.0713  -11.5172 C   0  0  0  0  0  0  0  0  0  0  0  0
   27.4824  -20.7625  -12.0540 C   0  0  0  0  0  0  0  0  0  0  0  0
   27.3400  -19.7617  -13.1889 C   0  0  0  0  0  0  0  0  0  0  0  0
   26.4309  -20.2434  -14.2851 C   0  0  2  0  0  0  0  0  0  0  0  0
   26.4597  -19.1434  -15.3027 N   0  0  0  0  0  0  0  0  0  0  0  0
   25.0540  -20.5076  -13.8744 C   0  0  0  0  0  0  0  0  0  0  0  0
   24.5873  -19.5603  -13.0817 O   0  0  0  0  0  0  0  0  0  0  0  0
   26.5028  -21.0011   -7.2239 N   0  0  0  0  0  0  0  0  0  0  0  0
   24.1573  -21.5159  -14.1290 C   0  0  0  0  0  0  0  0  0  0  0  0
   24.5244  -22.5901  -15.1172 C   0  0  0  0  0  0  0  0  0  0  0  0
   24.2255  -23.8040  -14.2765 C   0  0  0  0  0  0  0  0  0  0  0  0
   23.0821  -23.4092  -13.3868 C   0  0  2  0  0  0  0  0  0  0  0  0
   22.8721  -21.8855  -13.7415 C   0  0  0  0  0  0  0  0  0  0  0  0
   22.1591  -21.2900  -12.6353 O   0  0  0  0  0  0  0  0  0  0  0  0
   22.6549  -20.9922  -11.4192 O   0  0  0  0  0  0  0  0  0  0  0  0
  2  1  1  6
  2 13  1  0
  2  3  1  0
  3  4  1  0
  4  5  2  0
  6  5  1  0
  7  6  1  0
  8  7  2  0
  9  8  1  0
 10  9  2  0
 10 11  1  0
 11 12  2  0
 12  7  1  0
 12  4  1  0
 13 14  2  0
 16 17  2  0
 16 15  1  0
 18 16  1  0
 19 18  1  0
 19 20  1  0
 20 21  1  0
 22 21  1  1
 22 24  1  0
 23 13  1  0
 23 22  1  0
 24 25  2  0
 26 24  1  0
 26 27  1  0
 27 28  1  0
 29 28  1  0
 30 26  1  0
 30 29  1  0
 30 31  1  1
 32 31  1  0
 33 31  2  0
M  END
$$$$
