WRP.pdb
     RDKit          3D

 33 35  0  0  1  0  0  0  0  0999 V2000
   21.4479  -17.4695  -17.0802 N   0  0  0  0  0  0  0  0  0  0  0  0
   21.7954  -17.9142  -15.7454 C   0  0  1  0  0  0  0  0  0  0  0  0
   20.6439  -18.7459  -15.2110 C   0  0  0  0  0  0  0  0  0  0  0  0
   20.3881  -18.4519  -13.7768 C   0  0  0  0  0  0  0  0  0  0  0  0
   19.5675  -17.4824  -13.2194 C   0  0  0  0  0  0  0  0  0  0  0  0
   19.6354  -17.5704  -11.8785 N   0  0  0  0  0  0  0  0  0  0  0  0
   20.4703  -18.5618  -11.5478 C   0  0  0  0  0  0  0  0  0  0  0  0
   20.8668  -19.0387  -10.3165 C   0  0  0  0  0  0  0  0  0  0  0  0
   21.7504  -20.0863  -10.2653 C   0  0  0  0  0  0  0  0  0  0  0  0
   22.2361  -20.6554  -11.4186 C   0  0  0  0  0  0  0  0  0  0  0  0
   21.8288  -20.1657  -12.6418 C   0  0  0  0  0  0  0  0  0  0  0  0
   20.9493  -19.1230  -12.7106 C   0  0  0  0  0  0  0  0  0  0  0  0
   23.0441  -18.6996  -15.7233 C   0  0  0  0  0  0  0  0  0  0  0  0
   23.2834  -19.5146  -16.6567 O   0  0  0  0  0  0  0  0  0  0  0  0
   28.6742  -21.3050  -10.4486 N   0  0  0  0  0  0  0  0  0  0  0  0
   29.5255  -21.2788  -11.5640 C   0  0  0  0  0  0  0  0  0  0  0  0
   30.4654  -22.1321  -11.6652 N   0  0  0  0  0  0  0  0  0  0  0  0
   29.3462  -20.2918  -12.6000 N   0  0  0  0  0  0  0  0  0  0  0  0
   28.1999  -19.4405  -12.5893 C   0  0  0  0  0  0  0  0  0  0  0  0
   26.9005  -20.1457  -12.8820 C   0  0  0  0  0  0  0  0  0  0  0  0
   25.8941  -19.1149  -13.3665 C   0  0  0  0  0  0  0  0  0  0  0  0
   25.1551  -19.5516  -14.6008 C   0  0  2  0  0  0  0  0  0  0  0  0
   24.0061  -18.5950  -14.7045 N   0  0  0  0  0  0  0  0  0  0  0  0
   24.6597  -20.9256  -14.5705 C   0  0  0  0  0  0  0  0  0  0  0  0
   23.9023  -21.1516  -13.5126 O   0  0  0  0  0  0  0  0  0  0  0  0
   31.0613  -22.1928  -12.5007 N   0  0  0  0  0  0  0  0  0  0  0  0
   24.8136  -22.0157  -15.3912 C   0  0  0  0  0  0  0  0  0  0  0  0
   25.2695  -21.8054  -16.8101 C   0  0  0  0  0  0  0  0  0  0  0  0
   26.4094  -22.7897  -16.8459 C   0  0  0  0  0  0  0  0  0  0  0  0
   26.0093  -23.9068  -15.9256 C   0  0  2  0  0  0  0  0  0  0  0  0
   24.6402  -23.3958  -15.3288 C   0  0  0  0  0  0  0  0  0  0  0  0
   24.4157  -24.1273  -14.1037 O   0  0  0  0  0  0  0  0  0  0  0  0
   23.5513  -25.1424  -13.9139 O   0  0  0  0  0  0  0  0  0  0  0  0
  2  1  1  6
  2 13  1  0
  2  3  1  0
  3  4  1  0
  4  5  2  0
  6  5  1  0
  7  6  1  0
  8  7  2  0
  9  8  1  0
 10  9  2  0
 10 11  1  0
 11 12  2  0
 12  7  1  0
 12  4  1  0
 13 14  2  0
 16 17  2  0
 16 15  1  0
 18 16  1  0
 19 18  1  0
 19 20  1  0
 20 21  1  0
 22 21  1  1
 22 24  1  0
 23 13  1  0
 23 22  1  0
 24 25  2  0
 26 24  1  0
 26 27  1  0
 27 28  1  0
 29 28  1  0
 30 26  1  0
 30 29  1  0
 30 31  1  6
 32 31  1  0
 33 31  2  0
M  END
$$$$
