WRP.pdb
     RDKit          3D

 33 35  0  0  1  0  0  0  0  0999 V2000
   27.5984  -19.8384   -9.9527 N   0  0  0  0  0  0  0  0  0  0  0  0
   26.4816  -20.7415   -9.7593 C   0  0  1  0  0  0  0  0  0  0  0  0
   25.7019  -20.2735   -8.5442 C   0  0  0  0  0  0  0  0  0  0  0  0
   26.5800  -19.5516   -7.5869 C   0  0  0  0  0  0  0  0  0  0  0  0
   26.8977  -18.2021   -7.5438 C   0  0  0  0  0  0  0  0  0  0  0  0
   27.7293  -17.9815   -6.5094 N   0  0  0  0  0  0  0  0  0  0  0  0
   27.9613  -19.1394   -5.8812 C   0  0  0  0  0  0  0  0  0  0  0  0
   28.7359  -19.4320   -4.7788 C   0  0  0  0  0  0  0  0  0  0  0  0
   28.7965  -20.7292   -4.3376 C   0  0  0  0  0  0  0  0  0  0  0  0
   28.0992  -21.7250   -4.9793 C   0  0  0  0  0  0  0  0  0  0  0  0
   27.3294  -21.4145   -6.0805 C   0  0  0  0  0  0  0  0  0  0  0  0
   27.2579  -20.1278   -6.5331 C   0  0  0  0  0  0  0  0  0  0  0  0
   25.5980  -20.8013  -10.9392 C   0  0  0  0  0  0  0  0  0  0  0  0
   25.4004  -19.7588  -11.6224 O   0  0  0  0  0  0  0  0  0  0  0  0
   27.9289  -25.4511  -16.8063 N   0  0  0  0  0  0  0  0  0  0  0  0
   27.0870  -24.3323  -16.9012 C   0  0  0  0  0  0  0  0  0  0  0  0
   26.5391  -24.0429  -18.0139 N   0  0  0  0  0  0  0  0  0  0  0  0
   26.8355  -23.5041  -15.7478 N   0  0  0  0  0  0  0  0  0  0  0  0
   26.0974  -24.0213  -14.6403 C   0  0  0  0  0  0  0  0  0  0  0  0
   24.6721  -23.5370  -14.5640 C   0  0  0  0  0  0  0  0  0  0  0  0
   24.2768  -23.4394  -13.0997 C   0  0  0  0  0  0  0  0  0  0  0  0
   24.1406  -22.0203  -12.6222 C   0  0  2  0  0  0  0  0  0  0  0  0
   24.9473  -21.9735  -11.3599 N   0  0  0  0  0  0  0  0  0  0  0  0
   22.7712  -21.5869  -12.3559 C   0  0  0  0  0  0  0  0  0  0  0  0
   22.1882  -22.3364  -11.4383 O   0  0  0  0  0  0  0  0  0  0  0  0
   25.9489  -23.2097  -18.1324 N   0  0  0  0  0  0  0  0  0  0  0  0
   21.9721  -20.5855  -12.8503 C   0  0  0  0  0  0  0  0  0  0  0  0
   22.6141  -19.3956  -13.5113 C   0  0  0  0  0  0  0  0  0  0  0  0
   21.8290  -19.3806  -14.7970 C   0  0  0  0  0  0  0  0  0  0  0  0
   20.4634  -19.8957  -14.4439 C   0  0  2  0  0  0  0  0  0  0  0  0
   20.6161  -20.2773  -12.9198 C   0  0  0  0  0  0  0  0  0  0  0  0
   19.5584  -21.2115  -12.6116 O   0  0  0  0  0  0  0  0  0  0  0  0
   19.5048  -22.5139  -12.9497 O   0  0  0  0  0  0  0  0  0  0  0  0
  2  1  1  6
  2 13  1  0
  2  3  1  0
  3  4  1  0
  4  5  2  0
  6  5  1  0
  7  6  1  0
  8  7  2  0
  9  8  1  0
 10  9  2  0
 10 11  1  0
 11 12  2  0
 12  7  1  0
 12  4  1  0
 13 14  2  0
 16 17  2  0
 16 15  1  0
 18 16  1  0
 19 18  1  0
 19 20  1  0
 20 21  1  0
 22 21  1  1
 22 24  1  0
 23 13  1  0
 23 22  1  0
 24 25  2  0
 26 24  1  0
 26 27  1  0
 27 28  1  0
 29 28  1  0
 30 26  1  0
 30 29  1  0
 30 31  1  6
 32 31  1  0
 33 31  2  0
M  END
$$$$
