WRP.pdb
     RDKit          3D

 33 35  0  0  1  0  0  0  0  0999 V2000
   20.7917  -19.7276  -17.2532 N   0  0  0  0  0  0  0  0  0  0  0  0
   21.2880  -18.8860  -16.1829 C   0  0  1  0  0  0  0  0  0  0  0  0
   20.2894  -18.9375  -15.0412 C   0  0  0  0  0  0  0  0  0  0  0  0
   19.0493  -18.1905  -15.3771 C   0  0  0  0  0  0  0  0  0  0  0  0
   17.8565  -18.6716  -15.8964 C   0  0  0  0  0  0  0  0  0  0  0  0
   16.9993  -17.6454  -16.0460 N   0  0  0  0  0  0  0  0  0  0  0  0
   17.5942  -16.5173  -15.6422 C   0  0  0  0  0  0  0  0  0  0  0  0
   17.1363  -15.2176  -15.5994 C   0  0  0  0  0  0  0  0  0  0  0  0
   17.9719  -14.2363  -15.1305 C   0  0  0  0  0  0  0  0  0  0  0  0
   19.2452  -14.5372  -14.7088 C   0  0  0  0  0  0  0  0  0  0  0  0
   19.6868  -15.8427  -14.7585 C   0  0  0  0  0  0  0  0  0  0  0  0
   18.8676  -16.8321  -15.2228 C   0  0  0  0  0  0  0  0  0  0  0  0
   22.6217  -19.3057  -15.7121 C   0  0  0  0  0  0  0  0  0  0  0  0
   22.9250  -20.5307  -15.7125 O   0  0  0  0  0  0  0  0  0  0  0  0
   29.7488  -15.7207  -17.5558 N   0  0  0  0  0  0  0  0  0  0  0  0
   29.5464  -16.8767  -16.7862 C   0  0  0  0  0  0  0  0  0  0  0  0
   30.5430  -17.5869  -16.4337 N   0  0  0  0  0  0  0  0  0  0  0  0
   28.2169  -17.2699  -16.3895 N   0  0  0  0  0  0  0  0  0  0  0  0
   27.1157  -16.3842  -16.5941 C   0  0  0  0  0  0  0  0  0  0  0  0
   25.7677  -16.9930  -16.3042 C   0  0  0  0  0  0  0  0  0  0  0  0
   25.8188  -17.6379  -14.9288 C   0  0  0  0  0  0  0  0  0  0  0  0
   24.9590  -18.8668  -14.8250 C   0  0  2  0  0  0  0  0  0  0  0  0
   23.5984  -18.4061  -15.2523 N   0  0  0  0  0  0  0  0  0  0  0  0
   24.8892  -19.4611  -13.4923 C   0  0  0  0  0  0  0  0  0  0  0  0
   24.1961  -18.7108  -12.6554 O   0  0  0  0  0  0  0  0  0  0  0  0
   30.4332  -18.4487  -15.8841 N   0  0  0  0  0  0  0  0  0  0  0  0
   25.3852  -20.6123  -12.9317 C   0  0  0  0  0  0  0  0  0  0  0  0
   25.8709  -21.7154  -13.8332 C   0  0  0  0  0  0  0  0  0  0  0  0
   27.2301  -21.9436  -13.2249 C   0  0  0  0  0  0  0  0  0  0  0  0
   27.0742  -21.6463  -11.7613 C   0  0  2  0  0  0  0  0  0  0  0  0
   25.5792  -21.1496  -11.6620 C   0  0  0  0  0  0  0  0  0  0  0  0
   25.4680  -20.3907  -10.4379 O   0  0  0  0  0  0  0  0  0  0  0  0
   24.9311  -20.8053   -9.2745 O   0  0  0  0  0  0  0  0  0  0  0  0
  2  1  1  6
  2 13  1  0
  2  3  1  0
  3  4  1  0
  4  5  2  0
  6  5  1  0
  7  6  1  0
  8  7  2  0
  9  8  1  0
 10  9  2  0
 10 11  1  0
 11 12  2  0
 12  7  1  0
 12  4  1  0
 13 14  2  0
 16 17  2  0
 16 15  1  0
 18 16  1  0
 19 18  1  0
 19 20  1  0
 20 21  1  0
 22 21  1  1
 22 24  1  0
 23 13  1  0
 23 22  1  0
 24 25  2  0
 26 24  1  0
 26 27  1  0
 27 28  1  0
 29 28  1  0
 30 26  1  0
 30 29  1  0
 30 31  1  1
 32 31  1  0
 33 31  2  0
M  END
$$$$
