WRP.pdb
     RDKit          3D

 33 35  0  0  1  0  0  0  0  0999 V2000
   25.0991  -18.9387   -8.6829 N   0  0  0  0  0  0  0  0  0  0  0  0
   26.1066  -19.8231   -9.2332 C   0  0  1  0  0  0  0  0  0  0  0  0
   26.0567  -21.1308   -8.4645 C   0  0  0  0  0  0  0  0  0  0  0  0
   26.4027  -20.9272   -7.0335 C   0  0  0  0  0  0  0  0  0  0  0  0
   25.6626  -21.2462   -5.9046 C   0  0  0  0  0  0  0  0  0  0  0  0
   26.3573  -20.8860   -4.8102 N   0  0  0  0  0  0  0  0  0  0  0  0
   27.5205  -20.3453   -5.1899 C   0  0  0  0  0  0  0  0  0  0  0  0
   28.5636  -19.8300   -4.4502 C   0  0  0  0  0  0  0  0  0  0  0  0
   29.6581  -19.3297   -5.1080 C   0  0  0  0  0  0  0  0  0  0  0  0
   29.7200  -19.3391   -6.4813 C   0  0  0  0  0  0  0  0  0  0  0  0
   28.6675  -19.8584   -7.2054 C   0  0  0  0  0  0  0  0  0  0  0  0
   27.5699  -20.3606   -6.5661 C   0  0  0  0  0  0  0  0  0  0  0  0
   25.9082  -20.0715  -10.6739 C   0  0  0  0  0  0  0  0  0  0  0  0
   24.7650  -19.9064  -11.1823 O   0  0  0  0  0  0  0  0  0  0  0  0
   29.1973  -24.0678  -16.1495 N   0  0  0  0  0  0  0  0  0  0  0  0
   29.1708  -23.0160  -17.0782 C   0  0  0  0  0  0  0  0  0  0  0  0
   28.6245  -23.1874  -18.2158 N   0  0  0  0  0  0  0  0  0  0  0  0
   29.7582  -21.7389  -16.7564 N   0  0  0  0  0  0  0  0  0  0  0  0
   29.6706  -21.2232  -15.4278 C   0  0  0  0  0  0  0  0  0  0  0  0
   28.2951  -20.7474  -15.0363 C   0  0  0  0  0  0  0  0  0  0  0  0
   28.2202  -20.6940  -13.5192 C   0  0  0  0  0  0  0  0  0  0  0  0
   26.8759  -20.2494  -13.0136 C   0  0  2  0  0  0  0  0  0  0  0  0
   26.9360  -20.4904  -11.5356 N   0  0  0  0  0  0  0  0  0  0  0  0
   25.7346  -20.9569  -13.5888 C   0  0  0  0  0  0  0  0  0  0  0  0
   25.8584  -22.2663  -13.4717 O   0  0  0  0  0  0  0  0  0  0  0  0
   28.6387  -22.4621  -18.9441 N   0  0  0  0  0  0  0  0  0  0  0  0
   24.5812  -20.5583  -14.2184 C   0  0  0  0  0  0  0  0  0  0  0  0
   24.0624  -19.1652  -13.9830 C   0  0  0  0  0  0  0  0  0  0  0  0
   23.8866  -18.7279  -15.4139 C   0  0  0  0  0  0  0  0  0  0  0  0
   23.5257  -19.9705  -16.1759 C   0  0  2  0  0  0  0  0  0  0  0  0
   23.6259  -21.0978  -15.0756 C   0  0  0  0  0  0  0  0  0  0  0  0
   23.7826  -22.3534  -15.7723 O   0  0  0  0  0  0  0  0  0  0  0  0
   22.8601  -23.3252  -15.9065 O   0  0  0  0  0  0  0  0  0  0  0  0
  2  1  1  1
  2 13  1  0
  2  3  1  0
  3  4  1  0
  4  5  2  0
  6  5  1  0
  7  6  1  0
  8  7  2  0
  9  8  1  0
 10  9  2  0
 10 11  1  0
 11 12  2  0
 12  7  1  0
 12  4  1  0
 13 14  2  0
 16 17  2  0
 16 15  1  0
 18 16  1  0
 19 18  1  0
 19 20  1  0
 20 21  1  0
 22 21  1  6
 22 24  1  0
 23 13  1  0
 23 22  1  0
 24 25  2  0
 26 24  1  0
 26 27  1  0
 27 28  1  0
 29 28  1  0
 30 26  1  0
 30 29  1  0
 30 31  1  6
 32 31  1  0
 33 31  2  0
M  END
$$$$
