RFM.pdb
     RDKit          3D

 31 31  0  0  1  0  0  0  0  0999 V2000
    8.6983  -12.7431   17.3027 N   0  0  0  0  0  0  0  0  0  0  0  0
    8.8547  -13.6208   16.1796 C   0  0  0  0  0  0  0  0  0  0  0  0
    8.4094  -13.2548   15.0273 N   0  0  0  0  0  0  0  0  0  0  0  0
    9.4963  -14.8766   16.3512 N   0  0  0  0  0  0  0  0  0  0  0  0
    9.0112  -15.8831   17.2550 C   0  0  0  0  0  0  0  0  0  0  0  0
    9.5253  -15.6191   18.6418 C   0  0  0  0  0  0  0  0  0  0  0  0
   10.2780  -16.8197   19.1887 C   0  0  0  0  0  0  0  0  0  0  0  0
    9.5560  -17.4972   20.3181 C   0  0  2  0  0  0  0  0  0  0  0  0
    8.2476  -17.9801   19.9107 N   0  0  0  0  0  0  0  0  0  0  0  0
    9.4471  -16.5468   21.4566 C   0  0  0  0  0  0  0  0  0  0  0  0
   10.4627  -15.9063   21.8297 O   0  0  0  0  0  0  0  0  0  0  0  0
    8.4973  -13.8891   14.2255 N   0  0  0  0  0  0  0  0  0  0  0  0
    8.2303  -16.3240   22.1530 C   0  0  1  0  0  0  0  0  0  0  0  0
    8.1642  -15.2978   23.1597 C   0  0  0  0  0  0  0  0  0  0  0  0
    6.7853  -15.1526   23.7434 C   0  0  0  0  0  0  0  0  0  0  0  0
    6.6917  -14.2656   24.8885 C   0  0  0  0  0  0  0  0  0  0  0  0
    7.1138  -12.9662   24.8174 C   0  0  0  0  0  0  0  0  0  0  0  0
    7.0309  -12.1068   25.9217 C   0  0  0  0  0  0  0  0  0  0  0  0
    6.5203  -12.5702   27.0912 C   0  0  0  0  0  0  0  0  0  0  0  0
    6.0893  -13.8649   27.1953 C   0  0  0  0  0  0  0  0  0  0  0  0
    6.1771  -14.7158   26.0836 C   0  0  0  0  0  0  0  0  0  0  0  0
    9.2313  -15.5220   24.1519 O   0  0  0  0  0  0  0  0  0  0  0  0
   10.1545  -14.6474   24.3022 C   0  0  0  0  0  0  0  0  0  0  0  0
   12.8837  -13.0024   28.5685 S   0  0  0  0  0  0  0  0  0  0  0  0
   11.3178  -13.8597   28.8851 C   0  0  0  0  0  0  0  0  0  0  0  0
   11.3004  -15.4195   27.9707 C   0  0  0  0  0  0  0  0  0  0  0  0
   10.2558  -15.4602   26.9030 C   0  0  2  0  0  0  0  0  0  0  0  0
   10.3039  -16.7346   26.0711 N   0  0  0  0  0  0  0  0  0  0  0  0
    9.3390  -16.6587   24.9916 C   0  0  0  0  0  0  0  0  0  0  0  0
   10.2222  -17.9568   26.8722 O   0  0  0  0  0  0  0  0  0  0  0  0
    9.1123  -18.5907   26.8034 O   0  0  0  0  0  0  0  0  0  0  0  0
  1  2  1  0
  2  3  2  0
  4  2  1  0
  4  5  1  0
  6  5  1  0
  7  6  1  0
  8 10  1  0
  8  7  1  0
  8  9  1  6
 10 12  1  0
 11 10  2  0
 12 13  1  0
 14 15  1  0
 13 14  1  1
 15 20  2  0
 16 17  2  0
 16 15  1  0
 17 18  1  0
 18 19  2  0
 20 19  1  0
 21 22  2  0
 21 13  1  0
 24 25  1  0
 24 23  1  0
 25 26  1  0
 27 26  1  6
 27 28  1  0
 27 29  1  0
 28 21  1  0
 29 30  2  0
 29 31  1  0
M  END
$$$$
