RFM.pdb
     RDKit          3D

 31 31  0  0  1  0  0  0  0  0999 V2000
   13.0050  -19.7343   15.6239 N   0  0  0  0  0  0  0  0  0  0  0  0
   12.0245  -20.5877   16.2293 C   0  0  0  0  0  0  0  0  0  0  0  0
   11.7540  -21.7228   15.6830 N   0  0  0  0  0  0  0  0  0  0  0  0
   11.3676  -20.1727   17.4186 N   0  0  0  0  0  0  0  0  0  0  0  0
   10.1605  -19.3929   17.4111 C   0  0  0  0  0  0  0  0  0  0  0  0
   10.4930  -17.9326   17.2916 C   0  0  0  0  0  0  0  0  0  0  0  0
    9.7970  -17.1187   18.3688 C   0  0  0  0  0  0  0  0  0  0  0  0
    9.8640  -17.7637   19.7235 C   0  0  2  0  0  0  0  0  0  0  0  0
    8.8782  -18.8214   19.8677 N   0  0  0  0  0  0  0  0  0  0  0  0
    9.6832  -16.7159   20.7632 C   0  0  0  0  0  0  0  0  0  0  0  0
   10.4238  -15.6998   20.7556 O   0  0  0  0  0  0  0  0  0  0  0  0
   11.1219  -22.3763   16.1590 N   0  0  0  0  0  0  0  0  0  0  0  0
    8.6972  -16.8097   21.7800 C   0  0  2  0  0  0  0  0  0  0  0  0
    8.5955  -15.7708   22.7706 C   0  0  0  0  0  0  0  0  0  0  0  0
    7.1843  -15.2805   22.9473 C   0  0  0  0  0  0  0  0  0  0  0  0
    7.0129  -14.2463   23.9511 C   0  0  0  0  0  0  0  0  0  0  0  0
    7.4499  -12.9678   23.7362 C   0  0  0  0  0  0  0  0  0  0  0  0
    7.2920  -11.9664   24.7042 C   0  0  0  0  0  0  0  0  0  0  0  0
    6.6918  -12.2674   25.8842 C   0  0  0  0  0  0  0  0  0  0  0  0
    6.2434  -13.5368   26.1304 C   0  0  0  0  0  0  0  0  0  0  0  0
    6.4069  -14.5308   25.1543 C   0  0  0  0  0  0  0  0  0  0  0  0
    9.2506  -16.2192   24.0130 O   0  0  0  0  0  0  0  0  0  0  0  0
    9.1585  -17.4442   24.3746 C   0  0  0  0  0  0  0  0  0  0  0  0
   11.6041  -13.6590   30.9624 S   0  0  0  0  0  0  0  0  0  0  0  0
   10.2054  -13.7871   29.8159 C   0  0  0  0  0  0  0  0  0  0  0  0
   10.5458  -15.0892   28.6085 C   0  0  0  0  0  0  0  0  0  0  0  0
   10.1235  -14.7263   27.2218 C   0  0  2  0  0  0  0  0  0  0  0  0
   10.4076  -15.8245   26.2061 N   0  0  0  0  0  0  0  0  0  0  0  0
   10.0046  -15.3918   24.8823 C   0  0  0  0  0  0  0  0  0  0  0  0
    9.8843  -17.1331   26.6013 O   0  0  0  0  0  0  0  0  0  0  0  0
   10.7620  -18.0009   26.9405 O   0  0  0  0  0  0  0  0  0  0  0  0
  1  2  1  0
  2  3  2  0
  4  2  1  0
  4  5  1  0
  6  5  1  0
  7  6  1  0
  8 10  1  0
  8  7  1  0
  8  9  1  6
 10 12  1  0
 11 10  2  0
 12 13  1  0
 14 15  1  0
 13 14  1  6
 15 20  2  0
 16 17  2  0
 16 15  1  0
 17 18  1  0
 18 19  2  0
 20 19  1  0
 21 22  2  0
 21 13  1  0
 24 25  1  0
 24 23  1  0
 25 26  1  0
 27 26  1  6
 27 28  1  0
 27 29  1  0
 28 21  1  0
 29 30  2  0
 29 31  1  0
M  END
$$$$
