RFM.pdb
     RDKit          3D

 31 31  0  0  1  0  0  0  0  0999 V2000
   14.0806  -18.7118   16.9372 N   0  0  0  0  0  0  0  0  0  0  0  0
   13.9520  -19.9770   17.5997 C   0  0  0  0  0  0  0  0  0  0  0  0
   13.8058  -21.0453   16.8945 N   0  0  0  0  0  0  0  0  0  0  0  0
   13.9881  -20.0358   19.0187 N   0  0  0  0  0  0  0  0  0  0  0  0
   14.1282  -18.8679   19.8442 C   0  0  0  0  0  0  0  0  0  0  0  0
   12.9752  -17.9331   19.6117 C   0  0  0  0  0  0  0  0  0  0  0  0
   11.8527  -18.1847   20.6036 C   0  0  0  0  0  0  0  0  0  0  0  0
   10.6517  -17.3165   20.3596 C   0  0  2  0  0  0  0  0  0  0  0  0
   10.8574  -16.4111   19.2420 N   0  0  0  0  0  0  0  0  0  0  0  0
   10.3394  -16.5683   21.6063 C   0  0  0  0  0  0  0  0  0  0  0  0
   11.2601  -15.9678   22.2168 O   0  0  0  0  0  0  0  0  0  0  0  0
   13.6913  -21.9505   17.3640 N   0  0  0  0  0  0  0  0  0  0  0  0
    9.0292  -16.4980   22.1481 C   0  0  2  0  0  0  0  0  0  0  0  0
    8.7812  -15.6810   23.3065 C   0  0  0  0  0  0  0  0  0  0  0  0
    7.4253  -15.0302   23.2718 C   0  0  0  0  0  0  0  0  0  0  0  0
    7.0991  -14.2245   24.4342 C   0  0  0  0  0  0  0  0  0  0  0  0
    7.6003  -12.9606   24.5863 C   0  0  0  0  0  0  0  0  0  0  0  0
    7.2930  -12.1802   25.7094 C   0  0  0  0  0  0  0  0  0  0  0  0
    6.4793  -12.6861   26.6714 C   0  0  0  0  0  0  0  0  0  0  0  0
    5.9615  -13.9470   26.5493 C   0  0  0  0  0  0  0  0  0  0  0  0
    6.2759  -14.7188   25.4210 C   0  0  0  0  0  0  0  0  0  0  0  0
    9.0543  -16.4681   24.5229 O   0  0  0  0  0  0  0  0  0  0  0  0
    8.9297  -17.7423   24.4976 C   0  0  0  0  0  0  0  0  0  0  0  0
    9.9624  -12.7955   29.0760 S   0  0  0  0  0  0  0  0  0  0  0  0
   11.5590  -13.6449   28.9469 C   0  0  0  0  0  0  0  0  0  0  0  0
   11.4047  -15.0242   27.7879 C   0  0  0  0  0  0  0  0  0  0  0  0
   10.2326  -15.9044   28.0786 C   0  0  2  0  0  0  0  0  0  0  0  0
    9.8286  -16.7691   26.8923 N   0  0  0  0  0  0  0  0  0  0  0  0
    9.4590  -15.9292   25.7697 C   0  0  0  0  0  0  0  0  0  0  0  0
    8.8435  -17.7977   27.2297 O   0  0  0  0  0  0  0  0  0  0  0  0
    7.6432  -17.5593   26.8540 O   0  0  0  0  0  0  0  0  0  0  0  0
  1  2  1  0
  2  3  2  0
  4  2  1  0
  4  5  1  0
  6  5  1  0
  7  6  1  0
  8 10  1  0
  8  7  1  0
  8  9  1  6
 10 12  1  0
 11 10  2  0
 12 13  1  0
 14 15  1  0
 13 14  1  6
 15 20  2  0
 16 17  2  0
 16 15  1  0
 17 18  1  0
 18 19  2  0
 20 19  1  0
 21 22  2  0
 21 13  1  0
 24 25  1  0
 24 23  1  0
 25 26  1  0
 27 26  1  6
 27 28  1  0
 27 29  1  0
 28 21  1  0
 29 30  2  0
 29 31  1  0
M  END
$$$$
