RFM.pdb
     RDKit          3D

 31 31  0  0  1  0  0  0  0  0999 V2000
    9.2159  -20.0865   16.3917 N   0  0  0  0  0  0  0  0  0  0  0  0
   10.3288  -20.0006   15.4916 C   0  0  0  0  0  0  0  0  0  0  0  0
   10.1859  -20.3958   14.2737 N   0  0  0  0  0  0  0  0  0  0  0  0
   11.5687  -19.4824   15.9523 N   0  0  0  0  0  0  0  0  0  0  0  0
   11.7312  -18.8873   17.2503 C   0  0  0  0  0  0  0  0  0  0  0  0
   10.7827  -17.7329   17.4084 C   0  0  0  0  0  0  0  0  0  0  0  0
   11.0541  -16.9681   18.6924 C   0  0  0  0  0  0  0  0  0  0  0  0
   10.5633  -17.6876   19.9160 C   0  0  2  0  0  0  0  0  0  0  0  0
    9.3868  -18.4923   19.6342 N   0  0  0  0  0  0  0  0  0  0  0  0
   10.2874  -16.6881   20.9819 C   0  0  0  0  0  0  0  0  0  0  0  0
   11.2205  -15.9598   21.4063 O   0  0  0  0  0  0  0  0  0  0  0  0
   10.9638  -20.2914   13.6127 N   0  0  0  0  0  0  0  0  0  0  0  0
    8.9991  -16.5136   21.5518 C   0  0  1  0  0  0  0  0  0  0  0  0
    8.8129  -15.5572   22.6108 C   0  0  0  0  0  0  0  0  0  0  0  0
    7.3866  -15.0920   22.7217 C   0  0  0  0  0  0  0  0  0  0  0  0
    7.1236  -14.1661   23.8081 C   0  0  0  0  0  0  0  0  0  0  0  0
    7.5457  -12.8659   23.7518 C   0  0  0  0  0  0  0  0  0  0  0  0
    7.2993  -11.9690   24.8004 C   0  0  0  0  0  0  0  0  0  0  0  0
    6.6263  -12.3957   25.8996 C   0  0  0  0  0  0  0  0  0  0  0  0
    6.1905  -13.6901   25.9869 C   0  0  0  0  0  0  0  0  0  0  0  0
    6.4428  -14.5788   24.9314 C   0  0  0  0  0  0  0  0  0  0  0  0
    9.3818  -16.0982   23.8588 O   0  0  0  0  0  0  0  0  0  0  0  0
    9.1954  -17.3282   24.1623 C   0  0  0  0  0  0  0  0  0  0  0  0
   11.3088  -12.8416   29.8111 S   0  0  0  0  0  0  0  0  0  0  0  0
   10.1223  -14.2118   29.8542 C   0  0  0  0  0  0  0  0  0  0  0  0
   10.5350  -15.3948   28.5505 C   0  0  0  0  0  0  0  0  0  0  0  0
   10.0981  -14.9463   27.1937 C   0  0  2  0  0  0  0  0  0  0  0  0
   10.5247  -15.8993   26.0855 N   0  0  0  0  0  0  0  0  0  0  0  0
   10.1478  -15.3585   24.7942 C   0  0  0  0  0  0  0  0  0  0  0  0
   10.1004  -17.2819   26.3107 O   0  0  0  0  0  0  0  0  0  0  0  0
   10.7325  -17.9128   27.2278 O   0  0  0  0  0  0  0  0  0  0  0  0
  1  2  1  0
  2  3  2  0
  4  2  1  0
  4  5  1  0
  6  5  1  0
  7  6  1  0
  8 10  1  0
  8  7  1  0
  8  9  1  6
 10 12  1  0
 11 10  2  0
 12 13  1  0
 14 15  1  0
 13 14  1  6
 15 20  2  0
 16 17  2  0
 16 15  1  0
 17 18  1  0
 18 19  2  0
 20 19  1  0
 21 22  2  0
 21 13  1  0
 24 25  1  0
 24 23  1  0
 25 26  1  0
 27 26  1  6
 27 28  1  0
 27 29  1  0
 28 21  1  0
 29 30  2  0
 29 31  1  0
M  END
$$$$
