RFM.pdb
     RDKit          3D

 31 31  0  0  1  0  0  0  0  0999 V2000
   13.0586  -18.7606   16.3689 N   0  0  0  0  0  0  0  0  0  0  0  0
   12.1561  -18.9510   15.2710 C   0  0  0  0  0  0  0  0  0  0  0  0
   12.4153  -19.8569   14.3923 N   0  0  0  0  0  0  0  0  0  0  0  0
   10.9927  -18.1424   15.1674 N   0  0  0  0  0  0  0  0  0  0  0  0
   10.5398  -17.2879   16.2303 C   0  0  0  0  0  0  0  0  0  0  0  0
   10.5949  -18.0231   17.5394 C   0  0  0  0  0  0  0  0  0  0  0  0
   10.2072  -17.1186   18.6965 C   0  0  0  0  0  0  0  0  0  0  0  0
   10.1068  -17.8520   20.0034 C   0  0  2  0  0  0  0  0  0  0  0  0
    9.0356  -18.8336   19.9913 N   0  0  0  0  0  0  0  0  0  0  0  0
    9.9152  -16.8615   21.0958 C   0  0  0  0  0  0  0  0  0  0  0  0
   10.7583  -15.9424   21.2552 O   0  0  0  0  0  0  0  0  0  0  0  0
   11.7609  -20.0131   13.6175 N   0  0  0  0  0  0  0  0  0  0  0  0
    8.8065  -16.9046   21.9814 C   0  0  1  0  0  0  0  0  0  0  0  0
    8.6888  -15.9184   23.0227 C   0  0  0  0  0  0  0  0  0  0  0  0
    7.2705  -15.4574   23.2206 C   0  0  0  0  0  0  0  0  0  0  0  0
    7.1000  -14.3871   24.1861 C   0  0  0  0  0  0  0  0  0  0  0  0
    6.4861  -14.6062   25.3890 C   0  0  0  0  0  0  0  0  0  0  0  0
    6.3138  -13.5751   26.3228 C   0  0  0  0  0  0  0  0  0  0  0  0
    6.7652  -12.3283   26.0314 C   0  0  0  0  0  0  0  0  0  0  0  0
    7.3837  -12.0761   24.8369 C   0  0  0  0  0  0  0  0  0  0  0  0
    7.5505  -13.1157   23.9100 C   0  0  0  0  0  0  0  0  0  0  0  0
    9.3481  -16.4195   24.2424 O   0  0  0  0  0  0  0  0  0  0  0  0
    9.3155  -17.6702   24.5154 C   0  0  0  0  0  0  0  0  0  0  0  0
   11.5608  -14.3193   30.7024 S   0  0  0  0  0  0  0  0  0  0  0  0
   10.4314  -13.4056   29.6175 C   0  0  0  0  0  0  0  0  0  0  0  0
   10.6570  -13.9715   27.9151 C   0  0  0  0  0  0  0  0  0  0  0  0
    9.6835  -15.0332   27.5176 C   0  0  2  0  0  0  0  0  0  0  0  0
   10.2724  -16.0480   26.5472 N   0  0  0  0  0  0  0  0  0  0  0  0
   10.0445  -15.6181   25.1814 C   0  0  0  0  0  0  0  0  0  0  0  0
    9.8631  -17.4255   26.8251 O   0  0  0  0  0  0  0  0  0  0  0  0
   10.8113  -18.2397   27.1021 O   0  0  0  0  0  0  0  0  0  0  0  0
  1  2  1  0
  2  3  2  0
  4  2  1  0
  4  5  1  0
  6  5  1  0
  7  6  1  0
  8 10  1  0
  8  7  1  0
  8  9  1  6
 10 12  1  0
 11 10  2  0
 12 13  1  0
 14 15  1  0
 13 14  1  1
 15 20  2  0
 16 17  2  0
 16 15  1  0
 17 18  1  0
 18 19  2  0
 20 19  1  0
 21 22  2  0
 21 13  1  0
 24 25  1  0
 24 23  1  0
 25 26  1  0
 27 26  1  1
 27 28  1  0
 27 29  1  0
 28 21  1  0
 29 30  2  0
 29 31  1  0
M  END
$$$$
