RFM.pdb
     RDKit          3D

 31 31  0  0  1  0  0  0  0  0999 V2000
    8.2839  -12.6208   15.7994 N   0  0  0  0  0  0  0  0  0  0  0  0
    8.9915  -13.7649   16.2959 C   0  0  0  0  0  0  0  0  0  0  0  0
    9.9842  -13.5920   17.0987 N   0  0  0  0  0  0  0  0  0  0  0  0
    8.5900  -15.0684   15.8984 N   0  0  0  0  0  0  0  0  0  0  0  0
    9.3170  -16.2533   16.2627 C   0  0  0  0  0  0  0  0  0  0  0  0
    8.7846  -16.8059   17.5543 C   0  0  0  0  0  0  0  0  0  0  0  0
    9.6414  -16.3760   18.7327 C   0  0  0  0  0  0  0  0  0  0  0  0
    9.3834  -17.1878   19.9697 C   0  0  2  0  0  0  0  0  0  0  0  0
    8.1693  -17.9776   19.8543 N   0  0  0  0  0  0  0  0  0  0  0  0
    9.3191  -16.2721   21.1396 C   0  0  0  0  0  0  0  0  0  0  0  0
   10.3201  -15.5706   21.4345 O   0  0  0  0  0  0  0  0  0  0  0  0
   10.5498  -14.3986   17.3860 N   0  0  0  0  0  0  0  0  0  0  0  0
    8.1615  -16.1497   21.9522 C   0  0  1  0  0  0  0  0  0  0  0  0
    8.1656  -15.2352   23.0633 C   0  0  0  0  0  0  0  0  0  0  0  0
    6.8273  -15.1531   23.7456 C   0  0  0  0  0  0  0  0  0  0  0  0
    6.7478  -14.1936   24.8318 C   0  0  0  0  0  0  0  0  0  0  0  0
    6.1802  -14.5240   26.0319 C   0  0  0  0  0  0  0  0  0  0  0  0
    6.0957  -13.5998   27.0824 C   0  0  0  0  0  0  0  0  0  0  0  0
    6.5875  -12.3461   26.9096 C   0  0  0  0  0  0  0  0  0  0  0  0
    7.1616  -11.9840   25.7212 C   0  0  0  0  0  0  0  0  0  0  0  0
    7.2405  -12.9173   24.6770 C   0  0  0  0  0  0  0  0  0  0  0  0
    9.2920  -15.5619   23.9566 O   0  0  0  0  0  0  0  0  0  0  0  0
   10.2876  -14.7613   24.0443 C   0  0  0  0  0  0  0  0  0  0  0  0
    9.7867  -13.4832   29.3146 S   0  0  0  0  0  0  0  0  0  0  0  0
   11.3963  -14.1021   28.7546 C   0  0  0  0  0  0  0  0  0  0  0  0
   11.1649  -15.6945   27.9297 C   0  0  0  0  0  0  0  0  0  0  0  0
   10.2559  -15.6138   26.7464 C   0  0  1  0  0  0  0  0  0  0  0  0
   10.3383  -16.8401   25.8476 N   0  0  0  0  0  0  0  0  0  0  0  0
    9.3838  -16.7244   24.7623 C   0  0  0  0  0  0  0  0  0  0  0  0
   10.2719  -18.1052   26.5806 O   0  0  0  0  0  0  0  0  0  0  0  0
   11.1816  -18.2819   27.4637 O   0  0  0  0  0  0  0  0  0  0  0  0
  1  2  1  0
  2  3  2  0
  4  2  1  0
  4  5  1  0
  6  5  1  0
  7  6  1  0
  8 10  1  0
  8  7  1  0
  8  9  1  6
 10 12  1  0
 11 10  2  0
 12 13  1  0
 14 15  1  0
 13 14  1  1
 15 20  2  0
 16 17  2  0
 16 15  1  0
 17 18  1  0
 18 19  2  0
 20 19  1  0
 21 22  2  0
 21 13  1  0
 24 25  1  0
 24 23  1  0
 25 26  1  0
 27 26  1  6
 27 28  1  0
 27 29  1  0
 28 21  1  0
 29 30  2  0
 29 31  1  0
M  END
$$$$
