RFM.pdb
     RDKit          3D

 31 31  0  0  1  0  0  0  0  0999 V2000
    9.2042  -15.0450   15.5097 N   0  0  0  0  0  0  0  0  0  0  0  0
    8.1112  -14.1445   15.2848 C   0  0  0  0  0  0  0  0  0  0  0  0
    7.4142  -14.2566   14.2070 N   0  0  0  0  0  0  0  0  0  0  0  0
    7.8119  -13.1455   16.2494 N   0  0  0  0  0  0  0  0  0  0  0  0
    8.4857  -13.0574   17.5157 C   0  0  0  0  0  0  0  0  0  0  0  0
    8.5184  -14.4070   18.1751 C   0  0  0  0  0  0  0  0  0  0  0  0
    9.1859  -14.3388   19.5378 C   0  0  0  0  0  0  0  0  0  0  0  0
    9.2697  -15.6766   20.2152 C   0  0  2  0  0  0  0  0  0  0  0  0
    8.1127  -16.5048   19.9208 N   0  0  0  0  0  0  0  0  0  0  0  0
    9.4195  -15.4644   21.6794 C   0  0  0  0  0  0  0  0  0  0  0  0
   10.4374  -14.8720   22.1197 O   0  0  0  0  0  0  0  0  0  0  0  0
    6.6593  -13.5872   14.0199 N   0  0  0  0  0  0  0  0  0  0  0  0
    8.4511  -15.9055   22.6190 C   0  0  1  0  0  0  0  0  0  0  0  0
    8.7353  -15.8197   24.0272 C   0  0  0  0  0  0  0  0  0  0  0  0
    7.4894  -15.8640   24.8692 C   0  0  0  0  0  0  0  0  0  0  0  0
    7.0165  -14.5742   25.3374 C   0  0  0  0  0  0  0  0  0  0  0  0
    6.1118  -14.4770   26.3592 C   0  0  0  0  0  0  0  0  0  0  0  0
    5.6475  -13.2342   26.8117 C   0  0  0  0  0  0  0  0  0  0  0  0
    6.1034  -12.0976   26.2256 C   0  0  0  0  0  0  0  0  0  0  0  0
    7.0087  -12.1605   25.2012 C   0  0  0  0  0  0  0  0  0  0  0  0
    7.4663  -13.4097   24.7566 C   0  0  0  0  0  0  0  0  0  0  0  0
    9.7515  -16.8280   24.3795 O   0  0  0  0  0  0  0  0  0  0  0  0
   10.8517  -16.8779   23.7261 C   0  0  0  0  0  0  0  0  0  0  0  0
   10.6078  -12.9933   28.4270 S   0  0  0  0  0  0  0  0  0  0  0  0
   11.3768  -14.6252   28.6072 C   0  0  0  0  0  0  0  0  0  0  0  0
   10.0840  -15.8887   28.6474 C   0  0  0  0  0  0  0  0  0  0  0  0
    9.5625  -16.2357   27.2907 C   0  0  2  0  0  0  0  0  0  0  0  0
   10.1195  -17.5483   26.7565 N   0  0  0  0  0  0  0  0  0  0  0  0
    9.6243  -17.7875   25.4149 C   0  0  0  0  0  0  0  0  0  0  0  0
    9.9443  -18.6729   27.6766 O   0  0  0  0  0  0  0  0  0  0  0  0
    8.7549  -19.1386   27.7617 O   0  0  0  0  0  0  0  0  0  0  0  0
  1  2  1  0
  2  3  2  0
  4  2  1  0
  4  5  1  0
  6  5  1  0
  7  6  1  0
  8 10  1  0
  8  7  1  0
  8  9  1  1
 10 12  1  0
 11 10  2  0
 12 13  1  0
 14 15  1  0
 13 14  1  6
 15 20  2  0
 16 17  2  0
 16 15  1  0
 17 18  1  0
 18 19  2  0
 20 19  1  0
 21 22  2  0
 21 13  1  0
 24 25  1  0
 24 23  1  0
 25 26  1  0
 27 26  1  6
 27 28  1  0
 27 29  1  0
 28 21  1  0
 29 30  2  0
 29 31  1  0
M  END
$$$$
