RFM.pdb
     RDKit          3D

 31 31  0  0  1  0  0  0  0  0999 V2000
    7.3816  -13.8078   15.8361 N   0  0  0  0  0  0  0  0  0  0  0  0
    8.3741  -13.5303   16.8330 C   0  0  0  0  0  0  0  0  0  0  0  0
    8.3583  -12.3930   17.4383 N   0  0  0  0  0  0  0  0  0  0  0  0
    9.3573  -14.5089   17.1395 N   0  0  0  0  0  0  0  0  0  0  0  0
    9.1560  -15.9138   16.9135 C   0  0  0  0  0  0  0  0  0  0  0  0
    8.8859  -16.6103   18.2171 C   0  0  0  0  0  0  0  0  0  0  0  0
   10.0603  -17.4801   18.6311 C   0  0  0  0  0  0  0  0  0  0  0  0
    9.8308  -18.1901   19.9346 C   0  0  2  0  0  0  0  0  0  0  0  0
    8.6150  -18.9854   19.9100 N   0  0  0  0  0  0  0  0  0  0  0  0
    9.7920  -17.1837   21.0287 C   0  0  0  0  0  0  0  0  0  0  0  0
   10.7608  -16.3972   21.1832 O   0  0  0  0  0  0  0  0  0  0  0  0
    9.0876  -12.1752   18.1265 N   0  0  0  0  0  0  0  0  0  0  0  0
    8.6943  -17.0663   21.9211 C   0  0  1  0  0  0  0  0  0  0  0  0
    8.7196  -16.0625   22.9520 C   0  0  0  0  0  0  0  0  0  0  0  0
    7.3950  -15.3671   23.1104 C   0  0  0  0  0  0  0  0  0  0  0  0
    7.3271  -14.4130   24.2021 C   0  0  0  0  0  0  0  0  0  0  0  0
    7.9489  -13.1969   24.1229 C   0  0  0  0  0  0  0  0  0  0  0  0
    7.8913  -12.2739   25.1762 C   0  0  0  0  0  0  0  0  0  0  0  0
    7.2035  -12.5895   26.3034 C   0  0  0  0  0  0  0  0  0  0  0  0
    6.5704  -13.7977   26.4142 C   0  0  0  0  0  0  0  0  0  0  0  0
    6.6349  -14.7135   25.3536 C   0  0  0  0  0  0  0  0  0  0  0  0
    9.2557  -16.6535   24.1917 O   0  0  0  0  0  0  0  0  0  0  0  0
    8.5245  -17.4393   24.8901 C   0  0  0  0  0  0  0  0  0  0  0  0
   10.4353  -12.6659   28.6091 S   0  0  0  0  0  0  0  0  0  0  0  0
    9.9263  -14.2314   29.3687 C   0  0  0  0  0  0  0  0  0  0  0  0
   10.5839  -15.6049   28.3938 C   0  0  0  0  0  0  0  0  0  0  0  0
   10.2804  -15.4855   26.9355 C   0  0  2  0  0  0  0  0  0  0  0  0
   10.8770  -16.6161   26.1085 N   0  0  0  0  0  0  0  0  0  0  0  0
   10.5566  -16.4278   24.7071 C   0  0  0  0  0  0  0  0  0  0  0  0
   10.5618  -17.9474   26.6286 O   0  0  0  0  0  0  0  0  0  0  0  0
   11.3006  -18.3551   27.5912 O   0  0  0  0  0  0  0  0  0  0  0  0
  1  2  1  0
  2  3  2  0
  4  2  1  0
  4  5  1  0
  6  5  1  0
  7  6  1  0
  8 10  1  0
  8  7  1  0
  8  9  1  6
 10 12  1  0
 11 10  2  0
 12 13  1  0
 14 15  1  0
 13 14  1  1
 15 20  2  0
 16 17  2  0
 16 15  1  0
 17 18  1  0
 18 19  2  0
 20 19  1  0
 21 22  2  0
 21 13  1  0
 24 25  1  0
 24 23  1  0
 25 26  1  0
 27 26  1  6
 27 28  1  0
 27 29  1  0
 28 21  1  0
 29 30  2  0
 29 31  1  0
M  END
$$$$
