RFM.pdb
     RDKit          3D

 31 31  0  0  1  0  0  0  0  0999 V2000
    8.5824  -13.4132   14.9773 N   0  0  0  0  0  0  0  0  0  0  0  0
    8.1350  -13.9746   16.2186 C   0  0  0  0  0  0  0  0  0  0  0  0
    8.0905  -13.2282   17.2678 N   0  0  0  0  0  0  0  0  0  0  0  0
    7.7475  -15.3402   16.2749 N   0  0  0  0  0  0  0  0  0  0  0  0
    8.5970  -16.3704   16.8063 C   0  0  0  0  0  0  0  0  0  0  0  0
    9.8985  -15.7770   17.2656 C   0  0  0  0  0  0  0  0  0  0  0  0
   10.3765  -16.4259   18.5532 C   0  0  0  0  0  0  0  0  0  0  0  0
    9.2471  -16.8776   19.4342 C   0  0  2  0  0  0  0  0  0  0  0  0
    7.9621  -16.7670   18.7650 N   0  0  0  0  0  0  0  0  0  0  0  0
    9.2693  -16.0802   20.6892 C   0  0  0  0  0  0  0  0  0  0  0  0
   10.0697  -15.1166   20.7982 O   0  0  0  0  0  0  0  0  0  0  0  0
    7.8079  -13.6342   18.1668 N   0  0  0  0  0  0  0  0  0  0  0  0
    8.4147  -16.3594   21.7878 C   0  0  1  0  0  0  0  0  0  0  0  0
    8.4868  -15.5431   22.9708 C   0  0  0  0  0  0  0  0  0  0  0  0
    7.1610  -14.9275   23.3265 C   0  0  0  0  0  0  0  0  0  0  0  0
    7.1520  -14.1505   24.5524 C   0  0  0  0  0  0  0  0  0  0  0  0
    7.6790  -12.8888   24.5982 C   0  0  0  0  0  0  0  0  0  0  0  0
    7.6780  -12.1361   25.7807 C   0  0  0  0  0  0  0  0  0  0  0  0
    7.1426  -12.6673   26.9096 C   0  0  0  0  0  0  0  0  0  0  0  0
    6.6074  -13.9269   26.8972 C   0  0  0  0  0  0  0  0  0  0  0  0
    6.6140  -14.6708   25.7081 C   0  0  0  0  0  0  0  0  0  0  0  0
    9.1164  -16.3166   24.0564 O   0  0  0  0  0  0  0  0  0  0  0  0
    8.4517  -17.2351   24.6517 C   0  0  0  0  0  0  0  0  0  0  0  0
    9.7334  -12.9545   28.6393 S   0  0  0  0  0  0  0  0  0  0  0  0
   10.8589  -14.2009   29.3226 C   0  0  0  0  0  0  0  0  0  0  0  0
   10.8585  -15.6539   28.2463 C   0  0  0  0  0  0  0  0  0  0  0  0
   10.5809  -15.3223   26.8159 C   0  0  1  0  0  0  0  0  0  0  0  0
   10.8412  -16.4891   25.8729 N   0  0  0  0  0  0  0  0  0  0  0  0
   10.4419  -16.1355   24.5247 C   0  0  0  0  0  0  0  0  0  0  0  0
   10.2952  -17.7593   26.3532 O   0  0  0  0  0  0  0  0  0  0  0  0
    9.0414  -17.9312   26.1608 O   0  0  0  0  0  0  0  0  0  0  0  0
  1  2  1  0
  2  3  2  0
  4  2  1  0
  4  5  1  0
  6  5  1  0
  7  6  1  0
  8 10  1  0
  8  7  1  0
  8  9  1  6
 10 12  1  0
 11 10  2  0
 12 13  1  0
 14 15  1  0
 13 14  1  1
 15 20  2  0
 16 17  2  0
 16 15  1  0
 17 18  1  0
 18 19  2  0
 20 19  1  0
 21 22  2  0
 21 13  1  0
 24 25  1  0
 24 23  1  0
 25 26  1  0
 27 26  1  6
 27 28  1  0
 27 29  1  0
 28 21  1  0
 29 30  2  0
 29 31  1  0
M  END
$$$$
