RFM.pdb
     RDKit          3D

 31 31  0  0  1  0  0  0  0  0999 V2000
   11.3849  -17.0418   14.9115 N   0  0  0  0  0  0  0  0  0  0  0  0
   10.4664  -18.1352   14.7809 C   0  0  0  0  0  0  0  0  0  0  0  0
    9.8659  -18.3226   13.6566 N   0  0  0  0  0  0  0  0  0  0  0  0
   10.2321  -18.9942   15.8879 N   0  0  0  0  0  0  0  0  0  0  0  0
   10.7154  -18.7102   17.2112 C   0  0  0  0  0  0  0  0  0  0  0  0
   10.0755  -17.4551   17.7334 C   0  0  0  0  0  0  0  0  0  0  0  0
   10.6613  -17.0553   19.0766 C   0  0  0  0  0  0  0  0  0  0  0  0
    9.9409  -17.6794   20.2374 C   0  0  2  0  0  0  0  0  0  0  0  0
    8.6629  -18.2447   19.8396 N   0  0  0  0  0  0  0  0  0  0  0  0
    9.7670  -16.6548   21.3010 C   0  0  0  0  0  0  0  0  0  0  0  0
   10.4896  -15.6257   21.2955 O   0  0  0  0  0  0  0  0  0  0  0  0
    9.2365  -19.1255   13.5460 N   0  0  0  0  0  0  0  0  0  0  0  0
    8.8074  -16.7853   22.3389 C   0  0  1  0  0  0  0  0  0  0  0  0
    8.6820  -15.7464   23.3268 C   0  0  0  0  0  0  0  0  0  0  0  0
    7.3204  -15.1068   23.3193 C   0  0  0  0  0  0  0  0  0  0  0  0
    7.1000  -14.1155   24.3564 C   0  0  0  0  0  0  0  0  0  0  0  0
    7.6205  -12.8542   24.2561 C   0  0  0  0  0  0  0  0  0  0  0  0
    7.4155  -11.8947   25.2571 C   0  0  0  0  0  0  0  0  0  0  0  0
    6.6839  -12.2198   26.3537 C   0  0  0  0  0  0  0  0  0  0  0  0
    6.1495  -13.4729   26.4843 C   0  0  0  0  0  0  0  0  0  0  0  0
    6.3612  -14.4250   25.4762 C   0  0  0  0  0  0  0  0  0  0  0  0
    9.1083  -16.2693   24.6377 O   0  0  0  0  0  0  0  0  0  0  0  0
    8.4646  -17.2360   25.1771 C   0  0  0  0  0  0  0  0  0  0  0  0
    9.9522  -13.6489   30.1625 S   0  0  0  0  0  0  0  0  0  0  0  0
   10.6228  -12.8181   28.6972 C   0  0  0  0  0  0  0  0  0  0  0  0
   10.7045  -13.9997   27.3310 C   0  0  0  0  0  0  0  0  0  0  0  0
   10.5453  -15.4180   27.7738 C   0  0  2  0  0  0  0  0  0  0  0  0
   10.6353  -16.4140   26.6256 N   0  0  0  0  0  0  0  0  0  0  0  0
   10.2080  -15.7865   25.3903 C   0  0  0  0  0  0  0  0  0  0  0  0
    9.9848  -17.6935   26.9119 O   0  0  0  0  0  0  0  0  0  0  0  0
   10.4778  -18.3592   27.8878 O   0  0  0  0  0  0  0  0  0  0  0  0
  1  2  1  0
  2  3  2  0
  4  2  1  0
  4  5  1  0
  6  5  1  0
  7  6  1  0
  8 10  1  0
  8  7  1  0
  8  9  1  6
 10 12  1  0
 11 10  2  0
 12 13  1  0
 14 15  1  0
 13 14  1  6
 15 20  2  0
 16 17  2  0
 16 15  1  0
 17 18  1  0
 18 19  2  0
 20 19  1  0
 21 22  2  0
 21 13  1  0
 24 25  1  0
 24 23  1  0
 25 26  1  0
 27 26  1  6
 27 28  1  0
 27 29  1  0
 28 21  1  0
 29 30  2  0
 29 31  1  0
M  END
$$$$
