RFM.pdb
     RDKit          3D

 31 31  0  0  1  0  0  0  0  0999 V2000
    7.7959  -13.7793   18.9193 N   0  0  0  0  0  0  0  0  0  0  0  0
    8.4843  -13.6620   17.6669 C   0  0  0  0  0  0  0  0  0  0  0  0
    8.7944  -12.4919   17.2258 N   0  0  0  0  0  0  0  0  0  0  0  0
    8.8145  -14.8324   16.9325 N   0  0  0  0  0  0  0  0  0  0  0  0
    8.6755  -16.1569   17.4724 C   0  0  0  0  0  0  0  0  0  0  0  0
   10.0301  -16.7772   17.6668 C   0  0  0  0  0  0  0  0  0  0  0  0
   10.6947  -16.2646   18.9328 C   0  0  0  0  0  0  0  0  0  0  0  0
   10.5676  -17.2176   20.0866 C   0  0  2  0  0  0  0  0  0  0  0  0
    9.5523  -18.2282   19.8434 N   0  0  0  0  0  0  0  0  0  0  0  0
   10.2682  -16.4415   21.3192 C   0  0  0  0  0  0  0  0  0  0  0  0
   11.0687  -15.5501   21.7011 O   0  0  0  0  0  0  0  0  0  0  0  0
    9.2312  -12.3982   16.3020 N   0  0  0  0  0  0  0  0  0  0  0  0
    9.1017  -16.6622   22.0974 C   0  0  1  0  0  0  0  0  0  0  0  0
    8.8418  -15.8295   23.2420 C   0  0  0  0  0  0  0  0  0  0  0  0
    7.3796  -15.7714   23.5910 C   0  0  0  0  0  0  0  0  0  0  0  0
    7.0154  -14.7424   24.5476 C   0  0  0  0  0  0  0  0  0  0  0  0
    6.3645  -15.0515   25.7107 C   0  0  0  0  0  0  0  0  0  0  0  0
    6.0054  -14.0612   26.6355 C   0  0  0  0  0  0  0  0  0  0  0  0
    6.3086  -12.7636   26.3754 C   0  0  0  0  0  0  0  0  0  0  0  0
    6.9591  -12.4212   25.2211 C   0  0  0  0  0  0  0  0  0  0  0  0
    7.3135  -13.4207   24.3030 C   0  0  0  0  0  0  0  0  0  0  0  0
    9.7226  -16.2401   24.3507 O   0  0  0  0  0  0  0  0  0  0  0  0
   10.9542  -16.5046   24.1206 C   0  0  0  0  0  0  0  0  0  0  0  0
   11.2255  -11.8472   27.9011 S   0  0  0  0  0  0  0  0  0  0  0  0
   10.9580  -13.4635   28.6778 C   0  0  0  0  0  0  0  0  0  0  0  0
   11.0267  -14.7498   27.4088 C   0  0  0  0  0  0  0  0  0  0  0  0
   10.4199  -16.0416   27.8516 C   0  0  2  0  0  0  0  0  0  0  0  0
   10.1656  -17.0055   26.7007 N   0  0  0  0  0  0  0  0  0  0  0  0
    9.3222  -16.3756   25.7036 C   0  0  0  0  0  0  0  0  0  0  0  0
    9.7065  -18.3251   27.1366 O   0  0  0  0  0  0  0  0  0  0  0  0
   10.5179  -18.9748   27.8837 O   0  0  0  0  0  0  0  0  0  0  0  0
  1  2  1  0
  2  3  2  0
  4  2  1  0
  4  5  1  0
  6  5  1  0
  7  6  1  0
  8 10  1  0
  8  7  1  0
  8  9  1  6
 10 12  1  0
 11 10  2  0
 12 13  1  0
 14 15  1  0
 13 14  1  1
 15 20  2  0
 16 17  2  0
 16 15  1  0
 17 18  1  0
 18 19  2  0
 20 19  1  0
 21 22  2  0
 21 13  1  0
 24 25  1  0
 24 23  1  0
 25 26  1  0
 27 26  1  6
 27 28  1  0
 27 29  1  0
 28 21  1  0
 29 30  2  0
 29 31  1  0
M  END
$$$$
