WHN.pdb
     RDKit          3D

 33 35  0  0  1  0  0  0  0  0999 V2000
   26.1771  -22.1369  -11.9588 N   0  0  0  0  0  0  0  0  0  0  0  0
   25.8480  -20.8249  -11.4629 C   0  0  1  0  0  0  0  0  0  0  0  0
   27.0471  -19.9281  -11.5122 C   0  0  0  0  0  0  0  0  0  0  0  0
   28.0388  -20.3928  -10.5137 C   0  0  0  0  0  0  0  0  0  0  0  0
   29.2482  -21.0338  -10.7661 C   0  0  0  0  0  0  0  0  0  0  0  0
   29.8994  -21.2688   -9.6173 N   0  0  0  0  0  0  0  0  0  0  0  0
   29.1256  -20.7901   -8.6450 C   0  0  0  0  0  0  0  0  0  0  0  0
   29.3453  -20.7952   -7.2843 C   0  0  0  0  0  0  0  0  0  0  0  0
   28.4246  -20.2615   -6.4204 C   0  0  0  0  0  0  0  0  0  0  0  0
   27.2740  -19.7190   -6.9372 C   0  0  0  0  0  0  0  0  0  0  0  0
   27.0130  -19.6928   -8.3018 C   0  0  0  0  0  0  0  0  0  0  0  0
   27.9498  -20.2330   -9.1607 C   0  0  0  0  0  0  0  0  0  0  0  0
   24.7128  -20.3093  -12.2548 C   0  0  0  0  0  0  0  0  0  0  0  0
   24.2946  -19.1380  -12.0935 O   0  0  0  0  0  0  0  0  0  0  0  0
   24.0871  -21.1235  -13.1981 N   0  0  0  0  0  0  0  0  0  0  0  0
   23.0543  -20.5877  -14.1318 C   0  0  1  0  0  0  0  0  0  0  0  0
   23.6246  -20.8727  -15.4932 C   0  0  0  0  0  0  0  0  0  0  0  0
   24.6933  -19.9806  -15.9399 C   0  0  0  0  0  0  0  0  0  0  0  0
   26.0195  -20.2485  -16.1116 C   0  0  0  0  0  0  0  0  0  0  0  0
   26.5853  -19.1224  -16.6031 N   0  0  0  0  0  0  0  0  0  0  0  0
   25.6711  -18.1586  -16.7484 C   0  0  0  0  0  0  0  0  0  0  0  0
   24.5162  -18.6862  -16.3425 N   0  0  0  0  0  0  0  0  0  0  0  0
   21.8161  -21.4262  -13.8994 C   0  0  0  0  0  0  0  0  0  0  0  0
   21.8501  -22.6430  -13.6117 O   0  0  0  0  0  0  0  0  0  0  0  0
   16.6447  -22.1897  -13.0134 N   0  0  0  0  0  0  0  0  0  0  0  0
   17.0851  -20.8951  -12.6812 C   0  0  0  0  0  0  0  0  0  0  0  0
   16.3024  -20.1220  -12.0921 O   0  0  0  0  0  0  0  0  0  0  0  0
   18.4381  -20.4720  -13.0242 C   0  0  0  0  0  0  0  0  0  0  0  0
   19.2913  -21.5139  -13.7110 C   0  0  2  0  0  0  0  0  0  0  0  0
   20.5513  -20.8021  -14.0134 N   0  0  0  0  0  0  0  0  0  0  0  0
   18.7461  -21.9519  -15.0135 C   0  0  0  0  0  0  0  0  0  0  0  0
   18.4179  -23.1406  -15.1932 O   0  0  0  0  0  0  0  0  0  0  0  0
   18.5875  -21.0605  -16.0570 O   0  0  0  0  0  0  0  0  0  0  0  0
  2 13  1  0
  2  1  1  6
  3  2  1  0
  4  3  1  0
  5  4  2  0
  6  5  1  0
  7 12  2  0
  7  6  1  0
  8  7  1  0
  9  8  2  0
  9 10  1  0
 10 11  2  0
 11 12  1  0
 12  4  1  0
 13 14  2  0
 15 16  1  0
 15 13  1  0
 16 17  1  6
 18 17  1  0
 19 18  2  0
 20 21  1  0
 20 19  1  0
 21 22  2  0
 22 18  1  0
 23 24  2  0
 23 16  1  0
 25 26  1  0
 26 27  2  0
 26 28  1  0
 29 28  1  6
 29 30  1  0
 30 23  1  0
 31 33  1  0
 31 29  1  0
 32 31  2  0
M  END
$$$$
