WHN.pdb
     RDKit          3D

 33 35  0  0  1  0  0  0  0  0999 V2000
   20.1483  -17.0782  -16.9676 N   0  0  0  0  0  0  0  0  0  0  0  0
   20.0037  -17.5711  -15.6217 C   0  0  1  0  0  0  0  0  0  0  0  0
   19.3166  -16.5555  -14.7607 C   0  0  0  0  0  0  0  0  0  0  0  0
   19.9432  -15.2310  -14.9829 C   0  0  0  0  0  0  0  0  0  0  0  0
   21.2978  -14.9604  -15.1535 C   0  0  0  0  0  0  0  0  0  0  0  0
   21.4873  -13.6503  -15.3698 N   0  0  0  0  0  0  0  0  0  0  0  0
   20.2804  -13.0884  -15.3384 C   0  0  0  0  0  0  0  0  0  0  0  0
   19.9405  -11.7623  -15.4981 C   0  0  0  0  0  0  0  0  0  0  0  0
   18.6333  -11.3566  -15.4236 C   0  0  0  0  0  0  0  0  0  0  0  0
   17.6639  -12.2995  -15.1859 C   0  0  0  0  0  0  0  0  0  0  0  0
   17.9628  -13.6463  -15.0194 C   0  0  0  0  0  0  0  0  0  0  0  0
   19.2838  -14.0411  -15.0981 C   0  0  0  0  0  0  0  0  0  0  0  0
   19.2794  -18.8568  -15.6819 C   0  0  0  0  0  0  0  0  0  0  0  0
   18.2086  -18.9630  -16.3260 O   0  0  0  0  0  0  0  0  0  0  0  0
   19.7800  -19.9768  -15.0190 N   0  0  0  0  0  0  0  0  0  0  0  0
   19.0794  -21.2930  -15.0682 C   0  0  1  0  0  0  0  0  0  0  0  0
   20.1791  -22.2689  -15.3817 C   0  0  0  0  0  0  0  0  0  0  0  0
   20.6080  -22.3240  -16.7784 C   0  0  0  0  0  0  0  0  0  0  0  0
   20.1348  -21.6253  -17.8498 C   0  0  0  0  0  0  0  0  0  0  0  0
   20.8970  -21.9742  -18.9115 N   0  0  0  0  0  0  0  0  0  0  0  0
   21.8295  -22.8615  -18.5526 C   0  0  0  0  0  0  0  0  0  0  0  0
   21.6503  -23.0730  -17.2487 N   0  0  0  0  0  0  0  0  0  0  0  0
   18.5545  -21.5312  -13.6689 C   0  0  0  0  0  0  0  0  0  0  0  0
   19.0207  -20.9719  -12.6520 O   0  0  0  0  0  0  0  0  0  0  0  0
   15.3688  -22.6199   -9.8049 N   0  0  0  0  0  0  0  0  0  0  0  0
   15.6284  -21.4004  -10.4576 C   0  0  0  0  0  0  0  0  0  0  0  0
   15.1502  -20.3481   -9.9870 O   0  0  0  0  0  0  0  0  0  0  0  0
   16.4453  -21.3765  -11.6657 C   0  0  0  0  0  0  0  0  0  0  0  0
   16.8962  -22.7272  -12.1731 C   0  0  2  0  0  0  0  0  0  0  0  0
   17.4788  -22.4348  -13.5001 N   0  0  0  0  0  0  0  0  0  0  0  0
   15.7793  -23.6652  -12.4143 C   0  0  0  0  0  0  0  0  0  0  0  0
   14.9952  -23.4823  -13.3654 O   0  0  0  0  0  0  0  0  0  0  0  0
   15.5782  -24.7609  -11.5972 O   0  0  0  0  0  0  0  0  0  0  0  0
  2 13  1  0
  2  1  1  6
  3  2  1  0
  4  3  1  0
  5  4  2  0
  6  5  1  0
  7 12  2  0
  7  6  1  0
  8  7  1  0
  9  8  2  0
  9 10  1  0
 10 11  2  0
 11 12  1  0
 12  4  1  0
 13 14  2  0
 15 16  1  0
 15 13  1  0
 16 17  1  1
 18 17  1  0
 19 18  2  0
 20 21  1  0
 20 19  1  0
 21 22  2  0
 22 18  1  0
 23 24  2  0
 23 16  1  0
 25 26  1  0
 26 27  2  0
 26 28  1  0
 29 28  1  6
 29 30  1  0
 30 23  1  0
 31 33  1  0
 31 29  1  0
 32 31  2  0
M  END
$$$$
