WHN.pdb
     RDKit          3D

 33 35  0  0  1  0  0  0  0  0999 V2000
   25.9087  -22.3268  -12.1730 N   0  0  0  0  0  0  0  0  0  0  0  0
   25.4664  -21.3056  -11.2581 C   0  0  1  0  0  0  0  0  0  0  0  0
   26.4209  -20.1507  -11.2577 C   0  0  0  0  0  0  0  0  0  0  0  0
   27.6573  -20.5466  -10.5431 C   0  0  0  0  0  0  0  0  0  0  0  0
   28.7325  -21.2645  -11.0587 C   0  0  0  0  0  0  0  0  0  0  0  0
   29.6901  -21.4008  -10.1294 N   0  0  0  0  0  0  0  0  0  0  0  0
   29.2411  -20.7844   -9.0377 C   0  0  0  0  0  0  0  0  0  0  0  0
   29.8510  -20.6500   -7.8090 C   0  0  0  0  0  0  0  0  0  0  0  0
   29.2304  -19.9843   -6.7840 C   0  0  0  0  0  0  0  0  0  0  0  0
   27.9844  -19.4512   -7.0042 C   0  0  0  0  0  0  0  0  0  0  0  0
   27.3342  -19.5633   -8.2272 C   0  0  0  0  0  0  0  0  0  0  0  0
   27.9715  -20.2356   -9.2514 C   0  0  0  0  0  0  0  0  0  0  0  0
   24.0936  -20.9155  -11.6386 C   0  0  0  0  0  0  0  0  0  0  0  0
   23.5246  -19.9429  -11.0880 O   0  0  0  0  0  0  0  0  0  0  0  0
   23.4078  -21.6282  -12.6216 N   0  0  0  0  0  0  0  0  0  0  0  0
   22.0036  -21.2911  -12.9959 C   0  0  1  0  0  0  0  0  0  0  0  0
   22.0556  -21.1673  -14.4932 C   0  0  0  0  0  0  0  0  0  0  0  0
   22.4659  -19.8644  -15.0146 C   0  0  0  0  0  0  0  0  0  0  0  0
   22.8008  -18.7329  -14.3307 C   0  0  0  0  0  0  0  0  0  0  0  0
   23.1728  -17.8150  -15.2521 N   0  0  0  0  0  0  0  0  0  0  0  0
   23.0867  -18.3216  -16.4856 C   0  0  0  0  0  0  0  0  0  0  0  0
   22.6547  -19.5740  -16.3370 N   0  0  0  0  0  0  0  0  0  0  0  0
   21.1736  -22.4932  -12.6010 C   0  0  0  0  0  0  0  0  0  0  0  0
   21.4975  -23.6724  -12.8635 O   0  0  0  0  0  0  0  0  0  0  0  0
   17.0035  -24.7281  -10.0693 N   0  0  0  0  0  0  0  0  0  0  0  0
   18.0569  -24.1566   -9.3315 C   0  0  0  0  0  0  0  0  0  0  0  0
   18.1560  -24.4188   -8.1154 O   0  0  0  0  0  0  0  0  0  0  0  0
   19.0137  -23.2722   -9.9868 C   0  0  0  0  0  0  0  0  0  0  0  0
   19.0761  -23.3828  -11.4932 C   0  0  2  0  0  0  0  0  0  0  0  0
   19.9660  -22.2733  -11.8970 N   0  0  0  0  0  0  0  0  0  0  0  0
   17.7784  -23.1275  -12.1537 C   0  0  0  0  0  0  0  0  0  0  0  0
   17.3744  -21.9608  -12.3227 O   0  0  0  0  0  0  0  0  0  0  0  0
   16.9863  -24.1688  -12.5975 O   0  0  0  0  0  0  0  0  0  0  0  0
  2 13  1  0
  2  1  1  6
  3  2  1  0
  4  3  1  0
  5  4  2  0
  6  5  1  0
  7 12  2  0
  7  6  1  0
  8  7  1  0
  9  8  2  0
  9 10  1  0
 10 11  2  0
 11 12  1  0
 12  4  1  0
 13 14  2  0
 15 16  1  0
 15 13  1  0
 16 17  1  6
 18 17  1  0
 19 18  2  0
 20 21  1  0
 20 19  1  0
 21 22  2  0
 22 18  1  0
 23 24  2  0
 23 16  1  0
 25 26  1  0
 26 27  2  0
 26 28  1  0
 29 28  1  1
 29 30  1  0
 30 23  1  0
 31 33  1  0
 31 29  1  0
 32 31  2  0
M  END
$$$$
