WHN.pdb
     RDKit          3D

 33 35  0  0  1  0  0  0  0  0999 V2000
   15.1562  -13.8171    5.0442 N   0  0  0  0  0  0  0  0  0  0  0  0
   16.3560  -14.5897    5.2421 C   0  0  1  0  0  0  0  0  0  0  0  0
   17.0601  -14.1568    6.4918 C   0  0  0  0  0  0  0  0  0  0  0  0
   18.1298  -13.1953    6.1349 C   0  0  0  0  0  0  0  0  0  0  0  0
   18.0195  -12.0879    5.2989 C   0  0  0  0  0  0  0  0  0  0  0  0
   19.1864  -11.4289    5.2426 N   0  0  0  0  0  0  0  0  0  0  0  0
   20.0310  -12.0979    6.0250 C   0  0  0  0  0  0  0  0  0  0  0  0
   21.3556  -11.8292    6.2953 C   0  0  0  0  0  0  0  0  0  0  0  0
   22.0835  -12.6408    7.1261 C   0  0  0  0  0  0  0  0  0  0  0  0
   21.4665  -13.7317    7.6870 C   0  0  0  0  0  0  0  0  0  0  0  0
   20.1336  -14.0388    7.4417 C   0  0  0  0  0  0  0  0  0  0  0  0
   19.4120  -13.2118    6.6036 C   0  0  0  0  0  0  0  0  0  0  0  0
   15.9811  -16.0182    5.2599 C   0  0  0  0  0  0  0  0  0  0  0  0
   15.0772  -16.4371    6.0216 O   0  0  0  0  0  0  0  0  0  0  0  0
   16.6317  -16.9256    4.4246 N   0  0  0  0  0  0  0  0  0  0  0  0
   16.4449  -18.3982    4.5732 C   0  0  1  0  0  0  0  0  0  0  0  0
   16.6019  -18.9189    3.1717 C   0  0  0  0  0  0  0  0  0  0  0  0
   16.3224  -20.3414    2.9816 C   0  0  0  0  0  0  0  0  0  0  0  0
   15.9222  -21.2677    3.8992 C   0  0  0  0  0  0  0  0  0  0  0  0
   15.7306  -22.4260    3.2273 N   0  0  0  0  0  0  0  0  0  0  0  0
   15.9923  -22.2668    1.9266 C   0  0  0  0  0  0  0  0  0  0  0  0
   16.3535  -20.9921    1.7798 N   0  0  0  0  0  0  0  0  0  0  0  0
   17.5933  -18.8727    5.4371 C   0  0  0  0  0  0  0  0  0  0  0  0
   18.7616  -18.4388    5.3320 O   0  0  0  0  0  0  0  0  0  0  0  0
   19.8817  -21.4567    9.4357 N   0  0  0  0  0  0  0  0  0  0  0  0
   18.7901  -20.6241    9.7450 C   0  0  0  0  0  0  0  0  0  0  0  0
   18.5372  -20.3771   10.9419 O   0  0  0  0  0  0  0  0  0  0  0  0
   17.9720  -20.0627    8.6759 C   0  0  0  0  0  0  0  0  0  0  0  0
   18.4005  -20.4222    7.2715 C   0  0  2  0  0  0  0  0  0  0  0  0
   17.3332  -19.8600    6.4167 N   0  0  0  0  0  0  0  0  0  0  0  0
   18.4057  -21.8781    7.0151 C   0  0  0  0  0  0  0  0  0  0  0  0
   19.3184  -22.5958    7.4676 O   0  0  0  0  0  0  0  0  0  0  0  0
   17.4056  -22.4758    6.2727 O   0  0  0  0  0  0  0  0  0  0  0  0
  2 13  1  0
  2  1  1  1
  3  2  1  0
  4  3  1  0
  5  4  2  0
  6  5  1  0
  7 12  2  0
  7  6  1  0
  8  7  1  0
  9  8  2  0
  9 10  1  0
 10 11  2  0
 11 12  1  0
 12  4  1  0
 13 14  2  0
 15 16  1  0
 15 13  1  0
 16 17  1  6
 18 17  1  0
 19 18  2  0
 20 21  1  0
 20 19  1  0
 21 22  2  0
 22 18  1  0
 23 24  2  0
 23 16  1  0
 25 26  1  0
 26 27  2  0
 26 28  1  0
 29 28  1  1
 29 30  1  0
 30 23  1  0
 31 33  1  0
 31 29  1  0
 32 31  2  0
M  END
$$$$
