WHN.pdb
     RDKit          3D

 33 35  0  0  1  0  0  0  0  0999 V2000
   27.7806  -20.0964  -13.8787 N   0  0  0  0  0  0  0  0  0  0  0  0
   26.6512  -20.9376  -13.5748 C   0  0  1  0  0  0  0  0  0  0  0  0
   25.5171  -20.1207  -13.0352 C   0  0  0  0  0  0  0  0  0  0  0  0
   25.9402  -19.4879  -11.7636 C   0  0  0  0  0  0  0  0  0  0  0  0
   26.4944  -18.2219  -11.5988 C   0  0  0  0  0  0  0  0  0  0  0  0
   26.7143  -17.9754  -10.2988 N   0  0  0  0  0  0  0  0  0  0  0  0
   26.3112  -19.0600   -9.6399 C   0  0  0  0  0  0  0  0  0  0  0  0
   26.3352  -19.3058   -8.2839 C   0  0  0  0  0  0  0  0  0  0  0  0
   25.8842  -20.4964   -7.7760 C   0  0  0  0  0  0  0  0  0  0  0  0
   25.4056  -21.4443   -8.6464 C   0  0  0  0  0  0  0  0  0  0  0  0
   25.3632  -21.2375  -10.0199 C   0  0  0  0  0  0  0  0  0  0  0  0
   25.8197  -20.0330  -10.5177 C   0  0  0  0  0  0  0  0  0  0  0  0
   26.2919  -21.6794  -14.8004 C   0  0  0  0  0  0  0  0  0  0  0  0
   26.4338  -21.1593  -15.9328 O   0  0  0  0  0  0  0  0  0  0  0  0
   25.7869  -22.9763  -14.7139 N   0  0  0  0  0  0  0  0  0  0  0  0
   25.4116  -23.7524  -15.9314 C   0  0  1  0  0  0  0  0  0  0  0  0
   25.7351  -25.1728  -15.5604 C   0  0  0  0  0  0  0  0  0  0  0  0
   25.4983  -26.1758  -16.5976 C   0  0  0  0  0  0  0  0  0  0  0  0
   25.8338  -26.1397  -17.9191 C   0  0  0  0  0  0  0  0  0  0  0  0
   25.4638  -27.3282  -18.4488 N   0  0  0  0  0  0  0  0  0  0  0  0
   24.9111  -28.1098  -17.5164 C   0  0  0  0  0  0  0  0  0  0  0  0
   24.9338  -27.4028  -16.3865 N   0  0  0  0  0  0  0  0  0  0  0  0
   23.9156  -23.5811  -16.0826 C   0  0  0  0  0  0  0  0  0  0  0  0
   23.2424  -24.1452  -16.9731 O   0  0  0  0  0  0  0  0  0  0  0  0
   21.6568  -23.2168  -12.4997 N   0  0  0  0  0  0  0  0  0  0  0  0
   21.4258  -21.8683  -12.8297 C   0  0  0  0  0  0  0  0  0  0  0  0
   21.1317  -21.0647  -11.9213 O   0  0  0  0  0  0  0  0  0  0  0  0
   21.5309  -21.4257  -14.2154 C   0  0  0  0  0  0  0  0  0  0  0  0
   21.7799  -22.5180  -15.2303 C   0  0  2  0  0  0  0  0  0  0  0  0
   23.2406  -22.7378  -15.1686 N   0  0  0  0  0  0  0  0  0  0  0  0
   21.4866  -22.1052  -16.6193 C   0  0  0  0  0  0  0  0  0  0  0  0
   20.7879  -22.8256  -17.3581 O   0  0  0  0  0  0  0  0  0  0  0  0
   21.9761  -20.9184  -17.1296 O   0  0  0  0  0  0  0  0  0  0  0  0
  2 13  1  0
  2  1  1  6
  3  2  1  0
  4  3  1  0
  5  4  2  0
  6  5  1  0
  7 12  2  0
  7  6  1  0
  8  7  1  0
  9  8  2  0
  9 10  1  0
 10 11  2  0
 11 12  1  0
 12  4  1  0
 13 14  2  0
 15 16  1  0
 15 13  1  0
 16 17  1  1
 18 17  1  0
 19 18  2  0
 20 21  1  0
 20 19  1  0
 21 22  2  0
 22 18  1  0
 23 24  2  0
 23 16  1  0
 25 26  1  0
 26 27  2  0
 26 28  1  0
 29 28  1  1
 29 30  1  0
 30 23  1  0
 31 33  1  0
 31 29  1  0
 32 31  2  0
M  END
$$$$
