WHN.pdb
     RDKit          3D

 33 35  0  0  1  0  0  0  0  0999 V2000
   28.1507  -21.7830  -11.3697 N   0  0  0  0  0  0  0  0  0  0  0  0
   26.9305  -21.3112  -10.7666 C   0  0  1  0  0  0  0  0  0  0  0  0
   27.1997  -20.1217   -9.8964 C   0  0  0  0  0  0  0  0  0  0  0  0
   28.2650  -20.4652   -8.9252 C   0  0  0  0  0  0  0  0  0  0  0  0
   29.5203  -20.9959   -9.2078 C   0  0  0  0  0  0  0  0  0  0  0  0
   30.2304  -21.1390   -8.0789 N   0  0  0  0  0  0  0  0  0  0  0  0
   29.4488  -20.7105   -7.0895 C   0  0  0  0  0  0  0  0  0  0  0  0
   29.7151  -20.6601   -5.7382 C   0  0  0  0  0  0  0  0  0  0  0  0
   28.7785  -20.1934   -4.8528 C   0  0  0  0  0  0  0  0  0  0  0  0
   27.5644  -19.7749   -5.3387 C   0  0  0  0  0  0  0  0  0  0  0  0
   27.2549  -19.8084   -6.6930 C   0  0  0  0  0  0  0  0  0  0  0  0
   28.2083  -20.2799   -7.5737 C   0  0  0  0  0  0  0  0  0  0  0  0
   25.9676  -21.0242  -11.8492 C   0  0  0  0  0  0  0  0  0  0  0  0
   26.3224  -20.4005  -12.8777 O   0  0  0  0  0  0  0  0  0  0  0  0
   24.6429  -21.4457  -11.7411 N   0  0  0  0  0  0  0  0  0  0  0  0
   23.6732  -21.2732  -12.8616 C   0  0  1  0  0  0  0  0  0  0  0  0
   23.2809  -22.6817  -13.2113 C   0  0  0  0  0  0  0  0  0  0  0  0
   24.1780  -23.3888  -14.1240 C   0  0  0  0  0  0  0  0  0  0  0  0
   24.3878  -23.1793  -15.4552 C   0  0  0  0  0  0  0  0  0  0  0  0
   25.3585  -24.0402  -15.8381 N   0  0  0  0  0  0  0  0  0  0  0  0
   25.7681  -24.7810  -14.8042 C   0  0  0  0  0  0  0  0  0  0  0  0
   25.0450  -24.3805  -13.7583 N   0  0  0  0  0  0  0  0  0  0  0  0
   22.4915  -20.5343  -12.2718 C   0  0  0  0  0  0  0  0  0  0  0  0
   22.1307  -20.6486  -11.0797 O   0  0  0  0  0  0  0  0  0  0  0  0
   18.4083  -17.1293  -12.3748 N   0  0  0  0  0  0  0  0  0  0  0  0
   19.2845  -16.9158  -13.4551 C   0  0  0  0  0  0  0  0  0  0  0  0
   19.0493  -15.9829  -14.2500 O   0  0  0  0  0  0  0  0  0  0  0  0
   20.4478  -17.7770  -13.6350 C   0  0  0  0  0  0  0  0  0  0  0  0
   20.5981  -18.8879  -12.6209 C   0  0  2  0  0  0  0  0  0  0  0  0
   21.7540  -19.6675  -13.1126 N   0  0  0  0  0  0  0  0  0  0  0  0
   19.4527  -19.8224  -12.6015 C   0  0  0  0  0  0  0  0  0  0  0  0
   18.5718  -19.7238  -11.7256 O   0  0  0  0  0  0  0  0  0  0  0  0
   19.3307  -20.8216  -13.5478 O   0  0  0  0  0  0  0  0  0  0  0  0
  2 13  1  0
  2  1  1  6
  3  2  1  0
  4  3  1  0
  5  4  2  0
  6  5  1  0
  7 12  2  0
  7  6  1  0
  8  7  1  0
  9  8  2  0
  9 10  1  0
 10 11  2  0
 11 12  1  0
 12  4  1  0
 13 14  2  0
 15 16  1  0
 15 13  1  0
 16 17  1  1
 18 17  1  0
 19 18  2  0
 20 21  1  0
 20 19  1  0
 21 22  2  0
 22 18  1  0
 23 24  2  0
 23 16  1  0
 25 26  1  0
 26 27  2  0
 26 28  1  0
 29 28  1  6
 29 30  1  0
 30 23  1  0
 31 33  1  0
 31 29  1  0
 32 31  2  0
M  END
$$$$
