WHN.pdb
     RDKit          3D

 33 35  0  0  1  0  0  0  0  0999 V2000
   26.6589  -22.4494  -11.7787 N   0  0  0  0  0  0  0  0  0  0  0  0
   26.1797  -21.1060  -11.5760 C   0  0  1  0  0  0  0  0  0  0  0  0
   27.3245  -20.1403  -11.5335 C   0  0  0  0  0  0  0  0  0  0  0  0
   28.2107  -20.4916  -10.3989 C   0  0  0  0  0  0  0  0  0  0  0  0
   29.4436  -21.1341  -10.4635 C   0  0  0  0  0  0  0  0  0  0  0  0
   29.9743  -21.2481   -9.2369 N   0  0  0  0  0  0  0  0  0  0  0  0
   29.1012  -20.6916   -8.3994 C   0  0  0  0  0  0  0  0  0  0  0  0
   29.1794  -20.5636   -7.0293 C   0  0  0  0  0  0  0  0  0  0  0  0
   28.1712  -19.9650   -6.3193 C   0  0  0  0  0  0  0  0  0  0  0  0
   27.0767  -19.4928   -7.0008 C   0  0  0  0  0  0  0  0  0  0  0  0
   26.9578  -19.6009   -8.3811 C   0  0  0  0  0  0  0  0  0  0  0  0
   27.9815  -20.2052   -9.0838 C   0  0  0  0  0  0  0  0  0  0  0  0
   25.2106  -20.8005  -12.6478 C   0  0  0  0  0  0  0  0  0  0  0  0
   25.5780  -20.2383  -13.7069 O   0  0  0  0  0  0  0  0  0  0  0  0
   23.8656  -21.1354  -12.4951 N   0  0  0  0  0  0  0  0  0  0  0  0
   22.8696  -20.8857  -13.5773 C   0  0  1  0  0  0  0  0  0  0  0  0
   23.1437  -21.9798  -14.5711 C   0  0  0  0  0  0  0  0  0  0  0  0
   24.1937  -21.7068  -15.5513 C   0  0  0  0  0  0  0  0  0  0  0  0
   24.9469  -20.5811  -15.7113 C   0  0  0  0  0  0  0  0  0  0  0  0
   25.8267  -20.8377  -16.7063 N   0  0  0  0  0  0  0  0  0  0  0  0
   25.6591  -22.0768  -17.1776 C   0  0  0  0  0  0  0  0  0  0  0  0
   24.6607  -22.6052  -16.4698 N   0  0  0  0  0  0  0  0  0  0  0  0
   21.5119  -21.0885  -12.9403 C   0  0  0  0  0  0  0  0  0  0  0  0
   21.3161  -21.8315  -11.9534 O   0  0  0  0  0  0  0  0  0  0  0  0
   17.6832  -17.3691  -11.9661 N   0  0  0  0  0  0  0  0  0  0  0  0
   18.6522  -17.9998  -12.7684 C   0  0  0  0  0  0  0  0  0  0  0  0
   19.7725  -17.4652  -12.8973 O   0  0  0  0  0  0  0  0  0  0  0  0
   18.3428  -19.2594  -13.4354 C   0  0  0  0  0  0  0  0  0  0  0  0
   19.0541  -20.4765  -12.8897 C   0  0  2  0  0  0  0  0  0  0  0  0
   20.4033  -20.4016  -13.4895 N   0  0  0  0  0  0  0  0  0  0  0  0
   18.4705  -21.7532  -13.3536 C   0  0  0  0  0  0  0  0  0  0  0  0
   17.6951  -22.3966  -12.6204 O   0  0  0  0  0  0  0  0  0  0  0  0
   18.7678  -22.2615  -14.6034 O   0  0  0  0  0  0  0  0  0  0  0  0
  2 13  1  0
  2  1  1  6
  3  2  1  0
  4  3  1  0
  5  4  2  0
  6  5  1  0
  7 12  2  0
  7  6  1  0
  8  7  1  0
  9  8  2  0
  9 10  1  0
 10 11  2  0
 11 12  1  0
 12  4  1  0
 13 14  2  0
 15 16  1  0
 15 13  1  0
 16 17  1  6
 18 17  1  0
 19 18  2  0
 20 21  1  0
 20 19  1  0
 21 22  2  0
 22 18  1  0
 23 24  2  0
 23 16  1  0
 25 26  1  0
 26 27  2  0
 26 28  1  0
 29 28  1  6
 29 30  1  0
 30 23  1  0
 31 33  1  0
 31 29  1  0
 32 31  2  0
M  END
$$$$
