WHN.pdb
     RDKit          3D

 33 35  0  0  1  0  0  0  0  0999 V2000
   26.5174  -20.2355  -11.7122 N   0  0  0  0  0  0  0  0  0  0  0  0
   25.7284  -21.4403  -11.7488 C   0  0  1  0  0  0  0  0  0  0  0  0
   25.7318  -22.1120  -10.4095 C   0  0  0  0  0  0  0  0  0  0  0  0
   26.3354  -21.1970   -9.4121 C   0  0  0  0  0  0  0  0  0  0  0  0
   25.6671  -20.3113   -8.5719 C   0  0  0  0  0  0  0  0  0  0  0  0
   26.5400  -19.6757   -7.7762 N   0  0  0  0  0  0  0  0  0  0  0  0
   27.7455  -20.1414   -8.0975 C   0  0  0  0  0  0  0  0  0  0  0  0
   28.9725  -19.7980   -7.5721 C   0  0  0  0  0  0  0  0  0  0  0  0
   30.1245  -20.3781   -8.0360 C   0  0  0  0  0  0  0  0  0  0  0  0
   30.0337  -21.3120   -9.0385 C   0  0  0  0  0  0  0  0  0  0  0  0
   28.8174  -21.6874   -9.5959 C   0  0  0  0  0  0  0  0  0  0  0  0
   27.6648  -21.0957   -9.1181 C   0  0  0  0  0  0  0  0  0  0  0  0
   24.3709  -21.0830  -12.2081 C   0  0  0  0  0  0  0  0  0  0  0  0
   23.5410  -20.5654  -11.4230 O   0  0  0  0  0  0  0  0  0  0  0  0
   23.9918  -21.3179  -13.5292 N   0  0  0  0  0  0  0  0  0  0  0  0
   22.5820  -21.1369  -13.9825 C   0  0  1  0  0  0  0  0  0  0  0  0
   22.6839  -20.0773  -15.0440 C   0  0  0  0  0  0  0  0  0  0  0  0
   22.2861  -18.7286  -14.6434 C   0  0  0  0  0  0  0  0  0  0  0  0
   21.8576  -18.2859  -13.4266 C   0  0  0  0  0  0  0  0  0  0  0  0
   21.6765  -16.9500  -13.5383 N   0  0  0  0  0  0  0  0  0  0  0  0
   21.9740  -16.5343  -14.7730 C   0  0  0  0  0  0  0  0  0  0  0  0
   22.3462  -17.6234  -15.4456 N   0  0  0  0  0  0  0  0  0  0  0  0
   22.1770  -22.4572  -14.6013 C   0  0  0  0  0  0  0  0  0  0  0  0
   22.9479  -23.1635  -15.2877 O   0  0  0  0  0  0  0  0  0  0  0  0
   22.0792  -27.0139  -12.8951 N   0  0  0  0  0  0  0  0  0  0  0  0
   21.7351  -26.1196  -13.9258 C   0  0  0  0  0  0  0  0  0  0  0  0
   22.3779  -26.1520  -14.9950 O   0  0  0  0  0  0  0  0  0  0  0  0
   20.6420  -25.1724  -13.7380 C   0  0  0  0  0  0  0  0  0  0  0  0
   20.3915  -24.2305  -14.8935 C   0  0  2  0  0  0  0  0  0  0  0  0
   20.8557  -22.9189  -14.3933 N   0  0  0  0  0  0  0  0  0  0  0  0
   18.9577  -24.0626  -15.2123 C   0  0  0  0  0  0  0  0  0  0  0  0
   18.3909  -24.8419  -16.0024 O   0  0  0  0  0  0  0  0  0  0  0  0
   18.2150  -23.0445  -14.6460 O   0  0  0  0  0  0  0  0  0  0  0  0
  2 13  1  0
  2  1  1  1
  3  2  1  0
  4  3  1  0
  5  4  2  0
  6  5  1  0
  7 12  2  0
  7  6  1  0
  8  7  1  0
  9  8  2  0
  9 10  1  0
 10 11  2  0
 11 12  1  0
 12  4  1  0
 13 14  2  0
 15 16  1  0
 15 13  1  0
 16 17  1  6
 18 17  1  0
 19 18  2  0
 20 21  1  0
 20 19  1  0
 21 22  2  0
 22 18  1  0
 23 24  2  0
 23 16  1  0
 25 26  1  0
 26 27  2  0
 26 28  1  0
 29 28  1  1
 29 30  1  0
 30 23  1  0
 31 33  1  0
 31 29  1  0
 32 31  2  0
M  END
$$$$
