WHN.pdb
     RDKit          3D

 33 35  0  0  1  0  0  0  0  0999 V2000
   25.9476  -16.7201  -18.7331 N   0  0  0  0  0  0  0  0  0  0  0  0
   25.2892  -16.5970  -17.4576 C   0  0  1  0  0  0  0  0  0  0  0  0
   24.3588  -15.4227  -17.4571 C   0  0  0  0  0  0  0  0  0  0  0  0
   25.1557  -14.1755  -17.5330 C   0  0  0  0  0  0  0  0  0  0  0  0
   25.0373  -13.1588  -18.4761 C   0  0  0  0  0  0  0  0  0  0  0  0
   25.8998  -12.1683  -18.2041 N   0  0  0  0  0  0  0  0  0  0  0  0
   26.5608  -12.5392  -17.1092 C   0  0  0  0  0  0  0  0  0  0  0  0
   27.5588  -11.8699  -16.4342 C   0  0  0  0  0  0  0  0  0  0  0  0
   28.1404  -12.4128  -15.3180 C   0  0  0  0  0  0  0  0  0  0  0  0
   27.7088  -13.6412  -14.8822 C   0  0  0  0  0  0  0  0  0  0  0  0
   26.7055  -14.3495  -15.5324 C   0  0  0  0  0  0  0  0  0  0  0  0
   26.1276  -13.7902  -16.6550 C   0  0  0  0  0  0  0  0  0  0  0  0
   24.6025  -17.8734  -17.1735 C   0  0  0  0  0  0  0  0  0  0  0  0
   24.0915  -18.5493  -18.0981 O   0  0  0  0  0  0  0  0  0  0  0  0
   24.5127  -18.3467  -15.8649 N   0  0  0  0  0  0  0  0  0  0  0  0
   23.8219  -19.6290  -15.5426 C   0  0  1  0  0  0  0  0  0  0  0  0
   24.8910  -20.4506  -14.8778 C   0  0  0  0  0  0  0  0  0  0  0  0
   25.7626  -21.2120  -15.7713 C   0  0  0  0  0  0  0  0  0  0  0  0
   25.7003  -21.3397  -17.1277 C   0  0  0  0  0  0  0  0  0  0  0  0
   26.7634  -22.0894  -17.4989 N   0  0  0  0  0  0  0  0  0  0  0  0
   27.4915  -22.4374  -16.4337 C   0  0  0  0  0  0  0  0  0  0  0  0
   26.8774  -21.8995  -15.3798 N   0  0  0  0  0  0  0  0  0  0  0  0
   22.7414  -19.2737  -14.5443 C   0  0  0  0  0  0  0  0  0  0  0  0
   22.9582  -18.6384  -13.4889 O   0  0  0  0  0  0  0  0  0  0  0  0
   17.8991  -18.4402  -12.7455 N   0  0  0  0  0  0  0  0  0  0  0  0
   18.2859  -17.8676  -13.9714 C   0  0  0  0  0  0  0  0  0  0  0  0
   17.5551  -17.0000  -14.4917 O   0  0  0  0  0  0  0  0  0  0  0  0
   19.5245  -18.2879  -14.6169 C   0  0  0  0  0  0  0  0  0  0  0  0
   20.2926  -19.3773  -13.9039 C   0  0  2  0  0  0  0  0  0  0  0  0
   21.4143  -19.6812  -14.8178 N   0  0  0  0  0  0  0  0  0  0  0  0
   19.5290  -20.6352  -13.7610 C   0  0  0  0  0  0  0  0  0  0  0  0
   19.4429  -21.4334  -14.7140 O   0  0  0  0  0  0  0  0  0  0  0  0
   18.8964  -20.9554  -12.5753 O   0  0  0  0  0  0  0  0  0  0  0  0
  2 13  1  0
  2  1  1  6
  3  2  1  0
  4  3  1  0
  5  4  2  0
  6  5  1  0
  7 12  2  0
  7  6  1  0
  8  7  1  0
  9  8  2  0
  9 10  1  0
 10 11  2  0
 11 12  1  0
 12  4  1  0
 13 14  2  0
 15 16  1  0
 15 13  1  0
 16 17  1  1
 18 17  1  0
 19 18  2  0
 20 21  1  0
 20 19  1  0
 21 22  2  0
 22 18  1  0
 23 24  2  0
 23 16  1  0
 25 26  1  0
 26 27  2  0
 26 28  1  0
 29 28  1  6
 29 30  1  0
 30 23  1  0
 31 33  1  0
 31 29  1  0
 32 31  2  0
M  END
$$$$
