WHN.pdb
     RDKit          3D

 33 35  0  0  1  0  0  0  0  0999 V2000
   28.2290  -20.8584   -9.1793 N   0  0  0  0  0  0  0  0  0  0  0  0
   26.8241  -21.1770   -9.1971 C   0  0  1  0  0  0  0  0  0  0  0  0
   26.1521  -20.6601   -7.9618 C   0  0  0  0  0  0  0  0  0  0  0  0
   27.1230  -19.8531   -7.1857 C   0  0  0  0  0  0  0  0  0  0  0  0
   27.4812  -18.5268   -7.4088 C   0  0  0  0  0  0  0  0  0  0  0  0
   28.3598  -18.1193   -6.4807 N   0  0  0  0  0  0  0  0  0  0  0  0
   28.5641  -19.1613   -5.6771 C   0  0  0  0  0  0  0  0  0  0  0  0
   29.3872  -19.2544   -4.5756 C   0  0  0  0  0  0  0  0  0  0  0  0
   29.4825  -20.4225   -3.8646 C   0  0  0  0  0  0  0  0  0  0  0  0
   28.7397  -21.5032   -4.2713 C   0  0  0  0  0  0  0  0  0  0  0  0
   27.8974  -21.4523   -5.3754 C   0  0  0  0  0  0  0  0  0  0  0  0
   27.8102  -20.2689   -6.0817 C   0  0  0  0  0  0  0  0  0  0  0  0
   26.2465  -20.6240  -10.4388 C   0  0  0  0  0  0  0  0  0  0  0  0
   26.4852  -19.4440  -10.7902 O   0  0  0  0  0  0  0  0  0  0  0  0
   25.4226  -21.4119  -11.2419 N   0  0  0  0  0  0  0  0  0  0  0  0
   24.8488  -20.8952  -12.5183 C   0  0  1  0  0  0  0  0  0  0  0  0
   25.2903  -21.9053  -13.5404 C   0  0  0  0  0  0  0  0  0  0  0  0
   26.4994  -21.5706  -14.2914 C   0  0  0  0  0  0  0  0  0  0  0  0
   27.3173  -20.4869  -14.1627 C   0  0  0  0  0  0  0  0  0  0  0  0
   28.3380  -20.6620  -15.0330 N   0  0  0  0  0  0  0  0  0  0  0  0
   28.1968  -21.8100  -15.7023 C   0  0  0  0  0  0  0  0  0  0  0  0
   27.0725  -22.3628  -15.2467 N   0  0  0  0  0  0  0  0  0  0  0  0
   23.3464  -20.9512  -12.3454 C   0  0  0  0  0  0  0  0  0  0  0  0
   22.7539  -21.8784  -11.7508 O   0  0  0  0  0  0  0  0  0  0  0  0
   18.6211  -17.8050  -12.0366 N   0  0  0  0  0  0  0  0  0  0  0  0
   19.3187  -18.1355  -13.2133 C   0  0  0  0  0  0  0  0  0  0  0  0
   18.6980  -18.1703  -14.2954 O   0  0  0  0  0  0  0  0  0  0  0  0
   20.7459  -18.4313  -13.1592 C   0  0  0  0  0  0  0  0  0  0  0  0
   21.1045  -19.8243  -12.6945 C   0  0  2  0  0  0  0  0  0  0  0  0
   22.5688  -19.8993  -12.8848 N   0  0  0  0  0  0  0  0  0  0  0  0
   20.5270  -20.8909  -13.5399 C   0  0  0  0  0  0  0  0  0  0  0  0
   19.4702  -21.4598  -13.2046 O   0  0  0  0  0  0  0  0  0  0  0  0
   21.1400  -21.2808  -14.7150 O   0  0  0  0  0  0  0  0  0  0  0  0
  2 13  1  0
  2  1  1  1
  3  2  1  0
  4  3  1  0
  5  4  2  0
  6  5  1  0
  7 12  2  0
  7  6  1  0
  8  7  1  0
  9  8  2  0
  9 10  1  0
 10 11  2  0
 11 12  1  0
 12  4  1  0
 13 14  2  0
 15 16  1  0
 15 13  1  0
 16 17  1  6
 18 17  1  0
 19 18  2  0
 20 21  1  0
 20 19  1  0
 21 22  2  0
 22 18  1  0
 23 24  2  0
 23 16  1  0
 25 26  1  0
 26 27  2  0
 26 28  1  0
 29 28  1  6
 29 30  1  0
 30 23  1  0
 31 33  1  0
 31 29  1  0
 32 31  2  0
M  END
$$$$
