TSN.pdb
     RDKit          3D

 22 21  0  0  1  0  0  0  0  0999 V2000
   21.0725  -11.5777  -20.7289 C   0  0  0  0  0  0  0  0  0  0  0  0
   20.9212  -10.7252  -19.5085 C   0  0  1  0  0  0  0  0  0  0  0  0
   20.2167   -9.5749  -19.8555 O   0  0  0  0  0  0  0  0  0  0  0  0
   20.2668  -11.4429  -18.3482 C   0  0  2  0  0  0  0  0  0  0  0  0
   18.9439  -11.8553  -18.6835 N   0  0  0  0  0  0  0  0  0  0  0  0
   20.3309  -10.5520  -17.1621 C   0  0  0  0  0  0  0  0  0  0  0  0
   19.3020   -9.9347  -16.7730 O   0  0  0  0  0  0  0  0  0  0  0  0
   22.3416   -9.2138  -12.9697 O   0  0  0  0  0  0  0  0  0  0  0  0
   22.3887  -10.0361  -14.1176 C   0  0  0  0  0  0  0  0  0  0  0  0
   21.5308   -9.5054  -15.2124 C   0  0  2  0  0  0  0  0  0  0  0  0
   21.5038  -10.3252  -16.3943 N   0  0  0  0  0  0  0  0  0  0  0  0
   21.9353   -8.1076  -15.5133 C   0  0  0  0  0  0  0  0  0  0  0  0
   22.9182   -7.8319  -16.2618 O   0  0  0  0  0  0  0  0  0  0  0  0
   21.8369   -2.7578  -15.6774 N   0  0  0  0  0  0  0  0  0  0  0  0
   20.5677   -3.3711  -15.6343 C   0  0  0  0  0  0  0  0  0  0  0  0
   19.5841   -2.5584  -15.8139 O   0  0  0  0  0  0  0  0  0  0  0  0
   20.3063   -4.8095  -15.4106 C   0  0  0  0  0  0  0  0  0  0  0  0
   21.5884   -5.6154  -15.2468 C   0  0  2  0  0  0  0  0  0  0  0  0
   21.2248   -7.0245  -14.9665 N   0  0  0  0  0  0  0  0  0  0  0  0
   22.2496   -5.1259  -14.0160 C   0  0  0  0  0  0  0  0  0  0  0  0
   22.1251   -5.8449  -12.8435 O   0  0  0  0  0  0  0  0  0  0  0  0
   22.9171   -4.0832  -13.9984 O   0  0  0  0  0  0  0  0  0  0  0  0
  2  1  1  6
  3  2  1  0
  4  2  1  0
  4  5  1  6
  4  6  1  0
  6  7  2  0
  9  8  1  0
 10  9  1  1
 10 12  1  0
 11  6  1  0
 11 10  1  0
 12 19  1  0
 13 12  2  0
 15 14  1  0
 16 15  2  0
 17 15  1  0
 18 17  1  1
 19 18  1  0
 20 18  1  0
 20 21  1  0
 22 20  2  0
M  END
$$$$
