TSN.pdb
     RDKit          3D

 22 21  0  0  1  0  0  0  0  0999 V2000
   25.5961  -12.0264  -14.5933 C   0  0  0  0  0  0  0  0  0  0  0  0
   26.3063  -12.1238  -15.9067 C   0  0  1  0  0  0  0  0  0  0  0  0
   27.3368  -13.0530  -15.7859 O   0  0  0  0  0  0  0  0  0  0  0  0
   25.3919  -12.4627  -17.0637 C   0  0  2  0  0  0  0  0  0  0  0  0
   26.1404  -12.6996  -18.2538 N   0  0  0  0  0  0  0  0  0  0  0  0
   24.3935  -11.3714  -17.1949 C   0  0  0  0  0  0  0  0  0  0  0  0
   24.7423  -10.2371  -17.6226 O   0  0  0  0  0  0  0  0  0  0  0  0
   20.2839  -11.5393  -15.8467 O   0  0  0  0  0  0  0  0  0  0  0  0
   20.6412  -10.8990  -17.0543 C   0  0  0  0  0  0  0  0  0  0  0  0
   22.0585  -10.4440  -17.0395 C   0  0  2  0  0  0  0  0  0  0  0  0
   23.0184  -11.5012  -16.8649 N   0  0  0  0  0  0  0  0  0  0  0  0
   22.2157   -9.3750  -16.0194 C   0  0  0  0  0  0  0  0  0  0  0  0
   22.7777   -9.5793  -14.9036 O   0  0  0  0  0  0  0  0  0  0  0  0
   21.8625   -4.4678  -13.8288 N   0  0  0  0  0  0  0  0  0  0  0  0
   22.7458   -4.7144  -14.9003 C   0  0  0  0  0  0  0  0  0  0  0  0
   23.5898   -3.7649  -15.1156 O   0  0  0  0  0  0  0  0  0  0  0  0
   22.7666   -5.9275  -15.7460 C   0  0  0  0  0  0  0  0  0  0  0  0
   21.8059   -6.9999  -15.2490 C   0  0  2  0  0  0  0  0  0  0  0  0
   21.7368   -8.0762  -16.2655 N   0  0  0  0  0  0  0  0  0  0  0  0
   20.4566   -6.3912  -15.2262 C   0  0  0  0  0  0  0  0  0  0  0  0
   19.9697   -5.8572  -14.0493 O   0  0  0  0  0  0  0  0  0  0  0  0
   19.7398   -6.3431  -16.2345 O   0  0  0  0  0  0  0  0  0  0  0  0
  2  1  1  1
  3  2  1  0
  4  2  1  0
  4  5  1  6
  4  6  1  0
  6  7  2  0
  9  8  1  0
 10  9  1  1
 10 12  1  0
 11  6  1  0
 11 10  1  0
 12 19  1  0
 13 12  2  0
 15 14  1  0
 16 15  2  0
 17 15  1  0
 18 17  1  6
 19 18  1  0
 20 18  1  0
 20 21  1  0
 22 20  2  0
M  END
$$$$
