TSN.pdb
     RDKit          3D

 22 21  0  0  1  0  0  0  0  0999 V2000
   13.5831   -7.6506  -10.9624 C   0  0  0  0  0  0  0  0  0  0  0  0
   13.3236   -8.9317  -10.2341 C   0  0  1  0  0  0  0  0  0  0  0  0
   12.0410   -8.8827   -9.6936 O   0  0  0  0  0  0  0  0  0  0  0  0
   13.5129  -10.1632  -11.0928 C   0  0  2  0  0  0  0  0  0  0  0  0
   13.1775  -11.3458  -10.3706 N   0  0  0  0  0  0  0  0  0  0  0  0
   14.9055  -10.1543  -11.6080 C   0  0  0  0  0  0  0  0  0  0  0  0
   15.8671  -10.4561  -10.8495 O   0  0  0  0  0  0  0  0  0  0  0  0
   16.5028  -11.8053  -14.7907 O   0  0  0  0  0  0  0  0  0  0  0  0
   16.7787  -10.4197  -14.7830 C   0  0  0  0  0  0  0  0  0  0  0  0
   16.6181   -9.8324  -13.4246 C   0  0  2  0  0  0  0  0  0  0  0  0
   15.2632   -9.8197  -12.9409 N   0  0  0  0  0  0  0  0  0  0  0  0
   17.2292   -8.4781  -13.4046 C   0  0  0  0  0  0  0  0  0  0  0  0
   16.5478   -7.4237  -13.5678 O   0  0  0  0  0  0  0  0  0  0  0  0
   20.9126   -4.6209  -12.8690 N   0  0  0  0  0  0  0  0  0  0  0  0
   21.4370   -5.8987  -12.5839 C   0  0  0  0  0  0  0  0  0  0  0  0
   22.6682   -5.8896  -12.2041 O   0  0  0  0  0  0  0  0  0  0  0  0
   20.7043   -7.1795  -12.6851 C   0  0  0  0  0  0  0  0  0  0  0  0
   19.2504   -6.9873  -13.0966 C   0  0  2  0  0  0  0  0  0  0  0  0
   18.6111   -8.3204  -13.1989 N   0  0  0  0  0  0  0  0  0  0  0  0
   19.2616   -6.4479  -14.4752 C   0  0  0  0  0  0  0  0  0  0  0  0
   19.1722   -5.0841  -14.6742 O   0  0  0  0  0  0  0  0  0  0  0  0
   19.3482   -7.1825  -15.4680 O   0  0  0  0  0  0  0  0  0  0  0  0
  2  1  1  6
  3  2  1  0
  4  2  1  0
  4  5  1  1
  4  6  1  0
  6  7  2  0
  9  8  1  0
 10  9  1  6
 10 12  1  0
 11  6  1  0
 11 10  1  0
 12 19  1  0
 13 12  2  0
 15 14  1  0
 16 15  2  0
 17 15  1  0
 18 17  1  6
 19 18  1  0
 20 18  1  0
 20 21  1  0
 22 20  2  0
M  END
$$$$
