TSN.pdb
     RDKit          3D

 22 21  0  0  1  0  0  0  0  0999 V2000
   17.7470   -8.7748  -18.3613 C   0  0  0  0  0  0  0  0  0  0  0  0
   17.0315   -9.7198  -17.4481 C   0  0  1  0  0  0  0  0  0  0  0  0
   16.0642  -10.4005  -18.1834 O   0  0  0  0  0  0  0  0  0  0  0  0
   17.9545  -10.6801  -16.7298 C   0  0  2  0  0  0  0  0  0  0  0  0
   17.2124  -11.6935  -16.0553 N   0  0  0  0  0  0  0  0  0  0  0  0
   18.8334   -9.8881  -15.8327 C   0  0  0  0  0  0  0  0  0  0  0  0
   18.3341   -9.0790  -15.0037 O   0  0  0  0  0  0  0  0  0  0  0  0
   23.1055   -9.6479  -16.1860 O   0  0  0  0  0  0  0  0  0  0  0  0
   22.5044   -9.6112  -14.9079 C   0  0  0  0  0  0  0  0  0  0  0  0
   21.0868   -9.1620  -14.9774 C   0  0  2  0  0  0  0  0  0  0  0  0
   20.2513   -9.9667  -15.8283 N   0  0  0  0  0  0  0  0  0  0  0  0
   21.0495   -7.7260  -15.3573 C   0  0  0  0  0  0  0  0  0  0  0  0
   20.9301   -7.3448  -16.5585 O   0  0  0  0  0  0  0  0  0  0  0  0
   20.8578   -2.4112  -15.0044 N   0  0  0  0  0  0  0  0  0  0  0  0
   19.8714   -3.1752  -14.3467 C   0  0  0  0  0  0  0  0  0  0  0  0
   18.8726   -2.4854  -13.9148 O   0  0  0  0  0  0  0  0  0  0  0  0
   19.9062   -4.6384  -14.1339 C   0  0  0  0  0  0  0  0  0  0  0  0
   21.1593   -5.2813  -14.7139 C   0  0  2  0  0  0  0  0  0  0  0  0
   21.1465   -6.7241  -14.3756 N   0  0  0  0  0  0  0  0  0  0  0  0
   22.3128   -4.7138  -13.9796 C   0  0  0  0  0  0  0  0  0  0  0  0
   22.9778   -3.6192  -14.4962 O   0  0  0  0  0  0  0  0  0  0  0  0
   22.7085   -5.1901  -12.9075 O   0  0  0  0  0  0  0  0  0  0  0  0
  2  1  1  6
  3  2  1  0
  4  2  1  0
  4  5  1  1
  4  6  1  0
  6  7  2  0
  9  8  1  0
 10  9  1  6
 10 12  1  0
 11  6  1  0
 11 10  1  0
 12 19  1  0
 13 12  2  0
 15 14  1  0
 16 15  2  0
 17 15  1  0
 18 17  1  1
 19 18  1  0
 20 18  1  0
 20 21  1  0
 22 20  2  0
M  END
$$$$
