TSN.pdb
     RDKit          3D

 22 21  0  0  1  0  0  0  0  0999 V2000
   19.6808  -12.3727  -19.6967 C   0  0  0  0  0  0  0  0  0  0  0  0
   19.6928  -11.3207  -18.6325 C   0  0  1  0  0  0  0  0  0  0  0  0
   18.8182  -10.3029  -19.0051 O   0  0  0  0  0  0  0  0  0  0  0  0
   19.3642  -11.8525  -17.2545 C   0  0  2  0  0  0  0  0  0  0  0  0
   18.0613  -12.4308  -17.2276 N   0  0  0  0  0  0  0  0  0  0  0  0
   19.5457  -10.7467  -16.2802 C   0  0  0  0  0  0  0  0  0  0  0  0
   18.5655  -10.0279  -15.9428 O   0  0  0  0  0  0  0  0  0  0  0  0
   23.1865   -9.9676  -14.1601 O   0  0  0  0  0  0  0  0  0  0  0  0
   21.9215   -9.6105  -13.6419 C   0  0  0  0  0  0  0  0  0  0  0  0
   20.9378   -9.3389  -14.7257 C   0  0  2  0  0  0  0  0  0  0  0  0
   20.7835  -10.4142  -15.6690 N   0  0  0  0  0  0  0  0  0  0  0  0
   21.2901   -8.0589  -15.3931 C   0  0  0  0  0  0  0  0  0  0  0  0
   21.8114   -8.0157  -16.5458 O   0  0  0  0  0  0  0  0  0  0  0  0
   21.7164   -2.7855  -16.2534 N   0  0  0  0  0  0  0  0  0  0  0  0
   20.4372   -3.3390  -16.0385 C   0  0  0  0  0  0  0  0  0  0  0  0
   19.4649   -2.5385  -16.3104 O   0  0  0  0  0  0  0  0  0  0  0  0
   20.1543   -4.7059  -15.5495 C   0  0  0  0  0  0  0  0  0  0  0  0
   21.4208   -5.5321  -15.3661 C   0  0  2  0  0  0  0  0  0  0  0  0
   21.0503   -6.8298  -14.7537 N   0  0  0  0  0  0  0  0  0  0  0  0
   22.2442   -4.8371  -14.3509 C   0  0  0  0  0  0  0  0  0  0  0  0
   23.1010   -3.8275  -14.7431 O   0  0  0  0  0  0  0  0  0  0  0  0
   22.1932   -5.1314  -13.1493 O   0  0  0  0  0  0  0  0  0  0  0  0
  2  1  1  6
  3  2  1  0
  4  2  1  0
  4  5  1  6
  4  6  1  0
  6  7  2  0
  9  8  1  0
 10  9  1  1
 10 12  1  0
 11  6  1  0
 11 10  1  0
 12 19  1  0
 13 12  2  0
 15 14  1  0
 16 15  2  0
 17 15  1  0
 18 17  1  1
 19 18  1  0
 20 18  1  0
 20 21  1  0
 22 20  2  0
M  END
$$$$
