TSN.pdb
     RDKit          3D

 22 21  0  0  1  0  0  0  0  0999 V2000
   19.5253  -10.6057  -19.2553 C   0  0  0  0  0  0  0  0  0  0  0  0
   18.8090  -11.5785  -18.3723 C   0  0  1  0  0  0  0  0  0  0  0  0
   18.0156  -12.4001  -19.1693 O   0  0  0  0  0  0  0  0  0  0  0  0
   19.7348  -12.3910  -17.4935 C   0  0  2  0  0  0  0  0  0  0  0  0
   19.0195  -13.4171  -16.8094 N   0  0  0  0  0  0  0  0  0  0  0  0
   20.4468  -11.4549  -16.5872 C   0  0  0  0  0  0  0  0  0  0  0  0
   19.8232  -10.8656  -15.6626 O   0  0  0  0  0  0  0  0  0  0  0  0
   24.2046  -11.6816  -14.9128 O   0  0  0  0  0  0  0  0  0  0  0  0
   23.9582  -10.4912  -15.6328 C   0  0  0  0  0  0  0  0  0  0  0  0
   22.5007  -10.2349  -15.7935 C   0  0  2  0  0  0  0  0  0  0  0  0
   21.8315  -11.1526  -16.6766 N   0  0  0  0  0  0  0  0  0  0  0  0
   22.2974   -8.8207  -16.2019 C   0  0  0  0  0  0  0  0  0  0  0  0
   22.3227   -8.4539  -17.4132 O   0  0  0  0  0  0  0  0  0  0  0  0
   20.8807   -3.7347  -16.2387 N   0  0  0  0  0  0  0  0  0  0  0  0
   19.9707   -4.7909  -16.0254 C   0  0  0  0  0  0  0  0  0  0  0  0
   18.7333   -4.4326  -16.0511 O   0  0  0  0  0  0  0  0  0  0  0  0
   20.3252   -6.2071  -15.7890 C   0  0  0  0  0  0  0  0  0  0  0  0
   21.8234   -6.4086  -15.6022 C   0  0  2  0  0  0  0  0  0  0  0  0
   22.0650   -7.8246  -15.2372 N   0  0  0  0  0  0  0  0  0  0  0  0
   22.2179   -5.6214  -14.4121 C   0  0  0  0  0  0  0  0  0  0  0  0
   22.3128   -4.2467  -14.5051 O   0  0  0  0  0  0  0  0  0  0  0  0
   22.4696   -6.1559  -13.3240 O   0  0  0  0  0  0  0  0  0  0  0  0
  2  1  1  6
  3  2  1  0
  4  2  1  0
  4  5  1  1
  4  6  1  0
  6  7  2  0
  9  8  1  0
 10  9  1  6
 10 12  1  0
 11  6  1  0
 11 10  1  0
 12 19  1  0
 13 12  2  0
 15 14  1  0
 16 15  2  0
 17 15  1  0
 18 17  1  1
 19 18  1  0
 20 18  1  0
 20 21  1  0
 22 20  2  0
M  END
$$$$
