TSN.pdb
     RDKit          3D

 22 21  0  0  1  0  0  0  0  0999 V2000
   17.3161  -11.1879  -11.9767 C   0  0  0  0  0  0  0  0  0  0  0  0
   15.8550  -11.1824  -12.2996 C   0  0  1  0  0  0  0  0  0  0  0  0
   15.4538  -12.4900  -12.5622 O   0  0  0  0  0  0  0  0  0  0  0  0
   15.0011  -10.5499  -11.2222 C   0  0  2  0  0  0  0  0  0  0  0  0
   13.6146  -10.7530  -11.4847 N   0  0  0  0  0  0  0  0  0  0  0  0
   15.3839   -9.1194  -11.1136 C   0  0  0  0  0  0  0  0  0  0  0  0
   15.3511   -8.3724  -12.1295 O   0  0  0  0  0  0  0  0  0  0  0  0
   14.6086   -6.5939   -8.0952 O   0  0  0  0  0  0  0  0  0  0  0  0
   15.9580   -6.4839   -8.4990 C   0  0  0  0  0  0  0  0  0  0  0  0
   16.1885   -7.1088   -9.8303 C   0  0  2  0  0  0  0  0  0  0  0  0
   15.8028   -8.4925   -9.9102 N   0  0  0  0  0  0  0  0  0  0  0  0
   17.6058   -6.9021  -10.2260 C   0  0  0  0  0  0  0  0  0  0  0  0
   18.5425   -7.6430   -9.8063 O   0  0  0  0  0  0  0  0  0  0  0  0
   21.7501   -5.6476  -13.2441 N   0  0  0  0  0  0  0  0  0  0  0  0
   20.8881   -6.7629  -13.2887 C   0  0  0  0  0  0  0  0  0  0  0  0
   21.3037   -7.7193  -14.0456 O   0  0  0  0  0  0  0  0  0  0  0  0
   19.6080   -6.8998  -12.5606 C   0  0  0  0  0  0  0  0  0  0  0  0
   19.3276   -5.7126  -11.6485 C   0  0  2  0  0  0  0  0  0  0  0  0
   17.9594   -5.8567  -11.0973 N   0  0  0  0  0  0  0  0  0  0  0  0
   19.2814   -4.5098  -12.5103 C   0  0  0  0  0  0  0  0  0  0  0  0
   18.1594   -4.2634  -13.2770 O   0  0  0  0  0  0  0  0  0  0  0  0
   20.2225   -3.7076  -12.5705 O   0  0  0  0  0  0  0  0  0  0  0  0
  2  1  1  1
  3  2  1  0
  4  2  1  0
  4  5  1  6
  4  6  1  0
  6  7  2  0
  9  8  1  0
 10  9  1  1
 10 12  1  0
 11  6  1  0
 11 10  1  0
 12 19  1  0
 13 12  2  0
 15 14  1  0
 16 15  2  0
 17 15  1  0
 18 17  1  6
 19 18  1  0
 20 18  1  0
 20 21  1  0
 22 20  2  0
M  END
$$$$
