TSN.pdb
     RDKit          3D

 22 21  0  0  1  0  0  0  0  0999 V2000
   12.5837  -10.6863  -10.8803 C   0  0  0  0  0  0  0  0  0  0  0  0
   13.5226  -11.8392  -10.7122 C   0  0  1  0  0  0  0  0  0  0  0  0
   12.9329  -12.9752  -11.2612 O   0  0  0  0  0  0  0  0  0  0  0  0
   14.8944  -11.5913  -11.3009 C   0  0  2  0  0  0  0  0  0  0  0  0
   15.6990  -12.7664  -11.2333 N   0  0  0  0  0  0  0  0  0  0  0  0
   15.4881  -10.4215  -10.6054 C   0  0  0  0  0  0  0  0  0  0  0  0
   15.6045  -10.4190   -9.3494 O   0  0  0  0  0  0  0  0  0  0  0  0
   18.2540   -6.4634  -10.5126 O   0  0  0  0  0  0  0  0  0  0  0  0
   17.5988   -7.4227  -11.3167 C   0  0  0  0  0  0  0  0  0  0  0  0
   16.5209   -8.1262  -10.5688 C   0  0  2  0  0  0  0  0  0  0  0  0
   15.9568   -9.2532  -11.2626 N   0  0  0  0  0  0  0  0  0  0  0  0
   15.4824   -7.1409  -10.1702 C   0  0  0  0  0  0  0  0  0  0  0  0
   14.4959   -6.8575  -10.9112 O   0  0  0  0  0  0  0  0  0  0  0  0
   13.7747   -3.6863   -5.2075 N   0  0  0  0  0  0  0  0  0  0  0  0
   13.6854   -4.3481   -6.4497 C   0  0  0  0  0  0  0  0  0  0  0  0
   12.6450   -4.0319   -7.1409 O   0  0  0  0  0  0  0  0  0  0  0  0
   14.6572   -5.3273   -6.9828 C   0  0  0  0  0  0  0  0  0  0  0  0
   14.5468   -5.4935   -8.4929 C   0  0  2  0  0  0  0  0  0  0  0  0
   15.5628   -6.4790   -8.9324 N   0  0  0  0  0  0  0  0  0  0  0  0
   14.9576   -4.2065   -9.0982 C   0  0  0  0  0  0  0  0  0  0  0  0
   13.9960   -3.2742   -9.4352 O   0  0  0  0  0  0  0  0  0  0  0  0
   16.1449   -3.9319   -9.3168 O   0  0  0  0  0  0  0  0  0  0  0  0
  2  1  1  6
  3  2  1  0
  4  2  1  0
  4  5  1  1
  4  6  1  0
  6  7  2  0
  9  8  1  0
 10  9  1  6
 10 12  1  0
 11  6  1  0
 11 10  1  0
 12 19  1  0
 13 12  2  0
 15 14  1  0
 16 15  2  0
 17 15  1  0
 18 17  1  1
 19 18  1  0
 20 18  1  0
 20 21  1  0
 22 20  2  0
M  END
$$$$
