TSN.pdb
     RDKit          3D

 22 21  0  0  1  0  0  0  0  0999 V2000
   18.6926  -11.8065  -19.6070 C   0  0  0  0  0  0  0  0  0  0  0  0
   18.9235  -10.7764  -18.5465 C   0  0  1  0  0  0  0  0  0  0  0  0
   17.9416   -9.7952  -18.6598 O   0  0  0  0  0  0  0  0  0  0  0  0
   18.9696  -11.3506  -17.1472 C   0  0  2  0  0  0  0  0  0  0  0  0
   17.7183  -11.9352  -16.7937 N   0  0  0  0  0  0  0  0  0  0  0  0
   19.4066  -10.2737  -16.2230 C   0  0  0  0  0  0  0  0  0  0  0  0
   18.6678   -9.2722  -16.0174 O   0  0  0  0  0  0  0  0  0  0  0  0
   22.3037   -8.5335  -12.7162 O   0  0  0  0  0  0  0  0  0  0  0  0
   21.9902   -9.6119  -13.5735 C   0  0  0  0  0  0  0  0  0  0  0  0
   21.0659   -9.1989  -14.6648 C   0  0  2  0  0  0  0  0  0  0  0  0
   20.6404  -10.2747  -15.5199 N   0  0  0  0  0  0  0  0  0  0  0  0
   21.6861   -8.0886  -15.4334 C   0  0  0  0  0  0  0  0  0  0  0  0
   22.3902   -8.2887  -16.4662 O   0  0  0  0  0  0  0  0  0  0  0  0
   22.6923   -3.1350  -17.1618 N   0  0  0  0  0  0  0  0  0  0  0  0
   21.4297   -3.7471  -17.3036 C   0  0  0  0  0  0  0  0  0  0  0  0
   20.6341   -3.1320  -18.1091 O   0  0  0  0  0  0  0  0  0  0  0  0
   20.9842   -4.9840  -16.6261 C   0  0  0  0  0  0  0  0  0  0  0  0
   22.0849   -5.6144  -15.7828 C   0  0  2  0  0  0  0  0  0  0  0  0
   21.5067   -6.7533  -15.0312 N   0  0  0  0  0  0  0  0  0  0  0  0
   22.4653   -4.6169  -14.7572 C   0  0  0  0  0  0  0  0  0  0  0  0
   22.1471   -4.8457  -13.4329 O   0  0  0  0  0  0  0  0  0  0  0  0
   23.0644   -3.5726  -15.0460 O   0  0  0  0  0  0  0  0  0  0  0  0
  2  1  1  6
  3  2  1  0
  4  2  1  0
  4  5  1  1
  4  6  1  0
  6  7  2  0
  9  8  1  0
 10  9  1  1
 10 12  1  0
 11  6  1  0
 11 10  1  0
 12 19  1  0
 13 12  2  0
 15 14  1  0
 16 15  2  0
 17 15  1  0
 18 17  1  6
 19 18  1  0
 20 18  1  0
 20 21  1  0
 22 20  2  0
M  END
$$$$
