TSN.pdb
     RDKit          3D

 22 21  0  0  1  0  0  0  0  0999 V2000
   20.7937   -9.4890  -21.2703 C   0  0  0  0  0  0  0  0  0  0  0  0
   21.6390  -10.6026  -20.7370 C   0  0  1  0  0  0  0  0  0  0  0  0
   22.0604  -11.3904  -21.8055 O   0  0  0  0  0  0  0  0  0  0  0  0
   22.8116  -10.1264  -19.9076 C   0  0  2  0  0  0  0  0  0  0  0  0
   23.7440  -11.1824  -19.6879 N   0  0  0  0  0  0  0  0  0  0  0  0
   22.2777   -9.5326  -18.6558 C   0  0  0  0  0  0  0  0  0  0  0  0
   21.2997   -8.7368  -18.6949 O   0  0  0  0  0  0  0  0  0  0  0  0
   22.5659  -11.3302  -14.9341 O   0  0  0  0  0  0  0  0  0  0  0  0
   22.7151   -9.9255  -14.9057 C   0  0  0  0  0  0  0  0  0  0  0  0
   22.2035   -9.2908  -16.1513 C   0  0  2  0  0  0  0  0  0  0  0  0
   22.7972   -9.7955  -17.3606 N   0  0  0  0  0  0  0  0  0  0  0  0
   22.3404   -7.8156  -16.0373 C   0  0  0  0  0  0  0  0  0  0  0  0
   23.3355   -7.1883  -16.5052 O   0  0  0  0  0  0  0  0  0  0  0  0
   21.1477   -2.7108  -14.9559 N   0  0  0  0  0  0  0  0  0  0  0  0
   20.0151   -3.5366  -15.1121 C   0  0  0  0  0  0  0  0  0  0  0  0
   18.8946   -2.9007  -15.1011 O   0  0  0  0  0  0  0  0  0  0  0  0
   20.0294   -5.0059  -15.2809 C   0  0  0  0  0  0  0  0  0  0  0  0
   21.4404   -5.5795  -15.2675 C   0  0  2  0  0  0  0  0  0  0  0  0
   21.3493   -7.0534  -15.3941 N   0  0  0  0  0  0  0  0  0  0  0  0
   21.9921   -5.3326  -13.9161 C   0  0  0  0  0  0  0  0  0  0  0  0
   22.7040   -4.1748  -13.6717 O   0  0  0  0  0  0  0  0  0  0  0  0
   21.8378   -6.1354  -12.9862 O   0  0  0  0  0  0  0  0  0  0  0  0
  2  1  1  6
  3  2  1  0
  4  2  1  0
  4  5  1  1
  4  6  1  0
  6  7  2  0
  9  8  1  0
 10  9  1  1
 10 12  1  0
 11  6  1  0
 11 10  1  0
 12 19  1  0
 13 12  2  0
 15 14  1  0
 16 15  2  0
 17 15  1  0
 18 17  1  1
 19 18  1  0
 20 18  1  0
 20 21  1  0
 22 20  2  0
M  END
$$$$
