TSN.pdb
     RDKit          3D

 22 21  0  0  1  0  0  0  0  0999 V2000
   17.2546   -8.2202  -18.1281 C   0  0  0  0  0  0  0  0  0  0  0  0
   16.6415   -9.3033  -17.2974 C   0  0  1  0  0  0  0  0  0  0  0  0
   15.4817   -9.7446  -17.9297 O   0  0  0  0  0  0  0  0  0  0  0  0
   17.5844  -10.4519  -17.0118 C   0  0  2  0  0  0  0  0  0  0  0  0
   16.9003  -11.5271  -16.3726 N   0  0  0  0  0  0  0  0  0  0  0  0
   18.7283   -9.9227  -16.2269 C   0  0  0  0  0  0  0  0  0  0  0  0
   18.5410   -9.4311  -15.0804 O   0  0  0  0  0  0  0  0  0  0  0  0
   23.5053   -9.1597  -15.5387 O   0  0  0  0  0  0  0  0  0  0  0  0
   22.5068   -9.7225  -16.3648 C   0  0  0  0  0  0  0  0  0  0  0  0
   21.1450   -9.2651  -15.9745 C   0  0  2  0  0  0  0  0  0  0  0  0
   20.0752   -9.9224  -16.6768 N   0  0  0  0  0  0  0  0  0  0  0  0
   21.0720   -7.7868  -16.1060 C   0  0  0  0  0  0  0  0  0  0  0  0
   20.8140   -7.2154  -17.2057 O   0  0  0  0  0  0  0  0  0  0  0  0
   20.7820   -2.6206  -14.9653 N   0  0  0  0  0  0  0  0  0  0  0  0
   19.7238   -3.5365  -14.7907 C   0  0  0  0  0  0  0  0  0  0  0  0
   18.5857   -2.9850  -14.5444 O   0  0  0  0  0  0  0  0  0  0  0  0
   19.8294   -5.0096  -14.8696 C   0  0  0  0  0  0  0  0  0  0  0  0
   21.2622   -5.4796  -15.0847 C   0  0  2  0  0  0  0  0  0  0  0  0
   21.2905   -6.9584  -14.9912 N   0  0  0  0  0  0  0  0  0  0  0  0
   22.0514   -4.9958  -13.9293 C   0  0  0  0  0  0  0  0  0  0  0  0
   22.4776   -3.6826  -13.8971 O   0  0  0  0  0  0  0  0  0  0  0  0
   22.3475   -5.7336  -12.9802 O   0  0  0  0  0  0  0  0  0  0  0  0
  2  1  1  6
  3  2  1  0
  4  2  1  0
  4  5  1  1
  4  6  1  0
  6  7  2  0
  9  8  1  0
 10  9  1  6
 10 12  1  0
 11  6  1  0
 11 10  1  0
 12 19  1  0
 13 12  2  0
 15 14  1  0
 16 15  2  0
 17 15  1  0
 18 17  1  1
 19 18  1  0
 20 18  1  0
 20 21  1  0
 22 20  2  0
M  END
$$$$
