TSN.pdb
     RDKit          3D

 22 21  0  0  1  0  0  0  0  0999 V2000
   27.9088  -27.5609  -19.3612 C   0  0  0  0  0  0  0  0  0  0  0  0
   27.9948  -28.0174  -20.7837 C   0  0  1  0  0  0  0  0  0  0  0  0
   27.0658  -27.3025  -21.5358 O   0  0  0  0  0  0  0  0  0  0  0  0
   29.3845  -27.9031  -21.3713 C   0  0  2  0  0  0  0  0  0  0  0  0
   29.3784  -28.2182  -22.7618 N   0  0  0  0  0  0  0  0  0  0  0  0
   30.2940  -28.7604  -20.5698 C   0  0  0  0  0  0  0  0  0  0  0  0
   30.1661  -30.0152  -20.5870 O   0  0  0  0  0  0  0  0  0  0  0  0
   34.2373  -27.9941  -19.4787 O   0  0  0  0  0  0  0  0  0  0  0  0
   33.4087  -28.4455  -18.4271 C   0  0  0  0  0  0  0  0  0  0  0  0
   32.1797  -29.1110  -18.9395 C   0  0  2  0  0  0  0  0  0  0  0  0
   31.3420  -28.2664  -19.7486 N   0  0  0  0  0  0  0  0  0  0  0  0
   31.4356  -29.7040  -17.7981 C   0  0  0  0  0  0  0  0  0  0  0  0
   30.6243  -29.0332  -17.0951 O   0  0  0  0  0  0  0  0  0  0  0  0
   28.8129  -33.0303  -14.7411 N   0  0  0  0  0  0  0  0  0  0  0  0
   28.4446  -32.4871  -15.9894 C   0  0  0  0  0  0  0  0  0  0  0  0
   27.2033  -32.6553  -16.2911 O   0  0  0  0  0  0  0  0  0  0  0  0
   29.3419  -31.7733  -16.9237 C   0  0  0  0  0  0  0  0  0  0  0  0
   30.7814  -31.7282  -16.4279 C   0  0  2  0  0  0  0  0  0  0  0  0
   31.6113  -31.0563  -17.4557 N   0  0  0  0  0  0  0  0  0  0  0  0
   31.2646  -33.1268  -16.3826 C   0  0  0  0  0  0  0  0  0  0  0  0
   31.2233  -33.8239  -15.1911 O   0  0  0  0  0  0  0  0  0  0  0  0
   31.7103  -33.7012  -17.3848 O   0  0  0  0  0  0  0  0  0  0  0  0
  2  1  1  1
  3  2  1  0
  4  2  1  0
  4  5  1  6
  4  6  1  0
  6  7  2  0
  9  8  1  0
 10  9  1  1
 10 12  1  0
 11  6  1  0
 11 10  1  0
 12 19  1  0
 13 12  2  0
 15 14  1  0
 16 15  2  0
 17 15  1  0
 18 17  1  6
 19 18  1  0
 20 18  1  0
 20 21  1  0
 22 20  2  0
M  END
$$$$
